
  xtb     02282217183D
 energy: -6.978415212932 gnorm: 0.000621334667 xtb: 6.4.1 (afa7bdf)
 34 35  0     0  0            999 V2000
   -5.5109    2.6367    1.3190 C   0  0  0  0  0  0  0  0  0  0  0  0
   -4.6770    1.7008    0.7171 O   0  0  0  0  0  0  0  0  0  0  0  0
   -5.4252    0.8475   -0.0527 C   0  0  0  0  0  0  0  0  0  0  0  0
   -6.6362    0.9604   -0.1464 O   0  0  0  0  0  0  0  0  0  0  0  0
   -4.7277   -0.2213   -0.7725 C   0  0  0  0  0  0  0  0  0  0  0  0
   -5.4513   -1.0915   -1.5503 C   0  0  0  0  0  0  0  0  0  0  0  0
   -6.0152   -1.8609   -2.2253 N   0  0  0  0  0  0  0  0  0  0  0  0
   -3.3504   -0.3787   -0.6895 C   0  0  0  0  0  0  0  0  0  0  0  0
   -2.5745   -1.3574   -1.3252 C   0  0  0  0  0  0  0  0  0  0  0  0
   -1.2182   -1.2715   -1.0597 C   0  0  0  0  0  0  0  0  0  0  0  0
   -0.8546   -0.2288   -0.2089 C   0  0  0  0  0  0  0  0  0  0  0  0
    0.4429    0.0845    0.2192 C   0  0  0  0  0  0  0  0  0  0  0  0
    0.8063    1.1314    1.0654 C   0  0  0  0  0  0  0  0  0  0  0  0
    2.1626    1.2194    1.3325 C   0  0  0  0  0  0  0  0  0  0  0  0
    2.9383    0.2362    0.7038 C   0  0  0  0  0  0  0  0  0  0  0  0
    4.3147    0.0722    0.7857 C   0  0  0  0  0  0  0  0  0  0  0  0
    5.0505    0.9396    1.5544 C   0  0  0  0  0  0  0  0  0  0  0  0
    5.6352    1.7042    2.2169 N   0  0  0  0  0  0  0  0  0  0  0  0
    4.9971   -1.0091    0.0699 C   0  0  0  0  0  0  0  0  0  0  0  0
    4.3742   -1.7985   -0.6223 O   0  0  0  0  0  0  0  0  0  0  0  0
    6.3553   -1.0833    0.2199 O   0  0  0  0  0  0  0  0  0  0  0  0
    6.8533   -2.1534   -0.5120 C   0  0  0  0  0  0  0  0  0  0  0  0
    1.8831   -0.7828   -0.2249 S   0  0  0  0  0  0  0  0  0  0  0  0
   -2.2942    0.6365    0.2446 S   0  0  0  0  0  0  0  0  0  0  0  0
   -6.2325    2.1081    1.9476 H   0  0  0  0  0  0  0  0  0  0  0  0
   -4.9072    3.3180    1.9225 H   0  0  0  0  0  0  0  0  0  0  0  0
   -6.0410    3.1866    0.5367 H   0  0  0  0  0  0  0  0  0  0  0  0
   -3.0099   -2.1085   -1.9651 H   0  0  0  0  0  0  0  0  0  0  0  0
   -0.4897   -1.9535   -1.4756 H   0  0  0  0  0  0  0  0  0  0  0  0
    0.0776    1.8162    1.4760 H   0  0  0  0  0  0  0  0  0  0  0  0
    2.5977    1.9741    1.9682 H   0  0  0  0  0  0  0  0  0  0  0  0
    7.9374   -2.1938   -0.3833 H   0  0  0  0  0  0  0  0  0  0  0  0
    6.3908   -3.0735   -0.1450 H   0  0  0  0  0  0  0  0  0  0  0  0
    6.5988   -2.0060   -1.5649 H   0  0  0  0  0  0  0  0  0  0  0  0
  1  2  1  0  0  0  0
  2  3  1  0  0  0  0
  3  4  2  0  0  0  0
  3  5  1  0  0  0  0
  5  6  1  0  0  0  0
  6  7  3  0  0  0  0
  5  8  2  0  0  0  0
  8  9  1  0  0  0  0
  9 10  2  0  0  0  0
 10 11  1  0  0  0  0
 11 12  2  0  0  0  0
 12 13  1  0  0  0  0
 13 14  2  0  0  0  0
 14 15  1  0  0  0  0
 15 16  2  0  0  0  0
 16 17  1  0  0  0  0
 17 18  3  0  0  0  0
 16 19  1  0  0  0  0
 19 20  2  0  0  0  0
 19 21  1  0  0  0  0
 21 22  1  0  0  0  0
 15 23  1  0  0  0  0
 11 24  1  0  0  0  0
 24  8  1  0  0  0  0
 23 12  1  0  0  0  0
  1 25  1  0  0  0  0
  1 26  1  0  0  0  0
  1 27  1  0  0  0  0
  9 28  1  0  0  0  0
 10 29  1  0  0  0  0
 13 30  1  0  0  0  0
 14 31  1  0  0  0  0
 22 32  1  0  0  0  0
 22 33  1  0  0  0  0
 22 34  1  0  0  0  0
M  END
