
  xtb     02282217183D
 energy: -6.365009322172 gnorm: 0.000219461091 xtb: 6.4.1 (afa7bdf)
 32 33  0     0  0            999 V2000
    5.1702    1.5240    1.3371 C   0  0  0  0  0  0  0  0  0  0  0  0
    4.0418    0.6282    0.9932 C   0  0  0  0  0  0  0  0  0  0  0  0
    3.2106    0.9320   -0.0353 C   0  0  0  0  0  0  0  0  0  0  0  0
    2.1469    0.0745   -0.3767 C   0  0  0  0  0  0  0  0  0  0  0  0
    1.3204    0.3693   -1.4191 O   0  0  0  0  0  0  0  0  0  0  0  0
    1.9717   -1.0970    0.3694 C   0  0  0  0  0  0  0  0  0  0  0  0
    0.9217   -2.0753    0.0125 C   0  0  0  0  0  0  0  0  0  0  0  0
    1.1807   -3.2617   -0.1185 O   0  0  0  0  0  0  0  0  0  0  0  0
   -0.4622   -1.6483   -0.1932 C   0  0  0  0  0  0  0  0  0  0  0  0
   -0.9464   -0.4556    0.1693 C   0  0  0  0  0  0  0  0  0  0  0  0
   -2.3239   -0.0200    0.0025 C   0  0  0  0  0  0  0  0  0  0  0  0
   -2.6491    1.3202    0.2082 C   0  0  0  0  0  0  0  0  0  0  0  0
   -3.9446    1.7597    0.0605 C   0  0  0  0  0  0  0  0  0  0  0  0
   -4.9418    0.8846   -0.2896 C   0  0  0  0  0  0  0  0  0  0  0  0
   -4.6550   -0.4649   -0.4990 C   0  0  0  0  0  0  0  0  0  0  0  0
   -5.6741   -1.3321   -0.8461 O   0  0  0  0  0  0  0  0  0  0  0  0
   -3.3398   -0.9005   -0.3486 C   0  0  0  0  0  0  0  0  0  0  0  0
    2.8632   -1.3686    1.4766 C   0  0  0  0  0  0  0  0  0  0  0  0
    2.6678   -2.3587    2.1730 O   0  0  0  0  0  0  0  0  0  0  0  0
    3.8923   -0.4931    1.7563 O   0  0  0  0  0  0  0  0  0  0  0  0
    5.8723    1.6025    0.5075 H   0  0  0  0  0  0  0  0  0  0  0  0
    5.7059    1.1257    2.1984 H   0  0  0  0  0  0  0  0  0  0  0  0
    4.8146    2.5225    1.5895 H   0  0  0  0  0  0  0  0  0  0  0  0
    3.3699    1.8281   -0.6031 H   0  0  0  0  0  0  0  0  0  0  0  0
    1.6184    1.1880   -1.8703 H   0  0  0  0  0  0  0  0  0  0  0  0
   -1.1085   -2.3811   -0.6378 H   0  0  0  0  0  0  0  0  0  0  0  0
   -0.2645    0.2509    0.6069 H   0  0  0  0  0  0  0  0  0  0  0  0
   -1.8726    2.0126    0.4808 H   0  0  0  0  0  0  0  0  0  0  0  0
   -4.1780    2.8016    0.2217 H   0  0  0  0  0  0  0  0  0  0  0  0
   -5.9575    1.2156   -0.4069 H   0  0  0  0  0  0  0  0  0  0  0  0
   -5.3263   -2.2428   -0.9533 H   0  0  0  0  0  0  0  0  0  0  0  0
   -3.1243   -1.9402   -0.4954 H   0  0  0  0  0  0  0  0  0  0  0  0
  1  2  1  0  0  0  0
  2  3  2  0  0  0  0
  3  4  1  0  0  0  0
  4  5  1  0  0  0  0
  4  6  2  0  0  0  0
  6  7  1  0  0  0  0
  7  8  2  0  0  0  0
  7  9  1  0  0  0  0
  9 10  2  0  0  0  0
 10 11  1  0  0  0  0
 11 12  2  0  0  0  0
 12 13  1  0  0  0  0
 13 14  2  0  0  0  0
 14 15  1  0  0  0  0
 15 16  1  0  0  0  0
 15 17  2  0  0  0  0
  6 18  1  0  0  0  0
 18 19  2  0  0  0  0
 18 20  1  0  0  0  0
 20  2  1  0  0  0  0
 17 11  1  0  0  0  0
  1 21  1  0  0  0  0
  1 22  1  0  0  0  0
  1 23  1  0  0  0  0
  3 24  1  0  0  0  0
  5 25  1  0  0  0  0
  9 26  1  0  0  0  0
 10 27  1  0  0  0  0
 12 28  1  0  0  0  0
 13 29  1  0  0  0  0
 14 30  1  0  0  0  0
 16 31  1  0  0  0  0
 17 32  1  0  0  0  0
M  END
