
  xtb     02282217183D
 energy: -9.825310846064 gnorm: 0.000171273595 xtb: 6.4.1 (afa7bdf)
 44 49  0     0  0            999 V2000
    7.0552    0.3448    0.9778 C   0  0  0  0  0  0  0  0  0  0  0  0
    7.0071   -0.8665    0.3315 C   0  0  0  0  0  0  0  0  0  0  0  0
    5.8025   -1.2692   -0.1801 C   0  0  0  0  0  0  0  0  0  0  0  0
    4.6853   -0.4587   -0.0345 C   0  0  0  0  0  0  0  0  0  0  0  0
    3.3999   -0.9130   -0.5879 C   0  0  0  0  0  0  0  0  0  0  0  0
    2.2923   -0.0996   -0.4283 C   0  0  0  0  0  0  0  0  0  0  0  0
    1.0558   -0.4852   -0.9155 C   0  0  0  0  0  0  0  0  0  0  0  0
   -0.1377    0.3757   -0.7542 C   0  0  0  0  0  0  0  0  0  0  0  0
   -0.0766    1.7116   -1.1579 C   0  0  0  0  0  0  0  0  0  0  0  0
   -1.1592    2.5495   -1.0547 C   0  0  0  0  0  0  0  0  0  0  0  0
   -2.3703    2.0930   -0.5303 C   0  0  0  0  0  0  0  0  0  0  0  0
   -3.5153    2.9397   -0.4191 C   0  0  0  0  0  0  0  0  0  0  0  0
   -4.6777    2.4835    0.0991 C   0  0  0  0  0  0  0  0  0  0  0  0
   -4.8030    1.1358    0.5606 C   0  0  0  0  0  0  0  0  0  0  0  0
   -5.9892    0.6421    1.1070 C   0  0  0  0  0  0  0  0  0  0  0  0
   -6.0730   -0.6618    1.5497 C   0  0  0  0  0  0  0  0  0  0  0  0
   -4.9864   -1.5070    1.4640 C   0  0  0  0  0  0  0  0  0  0  0  0
   -3.7780   -1.0621    0.9242 C   0  0  0  0  0  0  0  0  0  0  0  0
   -2.6279   -1.9035    0.8285 C   0  0  0  0  0  0  0  0  0  0  0  0
   -1.4707   -1.4497    0.2990 C   0  0  0  0  0  0  0  0  0  0  0  0
   -1.3430   -0.1152   -0.1952 C   0  0  0  0  0  0  0  0  0  0  0  0
   -2.4600    0.7504   -0.0918 C   0  0  0  0  0  0  0  0  0  0  0  0
   -3.6836    0.2730    0.4640 C   0  0  0  0  0  0  0  0  0  0  0  0
    1.0157   -1.7061   -1.5783 C   0  0  0  0  0  0  0  0  0  0  0  0
    2.1627   -2.4470   -1.6943 C   0  0  0  0  0  0  0  0  0  0  0  0
    3.3455   -2.0933   -1.2190 N   0  0  0  0  0  0  0  0  0  0  0  0
    4.7282    0.7222    0.5939 N   0  0  0  0  0  0  0  0  0  0  0  0
    5.9026    1.0861    1.0776 C   0  0  0  0  0  0  0  0  0  0  0  0
    7.9791    0.7063    1.3984 H   0  0  0  0  0  0  0  0  0  0  0  0
    7.8877   -1.4797    0.2311 H   0  0  0  0  0  0  0  0  0  0  0  0
    5.7040   -2.2085   -0.6952 H   0  0  0  0  0  0  0  0  0  0  0  0
    2.3972    0.8351    0.0904 H   0  0  0  0  0  0  0  0  0  0  0  0
    0.8449    2.0789   -1.5755 H   0  0  0  0  0  0  0  0  0  0  0  0
   -1.0848    3.5718   -1.3827 H   0  0  0  0  0  0  0  0  0  0  0  0
   -3.4361    3.9581   -0.7588 H   0  0  0  0  0  0  0  0  0  0  0  0
   -5.5306    3.1349    0.1751 H   0  0  0  0  0  0  0  0  0  0  0  0
   -6.8418    1.2942    1.1811 H   0  0  0  0  0  0  0  0  0  0  0  0
   -6.9976   -1.0236    1.9695 H   0  0  0  0  0  0  0  0  0  0  0  0
   -5.0605   -2.5213    1.8154 H   0  0  0  0  0  0  0  0  0  0  0  0
   -2.6975   -2.9136    1.1948 H   0  0  0  0  0  0  0  0  0  0  0  0
   -0.6133   -2.0970    0.2611 H   0  0  0  0  0  0  0  0  0  0  0  0
    0.0905   -2.0495   -2.0074 H   0  0  0  0  0  0  0  0  0  0  0  0
    2.1250   -3.3945   -2.2099 H   0  0  0  0  0  0  0  0  0  0  0  0
    5.9322    2.0387    1.5841 H   0  0  0  0  0  0  0  0  0  0  0  0
  1  2  2  0  0  0  0
  2  3  1  0  0  0  0
  3  4  2  0  0  0  0
  4  5  1  0  0  0  0
  5  6  2  0  0  0  0
  6  7  1  0  0  0  0
  7  8  1  0  0  0  0
  8  9  2  0  0  0  0
  9 10  1  0  0  0  0
 10 11  2  0  0  0  0
 11 12  1  0  0  0  0
 12 13  2  0  0  0  0
 13 14  1  0  0  0  0
 14 15  2  0  0  0  0
 15 16  1  0  0  0  0
 16 17  2  0  0  0  0
 17 18  1  0  0  0  0
 18 19  2  0  0  0  0
 19 20  1  0  0  0  0
 20 21  2  0  0  0  0
 21 22  1  0  0  0  0
 22 23  2  0  0  0  0
  7 24  2  0  0  0  0
 24 25  1  0  0  0  0
 25 26  2  0  0  0  0
  4 27  1  0  0  0  0
 27 28  2  0  0  0  0
 28  1  1  0  0  0  0
 26  5  1  0  0  0  0
 21  8  1  0  0  0  0
 22 11  1  0  0  0  0
 23 14  1  0  0  0  0
 23 18  1  0  0  0  0
  1 29  1  0  0  0  0
  2 30  1  0  0  0  0
  3 31  1  0  0  0  0
  6 32  1  0  0  0  0
  9 33  1  0  0  0  0
 10 34  1  0  0  0  0
 12 35  1  0  0  0  0
 13 36  1  0  0  0  0
 15 37  1  0  0  0  0
 16 38  1  0  0  0  0
 17 39  1  0  0  0  0
 19 40  1  0  0  0  0
 20 41  1  0  0  0  0
 24 42  1  0  0  0  0
 25 43  1  0  0  0  0
 28 44  1  0  0  0  0
M  END
