
  xtb     02282217183D
 energy: -4.679532286425 gnorm: 0.000437439555 xtb: 6.4.1 (afa7bdf)
 24 25  0     0  0            999 V2000
   -1.7601   -3.6430    0.0473 N   0  0  0  0  0  0  0  0  0  0  0  0
   -1.3665   -2.6187   -0.3191 C   0  0  0  0  0  0  0  0  0  0  0  0
   -0.8824   -1.3559   -0.7468 C   0  0  0  0  0  0  0  0  0  0  0  0
    0.5929   -1.3754   -1.2287 C   0  0  0  0  0  0  0  0  0  0  0  0
    1.2392   -0.0586   -0.7519 C   0  0  0  0  0  0  0  0  0  0  0  0
    2.4763   -0.2921    0.0751 C   0  0  0  0  0  0  0  0  0  0  0  0
    2.7057    0.5708    1.1012 N   0  0  0  0  0  0  0  0  0  0  0  0
    3.2143   -1.2159   -0.2008 O   0  0  0  0  0  0  0  0  0  0  0  0
    0.2053    0.6447    0.0506 N   0  0  0  0  0  0  0  0  0  0  0  0
    0.2180    1.9750    0.1914 N   0  0  0  0  0  0  0  0  0  0  0  0
   -0.9267    2.5136    0.4541 C   0  0  0  0  0  0  0  0  0  0  0  0
   -2.1574    1.8102    0.5362 C   0  0  0  0  0  0  0  0  0  0  0  0
   -2.1882    0.4803    0.4757 C   0  0  0  0  0  0  0  0  0  0  0  0
   -0.9165   -0.2729    0.3709 C   0  0  0  0  0  0  0  0  0  0  0  0
   -1.5265   -1.0049   -1.5673 H   0  0  0  0  0  0  0  0  0  0  0  0
    1.1185   -2.2179   -0.7669 H   0  0  0  0  0  0  0  0  0  0  0  0
    0.6740   -1.5103   -2.3130 H   0  0  0  0  0  0  0  0  0  0  0  0
    1.4925    0.5895   -1.6005 H   0  0  0  0  0  0  0  0  0  0  0  0
    3.5234    0.4812    1.6820 H   0  0  0  0  0  0  0  0  0  0  0  0
    2.0758    1.3480    1.3022 H   0  0  0  0  0  0  0  0  0  0  0  0
   -0.9350    3.5869    0.5597 H   0  0  0  0  0  0  0  0  0  0  0  0
   -3.0741    2.3668    0.6404 H   0  0  0  0  0  0  0  0  0  0  0  0
   -3.1193   -0.0593    0.5078 H   0  0  0  0  0  0  0  0  0  0  0  0
   -0.6833   -0.7421    1.3369 H   0  0  0  0  0  0  0  0  0  0  0  0
  1  2  3  0  0  0  0
  2  3  1  0  0  0  0
  3  4  1  0  0  0  0
  4  5  1  0  0  0  0
  5  6  1  0  0  0  0
  6  7  1  0  0  0  0
  6  8  2  0  0  0  0
  5  9  1  0  0  0  0
  9 10  1  0  0  0  0
 10 11  2  0  0  0  0
 11 12  1  0  0  0  0
 12 13  2  0  0  0  0
 13 14  1  0  0  0  0
 14  3  1  0  0  0  0
 14  9  1  0  0  0  0
  3 15  1  0  0  0  0
  4 16  1  0  0  0  0
  4 17  1  0  0  0  0
  5 18  1  0  0  0  0
  7 19  1  0  0  0  0
  7 20  1  0  0  0  0
 11 21  1  0  0  0  0
 12 22  1  0  0  0  0
 13 23  1  0  0  0  0
 14 24  1  0  0  0  0
M  END
