
  xtb     02282217183D
 energy: -5.731720844900 gnorm: 0.000160010340 xtb: 6.4.1 (afa7bdf)
 27 29  0     0  0            999 V2000
   -4.7102    0.2977   -1.0402 C   0  0  0  0  0  0  0  0  0  0  0  0
   -4.5723    0.0024    0.3008 C   0  0  0  0  0  0  0  0  0  0  0  0
   -3.3181   -0.1502    0.8507 C   0  0  0  0  0  0  0  0  0  0  0  0
   -2.1765   -0.0094    0.0656 C   0  0  0  0  0  0  0  0  0  0  0  0
   -0.8157   -0.1642    0.6131 C   0  0  0  0  0  0  0  0  0  0  0  0
   -0.5333   -0.4552    1.9163 C   0  0  0  0  0  0  0  0  0  0  0  0
    1.1578   -0.5510    2.1530 S   0  0  0  0  0  0  0  0  0  0  0  0
    1.4065   -0.1878    0.4533 C   0  0  0  0  0  0  0  0  0  0  0  0
    2.7148   -0.0886   -0.1602 C   0  0  0  0  0  0  0  0  0  0  0  0
    2.8581    0.2010   -1.5083 C   0  0  0  0  0  0  0  0  0  0  0  0
    4.1161    0.2857   -2.0496 C   0  0  0  0  0  0  0  0  0  0  0  0
    5.2395    0.1089   -1.3725 N   0  0  0  0  0  0  0  0  0  0  0  0
    5.0950   -0.1672   -0.0862 C   0  0  0  0  0  0  0  0  0  0  0  0
    3.8878   -0.2753    0.5564 C   0  0  0  0  0  0  0  0  0  0  0  0
    0.2895   -0.0167   -0.1984 N   0  0  0  0  0  0  0  0  0  0  0  0
   -2.3358    0.2882   -1.2832 C   0  0  0  0  0  0  0  0  0  0  0  0
   -3.5897    0.4406   -1.8327 C   0  0  0  0  0  0  0  0  0  0  0  0
   -5.6923    0.4166   -1.4682 H   0  0  0  0  0  0  0  0  0  0  0  0
   -5.4475   -0.1091    0.9190 H   0  0  0  0  0  0  0  0  0  0  0  0
   -3.2191   -0.3803    1.8967 H   0  0  0  0  0  0  0  0  0  0  0  0
   -1.2514   -0.6061    2.6966 H   0  0  0  0  0  0  0  0  0  0  0  0
    1.9799    0.3550   -2.1104 H   0  0  0  0  0  0  0  0  0  0  0  0
    4.2244    0.5114   -3.0997 H   0  0  0  0  0  0  0  0  0  0  0  0
    6.0060   -0.3131    0.4743 H   0  0  0  0  0  0  0  0  0  0  0  0
    3.8374   -0.5025    1.6065 H   0  0  0  0  0  0  0  0  0  0  0  0
   -1.4554    0.3976   -1.8927 H   0  0  0  0  0  0  0  0  0  0  0  0
   -3.6953    0.6712   -2.8796 H   0  0  0  0  0  0  0  0  0  0  0  0
  1  2  2  0  0  0  0
  2  3  1  0  0  0  0
  3  4  2  0  0  0  0
  4  5  1  0  0  0  0
  5  6  2  0  0  0  0
  6  7  1  0  0  0  0
  7  8  1  0  0  0  0
  8  9  1  0  0  0  0
  9 10  2  0  0  0  0
 10 11  1  0  0  0  0
 11 12  2  0  0  0  0
 12 13  1  0  0  0  0
 13 14  2  0  0  0  0
  8 15  2  0  0  0  0
  4 16  1  0  0  0  0
 16 17  2  0  0  0  0
 17  1  1  0  0  0  0
 15  5  1  0  0  0  0
 14  9  1  0  0  0  0
  1 18  1  0  0  0  0
  2 19  1  0  0  0  0
  3 20  1  0  0  0  0
  6 21  1  0  0  0  0
 10 22  1  0  0  0  0
 11 23  1  0  0  0  0
 13 24  1  0  0  0  0
 14 25  1  0  0  0  0
 16 26  1  0  0  0  0
 17 27  1  0  0  0  0
M  END
