
  xtb     02282217183D
 energy: -4.874189457140 gnorm: 0.000223084243 xtb: 6.4.1 (afa7bdf)
 24 26  0     0  0            999 V2000
   -4.5960   -0.5192    0.4624 C   0  0  0  0  0  0  0  0  0  0  0  0
   -4.1236    0.4589   -0.4001 C   0  0  0  0  0  0  0  0  0  0  0  0
   -2.7754    0.6425   -0.5653 C   0  0  0  0  0  0  0  0  0  0  0  0
   -1.8421   -0.1603    0.1392 C   0  0  0  0  0  0  0  0  0  0  0  0
   -0.4746    0.0179   -0.0213 C   0  0  0  0  0  0  0  0  0  0  0  0
    0.7250   -0.9380    0.8172 P   0  0  0  0  0  0  0  0  0  0  0  0
    2.2443   -0.2923    0.2447 C   0  0  0  0  0  0  0  0  0  0  0  0
    3.5115   -0.6953    0.5962 C   0  0  0  0  0  0  0  0  0  0  0  0
    4.6034   -0.0569    0.0313 C   0  0  0  0  0  0  0  0  0  0  0  0
    4.4166    0.9731   -0.8752 C   0  0  0  0  0  0  0  0  0  0  0  0
    3.1429    1.3758   -1.2264 C   0  0  0  0  0  0  0  0  0  0  0  0
    2.0380    0.7412   -0.6648 C   0  0  0  0  0  0  0  0  0  0  0  0
    0.3279    1.1780   -1.0449 S   0  0  0  0  0  0  0  0  0  0  0  0
   -2.3566   -1.1522    1.0140 C   0  0  0  0  0  0  0  0  0  0  0  0
   -3.7082   -1.3201    1.1653 C   0  0  0  0  0  0  0  0  0  0  0  0
   -5.6576   -0.6573    0.5868 H   0  0  0  0  0  0  0  0  0  0  0  0
   -4.8206    1.0768   -0.9423 H   0  0  0  0  0  0  0  0  0  0  0  0
   -2.4050    1.3999   -1.2332 H   0  0  0  0  0  0  0  0  0  0  0  0
    3.6401   -1.4985    1.3031 H   0  0  0  0  0  0  0  0  0  0  0  0
    5.6012   -0.3637    0.2988 H   0  0  0  0  0  0  0  0  0  0  0  0
    5.2713    1.4647   -1.3103 H   0  0  0  0  0  0  0  0  0  0  0  0
    2.9888    2.1754   -1.9301 H   0  0  0  0  0  0  0  0  0  0  0  0
   -1.6666   -1.7724    1.5582 H   0  0  0  0  0  0  0  0  0  0  0  0
   -4.0844   -2.0776    1.8334 H   0  0  0  0  0  0  0  0  0  0  0  0
  1  2  2  0  0  0  0
  2  3  1  0  0  0  0
  3  4  2  0  0  0  0
  4  5  1  0  0  0  0
  5  6  2  0  0  0  0
  6  7  1  0  0  0  0
  7  8  2  0  0  0  0
  8  9  1  0  0  0  0
  9 10  2  0  0  0  0
 10 11  1  0  0  0  0
 11 12  2  0  0  0  0
 12 13  1  0  0  0  0
  4 14  1  0  0  0  0
 14 15  2  0  0  0  0
 15  1  1  0  0  0  0
 13  5  1  0  0  0  0
 12  7  1  0  0  0  0
  1 16  1  0  0  0  0
  2 17  1  0  0  0  0
  3 18  1  0  0  0  0
  8 19  1  0  0  0  0
  9 20  1  0  0  0  0
 10 21  1  0  0  0  0
 11 22  1  0  0  0  0
 14 23  1  0  0  0  0
 15 24  1  0  0  0  0
M  END
