
  xtb     02282217183D
 energy: -9.379970532185 gnorm: 0.000214707392 xtb: 6.4.1 (afa7bdf)
 47 50  0     0  0            999 V2000
    1.4318   -3.1445    0.2970 O   0  0  0  0  0  1  0  0  0  0  0  0
    0.4631   -2.3396    0.1572 N   0  0  0  0  0  4  0  0  0  0  0  0
    0.6959   -0.9622    0.0600 C   0  0  0  0  0  0  0  0  0  0  0  0
    2.0506   -0.5426    0.0988 C   0  0  0  0  0  0  0  0  0  0  0  0
    2.4327    0.7463   -0.0173 C   0  0  0  0  0  0  0  0  0  0  0  0
    3.7926    1.2303    0.0154 C   0  0  0  0  0  0  0  0  0  0  0  0
    4.0385    2.6005   -0.1190 C   0  0  0  0  0  0  0  0  0  0  0  0
    5.3225    3.0930   -0.0917 C   0  0  0  0  0  0  0  0  0  0  0  0
    6.3922    2.2351    0.0696 C   0  0  0  0  0  0  0  0  0  0  0  0
    6.1711    0.8788    0.2040 C   0  0  0  0  0  0  0  0  0  0  0  0
    4.8898    0.3780    0.1780 C   0  0  0  0  0  0  0  0  0  0  0  0
   -0.2835   -0.0700   -0.0568 N   0  0  0  0  0  0  0  0  0  0  0  0
   -1.5381   -0.5228   -0.1010 C   0  0  0  0  0  0  0  0  0  0  0  0
   -2.5883    0.4117   -0.1934 N   0  0  0  0  0  0  0  0  0  0  0  0
   -2.5166    1.8156   -0.1822 C   0  0  0  0  0  0  0  0  0  0  0  0
   -3.6757    2.5717   -0.3594 C   0  0  0  0  0  0  0  0  0  0  0  0
   -3.6274    3.9473   -0.3405 C   0  0  0  0  0  0  0  0  0  0  0  0
   -2.4256    4.5993   -0.1418 C   0  0  0  0  0  0  0  0  0  0  0  0
   -1.2691    3.8664    0.0386 C   0  0  0  0  0  0  0  0  0  0  0  0
   -1.3175    2.4927    0.0174 C   0  0  0  0  0  0  0  0  0  0  0  0
   -1.8580   -1.9024   -0.0520 C   0  0  0  0  0  0  0  0  0  0  0  0
   -0.8410   -2.8074    0.0941 C   0  0  0  0  0  0  0  0  0  0  0  0
   -1.0480   -4.2816    0.1973 C   0  0  0  0  0  0  0  0  0  0  0  0
   -2.4860   -4.6522    0.5873 C   0  0  0  0  0  0  0  0  0  0  0  0
   -3.4894   -3.8744   -0.2719 C   0  0  0  0  0  0  0  0  0  0  0  0
   -3.2960   -2.3520   -0.1359 C   0  0  0  0  0  0  0  0  0  0  0  0
    2.7851   -1.3163    0.2213 H   0  0  0  0  0  0  0  0  0  0  0  0
    1.6618    1.4808   -0.1539 H   0  0  0  0  0  0  0  0  0  0  0  0
    3.2065    3.2715   -0.2448 H   0  0  0  0  0  0  0  0  0  0  0  0
    5.4945    4.1523   -0.1967 H   0  0  0  0  0  0  0  0  0  0  0  0
    7.3975    2.6232    0.0904 H   0  0  0  0  0  0  0  0  0  0  0  0
    7.0070    0.2091    0.3297 H   0  0  0  0  0  0  0  0  0  0  0  0
    4.7330   -0.6799    0.2840 H   0  0  0  0  0  0  0  0  0  0  0  0
   -3.5297    0.0375   -0.2509 H   0  0  0  0  0  0  0  0  0  0  0  0
   -4.6115    2.0641   -0.5138 H   0  0  0  0  0  0  0  0  0  0  0  0
   -4.5310    4.5183   -0.4811 H   0  0  0  0  0  0  0  0  0  0  0  0
   -2.3908    5.6762   -0.1268 H   0  0  0  0  0  0  0  0  0  0  0  0
   -0.3294    4.3710    0.1957 H   0  0  0  0  0  0  0  0  0  0  0  0
   -0.4259    1.9180    0.1619 H   0  0  0  0  0  0  0  0  0  0  0  0
   -0.7870   -4.7397   -0.7635 H   0  0  0  0  0  0  0  0  0  0  0  0
   -0.3275   -4.6834    0.9207 H   0  0  0  0  0  0  0  0  0  0  0  0
   -2.6500   -5.7353    0.4984 H   0  0  0  0  0  0  0  0  0  0  0  0
   -2.6498   -4.4135    1.6454 H   0  0  0  0  0  0  0  0  0  0  0  0
   -4.5189   -4.1590   -0.0149 H   0  0  0  0  0  0  0  0  0  0  0  0
   -3.3607   -4.1641   -1.3220 H   0  0  0  0  0  0  0  0  0  0  0  0
   -3.7714   -1.8502   -0.9877 H   0  0  0  0  0  0  0  0  0  0  0  0
   -3.8224   -1.9959    0.7575 H   0  0  0  0  0  0  0  0  0  0  0  0
  1  2  1  0  0  0  0
  2  3  2  0  0  0  0
  3  4  1  0  0  0  0
  4  5  2  0  0  0  0
  5  6  1  0  0  0  0
  6  7  2  0  0  0  0
  7  8  1  0  0  0  0
  8  9  2  0  0  0  0
  9 10  1  0  0  0  0
 10 11  2  0  0  0  0
  3 12  1  0  0  0  0
 12 13  2  0  0  0  0
 13 14  1  0  0  0  0
 14 15  1  0  0  0  0
 15 16  2  0  0  0  0
 16 17  1  0  0  0  0
 17 18  2  0  0  0  0
 18 19  1  0  0  0  0
 19 20  2  0  0  0  0
 13 21  1  0  0  0  0
 21 22  2  0  0  0  0
 22 23  1  0  0  0  0
 23 24  1  0  0  0  0
 24 25  1  0  0  0  0
 25 26  1  0  0  0  0
 22  2  1  0  0  0  0
 11  6  1  0  0  0  0
 20 15  1  0  0  0  0
 26 21  1  0  0  0  0
  4 27  1  0  0  0  0
  5 28  1  0  0  0  0
  7 29  1  0  0  0  0
  8 30  1  0  0  0  0
  9 31  1  0  0  0  0
 10 32  1  0  0  0  0
 11 33  1  0  0  0  0
 14 34  1  0  0  0  0
 16 35  1  0  0  0  0
 17 36  1  0  0  0  0
 18 37  1  0  0  0  0
 19 38  1  0  0  0  0
 20 39  1  0  0  0  0
 23 40  1  0  0  0  0
 23 41  1  0  0  0  0
 24 42  1  0  0  0  0
 24 43  1  0  0  0  0
 25 44  1  0  0  0  0
 25 45  1  0  0  0  0
 26 46  1  0  0  0  0
 26 47  1  0  0  0  0
M  CHG  1   1  -1
M  CHG  1   2   1
M  END
