
  xtb     02282217183D
 energy: -8.131583214884 gnorm: 0.000334966483 xtb: 6.4.1 (afa7bdf)
 36 39  0     0  0            999 V2000
    5.2312    2.5789   -4.9198 N   0  0  0  0  0  0  0  0  0  0  0  0
    4.4543    2.1428   -4.1737 C   0  0  0  0  0  0  0  0  0  0  0  0
    3.5160    1.6146   -3.2762 C   0  0  0  0  0  0  0  0  0  0  0  0
    3.7753    0.4285   -2.5976 C   0  0  0  0  0  0  0  0  0  0  0  0
    2.8566   -0.0931   -1.7191 C   0  0  0  0  0  0  0  0  0  0  0  0
    1.6400    0.5521   -1.4939 C   0  0  0  0  0  0  0  0  0  0  0  0
    0.6492    0.0314   -0.5606 C   0  0  0  0  0  0  0  0  0  0  0  0
   -0.2228    0.8079    0.0740 N   0  0  0  0  0  0  0  0  0  0  0  0
   -0.9660    0.0212    0.8675 C   0  0  0  0  0  0  0  0  0  0  0  0
   -2.0130    0.5426    1.7477 C   0  0  0  0  0  0  0  0  0  0  0  0
   -2.3836   -0.0980    2.9311 C   0  0  0  0  0  0  0  0  0  0  0  0
   -3.3628    0.4335    3.7402 C   0  0  0  0  0  0  0  0  0  0  0  0
   -3.9863    1.6148    3.3912 C   0  0  0  0  0  0  0  0  0  0  0  0
   -3.6203    2.2717    2.2335 C   0  0  0  0  0  0  0  0  0  0  0  0
   -2.6402    1.7447    1.4231 C   0  0  0  0  0  0  0  0  0  0  0  0
   -0.5757   -1.3315    0.6853 C   0  0  0  0  0  0  0  0  0  0  0  0
   -1.0801   -2.5444    1.1900 C   0  0  0  0  0  0  0  0  0  0  0  0
   -0.5202   -3.7079    0.7625 C   0  0  0  0  0  0  0  0  0  0  0  0
    0.5246   -3.6938   -0.1805 C   0  0  0  0  0  0  0  0  0  0  0  0
    0.9899   -2.5209   -0.6735 C   0  0  0  0  0  0  0  0  0  0  0  0
    0.4553   -1.3207   -0.2335 N   0  0  0  0  0  0  0  0  0  0  0  0
    1.3948    1.7532   -2.1592 C   0  0  0  0  0  0  0  0  0  0  0  0
    2.3136    2.2720   -3.0389 C   0  0  0  0  0  0  0  0  0  0  0  0
    4.7132   -0.0719   -2.7672 H   0  0  0  0  0  0  0  0  0  0  0  0
    3.0923   -0.9811   -1.1616 H   0  0  0  0  0  0  0  0  0  0  0  0
   -1.8670   -0.9911    3.2321 H   0  0  0  0  0  0  0  0  0  0  0  0
   -3.6377   -0.0695    4.6525 H   0  0  0  0  0  0  0  0  0  0  0  0
   -4.7523    2.0283    4.0265 H   0  0  0  0  0  0  0  0  0  0  0  0
   -4.1000    3.1984    1.9655 H   0  0  0  0  0  0  0  0  0  0  0  0
   -2.3426    2.2540    0.5230 H   0  0  0  0  0  0  0  0  0  0  0  0
   -1.9147   -2.5479    1.8662 H   0  0  0  0  0  0  0  0  0  0  0  0
   -0.8902   -4.6505    1.1307 H   0  0  0  0  0  0  0  0  0  0  0  0
    0.9410   -4.6254   -0.5251 H   0  0  0  0  0  0  0  0  0  0  0  0
    1.7460   -2.5046   -1.4362 H   0  0  0  0  0  0  0  0  0  0  0  0
    0.4676    2.2659   -1.9715 H   0  0  0  0  0  0  0  0  0  0  0  0
    2.1149    3.1958   -3.5547 H   0  0  0  0  0  0  0  0  0  0  0  0
  1  2  3  0  0  0  0
  2  3  1  0  0  0  0
  3  4  2  0  0  0  0
  4  5  1  0  0  0  0
  5  6  2  0  0  0  0
  6  7  1  0  0  0  0
  7  8  2  0  0  0  0
  8  9  1  0  0  0  0
  9 10  1  0  0  0  0
 10 11  2  0  0  0  0
 11 12  1  0  0  0  0
 12 13  2  0  0  0  0
 13 14  1  0  0  0  0
 14 15  2  0  0  0  0
  9 16  2  0  0  0  0
 16 17  1  0  0  0  0
 17 18  2  0  0  0  0
 18 19  1  0  0  0  0
 19 20  2  0  0  0  0
 20 21  1  0  0  0  0
  6 22  1  0  0  0  0
 22 23  2  0  0  0  0
 23  3  1  0  0  0  0
 21  7  1  0  0  0  0
 15 10  1  0  0  0  0
 21 16  1  0  0  0  0
  4 24  1  0  0  0  0
  5 25  1  0  0  0  0
 11 26  1  0  0  0  0
 12 27  1  0  0  0  0
 13 28  1  0  0  0  0
 14 29  1  0  0  0  0
 15 30  1  0  0  0  0
 17 31  1  0  0  0  0
 18 32  1  0  0  0  0
 19 33  1  0  0  0  0
 20 34  1  0  0  0  0
 22 35  1  0  0  0  0
 23 36  1  0  0  0  0
M  END
