
     RDKit          3D

 26 28  0  0  0  0  0  0  0  0999 V2000
   -3.7577    1.5274    0.3198 C   0  0  0  0  0  0  0  0  0  0  0  0
   -2.6995    0.5282   -0.0601 C   0  0  0  0  0  0  0  0  0  0  0  0
   -1.4036    0.7148    0.2161 N   0  0  0  0  0  0  0  0  0  0  0  0
   -0.5254   -0.2369   -0.1635 C   0  0  0  0  0  0  0  0  0  0  0  0
   -0.8938   -1.3907   -0.8207 C   0  0  0  0  0  0  0  0  0  0  0  0
    0.0185   -2.3644   -1.2072 C   0  0  0  0  0  0  0  0  0  0  0  0
    1.3527   -2.1928   -0.9337 C   0  0  0  0  0  0  0  0  0  0  0  0
    1.7541   -1.0391   -0.2720 C   0  0  0  0  0  0  0  0  0  0  0  0
    3.0759   -0.8101    0.0300 C   0  0  0  0  0  0  0  0  0  0  0  0
    3.4417    0.3423    0.6861 C   0  0  0  0  0  0  0  0  0  0  0  0
    2.5397    1.3100    1.0709 C   0  0  0  0  0  0  0  0  0  0  0  0
    2.9431    2.4721    1.7372 O   0  0  0  0  0  0  0  0  0  0  0  0
    1.2064    1.0843    0.7690 C   0  0  0  0  0  0  0  0  0  0  0  0
    0.8380   -0.0830    0.1047 C   0  0  0  0  0  0  0  0  0  0  0  0
   -2.1883   -1.5523   -1.0836 O   0  0  0  0  0  0  0  0  0  0  0  0
   -3.0411   -0.6328   -0.7173 C   0  0  0  0  0  0  0  0  0  0  0  0
   -4.2587   -0.8044   -0.9749 O   0  0  0  0  0  0  0  0  0  0  0  0
   -3.3229    2.2706    0.9899 H   0  0  0  0  0  0  0  0  0  0  0  0
   -4.5709    1.0028    0.9005 H   0  0  0  0  0  0  0  0  0  0  0  0
   -4.2492    1.9548   -0.5824 H   0  0  0  0  0  0  0  0  0  0  0  0
   -0.3174   -3.2532   -1.7207 H   0  0  0  0  0  0  0  0  0  0  0  0
    2.1217   -2.8965   -1.1980 H   0  0  0  0  0  0  0  0  0  0  0  0
    3.7886   -1.5728   -0.2731 H   0  0  0  0  0  0  0  0  0  0  0  0
    4.5003    0.5037    0.9164 H   0  0  0  0  0  0  0  0  0  0  0  0
    3.2011    3.3147    1.2243 H   0  0  0  0  0  0  0  0  0  0  0  0
    0.4467    1.8030    1.0424 H   0  0  0  0  0  0  0  0  0  0  0  0
  1  2  1  0
  2  3  2  0
  3  4  1  0
  4  5  2  0
  5  6  1  0
  6  7  2  0
  7  8  1  0
  8  9  2  0
  9 10  1  0
 10 11  2  0
 11 12  1  0
 11 13  1  0
 13 14  2  0
  5 15  1  0
 15 16  1  0
 16 17  2  0
 16  2  1  0
 14  4  1  0
 14  8  1  0
  1 18  1  0
  1 19  1  0
  1 20  1  0
  6 21  1  0
  7 22  1  0
  9 23  1  0
 10 24  1  0
 12 25  1  0
 13 26  1  0
M  END
