
     RDKit          3D

 28 30  0  0  0  0  0  0  0  0999 V2000
    1.2148   -0.4306    0.0993 C   0  0  0  0  0  0  0  0  0  0  0  0
    0.5507    0.6826   -0.1250 C   0  0  0  0  0  0  0  0  0  0  0  0
   -0.9300    0.6701   -0.1419 C   0  0  0  0  0  0  0  0  0  0  0  0
   -1.7464    1.7139   -0.3547 N   0  0  0  0  0  0  0  0  0  0  0  0
   -3.0124    1.2682   -0.2850 C   0  0  0  0  0  0  0  0  0  0  0  0
   -4.2545    1.8694   -0.4176 C   0  0  0  0  0  0  0  0  0  0  0  0
   -5.4407    1.1793   -0.2995 C   0  0  0  0  0  0  0  0  0  0  0  0
   -5.3724   -0.1765   -0.0362 C   0  0  0  0  0  0  0  0  0  0  0  0
   -4.1472   -0.7967    0.0999 C   0  0  0  0  0  0  0  0  0  0  0  0
   -2.9614   -0.0910   -0.0212 C   0  0  0  0  0  0  0  0  0  0  0  0
   -1.6926   -0.3741    0.0503 O   0  0  0  0  0  0  0  0  0  0  0  0
    2.6553   -0.5311    0.1376 C   0  0  0  0  0  0  0  0  0  0  0  0
    3.5006    0.5259   -0.0560 C   0  0  0  0  0  0  0  0  0  0  0  0
    4.8918    0.3803   -0.0096 C   0  0  0  0  0  0  0  0  0  0  0  0
    5.4685   -0.8437    0.2349 C   0  0  0  0  0  0  0  0  0  0  0  0
    4.6167   -1.9074    0.4298 C   0  0  0  0  0  0  0  0  0  0  0  0
    3.2491   -1.7661    0.3845 C   0  0  0  0  0  0  0  0  0  0  0  0
    0.6022   -1.3163    0.2627 H   0  0  0  0  0  0  0  0  0  0  0  0
    1.0900    1.5952   -0.2946 H   0  0  0  0  0  0  0  0  0  0  0  0
   -4.2765    2.9324   -0.6237 H   0  0  0  0  0  0  0  0  0  0  0  0
   -6.3960    1.6966   -0.4122 H   0  0  0  0  0  0  0  0  0  0  0  0
   -6.3175   -0.7242    0.0575 H   0  0  0  0  0  0  0  0  0  0  0  0
   -4.0968   -1.8553    0.3056 H   0  0  0  0  0  0  0  0  0  0  0  0
    3.0951    1.5060   -0.2511 H   0  0  0  0  0  0  0  0  0  0  0  0
    5.5369    1.2354   -0.1668 H   0  0  0  0  0  0  0  0  0  0  0  0
    6.5508   -0.9529    0.2702 H   0  0  0  0  0  0  0  0  0  0  0  0
    5.0529   -2.8893    0.6256 H   0  0  0  0  0  0  0  0  0  0  0  0
    2.5690   -2.6004    0.5371 H   0  0  0  0  0  0  0  0  0  0  0  0
  1  2  2  0
  2  3  1  0
  3  4  2  0
  4  5  1  0
  5  6  2  0
  6  7  1  0
  7  8  2  0
  8  9  1  0
  9 10  2  0
 10 11  1  0
  1 12  1  0
 12 13  2  0
 13 14  1  0
 14 15  2  0
 15 16  1  0
 16 17  2  0
 11  3  1  0
 17 12  1  0
 10  5  1  0
  1 18  1  0
  2 19  1  0
  6 20  1  0
  7 21  1  0
  8 22  1  0
  9 23  1  0
 13 24  1  0
 14 25  1  0
 15 26  1  0
 16 27  1  0
 17 28  1  0
M  END
