
     RDKit          3D

 41 42  0  0  0  0  0  0  0  0999 V2000
    6.8498    0.9804   -0.0411 C   0  0  0  0  0  0  0  0  0  0  0  0
    5.3717    0.7166   -0.0998 C   0  0  0  0  0  0  0  0  0  0  0  0
    4.7410    0.3954   -1.2767 C   0  0  0  0  0  0  0  0  0  0  0  0
    3.3961    0.1261   -1.3624 C   0  0  0  0  0  0  0  0  0  0  0  0
    2.6196    0.1694   -0.2302 C   0  0  0  0  0  0  0  0  0  0  0  0
    1.2309   -0.1367   -0.1928 C   0  0  0  0  0  0  0  0  0  0  0  0
    0.4229   -0.4712   -1.1727 N   0  0  0  0  0  0  0  0  0  0  0  0
   -0.9429   -0.7149   -0.7134 C   0  0  0  0  0  0  0  0  0  0  0  0
   -1.8934    0.2586   -0.6197 C   0  0  0  0  0  0  0  0  0  0  0  0
   -3.1280    0.0033   -0.0480 C   0  0  0  0  0  0  0  0  0  0  0  0
   -4.1754    0.9935    0.2510 C   0  0  0  0  0  0  0  0  0  0  0  0
   -5.0727    1.2729   -0.9670 C   0  0  0  0  0  0  0  0  0  0  0  0
   -3.4912    2.3763    0.5689 C   0  0  0  0  0  0  0  0  0  0  0  0
   -3.4024   -1.2932    0.4373 C   0  0  0  0  0  0  0  0  0  0  0  0
   -4.6460   -1.5682    1.0152 O   0  0  0  0  0  0  0  0  0  0  0  0
   -2.4626   -2.2834    0.3426 C   0  0  0  0  0  0  0  0  0  0  0  0
   -1.2512   -1.9895   -0.2287 C   0  0  0  0  0  0  0  0  0  0  0  0
   -0.2153   -3.0472   -0.3875 C   0  0  0  0  0  0  0  0  0  0  0  0
    3.2330    0.4917    0.9748 C   0  0  0  0  0  0  0  0  0  0  0  0
    4.5822    0.7643    1.0404 C   0  0  0  0  0  0  0  0  0  0  0  0
    7.0422    1.6580    0.8392 H   0  0  0  0  0  0  0  0  0  0  0  0
    7.3985   -0.0007    0.0731 H   0  0  0  0  0  0  0  0  0  0  0  0
    7.1495    1.4592   -0.9704 H   0  0  0  0  0  0  0  0  0  0  0  0
    5.3170    0.3534   -2.2069 H   0  0  0  0  0  0  0  0  0  0  0  0
    2.9265   -0.1266   -2.3202 H   0  0  0  0  0  0  0  0  0  0  0  0
    0.7238   -0.0927    0.7960 H   0  0  0  0  0  0  0  0  0  0  0  0
   -1.7012    1.2556   -0.9781 H   0  0  0  0  0  0  0  0  0  0  0  0
   -4.7621    0.7306    1.1210 H   0  0  0  0  0  0  0  0  0  0  0  0
   -5.0773    0.3734   -1.5952 H   0  0  0  0  0  0  0  0  0  0  0  0
   -4.7458    2.1295   -1.5610 H   0  0  0  0  0  0  0  0  0  0  0  0
   -6.1415    1.3517   -0.5997 H   0  0  0  0  0  0  0  0  0  0  0  0
   -2.8751    2.2143    1.4370 H   0  0  0  0  0  0  0  0  0  0  0  0
   -2.9276    2.7136   -0.3484 H   0  0  0  0  0  0  0  0  0  0  0  0
   -4.3162    3.0845    0.6836 H   0  0  0  0  0  0  0  0  0  0  0  0
   -4.8135   -2.5074    1.3333 H   0  0  0  0  0  0  0  0  0  0  0  0
   -2.7143   -3.2651    0.7149 H   0  0  0  0  0  0  0  0  0  0  0  0
   -0.7623   -3.9487   -0.7516 H   0  0  0  0  0  0  0  0  0  0  0  0
    0.2351   -3.2374    0.6057 H   0  0  0  0  0  0  0  0  0  0  0  0
    0.5104   -2.7420   -1.1651 H   0  0  0  0  0  0  0  0  0  0  0  0
    2.6980    0.5436    1.9251 H   0  0  0  0  0  0  0  0  0  0  0  0
    5.0696    1.0092    1.9657 H   0  0  0  0  0  0  0  0  0  0  0  0
  1  2  1  0
  2  3  2  0
  3  4  1  0
  4  5  2  0
  5  6  1  0
  6  7  2  0
  7  8  1  0
  8  9  2  0
  9 10  1  0
 10 11  1  0
 11 12  1  0
 11 13  1  0
 10 14  2  0
 14 15  1  0
 14 16  1  0
 16 17  2  0
 17 18  1  0
  5 19  1  0
 19 20  2  0
 20  2  1  0
 17  8  1  0
  1 21  1  0
  1 22  1  0
  1 23  1  0
  3 24  1  0
  4 25  1  0
  6 26  1  0
  9 27  1  0
 11 28  1  0
 12 29  1  0
 12 30  1  0
 12 31  1  0
 13 32  1  0
 13 33  1  0
 13 34  1  0
 15 35  1  0
 16 36  1  0
 18 37  1  0
 18 38  1  0
 18 39  1  0
 19 40  1  0
 20 41  1  0
M  END
