
     RDKit          3D

 78 87  0  0  0  0  0  0  0  0999 V2000
    2.6186   -2.0346    1.1274 O   0  0  0  0  0  0  0  0  0  0  0  0
    3.3348   -1.0895    0.4837 C   0  0  0  0  0  0  0  0  0  0  0  0
    2.6775   -0.0407   -0.1735 C   0  0  0  0  0  0  0  0  0  0  0  0
    1.2180   -0.0185   -0.1376 C   0  0  0  0  0  0  0  0  0  0  0  0
    0.4857    0.9572   -0.7608 N   0  0  0  0  0  0  0  0  0  0  0  0
   -0.8240    0.7592   -0.5912 C   0  0  0  0  0  0  0  0  0  0  0  0
   -1.9751    1.4082   -0.9891 C   0  0  0  0  0  0  0  0  0  0  0  0
   -1.8157    2.5473   -1.7491 C   0  0  0  0  0  0  0  0  0  0  0  0
   -2.9275    3.2075   -2.1583 C   0  0  0  0  0  0  0  0  0  0  0  0
   -4.2145    2.8238   -1.8705 C   0  0  0  0  0  0  0  0  0  0  0  0
   -5.4011    3.5356   -2.3146 C   0  0  0  0  0  0  0  0  0  0  0  0
   -5.4400    4.2132   -3.4970 C   0  0  0  0  0  0  0  0  0  0  0  0
   -6.5679    4.8969   -3.9378 C   0  0  0  0  0  0  0  0  0  0  0  0
   -7.7126    4.9042   -3.1600 C   0  0  0  0  0  0  0  0  0  0  0  0
   -7.6894    4.2220   -1.9585 C   0  0  0  0  0  0  0  0  0  0  0  0
   -6.5479    3.5448   -1.5391 C   0  0  0  0  0  0  0  0  0  0  0  0
   -4.3549    1.6594   -1.0939 C   0  0  0  0  0  0  0  0  0  0  0  0
   -3.2556    0.9529   -0.6536 C   0  0  0  0  0  0  0  0  0  0  0  0
   -3.3783   -0.1943    0.1085 C   0  0  0  0  0  0  0  0  0  0  0  0
   -4.6103   -0.6789    0.4614 C   0  0  0  0  0  0  0  0  0  0  0  0
   -4.6852   -1.8364    1.2283 C   0  0  0  0  0  0  0  0  0  0  0  0
   -5.9468   -2.4139    1.6423 C   0  0  0  0  0  0  0  0  0  0  0  0
   -6.0223   -3.1021    2.8502 C   0  0  0  0  0  0  0  0  0  0  0  0
   -7.2083   -3.6697    3.2812 C   0  0  0  0  0  0  0  0  0  0  0  0
   -8.3493   -3.5777    2.5413 C   0  0  0  0  0  0  0  0  0  0  0  0
   -8.2748   -2.8928    1.3390 C   0  0  0  0  0  0  0  0  0  0  0  0
   -7.1045   -2.3227    0.8954 C   0  0  0  0  0  0  0  0  0  0  0  0
   -3.5279   -2.4726    1.6178 C   0  0  0  0  0  0  0  0  0  0  0  0
   -2.2781   -1.9797    1.2588 C   0  0  0  0  0  0  0  0  0  0  0  0
   -2.2076   -0.8354    0.5010 C   0  0  0  0  0  0  0  0  0  0  0  0
   -0.9533   -0.3788    0.1650 C   0  0  0  0  0  0  0  0  0  0  0  0
    0.3143   -0.8145    0.4155 N   0  0  0  0  0  0  0  0  0  0  0  0
    3.3977    0.9083   -0.8191 C   0  0  0  0  0  0  0  0  0  0  0  0
    4.7672    0.8740   -0.8503 C   0  0  0  0  0  0  0  0  0  0  0  0
    5.4213   -0.1762   -0.1924 C   0  0  0  0  0  0  0  0  0  0  0  0
    4.7219   -1.1462    0.4664 C   0  0  0  0  0  0  0  0  0  0  0  0
    5.6353   -2.0423    1.0116 C   0  0  0  0  0  0  0  0  0  0  0  0
    5.5648   -3.1889    1.7591 C   0  0  0  0  0  0  0  0  0  0  0  0
    6.7181   -3.8768    2.1584 C   0  0  0  0  0  0  0  0  0  0  0  0
    7.9500   -3.3932    1.7937 C   0  0  0  0  0  0  0  0  0  0  0  0
    8.0288   -2.2313    1.0359 C   0  0  0  0  0  0  0  0  0  0  0  0
    6.8821   -1.5530    0.6427 C   0  0  0  0  0  0  0  0  0  0  0  0
    6.7358   -0.4352   -0.0779 N   0  0  0  0  0  0  0  0  0  0  0  0
    7.7589    0.3578   -0.6409 C   0  0  0  0  0  0  0  0  0  0  0  0
    8.0043    1.6369   -0.1967 C   0  0  0  0  0  0  0  0  0  0  0  0
    9.0280    2.4084   -0.7683 C   0  0  0  0  0  0  0  0  0  0  0  0
    9.8015    1.8901   -1.7848 C   0  0  0  0  0  0  0  0  0  0  0  0
    9.5585    0.6084   -2.2327 C   0  0  0  0  0  0  0  0  0  0  0  0
    8.5379   -0.1522   -1.6585 C   0  0  0  0  0  0  0  0  0  0  0  0
    2.7631   -2.8092    1.6262 H   0  0  0  0  0  0  0  0  0  0  0  0
   -0.7944    2.8820   -1.9973 H   0  0  0  0  0  0  0  0  0  0  0  0
   -2.7997    4.1024   -2.7547 H   0  0  0  0  0  0  0  0  0  0  0  0
   -4.5591    4.2331   -4.1434 H   0  0  0  0  0  0  0  0  0  0  0  0
   -6.6087    5.4368   -4.8721 H   0  0  0  0  0  0  0  0  0  0  0  0
   -8.6273    5.4096   -3.4318 H   0  0  0  0  0  0  0  0  0  0  0  0
   -8.5792    4.2208   -1.3431 H   0  0  0  0  0  0  0  0  0  0  0  0
   -6.5111    3.0001   -0.5915 H   0  0  0  0  0  0  0  0  0  0  0  0
   -5.3505    1.3239   -0.8465 H   0  0  0  0  0  0  0  0  0  0  0  0
   -5.5277   -0.2131    0.1779 H   0  0  0  0  0  0  0  0  0  0  0  0
   -5.1668   -3.2203    3.4954 H   0  0  0  0  0  0  0  0  0  0  0  0
   -7.2442   -4.2047    4.2292 H   0  0  0  0  0  0  0  0  0  0  0  0
   -9.2508   -4.0370    2.9167 H   0  0  0  0  0  0  0  0  0  0  0  0
   -9.1839   -2.8219    0.7554 H   0  0  0  0  0  0  0  0  0  0  0  0
   -7.0864   -1.7892   -0.0642 H   0  0  0  0  0  0  0  0  0  0  0  0
   -3.5241   -3.3761    2.2146 H   0  0  0  0  0  0  0  0  0  0  0  0
   -1.3782   -2.4964    1.5764 H   0  0  0  0  0  0  0  0  0  0  0  0
    0.4714   -1.6705    0.9774 H   0  0  0  0  0  0  0  0  0  0  0  0
    2.8627    1.7264   -1.3296 H   0  0  0  0  0  0  0  0  0  0  0  0
    5.3399    1.6323   -1.3658 H   0  0  0  0  0  0  0  0  0  0  0  0
    4.6299   -3.5877    2.0551 H   0  0  0  0  0  0  0  0  0  0  0  0
    6.6424   -4.7847    2.7517 H   0  0  0  0  0  0  0  0  0  0  0  0
    8.8656   -3.9062    2.0881 H   0  0  0  0  0  0  0  0  0  0  0  0
    8.9883   -1.8291    0.7354 H   0  0  0  0  0  0  0  0  0  0  0  0
    7.4259    2.0895    0.5972 H   0  0  0  0  0  0  0  0  0  0  0  0
    9.2448    3.4120   -0.4416 H   0  0  0  0  0  0  0  0  0  0  0  0
   10.5950    2.5109   -2.2151 H   0  0  0  0  0  0  0  0  0  0  0  0
   10.1481    0.1740   -3.0309 H   0  0  0  0  0  0  0  0  0  0  0  0
    8.3275   -1.1755   -1.9976 H   0  0  0  0  0  0  0  0  0  0  0  0
  1  2  1  0
  2  3  2  0
  3  4  1  0
  4  5  2  0
  5  6  1  0
  6  7  2  0
  7  8  1  0
  8  9  2  0
  9 10  1  0
 10 11  1  0
 11 12  2  0
 12 13  1  0
 13 14  2  0
 14 15  1  0
 15 16  2  0
 10 17  2  0
 17 18  1  0
 18 19  2  0
 19 20  1  0
 20 21  2  0
 21 22  1  0
 22 23  2  0
 23 24  1  0
 24 25  2  0
 25 26  1  0
 26 27  2  0
 21 28  1  0
 28 29  2  0
 29 30  1  0
 30 31  2  0
 31 32  1  0
  3 33  1  0
 33 34  2  0
 34 35  1  0
 35 36  2  0
 36 37  1  0
 37 38  2  0
 38 39  1  0
 39 40  2  0
 40 41  1  0
 41 42  2  0
 42 43  1  0
 43 44  1  0
 44 45  2  0
 45 46  1  0
 46 47  2  0
 47 48  1  0
 48 49  2  0
 36  2  1  0
 42 37  1  0
 49 44  1  0
 32  4  1  0
 43 35  1  0
 31  6  1  0
 18  7  1  0
 30 19  1  0
 16 11  1  0
 27 22  1  0
  1 50  1  0
  8 51  1  0
  9 52  1  0
 12 53  1  0
 13 54  1  0
 14 55  1  0
 15 56  1  0
 16 57  1  0
 17 58  1  0
 20 59  1  0
 23 60  1  0
 24 61  1  0
 25 62  1  0
 26 63  1  0
 27 64  1  0
 28 65  1  0
 29 66  1  0
 32 67  1  0
 33 68  1  0
 34 69  1  0
 38 70  1  0
 39 71  1  0
 40 72  1  0
 41 73  1  0
 45 74  1  0
 46 75  1  0
 47 76  1  0
 48 77  1  0
 49 78  1  0
M  END
