
     RDKit          3D

 82 91  0  0  0  0  0  0  0  0999 V2000
    4.8614   -5.7704    1.0199 C   0  0  0  0  0  0  0  0  0  0  0  0
    4.7778   -5.1377   -0.3496 C   0  0  0  0  0  0  0  0  0  0  0  0
    4.7013   -3.6982   -0.2952 N   0  0  0  0  0  0  0  0  0  0  0  0
    3.5660   -2.9728   -0.2263 C   0  0  0  0  0  0  0  0  0  0  0  0
    2.2224   -3.2714   -0.1862 C   0  0  0  0  0  0  0  0  0  0  0  0
    1.2464   -2.2691   -0.1134 C   0  0  0  0  0  0  0  0  0  0  0  0
    1.5971   -0.9474   -0.0794 C   0  0  0  0  0  0  0  0  0  0  0  0
    0.6112    0.1379   -0.0035 C   0  0  0  0  0  0  0  0  0  0  0  0
   -0.6875   -0.0336    0.0380 C   0  0  0  0  0  0  0  0  0  0  0  0
   -1.6523    1.0733    0.1140 C   0  0  0  0  0  0  0  0  0  0  0  0
   -1.2949    2.3959    0.1505 C   0  0  0  0  0  0  0  0  0  0  0  0
   -2.2718    3.3993    0.2227 C   0  0  0  0  0  0  0  0  0  0  0  0
   -3.6135    3.0867    0.2589 C   0  0  0  0  0  0  0  0  0  0  0  0
   -3.9699    1.7715    0.2226 C   0  0  0  0  0  0  0  0  0  0  0  0
   -3.0152    0.7836    0.1518 C   0  0  0  0  0  0  0  0  0  0  0  0
   -5.3557    1.6654    0.2680 C   0  0  0  0  0  0  0  0  0  0  0  0
   -6.2189    0.5675    0.2576 C   0  0  0  0  0  0  0  0  0  0  0  0
   -7.5795    0.7741    0.3136 C   0  0  0  0  0  0  0  0  0  0  0  0
   -8.4696   -0.3999    0.3012 C   0  0  0  0  0  0  0  0  0  0  0  0
   -9.7708   -0.4775    0.3441 N   0  0  0  0  0  0  0  0  0  0  0  0
  -10.3737   -1.6297    0.3223 C   0  0  0  0  0  0  0  0  0  0  0  0
  -11.7586   -1.8513    0.3628 C   0  0  0  0  0  0  0  0  0  0  0  0
  -12.2833   -3.1030    0.3344 C   0  0  0  0  0  0  0  0  0  0  0  0
  -11.5061   -4.2324    0.2648 C   0  0  0  0  0  0  0  0  0  0  0  0
  -10.1359   -4.0397    0.2237 C   0  0  0  0  0  0  0  0  0  0  0  0
   -9.5907   -2.7505    0.2528 C   0  0  0  0  0  0  0  0  0  0  0  0
   -8.0218   -2.0674    0.2230 S   0  0  0  0  0  0  0  0  0  0  0  0
   -8.0467    2.0469    0.3776 C   0  0  0  0  0  0  0  0  0  0  0  0
   -7.1937    3.1578    0.3888 C   0  0  0  0  0  0  0  0  0  0  0  0
   -5.8204    2.9614    0.3328 C   0  0  0  0  0  0  0  0  0  0  0  0
   -4.7577    3.7942    0.3260 N   0  0  0  0  0  0  0  0  0  0  0  0
   -4.8295    5.2499    0.3828 C   0  0  0  0  0  0  0  0  0  0  0  0
   -4.9022    5.7214   -1.0650 C   0  0  0  0  0  0  0  0  0  0  0  0
    2.9503   -0.6600   -0.1203 C   0  0  0  0  0  0  0  0  0  0  0  0
    3.9166   -1.6346   -0.1917 C   0  0  0  0  0  0  0  0  0  0  0  0
    5.2841   -1.5480   -0.2405 C   0  0  0  0  0  0  0  0  0  0  0  0
    6.1281   -0.4556   -0.2335 C   0  0  0  0  0  0  0  0  0  0  0  0
    7.4678   -0.6996   -0.2931 C   0  0  0  0  0  0  0  0  0  0  0  0
    8.4253    0.4155   -0.2899 C   0  0  0  0  0  0  0  0  0  0  0  0
    9.7408    0.3888   -0.3407 N   0  0  0  0  0  0  0  0  0  0  0  0
   10.4242    1.4971   -0.3274 C   0  0  0  0  0  0  0  0  0  0  0  0
   11.8240    1.6084   -0.3766 C   0  0  0  0  0  0  0  0  0  0  0  0
   12.4396    2.8274   -0.3568 C   0  0  0  0  0  0  0  0  0  0  0  0
   11.7383    4.0070   -0.2884 C   0  0  0  0  0  0  0  0  0  0  0  0
   10.3662    3.9188   -0.2395 C   0  0  0  0  0  0  0  0  0  0  0  0
    9.7246    2.6700   -0.2593 C   0  0  0  0  0  0  0  0  0  0  0  0
    8.1122    2.1094   -0.2180 S   0  0  0  0  0  0  0  0  0  0  0  0
    7.9769   -1.9750   -0.3580 C   0  0  0  0  0  0  0  0  0  0  0  0
    7.1229   -3.0815   -0.3650 C   0  0  0  0  0  0  0  0  0  0  0  0
    5.7634   -2.8516   -0.3052 C   0  0  0  0  0  0  0  0  0  0  0  0
    5.6753   -5.2214    1.5759 H   0  0  0  0  0  0  0  0  0  0  0  0
    3.9144   -5.7828    1.5626 H   0  0  0  0  0  0  0  0  0  0  0  0
    5.2133   -6.8184    0.8873 H   0  0  0  0  0  0  0  0  0  0  0  0
    5.6976   -5.4771   -0.9101 H   0  0  0  0  0  0  0  0  0  0  0  0
    3.9276   -5.5889   -0.9247 H   0  0  0  0  0  0  0  0  0  0  0  0
    1.9347   -4.3117   -0.2124 H   0  0  0  0  0  0  0  0  0  0  0  0
    0.2317   -2.5898   -0.0865 H   0  0  0  0  0  0  0  0  0  0  0  0
    0.9946    1.1483    0.0192 H   0  0  0  0  0  0  0  0  0  0  0  0
   -1.0348   -1.0638    0.0132 H   0  0  0  0  0  0  0  0  0  0  0  0
   -0.2545    2.6842    0.1241 H   0  0  0  0  0  0  0  0  0  0  0  0
   -1.9825    4.4490    0.2515 H   0  0  0  0  0  0  0  0  0  0  0  0
   -3.3359   -0.2505    0.1247 H   0  0  0  0  0  0  0  0  0  0  0  0
   -5.8055   -0.4267    0.2059 H   0  0  0  0  0  0  0  0  0  0  0  0
  -12.4685   -1.0182    0.4190 H   0  0  0  0  0  0  0  0  0  0  0  0
  -13.3666   -3.2899    0.3656 H   0  0  0  0  0  0  0  0  0  0  0  0
  -11.9465   -5.2191    0.2434 H   0  0  0  0  0  0  0  0  0  0  0  0
   -9.4491   -4.8493    0.1692 H   0  0  0  0  0  0  0  0  0  0  0  0
   -9.1098    2.2275    0.4221 H   0  0  0  0  0  0  0  0  0  0  0  0
   -7.5711    4.1582    0.4395 H   0  0  0  0  0  0  0  0  0  0  0  0
   -3.9949    5.6930    0.9287 H   0  0  0  0  0  0  0  0  0  0  0  0
   -5.8175    5.5329    0.8404 H   0  0  0  0  0  0  0  0  0  0  0  0
   -4.7596    6.8263   -1.1342 H   0  0  0  0  0  0  0  0  0  0  0  0
   -4.1666    5.1950   -1.7034 H   0  0  0  0  0  0  0  0  0  0  0  0
   -5.9445    5.5078   -1.4107 H   0  0  0  0  0  0  0  0  0  0  0  0
    3.2593    0.3693   -0.0952 H   0  0  0  0  0  0  0  0  0  0  0  0
    5.7759    0.5598   -0.1839 H   0  0  0  0  0  0  0  0  0  0  0  0
   12.4535    0.7014   -0.4326 H   0  0  0  0  0  0  0  0  0  0  0  0
   13.5504    2.8497   -0.3982 H   0  0  0  0  0  0  0  0  0  0  0  0
   12.2222    4.9509   -0.2734 H   0  0  0  0  0  0  0  0  0  0  0  0
    9.7132    4.7704   -0.1845 H   0  0  0  0  0  0  0  0  0  0  0  0
    9.0421   -2.1229   -0.4037 H   0  0  0  0  0  0  0  0  0  0  0  0
    7.5331   -4.0647   -0.4157 H   0  0  0  0  0  0  0  0  0  0  0  0
  1  2  1  0
  2  3  1  0
  3  4  1  0
  4  5  2  0
  5  6  1  0
  6  7  2  0
  7  8  1  0
  8  9  2  0
  9 10  1  0
 10 11  2  0
 11 12  1  0
 12 13  2  0
 13 14  1  0
 14 15  2  0
 14 16  1  0
 16 17  2  0
 17 18  1  0
 18 19  1  0
 19 20  2  0
 20 21  1  0
 21 22  2  0
 22 23  1  0
 23 24  2  0
 24 25  1  0
 25 26  2  0
 26 27  1  0
 18 28  2  0
 28 29  1  0
 29 30  2  0
 30 31  1  0
 31 32  1  0
 32 33  1  0
  7 34  1  0
 34 35  2  0
 35 36  1  0
 36 37  2  0
 37 38  1  0
 38 39  1  0
 39 40  2  0
 40 41  1  0
 41 42  2  0
 42 43  1  0
 43 44  2  0
 44 45  1  0
 45 46  2  0
 46 47  1  0
 38 48  2  0
 48 49  1  0
 49 50  2  0
 50  3  1  0
 35  4  1  0
 50 36  1  0
 15 10  1  0
 30 16  1  0
 47 39  1  0
 31 13  1  0
 46 41  1  0
 27 19  1  0
 26 21  1  0
  1 51  1  0
  1 52  1  0
  1 53  1  0
  2 54  1  0
  2 55  1  0
  5 56  1  0
  6 57  1  0
  8 58  1  0
  9 59  1  0
 11 60  1  0
 12 61  1  0
 15 62  1  0
 17 63  1  0
 22 64  1  0
 23 65  1  0
 24 66  1  0
 25 67  1  0
 28 68  1  0
 29 69  1  0
 32 70  1  0
 32 71  1  0
 33 72  1  0
 33 73  1  0
 33 74  1  0
 34 75  1  0
 37 76  1  0
 42 77  1  0
 43 78  1  0
 44 79  1  0
 45 80  1  0
 48 81  1  0
 49 82  1  0
M  END
