
     RDKit          3D

109114  0  0  0  0  0  0  0  0999 V2000
   -8.0588   -5.6813    3.3236 C   0  0  0  0  0  0  0  0  0  0  0  0
   -7.1952   -5.5238    2.1064 C   0  0  0  0  0  0  0  0  0  0  0  0
   -5.7702   -5.2317    2.5965 C   0  0  0  0  0  0  0  0  0  0  0  0
   -4.9304   -5.0848    1.3485 C   0  0  0  0  0  0  0  0  0  0  0  0
   -3.5024   -4.8091    1.7574 C   0  0  0  0  0  0  0  0  0  0  0  0
   -3.3398   -3.5550    2.5693 C   0  0  0  0  0  0  0  0  0  0  0  0
   -3.8344   -2.3310    1.8267 C   0  0  0  0  0  0  0  0  0  0  0  0
   -3.1262   -2.0916    0.5600 C   0  0  0  0  0  0  0  0  0  0  0  0
   -3.6512   -0.8895   -0.2266 C   0  0  0  0  0  0  0  0  0  0  0  0
   -3.5926    0.3575    0.5341 C   0  0  0  0  0  0  0  0  0  0  0  0
   -4.0757    1.6308   -0.0553 C   0  0  0  0  0  0  0  0  0  0  0  0
   -5.5405    1.7289   -0.3227 C   0  0  0  0  0  0  0  0  0  0  0  0
   -5.9040    3.1099   -0.8589 C   0  0  0  0  0  0  0  0  0  0  0  0
   -5.2994    3.3369   -2.1949 C   0  0  0  0  0  0  0  0  0  0  0  0
   -5.6705    4.7071   -2.7475 C   0  0  0  0  0  0  0  0  0  0  0  0
   -5.1144    5.8088   -1.9062 C   0  0  0  0  0  0  0  0  0  0  0  0
   -5.5264    7.1619   -2.5052 C   0  0  0  0  0  0  0  0  0  0  0  0
   -2.5084   -0.7204   -1.2587 C   0  0  0  0  0  0  0  0  0  0  0  0
   -1.2019   -0.4417   -1.0034 C   0  0  0  0  0  0  0  0  0  0  0  0
   -0.2512   -0.2965   -2.0333 C   0  0  0  0  0  0  0  0  0  0  0  0
    1.0811    0.0111   -1.6140 C   0  0  0  0  0  0  0  0  0  0  0  0
    2.2227    0.2624   -1.2469 C   0  0  0  0  0  0  0  0  0  0  0  0
    3.5382    0.5338   -0.8073 C   0  0  0  0  0  0  0  0  0  0  0  0
    4.6608    0.7596   -0.4357 C   0  0  0  0  0  0  0  0  0  0  0  0
    6.0180    1.0571    0.0067 C   0  0  0  0  0  0  0  0  0  0  0  0
    6.4580    0.6658    1.2216 C   0  0  0  0  0  0  0  0  0  0  0  0
    7.8091    0.8377    1.5485 C   0  0  0  0  0  0  0  0  0  0  0  0
    8.7294    1.3891    0.6928 C   0  0  0  0  0  0  0  0  0  0  0  0
   10.1192    1.4838    0.9721 N   0  0  0  0  0  0  0  0  0  0  0  0
   11.0332    1.1397   -0.0550 C   0  0  0  0  0  0  0  0  0  0  0  0
   10.7389   -0.0414   -0.7493 C   0  0  0  0  0  0  0  0  0  0  0  0
   11.5197   -0.5098   -1.7757 C   0  0  0  0  0  0  0  0  0  0  0  0
   12.6434    0.2150   -2.1381 C   0  0  0  0  0  0  0  0  0  0  0  0
   12.9267    1.3632   -1.4603 C   0  0  0  0  0  0  0  0  0  0  0  0
   12.1309    1.8449   -0.4116 C   0  0  0  0  0  0  0  0  0  0  0  0
   10.5863    1.8463    2.2366 C   0  0  0  0  0  0  0  0  0  0  0  0
   11.6526    1.0796    2.7365 C   0  0  0  0  0  0  0  0  0  0  0  0
   12.1863    1.3489    3.9711 C   0  0  0  0  0  0  0  0  0  0  0  0
   11.6683    2.3800    4.7197 C   0  0  0  0  0  0  0  0  0  0  0  0
   10.6245    3.1271    4.2268 C   0  0  0  0  0  0  0  0  0  0  0  0
   10.0646    2.8743    2.9794 C   0  0  0  0  0  0  0  0  0  0  0  0
    8.2410    1.7924   -0.5608 C   0  0  0  0  0  0  0  0  0  0  0  0
    6.9203    1.6261   -0.8866 C   0  0  0  0  0  0  0  0  0  0  0  0
   -0.7063   -0.4501   -3.2965 C   0  0  0  0  0  0  0  0  0  0  0  0
   -2.0507   -0.7353   -3.5544 C   0  0  0  0  0  0  0  0  0  0  0  0
   -2.9665   -0.8757   -2.5145 C   0  0  0  0  0  0  0  0  0  0  0  0
   -4.3829   -1.2114   -2.3906 C   0  0  0  0  0  0  0  0  0  0  0  0
   -5.2856   -1.5234   -3.3598 C   0  0  0  0  0  0  0  0  0  0  0  0
   -6.5886   -1.8872   -3.0744 C   0  0  0  0  0  0  0  0  0  0  0  0
   -6.9925   -1.9378   -1.7744 C   0  0  0  0  0  0  0  0  0  0  0  0
   -8.3665   -2.3341   -1.4514 C   0  0  0  0  0  0  0  0  0  0  0  0
   -9.1985   -2.6311   -2.3524 O   0  0  0  0  0  0  0  0  0  0  0  0
   -6.0822   -1.6215   -0.7913 C   0  0  0  0  0  0  0  0  0  0  0  0
   -4.7623   -1.2503   -1.0573 C   0  0  0  0  0  0  0  0  0  0  0  0
   -7.7354   -5.0498    4.1812 H   0  0  0  0  0  0  0  0  0  0  0  0
   -7.9882   -6.7189    3.6692 H   0  0  0  0  0  0  0  0  0  0  0  0
   -9.1125   -5.3956    3.0692 H   0  0  0  0  0  0  0  0  0  0  0  0
   -7.5583   -4.7296    1.4325 H   0  0  0  0  0  0  0  0  0  0  0  0
   -7.1391   -6.4384    1.4835 H   0  0  0  0  0  0  0  0  0  0  0  0
   -5.7602   -4.3124    3.2093 H   0  0  0  0  0  0  0  0  0  0  0  0
   -5.4493   -6.0503    3.2369 H   0  0  0  0  0  0  0  0  0  0  0  0
   -4.9302   -6.0007    0.7465 H   0  0  0  0  0  0  0  0  0  0  0  0
   -5.3818   -4.2410    0.7766 H   0  0  0  0  0  0  0  0  0  0  0  0
   -2.8032   -4.8633    0.9015 H   0  0  0  0  0  0  0  0  0  0  0  0
   -3.2216   -5.6641    2.4226 H   0  0  0  0  0  0  0  0  0  0  0  0
   -2.2773   -3.4487    2.8567 H   0  0  0  0  0  0  0  0  0  0  0  0
   -3.8903   -3.6828    3.5109 H   0  0  0  0  0  0  0  0  0  0  0  0
   -4.9336   -2.3484    1.8134 H   0  0  0  0  0  0  0  0  0  0  0  0
   -3.5667   -1.4633    2.5107 H   0  0  0  0  0  0  0  0  0  0  0  0
   -2.0643   -1.8529    0.7902 H   0  0  0  0  0  0  0  0  0  0  0  0
   -3.1436   -2.9361   -0.1562 H   0  0  0  0  0  0  0  0  0  0  0  0
   -4.0784    0.2945    1.5545 H   0  0  0  0  0  0  0  0  0  0  0  0
   -2.4988    0.5523    0.8101 H   0  0  0  0  0  0  0  0  0  0  0  0
   -3.8381    2.5167    0.6172 H   0  0  0  0  0  0  0  0  0  0  0  0
   -3.5107    1.8997   -0.9943 H   0  0  0  0  0  0  0  0  0  0  0  0
   -6.0893    1.6240    0.6351 H   0  0  0  0  0  0  0  0  0  0  0  0
   -5.9163    1.0319   -1.1128 H   0  0  0  0  0  0  0  0  0  0  0  0
   -7.0118    3.2193   -0.9277 H   0  0  0  0  0  0  0  0  0  0  0  0
   -5.5143    3.8849   -0.1406 H   0  0  0  0  0  0  0  0  0  0  0  0
   -4.2320    3.1782   -2.2672 H   0  0  0  0  0  0  0  0  0  0  0  0
   -5.7755    2.6111   -2.9190 H   0  0  0  0  0  0  0  0  0  0  0  0
   -5.3413    4.8380   -3.7940 H   0  0  0  0  0  0  0  0  0  0  0  0
   -6.7985    4.7499   -2.7747 H   0  0  0  0  0  0  0  0  0  0  0  0
   -3.9861    5.7497   -1.9743 H   0  0  0  0  0  0  0  0  0  0  0  0
   -5.4884    5.7259   -0.8785 H   0  0  0  0  0  0  0  0  0  0  0  0
   -4.6853    7.5896   -3.0750 H   0  0  0  0  0  0  0  0  0  0  0  0
   -5.7988    7.8005   -1.6506 H   0  0  0  0  0  0  0  0  0  0  0  0
   -6.3986    6.9704   -3.1565 H   0  0  0  0  0  0  0  0  0  0  0  0
   -0.8785   -0.3372    0.0395 H   0  0  0  0  0  0  0  0  0  0  0  0
    5.7481    0.2216    1.9184 H   0  0  0  0  0  0  0  0  0  0  0  0
    8.1406    0.5187    2.5301 H   0  0  0  0  0  0  0  0  0  0  0  0
    9.8531   -0.6386   -0.4832 H   0  0  0  0  0  0  0  0  0  0  0  0
   11.2597   -1.4304   -2.2976 H   0  0  0  0  0  0  0  0  0  0  0  0
   13.2418   -0.1752   -2.9540 H   0  0  0  0  0  0  0  0  0  0  0  0
   13.7965    1.9262   -1.7412 H   0  0  0  0  0  0  0  0  0  0  0  0
   12.3857    2.7638    0.1011 H   0  0  0  0  0  0  0  0  0  0  0  0
   12.0602    0.2558    2.1343 H   0  0  0  0  0  0  0  0  0  0  0  0
   13.0154    0.7676    4.3815 H   0  0  0  0  0  0  0  0  0  0  0  0
   12.1032    2.5780    5.6954 H   0  0  0  0  0  0  0  0  0  0  0  0
   10.2292    3.9395    4.8422 H   0  0  0  0  0  0  0  0  0  0  0  0
    9.2419    3.4695    2.6029 H   0  0  0  0  0  0  0  0  0  0  0  0
    8.9686    2.2317   -1.2325 H   0  0  0  0  0  0  0  0  0  0  0  0
    6.5496    1.9356   -1.8466 H   0  0  0  0  0  0  0  0  0  0  0  0
    0.0250   -0.3349   -4.1014 H   0  0  0  0  0  0  0  0  0  0  0  0
   -2.3790   -0.8463   -4.5571 H   0  0  0  0  0  0  0  0  0  0  0  0
   -5.0074   -1.4961   -4.4298 H   0  0  0  0  0  0  0  0  0  0  0  0
   -7.3109   -2.1336   -3.8530 H   0  0  0  0  0  0  0  0  0  0  0  0
   -8.7418   -2.3933   -0.4410 H   0  0  0  0  0  0  0  0  0  0  0  0
   -6.4801   -1.6768    0.2221 H   0  0  0  0  0  0  0  0  0  0  0  0
  1  2  1  0
  2  3  1  0
  3  4  1  0
  4  5  1  0
  5  6  1  0
  6  7  1  0
  7  8  1  0
  8  9  1  0
  9 10  1  0
 10 11  1  0
 11 12  1  0
 12 13  1  0
 13 14  1  0
 14 15  1  0
 15 16  1  0
 16 17  1  0
  9 18  1  0
 18 19  2  0
 19 20  1  0
 20 21  1  0
 21 22  3  0
 22 23  1  0
 23 24  3  0
 24 25  1  0
 25 26  2  0
 26 27  1  0
 27 28  2  0
 28 29  1  0
 29 30  1  0
 30 31  2  0
 31 32  1  0
 32 33  2  0
 33 34  1  0
 34 35  2  0
 29 36  1  0
 36 37  2  0
 37 38  1  0
 38 39  2  0
 39 40  1  0
 40 41  2  0
 28 42  1  0
 42 43  2  0
 20 44  2  0
 44 45  1  0
 45 46  2  0
 46 47  1  0
 47 48  2  0
 48 49  1  0
 49 50  2  0
 50 51  1  0
 51 52  2  0
 50 53  1  0
 53 54  2  0
 54  9  1  0
 46 18  1  0
 54 47  1  0
 43 25  1  0
 35 30  1  0
 41 36  1  0
  1 55  1  0
  1 56  1  0
  1 57  1  0
  2 58  1  0
  2 59  1  0
  3 60  1  0
  3 61  1  0
  4 62  1  0
  4 63  1  0
  5 64  1  0
  5 65  1  0
  6 66  1  0
  6 67  1  0
  7 68  1  0
  7 69  1  0
  8 70  1  0
  8 71  1  0
 10 72  1  0
 10 73  1  0
 11 74  1  0
 11 75  1  0
 12 76  1  0
 12 77  1  0
 13 78  1  0
 13 79  1  0
 14 80  1  0
 14 81  1  0
 15 82  1  0
 15 83  1  0
 16 84  1  0
 16 85  1  0
 17 86  1  0
 17 87  1  0
 17 88  1  0
 19 89  1  0
 26 90  1  0
 27 91  1  0
 31 92  1  0
 32 93  1  0
 33 94  1  0
 34 95  1  0
 35 96  1  0
 37 97  1  0
 38 98  1  0
 39 99  1  0
 40100  1  0
 41101  1  0
 42102  1  0
 43103  1  0
 44104  1  0
 45105  1  0
 48106  1  0
 49107  1  0
 51108  1  0
 53109  1  0
M  END
