
     RDKit          3D

 84 90  0  0  0  0  0  0  0  0999 V2000
   -1.7406   -0.0243   -0.8444 C   0  0  0  0  0  0  0  0  0  0  0  0
   -1.3533   -0.0715    0.4102 C   0  0  0  0  0  0  0  0  0  0  0  0
    0.0551   -0.0147    0.7967 C   0  0  0  0  0  0  0  0  0  0  0  0
    0.6218   -0.0436    2.0107 N   0  0  0  0  0  0  0  0  0  0  0  0
    1.9813    0.0358    1.8758 C   0  0  0  0  0  0  0  0  0  0  0  0
    2.1933    0.1139    0.5071 C   0  0  0  0  0  0  0  0  0  0  0  0
    3.5269    0.2147   -0.1008 C   0  0  0  0  0  0  0  0  0  0  0  0
    3.6506    0.2740   -1.4754 C   0  0  0  0  0  0  0  0  0  0  0  0
    4.9028    0.3763   -2.0697 C   0  0  0  0  0  0  0  0  0  0  0  0
    6.0370    0.4205   -1.2841 C   0  0  0  0  0  0  0  0  0  0  0  0
    7.2659    0.5221   -1.8936 O   0  0  0  0  0  0  0  0  0  0  0  0
    7.3383    0.5787   -3.3006 C   0  0  0  0  0  0  0  0  0  0  0  0
    8.7561    0.6831   -3.7508 C   0  0  0  0  0  0  0  0  0  0  0  0
    9.0998    1.5641   -4.7569 C   0  0  0  0  0  0  0  0  0  0  0  0
   10.4239    1.6294   -5.1467 C   0  0  0  0  0  0  0  0  0  0  0  0
   11.3937    0.8440   -4.5598 C   0  0  0  0  0  0  0  0  0  0  0  0
   11.0137   -0.0201   -3.5627 C   0  0  0  0  0  0  0  0  0  0  0  0
    9.7139   -0.0950   -3.1688 C   0  0  0  0  0  0  0  0  0  0  0  0
    5.9409    0.3632    0.0883 C   0  0  0  0  0  0  0  0  0  0  0  0
    7.0677    0.4071    0.8922 O   0  0  0  0  0  0  0  0  0  0  0  0
    7.0893    0.3489    2.2782 C   0  0  0  0  0  0  0  0  0  0  0  0
    6.5059   -0.9425    2.7354 C   0  0  0  0  0  0  0  0  0  0  0  0
    6.0922   -1.0802    4.0445 C   0  0  0  0  0  0  0  0  0  0  0  0
    5.5657   -2.2702    4.4807 C   0  0  0  0  0  0  0  0  0  0  0  0
    5.4405   -3.3384    3.6313 C   0  0  0  0  0  0  0  0  0  0  0  0
    5.8581   -3.1769    2.3360 C   0  0  0  0  0  0  0  0  0  0  0  0
    6.3923   -1.9981    1.8607 C   0  0  0  0  0  0  0  0  0  0  0  0
    4.6717    0.2604    0.6434 C   0  0  0  0  0  0  0  0  0  0  0  0
    1.0344    0.0794   -0.0579 O   0  0  0  0  0  0  0  0  0  0  0  0
   -3.1186   -0.0762   -1.3078 C   0  0  0  0  0  0  0  0  0  0  0  0
   -3.3142   -0.0081   -2.6909 C   0  0  0  0  0  0  0  0  0  0  0  0
   -4.5654   -0.0591   -3.2150 C   0  0  0  0  0  0  0  0  0  0  0  0
   -5.6556   -0.1794   -2.3789 C   0  0  0  0  0  0  0  0  0  0  0  0
   -5.4568   -0.2475   -1.0007 C   0  0  0  0  0  0  0  0  0  0  0  0
   -6.5464   -0.4029   -0.1305 N   0  0  0  0  0  0  0  0  0  0  0  0
   -6.5375    0.0723    1.2366 C   0  0  0  0  0  0  0  0  0  0  0  0
   -7.8093   -0.3305    1.9665 C   0  0  0  0  0  0  0  0  0  0  0  0
   -8.9539    0.0676    1.1946 N   0  0  0  0  0  0  0  0  0  0  0  0
  -10.0618    0.7302    1.7835 C   0  0  0  0  0  0  0  0  0  0  0  0
  -10.2018    0.9363    3.1253 C   0  0  0  0  0  0  0  0  0  0  0  0
  -11.3116    1.5934    3.6408 C   0  0  0  0  0  0  0  0  0  0  0  0
  -12.3026    2.0552    2.8067 C   0  0  0  0  0  0  0  0  0  0  0  0
  -12.1622    1.8481    1.4553 C   0  0  0  0  0  0  0  0  0  0  0  0
  -11.0754    1.2037    0.9406 C   0  0  0  0  0  0  0  0  0  0  0  0
   -8.9740   -0.2363   -0.2454 C   0  0  0  0  0  0  0  0  0  0  0  0
   -7.7735   -1.0842   -0.5444 C   0  0  0  0  0  0  0  0  0  0  0  0
   -4.1897   -0.1956   -0.4628 C   0  0  0  0  0  0  0  0  0  0  0  0
   -0.9375    0.0626   -1.5737 H   0  0  0  0  0  0  0  0  0  0  0  0
   -2.0921   -0.1530    1.1852 H   0  0  0  0  0  0  0  0  0  0  0  0
    2.6954    0.0357    2.6873 H   0  0  0  0  0  0  0  0  0  0  0  0
    2.7485    0.2380   -2.0679 H   0  0  0  0  0  0  0  0  0  0  0  0
    4.9722    0.4175   -3.1445 H   0  0  0  0  0  0  0  0  0  0  0  0
    6.6920    1.3531   -3.7108 H   0  0  0  0  0  0  0  0  0  0  0  0
    6.9640   -0.3964   -3.7294 H   0  0  0  0  0  0  0  0  0  0  0  0
    8.3665    2.1903   -5.2337 H   0  0  0  0  0  0  0  0  0  0  0  0
   10.7060    2.3133   -5.9340 H   0  0  0  0  0  0  0  0  0  0  0  0
   12.4093    0.9389   -4.9056 H   0  0  0  0  0  0  0  0  0  0  0  0
   11.7548   -0.6434   -3.0910 H   0  0  0  0  0  0  0  0  0  0  0  0
    9.4256   -0.7796   -2.3815 H   0  0  0  0  0  0  0  0  0  0  0  0
    8.0533    0.5789    2.7321 H   0  0  0  0  0  0  0  0  0  0  0  0
    6.3723    1.1335    2.6585 H   0  0  0  0  0  0  0  0  0  0  0  0
    6.1827   -0.2342    4.7461 H   0  0  0  0  0  0  0  0  0  0  0  0
    5.2567   -2.3221    5.5229 H   0  0  0  0  0  0  0  0  0  0  0  0
    5.0281   -4.2796    3.9612 H   0  0  0  0  0  0  0  0  0  0  0  0
    5.7823   -3.9951    1.6210 H   0  0  0  0  0  0  0  0  0  0  0  0
    6.7175   -1.9070    0.8155 H   0  0  0  0  0  0  0  0  0  0  0  0
    4.5316    0.2116    1.7331 H   0  0  0  0  0  0  0  0  0  0  0  0
   -2.4765    0.0871   -3.3789 H   0  0  0  0  0  0  0  0  0  0  0  0
   -4.7422   -0.0078   -4.2935 H   0  0  0  0  0  0  0  0  0  0  0  0
   -6.6492   -0.2113   -2.7983 H   0  0  0  0  0  0  0  0  0  0  0  0
   -5.6480   -0.2762    1.8091 H   0  0  0  0  0  0  0  0  0  0  0  0
   -6.5194    1.2003    1.2608 H   0  0  0  0  0  0  0  0  0  0  0  0
   -7.8029   -1.4603    1.9321 H   0  0  0  0  0  0  0  0  0  0  0  0
   -7.7983    0.0350    3.0004 H   0  0  0  0  0  0  0  0  0  0  0  0
   -9.4783    0.6048    3.8237 H   0  0  0  0  0  0  0  0  0  0  0  0
  -11.4028    1.7462    4.7167 H   0  0  0  0  0  0  0  0  0  0  0  0
  -13.1845    2.5751    3.1962 H   0  0  0  0  0  0  0  0  0  0  0  0
  -12.9657    2.2264    0.8076 H   0  0  0  0  0  0  0  0  0  0  0  0
  -11.0085    1.0640   -0.1255 H   0  0  0  0  0  0  0  0  0  0  0  0
   -9.9097   -0.7593   -0.5241 H   0  0  0  0  0  0  0  0  0  0  0  0
   -8.9623    0.7219   -0.7987 H   0  0  0  0  0  0  0  0  0  0  0  0
   -7.7632   -1.3203   -1.6164 H   0  0  0  0  0  0  0  0  0  0  0  0
   -7.8192   -2.0693   -0.0213 H   0  0  0  0  0  0  0  0  0  0  0  0
   -4.0276   -0.2465    0.5968 H   0  0  0  0  0  0  0  0  0  0  0  0
  1  2  2  0
  2  3  1  0
  3  4  2  0
  4  5  1  0
  5  6  2  0
  6  7  1  0
  7  8  2  0
  8  9  1  0
  9 10  2  0
 10 11  1  0
 11 12  1  0
 12 13  1  0
 13 14  2  0
 14 15  1  0
 15 16  2  0
 16 17  1  0
 17 18  2  0
 10 19  1  0
 19 20  1  0
 20 21  1  0
 21 22  1  0
 22 23  2  0
 23 24  1  0
 24 25  2  0
 25 26  1  0
 26 27  2  0
 19 28  2  0
  6 29  1  0
  1 30  1  0
 30 31  2  0
 31 32  1  0
 32 33  2  0
 33 34  1  0
 34 35  1  0
 35 36  1  0
 36 37  1  0
 37 38  1  0
 38 39  1  0
 39 40  2  0
 40 41  1  0
 41 42  2  0
 42 43  1  0
 43 44  2  0
 38 45  1  0
 45 46  1  0
 34 47  2  0
 29  3  1  0
 47 30  1  0
 28  7  1  0
 46 35  1  0
 18 13  1  0
 27 22  1  0
 44 39  1  0
  1 48  1  0
  2 49  1  0
  5 50  1  0
  8 51  1  0
  9 52  1  0
 12 53  1  0
 12 54  1  0
 14 55  1  0
 15 56  1  0
 16 57  1  0
 17 58  1  0
 18 59  1  0
 21 60  1  0
 21 61  1  0
 23 62  1  0
 24 63  1  0
 25 64  1  0
 26 65  1  0
 27 66  1  0
 28 67  1  0
 31 68  1  0
 32 69  1  0
 33 70  1  0
 36 71  1  0
 36 72  1  0
 37 73  1  0
 37 74  1  0
 40 75  1  0
 41 76  1  0
 42 77  1  0
 43 78  1  0
 44 79  1  0
 45 80  1  0
 45 81  1  0
 46 82  1  0
 46 83  1  0
 47 84  1  0
M  END
