
     RDKit          3D

 29 30  0  0  0  0  0  0  0  0999 V2000
   -4.8352   -1.0971   -0.0546 C   0  0  0  0  0  0  0  0  0  0  0  0
   -3.6670   -1.0882    0.7346 C   0  0  0  0  0  0  0  0  0  0  0  0
   -4.0140   -1.4108    2.0472 O   0  0  0  0  0  0  0  0  0  0  0  0
   -2.2412   -0.8914    0.7011 C   0  0  0  0  0  0  0  0  0  0  0  0
   -1.0418   -0.7257    0.6727 N   0  0  0  0  0  0  0  0  0  0  0  0
   -0.2076   -0.0729   -0.0020 C   0  0  0  0  0  0  0  0  0  0  0  0
    1.2577    0.0462    0.0692 C   0  0  0  0  0  0  0  0  0  0  0  0
    2.0274   -0.6942    0.9176 C   0  0  0  0  0  0  0  0  0  0  0  0
    3.4112   -0.5219    0.9474 C   0  0  0  0  0  0  0  0  0  0  0  0
    4.0027    0.3901    0.1265 C   0  0  0  0  0  0  0  0  0  0  0  0
    5.4853    0.6027    0.1267 C   0  0  0  0  0  0  0  0  0  0  0  0
    3.2358    1.1635   -0.7545 C   0  0  0  0  0  0  0  0  0  0  0  0
    1.8702    0.9592   -0.7496 C   0  0  0  0  0  0  0  0  0  0  0  0
   -1.0295    0.5032   -0.8215 O   0  0  0  0  0  0  0  0  0  0  0  0
   -2.2211    0.1750   -0.5896 C   0  0  0  0  0  0  0  0  0  0  0  0
   -3.3873    0.6194   -1.2784 C   0  0  0  0  0  0  0  0  0  0  0  0
   -5.4086   -0.1780   -0.1446 H   0  0  0  0  0  0  0  0  0  0  0  0
   -4.7451   -1.7066   -0.9995 H   0  0  0  0  0  0  0  0  0  0  0  0
   -5.6404   -1.7798    0.4789 H   0  0  0  0  0  0  0  0  0  0  0  0
    1.5413   -1.4277    1.5796 H   0  0  0  0  0  0  0  0  0  0  0  0
    4.0289   -1.1189    1.6223 H   0  0  0  0  0  0  0  0  0  0  0  0
    5.7044    1.6545   -0.1602 H   0  0  0  0  0  0  0  0  0  0  0  0
    5.9155    0.4547    1.1268 H   0  0  0  0  0  0  0  0  0  0  0  0
    5.9163   -0.0686   -0.6412 H   0  0  0  0  0  0  0  0  0  0  0  0
    3.6733    1.8977   -1.4121 H   0  0  0  0  0  0  0  0  0  0  0  0
    1.3018    1.5670   -1.4428 H   0  0  0  0  0  0  0  0  0  0  0  0
   -4.0216    1.3048   -0.6517 H   0  0  0  0  0  0  0  0  0  0  0  0
   -3.8960   -0.0242   -1.9757 H   0  0  0  0  0  0  0  0  0  0  0  0
   -3.0153    1.4679   -2.0435 H   0  0  0  0  0  0  0  0  0  0  0  0
  1  2  1  0
  2  3  2  0
  2  4  1  0
  4  5  1  0
  5  6  2  0
  6  7  1  0
  7  8  2  0
  8  9  1  0
  9 10  2  0
 10 11  1  0
 10 12  1  0
 12 13  2  0
  6 14  1  0
 14 15  1  0
 15 16  1  0
 15  4  2  0
 13  7  1  0
  1 17  1  0
  1 18  1  0
  1 19  1  0
  8 20  1  0
  9 21  1  0
 11 22  1  0
 11 23  1  0
 11 24  1  0
 12 25  1  0
 13 26  1  0
 16 27  1  0
 16 28  1  0
 16 29  1  0
M  END
