
     RDKit          3D

 49 52  0  0  0  0  0  0  0  0999 V2000
    5.7170   -1.3301    0.5595 C   0  0  0  0  0  0  0  0  0  0  0  0
    6.0824    0.0261    0.3875 N   0  0  0  0  0  0  0  0  0  0  0  0
    6.2634    0.7550    1.6105 C   0  0  0  0  0  0  0  0  0  0  0  0
    5.4998    0.7627   -0.6641 C   0  0  0  0  0  0  0  0  0  0  0  0
    4.0544    1.0871   -0.5802 C   0  0  0  0  0  0  0  0  0  0  0  0
    3.1465   -0.0167   -0.5421 N   0  0  0  0  0  0  0  0  0  0  0  0
    1.7555    0.2336   -0.4245 C   0  0  0  0  0  0  0  0  0  0  0  0
    1.3204    1.5622   -0.3705 C   0  0  0  0  0  0  0  0  0  0  0  0
   -0.0228    1.7941   -0.2584 C   0  0  0  0  0  0  0  0  0  0  0  0
   -0.9247    0.7544   -0.2005 C   0  0  0  0  0  0  0  0  0  0  0  0
   -0.5337   -0.5654   -0.2513 C   0  0  0  0  0  0  0  0  0  0  0  0
   -1.4440   -1.6026   -0.1920 C   0  0  0  0  0  0  0  0  0  0  0  0
   -1.0355   -2.9379   -0.2433 C   0  0  0  0  0  0  0  0  0  0  0  0
    0.2896   -3.1830   -0.3540 C   0  0  0  0  0  0  0  0  0  0  0  0
    1.2070   -2.1360   -0.4138 C   0  0  0  0  0  0  0  0  0  0  0  0
    0.8385   -0.8147   -0.3657 C   0  0  0  0  0  0  0  0  0  0  0  0
   -2.8756   -1.2974   -0.0716 C   0  0  0  0  0  0  0  0  0  0  0  0
   -3.7195   -2.2589   -0.0174 O   0  0  0  0  0  0  0  0  0  0  0  0
   -3.3086    0.0514   -0.0167 N   0  0  0  0  0  0  0  0  0  0  0  0
   -4.7217    0.3166    0.1052 C   0  0  0  0  0  0  0  0  0  0  0  0
   -5.3308    1.2561   -0.6977 C   0  0  0  0  0  0  0  0  0  0  0  0
   -6.6914    1.5110   -0.5780 C   0  0  0  0  0  0  0  0  0  0  0  0
   -7.4807    0.8441    0.3375 C   0  0  0  0  0  0  0  0  0  0  0  0
   -8.8440    1.1266    0.4310 O   0  0  0  0  0  0  0  0  0  0  0  0
   -6.8680   -0.0935    1.1375 C   0  0  0  0  0  0  0  0  0  0  0  0
   -5.5180   -0.3471    1.0191 C   0  0  0  0  0  0  0  0  0  0  0  0
   -2.3559    1.0780   -0.0796 C   0  0  0  0  0  0  0  0  0  0  0  0
   -2.7498    2.2714   -0.0305 O   0  0  0  0  0  0  0  0  0  0  0  0
    5.6525   -1.9055   -0.3835 H   0  0  0  0  0  0  0  0  0  0  0  0
    4.8542   -1.5047    1.2472 H   0  0  0  0  0  0  0  0  0  0  0  0
    6.5873   -1.8254    1.1066 H   0  0  0  0  0  0  0  0  0  0  0  0
    7.2634    0.4743    2.0166 H   0  0  0  0  0  0  0  0  0  0  0  0
    5.4947    0.5161    2.3734 H   0  0  0  0  0  0  0  0  0  0  0  0
    6.2973    1.8354    1.3976 H   0  0  0  0  0  0  0  0  0  0  0  0
    6.0452    1.7496   -0.7459 H   0  0  0  0  0  0  0  0  0  0  0  0
    5.7599    0.2505   -1.6295 H   0  0  0  0  0  0  0  0  0  0  0  0
    3.8264    1.7523   -1.4634 H   0  0  0  0  0  0  0  0  0  0  0  0
    3.8561    1.7517    0.3163 H   0  0  0  0  0  0  0  0  0  0  0  0
    3.4849   -0.9807   -0.6060 H   0  0  0  0  0  0  0  0  0  0  0  0
    2.0665    2.3352   -0.4216 H   0  0  0  0  0  0  0  0  0  0  0  0
   -0.3770    2.8274   -0.2137 H   0  0  0  0  0  0  0  0  0  0  0  0
   -1.8176   -3.6778   -0.1885 H   0  0  0  0  0  0  0  0  0  0  0  0
    0.6410   -4.2058   -0.3960 H   0  0  0  0  0  0  0  0  0  0  0  0
    2.2616   -2.3777   -0.5022 H   0  0  0  0  0  0  0  0  0  0  0  0
   -4.7220    1.7817   -1.4141 H   0  0  0  0  0  0  0  0  0  0  0  0
   -7.1882    2.2489   -1.2042 H   0  0  0  0  0  0  0  0  0  0  0  0
   -9.2517    1.8100   -0.1648 H   0  0  0  0  0  0  0  0  0  0  0  0
   -7.4767   -0.6188    1.8540 H   0  0  0  0  0  0  0  0  0  0  0  0
   -5.0074   -1.0838    1.6413 H   0  0  0  0  0  0  0  0  0  0  0  0
  1  2  1  0
  2  3  1  0
  2  4  1  0
  4  5  1  0
  5  6  1  0
  6  7  1  0
  7  8  2  0
  8  9  1  0
  9 10  2  0
 10 11  1  0
 11 12  2  0
 12 13  1  0
 13 14  2  0
 14 15  1  0
 15 16  2  0
 12 17  1  0
 17 18  2  0
 17 19  1  0
 19 20  1  0
 20 21  2  0
 21 22  1  0
 22 23  2  0
 23 24  1  0
 23 25  1  0
 25 26  2  0
 19 27  1  0
 27 28  2  0
 16  7  1  0
 26 20  1  0
 27 10  1  0
 16 11  1  0
  1 29  1  0
  1 30  1  0
  1 31  1  0
  3 32  1  0
  3 33  1  0
  3 34  1  0
  4 35  1  0
  4 36  1  0
  5 37  1  0
  5 38  1  0
  6 39  1  0
  8 40  1  0
  9 41  1  0
 13 42  1  0
 14 43  1  0
 15 44  1  0
 21 45  1  0
 22 46  1  0
 24 47  1  0
 25 48  1  0
 26 49  1  0
M  END
