
     RDKit          3D

 58 62  0  0  0  0  0  0  0  0999 V2000
   -1.9852   -4.7529   -1.1847 C   0  0  0  0  0  0  0  0  0  0  0  0
   -0.8606   -3.7724   -1.4573 C   0  0  0  0  0  0  0  0  0  0  0  0
   -1.1512   -2.5315   -0.9030 O   0  0  0  0  0  0  0  0  0  0  0  0
   -0.3377   -1.4328   -0.9054 C   0  0  0  0  0  0  0  0  0  0  0  0
    0.7952   -1.5861   -1.4624 O   0  0  0  0  0  0  0  0  0  0  0  0
   -0.6308   -0.1305   -0.3447 C   0  0  0  0  0  0  0  0  0  0  0  0
    0.2531    0.9542   -0.3537 C   0  0  0  0  0  0  0  0  0  0  0  0
    1.5894    1.0429   -0.9089 C   0  0  0  0  0  0  0  0  0  0  0  0
    2.6141    0.3607   -0.3001 C   0  0  0  0  0  0  0  0  0  0  0  0
    3.8941    0.4917   -0.8000 C   0  0  0  0  0  0  0  0  0  0  0  0
    4.0643    1.3239   -1.9139 C   0  0  0  0  0  0  0  0  0  0  0  0
    5.3418    1.4768   -2.4416 C   0  0  0  0  0  0  0  0  0  0  0  0
    6.4087    0.8279   -1.8763 C   0  0  0  0  0  0  0  0  0  0  0  0
    6.2370    0.0117   -0.7761 C   0  0  0  0  0  0  0  0  0  0  0  0
    7.3591   -0.5980   -0.2413 C   0  0  0  0  0  0  0  0  0  0  0  0
    7.1756   -1.3918    0.8681 C   0  0  0  0  0  0  0  0  0  0  0  0
    5.9193   -1.5575    1.4021 C   0  0  0  0  0  0  0  0  0  0  0  0
    4.7994   -0.9482    0.8637 C   0  0  0  0  0  0  0  0  0  0  0  0
    4.9619   -0.1557   -0.2344 C   0  0  0  0  0  0  0  0  0  0  0  0
    3.0866    1.9587   -2.4771 O   0  0  0  0  0  0  0  0  0  0  0  0
    1.8835    1.8317   -1.9997 C   0  0  0  0  0  0  0  0  0  0  0  0
    0.9088    2.4480   -2.5409 O   0  0  0  0  0  0  0  0  0  0  0  0
   -0.4152    1.9551    0.2244 N   0  0  0  0  0  0  0  0  0  0  0  0
   -1.6223    1.5872    0.5874 N   0  0  0  0  0  0  0  0  0  0  0  0
   -2.6099    2.3565    1.2496 C   0  0  0  0  0  0  0  0  0  0  0  0
   -2.8996    2.1157    2.5961 C   0  0  0  0  0  0  0  0  0  0  0  0
   -3.8609    2.8586    3.2565 C   0  0  0  0  0  0  0  0  0  0  0  0
   -4.5508    3.8495    2.5922 C   0  0  0  0  0  0  0  0  0  0  0  0
   -4.2796    4.1011    1.2657 C   0  0  0  0  0  0  0  0  0  0  0  0
   -5.1095    5.3341    0.3520 Cl  0  0  0  0  0  0  0  0  0  0  0  0
   -3.3248    3.3550    0.6321 C   0  0  0  0  0  0  0  0  0  0  0  0
   -1.8099    0.2703    0.2456 C   0  0  0  0  0  0  0  0  0  0  0  0
   -3.0520   -0.4525    0.4572 C   0  0  0  0  0  0  0  0  0  0  0  0
   -3.2008   -1.6284    0.0961 O   0  0  0  0  0  0  0  0  0  0  0  0
   -4.1536    0.1539    1.0817 O   0  0  0  0  0  0  0  0  0  0  0  0
   -5.3299   -0.5995    1.2331 C   0  0  0  0  0  0  0  0  0  0  0  0
   -5.8619   -0.9634   -0.1555 C   0  0  0  0  0  0  0  0  0  0  0  0
   -1.5710   -5.6957   -0.8079 H   0  0  0  0  0  0  0  0  0  0  0  0
   -2.6776   -4.3434   -0.4176 H   0  0  0  0  0  0  0  0  0  0  0  0
   -2.5809   -4.9356   -2.0899 H   0  0  0  0  0  0  0  0  0  0  0  0
   -0.7543   -3.6385   -2.5837 H   0  0  0  0  0  0  0  0  0  0  0  0
    0.0943   -4.1505   -1.1280 H   0  0  0  0  0  0  0  0  0  0  0  0
    2.3884   -0.2529    0.5434 H   0  0  0  0  0  0  0  0  0  0  0  0
    5.4662    2.1221   -3.3157 H   0  0  0  0  0  0  0  0  0  0  0  0
    7.3941    0.9449   -2.2833 H   0  0  0  0  0  0  0  0  0  0  0  0
    8.3289   -0.4417   -0.6904 H   0  0  0  0  0  0  0  0  0  0  0  0
    8.0553   -1.8676    1.2933 H   0  0  0  0  0  0  0  0  0  0  0  0
    5.7969   -2.1863    2.2785 H   0  0  0  0  0  0  0  0  0  0  0  0
    3.8601   -1.1360    1.3493 H   0  0  0  0  0  0  0  0  0  0  0  0
   -2.3638    1.3458    3.1067 H   0  0  0  0  0  0  0  0  0  0  0  0
   -4.1002    2.6932    4.2892 H   0  0  0  0  0  0  0  0  0  0  0  0
   -5.3198    4.4724    3.0505 H   0  0  0  0  0  0  0  0  0  0  0  0
   -3.1103    3.5545   -0.4222 H   0  0  0  0  0  0  0  0  0  0  0  0
   -5.0489   -1.5565    1.7465 H   0  0  0  0  0  0  0  0  0  0  0  0
   -6.0938   -0.0535    1.8082 H   0  0  0  0  0  0  0  0  0  0  0  0
   -6.6993   -0.2509   -0.3782 H   0  0  0  0  0  0  0  0  0  0  0  0
   -5.0815   -0.7971   -0.9016 H   0  0  0  0  0  0  0  0  0  0  0  0
   -6.2282   -1.9909   -0.1733 H   0  0  0  0  0  0  0  0  0  0  0  0
  1  2  1  0
  2  3  1  0
  3  4  1  0
  4  5  2  0
  4  6  1  0
  6  7  1  0
  7  8  1  0
  8  9  2  0
  9 10  1  0
 10 11  2  0
 11 12  1  0
 12 13  2  0
 13 14  1  0
 14 15  2  0
 15 16  1  0
 16 17  2  0
 17 18  1  0
 18 19  2  0
 11 20  1  0
 20 21  1  0
 21 22  2  0
  7 23  2  0
 23 24  1  0
 24 25  1  0
 25 26  2  0
 26 27  1  0
 27 28  2  0
 28 29  1  0
 29 30  1  0
 29 31  2  0
 24 32  1  0
 32 33  1  0
 33 34  2  0
 33 35  1  0
 35 36  1  0
 36 37  1  0
 32  6  2  0
 21  8  1  0
 31 25  1  0
 19 10  1  0
 19 14  1  0
  1 38  1  0
  1 39  1  0
  1 40  1  0
  2 41  1  0
  2 42  1  0
  9 43  1  0
 12 44  1  0
 13 45  1  0
 15 46  1  0
 16 47  1  0
 17 48  1  0
 18 49  1  0
 26 50  1  0
 27 51  1  0
 28 52  1  0
 31 53  1  0
 36 54  1  0
 36 55  1  0
 37 56  1  0
 37 57  1  0
 37 58  1  0
M  END
