
     RDKit          3D

 41 44  0  0  0  0  0  0  0  0999 V2000
   -4.3866   -2.5973    0.3810 O   0  0  0  0  0  0  0  0  0  0  0  0
   -3.7367   -1.5519    0.1303 C   0  0  0  0  0  0  0  0  0  0  0  0
   -4.3893   -0.3953   -0.4592 C   0  0  0  0  0  0  0  0  0  0  0  0
   -5.7430   -0.3859   -0.7709 C   0  0  0  0  0  0  0  0  0  0  0  0
   -6.3730    0.7025   -1.3293 C   0  0  0  0  0  0  0  0  0  0  0  0
   -5.6302    1.8181   -1.5856 C   0  0  0  0  0  0  0  0  0  0  0  0
   -4.2816    1.8428   -1.2880 C   0  0  0  0  0  0  0  0  0  0  0  0
   -3.6656    0.7404   -0.7274 C   0  0  0  0  0  0  0  0  0  0  0  0
   -2.2356    0.7366   -0.4004 C   0  0  0  0  0  0  0  0  0  0  0  0
   -1.6304    1.8167   -0.6744 O   0  0  0  0  0  0  0  0  0  0  0  0
   -1.5749   -0.4159    0.1894 C   0  0  0  0  0  0  0  0  0  0  0  0
   -0.2292   -0.3910    0.4863 C   0  0  0  0  0  0  0  0  0  0  0  0
    0.5986    0.7205    0.2510 N   0  0  0  0  0  0  0  0  0  0  0  0
    2.0154    0.6225    0.6110 C   0  0  0  0  0  0  0  0  0  0  0  0
    2.7668    1.8893    0.2991 C   0  0  0  0  0  0  0  0  0  0  0  0
    4.1397    1.7427    0.6703 N   0  0  0  0  0  0  0  0  0  0  0  0
    5.0170    0.7648    0.0985 C   0  0  0  0  0  0  0  0  0  0  0  0
    6.3060    0.6701    0.4890 N   0  0  0  0  0  0  0  0  0  0  0  0
    7.1090   -0.2522   -0.0632 C   0  0  0  0  0  0  0  0  0  0  0  0
    8.7915   -0.3770    0.4455 Cl  0  0  0  0  0  0  0  0  0  0  0  0
    6.6584   -1.1021   -1.0132 N   0  0  0  0  0  0  0  0  0  0  0  0
    5.3597   -1.0222   -1.4210 C   0  0  0  0  0  0  0  0  0  0  0  0
    4.7862   -2.1293   -2.6535 Cl  0  0  0  0  0  0  0  0  0  0  0  0
    4.6045   -0.0960   -0.8476 N   0  0  0  0  0  0  0  0  0  0  0  0
    0.3084   -1.5606    1.0546 C   0  0  0  0  0  0  0  0  0  0  0  0
   -0.4097   -2.6737    1.3155 C   0  0  0  0  0  0  0  0  0  0  0  0
   -1.7329   -2.6994    1.0241 C   0  0  0  0  0  0  0  0  0  0  0  0
   -2.3178   -1.5601    0.4565 C   0  0  0  0  0  0  0  0  0  0  0  0
   -6.3088   -1.2760   -0.5604 H   0  0  0  0  0  0  0  0  0  0  0  0
   -7.4346    0.6534   -1.5523 H   0  0  0  0  0  0  0  0  0  0  0  0
   -6.1184    2.6771   -2.0242 H   0  0  0  0  0  0  0  0  0  0  0  0
   -3.6888    2.7243   -1.4891 H   0  0  0  0  0  0  0  0  0  0  0  0
    0.3068    1.5950   -0.1489 H   0  0  0  0  0  0  0  0  0  0  0  0
    2.4040   -0.2176    0.0056 H   0  0  0  0  0  0  0  0  0  0  0  0
    2.0528    0.4212    1.6986 H   0  0  0  0  0  0  0  0  0  0  0  0
    2.3241    2.7605    0.8119 H   0  0  0  0  0  0  0  0  0  0  0  0
    2.6230    2.0744   -0.7867 H   0  0  0  0  0  0  0  0  0  0  0  0
    4.5442    2.3698    1.3931 H   0  0  0  0  0  0  0  0  0  0  0  0
    1.3773   -1.5364    1.2887 H   0  0  0  0  0  0  0  0  0  0  0  0
    0.1120   -3.5264    1.7593 H   0  0  0  0  0  0  0  0  0  0  0  0
   -2.3183   -3.5765    1.2252 H   0  0  0  0  0  0  0  0  0  0  0  0
  1  2  2  0
  2  3  1  0
  3  4  2  0
  4  5  1  0
  5  6  2  0
  6  7  1  0
  7  8  2  0
  8  9  1  0
  9 10  2  0
  9 11  1  0
 11 12  2  0
 12 13  1  0
 13 14  1  0
 14 15  1  0
 15 16  1  0
 16 17  1  0
 17 18  2  0
 18 19  1  0
 19 20  1  0
 19 21  2  0
 21 22  1  0
 22 23  1  0
 22 24  2  0
 12 25  1  0
 25 26  2  0
 26 27  1  0
 27 28  2  0
 28  2  1  0
  8  3  1  0
 28 11  1  0
 24 17  1  0
  4 29  1  0
  5 30  1  0
  6 31  1  0
  7 32  1  0
 13 33  1  0
 14 34  1  0
 14 35  1  0
 15 36  1  0
 15 37  1  0
 16 38  1  0
 25 39  1  0
 26 40  1  0
 27 41  1  0
M  END
