
     RDKit          3D

 74 80  0  0  0  0  0  0  0  0999 V2000
    9.6312    2.0052    2.6967 C   0  0  0  0  0  0  0  0  0  0  0  0
    8.6599    1.5656    1.6087 C   0  0  0  0  0  0  0  0  0  0  0  0
    9.2407    0.3466    0.9754 C   0  0  0  0  0  0  0  0  0  0  0  0
    8.3659   -0.2200   -0.1465 C   0  0  0  0  0  0  0  0  0  0  0  0
    8.1899    0.8014   -1.2308 C   0  0  0  0  0  0  0  0  0  0  0  0
    7.3511    0.2754   -2.3601 C   0  0  0  0  0  0  0  0  0  0  0  0
    6.0235   -0.1286   -1.9655 N   0  0  0  0  0  0  0  0  0  0  0  0
    5.7393   -1.4618   -1.5694 C   0  0  0  0  0  0  0  0  0  0  0  0
    6.6343   -2.3455   -1.5569 O   0  0  0  0  0  0  0  0  0  0  0  0
    4.3892   -1.8780   -1.1561 C   0  0  0  0  0  0  0  0  0  0  0  0
    4.1505   -3.2046   -0.7972 C   0  0  0  0  0  0  0  0  0  0  0  0
    2.8855   -3.5744   -0.4397 C   0  0  0  0  0  0  0  0  0  0  0  0
    1.8448   -2.6464   -0.4301 C   0  0  0  0  0  0  0  0  0  0  0  0
    2.0463   -1.3341   -0.7738 C   0  0  0  0  0  0  0  0  0  0  0  0
    1.0342   -0.4426   -0.7782 C   0  0  0  0  0  0  0  0  0  0  0  0
   -0.3136   -0.6744   -0.2590 C   0  0  0  0  0  0  0  0  0  0  0  0
   -0.8103   -1.4561    0.7398 C   0  0  0  0  0  0  0  0  0  0  0  0
   -2.1193   -1.3668    1.0276 C   0  0  0  0  0  0  0  0  0  0  0  0
   -2.8737   -0.4983    0.3065 C   0  0  0  0  0  0  0  0  0  0  0  0
   -4.3165   -0.2257    0.4350 C   0  0  0  0  0  0  0  0  0  0  0  0
   -5.0679    0.6492   -0.2942 C   0  0  0  0  0  0  0  0  0  0  0  0
   -6.3897    0.5809    0.1691 C   0  0  0  0  0  0  0  0  0  0  0  0
   -7.4604    1.3774   -0.3809 C   0  0  0  0  0  0  0  0  0  0  0  0
   -8.7521    1.3379    0.0417 C   0  0  0  0  0  0  0  0  0  0  0  0
   -9.7070    2.1532   -0.5625 C   0  0  0  0  0  0  0  0  0  0  0  0
   -9.4204    3.0161   -1.5833 C   0  0  0  0  0  0  0  0  0  0  0  0
   -8.1100    3.0690   -2.0258 C   0  0  0  0  0  0  0  0  0  0  0  0
   -7.1750    2.2701   -1.4336 C   0  0  0  0  0  0  0  0  0  0  0  0
   -6.3906   -0.3069    1.1336 N   0  0  0  0  0  0  0  0  0  0  0  0
   -7.4591   -0.7641    1.9448 C   0  0  0  0  0  0  0  0  0  0  0  0
   -8.1990   -1.8617    1.5478 C   0  0  0  0  0  0  0  0  0  0  0  0
   -9.2322   -2.3703    2.3104 C   0  0  0  0  0  0  0  0  0  0  0  0
   -9.5516   -1.7801    3.5075 C   0  0  0  0  0  0  0  0  0  0  0  0
   -8.8338   -0.6824    3.9349 C   0  0  0  0  0  0  0  0  0  0  0  0
   -7.7963   -0.1823    3.1553 C   0  0  0  0  0  0  0  0  0  0  0  0
   -5.1290   -0.8014    1.2995 N   0  0  0  0  0  0  0  0  0  0  0  0
   -1.7520    0.1837   -0.7644 S   0  0  0  0  0  0  0  0  0  0  0  0
    1.2807    0.8857   -1.1678 C   0  0  0  0  0  0  0  0  0  0  0  0
    2.5616    1.2269   -1.5285 C   0  0  0  0  0  0  0  0  0  0  0  0
    3.5920    0.3267   -1.5210 C   0  0  0  0  0  0  0  0  0  0  0  0
    3.3576   -0.9849   -1.1402 C   0  0  0  0  0  0  0  0  0  0  0  0
    4.9203    0.7730   -1.9368 C   0  0  0  0  0  0  0  0  0  0  0  0
    5.1358    1.9638   -2.2825 O   0  0  0  0  0  0  0  0  0  0  0  0
   10.5764    2.3117    2.2181 H   0  0  0  0  0  0  0  0  0  0  0  0
    9.8386    1.1734    3.4093 H   0  0  0  0  0  0  0  0  0  0  0  0
    9.2333    2.8717    3.2559 H   0  0  0  0  0  0  0  0  0  0  0  0
    7.7257    1.2813    2.1335 H   0  0  0  0  0  0  0  0  0  0  0  0
    8.5128    2.4175    0.9396 H   0  0  0  0  0  0  0  0  0  0  0  0
   10.2360    0.5146    0.5220 H   0  0  0  0  0  0  0  0  0  0  0  0
    9.2749   -0.4511    1.7521 H   0  0  0  0  0  0  0  0  0  0  0  0
    8.9200   -1.0795   -0.5671 H   0  0  0  0  0  0  0  0  0  0  0  0
    7.3828   -0.5134    0.2982 H   0  0  0  0  0  0  0  0  0  0  0  0
    7.7855    1.7569   -0.8295 H   0  0  0  0  0  0  0  0  0  0  0  0
    9.2171    0.9646   -1.6711 H   0  0  0  0  0  0  0  0  0  0  0  0
    7.3076    1.0085   -3.2024 H   0  0  0  0  0  0  0  0  0  0  0  0
    7.9073   -0.6021   -2.7895 H   0  0  0  0  0  0  0  0  0  0  0  0
    4.9836   -3.9010   -0.8146 H   0  0  0  0  0  0  0  0  0  0  0  0
    2.6972   -4.6092   -0.1603 H   0  0  0  0  0  0  0  0  0  0  0  0
    0.8598   -3.0069   -0.1909 H   0  0  0  0  0  0  0  0  0  0  0  0
   -0.1413   -2.1231    1.3500 H   0  0  0  0  0  0  0  0  0  0  0  0
   -2.6009   -1.9753    1.8293 H   0  0  0  0  0  0  0  0  0  0  0  0
   -4.6524    1.2608   -1.0808 H   0  0  0  0  0  0  0  0  0  0  0  0
   -9.0751    0.6925    0.8370 H   0  0  0  0  0  0  0  0  0  0  0  0
  -10.7112    2.0815   -0.1896 H   0  0  0  0  0  0  0  0  0  0  0  0
  -10.1746    3.6446   -2.0437 H   0  0  0  0  0  0  0  0  0  0  0  0
   -7.8828    3.7380   -2.8187 H   0  0  0  0  0  0  0  0  0  0  0  0
   -6.1575    2.3567   -1.8266 H   0  0  0  0  0  0  0  0  0  0  0  0
   -7.9508   -2.3228    0.6145 H   0  0  0  0  0  0  0  0  0  0  0  0
   -9.8053   -3.2306    1.9899 H   0  0  0  0  0  0  0  0  0  0  0  0
  -10.3638   -2.1886    4.0959 H   0  0  0  0  0  0  0  0  0  0  0  0
   -9.1199   -0.2498    4.8835 H   0  0  0  0  0  0  0  0  0  0  0  0
   -7.2414    0.6786    3.5016 H   0  0  0  0  0  0  0  0  0  0  0  0
    0.4948    1.6259   -1.1872 H   0  0  0  0  0  0  0  0  0  0  0  0
    2.7486    2.2582   -1.8298 H   0  0  0  0  0  0  0  0  0  0  0  0
  1  2  1  0
  2  3  1  0
  3  4  1  0
  4  5  1  0
  5  6  1  0
  6  7  1  0
  7  8  1  0
  8  9  2  0
  8 10  1  0
 10 11  1  0
 11 12  2  0
 12 13  1  0
 13 14  2  0
 14 15  1  0
 15 16  1  0
 16 17  2  0
 17 18  1  0
 18 19  2  0
 19 20  1  0
 20 21  1  0
 21 22  2  0
 22 23  1  0
 23 24  2  0
 24 25  1  0
 25 26  2  0
 26 27  1  0
 27 28  2  0
 22 29  1  0
 29 30  1  0
 30 31  2  0
 31 32  1  0
 32 33  2  0
 33 34  1  0
 34 35  2  0
 29 36  1  0
 19 37  1  0
 15 38  2  0
 38 39  1  0
 39 40  2  0
 40 41  1  0
 40 42  1  0
 42 43  2  0
 42  7  1  0
 41 10  2  0
 41 14  1  0
 37 16  1  0
 36 20  2  0
 28 23  1  0
 35 30  1  0
  1 44  1  0
  1 45  1  0
  1 46  1  0
  2 47  1  0
  2 48  1  0
  3 49  1  0
  3 50  1  0
  4 51  1  0
  4 52  1  0
  5 53  1  0
  5 54  1  0
  6 55  1  0
  6 56  1  0
 11 57  1  0
 12 58  1  0
 13 59  1  0
 17 60  1  0
 18 61  1  0
 21 62  1  0
 24 63  1  0
 25 64  1  0
 26 65  1  0
 27 66  1  0
 28 67  1  0
 31 68  1  0
 32 69  1  0
 33 70  1  0
 34 71  1  0
 35 72  1  0
 38 73  1  0
 39 74  1  0
M  END
