
     RDKit          3D

 65 68  0  0  0  0  0  0  0  0999 V2000
    7.3171    4.4617    0.2650 C   0  0  0  0  0  0  0  0  0  0  0  0
    8.5723    3.8058    0.1830 O   0  0  0  0  0  0  0  0  0  0  0  0
    8.5809    2.4208    0.1210 C   0  0  0  0  0  0  0  0  0  0  0  0
    7.4126    1.6808    0.1373 C   0  0  0  0  0  0  0  0  0  0  0  0
    7.4253    0.3045    0.0756 C   0  0  0  0  0  0  0  0  0  0  0  0
    6.1465   -0.4003    0.0981 C   0  0  0  0  0  0  0  0  0  0  0  0
    6.0030   -1.7062    0.0461 C   0  0  0  0  0  0  0  0  0  0  0  0
    4.7278   -2.4101    0.0684 C   0  0  0  0  0  0  0  0  0  0  0  0
    4.7644   -3.6832    0.0103 O   0  0  0  0  0  3  0  0  0  0  0  0
    3.5888   -4.5617    0.0208 B   0  0  0  0  0  4  0  0  0  0  0  0
    3.7488   -5.5360    1.0939 F   0  0  0  0  0  0  0  0  0  0  0  0
    3.5774   -5.2931   -1.2554 F   0  0  0  0  0  0  0  0  0  0  0  0
    2.3173   -3.8189    0.1073 O   0  0  0  0  0  0  0  0  0  0  0  0
    2.3004   -2.4366    0.1694 C   0  0  0  0  0  0  0  0  0  0  0  0
    0.9980   -1.7786    0.2534 C   0  0  0  0  0  0  0  0  0  0  0  0
   -0.1294   -2.4420    0.2714 C   0  0  0  0  0  0  0  0  0  0  0  0
   -1.4411   -1.8177    0.3543 C   0  0  0  0  0  0  0  0  0  0  0  0
   -1.6204   -0.4536    0.4225 C   0  0  0  0  0  0  0  0  0  0  0  0
   -2.9113    0.0411    0.4988 C   0  0  0  0  0  0  0  0  0  0  0  0
   -4.0307   -0.7603    0.5101 C   0  0  0  0  0  0  0  0  0  0  0  0
   -5.3242   -0.2690    0.5863 O   0  0  0  0  0  0  0  0  0  0  0  0
   -6.2014    0.1050   -0.7977 S   0  0  0  0  0  6  0  0  0  0  0  0
   -5.2400    0.5109   -1.9025 O   0  0  0  0  0  0  0  0  0  0  0  0
   -6.9392   -1.1305   -1.2461 O   0  0  0  0  0  0  0  0  0  0  0  0
   -7.3629    1.3840   -0.5384 C   0  0  0  0  0  0  0  0  0  0  0  0
   -7.0866    2.7033   -0.7129 C   0  0  0  0  0  0  0  0  0  0  0  0
   -8.0264    3.6866   -0.4995 C   0  0  0  0  0  0  0  0  0  0  0  0
   -9.2842    3.3037   -0.0958 C   0  0  0  0  0  0  0  0  0  0  0  0
  -10.3170    4.3519    0.1410 C   0  0  0  0  0  0  0  0  0  0  0  0
   -9.5959    1.9685    0.0905 C   0  0  0  0  0  0  0  0  0  0  0  0
   -8.6388    1.0046   -0.1294 C   0  0  0  0  0  0  0  0  0  0  0  0
   -3.8526   -2.1444    0.4411 C   0  0  0  0  0  0  0  0  0  0  0  0
   -4.9574   -2.9901    0.4499 O   0  0  0  0  0  0  0  0  0  0  0  0
   -4.7346   -4.3843    0.3785 C   0  0  0  0  0  0  0  0  0  0  0  0
   -2.5664   -2.6272    0.3656 C   0  0  0  0  0  0  0  0  0  0  0  0
    3.4316   -1.7590    0.1519 C   0  0  0  0  0  0  0  0  0  0  0  0
    8.6519   -0.3054   -0.0032 C   0  0  0  0  0  0  0  0  0  0  0  0
    9.8381    0.4307   -0.0204 C   0  0  0  0  0  0  0  0  0  0  0  0
    9.8129    1.8079    0.0419 C   0  0  0  0  0  0  0  0  0  0  0  0
   11.0011    2.5495    0.0249 O   0  0  0  0  0  0  0  0  0  0  0  0
    7.4436    5.5491    0.4774 H   0  0  0  0  0  0  0  0  0  0  0  0
    6.7527    3.9884    1.1125 H   0  0  0  0  0  0  0  0  0  0  0  0
    6.7446    4.3760   -0.6813 H   0  0  0  0  0  0  0  0  0  0  0  0
    6.4510    2.1888    0.2004 H   0  0  0  0  0  0  0  0  0  0  0  0
    5.2026    0.1594    0.1627 H   0  0  0  0  0  0  0  0  0  0  0  0
    6.9238   -2.2887   -0.0186 H   0  0  0  0  0  0  0  0  0  0  0  0
    1.0012   -0.7050    0.3010 H   0  0  0  0  0  0  0  0  0  0  0  0
   -0.0337   -3.5315    0.2190 H   0  0  0  0  0  0  0  0  0  0  0  0
   -0.7828    0.2139    0.4170 H   0  0  0  0  0  0  0  0  0  0  0  0
   -3.0553    1.1077    0.5523 H   0  0  0  0  0  0  0  0  0  0  0  0
   -6.1001    2.9852   -1.0283 H   0  0  0  0  0  0  0  0  0  0  0  0
   -7.8032    4.7446   -0.6400 H   0  0  0  0  0  0  0  0  0  0  0  0
  -10.0465    5.2423   -0.4478 H   0  0  0  0  0  0  0  0  0  0  0  0
  -10.4077    4.6078    1.2266 H   0  0  0  0  0  0  0  0  0  0  0  0
  -11.2973    3.9417   -0.1993 H   0  0  0  0  0  0  0  0  0  0  0  0
  -10.5853    1.6470    0.4095 H   0  0  0  0  0  0  0  0  0  0  0  0
   -8.8723   -0.0472    0.0137 H   0  0  0  0  0  0  0  0  0  0  0  0
   -4.1364   -4.5829   -0.5430 H   0  0  0  0  0  0  0  0  0  0  0  0
   -4.0747   -4.7210    1.2264 H   0  0  0  0  0  0  0  0  0  0  0  0
   -5.6586   -4.9597    0.3203 H   0  0  0  0  0  0  0  0  0  0  0  0
   -2.4076   -3.6921    0.3115 H   0  0  0  0  0  0  0  0  0  0  0  0
    3.3847   -0.6760    0.2020 H   0  0  0  0  0  0  0  0  0  0  0  0
    8.7075   -1.3793   -0.0532 H   0  0  0  0  0  0  0  0  0  0  0  0
   10.8018   -0.0589   -0.0827 H   0  0  0  0  0  0  0  0  0  0  0  0
   11.8921    2.0769   -0.0337 H   0  0  0  0  0  0  0  0  0  0  0  0
  1  2  1  0
  2  3  1  0
  3  4  2  0
  4  5  1  0
  5  6  1  0
  6  7  2  0
  7  8  1  0
  8  9  2  0
  9 10  1  0
 10 11  1  0
 10 12  1  0
 10 13  1  0
 13 14  1  0
 14 15  1  0
 15 16  2  0
 16 17  1  0
 17 18  2  0
 18 19  1  0
 19 20  2  0
 20 21  1  0
 21 22  1  0
 22 23  2  0
 22 24  2  0
 22 25  1  0
 25 26  2  0
 26 27  1  0
 27 28  2  0
 28 29  1  0
 28 30  1  0
 30 31  2  0
 20 32  1  0
 32 33  1  0
 33 34  1  0
 32 35  2  0
 14 36  2  0
  5 37  2  0
 37 38  1  0
 38 39  2  0
 39 40  1  0
 39  3  1  0
 36  8  1  0
 35 17  1  0
 31 25  1  0
  1 41  1  0
  1 42  1  0
  1 43  1  0
  4 44  1  0
  6 45  1  0
  7 46  1  0
 15 47  1  0
 16 48  1  0
 18 49  1  0
 19 50  1  0
 26 51  1  0
 27 52  1  0
 29 53  1  0
 29 54  1  0
 29 55  1  0
 30 56  1  0
 31 57  1  0
 34 58  1  0
 34 59  1  0
 34 60  1  0
 35 61  1  0
 36 62  1  0
 37 63  1  0
 38 64  1  0
 40 65  1  0
M  CHG  2   9   1  10  -1
M  END
