
     RDKit          3D

 33 36  0  0  0  0  0  0  0  0999 V2000
    1.7604    2.7158    0.1402 C   0  0  0  0  0  0  0  0  0  0  0  0
    1.3226    1.2994    0.0844 C   0  0  0  0  0  0  0  0  0  0  0  0
    2.2236    0.2742    0.0798 C   0  0  0  0  0  0  0  0  0  0  0  0
    3.5827    0.5634    0.1298 C   0  0  0  0  0  0  0  0  0  0  0  0
    4.4681   -0.4915    0.1251 C   0  0  0  0  0  0  0  0  0  0  0  0
    4.0612   -1.7640    0.0746 N   0  0  0  0  0  0  0  0  0  0  0  0
    2.7169   -2.0599    0.0247 C   0  0  0  0  0  0  0  0  0  0  0  0
    1.8153   -1.0396    0.0278 C   0  0  0  0  0  0  0  0  0  0  0  0
    0.4461   -1.2972   -0.0205 C   0  0  0  0  0  0  0  0  0  0  0  0
   -0.1065   -2.6568   -0.0852 C   0  0  0  0  0  0  0  0  0  0  0  0
   -0.4894   -0.2520   -0.0159 C   0  0  0  0  0  0  0  0  0  0  0  0
   -0.0323    1.0459    0.0370 C   0  0  0  0  0  0  0  0  0  0  0  0
   -1.1134    1.8351    0.0304 N   0  0  0  0  0  0  0  0  0  0  0  0
   -2.2590    1.1336   -0.0235 C   0  0  0  0  0  0  0  0  0  0  0  0
   -3.5967    1.4912   -0.0495 C   0  0  0  0  0  0  0  0  0  0  0  0
   -4.5807    0.5379   -0.1053 C   0  0  0  0  0  0  0  0  0  0  0  0
   -4.1953   -0.7795   -0.1345 C   0  0  0  0  0  0  0  0  0  0  0  0
   -2.8524   -1.1688   -0.1094 C   0  0  0  0  0  0  0  0  0  0  0  0
   -1.8637   -0.2111   -0.0534 C   0  0  0  0  0  0  0  0  0  0  0  0
    2.2462    2.9832    1.0928 H   0  0  0  0  0  0  0  0  0  0  0  0
    2.5309    2.8524   -0.6686 H   0  0  0  0  0  0  0  0  0  0  0  0
    0.9309    3.4008   -0.1405 H   0  0  0  0  0  0  0  0  0  0  0  0
    3.9026    1.5970    0.1705 H   0  0  0  0  0  0  0  0  0  0  0  0
    5.5258   -0.2610    0.1641 H   0  0  0  0  0  0  0  0  0  0  0  0
    2.4208   -3.0820   -0.0132 H   0  0  0  0  0  0  0  0  0  0  0  0
   -0.6950   -2.9280    0.8161 H   0  0  0  0  0  0  0  0  0  0  0  0
   -0.6579   -2.8133   -1.0495 H   0  0  0  0  0  0  0  0  0  0  0  0
    0.7050   -3.3985   -0.1274 H   0  0  0  0  0  0  0  0  0  0  0  0
   -1.0583    2.8770    0.0639 H   0  0  0  0  0  0  0  0  0  0  0  0
   -3.8775    2.5335   -0.0257 H   0  0  0  0  0  0  0  0  0  0  0  0
   -5.6497    0.8060   -0.1267 H   0  0  0  0  0  0  0  0  0  0  0  0
   -4.9900   -1.5232   -0.1788 H   0  0  0  0  0  0  0  0  0  0  0  0
   -2.6414   -2.2199   -0.1336 H   0  0  0  0  0  0  0  0  0  0  0  0
  1  2  1  0
  2  3  2  0
  3  4  1  0
  4  5  2  0
  5  6  1  0
  6  7  2  0
  7  8  1  0
  8  9  2  0
  9 10  1  0
  9 11  1  0
 11 12  2  0
 12 13  1  0
 13 14  1  0
 14 15  2  0
 15 16  1  0
 16 17  2  0
 17 18  1  0
 18 19  2  0
 12  2  1  0
 19 14  1  0
  8  3  1  0
 19 11  1  0
  1 20  1  0
  1 21  1  0
  1 22  1  0
  4 23  1  0
  5 24  1  0
  7 25  1  0
 10 26  1  0
 10 27  1  0
 10 28  1  0
 13 29  1  0
 15 30  1  0
 16 31  1  0
 17 32  1  0
 18 33  1  0
M  END
