
     RDKit          3D

 42 44  0  0  0  0  0  0  0  0999 V2000
    6.2760    0.3869    0.6103 C   0  0  0  0  0  0  0  0  0  0  0  0
    5.6087    0.1424   -0.7038 C   0  0  0  0  0  0  0  0  0  0  0  0
    4.1337    0.3593   -0.6867 C   0  0  0  0  0  0  0  0  0  0  0  0
    3.4524   -0.5579    0.3049 C   0  0  0  0  0  0  0  0  0  0  0  0
    2.0192   -0.3537    0.3282 N   0  0  0  0  0  0  0  0  0  0  0  0
    1.3752    0.5760    1.1884 C   0  0  0  0  0  0  0  0  0  0  0  0
    2.0638    1.2579    1.9681 O   0  0  0  0  0  0  0  0  0  0  0  0
   -0.0811    0.7593    1.1877 C   0  0  0  0  0  0  0  0  0  0  0  0
   -0.6939    1.6688    2.0286 C   0  0  0  0  0  0  0  0  0  0  0  0
   -2.0585    1.8435    2.0282 C   0  0  0  0  0  0  0  0  0  0  0  0
   -2.8518    1.1124    1.1853 C   0  0  0  0  0  0  0  0  0  0  0  0
   -2.2656    0.1946    0.3328 C   0  0  0  0  0  0  0  0  0  0  0  0
   -3.0969   -0.5205   -0.5005 C   0  0  0  0  0  0  0  0  0  0  0  0
   -4.4948   -0.3537   -0.4945 N   0  0  0  0  0  0  0  0  0  0  0  0
   -5.3656   -0.6594    0.6227 C   0  0  0  0  0  0  0  0  0  0  0  0
   -5.1713    0.1682   -1.6907 C   0  0  0  0  0  0  0  0  0  0  0  0
   -2.4725   -1.4393   -1.3525 C   0  0  0  0  0  0  0  0  0  0  0  0
   -1.1120   -1.6243   -1.3638 C   0  0  0  0  0  0  0  0  0  0  0  0
   -0.2857   -0.9018   -0.5230 C   0  0  0  0  0  0  0  0  0  0  0  0
   -0.8734    0.0165    0.3330 C   0  0  0  0  0  0  0  0  0  0  0  0
    1.1673   -1.0959   -0.5336 C   0  0  0  0  0  0  0  0  0  0  0  0
    1.6208   -1.9535   -1.3451 O   0  0  0  0  0  0  0  0  0  0  0  0
    6.0840   -0.4944    1.2777 H   0  0  0  0  0  0  0  0  0  0  0  0
    5.9386    1.3009    1.1218 H   0  0  0  0  0  0  0  0  0  0  0  0
    7.3724    0.4175    0.4678 H   0  0  0  0  0  0  0  0  0  0  0  0
    5.7950   -0.9057   -1.0163 H   0  0  0  0  0  0  0  0  0  0  0  0
    6.0431    0.8357   -1.4661 H   0  0  0  0  0  0  0  0  0  0  0  0
    3.7428    0.0671   -1.6947 H   0  0  0  0  0  0  0  0  0  0  0  0
    3.8302    1.4161   -0.5496 H   0  0  0  0  0  0  0  0  0  0  0  0
    3.6666   -1.6093    0.1260 H   0  0  0  0  0  0  0  0  0  0  0  0
    3.8617   -0.3056    1.3104 H   0  0  0  0  0  0  0  0  0  0  0  0
   -0.0607    2.2385    2.6876 H   0  0  0  0  0  0  0  0  0  0  0  0
   -2.5607    2.5552    2.6831 H   0  0  0  0  0  0  0  0  0  0  0  0
   -3.9456    1.2420    1.1678 H   0  0  0  0  0  0  0  0  0  0  0  0
   -4.8204   -0.9535    1.5365 H   0  0  0  0  0  0  0  0  0  0  0  0
   -6.0620    0.1721    0.8522 H   0  0  0  0  0  0  0  0  0  0  0  0
   -6.0206   -1.5000    0.2806 H   0  0  0  0  0  0  0  0  0  0  0  0
   -5.4136   -0.7098   -2.3230 H   0  0  0  0  0  0  0  0  0  0  0  0
   -4.4857    0.8164   -2.2783 H   0  0  0  0  0  0  0  0  0  0  0  0
   -6.0581    0.7457   -1.3947 H   0  0  0  0  0  0  0  0  0  0  0  0
   -3.1105   -2.0071   -2.0117 H   0  0  0  0  0  0  0  0  0  0  0  0
   -0.6906   -2.3476   -2.0436 H   0  0  0  0  0  0  0  0  0  0  0  0
  1  2  1  0
  2  3  1  0
  3  4  1  0
  4  5  1  0
  5  6  1  0
  6  7  2  0
  6  8  1  0
  8  9  1  0
  9 10  2  0
 10 11  1  0
 11 12  2  0
 12 13  1  0
 13 14  1  0
 14 15  1  0
 14 16  1  0
 13 17  2  0
 17 18  1  0
 18 19  2  0
 19 20  1  0
 19 21  1  0
 21 22  2  0
 21  5  1  0
 20  8  2  0
 20 12  1  0
  1 23  1  0
  1 24  1  0
  1 25  1  0
  2 26  1  0
  2 27  1  0
  3 28  1  0
  3 29  1  0
  4 30  1  0
  4 31  1  0
  9 32  1  0
 10 33  1  0
 11 34  1  0
 15 35  1  0
 15 36  1  0
 15 37  1  0
 16 38  1  0
 16 39  1  0
 16 40  1  0
 17 41  1  0
 18 42  1  0
M  END
