
     RDKit          3D

 49 51  0  0  0  0  0  0  0  0999 V2000
    8.4866   -1.6991    0.7143 C   0  0  0  0  0  0  0  0  0  0  0  0
    8.4824   -0.4828   -0.0466 O   0  0  0  0  0  0  0  0  0  0  0  0
    7.2819    0.1253   -0.4000 C   0  0  0  0  0  0  0  0  0  0  0  0
    6.0742   -0.4182   -0.0328 C   0  0  0  0  0  0  0  0  0  0  0  0
    4.9085    0.2528   -0.4264 C   0  0  0  0  0  0  0  0  0  0  0  0
    3.6506   -0.3456   -0.0236 C   0  0  0  0  0  0  0  0  0  0  0  0
    2.4897    0.1956   -0.3360 C   0  0  0  0  0  0  0  0  0  0  0  0
    1.2268   -0.4519    0.0975 C   0  0  0  0  0  0  0  0  0  0  0  0
    0.0596    0.0925   -0.2167 C   0  0  0  0  0  0  0  0  0  0  0  0
   -1.2132   -0.4902    0.1765 C   0  0  0  0  0  0  0  0  0  0  0  0
   -2.4551    0.1810   -0.2153 C   0  0  0  0  0  0  0  0  0  0  0  0
   -3.6382   -0.2795    0.0994 C   0  0  0  0  0  0  0  0  0  0  0  0
   -4.9158    0.3663   -0.2757 C   0  0  0  0  0  0  0  0  0  0  0  0
   -4.9807    1.5220   -0.9972 C   0  0  0  0  0  0  0  0  0  0  0  0
   -6.1929    2.0687   -1.3119 C   0  0  0  0  0  0  0  0  0  0  0  0
   -7.3930    1.5094   -0.9350 C   0  0  0  0  0  0  0  0  0  0  0  0
   -8.6231    2.0668   -1.2559 O   0  0  0  0  0  0  0  0  0  0  0  0
   -7.3305    0.3351   -0.2018 C   0  0  0  0  0  0  0  0  0  0  0  0
   -8.5266   -0.2589    0.1967 O   0  0  0  0  0  0  0  0  0  0  0  0
   -8.4806   -1.4399    0.9345 C   0  0  0  0  0  0  0  0  0  0  0  0
   -6.1150   -0.2189    0.1174 C   0  0  0  0  0  0  0  0  0  0  0  0
   -1.2497   -1.5727    0.8545 O   0  0  0  0  0  3  0  0  0  0  0  0
   -0.0285   -2.2947    1.2786 B   0  0  0  0  0  4  0  0  0  0  0  0
   -0.0080   -2.3057    2.7433 F   0  0  0  0  0  0  0  0  0  0  0  0
   -0.0092   -3.6715    0.7796 F   0  0  0  0  0  0  0  0  0  0  0  0
    1.2278   -1.6276    0.8329 O   0  0  0  0  0  0  0  0  0  0  0  0
    4.9951    1.4053   -1.1494 C   0  0  0  0  0  0  0  0  0  0  0  0
    6.2260    1.9484   -1.5168 C   0  0  0  0  0  0  0  0  0  0  0  0
    7.3747    1.2912   -1.1316 C   0  0  0  0  0  0  0  0  0  0  0  0
    8.5954    1.8307   -1.4965 O   0  0  0  0  0  0  0  0  0  0  0  0
    7.7792   -1.5202    1.5602 H   0  0  0  0  0  0  0  0  0  0  0  0
    8.1185   -2.5450    0.1135 H   0  0  0  0  0  0  0  0  0  0  0  0
    9.5088   -1.9052    1.0579 H   0  0  0  0  0  0  0  0  0  0  0  0
    6.0249   -1.3276    0.5373 H   0  0  0  0  0  0  0  0  0  0  0  0
    3.6481   -1.2782    0.5599 H   0  0  0  0  0  0  0  0  0  0  0  0
    2.4313    1.1022   -0.9018 H   0  0  0  0  0  0  0  0  0  0  0  0
    0.0417    1.0235   -0.7987 H   0  0  0  0  0  0  0  0  0  0  0  0
   -2.3884    1.0880   -0.7842 H   0  0  0  0  0  0  0  0  0  0  0  0
   -3.6715   -1.1949    0.6728 H   0  0  0  0  0  0  0  0  0  0  0  0
   -4.0819    2.0066   -1.3206 H   0  0  0  0  0  0  0  0  0  0  0  0
   -6.2658    2.9918   -1.8877 H   0  0  0  0  0  0  0  0  0  0  0  0
   -8.6051    2.9296   -1.7960 H   0  0  0  0  0  0  0  0  0  0  0  0
   -9.4921   -1.6109    1.3725 H   0  0  0  0  0  0  0  0  0  0  0  0
   -8.2310   -2.3341    0.3353 H   0  0  0  0  0  0  0  0  0  0  0  0
   -7.7852   -1.3755    1.8214 H   0  0  0  0  0  0  0  0  0  0  0  0
   -6.0707   -1.1477    0.6974 H   0  0  0  0  0  0  0  0  0  0  0  0
    4.1344    1.9441   -1.4671 H   0  0  0  0  0  0  0  0  0  0  0  0
    6.2702    2.8547   -2.0849 H   0  0  0  0  0  0  0  0  0  0  0  0
    8.7153    2.6647   -2.0211 H   0  0  0  0  0  0  0  0  0  0  0  0
  1  2  1  0
  2  3  1  0
  3  4  2  0
  4  5  1  0
  5  6  1  0
  6  7  2  0
  7  8  1  0
  8  9  2  0
  9 10  1  0
 10 11  1  0
 11 12  2  0
 12 13  1  0
 13 14  2  0
 14 15  1  0
 15 16  2  0
 16 17  1  0
 16 18  1  0
 18 19  1  0
 19 20  1  0
 18 21  2  0
 10 22  2  0
 22 23  1  0
 23 24  1  0
 23 25  1  0
 23 26  1  0
  5 27  2  0
 27 28  1  0
 28 29  2  0
 29 30  1  0
 29  3  1  0
 26  8  1  0
 21 13  1  0
  1 31  1  0
  1 32  1  0
  1 33  1  0
  4 34  1  0
  6 35  1  0
  7 36  1  0
  9 37  1  0
 11 38  1  0
 12 39  1  0
 14 40  1  0
 15 41  1  0
 17 42  1  0
 20 43  1  0
 20 44  1  0
 20 45  1  0
 21 46  1  0
 27 47  1  0
 28 48  1  0
 30 49  1  0
M  CHG  2  22   1  23  -1
M  END
