
     RDKit          3D

 74 80  0  0  0  0  0  0  0  0999 V2000
   10.6187    2.2495    0.8410 O   0  0  0  0  0  0  0  0  0  0  0  0
    9.5117    1.7963    0.4075 C   0  0  0  0  0  0  0  0  0  0  0  0
    8.4066    2.5846    0.6795 O   0  0  0  0  0  0  0  0  0  0  0  0
    9.3754    0.5337   -0.3332 C   0  0  0  0  0  0  0  0  0  0  0  0
    8.0352    0.2698   -0.6125 O   0  0  0  0  0  0  0  0  0  0  0  0
    7.0964    0.0667    0.3732 C   0  0  0  0  0  0  0  0  0  0  0  0
    7.4494    0.0925    1.6989 C   0  0  0  0  0  0  0  0  0  0  0  0
    6.4810   -0.1113    2.6718 C   0  0  0  0  0  0  0  0  0  0  0  0
    5.1680   -0.3401    2.3223 C   0  0  0  0  0  0  0  0  0  0  0  0
    4.7909   -0.3717    1.0014 C   0  0  0  0  0  0  0  0  0  0  0  0
    3.3982   -0.6097    0.6033 C   0  0  0  0  0  0  0  0  0  0  0  0
    2.9863   -1.9486    0.7477 C   0  0  0  0  0  0  0  0  0  0  0  0
    1.6423   -2.1920    0.7443 N   0  0  0  0  0  0  0  0  0  0  0  0
    1.3888   -3.4995    0.8880 C   0  0  0  0  0  0  0  0  0  0  0  0
    0.0360   -3.8367    0.8941 C   0  0  0  0  0  0  0  0  0  0  0  0
   -1.0405   -2.9963    0.5757 C   0  0  0  0  0  0  0  0  0  0  0  0
   -2.1394   -2.9572    1.4679 C   0  0  0  0  0  0  0  0  0  0  0  0
   -3.0240   -2.0533    0.9534 C   0  0  0  0  0  0  0  0  0  0  0  0
   -2.4353   -1.5703   -0.2393 C   0  0  0  0  0  0  0  0  0  0  0  0
   -1.2441   -2.1542   -0.4461 N   0  0  0  0  0  0  0  0  0  0  0  0
   -3.1284   -0.5950   -0.9814 C   0  0  0  0  0  0  0  0  0  0  0  0
   -4.6240   -0.5440   -0.9128 C   0  0  0  0  0  0  0  0  0  0  0  0
   -5.3088   -1.4058   -1.7205 C   0  0  0  0  0  0  0  0  0  0  0  0
   -6.6982   -1.3837   -1.6817 C   0  0  0  0  0  0  0  0  0  0  0  0
   -7.3342   -0.4970   -0.8328 C   0  0  0  0  0  0  0  0  0  0  0  0
   -6.6050    0.3645   -0.0253 C   0  0  0  0  0  0  0  0  0  0  0  0
   -7.2773    1.2292    0.8040 O   0  0  0  0  0  0  0  0  0  0  0  0
   -8.6794    1.2991    0.8965 C   0  0  0  0  0  0  0  0  0  0  0  0
   -9.0275    2.3481    1.8835 C   0  0  0  0  0  0  0  0  0  0  0  0
   -8.1475    3.0142    2.4702 O   0  0  0  0  0  0  0  0  0  0  0  0
  -10.3534    2.5954    2.1631 O   0  0  0  0  0  0  0  0  0  0  0  0
   -5.2150    0.3509   -0.0567 C   0  0  0  0  0  0  0  0  0  0  0  0
   -2.6269    0.3947   -1.7943 C   0  0  0  0  0  0  0  0  0  0  0  0
   -1.3119    0.5166   -1.9549 N   0  0  0  0  0  0  0  0  0  0  0  0
   -1.0238    1.8227   -2.0655 C   0  0  0  0  0  0  0  0  0  0  0  0
    0.1587    2.3599   -1.5875 C   0  0  0  0  0  0  0  0  0  0  0  0
    1.1458    1.7415   -0.8014 C   0  0  0  0  0  0  0  0  0  0  0  0
    1.7166    2.4847    0.2556 C   0  0  0  0  0  0  0  0  0  0  0  0
    2.6190    1.6625    0.8624 C   0  0  0  0  0  0  0  0  0  0  0  0
    2.5653    0.4419    0.1516 C   0  0  0  0  0  0  0  0  0  0  0  0
    1.6776    0.5062   -0.8469 N   0  0  0  0  0  0  0  0  0  0  0  0
   -2.1722    2.4538   -2.7739 C   0  0  0  0  0  0  0  0  0  0  0  0
   -3.2539    1.4499   -2.6258 C   0  0  0  0  0  0  0  0  0  0  0  0
    2.6726   -4.1436    0.9908 C   0  0  0  0  0  0  0  0  0  0  0  0
    3.6510   -3.2173    0.9073 C   0  0  0  0  0  0  0  0  0  0  0  0
    5.7503   -0.1697    0.0441 C   0  0  0  0  0  0  0  0  0  0  0  0
    8.4966    3.5361    1.0713 H   0  0  0  0  0  0  0  0  0  0  0  0
    9.8185   -0.2812    0.3105 H   0  0  0  0  0  0  0  0  0  0  0  0
    9.9644    0.5930   -1.2717 H   0  0  0  0  0  0  0  0  0  0  0  0
    8.4866    0.2552    1.9963 H   0  0  0  0  0  0  0  0  0  0  0  0
    6.7732   -0.0892    3.7141 H   0  0  0  0  0  0  0  0  0  0  0  0
    4.4281   -0.4971    3.0887 H   0  0  0  0  0  0  0  0  0  0  0  0
   -0.1533   -4.8853    1.2148 H   0  0  0  0  0  0  0  0  0  0  0  0
   -2.2908   -3.5348    2.3979 H   0  0  0  0  0  0  0  0  0  0  0  0
   -3.9943   -1.7772    1.4059 H   0  0  0  0  0  0  0  0  0  0  0  0
   -0.5631   -1.9874   -1.3154 H   0  0  0  0  0  0  0  0  0  0  0  0
   -4.8411   -2.1142   -2.3995 H   0  0  0  0  0  0  0  0  0  0  0  0
   -7.2397   -2.0747   -2.3309 H   0  0  0  0  0  0  0  0  0  0  0  0
   -8.4208   -0.4853   -0.8082 H   0  0  0  0  0  0  0  0  0  0  0  0
   -9.1034    0.3455    1.2871 H   0  0  0  0  0  0  0  0  0  0  0  0
   -9.1567    1.5460   -0.0811 H   0  0  0  0  0  0  0  0  0  0  0  0
  -10.6454    3.5589    2.3921 H   0  0  0  0  0  0  0  0  0  0  0  0
   -4.6692    1.0255    0.5740 H   0  0  0  0  0  0  0  0  0  0  0  0
    0.2961    3.4294   -1.8855 H   0  0  0  0  0  0  0  0  0  0  0  0
    1.5062    3.5276    0.5593 H   0  0  0  0  0  0  0  0  0  0  0  0
    3.2527    1.9292    1.7288 H   0  0  0  0  0  0  0  0  0  0  0  0
    1.4376   -0.2906   -1.5890 H   0  0  0  0  0  0  0  0  0  0  0  0
   -2.4234    3.4485   -2.3469 H   0  0  0  0  0  0  0  0  0  0  0  0
   -1.9553    2.5608   -3.8787 H   0  0  0  0  0  0  0  0  0  0  0  0
   -3.6320    1.0573   -3.5924 H   0  0  0  0  0  0  0  0  0  0  0  0
   -4.0965    1.9393   -2.0625 H   0  0  0  0  0  0  0  0  0  0  0  0
    2.8073   -5.2133    1.1141 H   0  0  0  0  0  0  0  0  0  0  0  0
    4.7193   -3.3745    0.9512 H   0  0  0  0  0  0  0  0  0  0  0  0
    5.5275   -0.1794   -1.0049 H   0  0  0  0  0  0  0  0  0  0  0  0
  1  2  2  0
  2  3  1  0
  2  4  1  0
  4  5  1  0
  5  6  1  0
  6  7  2  0
  7  8  1  0
  8  9  2  0
  9 10  1  0
 10 11  1  0
 11 12  1  0
 12 13  2  0
 13 14  1  0
 14 15  2  0
 15 16  1  0
 16 17  2  0
 17 18  1  0
 18 19  2  0
 19 20  1  0
 19 21  1  0
 21 22  1  0
 22 23  2  0
 23 24  1  0
 24 25  2  0
 25 26  1  0
 26 27  1  0
 27 28  1  0
 28 29  1  0
 29 30  2  0
 29 31  1  0
 26 32  2  0
 21 33  2  0
 33 34  1  0
 34 35  2  0
 35 36  1  0
 36 37  2  0
 37 38  1  0
 38 39  2  0
 39 40  1  0
 40 41  1  0
 35 42  1  0
 42 43  1  0
 14 44  1  0
 44 45  2  0
 10 46  2  0
 46  6  1  0
 40 11  2  0
 45 12  1  0
 20 16  1  0
 32 22  1  0
 43 33  1  0
 41 37  1  0
  3 47  1  0
  4 48  1  0
  4 49  1  0
  7 50  1  0
  8 51  1  0
  9 52  1  0
 15 53  1  0
 17 54  1  0
 18 55  1  0
 20 56  1  0
 23 57  1  0
 24 58  1  0
 25 59  1  0
 28 60  1  0
 28 61  1  0
 31 62  1  0
 32 63  1  0
 36 64  1  0
 38 65  1  0
 39 66  1  0
 41 67  1  0
 42 68  1  0
 42 69  1  0
 43 70  1  0
 43 71  1  0
 44 72  1  0
 45 73  1  0
 46 74  1  0
M  END
