
     RDKit          3D

 39 43  0  0  0  0  0  0  0  0999 V2000
    2.8785    2.5876    1.7684 F   0  0  0  0  0  0  0  0  0  0  0  0
    2.6787    1.8910    0.5219 B   0  0  0  0  0  4  0  0  0  0  0  0
    2.6902    2.9991   -0.4828 F   0  0  0  0  0  0  0  0  0  0  0  0
    3.8308    1.0820    0.1263 O   0  0  0  0  0  0  0  0  0  0  0  0
    3.7186   -0.2404   -0.2107 C   0  0  0  0  0  0  0  0  0  0  0  0
    4.8535   -1.0233   -0.4902 C   0  0  0  0  0  0  0  0  0  0  0  0
    4.7191   -2.3485   -0.8268 C   0  0  0  0  0  0  0  0  0  0  0  0
    3.4940   -2.9721   -0.9080 C   0  0  0  0  0  0  0  0  0  0  0  0
    2.3636   -2.2140   -0.6352 C   0  0  0  0  0  0  0  0  0  0  0  0
    2.5058   -0.8834   -0.2977 C   0  0  0  0  0  0  0  0  0  0  0  0
    1.3140   -0.0741   -0.0051 C   0  0  0  0  0  0  0  0  0  0  0  0
    0.1062   -0.7126   -0.1385 N   0  0  0  0  0  0  0  0  0  0  0  0
   -1.0661   -0.0931    0.0585 C   0  0  0  0  0  0  0  0  0  0  0  0
   -2.3076   -0.8164   -0.1042 C   0  0  0  0  0  0  0  0  0  0  0  0
   -2.5327   -1.5032   -1.3053 C   0  0  0  0  0  0  0  0  0  0  0  0
   -3.6806   -2.2402   -1.4939 C   0  0  0  0  0  0  0  0  0  0  0  0
   -4.6498   -2.3305   -0.5112 C   0  0  0  0  0  0  0  0  0  0  0  0
   -4.4086   -1.6514    0.6549 C   0  0  0  0  0  0  0  0  0  0  0  0
   -3.2550   -0.9038    0.8604 C   0  0  0  0  0  0  0  0  0  0  0  0
   -0.9938    1.2341    0.4038 C   0  0  0  0  0  0  0  0  0  0  0  0
   -2.1574    1.9621    0.6047 C   0  0  0  0  0  0  0  0  0  0  0  0
   -2.0979    3.3097    0.9389 C   0  0  0  0  0  0  0  0  0  0  0  0
   -0.8938    3.9440    1.0751 C   0  0  0  0  0  0  0  0  0  0  0  0
    0.2886    3.2344    0.8765 C   0  0  0  0  0  0  0  0  0  0  0  0
    0.2120    1.9110    0.5485 C   0  0  0  0  0  0  0  0  0  0  0  0
    1.3664    1.2195    0.3355 N   0  0  0  0  0  4  0  0  0  0  0  0
    5.8297   -0.5783   -0.4390 H   0  0  0  0  0  0  0  0  0  0  0  0
    5.5992   -2.9574   -1.0440 H   0  0  0  0  0  0  0  0  0  0  0  0
    3.3401   -3.9978   -1.1653 H   0  0  0  0  0  0  0  0  0  0  0  0
    1.3727   -2.6341   -0.6788 H   0  0  0  0  0  0  0  0  0  0  0  0
   -1.7623   -1.4255   -2.0738 H   0  0  0  0  0  0  0  0  0  0  0  0
   -3.8452   -2.7627   -2.4158 H   0  0  0  0  0  0  0  0  0  0  0  0
   -5.5399   -2.9117   -0.6789 H   0  0  0  0  0  0  0  0  0  0  0  0
   -5.1741   -1.7231    1.4304 H   0  0  0  0  0  0  0  0  0  0  0  0
   -3.1264   -0.4052    1.8225 H   0  0  0  0  0  0  0  0  0  0  0  0
   -3.0992    1.4622    0.4764 H   0  0  0  0  0  0  0  0  0  0  0  0
   -3.0279    3.8622    1.0930 H   0  0  0  0  0  0  0  0  0  0  0  0
   -0.7849    4.9802    1.3315 H   0  0  0  0  0  0  0  0  0  0  0  0
    1.2416    3.7240    0.9783 H   0  0  0  0  0  0  0  0  0  0  0  0
  1  2  1  0
  2  3  1  0
  2  4  1  0
  4  5  1  0
  5  6  2  0
  6  7  1  0
  7  8  2  0
  8  9  1  0
  9 10  2  0
 10 11  1  0
 11 12  2  0
 12 13  1  0
 13 14  1  0
 14 15  2  0
 15 16  1  0
 16 17  2  0
 17 18  1  0
 18 19  2  0
 13 20  2  0
 20 21  1  0
 21 22  2  0
 22 23  1  0
 23 24  2  0
 24 25  1  0
 25 26  2  0
 26  2  1  0
 10  5  1  0
 26 11  1  0
 19 14  1  0
 25 20  1  0
  6 27  1  0
  7 28  1  0
  8 29  1  0
  9 30  1  0
 15 31  1  0
 16 32  1  0
 17 33  1  0
 18 34  1  0
 19 35  1  0
 21 36  1  0
 22 37  1  0
 23 38  1  0
 24 39  1  0
M  CHG  2   2  -1  26   1
M  END
