
     RDKit          3D

 45 47  0  0  0  0  0  0  0  0999 V2000
   -7.2895    1.2023   -1.5550 C   0  0  0  0  0  0  0  0  0  0  0  0
   -6.8070    0.4192   -0.4679 N   0  0  0  0  0  0  0  0  0  0  0  0
   -7.7572   -0.1844    0.4347 C   0  0  0  0  0  0  0  0  0  0  0  0
   -5.4321    0.2179   -0.2473 C   0  0  0  0  0  0  0  0  0  0  0  0
   -4.9847   -0.5634    0.8280 C   0  0  0  0  0  0  0  0  0  0  0  0
   -3.6522   -0.7777    1.0721 C   0  0  0  0  0  0  0  0  0  0  0  0
   -2.6685   -0.2426    0.2815 C   0  0  0  0  0  0  0  0  0  0  0  0
   -1.2395   -0.4445    0.5145 C   0  0  0  0  0  0  0  0  0  0  0  0
   -0.7326   -1.1472    1.5120 C   0  0  0  0  0  0  0  0  0  0  0  0
    0.7041   -1.3023    1.6764 C   0  0  0  0  0  0  0  0  0  0  0  0
    1.2932   -2.0064    2.6949 C   0  0  0  0  0  0  0  0  0  0  0  0
    2.6386   -1.9147    2.4954 N   0  0  0  0  0  0  0  0  0  0  0  0
    2.8412   -1.1868    1.4040 C   0  0  0  0  0  0  0  0  0  0  0  0
    4.1485   -0.8304    0.8122 C   0  0  0  0  0  0  0  0  0  0  0  0
    4.2462   -0.1031   -0.2695 C   0  0  0  0  0  0  0  0  0  0  0  0
    5.4941    0.2889   -0.9112 C   0  0  0  0  0  0  0  0  0  0  0  0
    6.7262   -0.0865   -0.4279 C   0  0  0  0  0  0  0  0  0  0  0  0
    7.9055    0.3104   -1.0694 C   0  0  0  0  0  0  0  0  0  0  0  0
    7.8402    1.0894   -2.2036 C   0  0  0  0  0  0  0  0  0  0  0  0
    9.0657    1.4866   -2.8479 C   0  0  0  0  0  0  0  0  0  0  0  0
   10.0578    1.8031   -3.3909 N   0  0  0  0  0  0  0  0  0  0  0  0
    6.6036    1.4839   -2.7147 C   0  0  0  0  0  0  0  0  0  0  0  0
    5.4887    1.0684   -2.0494 C   0  0  0  0  0  0  0  0  0  0  0  0
    1.6702   -0.8358    0.9374 O   0  0  0  0  0  0  0  0  0  0  0  0
   -3.0753    0.5310   -0.7848 C   0  0  0  0  0  0  0  0  0  0  0  0
   -4.4384    0.7472   -1.0301 C   0  0  0  0  0  0  0  0  0  0  0  0
   -7.7688    2.1148   -1.0766 H   0  0  0  0  0  0  0  0  0  0  0  0
   -8.1522    0.6608   -2.0384 H   0  0  0  0  0  0  0  0  0  0  0  0
   -6.5791    1.5280   -2.3042 H   0  0  0  0  0  0  0  0  0  0  0  0
   -8.7516    0.2647    0.2541 H   0  0  0  0  0  0  0  0  0  0  0  0
   -7.7784   -1.2907    0.3485 H   0  0  0  0  0  0  0  0  0  0  0  0
   -7.5162    0.0522    1.4969 H   0  0  0  0  0  0  0  0  0  0  0  0
   -5.7716   -0.9884    1.4556 H   0  0  0  0  0  0  0  0  0  0  0  0
   -3.3712   -1.3973    1.9274 H   0  0  0  0  0  0  0  0  0  0  0  0
   -0.4924   -0.0025   -0.1582 H   0  0  0  0  0  0  0  0  0  0  0  0
   -1.4061   -1.6073    2.2089 H   0  0  0  0  0  0  0  0  0  0  0  0
    0.8283   -2.5388    3.5078 H   0  0  0  0  0  0  0  0  0  0  0  0
    5.0422   -1.1798    1.2860 H   0  0  0  0  0  0  0  0  0  0  0  0
    3.2960    0.2275   -0.7115 H   0  0  0  0  0  0  0  0  0  0  0  0
    6.8166   -0.6935    0.4555 H   0  0  0  0  0  0  0  0  0  0  0  0
    8.8666    0.0263   -0.7047 H   0  0  0  0  0  0  0  0  0  0  0  0
    6.5892    2.0959   -3.6066 H   0  0  0  0  0  0  0  0  0  0  0  0
    4.5087    1.3759   -2.4455 H   0  0  0  0  0  0  0  0  0  0  0  0
   -2.3093    0.9589   -1.4143 H   0  0  0  0  0  0  0  0  0  0  0  0
   -4.6976    1.3705   -1.8888 H   0  0  0  0  0  0  0  0  0  0  0  0
  1  2  1  0
  2  3  1  0
  2  4  1  0
  4  5  2  0
  5  6  1  0
  6  7  2  0
  7  8  1  0
  8  9  2  0
  9 10  1  0
 10 11  2  0
 11 12  1  0
 12 13  2  0
 13 14  1  0
 14 15  2  0
 15 16  1  0
 16 17  2  0
 17 18  1  0
 18 19  2  0
 19 20  1  0
 20 21  3  0
 19 22  1  0
 22 23  2  0
 13 24  1  0
  7 25  1  0
 25 26  2  0
 26  4  1  0
 24 10  1  0
 23 16  1  0
  1 27  1  0
  1 28  1  0
  1 29  1  0
  3 30  1  0
  3 31  1  0
  3 32  1  0
  5 33  1  0
  6 34  1  0
  8 35  1  0
  9 36  1  0
 11 37  1  0
 14 38  1  0
 15 39  1  0
 17 40  1  0
 18 41  1  0
 22 42  1  0
 23 43  1  0
 25 44  1  0
 26 45  1  0
M  END
