
     RDKit          3D

 34 36  0  0  0  0  0  0  0  0999 V2000
    0.1321    0.6220    1.6498 C   0  0  0  0  0  0  0  0  0  0  0  0
   -0.2318    0.1584    0.2899 C   0  0  0  0  0  0  0  0  0  0  0  0
    0.6707   -0.1971   -0.5791 C   0  0  0  0  0  0  0  0  0  0  0  0
    2.1006   -0.1829   -0.3341 C   0  0  0  0  0  0  0  0  0  0  0  0
    2.8504   -1.2704   -0.7894 C   0  0  0  0  0  0  0  0  0  0  0  0
    4.2148   -1.3252   -0.6071 C   0  0  0  0  0  0  0  0  0  0  0  0
    4.8879   -0.3006    0.0353 C   0  0  0  0  0  0  0  0  0  0  0  0
    6.3472   -0.4019    0.2085 C   0  0  0  0  0  0  0  0  0  0  0  0
    4.1325    0.7584    0.4745 C   0  0  0  0  0  0  0  0  0  0  0  0
    2.7693    0.8339    0.3030 C   0  0  0  0  0  0  0  0  0  0  0  0
   -1.6629    0.1059   -0.0725 C   0  0  0  0  0  0  0  0  0  0  0  0
   -2.6873    0.4308    0.6820 N   0  0  0  0  0  0  0  0  0  0  0  0
   -3.9007    0.3299    0.2158 C   0  0  0  0  0  0  0  0  0  0  0  0
   -5.0910    0.6423    0.9086 C   0  0  0  0  0  0  0  0  0  0  0  0
   -6.2946    0.4829    0.2793 C   0  0  0  0  0  0  0  0  0  0  0  0
   -6.4634    0.0308   -1.0118 C   0  0  0  0  0  0  0  0  0  0  0  0
   -5.2943   -0.2744   -1.6880 C   0  0  0  0  0  0  0  0  0  0  0  0
   -4.0509   -0.1202   -1.0669 C   0  0  0  0  0  0  0  0  0  0  0  0
   -2.4096   -0.3744   -1.5301 S   0  0  0  0  0  0  0  0  0  0  0  0
   -0.6809    0.1926    2.3196 H   0  0  0  0  0  0  0  0  0  0  0  0
    0.1203    1.7127    1.7776 H   0  0  0  0  0  0  0  0  0  0  0  0
    1.0554    0.1436    2.0155 H   0  0  0  0  0  0  0  0  0  0  0  0
    0.2803   -0.5271   -1.5608 H   0  0  0  0  0  0  0  0  0  0  0  0
    2.3648   -2.1012   -1.3009 H   0  0  0  0  0  0  0  0  0  0  0  0
    4.8006   -2.1796   -0.9655 H   0  0  0  0  0  0  0  0  0  0  0  0
    6.5362   -0.8521    1.2123 H   0  0  0  0  0  0  0  0  0  0  0  0
    6.7536   -1.1355   -0.5222 H   0  0  0  0  0  0  0  0  0  0  0  0
    6.8880    0.5371    0.0673 H   0  0  0  0  0  0  0  0  0  0  0  0
    4.6568    1.5678    0.9803 H   0  0  0  0  0  0  0  0  0  0  0  0
    2.2106    1.7013    0.6611 H   0  0  0  0  0  0  0  0  0  0  0  0
   -5.0692    1.0069    1.9328 H   0  0  0  0  0  0  0  0  0  0  0  0
   -7.2470    0.7164    0.7882 H   0  0  0  0  0  0  0  0  0  0  0  0
   -7.4170   -0.0920   -1.5001 H   0  0  0  0  0  0  0  0  0  0  0  0
   -5.2713   -0.6390   -2.7028 H   0  0  0  0  0  0  0  0  0  0  0  0
  1  2  1  0
  2  3  2  0
  3  4  1  0
  4  5  2  0
  5  6  1  0
  6  7  2  0
  7  8  1  0
  7  9  1  0
  9 10  2  0
  2 11  1  0
 11 12  2  0
 12 13  1  0
 13 14  2  0
 14 15  1  0
 15 16  2  0
 16 17  1  0
 17 18  2  0
 18 19  1  0
 10  4  1  0
 19 11  1  0
 18 13  1  0
  1 20  1  0
  1 21  1  0
  1 22  1  0
  3 23  1  0
  5 24  1  0
  6 25  1  0
  8 26  1  0
  8 27  1  0
  8 28  1  0
  9 29  1  0
 10 30  1  0
 14 31  1  0
 15 32  1  0
 16 33  1  0
 17 34  1  0
M  END
