
     RDKit          3D

 28 29  0  0  0  0  0  0  0  0999 V2000
   -2.1024   -2.8815    0.1403 C   0  0  0  0  0  0  0  0  0  0  0  0
   -1.8672   -1.4180    0.0788 C   0  0  0  0  0  0  0  0  0  0  0  0
   -2.7669   -0.5019   -0.0961 O   0  0  0  0  0  0  0  0  0  0  0  0
   -2.2402    0.7038   -0.1033 C   0  0  0  0  0  0  0  0  0  0  0  0
   -2.9179    2.0165   -0.2742 C   0  0  0  0  0  0  0  0  0  0  0  0
   -0.8857    0.5463    0.0831 C   0  0  0  0  0  0  0  0  0  0  0  0
   -0.6502   -0.8101    0.1992 C   0  0  0  0  0  0  0  0  0  0  0  0
    0.6498   -1.4678    0.4097 C   0  0  0  0  0  0  0  0  0  0  0  0
    1.8522   -0.9160    0.2443 C   0  0  0  0  0  0  0  0  0  0  0  0
    2.9282   -1.8574    0.5420 C   0  0  0  0  0  0  0  0  0  0  0  0
    2.7228   -3.0520    0.9120 O   0  0  0  0  0  0  0  0  0  0  0  0
    2.3232    0.4016   -0.1643 C   0  0  0  0  0  0  0  0  0  0  0  0
    1.4369    1.5322    0.0441 C   0  0  0  0  0  0  0  0  0  0  0  0
    2.1078    2.8067    0.1592 C   0  0  0  0  0  0  0  0  0  0  0  0
    3.3539    2.8451    0.0752 O   0  0  0  0  0  0  0  0  0  0  0  0
    0.1226    1.6095    0.1478 C   0  0  0  0  0  0  0  0  0  0  0  0
   -2.4570   -3.2899   -0.8282 H   0  0  0  0  0  0  0  0  0  0  0  0
   -2.9148   -3.1225    0.8754 H   0  0  0  0  0  0  0  0  0  0  0  0
   -1.2210   -3.4444    0.4465 H   0  0  0  0  0  0  0  0  0  0  0  0
   -2.3452    2.5770   -1.0588 H   0  0  0  0  0  0  0  0  0  0  0  0
   -2.8152    2.6188    0.6590 H   0  0  0  0  0  0  0  0  0  0  0  0
   -3.9729    1.8954   -0.5553 H   0  0  0  0  0  0  0  0  0  0  0  0
    0.5587   -2.4859    0.7247 H   0  0  0  0  0  0  0  0  0  0  0  0
    3.9849   -1.5881    0.4636 H   0  0  0  0  0  0  0  0  0  0  0  0
    2.5931    0.3380   -1.2412 H   0  0  0  0  0  0  0  0  0  0  0  0
    3.2613    0.6106    0.4354 H   0  0  0  0  0  0  0  0  0  0  0  0
    1.5895    3.7394    0.3154 H   0  0  0  0  0  0  0  0  0  0  0  0
   -0.3286    2.5945    0.3065 H   0  0  0  0  0  0  0  0  0  0  0  0
  1  2  1  0
  2  3  1  0
  3  4  1  0
  4  5  1  0
  4  6  2  0
  6  7  1  0
  7  8  1  0
  8  9  2  0
  9 10  1  0
 10 11  2  0
  9 12  1  0
 12 13  1  0
 13 14  1  0
 14 15  2  0
 13 16  2  0
  7  2  2  0
 16  6  1  0
  1 17  1  0
  1 18  1  0
  1 19  1  0
  5 20  1  0
  5 21  1  0
  5 22  1  0
  8 23  1  0
 10 24  1  0
 12 25  1  0
 12 26  1  0
 14 27  1  0
 16 28  1  0
M  END
