
     RDKit          3D

 30 32  0  0  0  0  0  0  0  0999 V2000
    2.0516   -2.8065   -0.5939 O   0  0  0  0  0  0  0  0  0  0  0  0
    1.6876   -1.7139   -0.0972 C   0  0  0  0  0  0  0  0  0  0  0  0
    0.3273   -1.5054    0.3653 C   0  0  0  0  0  0  0  0  0  0  0  0
   -0.0686   -0.3434    0.8961 C   0  0  0  0  0  0  0  0  0  0  0  0
   -1.4050   -0.1570    1.3438 N   0  0  0  0  0  0  0  0  0  0  0  0
   -2.5043   -0.0689    0.4402 C   0  0  0  0  0  0  0  0  0  0  0  0
   -2.2648   -0.1677   -0.9147 C   0  0  0  0  0  0  0  0  0  0  0  0
   -3.3214   -0.0825   -1.7744 C   0  0  0  0  0  0  0  0  0  0  0  0
   -4.6241    0.0975   -1.3713 C   0  0  0  0  0  0  0  0  0  0  0  0
   -4.8188    0.1919    0.0061 C   0  0  0  0  0  0  0  0  0  0  0  0
   -6.1031    0.3721    0.4562 F   0  0  0  0  0  0  0  0  0  0  0  0
   -3.7877    0.1120    0.9074 C   0  0  0  0  0  0  0  0  0  0  0  0
    0.8673    0.7411    1.0195 C   0  0  0  0  0  0  0  0  0  0  0  0
    0.5182    1.8398    1.5141 O   0  0  0  0  0  0  0  0  0  0  0  0
    2.2455    0.5765    0.5677 C   0  0  0  0  0  0  0  0  0  0  0  0
    3.1109    1.6394    0.7034 C   0  0  0  0  0  0  0  0  0  0  0  0
    4.4149    1.4996    0.2817 C   0  0  0  0  0  0  0  0  0  0  0  0
    4.8105    0.3056   -0.2605 C   0  0  0  0  0  0  0  0  0  0  0  0
    3.9664   -0.7723   -0.4077 C   0  0  0  0  0  0  0  0  0  0  0  0
    2.6582   -0.6336    0.0148 C   0  0  0  0  0  0  0  0  0  0  0  0
   -0.4127   -2.2897    0.2941 H   0  0  0  0  0  0  0  0  0  0  0  0
   -1.5909   -0.0819    2.3660 H   0  0  0  0  0  0  0  0  0  0  0  0
   -1.2358   -0.3122   -1.2784 H   0  0  0  0  0  0  0  0  0  0  0  0
   -3.1308   -0.1610   -2.8500 H   0  0  0  0  0  0  0  0  0  0  0  0
   -5.4640    0.1655   -2.0485 H   0  0  0  0  0  0  0  0  0  0  0  0
   -3.9486    0.1872    1.9889 H   0  0  0  0  0  0  0  0  0  0  0  0
    2.7807    2.5927    1.1404 H   0  0  0  0  0  0  0  0  0  0  0  0
    5.1088    2.3183    0.3785 H   0  0  0  0  0  0  0  0  0  0  0  0
    5.8332    0.1749   -0.5988 H   0  0  0  0  0  0  0  0  0  0  0  0
    4.2994   -1.7180   -0.8427 H   0  0  0  0  0  0  0  0  0  0  0  0
  1  2  2  0
  2  3  1  0
  3  4  2  0
  4  5  1  0
  5  6  1  0
  6  7  2  0
  7  8  1  0
  8  9  2  0
  9 10  1  0
 10 11  1  0
 10 12  2  0
  4 13  1  0
 13 14  2  0
 13 15  1  0
 15 16  2  0
 16 17  1  0
 17 18  2  0
 18 19  1  0
 19 20  2  0
 20  2  1  0
 12  6  1  0
 20 15  1  0
  3 21  1  0
  5 22  1  0
  7 23  1  0
  8 24  1  0
  9 25  1  0
 12 26  1  0
 16 27  1  0
 17 28  1  0
 18 29  1  0
 19 30  1  0
M  END
