
     RDKit          3D

 71 76  0  0  0  0  0  0  0  0999 V2000
   -6.7191   -6.6754    1.3882 F   0  0  0  0  0  0  0  0  0  0  0  0
   -5.8160   -5.8398    0.8509 C   0  0  0  0  0  0  0  0  0  0  0  0
   -4.9518   -6.2503   -0.1761 C   0  0  0  0  0  0  0  0  0  0  0  0
   -4.0265   -5.3984   -0.7112 C   0  0  0  0  0  0  0  0  0  0  0  0
   -3.9087   -4.1136   -0.2631 C   0  0  0  0  0  0  0  0  0  0  0  0
   -2.9189   -3.1822   -0.7073 C   0  0  0  0  0  0  0  0  0  0  0  0
   -2.0651   -2.4040   -1.0888 C   0  0  0  0  0  0  0  0  0  0  0  0
   -0.9915   -1.4543   -1.5787 C   0  0  0  0  0  0  0  0  0  0  0  0
    0.1786   -2.0938   -1.7376 N   0  0  0  0  0  0  0  0  0  0  0  0
    1.3730   -1.3732   -1.4898 C   0  0  0  0  0  0  0  0  0  0  0  0
    2.5609   -2.0945   -1.6458 C   0  0  0  0  0  0  0  0  0  0  0  0
    3.6217   -2.7273   -1.7692 C   0  0  0  0  0  0  0  0  0  0  0  0
    4.8341   -3.4779   -1.9121 C   0  0  0  0  0  0  0  0  0  0  0  0
    5.7054   -3.1279   -2.9539 C   0  0  0  0  0  0  0  0  0  0  0  0
    6.8824   -3.8715   -3.1488 C   0  0  0  0  0  0  0  0  0  0  0  0
    7.1816   -4.9221   -2.3548 C   0  0  0  0  0  0  0  0  0  0  0  0
    8.3279   -5.6433   -2.5435 F   0  0  0  0  0  0  0  0  0  0  0  0
    6.3338   -5.2745   -1.3304 C   0  0  0  0  0  0  0  0  0  0  0  0
    5.1668   -4.5445   -1.1205 C   0  0  0  0  0  0  0  0  0  0  0  0
    1.2514   -0.1173   -1.1184 C   0  0  0  0  0  0  0  0  0  0  0  0
    2.1828    0.3152    0.0648 C   0  0  0  0  0  0  0  0  0  0  0  0
    2.8601    0.6356    0.9231 C   0  0  0  0  0  0  0  0  0  0  0  0
    3.7212    1.0479    1.9857 C   0  0  0  0  0  0  0  0  0  0  0  0
    3.9839    2.4652    2.1230 C   0  0  0  0  0  0  0  0  0  0  0  0
    4.8356    2.7912    3.1541 C   0  0  0  0  0  0  0  0  0  0  0  0
    5.4324    1.9348    4.0281 C   0  0  0  0  0  0  0  0  0  0  0  0
    6.2703    2.3193    5.0083 F   0  0  0  0  0  0  0  0  0  0  0  0
    5.1731    0.5527    3.8898 C   0  0  0  0  0  0  0  0  0  0  0  0
    4.3230    0.2450    2.8586 C   0  0  0  0  0  0  0  0  0  0  0  0
    0.0179    0.5840   -0.9804 C   0  0  0  0  0  0  0  0  0  0  0  0
    0.0509    1.9097   -0.6662 C   0  0  0  0  0  0  0  0  0  0  0  0
    0.0684    3.0967   -0.3684 C   0  0  0  0  0  0  0  0  0  0  0  0
    0.0791    4.5319    0.0164 C   0  0  0  0  0  0  0  0  0  0  0  0
   -0.6228    4.9801    1.0423 C   0  0  0  0  0  0  0  0  0  0  0  0
   -0.6469    6.3857    1.4303 C   0  0  0  0  0  0  0  0  0  0  0  0
    0.1424    7.1079    0.5979 C   0  0  0  0  0  0  0  0  0  0  0  0
    0.1388    8.5180    0.9660 F   0  0  0  0  0  0  0  0  0  0  0  0
    0.8595    6.7625   -0.4175 C   0  0  0  0  0  0  0  0  0  0  0  0
    0.8677    5.3683   -0.7850 C   0  0  0  0  0  0  0  0  0  0  0  0
   -1.1700   -0.1691   -1.2316 C   0  0  0  0  0  0  0  0  0  0  0  0
   -2.4174    0.4932   -1.0269 C   0  0  0  0  0  0  0  0  0  0  0  0
   -3.4673    1.0572   -0.8549 C   0  0  0  0  0  0  0  0  0  0  0  0
   -4.7166    1.7194   -0.6458 C   0  0  0  0  0  0  0  0  0  0  0  0
   -5.3639    2.4319   -1.6250 C   0  0  0  0  0  0  0  0  0  0  0  0
   -6.5577    3.0892   -1.4650 C   0  0  0  0  0  0  0  0  0  0  0  0
   -7.1398    3.0083   -0.1938 C   0  0  0  0  0  0  0  0  0  0  0  0
   -8.3082    3.6549   -0.0454 F   0  0  0  0  0  0  0  0  0  0  0  0
   -6.5169    2.3096    0.7921 C   0  0  0  0  0  0  0  0  0  0  0  0
   -5.2991    1.6386    0.6319 C   0  0  0  0  0  0  0  0  0  0  0  0
   -4.7829   -3.7134    0.7649 C   0  0  0  0  0  0  0  0  0  0  0  0
   -5.7023   -4.5251    1.3143 C   0  0  0  0  0  0  0  0  0  0  0  0
   -5.0417   -7.2569   -0.5301 H   0  0  0  0  0  0  0  0  0  0  0  0
   -3.3569   -5.7336   -1.4940 H   0  0  0  0  0  0  0  0  0  0  0  0
    5.5015   -2.3094   -3.6111 H   0  0  0  0  0  0  0  0  0  0  0  0
    7.5470   -3.5845   -3.9375 H   0  0  0  0  0  0  0  0  0  0  0  0
    6.5843   -6.1178   -0.7193 H   0  0  0  0  0  0  0  0  0  0  0  0
    4.4780   -4.8374   -0.3060 H   0  0  0  0  0  0  0  0  0  0  0  0
    3.5012    3.1042    1.4407 H   0  0  0  0  0  0  0  0  0  0  0  0
    5.0591    3.8654    3.2799 H   0  0  0  0  0  0  0  0  0  0  0  0
    5.6245   -0.1455    4.5451 H   0  0  0  0  0  0  0  0  0  0  0  0
    4.0793   -0.8463    2.7268 H   0  0  0  0  0  0  0  0  0  0  0  0
   -1.2338    4.3307    1.6640 H   0  0  0  0  0  0  0  0  0  0  0  0
   -1.2041    6.6746    2.2254 H   0  0  0  0  0  0  0  0  0  0  0  0
    1.4655    7.3900   -1.0429 H   0  0  0  0  0  0  0  0  0  0  0  0
    1.4015    4.9781   -1.5918 H   0  0  0  0  0  0  0  0  0  0  0  0
   -4.8897    2.4808   -2.6306 H   0  0  0  0  0  0  0  0  0  0  0  0
   -6.9943    3.6023   -2.2698 H   0  0  0  0  0  0  0  0  0  0  0  0
   -6.9738    2.2647    1.7716 H   0  0  0  0  0  0  0  0  0  0  0  0
   -4.8034    1.0937    1.3854 H   0  0  0  0  0  0  0  0  0  0  0  0
   -4.6730   -2.6984    1.1072 H   0  0  0  0  0  0  0  0  0  0  0  0
   -6.3862   -4.2152    2.1120 H   0  0  0  0  0  0  0  0  0  0  0  0
  1  2  1  0
  2  3  2  0
  3  4  1  0
  4  5  2  0
  5  6  1  0
  6  7  3  0
  7  8  1  0
  8  9  2  0
  9 10  1  0
 10 11  1  0
 11 12  3  0
 12 13  1  0
 13 14  2  0
 14 15  1  0
 15 16  2  0
 16 17  1  0
 16 18  1  0
 18 19  2  0
 10 20  2  0
 20 21  1  0
 21 22  3  0
 22 23  1  0
 23 24  2  0
 24 25  1  0
 25 26  2  0
 26 27  1  0
 26 28  1  0
 28 29  2  0
 20 30  1  0
 30 31  1  0
 31 32  3  0
 32 33  1  0
 33 34  2  0
 34 35  1  0
 35 36  2  0
 36 37  1  0
 36 38  1  0
 38 39  2  0
 30 40  2  0
 40 41  1  0
 41 42  3  0
 42 43  1  0
 43 44  2  0
 44 45  1  0
 45 46  2  0
 46 47  1  0
 46 48  1  0
 48 49  2  0
  5 50  1  0
 50 51  2  0
 51  2  1  0
 40  8  1  0
 49 43  1  0
 19 13  1  0
 29 23  1  0
 39 33  1  0
  3 52  1  0
  4 53  1  0
 14 54  1  0
 15 55  1  0
 18 56  1  0
 19 57  1  0
 24 58  1  0
 25 59  1  0
 28 60  1  0
 29 61  1  0
 34 62  1  0
 35 63  1  0
 38 64  1  0
 39 65  1  0
 44 66  1  0
 45 67  1  0
 48 68  1  0
 49 69  1  0
 50 70  1  0
 51 71  1  0
M  END
