
     RDKit          3D

 54 58  0  0  0  0  0  0  0  0999 V2000
   -4.0398   -1.1410   -2.2474 C   0  0  0  0  0  0  0  0  0  0  0  0
   -5.1993   -0.4642   -1.4838 C   0  0  0  0  0  0  0  0  0  0  0  0
   -4.7228    0.9009   -1.0042 C   0  0  0  0  0  0  0  0  0  0  0  0
   -3.5854    0.7416   -0.1029 N   0  0  0  0  0  0  0  0  0  0  0  0
   -3.9443    0.3091    1.2175 C   0  0  0  0  0  0  0  0  0  0  0  0
   -5.2875    0.1557    1.5655 C   0  0  0  0  0  0  0  0  0  0  0  0
   -5.6349   -0.2410    2.8474 C   0  0  0  0  0  0  0  0  0  0  0  0
   -4.6995   -0.4961    3.8162 C   0  0  0  0  0  0  0  0  0  0  0  0
   -3.3942   -0.3401    3.4582 C   0  0  0  0  0  0  0  0  0  0  0  0
   -3.0252    0.0494    2.2021 C   0  0  0  0  0  0  0  0  0  0  0  0
   -1.2966    0.2160    1.8932 S   0  0  0  0  0  0  0  0  0  0  0  0
   -1.1211    0.7812    0.2122 C   0  0  0  0  0  0  0  0  0  0  0  0
    0.1761    1.0044   -0.2397 C   0  0  0  0  0  0  0  0  0  0  0  0
    0.3930    1.4210   -1.5107 C   0  0  0  0  0  0  0  0  0  0  0  0
    1.6789    1.5846   -2.0933 C   0  0  0  0  0  0  0  0  0  0  0  0
    2.7731    0.9269   -1.8786 C   0  0  0  0  0  0  0  0  0  0  0  0
    2.9931   -0.1891   -0.9986 C   0  0  0  0  0  0  0  0  0  0  0  0
    2.0476   -1.1513   -0.7728 C   0  0  0  0  0  0  0  0  0  0  0  0
    2.3220   -2.1366    0.1537 C   0  0  0  0  0  0  0  0  0  0  0  0
    1.4404   -3.0108    0.3489 O   0  0  0  0  0  0  0  0  0  0  0  0
    3.4543   -2.1610    0.8037 O   0  0  0  0  0  0  0  0  0  0  0  0
    4.4207   -1.2671    0.6405 C   0  0  0  0  0  0  0  0  0  0  0  0
    5.5902   -1.3571    1.3623 C   0  0  0  0  0  0  0  0  0  0  0  0
    6.5930   -0.4341    1.1982 C   0  0  0  0  0  0  0  0  0  0  0  0
    7.8691   -0.5286    1.9828 C   0  0  0  0  0  0  0  0  0  0  0  0
    6.3919    0.5822    0.2906 C   0  0  0  0  0  0  0  0  0  0  0  0
    5.2109    0.6544   -0.4240 C   0  0  0  0  0  0  0  0  0  0  0  0
    4.1807   -0.2629   -0.2802 C   0  0  0  0  0  0  0  0  0  0  0  0
   -0.7253    1.6132   -2.3206 C   0  0  0  0  0  0  0  0  0  0  0  0
   -2.0030    1.3878   -1.8541 C   0  0  0  0  0  0  0  0  0  0  0  0
   -2.2505    0.9555   -0.5469 C   0  0  0  0  0  0  0  0  0  0  0  0
   -3.1692   -1.2472   -1.5908 H   0  0  0  0  0  0  0  0  0  0  0  0
   -4.3984   -2.1261   -2.6329 H   0  0  0  0  0  0  0  0  0  0  0  0
   -3.7495   -0.5574   -3.1318 H   0  0  0  0  0  0  0  0  0  0  0  0
   -6.0080   -0.3499   -2.2338 H   0  0  0  0  0  0  0  0  0  0  0  0
   -5.5461   -1.1438   -0.7207 H   0  0  0  0  0  0  0  0  0  0  0  0
   -5.5455    1.5047   -0.5487 H   0  0  0  0  0  0  0  0  0  0  0  0
   -4.4166    1.4155   -1.9261 H   0  0  0  0  0  0  0  0  0  0  0  0
   -6.0675    0.3569    0.8555 H   0  0  0  0  0  0  0  0  0  0  0  0
   -6.6741   -0.3454    3.0666 H   0  0  0  0  0  0  0  0  0  0  0  0
   -5.0294   -0.8029    4.7999 H   0  0  0  0  0  0  0  0  0  0  0  0
   -2.6315   -0.5330    4.1991 H   0  0  0  0  0  0  0  0  0  0  0  0
    1.0127    0.8847    0.4830 H   0  0  0  0  0  0  0  0  0  0  0  0
    1.7489    2.4084   -2.8469 H   0  0  0  0  0  0  0  0  0  0  0  0
    3.6429    1.3025   -2.4917 H   0  0  0  0  0  0  0  0  0  0  0  0
    1.0930   -1.2160   -1.3218 H   0  0  0  0  0  0  0  0  0  0  0  0
    5.7434   -2.1534    2.0712 H   0  0  0  0  0  0  0  0  0  0  0  0
    7.8373    0.0391    2.9117 H   0  0  0  0  0  0  0  0  0  0  0  0
    8.6885   -0.2298    1.2925 H   0  0  0  0  0  0  0  0  0  0  0  0
    8.0005   -1.6007    2.2368 H   0  0  0  0  0  0  0  0  0  0  0  0
    7.1764    1.3166    0.1528 H   0  0  0  0  0  0  0  0  0  0  0  0
    5.0521    1.4633   -1.1394 H   0  0  0  0  0  0  0  0  0  0  0  0
   -0.5675    1.9501   -3.3446 H   0  0  0  0  0  0  0  0  0  0  0  0
   -2.7982    1.5611   -2.5573 H   0  0  0  0  0  0  0  0  0  0  0  0
  1  2  1  0
  2  3  1  0
  3  4  1  0
  4  5  1  0
  5  6  2  0
  6  7  1  0
  7  8  2  0
  8  9  1  0
  9 10  2  0
 10 11  1  0
 11 12  1  0
 12 13  2  0
 13 14  1  0
 14 15  1  0
 15 16  2  0
 16 17  1  0
 17 18  2  0
 18 19  1  0
 19 20  2  0
 19 21  1  0
 21 22  1  0
 22 23  2  0
 23 24  1  0
 24 25  1  0
 24 26  2  0
 26 27  1  0
 27 28  2  0
 14 29  2  0
 29 30  1  0
 30 31  2  0
 31  4  1  0
 10  5  1  0
 31 12  1  0
 28 17  1  0
 28 22  1  0
  1 32  1  0
  1 33  1  0
  1 34  1  0
  2 35  1  0
  2 36  1  0
  3 37  1  0
  3 38  1  0
  6 39  1  0
  7 40  1  0
  8 41  1  0
  9 42  1  0
 13 43  1  0
 15 44  1  0
 16 45  1  0
 18 46  1  0
 23 47  1  0
 25 48  1  0
 25 49  1  0
 25 50  1  0
 26 51  1  0
 27 52  1  0
 29 53  1  0
 30 54  1  0
M  END
