
     RDKit          3D

 58 59  0  0  0  0  0  0  0  0999 V2000
   -7.0509   -1.1278   -2.2975 C   0  0  0  0  0  0  0  0  0  0  0  0
   -6.5671   -0.5372   -1.1016 O   0  0  0  0  0  0  0  0  0  0  0  0
   -5.5492   -1.1017   -0.3508 C   0  0  0  0  0  0  0  0  0  0  0  0
   -5.0531   -2.1769   -0.7662 O   0  0  0  0  0  0  0  0  0  0  0  0
   -5.0796   -0.4347    0.9015 C   0  0  0  0  0  0  0  0  0  0  0  0
   -4.9438    1.0363    0.7794 C   0  0  0  0  0  0  0  0  0  0  0  0
   -4.0397    1.5874   -0.2445 C   0  0  0  0  0  0  0  0  0  0  0  0
   -2.5998    1.2323   -0.1861 C   0  0  0  0  0  0  0  0  0  0  0  0
   -1.9316    1.6228    1.1074 C   0  0  0  0  0  0  0  0  0  0  0  0
   -0.5454    1.2754    1.1584 N   0  0  0  0  0  0  0  0  0  0  0  0
    0.4032    1.7805    0.2348 C   0  0  0  0  0  0  0  0  0  0  0  0
    0.0497    2.5579   -0.6668 O   0  0  0  0  0  0  0  0  0  0  0  0
    1.8354    1.3748    0.3478 C   0  0  0  0  0  0  0  0  0  0  0  0
    2.6215    2.0547   -0.7518 C   0  0  0  0  0  0  0  0  0  0  0  0
    4.0226    1.7251   -0.7465 N   0  0  0  0  0  0  0  0  0  0  0  0
    4.5151    0.4449   -1.1522 C   0  0  0  0  0  0  0  0  0  0  0  0
    3.6568   -0.4625   -1.7481 C   0  0  0  0  0  0  0  0  0  0  0  0
    4.0737   -1.7087   -2.1926 C   0  0  0  0  0  0  0  0  0  0  0  0
    5.3908   -2.0541   -2.0351 C   0  0  0  0  0  0  0  0  0  0  0  0
    6.2870   -1.1932   -1.4513 C   0  0  0  0  0  0  0  0  0  0  0  0
    7.6026   -1.5908   -1.3149 C   0  0  0  0  0  0  0  0  0  0  0  0
    8.5179   -0.7470   -0.7314 C   0  0  0  0  0  0  0  0  0  0  0  0
    8.0685    0.4799   -0.3022 C   0  0  0  0  0  0  0  0  0  0  0  0
    6.7440    0.9012   -0.4304 C   0  0  0  0  0  0  0  0  0  0  0  0
    5.8342    0.0579   -1.0126 C   0  0  0  0  0  0  0  0  0  0  0  0
   -4.0350   -1.1575    1.5314 N   0  0  0  0  0  0  0  0  0  0  0  0
   -4.2102   -1.8190    2.8133 C   0  0  0  0  0  0  0  0  0  0  0  0
   -3.1148   -2.5687    3.4585 C   0  0  0  0  0  0  0  0  0  0  0  0
   -5.3414   -1.7226    3.3480 O   0  0  0  0  0  0  0  0  0  0  0  0
   -7.8908   -1.8129   -2.0801 H   0  0  0  0  0  0  0  0  0  0  0  0
   -6.2294   -1.7604   -2.6965 H   0  0  0  0  0  0  0  0  0  0  0  0
   -7.3350   -0.3845   -3.0568 H   0  0  0  0  0  0  0  0  0  0  0  0
   -6.0027   -0.5761    1.5952 H   0  0  0  0  0  0  0  0  0  0  0  0
   -4.7622    1.4831    1.7923 H   0  0  0  0  0  0  0  0  0  0  0  0
   -5.9834    1.4281    0.5310 H   0  0  0  0  0  0  0  0  0  0  0  0
   -4.1991    2.6941   -0.3391 H   0  0  0  0  0  0  0  0  0  0  0  0
   -4.4058    1.2035   -1.2512 H   0  0  0  0  0  0  0  0  0  0  0  0
   -2.4498    0.1879   -0.4851 H   0  0  0  0  0  0  0  0  0  0  0  0
   -2.1215    1.8130   -1.0528 H   0  0  0  0  0  0  0  0  0  0  0  0
   -2.0028    2.7111    1.3009 H   0  0  0  0  0  0  0  0  0  0  0  0
   -2.4861    1.1327    1.9315 H   0  0  0  0  0  0  0  0  0  0  0  0
   -0.1987    0.6270    1.8959 H   0  0  0  0  0  0  0  0  0  0  0  0
    1.9961    0.2909    0.2739 H   0  0  0  0  0  0  0  0  0  0  0  0
    2.2111    1.7054    1.3499 H   0  0  0  0  0  0  0  0  0  0  0  0
    2.4949    3.1398   -0.6049 H   0  0  0  0  0  0  0  0  0  0  0  0
    2.1414    1.7764   -1.7154 H   0  0  0  0  0  0  0  0  0  0  0  0
    4.6742    2.4744   -0.4324 H   0  0  0  0  0  0  0  0  0  0  0  0
    2.6217   -0.1934   -1.8913 H   0  0  0  0  0  0  0  0  0  0  0  0
    3.4073   -2.4250   -2.6596 H   0  0  0  0  0  0  0  0  0  0  0  0
    5.7780   -3.0297   -2.3691 H   0  0  0  0  0  0  0  0  0  0  0  0
    7.9387   -2.5575   -1.6574 H   0  0  0  0  0  0  0  0  0  0  0  0
    9.5564   -1.0558   -0.6216 H   0  0  0  0  0  0  0  0  0  0  0  0
    8.7662    1.1684    0.1624 H   0  0  0  0  0  0  0  0  0  0  0  0
    6.4473    1.8748   -0.0730 H   0  0  0  0  0  0  0  0  0  0  0  0
   -3.0866   -1.2811    1.1468 H   0  0  0  0  0  0  0  0  0  0  0  0
   -3.2615   -2.6154    4.5462 H   0  0  0  0  0  0  0  0  0  0  0  0
   -3.0657   -3.6279    3.0934 H   0  0  0  0  0  0  0  0  0  0  0  0
   -2.1134   -2.1194    3.2457 H   0  0  0  0  0  0  0  0  0  0  0  0
  1  2  1  0
  2  3  1  0
  3  4  2  0
  3  5  1  0
  5  6  1  0
  6  7  1  0
  7  8  1  0
  8  9  1  0
  9 10  1  0
 10 11  1  0
 11 12  2  0
 11 13  1  0
 13 14  1  0
 14 15  1  0
 15 16  1  0
 16 17  2  0
 17 18  1  0
 18 19  2  0
 19 20  1  0
 20 21  2  0
 21 22  1  0
 22 23  2  0
 23 24  1  0
 24 25  2  0
  5 26  1  0
 26 27  1  0
 27 28  1  0
 27 29  2  0
 25 16  1  0
 25 20  1  0
  1 30  1  0
  1 31  1  0
  1 32  1  0
  5 33  1  0
  6 34  1  0
  6 35  1  0
  7 36  1  0
  7 37  1  0
  8 38  1  0
  8 39  1  0
  9 40  1  0
  9 41  1  0
 10 42  1  0
 13 43  1  0
 13 44  1  0
 14 45  1  0
 14 46  1  0
 15 47  1  0
 17 48  1  0
 18 49  1  0
 19 50  1  0
 21 51  1  0
 22 52  1  0
 23 53  1  0
 24 54  1  0
 26 55  1  0
 28 56  1  0
 28 57  1  0
 28 58  1  0
M  END
