
     RDKit          3D

 42 43  0  0  0  0  0  0  0  0999 V2000
    0.1840    2.3635    1.4965 O   0  0  0  0  0  0  0  0  0  0  0  0
   -0.5006    1.4386    1.0425 C   0  0  0  0  0  0  0  0  0  0  0  0
   -1.9567    1.5828    0.9740 C   0  0  0  0  0  0  0  0  0  0  0  0
   -2.7144    0.6145    0.4950 C   0  0  0  0  0  0  0  0  0  0  0  0
   -4.1595    0.7279    0.4145 C   0  0  0  0  0  0  0  0  0  0  0  0
   -4.8941    1.8128    0.8101 C   0  0  0  0  0  0  0  0  0  0  0  0
   -6.2903    1.8356    0.6953 C   0  0  0  0  0  0  0  0  0  0  0  0
   -6.9796    0.7645    0.1787 C   0  0  0  0  0  0  0  0  0  0  0  0
   -8.3774    0.7765    0.0593 O   0  0  0  0  0  0  0  0  0  0  0  0
   -6.2557   -0.3369   -0.2249 C   0  0  0  0  0  0  0  0  0  0  0  0
   -6.9630   -1.4265   -0.7509 O   0  0  0  0  0  0  0  0  0  0  0  0
   -4.8848   -0.3511   -0.1087 C   0  0  0  0  0  0  0  0  0  0  0  0
    0.1247    0.2937    0.6116 O   0  0  0  0  0  0  0  0  0  0  0  0
    1.5302    0.0893    0.6500 C   0  0  2  0  0  0  0  0  0  0  0  0
    2.0818   -0.0167   -0.7422 C   0  0  0  0  0  0  0  0  0  0  0  0
    3.5365   -0.2315   -0.8128 C   0  0  0  0  0  0  0  0  0  0  0  0
    4.3979    0.8383   -0.8397 C   0  0  0  0  0  0  0  0  0  0  0  0
    5.7731    0.6877   -0.9137 C   0  0  0  0  0  0  0  0  0  0  0  0
    6.2893   -0.5737   -0.9616 C   0  0  0  0  0  0  0  0  0  0  0  0
    7.6801   -0.7358   -1.0365 O   0  0  0  0  0  0  0  0  0  0  0  0
    5.4452   -1.6636   -0.9359 C   0  0  0  0  0  0  0  0  0  0  0  0
    6.0282   -2.9157   -0.9872 O   0  0  0  0  0  0  0  0  0  0  0  0
    4.0656   -1.4979   -0.8615 C   0  0  0  0  0  0  0  0  0  0  0  0
    1.7978   -1.0886    1.4943 C   0  0  0  0  0  0  0  0  0  0  0  0
    0.8364   -1.7132    1.9983 O   0  0  0  0  0  0  0  0  0  0  0  0
    3.1094   -1.4752    1.7099 O   0  0  0  0  0  0  0  0  0  0  0  0
   -2.4246    2.4874    1.3167 H   0  0  0  0  0  0  0  0  0  0  0  0
   -2.2155   -0.2947    0.1531 H   0  0  0  0  0  0  0  0  0  0  0  0
   -4.3747    2.6817    1.2256 H   0  0  0  0  0  0  0  0  0  0  0  0
   -6.7964    2.7174    1.0250 H   0  0  0  0  0  0  0  0  0  0  0  0
   -8.8284   -0.0409   -0.3283 H   0  0  0  0  0  0  0  0  0  0  0  0
   -6.4239   -2.2321   -1.0452 H   0  0  0  0  0  0  0  0  0  0  0  0
   -4.3264   -1.2187   -0.4277 H   0  0  0  0  0  0  0  0  0  0  0  0
    1.9483    1.0269    1.0857 H   0  0  0  0  0  0  0  0  0  0  0  0
    1.8698    0.9525   -1.2464 H   0  0  0  0  0  0  0  0  0  0  0  0
    1.5975   -0.8697   -1.2607 H   0  0  0  0  0  0  0  0  0  0  0  0
    4.0374    1.8591   -0.8039 H   0  0  0  0  0  0  0  0  0  0  0  0
    6.4587    1.5239   -0.9353 H   0  0  0  0  0  0  0  0  0  0  0  0
    8.3149    0.0248   -1.0568 H   0  0  0  0  0  0  0  0  0  0  0  0
    5.5021   -3.7602   -0.9740 H   0  0  0  0  0  0  0  0  0  0  0  0
    3.4721   -2.3951   -0.8472 H   0  0  0  0  0  0  0  0  0  0  0  0
    3.2849   -2.2617    2.3226 H   0  0  0  0  0  0  0  0  0  0  0  0
  1  2  2  0
  2  3  1  0
  3  4  2  0
  4  5  1  0
  5  6  2  0
  6  7  1  0
  7  8  2  0
  8  9  1  0
  8 10  1  0
 10 11  1  0
 10 12  2  0
  2 13  1  0
 13 14  1  0
 14 15  1  0
 15 16  1  0
 16 17  2  0
 17 18  1  0
 18 19  2  0
 19 20  1  0
 19 21  1  0
 21 22  1  0
 21 23  2  0
 14 24  1  0
 24 25  2  0
 24 26  1  0
 12  5  1  0
 23 16  1  0
  3 27  1  0
  4 28  1  0
  6 29  1  0
  7 30  1  0
  9 31  1  0
 11 32  1  0
 12 33  1  0
 14 34  1  1
 15 35  1  0
 15 36  1  0
 17 37  1  0
 18 38  1  0
 20 39  1  0
 22 40  1  0
 23 41  1  0
 26 42  1  0
M  END
