
     RDKit          3D

 55 58  0  0  0  0  0  0  0  0999 V2000
   -6.1680    1.9893   -0.8373 C   0  0  0  0  0  0  0  0  0  0  0  0
   -5.4307    1.7174    0.4489 C   0  0  0  0  0  0  0  0  0  0  0  0
   -4.2603    0.8329    0.2570 C   0  0  0  0  0  0  0  0  0  0  0  0
   -4.2648   -0.5394    0.0652 C   0  0  0  0  0  0  0  0  0  0  0  0
   -5.5074   -1.3769    0.0232 C   0  0  0  0  0  0  0  0  0  0  0  0
   -2.9436   -0.9557   -0.0719 C   0  0  0  0  0  0  0  0  0  0  0  0
   -2.1495    0.0859    0.0268 N   0  0  0  0  0  0  0  0  0  0  0  0
   -2.9234    1.1829    0.2264 C   0  0  0  0  0  0  0  0  0  0  0  0
   -2.3994    2.5877    0.3911 C   0  0  0  0  0  0  0  0  0  0  0  0
   -0.5967    0.0399   -0.0690 B   0  0  0  0  0  4  0  0  0  0  0  0
   -0.2311    0.6206    1.2031 F   0  0  0  0  0  0  0  0  0  0  0  0
   -0.3776    0.9392   -1.2143 F   0  0  0  0  0  0  0  0  0  0  0  0
   -0.1408   -1.3676   -0.3034 N   0  0  0  0  0  4  0  0  0  0  0  0
    1.0296   -1.8858   -0.4527 C   0  0  0  0  0  0  0  0  0  0  0  0
    2.2765   -1.1908   -0.4302 N   0  0  0  0  0  0  0  0  0  0  0  0
    2.4253    0.0009    0.3066 C   0  0  0  0  0  0  0  0  0  0  0  0
    3.8594    0.5006    0.3185 C   0  0  0  0  0  0  0  0  0  0  0  0
    4.8424    0.1096   -0.4976 C   0  0  0  0  0  0  0  0  0  0  0  0
    6.1171    0.6283   -0.3999 C   0  0  0  0  0  0  0  0  0  0  0  0
    6.4418    1.5859    0.5556 C   0  0  0  0  0  0  0  0  0  0  0  0
    7.7135    2.1274    0.6802 O   0  0  0  0  0  0  0  0  0  0  0  0
    8.7337    1.6970   -0.1940 C   0  0  0  0  0  0  0  0  0  0  0  0
    5.4393    1.9981    1.4031 C   0  0  0  0  0  0  0  0  0  0  0  0
    4.1708    1.4651    1.2869 C   0  0  0  0  0  0  0  0  0  0  0  0
    0.9069   -3.3603   -0.6568 C   0  0  0  0  0  0  0  0  0  0  0  0
   -0.3589   -3.7109   -0.6268 C   0  0  0  0  0  0  0  0  0  0  0  0
   -1.0919   -2.4578   -0.4007 C   0  0  0  0  0  0  0  0  0  0  0  0
   -2.3775   -2.2706   -0.2945 C   0  0  0  0  0  0  0  0  0  0  0  0
   -3.3141   -3.4447   -0.4060 C   0  0  0  0  0  0  0  0  0  0  0  0
   -7.2674    1.8341   -0.6667 H   0  0  0  0  0  0  0  0  0  0  0  0
   -5.7951    1.3726   -1.6794 H   0  0  0  0  0  0  0  0  0  0  0  0
   -6.0621    3.0494   -1.1626 H   0  0  0  0  0  0  0  0  0  0  0  0
   -5.1154    2.6682    0.8892 H   0  0  0  0  0  0  0  0  0  0  0  0
   -6.0958    1.2174    1.1960 H   0  0  0  0  0  0  0  0  0  0  0  0
   -5.4408   -2.2743    0.6528 H   0  0  0  0  0  0  0  0  0  0  0  0
   -5.8376   -1.5454   -1.0113 H   0  0  0  0  0  0  0  0  0  0  0  0
   -6.3463   -0.7787    0.4902 H   0  0  0  0  0  0  0  0  0  0  0  0
   -3.2179    3.2878    0.5414 H   0  0  0  0  0  0  0  0  0  0  0  0
   -1.8556    2.9052   -0.5228 H   0  0  0  0  0  0  0  0  0  0  0  0
   -1.7060    2.6579    1.2342 H   0  0  0  0  0  0  0  0  0  0  0  0
    3.0270   -1.6667   -1.0061 H   0  0  0  0  0  0  0  0  0  0  0  0
    2.2579   -0.1634    1.3914 H   0  0  0  0  0  0  0  0  0  0  0  0
    1.9425    0.9047   -0.1143 H   0  0  0  0  0  0  0  0  0  0  0  0
    4.6607   -0.6195   -1.2563 H   0  0  0  0  0  0  0  0  0  0  0  0
    6.9074    0.3071   -1.0639 H   0  0  0  0  0  0  0  0  0  0  0  0
    9.7322    2.0405    0.1456 H   0  0  0  0  0  0  0  0  0  0  0  0
    8.7560    0.5980   -0.2555 H   0  0  0  0  0  0  0  0  0  0  0  0
    8.5520    2.1900   -1.1802 H   0  0  0  0  0  0  0  0  0  0  0  0
    5.6778    2.7421    2.1514 H   0  0  0  0  0  0  0  0  0  0  0  0
    3.4003    1.8151    1.9767 H   0  0  0  0  0  0  0  0  0  0  0  0
    1.7308   -4.0429   -0.8084 H   0  0  0  0  0  0  0  0  0  0  0  0
   -0.7894   -4.6899   -0.7396 H   0  0  0  0  0  0  0  0  0  0  0  0
   -3.6229   -3.8245    0.5706 H   0  0  0  0  0  0  0  0  0  0  0  0
   -4.1396   -3.2246   -1.1133 H   0  0  0  0  0  0  0  0  0  0  0  0
   -2.7734   -4.3084   -0.8946 H   0  0  0  0  0  0  0  0  0  0  0  0
  1  2  1  0
  2  3  1  0
  3  4  1  0
  4  5  1  0
  4  6  2  0
  6  7  1  0
  7  8  1  0
  8  9  1  0
  7 10  1  0
 10 11  1  0
 10 12  1  0
 10 13  1  0
 13 14  2  0
 14 15  1  0
 15 16  1  0
 16 17  1  0
 17 18  2  0
 18 19  1  0
 19 20  2  0
 20 21  1  0
 21 22  1  0
 20 23  1  0
 23 24  2  0
 14 25  1  0
 25 26  2  0
 26 27  1  0
 27 28  2  0
 28 29  1  0
  8  3  2  0
 27 13  1  0
 28  6  1  0
 24 17  1  0
  1 30  1  0
  1 31  1  0
  1 32  1  0
  2 33  1  0
  2 34  1  0
  5 35  1  0
  5 36  1  0
  5 37  1  0
  9 38  1  0
  9 39  1  0
  9 40  1  0
 15 41  1  0
 16 42  1  0
 16 43  1  0
 18 44  1  0
 19 45  1  0
 22 46  1  0
 22 47  1  0
 22 48  1  0
 23 49  1  0
 24 50  1  0
 25 51  1  0
 26 52  1  0
 29 53  1  0
 29 54  1  0
 29 55  1  0
M  CHG  2  10  -1  13   1
M  END
