
     RDKit          3D

 85 87  0  0  0  0  0  0  0  0999 V2000
    9.8326    2.0009   -3.1978 C   0  0  0  0  0  0  0  0  0  0  0  0
    9.2416    0.8451   -3.9265 C   0  0  0  0  0  0  0  0  0  0  0  0
    7.8122    0.5522   -3.5519 C   0  0  0  0  0  0  0  0  0  0  0  0
    7.6524    0.2288   -2.0862 C   0  0  0  0  0  0  0  0  0  0  0  0
    8.4463   -0.9685   -1.6713 C   0  0  0  0  0  0  0  0  0  0  0  0
    8.2855   -1.2930   -0.2030 C   0  0  0  0  0  0  0  0  0  0  0  0
    8.7212   -0.1934    0.7127 C   0  0  0  0  0  0  0  0  0  0  0  0
    8.5344   -0.6122    2.1326 C   0  0  0  0  0  0  0  0  0  0  0  0
    7.1256   -0.9484    2.5144 C   0  0  0  0  0  0  0  0  0  0  0  0
    6.2266    0.2289    2.3119 C   0  0  0  0  0  0  0  0  0  0  0  0
    4.7867   -0.0311    2.6888 C   0  0  0  0  0  0  0  0  0  0  0  0
    4.2061   -1.1486    1.8681 C   0  0  0  0  0  0  0  0  0  0  0  0
    2.9065   -1.4610    2.1350 O   0  0  0  0  0  0  0  0  0  0  0  0
    1.7228   -0.8175    2.0505 C   0  0  0  0  0  0  0  0  0  0  0  0
    0.5516   -1.4945    2.4534 C   0  0  0  0  0  0  0  0  0  0  0  0
   -0.6823   -0.9024    2.3928 C   0  0  0  0  0  0  0  0  0  0  0  0
   -0.8230    0.3961    1.9281 C   0  0  0  0  0  0  0  0  0  0  0  0
   -2.1810    0.9584    1.8932 C   0  0  0  0  0  0  0  0  0  0  0  0
   -3.2019    0.3019    2.2706 N   0  0  0  0  0  0  0  0  0  0  0  0
   -4.5427    0.7587    2.2726 C   0  0  0  0  0  0  0  0  0  0  0  0
   -4.9624    1.6860    3.1981 C   0  0  0  0  0  0  0  0  0  0  0  0
   -6.2703    2.1559    3.2334 C   0  0  0  0  0  0  0  0  0  0  0  0
   -7.1987    1.6978    2.3268 C   0  0  0  0  0  0  0  0  0  0  0  0
   -8.4917    1.9325    2.0930 N   0  0  0  0  0  0  0  0  0  0  0  0
   -8.9355    1.1783    1.0305 C   0  0  0  0  0  0  0  0  0  0  0  0
  -10.1668    1.1561    0.5188 O   0  0  0  0  0  0  0  0  0  0  0  0
  -10.8370    0.5575   -0.4669 C   0  0  0  0  0  0  0  0  0  0  0  0
  -10.5134    0.7661   -1.8944 C   0  0  0  0  0  0  0  0  0  0  0  0
   -9.1561    0.3649   -2.3120 C   0  0  0  0  0  0  0  0  0  0  0  0
   -8.8278   -1.0867   -2.0791 C   0  0  0  0  0  0  0  0  0  0  0  0
   -9.7791   -1.9944   -2.8556 C   0  0  0  0  0  0  0  0  0  0  0  0
   -9.7011   -1.7427   -4.3381 C   0  0  0  0  0  0  0  0  0  0  0  0
   -7.8451    0.4969    0.6588 N   0  0  0  0  0  0  0  0  0  0  0  0
   -6.7868    0.7785    1.4076 C   0  0  0  0  0  0  0  0  0  0  0  0
   -5.4858    0.3102    1.3713 C   0  0  0  0  0  0  0  0  0  0  0  0
    0.2899    1.0813    1.5293 C   0  0  0  0  0  0  0  0  0  0  0  0
    0.2124    2.3861    1.0542 O   0  0  0  0  0  0  0  0  0  0  0  0
    1.5256    0.4544    1.6025 C   0  0  0  0  0  0  0  0  0  0  0  0
   10.6870    2.4243   -3.7997 H   0  0  0  0  0  0  0  0  0  0  0  0
    9.1525    2.8306   -3.0132 H   0  0  0  0  0  0  0  0  0  0  0  0
   10.3310    1.6533   -2.2464 H   0  0  0  0  0  0  0  0  0  0  0  0
    9.2465    1.0718   -5.0168 H   0  0  0  0  0  0  0  0  0  0  0  0
    9.8872   -0.0490   -3.8080 H   0  0  0  0  0  0  0  0  0  0  0  0
    7.4969   -0.3351   -4.1375 H   0  0  0  0  0  0  0  0  0  0  0  0
    7.1572    1.3856   -3.7976 H   0  0  0  0  0  0  0  0  0  0  0  0
    6.5659   -0.0264   -1.9478 H   0  0  0  0  0  0  0  0  0  0  0  0
    7.8337    1.1125   -1.4436 H   0  0  0  0  0  0  0  0  0  0  0  0
    9.5318   -0.6993   -1.8153 H   0  0  0  0  0  0  0  0  0  0  0  0
    8.2216   -1.8730   -2.2335 H   0  0  0  0  0  0  0  0  0  0  0  0
    8.7819   -2.2361    0.0730 H   0  0  0  0  0  0  0  0  0  0  0  0
    7.1940   -1.4566   -0.0005 H   0  0  0  0  0  0  0  0  0  0  0  0
    9.8222   -0.0590    0.5589 H   0  0  0  0  0  0  0  0  0  0  0  0
    8.2241    0.7673    0.5123 H   0  0  0  0  0  0  0  0  0  0  0  0
    9.2058   -1.4599    2.3707 H   0  0  0  0  0  0  0  0  0  0  0  0
    8.8538    0.2348    2.8039 H   0  0  0  0  0  0  0  0  0  0  0  0
    7.1418   -1.1504    3.6213 H   0  0  0  0  0  0  0  0  0  0  0  0
    6.8165   -1.8566    1.9604 H   0  0  0  0  0  0  0  0  0  0  0  0
    6.6236    1.1017    2.8342 H   0  0  0  0  0  0  0  0  0  0  0  0
    6.2174    0.4737    1.2175 H   0  0  0  0  0  0  0  0  0  0  0  0
    4.7023   -0.3382    3.7620 H   0  0  0  0  0  0  0  0  0  0  0  0
    4.2493    0.9127    2.6048 H   0  0  0  0  0  0  0  0  0  0  0  0
    4.3299   -0.9043    0.7677 H   0  0  0  0  0  0  0  0  0  0  0  0
    4.8154   -2.0891    2.0132 H   0  0  0  0  0  0  0  0  0  0  0  0
    0.6911   -2.5130    2.8142 H   0  0  0  0  0  0  0  0  0  0  0  0
   -1.5577   -1.4822    2.7212 H   0  0  0  0  0  0  0  0  0  0  0  0
   -2.3344    1.9578    1.5392 H   0  0  0  0  0  0  0  0  0  0  0  0
   -4.2182    2.0406    3.9104 H   0  0  0  0  0  0  0  0  0  0  0  0
   -6.5716    2.8848    3.9713 H   0  0  0  0  0  0  0  0  0  0  0  0
   -9.1138    2.5816    2.6114 H   0  0  0  0  0  0  0  0  0  0  0  0
  -10.7977   -0.5905   -0.2934 H   0  0  0  0  0  0  0  0  0  0  0  0
  -11.9687    0.7182   -0.3197 H   0  0  0  0  0  0  0  0  0  0  0  0
  -10.6155    1.8648   -2.1095 H   0  0  0  0  0  0  0  0  0  0  0  0
  -11.3248    0.2921   -2.5064 H   0  0  0  0  0  0  0  0  0  0  0  0
   -9.0099    0.5543   -3.4328 H   0  0  0  0  0  0  0  0  0  0  0  0
   -8.3932    1.0007   -1.8562 H   0  0  0  0  0  0  0  0  0  0  0  0
   -8.8876   -1.3998   -1.0379 H   0  0  0  0  0  0  0  0  0  0  0  0
   -7.8134   -1.2727   -2.4882 H   0  0  0  0  0  0  0  0  0  0  0  0
   -9.3871   -3.0386   -2.6796 H   0  0  0  0  0  0  0  0  0  0  0  0
  -10.8089   -1.9518   -2.4529 H   0  0  0  0  0  0  0  0  0  0  0  0
  -10.5923   -1.1053   -4.5939 H   0  0  0  0  0  0  0  0  0  0  0  0
   -9.8279   -2.6803   -4.9387 H   0  0  0  0  0  0  0  0  0  0  0  0
   -8.7686   -1.2799   -4.6562 H   0  0  0  0  0  0  0  0  0  0  0  0
   -5.2032   -0.4070    0.6393 H   0  0  0  0  0  0  0  0  0  0  0  0
   -0.6685    2.8486    0.9963 H   0  0  0  0  0  0  0  0  0  0  0  0
    2.3909    1.0430    1.2561 H   0  0  0  0  0  0  0  0  0  0  0  0
  1  2  1  0
  2  3  1  0
  3  4  1  0
  4  5  1  0
  5  6  1  0
  6  7  1  0
  7  8  1  0
  8  9  1  0
  9 10  1  0
 10 11  1  0
 11 12  1  0
 12 13  1  0
 13 14  1  0
 14 15  2  0
 15 16  1  0
 16 17  2  0
 17 18  1  0
 18 19  2  0
 19 20  1  0
 20 21  2  0
 21 22  1  0
 22 23  2  0
 23 24  1  0
 24 25  1  0
 25 26  1  0
 26 27  1  0
 27 28  1  0
 28 29  1  0
 29 30  1  0
 30 31  1  0
 31 32  1  0
 25 33  2  0
 33 34  1  0
 34 35  2  0
 17 36  1  0
 36 37  1  0
 36 38  2  0
 38 14  1  0
 35 20  1  0
 34 23  1  0
  1 39  1  0
  1 40  1  0
  1 41  1  0
  2 42  1  0
  2 43  1  0
  3 44  1  0
  3 45  1  0
  4 46  1  0
  4 47  1  0
  5 48  1  0
  5 49  1  0
  6 50  1  0
  6 51  1  0
  7 52  1  0
  7 53  1  0
  8 54  1  0
  8 55  1  0
  9 56  1  0
  9 57  1  0
 10 58  1  0
 10 59  1  0
 11 60  1  0
 11 61  1  0
 12 62  1  0
 12 63  1  0
 15 64  1  0
 16 65  1  0
 18 66  1  0
 21 67  1  0
 22 68  1  0
 24 69  1  0
 27 70  1  0
 27 71  1  0
 28 72  1  0
 28 73  1  0
 29 74  1  0
 29 75  1  0
 30 76  1  0
 30 77  1  0
 31 78  1  0
 31 79  1  0
 32 80  1  0
 32 81  1  0
 32 82  1  0
 35 83  1  0
 37 84  1  0
 38 85  1  0
M  END
