
     RDKit          3D

 47 53  0  0  0  0  0  0  0  0999 V2000
   -3.8505   -3.0244   -0.9135 C   0  0  0  0  0  0  0  0  0  0  0  0
   -2.4631   -2.4807   -0.7619 C   0  0  0  0  0  0  0  0  0  0  0  0
   -2.0996   -1.4313   -0.0844 N   0  0  0  0  0  4  0  0  0  0  0  0
   -0.7156   -1.2553   -0.1883 C   0  0  0  0  0  0  0  0  0  0  0  0
   -0.1420   -0.0946    0.2141 C   0  0  0  0  0  0  0  0  0  0  0  0
    1.1814    0.0897    0.1402 C   0  0  0  0  0  0  0  0  0  0  0  0
    2.0498   -0.9722    0.1536 C   0  0  0  0  0  0  0  0  0  0  0  0
    1.6499   -2.2402    0.5076 C   0  0  0  0  0  0  0  0  0  0  0  0
    2.5616   -3.2264    0.7678 C   0  0  0  0  0  0  0  0  0  0  0  0
    3.9147   -3.0233    0.7049 C   0  0  0  0  0  0  0  0  0  0  0  0
    4.3105   -1.7517    0.3668 C   0  0  0  0  0  0  0  0  0  0  0  0
    3.4197   -0.7350    0.0992 C   0  0  0  0  0  0  0  0  0  0  0  0
    3.9310    0.5768    0.0656 C   0  0  0  0  0  0  0  0  0  0  0  0
    3.0671    1.6298    0.0890 C   0  0  0  0  0  0  0  0  0  0  0  0
    3.5212    2.9510    0.1018 C   0  0  0  0  0  0  0  0  0  0  0  0
    2.6339    4.0014    0.1548 C   0  0  0  0  0  0  0  0  0  0  0  0
    1.2542    3.7771    0.1985 C   0  0  0  0  0  0  0  0  0  0  0  0
    0.8229    2.4678    0.1845 C   0  0  0  0  0  0  0  0  0  0  0  0
   -0.5263    2.2696    0.2967 C   0  0  0  0  0  0  0  0  0  0  0  0
   -1.6337    3.0927    0.1403 C   0  0  0  0  0  0  0  0  0  0  0  0
   -2.7564    2.2541    0.1225 C   0  0  0  0  0  0  0  0  0  0  0  0
   -4.1625    2.6970   -0.0322 C   0  0  0  0  0  0  0  0  0  0  0  0
   -2.3406    1.0043    0.2678 N   0  0  0  0  0  0  0  0  0  0  0  0
   -1.0453    0.9636    0.3730 C   0  0  0  0  0  0  0  0  0  0  0  0
   -3.0406   -0.3846    0.5378 B   0  0  0  0  0  4  0  0  0  0  0  0
   -3.2934   -0.5866    1.9290 F   0  0  0  0  0  0  0  0  0  0  0  0
   -4.2872   -0.3383   -0.1829 F   0  0  0  0  0  0  0  0  0  0  0  0
    1.7212    1.4141    0.1269 C   0  0  0  0  0  0  0  0  0  0  0  0
   -0.2382   -2.3459   -1.0636 C   0  0  0  0  0  0  0  0  0  0  0  0
   -1.2961   -3.0594   -1.3842 C   0  0  0  0  0  0  0  0  0  0  0  0
   -4.5517   -2.6179   -0.1851 H   0  0  0  0  0  0  0  0  0  0  0  0
   -4.2132   -2.9745   -1.9477 H   0  0  0  0  0  0  0  0  0  0  0  0
   -3.7572   -4.1248   -0.6780 H   0  0  0  0  0  0  0  0  0  0  0  0
    0.6258   -2.5169    0.8080 H   0  0  0  0  0  0  0  0  0  0  0  0
    2.2168   -4.2252    1.0378 H   0  0  0  0  0  0  0  0  0  0  0  0
    4.6292   -3.8194    0.9083 H   0  0  0  0  0  0  0  0  0  0  0  0
    5.3747   -1.5267    0.3039 H   0  0  0  0  0  0  0  0  0  0  0  0
    4.9828    0.7063    0.0221 H   0  0  0  0  0  0  0  0  0  0  0  0
    4.6068    3.1292    0.0684 H   0  0  0  0  0  0  0  0  0  0  0  0
    3.0192    5.0237    0.1626 H   0  0  0  0  0  0  0  0  0  0  0  0
    0.5494    4.5967    0.2416 H   0  0  0  0  0  0  0  0  0  0  0  0
   -1.5617    4.1589    0.0563 H   0  0  0  0  0  0  0  0  0  0  0  0
   -4.3320    3.6351    0.5563 H   0  0  0  0  0  0  0  0  0  0  0  0
   -4.8263    1.9123    0.3388 H   0  0  0  0  0  0  0  0  0  0  0  0
   -4.3852    2.9030   -1.1008 H   0  0  0  0  0  0  0  0  0  0  0  0
    0.7465   -2.5410   -1.4944 H   0  0  0  0  0  0  0  0  0  0  0  0
   -1.2718   -3.9581   -2.0293 H   0  0  0  0  0  0  0  0  0  0  0  0
  1  2  1  0
  2  3  2  0
  3  4  1  0
  4  5  2  0
  5  6  1  0
  6  7  2  0
  7  8  1  0
  8  9  2  0
  9 10  1  0
 10 11  2  0
 11 12  1  0
 12 13  2  0
 13 14  1  0
 14 15  2  0
 15 16  1  0
 16 17  2  0
 17 18  1  0
 18 19  1  0
 19 20  1  0
 20 21  2  0
 21 22  1  0
 21 23  1  0
 23 24  1  0
 23 25  1  0
 25 26  1  0
 25 27  1  0
 18 28  2  0
  4 29  1  0
 29 30  2  0
 30  2  1  0
 25  3  1  0
 24  5  1  0
 28  6  1  0
 12  7  1  0
 28 14  1  0
 24 19  2  0
  1 31  1  0
  1 32  1  0
  1 33  1  0
  8 34  1  0
  9 35  1  0
 10 36  1  0
 11 37  1  0
 13 38  1  0
 15 39  1  0
 16 40  1  0
 17 41  1  0
 20 42  1  0
 22 43  1  0
 22 44  1  0
 22 45  1  0
 29 46  1  0
 30 47  1  0
M  CHG  2   3   1  25  -1
M  END
