
     RDKit          3D

 58 64  0  0  0  0  0  0  0  0999 V2000
  -11.5697    1.3658   -0.0162 C   0  0  0  0  0  0  0  0  0  0  0  0
  -11.6170    0.1807   -0.7361 C   0  0  0  0  0  0  0  0  0  0  0  0
  -10.4575   -0.4898   -1.0655 C   0  0  0  0  0  0  0  0  0  0  0  0
   -9.2281    0.0068   -0.6846 C   0  0  0  0  0  0  0  0  0  0  0  0
   -7.9457   -0.4153   -0.8561 N   0  0  0  0  0  0  0  0  0  0  0  0
   -7.1027    0.4515   -0.2768 C   0  0  0  0  0  0  0  0  0  0  0  0
   -5.6367    0.3278   -0.2570 C   0  0  0  0  0  0  0  0  0  0  0  0
   -5.0043   -0.7365   -0.8612 C   0  0  0  0  0  0  0  0  0  0  0  0
   -3.6136   -0.8290   -0.8287 C   0  0  0  0  0  0  0  0  0  0  0  0
   -2.8391    0.1231   -0.2027 C   0  0  0  0  0  0  0  0  0  0  0  0
   -1.3722    0.0145   -0.1771 C   0  0  0  0  0  0  0  0  0  0  0  0
   -0.6657   -0.5644   -1.2052 C   0  0  0  0  0  0  0  0  0  0  0  0
    0.7064   -0.6375   -1.1303 C   0  0  0  0  0  0  0  0  0  0  0  0
    1.4346   -0.1529   -0.0588 C   0  0  0  0  0  0  0  0  0  0  0  0
    2.8834   -0.2227    0.0292 C   0  0  0  0  0  0  0  0  0  0  0  0
    3.5526    0.7695    0.7092 C   0  0  0  0  0  0  0  0  0  0  0  0
    4.9200    0.7903    0.8455 C   0  0  0  0  0  0  0  0  0  0  0  0
    5.6698   -0.2157    0.2846 C   0  0  0  0  0  0  0  0  0  0  0  0
    7.1260   -0.2094    0.4192 C   0  0  0  0  0  0  0  0  0  0  0  0
    7.8600    0.7341    1.0732 N   0  0  0  0  0  0  0  0  0  0  0  0
    9.1401    0.3482    0.9471 C   0  0  0  0  0  0  0  0  0  0  0  0
   10.3327    0.9112    1.4050 C   0  0  0  0  0  0  0  0  0  0  0  0
   11.5361    0.2716    1.1138 C   0  0  0  0  0  0  0  0  0  0  0  0
   11.5481   -0.9084    0.3790 C   0  0  0  0  0  0  0  0  0  0  0  0
   10.3695   -1.4596   -0.0702 C   0  0  0  0  0  0  0  0  0  0  0  0
    9.1873   -0.8181    0.2240 C   0  0  0  0  0  0  0  0  0  0  0  0
    7.9257   -1.1522   -0.0972 N   0  0  0  0  0  0  0  0  0  0  0  0
    5.0352   -1.2226   -0.4014 C   0  0  0  0  0  0  0  0  0  0  0  0
    3.6431   -1.2252   -0.5284 C   0  0  0  0  0  0  0  0  0  0  0  0
    0.6723    0.4265    0.9617 C   0  0  0  0  0  0  0  0  0  0  0  0
   -0.6975    0.5144    0.9162 C   0  0  0  0  0  0  0  0  0  0  0  0
   -3.4733    1.1890    0.4025 C   0  0  0  0  0  0  0  0  0  0  0  0
   -4.8471    1.2714    0.3648 C   0  0  0  0  0  0  0  0  0  0  0  0
   -7.8458    1.4295    0.2661 N   0  0  0  0  0  0  0  0  0  0  0  0
   -9.1597    1.1876    0.0340 C   0  0  0  0  0  0  0  0  0  0  0  0
  -10.3359    1.8366    0.3494 C   0  0  0  0  0  0  0  0  0  0  0  0
  -12.4733    1.8945    0.2442 H   0  0  0  0  0  0  0  0  0  0  0  0
  -12.5903   -0.1767   -1.0160 H   0  0  0  0  0  0  0  0  0  0  0  0
  -10.4868   -1.4098   -1.6237 H   0  0  0  0  0  0  0  0  0  0  0  0
   -7.6886   -1.2812   -1.3630 H   0  0  0  0  0  0  0  0  0  0  0  0
   -5.6194   -1.4832   -1.3524 H   0  0  0  0  0  0  0  0  0  0  0  0
   -3.1391   -1.6693   -1.3074 H   0  0  0  0  0  0  0  0  0  0  0  0
   -1.2334   -0.9445   -2.0448 H   0  0  0  0  0  0  0  0  0  0  0  0
    1.2455   -1.1024   -1.9605 H   0  0  0  0  0  0  0  0  0  0  0  0
    2.9785    1.5645    1.1540 H   0  0  0  0  0  0  0  0  0  0  0  0
    5.3718    1.6134    1.4004 H   0  0  0  0  0  0  0  0  0  0  0  0
   10.3234    1.8275    1.9756 H   0  0  0  0  0  0  0  0  0  0  0  0
   12.4738    0.6769    1.4504 H   0  0  0  0  0  0  0  0  0  0  0  0
   12.5076   -1.3675    0.1787 H   0  0  0  0  0  0  0  0  0  0  0  0
   10.3426   -2.3659   -0.6379 H   0  0  0  0  0  0  0  0  0  0  0  0
    7.6277   -2.0048   -0.6557 H   0  0  0  0  0  0  0  0  0  0  0  0
    5.6023   -2.0311   -0.8553 H   0  0  0  0  0  0  0  0  0  0  0  0
    3.1446   -2.0193   -1.0692 H   0  0  0  0  0  0  0  0  0  0  0  0
    1.1882    0.8142    1.8084 H   0  0  0  0  0  0  0  0  0  0  0  0
   -1.2059    0.9798    1.7523 H   0  0  0  0  0  0  0  0  0  0  0  0
   -2.8765    1.9454    0.8986 H   0  0  0  0  0  0  0  0  0  0  0  0
   -5.3741    2.1131    0.8410 H   0  0  0  0  0  0  0  0  0  0  0  0
  -10.2498    2.7564    0.9113 H   0  0  0  0  0  0  0  0  0  0  0  0
  1  2  2  0
  2  3  1  0
  3  4  2  0
  4  5  1  0
  5  6  1  0
  6  7  1  0
  7  8  2  0
  8  9  1  0
  9 10  2  0
 10 11  1  0
 11 12  2  0
 12 13  1  0
 13 14  2  0
 14 15  1  0
 15 16  2  0
 16 17  1  0
 17 18  2  0
 18 19  1  0
 19 20  2  0
 20 21  1  0
 21 22  2  0
 22 23  1  0
 23 24  2  0
 24 25  1  0
 25 26  2  0
 26 27  1  0
 18 28  1  0
 28 29  2  0
 14 30  1  0
 30 31  2  0
 10 32  1  0
 32 33  2  0
  6 34  2  0
 34 35  1  0
 35 36  2  0
 36  1  1  0
 35  4  1  0
 33  7  1  0
 31 11  1  0
 29 15  1  0
 27 19  1  0
 26 21  1  0
  1 37  1  0
  2 38  1  0
  3 39  1  0
  5 40  1  0
  8 41  1  0
  9 42  1  0
 12 43  1  0
 13 44  1  0
 16 45  1  0
 17 46  1  0
 22 47  1  0
 23 48  1  0
 24 49  1  0
 25 50  1  0
 27 51  1  0
 28 52  1  0
 29 53  1  0
 30 54  1  0
 31 55  1  0
 32 56  1  0
 33 57  1  0
 36 58  1  0
M  END
