
     RDKit          3D

 52 55  0  0  0  0  0  0  0  0999 V2000
    4.8310    5.2322   -0.2570 C   0  0  0  0  0  0  0  0  0  0  0  0
    4.2796    3.9422   -0.2513 O   0  0  0  0  0  0  0  0  0  0  0  0
    5.0580    2.7916   -0.2702 C   0  0  0  0  0  0  0  0  0  0  0  0
    6.2990    2.9512   -0.2931 O   0  0  0  0  0  0  0  0  0  0  0  0
    4.4970    1.4654   -0.2645 C   0  0  0  0  0  0  0  0  0  0  0  0
    3.1121    1.3372   -0.2388 C   0  0  0  0  0  0  0  0  0  0  0  0
    2.5341    0.0915   -0.2324 C   0  0  0  0  0  0  0  0  0  0  0  0
    1.1273   -0.1165   -0.2066 N   0  0  0  0  0  0  0  0  0  0  0  0
    0.3208    0.6970    0.3342 N   0  0  0  0  0  0  0  0  0  0  0  0
   -1.0644    0.3742    0.2931 C   0  0  0  0  0  0  0  0  0  0  0  0
   -1.5793   -0.7779    0.8474 C   0  0  0  0  0  0  0  0  0  0  0  0
   -2.9224   -1.0608    0.7909 C   0  0  0  0  0  0  0  0  0  0  0  0
   -3.7579   -0.1530    0.1575 C   0  0  0  0  0  0  0  0  0  0  0  0
   -3.2767    1.0082   -0.4072 C   0  0  0  0  0  0  0  0  0  0  0  0
   -1.9168    1.2609   -0.3313 C   0  0  0  0  0  0  0  0  0  0  0  0
   -4.2269    1.9133   -1.0548 C   0  0  0  0  0  0  0  0  0  0  0  0
   -5.4080    1.2621   -1.6708 C   0  0  0  0  0  0  0  0  0  0  0  0
   -5.9259    0.0470   -0.9904 C   0  0  0  0  0  0  0  0  0  0  0  0
   -5.1445   -0.4427    0.0983 N   0  0  0  0  0  0  0  0  0  0  0  0
   -5.7045   -1.2488    1.1865 C   0  0  0  0  0  0  0  0  0  0  0  0
   -4.8866   -2.4632    1.4590 C   0  0  0  0  0  0  0  0  0  0  0  0
   -3.4142   -2.2988    1.3966 C   0  0  0  0  0  0  0  0  0  0  0  0
    3.3604   -0.9985   -0.2520 C   0  0  0  0  0  0  0  0  0  0  0  0
    4.7419   -0.8881   -0.2777 C   0  0  0  0  0  0  0  0  0  0  0  0
    5.5763   -2.0778   -0.2979 C   0  0  0  0  0  0  0  0  0  0  0  0
    6.8096   -2.0089   -0.3209 O   0  0  0  0  0  0  0  0  0  0  0  0
    4.9847   -3.3298   -0.2913 O   0  0  0  0  0  0  0  0  0  0  0  0
    5.7968   -4.5017   -0.3110 C   0  0  0  0  0  0  0  0  0  0  0  0
    5.3217    0.3620   -0.2841 C   0  0  0  0  0  0  0  0  0  0  0  0
    5.7630    5.2700    0.3262 H   0  0  0  0  0  0  0  0  0  0  0  0
    4.0495    5.9094    0.1951 H   0  0  0  0  0  0  0  0  0  0  0  0
    5.0068    5.6268   -1.2883 H   0  0  0  0  0  0  0  0  0  0  0  0
    2.4574    2.1875   -0.2233 H   0  0  0  0  0  0  0  0  0  0  0  0
   -0.9071   -1.4921    1.3481 H   0  0  0  0  0  0  0  0  0  0  0  0
   -1.5815    2.1824   -0.7869 H   0  0  0  0  0  0  0  0  0  0  0  0
   -4.5674    2.6992   -0.3462 H   0  0  0  0  0  0  0  0  0  0  0  0
   -3.6562    2.4775   -1.8497 H   0  0  0  0  0  0  0  0  0  0  0  0
   -6.2366    2.0302   -1.7025 H   0  0  0  0  0  0  0  0  0  0  0  0
   -5.1793    1.0844   -2.7580 H   0  0  0  0  0  0  0  0  0  0  0  0
   -7.0103    0.1685   -0.6980 H   0  0  0  0  0  0  0  0  0  0  0  0
   -5.9604   -0.7788   -1.7612 H   0  0  0  0  0  0  0  0  0  0  0  0
   -5.7520   -0.5645    2.0685 H   0  0  0  0  0  0  0  0  0  0  0  0
   -6.7409   -1.5467    0.9559 H   0  0  0  0  0  0  0  0  0  0  0  0
   -5.2044   -3.2528    0.7456 H   0  0  0  0  0  0  0  0  0  0  0  0
   -5.1672   -2.8192    2.4938 H   0  0  0  0  0  0  0  0  0  0  0  0
   -2.9549   -3.1487    0.8106 H   0  0  0  0  0  0  0  0  0  0  0  0
   -2.9518   -2.4160    2.4210 H   0  0  0  0  0  0  0  0  0  0  0  0
    2.9124   -1.9891   -0.2472 H   0  0  0  0  0  0  0  0  0  0  0  0
    6.5943   -4.4246    0.4420 H   0  0  0  0  0  0  0  0  0  0  0  0
    6.1576   -4.7168   -1.3241 H   0  0  0  0  0  0  0  0  0  0  0  0
    5.1048   -5.3460   -0.0349 H   0  0  0  0  0  0  0  0  0  0  0  0
    6.4022    0.4900   -0.3040 H   0  0  0  0  0  0  0  0  0  0  0  0
  1  2  1  0
  2  3  1  0
  3  4  2  0
  3  5  1  0
  5  6  2  0
  6  7  1  0
  7  8  1  0
  8  9  2  0
  9 10  1  0
 10 11  2  0
 11 12  1  0
 12 13  2  0
 13 14  1  0
 14 15  2  0
 14 16  1  0
 16 17  1  0
 17 18  1  0
 18 19  1  0
 19 20  1  0
 20 21  1  0
 21 22  1  0
  7 23  2  0
 23 24  1  0
 24 25  1  0
 25 26  2  0
 25 27  1  0
 27 28  1  0
 24 29  2  0
 29  5  1  0
 15 10  1  0
 22 12  1  0
 19 13  1  0
  1 30  1  0
  1 31  1  0
  1 32  1  0
  6 33  1  0
 11 34  1  0
 15 35  1  0
 16 36  1  0
 16 37  1  0
 17 38  1  0
 17 39  1  0
 18 40  1  0
 18 41  1  0
 20 42  1  0
 20 43  1  0
 21 44  1  0
 21 45  1  0
 22 46  1  0
 22 47  1  0
 23 48  1  0
 28 49  1  0
 28 50  1  0
 28 51  1  0
 29 52  1  0
M  END
