
     RDKit          3D

 56 59  0  0  0  0  0  0  0  0999 V2000
    9.2857   -2.3012    0.1365 C   0  0  0  0  0  0  0  0  0  0  0  0
    8.9764   -0.9366    0.1760 O   0  0  0  0  0  0  0  0  0  0  0  0
    7.6800   -0.4558    0.2100 C   0  0  0  0  0  0  0  0  0  0  0  0
    6.6134   -1.3272    0.2061 C   0  0  0  0  0  0  0  0  0  0  0  0
    5.3159   -0.8208    0.2408 C   0  0  0  0  0  0  0  0  0  0  0  0
    5.0550    0.5245    0.2790 C   0  0  0  0  0  0  0  0  0  0  0  0
    3.7075    1.0952    0.3160 C   0  0  0  0  0  0  0  0  0  0  0  0
    2.6003    0.3866    0.3167 C   0  0  0  0  0  0  0  0  0  0  0  0
    1.3051    1.0572    0.3553 C   0  0  0  0  0  0  0  0  0  0  0  0
    0.1651    0.3875    0.3575 C   0  0  0  0  0  0  0  0  0  0  0  0
   -1.1428    1.0667    0.3965 C   0  0  0  0  0  0  0  0  0  0  0  0
   -1.2380    2.3729    0.4312 N   0  0  0  0  0  0  0  0  0  0  0  0
   -2.5937    2.8128    0.4651 C   0  0  0  0  0  0  0  0  0  0  0  0
   -2.9116    3.9464   -0.4183 C   0  0  0  0  0  0  0  0  0  0  0  0
   -2.8087    5.1528    0.0032 O   0  0  0  0  0  0  0  0  0  0  0  0
   -3.3344    3.6830   -1.7450 N   0  0  0  0  0  0  0  0  0  0  0  0
   -3.7592    2.3776   -2.1098 C   0  0  0  0  0  0  0  0  0  0  0  0
   -4.1749    2.1715   -3.4630 N   0  0  0  0  0  0  0  0  0  0  0  0
   -3.7558    1.4546   -1.2388 N   0  0  0  0  0  0  0  0  0  0  0  0
   -3.3607    1.5509    0.1379 C   0  0  0  0  0  0  0  0  0  0  0  0
   -2.4270    0.4794    0.4010 N   0  0  0  0  0  0  0  0  0  0  0  0
   -2.7512   -0.8903    0.6191 C   0  0  1  0  0  0  0  0  0  0  0  0
   -3.6673   -1.0799    1.8300 C   0  0  0  0  0  0  0  0  0  0  0  0
   -4.3807   -2.3558    1.4170 C   0  0  2  0  0  0  0  0  0  0  0  0
   -3.5423   -3.4473    1.5831 O   0  0  0  0  0  0  0  0  0  0  0  0
   -4.5253   -2.1043   -0.0687 C   0  0  1  0  0  0  0  0  0  0  0  0
   -5.7435   -1.2300   -0.2683 C   0  0  0  0  0  0  0  0  0  0  0  0
   -5.9070   -0.8644   -1.5891 O   0  0  0  0  0  0  0  0  0  0  0  0
   -3.3490   -1.5178   -0.4351 O   0  0  0  0  0  0  0  0  0  0  0  0
    6.1281    1.3830    0.2825 C   0  0  0  0  0  0  0  0  0  0  0  0
    7.4149    0.8954    0.2485 C   0  0  0  0  0  0  0  0  0  0  0  0
    8.6579   -2.8976    0.8268 H   0  0  0  0  0  0  0  0  0  0  0  0
    9.1541   -2.7385   -0.8788 H   0  0  0  0  0  0  0  0  0  0  0  0
   10.3481   -2.4522    0.4115 H   0  0  0  0  0  0  0  0  0  0  0  0
    6.7890   -2.3767    0.1768 H   0  0  0  0  0  0  0  0  0  0  0  0
    4.4970   -1.5257    0.2369 H   0  0  0  0  0  0  0  0  0  0  0  0
    3.5696    2.1879    0.3459 H   0  0  0  0  0  0  0  0  0  0  0  0
    2.6635   -0.6876    0.2884 H   0  0  0  0  0  0  0  0  0  0  0  0
    1.2471    2.1385    0.3836 H   0  0  0  0  0  0  0  0  0  0  0  0
    0.2367   -0.6911    0.3290 H   0  0  0  0  0  0  0  0  0  0  0  0
   -2.8102    3.1483    1.5110 H   0  0  0  0  0  0  0  0  0  0  0  0
   -3.3301    4.4564   -2.4491 H   0  0  0  0  0  0  0  0  0  0  0  0
   -5.1205    2.4085   -3.7713 H   0  0  0  0  0  0  0  0  0  0  0  0
   -3.4887    1.7743   -4.1231 H   0  0  0  0  0  0  0  0  0  0  0  0
   -4.2231    1.4833    0.8332 H   0  0  0  0  0  0  0  0  0  0  0  0
   -1.8353   -1.5024    0.8769 H   0  0  0  0  0  0  0  0  0  0  0  0
   -4.3880   -0.2569    1.9060 H   0  0  0  0  0  0  0  0  0  0  0  0
   -3.0632   -1.2239    2.7497 H   0  0  0  0  0  0  0  0  0  0  0  0
   -5.3565   -2.4714    1.9243 H   0  0  0  0  0  0  0  0  0  0  0  0
   -3.5604   -4.0550    0.7940 H   0  0  0  0  0  0  0  0  0  0  0  0
   -4.6980   -3.0580   -0.6142 H   0  0  0  0  0  0  0  0  0  0  0  0
   -5.7096   -0.3379    0.3547 H   0  0  0  0  0  0  0  0  0  0  0  0
   -6.6306   -1.8728   -0.0044 H   0  0  0  0  0  0  0  0  0  0  0  0
   -6.1344    0.0672   -1.7427 H   0  0  0  0  0  0  0  0  0  0  0  0
    6.0267    2.4657    0.3114 H   0  0  0  0  0  0  0  0  0  0  0  0
    8.2846    1.5592    0.2504 H   0  0  0  0  0  0  0  0  0  0  0  0
  1  2  1  0
  2  3  1  0
  3  4  2  0
  4  5  1  0
  5  6  2  0
  6  7  1  0
  7  8  2  0
  8  9  1  0
  9 10  2  0
 10 11  1  0
 11 12  2  0
 12 13  1  0
 13 14  1  0
 14 15  2  0
 14 16  1  0
 16 17  1  0
 17 18  1  0
 17 19  2  0
 19 20  1  0
 20 21  1  0
 21 22  1  0
 22 23  1  0
 23 24  1  0
 24 25  1  0
 24 26  1  0
 26 27  1  0
 27 28  1  0
 26 29  1  0
  6 30  1  0
 30 31  2  0
 31  3  1  0
 21 11  1  0
 29 22  1  0
 20 13  1  0
  1 32  1  0
  1 33  1  0
  1 34  1  0
  4 35  1  0
  5 36  1  0
  7 37  1  0
  8 38  1  0
  9 39  1  0
 10 40  1  0
 13 41  1  0
 16 42  1  0
 18 43  1  0
 18 44  1  0
 20 45  1  0
 22 46  1  1
 23 47  1  0
 23 48  1  0
 24 49  1  1
 25 50  1  0
 26 51  1  6
 27 52  1  0
 27 53  1  0
 28 54  1  0
 30 55  1  0
 31 56  1  0
M  END
