
     RDKit          3D

 59 62  0  0  0  0  0  0  0  0999 V2000
    0.6376   -5.0086    1.4035 C   0  0  0  0  0  0  0  0  0  0  0  0
   -0.2732   -4.8764    0.1968 C   0  0  0  0  0  0  0  0  0  0  0  0
   -0.2308   -3.5459   -0.3628 O   0  0  0  0  0  0  0  0  0  0  0  0
   -0.5810   -2.4697    0.4316 C   0  0  0  0  0  0  0  0  0  0  0  0
   -0.9160   -2.7567    1.6419 O   0  0  0  0  0  0  0  0  0  0  0  0
   -0.6287   -1.0793    0.1064 C   0  0  0  0  0  0  0  0  0  0  0  0
    0.3616   -0.1807    0.1977 C   0  0  0  0  0  0  0  0  0  0  0  0
    1.7157   -0.2112    0.7039 C   0  0  0  0  0  0  0  0  0  0  0  0
    2.8024   -0.1908   -0.1781 C   0  0  0  0  0  0  0  0  0  0  0  0
    4.0483    0.0496    0.2866 C   0  0  0  0  0  0  0  0  0  0  0  0
    5.1369    0.1056   -0.5790 C   0  0  0  0  0  0  0  0  0  0  0  0
    6.3735    0.3746   -0.0800 C   0  0  0  0  0  0  0  0  0  0  0  0
    7.4247    0.4295   -1.0005 O   0  0  0  0  0  0  0  0  0  0  0  0
    8.7357    0.7060   -0.6161 C   0  0  0  0  0  0  0  0  0  0  0  0
    6.5560    0.5864    1.2659 C   0  0  0  0  0  0  0  0  0  0  0  0
    5.4520    0.5306    2.1334 C   0  0  0  0  0  0  0  0  0  0  0  0
    4.1930    0.2672    1.6558 C   0  0  0  0  0  0  0  0  0  0  0  0
    3.1407    0.2321    2.4565 O   0  0  0  0  0  0  0  0  0  0  0  0
    1.9324    0.0083    2.0631 C   0  0  0  0  0  0  0  0  0  0  0  0
    0.9338   -0.0148    2.8601 O   0  0  0  0  0  0  0  0  0  0  0  0
   -0.2026    1.0214   -0.1734 N   0  0  0  0  0  0  0  0  0  0  0  0
   -1.4640    0.8572   -0.4727 N   0  0  0  0  0  0  0  0  0  0  0  0
   -2.2941    1.9043   -0.9531 C   0  0  0  0  0  0  0  0  0  0  0  0
   -1.9904    2.3900   -2.2365 C   0  0  0  0  0  0  0  0  0  0  0  0
   -2.7001    3.4140   -2.8089 C   0  0  0  0  0  0  0  0  0  0  0  0
   -3.7505    3.9818   -2.0862 C   0  0  0  0  0  0  0  0  0  0  0  0
   -4.0293    3.4928   -0.8345 C   0  0  0  0  0  0  0  0  0  0  0  0
   -5.1293    4.0837   -0.0503 C   0  0  0  0  0  0  0  0  0  0  0  0
   -3.3145    2.4525   -0.2430 C   0  0  0  0  0  0  0  0  0  0  0  0
   -1.8138   -0.4453   -0.3161 C   0  0  0  0  0  0  0  0  0  0  0  0
   -3.1500   -0.9906   -0.4341 C   0  0  0  0  0  0  0  0  0  0  0  0
   -3.4223   -2.1737   -0.1788 O   0  0  0  0  0  0  0  0  0  0  0  0
   -4.1562   -0.1263   -0.8368 O   0  0  0  0  0  0  0  0  0  0  0  0
   -5.4954   -0.5528   -0.9178 C   0  0  0  0  0  0  0  0  0  0  0  0
   -5.8922   -0.9567    0.5060 C   0  0  0  0  0  0  0  0  0  0  0  0
    0.1548   -4.6239    2.3504 H   0  0  0  0  0  0  0  0  0  0  0  0
    1.5974   -4.5014    1.2953 H   0  0  0  0  0  0  0  0  0  0  0  0
    0.7813   -6.1172    1.5924 H   0  0  0  0  0  0  0  0  0  0  0  0
   -0.0008   -5.5859   -0.6088 H   0  0  0  0  0  0  0  0  0  0  0  0
   -1.3125   -5.1208    0.5373 H   0  0  0  0  0  0  0  0  0  0  0  0
    2.6162   -0.3728   -1.2601 H   0  0  0  0  0  0  0  0  0  0  0  0
    4.9473   -0.0667   -1.6186 H   0  0  0  0  0  0  0  0  0  0  0  0
    9.2899   -0.0923   -0.1432 H   0  0  0  0  0  0  0  0  0  0  0  0
    8.6540    1.5478    0.1345 H   0  0  0  0  0  0  0  0  0  0  0  0
    9.3528    1.0965   -1.4678 H   0  0  0  0  0  0  0  0  0  0  0  0
    7.5502    0.7962    1.6331 H   0  0  0  0  0  0  0  0  0  0  0  0
    5.6030    0.6997    3.1786 H   0  0  0  0  0  0  0  0  0  0  0  0
   -1.1685    1.9242   -2.7752 H   0  0  0  0  0  0  0  0  0  0  0  0
   -2.4359    3.7575   -3.7916 H   0  0  0  0  0  0  0  0  0  0  0  0
   -4.2824    4.7908   -2.5812 H   0  0  0  0  0  0  0  0  0  0  0  0
   -5.9803    3.3489    0.0163 H   0  0  0  0  0  0  0  0  0  0  0  0
   -4.7474    4.3026    0.9723 H   0  0  0  0  0  0  0  0  0  0  0  0
   -5.5007    5.0309   -0.4416 H   0  0  0  0  0  0  0  0  0  0  0  0
   -3.5300    2.0680    0.7325 H   0  0  0  0  0  0  0  0  0  0  0  0
   -5.5760   -1.4233   -1.5811 H   0  0  0  0  0  0  0  0  0  0  0  0
   -6.1414    0.2820   -1.2716 H   0  0  0  0  0  0  0  0  0  0  0  0
   -4.9795   -0.9838    1.1072 H   0  0  0  0  0  0  0  0  0  0  0  0
   -6.5180   -0.1322    0.8969 H   0  0  0  0  0  0  0  0  0  0  0  0
   -6.3832   -1.9332    0.5436 H   0  0  0  0  0  0  0  0  0  0  0  0
  1  2  1  0
  2  3  1  0
  3  4  1  0
  4  5  2  0
  4  6  1  0
  6  7  1  0
  7  8  1  0
  8  9  2  0
  9 10  1  0
 10 11  2  0
 11 12  1  0
 12 13  1  0
 13 14  1  0
 12 15  2  0
 15 16  1  0
 16 17  2  0
 17 18  1  0
 18 19  1  0
 19 20  2  0
  7 21  2  0
 21 22  1  0
 22 23  1  0
 23 24  2  0
 24 25  1  0
 25 26  2  0
 26 27  1  0
 27 28  1  0
 27 29  2  0
 22 30  1  0
 30 31  1  0
 31 32  2  0
 31 33  1  0
 33 34  1  0
 34 35  1  0
 30  6  2  0
 19  8  1  0
 29 23  1  0
 17 10  1  0
  1 36  1  0
  1 37  1  0
  1 38  1  0
  2 39  1  0
  2 40  1  0
  9 41  1  0
 11 42  1  0
 14 43  1  0
 14 44  1  0
 14 45  1  0
 15 46  1  0
 16 47  1  0
 24 48  1  0
 25 49  1  0
 26 50  1  0
 28 51  1  0
 28 52  1  0
 28 53  1  0
 29 54  1  0
 34 55  1  0
 34 56  1  0
 35 57  1  0
 35 58  1  0
 35 59  1  0
M  END
