
     RDKit          3D

 61 67  0  0  0  0  0  0  0  0999 V2000
    1.4179   -1.0017   -2.1882 C   0  0  0  0  0  0  0  0  0  0  0  0
    0.7033   -0.4407   -1.0351 C   0  0  0  0  0  0  0  0  0  0  0  0
   -0.6975   -0.3979   -1.1004 C   0  0  0  0  0  0  0  0  0  0  0  0
   -1.4691    0.1096   -0.0857 C   0  0  0  0  0  0  0  0  0  0  0  0
   -2.9205    0.1575   -0.1442 C   0  0  0  0  0  0  0  0  0  0  0  0
   -3.6376    1.1532    0.4846 C   0  0  0  0  0  0  0  0  0  0  0  0
   -5.0281    1.1596    0.4036 C   0  0  0  0  0  0  0  0  0  0  0  0
   -5.7170    0.1958   -0.2902 C   0  0  0  0  0  0  0  0  0  0  0  0
   -7.1784    0.2328   -0.3536 C   0  0  0  0  0  0  0  0  0  0  0  0
   -7.9827    1.1445    0.2150 N   0  0  0  0  0  0  0  0  0  0  0  0
   -9.2691    0.8702   -0.0477 C   0  0  0  0  0  0  0  0  0  0  0  0
  -10.4783    1.4588    0.2784 C   0  0  0  0  0  0  0  0  0  0  0  0
  -11.6719    0.9220   -0.1559 C   0  0  0  0  0  0  0  0  0  0  0  0
  -11.7032   -0.2115   -0.9246 C   0  0  0  0  0  0  0  0  0  0  0  0
  -10.4988   -0.7988   -1.2502 C   0  0  0  0  0  0  0  0  0  0  0  0
   -9.2958   -0.2660   -0.8180 C   0  0  0  0  0  0  0  0  0  0  0  0
   -8.0003   -0.6251   -0.9833 N   0  0  0  0  0  0  0  0  0  0  0  0
   -4.9944   -0.7953   -0.9157 C   0  0  0  0  0  0  0  0  0  0  0  0
   -3.6008   -0.8207   -0.8472 C   0  0  0  0  0  0  0  0  0  0  0  0
   -0.8425    0.5934    1.0360 C   0  0  0  0  0  0  0  0  0  0  0  0
    0.5548    0.5575    1.1164 C   0  0  0  0  0  0  0  0  0  0  0  0
    1.3026    0.0422    0.0822 C   0  0  0  0  0  0  0  0  0  0  0  0
    2.7676    0.0071    0.1859 C   0  0  0  0  0  0  0  0  0  0  0  0
    3.4632    1.1193    0.5990 C   0  0  0  0  0  0  0  0  0  0  0  0
    4.8251    1.0714    0.6963 C   0  0  0  0  0  0  0  0  0  0  0  0
    5.5512   -0.0629    0.3938 C   0  0  0  0  0  0  0  0  0  0  0  0
    7.0158   -0.0668    0.5140 C   0  0  0  0  0  0  0  0  0  0  0  0
    7.7569    0.9828    0.9139 N   0  0  0  0  0  0  0  0  0  0  0  0
    9.0647    0.6700    0.9219 C   0  0  0  0  0  0  0  0  0  0  0  0
   10.2142    1.3629    1.2408 C   0  0  0  0  0  0  0  0  0  0  0  0
   11.4424    0.7869    1.1573 C   0  0  0  0  0  0  0  0  0  0  0  0
   11.5153   -0.5365    0.7369 C   0  0  0  0  0  0  0  0  0  0  0  0
   10.3657   -1.2529    0.4105 C   0  0  0  0  0  0  0  0  0  0  0  0
    9.1389   -0.6471    0.5037 C   0  0  0  0  0  0  0  0  0  0  0  0
    7.8695   -1.0564    0.2662 N   0  0  0  0  0  0  0  0  0  0  0  0
    4.8479   -1.1540   -0.0132 C   0  0  0  0  0  0  0  0  0  0  0  0
    3.4789   -1.1320   -0.1193 C   0  0  0  0  0  0  0  0  0  0  0  0
    0.8815   -0.6671   -3.1276 H   0  0  0  0  0  0  0  0  0  0  0  0
    1.3330   -2.1175   -2.2215 H   0  0  0  0  0  0  0  0  0  0  0  0
    2.4464   -0.6296   -2.3223 H   0  0  0  0  0  0  0  0  0  0  0  0
   -1.1869   -0.7795   -1.9847 H   0  0  0  0  0  0  0  0  0  0  0  0
   -3.0815    1.9033    1.0258 H   0  0  0  0  0  0  0  0  0  0  0  0
   -5.5792    1.9359    0.8942 H   0  0  0  0  0  0  0  0  0  0  0  0
  -10.4758    2.3535    0.8838 H   0  0  0  0  0  0  0  0  0  0  0  0
  -12.6214    1.3991    0.1104 H   0  0  0  0  0  0  0  0  0  0  0  0
  -12.6564   -0.6316   -1.2654 H   0  0  0  0  0  0  0  0  0  0  0  0
  -10.4465   -1.6927   -1.8518 H   0  0  0  0  0  0  0  0  0  0  0  0
   -7.6919   -1.4541   -1.5256 H   0  0  0  0  0  0  0  0  0  0  0  0
   -5.5159   -1.5614   -1.4658 H   0  0  0  0  0  0  0  0  0  0  0  0
   -3.0342   -1.6065   -1.3434 H   0  0  0  0  0  0  0  0  0  0  0  0
   -1.4451    0.9912    1.8316 H   0  0  0  0  0  0  0  0  0  0  0  0
    1.0617    0.9324    1.9881 H   0  0  0  0  0  0  0  0  0  0  0  0
    2.9231    2.0172    0.8413 H   0  0  0  0  0  0  0  0  0  0  0  0
    5.4188    1.9363    1.0218 H   0  0  0  0  0  0  0  0  0  0  0  0
   10.1324    2.4032    1.5692 H   0  0  0  0  0  0  0  0  0  0  0  0
   12.3607    1.3127    1.4031 H   0  0  0  0  0  0  0  0  0  0  0  0
   12.4933   -1.0105    0.6654 H   0  0  0  0  0  0  0  0  0  0  0  0
   10.4533   -2.2725    0.0891 H   0  0  0  0  0  0  0  0  0  0  0  0
    7.5791   -2.0088   -0.0648 H   0  0  0  0  0  0  0  0  0  0  0  0
    5.4135   -2.0599   -0.2559 H   0  0  0  0  0  0  0  0  0  0  0  0
    2.9282   -2.0244   -0.4459 H   0  0  0  0  0  0  0  0  0  0  0  0
  1  2  1  0
  2  3  2  0
  3  4  1  0
  4  5  1  0
  5  6  2  0
  6  7  1  0
  7  8  2  0
  8  9  1  0
  9 10  2  0
 10 11  1  0
 11 12  2  0
 12 13  1  0
 13 14  2  0
 14 15  1  0
 15 16  2  0
 16 17  1  0
  8 18  1  0
 18 19  2  0
  4 20  2  0
 20 21  1  0
 21 22  2  0
 22 23  1  0
 23 24  2  0
 24 25  1  0
 25 26  2  0
 26 27  1  0
 27 28  2  0
 28 29  1  0
 29 30  2  0
 30 31  1  0
 31 32  2  0
 32 33  1  0
 33 34  2  0
 34 35  1  0
 26 36  1  0
 36 37  2  0
 22  2  1  0
 37 23  1  0
 19  5  1  0
 35 27  1  0
 17  9  1  0
 34 29  1  0
 16 11  1  0
  1 38  1  0
  1 39  1  0
  1 40  1  0
  3 41  1  0
  6 42  1  0
  7 43  1  0
 12 44  1  0
 13 45  1  0
 14 46  1  0
 15 47  1  0
 17 48  1  0
 18 49  1  0
 19 50  1  0
 20 51  1  0
 21 52  1  0
 24 53  1  0
 25 54  1  0
 30 55  1  0
 31 56  1  0
 32 57  1  0
 33 58  1  0
 35 59  1  0
 36 60  1  0
 37 61  1  0
M  END
