
     RDKit          3D

 38 43  0  0  0  0  0  0  0  0999 V2000
    2.1081   -2.5821   -0.6930 F   0  0  0  0  0  0  0  0  0  0  0  0
    2.1074   -1.2195   -1.1643 B   0  0  0  0  0  4  0  0  0  0  0  0
    1.9292   -1.2093   -2.6131 F   0  0  0  0  0  0  0  0  0  0  0  0
    1.0900   -0.3938   -0.4205 N   0  0  0  0  0  0  0  0  0  0  0  0
    1.7643    0.5703    0.2451 C   0  0  0  0  0  0  0  0  0  0  0  0
    0.8459    1.3005    0.9039 N   0  0  0  0  0  0  0  0  0  0  0  0
   -0.4001    0.8438    0.6888 C   0  0  0  0  0  0  0  0  0  0  0  0
   -1.6494    1.2485    1.1339 C   0  0  0  0  0  0  0  0  0  0  0  0
   -1.7988    2.3279    1.9771 C   0  0  0  0  0  0  0  0  0  0  0  0
   -3.0115    2.7656    2.4436 C   0  0  0  0  0  0  0  0  0  0  0  0
   -4.1538    2.0839    2.0449 C   0  0  0  0  0  0  0  0  0  0  0  0
   -4.0406    0.9875    1.1927 C   0  0  0  0  0  0  0  0  0  0  0  0
   -2.7940    0.5824    0.7475 C   0  0  0  0  0  0  0  0  0  0  0  0
   -2.6694   -0.5026   -0.0972 C   0  0  0  0  0  0  0  0  0  0  0  0
   -3.7824   -1.2056   -0.5153 C   0  0  0  0  0  0  0  0  0  0  0  0
   -3.6254   -2.2988   -1.3698 C   0  0  0  0  0  0  0  0  0  0  0  0
   -2.3961   -2.7024   -1.8120 C   0  0  0  0  0  0  0  0  0  0  0  0
   -1.2834   -1.9748   -1.3749 C   0  0  0  0  0  0  0  0  0  0  0  0
   -1.3959   -0.8966   -0.5368 C   0  0  0  0  0  0  0  0  0  0  0  0
   -0.2456   -0.2353   -0.1546 C   0  0  0  0  0  0  0  0  0  0  0  0
    3.2123    0.4544   -0.0006 C   0  0  0  0  0  0  0  0  0  0  0  0
    4.2732    1.2119    0.4652 C   0  0  0  0  0  0  0  0  0  0  0  0
    5.5756    0.9453    0.1202 C   0  0  0  0  0  0  0  0  0  0  0  0
    5.8093   -0.1224   -0.7232 C   0  0  0  0  0  0  0  0  0  0  0  0
    4.7282   -0.8405   -1.1567 C   0  0  0  0  0  0  0  0  0  0  0  0
    3.4621   -0.5651   -0.8088 N   0  0  0  0  0  4  0  0  0  0  0  0
   -0.9037    2.8491    2.2794 H   0  0  0  0  0  0  0  0  0  0  0  0
   -3.1472    3.6073    3.1031 H   0  0  0  0  0  0  0  0  0  0  0  0
   -5.1018    2.4057    2.3940 H   0  0  0  0  0  0  0  0  0  0  0  0
   -4.9625    0.5179    0.9327 H   0  0  0  0  0  0  0  0  0  0  0  0
   -4.7470   -0.9077   -0.1828 H   0  0  0  0  0  0  0  0  0  0  0  0
   -4.5235   -2.8151   -1.6682 H   0  0  0  0  0  0  0  0  0  0  0  0
   -2.2426   -3.5409   -2.4709 H   0  0  0  0  0  0  0  0  0  0  0  0
   -0.2957   -2.2664   -1.7052 H   0  0  0  0  0  0  0  0  0  0  0  0
    4.1010    2.0508    1.1267 H   0  0  0  0  0  0  0  0  0  0  0  0
    6.4033    1.5488    0.4932 H   0  0  0  0  0  0  0  0  0  0  0  0
    6.8318   -0.3444   -1.0039 H   0  0  0  0  0  0  0  0  0  0  0  0
    4.9286   -1.6781   -1.8203 H   0  0  0  0  0  0  0  0  0  0  0  0
  1  2  1  0
  2  3  1  0
  2  4  1  0
  4  5  1  0
  5  6  2  0
  6  7  1  0
  7  8  2  0
  8  9  1  0
  9 10  2  0
 10 11  1  0
 11 12  2  0
 12 13  1  0
 13 14  2  0
 14 15  1  0
 15 16  2  0
 16 17  1  0
 17 18  2  0
 18 19  1  0
 19 20  2  0
  5 21  1  0
 21 22  2  0
 22 23  1  0
 23 24  2  0
 24 25  1  0
 25 26  2  0
 26  2  1  0
 20  4  1  0
 26 21  1  0
 20  7  1  0
 13  8  1  0
 19 14  1  0
  9 27  1  0
 10 28  1  0
 11 29  1  0
 12 30  1  0
 15 31  1  0
 16 32  1  0
 17 33  1  0
 18 34  1  0
 22 35  1  0
 23 36  1  0
 24 37  1  0
 25 38  1  0
M  CHG  2   2  -1  26   1
M  END
