
     RDKit          3D

 66 72  0  0  0  0  0  0  0  0999 V2000
   -7.0609   -3.3985    0.0142 C   0  0  0  0  0  0  0  0  0  0  0  0
   -7.0010   -2.1793    0.9162 C   0  0  0  0  0  0  0  0  0  0  0  0
   -6.3516   -1.1015    0.1875 N   0  0  0  0  0  0  0  0  0  0  0  0
   -7.0033   -0.2040   -0.5799 C   0  0  0  0  0  0  0  0  0  0  0  0
   -8.3471   -0.0229   -0.8980 C   0  0  0  0  0  0  0  0  0  0  0  0
   -8.7385    1.0045   -1.7287 C   0  0  0  0  0  0  0  0  0  0  0  0
   -7.7588    1.8361   -2.2265 C   0  0  0  0  0  0  0  0  0  0  0  0
   -6.4203    1.6572   -1.9108 C   0  0  0  0  0  0  0  0  0  0  0  0
   -6.0251    0.6303   -1.0800 C   0  0  0  0  0  0  0  0  0  0  0  0
   -4.7781    0.2548   -0.6277 C   0  0  0  0  0  0  0  0  0  0  0  0
   -3.4904    0.7104   -0.7994 C   0  0  0  0  0  0  0  0  0  0  0  0
   -2.3914    0.0993   -0.1886 C   0  0  0  0  0  0  0  0  0  0  0  0
   -1.0416    0.6400   -0.4162 C   0  0  0  0  0  0  0  0  0  0  0  0
    0.0956    0.1128    0.1361 C   0  0  0  0  0  0  0  0  0  0  0  0
    1.3244    0.6808   -0.1285 C   0  0  0  0  0  0  0  0  0  0  0  0
    2.5750    0.1888    0.4124 C   0  0  0  0  0  0  0  0  0  0  0  0
    2.6331   -0.8999    1.2443 C   0  0  0  0  0  0  0  0  0  0  0  0
    3.8614   -1.3560    1.7549 C   0  0  0  0  0  0  0  0  0  0  0  0
    5.0138   -0.7011    1.4143 C   0  0  0  0  0  0  0  0  0  0  0  0
    4.9905    0.3927    0.5833 C   0  0  0  0  0  0  0  0  0  0  0  0
    3.7662    0.8080    0.1041 C   0  0  0  0  0  0  0  0  0  0  0  0
    6.2772    0.8314    0.4243 C   0  0  0  0  0  0  0  0  0  0  0  0
    6.8240    1.8672   -0.2862 C   0  0  0  0  0  0  0  0  0  0  0  0
    8.2125    2.0768   -0.2581 C   0  0  0  0  0  0  0  0  0  0  0  0
    9.0111    1.2365    0.4854 C   0  0  0  0  0  0  0  0  0  0  0  0
    8.4556    0.1910    1.2021 C   0  0  0  0  0  0  0  0  0  0  0  0
    7.0858    0.0009    1.1617 C   0  0  0  0  0  0  0  0  0  0  0  0
    6.2957   -0.9062    1.7420 N   0  0  0  0  0  0  0  0  0  0  0  0
    6.7760   -1.9725    2.6138 C   0  0  0  0  0  0  0  0  0  0  0  0
    7.0767   -3.1692    1.7230 C   0  0  0  0  0  0  0  0  0  0  0  0
    1.3761    1.7622   -0.9402 N   0  0  0  0  0  0  0  0  0  0  0  0
    0.2805    2.3003   -1.4951 C   0  0  0  0  0  0  0  0  0  0  0  0
    0.3660    3.4267   -2.3364 O   0  0  0  0  0  0  0  0  0  0  0  0
   -0.8444    3.9221   -2.8746 C   0  0  0  0  0  0  0  0  0  0  0  0
   -0.8935    1.7235   -1.2166 N   0  0  0  0  0  0  0  0  0  0  0  0
   -2.6491   -0.9905    0.6019 C   0  0  0  0  0  0  0  0  0  0  0  0
   -3.9506   -1.4695    0.7893 C   0  0  0  0  0  0  0  0  0  0  0  0
   -5.0113   -0.8471    0.1753 C   0  0  0  0  0  0  0  0  0  0  0  0
   -6.7365   -3.1380   -1.0145 H   0  0  0  0  0  0  0  0  0  0  0  0
   -8.1211   -3.7422   -0.0796 H   0  0  0  0  0  0  0  0  0  0  0  0
   -6.4665   -4.2377    0.3753 H   0  0  0  0  0  0  0  0  0  0  0  0
   -6.3701   -2.4065    1.7961 H   0  0  0  0  0  0  0  0  0  0  0  0
   -8.0175   -1.8618    1.1645 H   0  0  0  0  0  0  0  0  0  0  0  0
   -9.0760   -0.7041   -0.4803 H   0  0  0  0  0  0  0  0  0  0  0  0
   -9.7907    1.1646   -1.9916 H   0  0  0  0  0  0  0  0  0  0  0  0
   -8.0497    2.6466   -2.8794 H   0  0  0  0  0  0  0  0  0  0  0  0
   -5.6449    2.3062   -2.2978 H   0  0  0  0  0  0  0  0  0  0  0  0
   -3.3290    1.5580   -1.4194 H   0  0  0  0  0  0  0  0  0  0  0  0
    0.0158   -0.7548    0.7822 H   0  0  0  0  0  0  0  0  0  0  0  0
    1.7354   -1.4108    1.5102 H   0  0  0  0  0  0  0  0  0  0  0  0
    3.8673   -2.2253    2.4137 H   0  0  0  0  0  0  0  0  0  0  0  0
    3.7694    1.6868   -0.5607 H   0  0  0  0  0  0  0  0  0  0  0  0
    6.1702    2.5074   -0.8588 H   0  0  0  0  0  0  0  0  0  0  0  0
    8.6446    2.8953   -0.8196 H   0  0  0  0  0  0  0  0  0  0  0  0
   10.0836    1.3457    0.5470 H   0  0  0  0  0  0  0  0  0  0  0  0
    9.0668   -0.4814    1.7933 H   0  0  0  0  0  0  0  0  0  0  0  0
    6.0212   -2.2424    3.3790 H   0  0  0  0  0  0  0  0  0  0  0  0
    7.6700   -1.6072    3.1387 H   0  0  0  0  0  0  0  0  0  0  0  0
    7.5838   -2.7930    0.7881 H   0  0  0  0  0  0  0  0  0  0  0  0
    6.1100   -3.6022    1.4262 H   0  0  0  0  0  0  0  0  0  0  0  0
    7.7455   -3.8478    2.2596 H   0  0  0  0  0  0  0  0  0  0  0  0
   -1.6222    3.1112   -2.8724 H   0  0  0  0  0  0  0  0  0  0  0  0
   -0.6903    4.2122   -3.9473 H   0  0  0  0  0  0  0  0  0  0  0  0
   -1.2258    4.8093   -2.3612 H   0  0  0  0  0  0  0  0  0  0  0  0
   -1.8165   -1.4852    1.0886 H   0  0  0  0  0  0  0  0  0  0  0  0
   -4.0665   -2.3301    1.4255 H   0  0  0  0  0  0  0  0  0  0  0  0
  1  2  1  0
  2  3  1  0
  3  4  1  0
  4  5  2  0
  5  6  1  0
  6  7  2  0
  7  8  1  0
  8  9  2  0
  9 10  1  0
 10 11  2  0
 11 12  1  0
 12 13  1  0
 13 14  2  0
 14 15  1  0
 15 16  1  0
 16 17  2  0
 17 18  1  0
 18 19  2  0
 19 20  1  0
 20 21  2  0
 20 22  1  0
 22 23  2  0
 23 24  1  0
 24 25  2  0
 25 26  1  0
 26 27  2  0
 27 28  1  0
 28 29  1  0
 29 30  1  0
 15 31  2  0
 31 32  1  0
 32 33  1  0
 33 34  1  0
 32 35  2  0
 12 36  2  0
 36 37  1  0
 37 38  2  0
 38  3  1  0
  9  4  1  0
 38 10  1  0
 35 13  1  0
 21 16  1  0
 27 22  1  0
 28 19  1  0
  1 39  1  0
  1 40  1  0
  1 41  1  0
  2 42  1  0
  2 43  1  0
  5 44  1  0
  6 45  1  0
  7 46  1  0
  8 47  1  0
 11 48  1  0
 14 49  1  0
 17 50  1  0
 18 51  1  0
 21 52  1  0
 23 53  1  0
 24 54  1  0
 25 55  1  0
 26 56  1  0
 29 57  1  0
 29 58  1  0
 30 59  1  0
 30 60  1  0
 30 61  1  0
 34 62  1  0
 34 63  1  0
 34 64  1  0
 36 65  1  0
 37 66  1  0
M  END
