
     RDKit          3D

 49 52  0  0  0  0  0  0  0  0999 V2000
   -2.6229   -0.0812    2.5226 C   0  0  0  0  0  0  0  0  0  0  0  0
   -2.8060    0.0667    1.1391 O   0  0  0  0  0  0  0  0  0  0  0  0
   -1.7869    0.0756    0.2201 C   0  0  0  0  0  0  0  0  0  0  0  0
   -0.4753   -0.0622    0.6868 C   0  0  0  0  0  0  0  0  0  0  0  0
    0.6065   -0.0646   -0.1325 C   0  0  0  0  0  0  0  0  0  0  0  0
    1.9860   -0.1899    0.3069 C   0  0  0  0  0  0  0  0  0  0  0  0
    2.3320   -0.2988    1.5729 C   0  0  0  0  0  0  0  0  0  0  0  0
    3.7495   -0.4221    1.9634 C   0  0  0  0  0  0  0  0  0  0  0  0
    4.8183   -0.4552    1.1864 N   0  0  0  0  0  0  0  0  0  0  0  0
    6.0056   -0.5632    1.7175 C   0  0  0  0  0  0  0  0  0  0  0  0
    7.2259   -0.6096    1.0041 C   0  0  0  0  0  0  0  0  0  0  0  0
    8.3946   -0.7245    1.6996 C   0  0  0  0  0  0  0  0  0  0  0  0
    8.5030   -0.8018    3.0685 C   0  0  0  0  0  0  0  0  0  0  0  0
    7.3033   -0.7566    3.7735 C   0  0  0  0  0  0  0  0  0  0  0  0
    6.0837   -0.6382    3.0812 C   0  0  0  0  0  0  0  0  0  0  0  0
    4.4314   -0.5483    3.5223 S   0  0  0  0  0  0  0  0  0  0  0  0
    0.3821    0.0774   -1.4988 C   0  0  0  0  0  0  0  0  0  0  0  0
    1.4689    0.0787   -2.3598 O   0  0  0  0  0  0  0  0  0  0  0  0
    1.2128    0.2253   -3.7430 C   0  0  0  0  0  0  0  0  0  0  0  0
   -0.9064    0.2124   -1.9590 C   0  0  0  0  0  0  0  0  0  0  0  0
   -2.0249    0.2158   -1.1188 C   0  0  0  0  0  0  0  0  0  0  0  0
   -3.3290    0.3593   -1.7356 C   0  0  0  0  0  0  0  0  0  0  0  0
   -4.4936    0.3736   -1.1740 C   0  0  0  0  0  0  0  0  0  0  0  0
   -5.7819    0.5236   -1.8553 C   0  0  0  0  0  0  0  0  0  0  0  0
   -5.8334    0.6671   -3.1999 C   0  0  0  0  0  0  0  0  0  0  0  0
   -7.0637    0.8109   -3.8487 C   0  0  0  0  0  0  0  0  0  0  0  0
   -8.1876    0.8050   -3.1269 N   0  0  0  0  0  0  0  0  0  0  0  0
   -8.1576    0.6645   -1.7985 C   0  0  0  0  0  0  0  0  0  0  0  0
   -6.9451    0.5188   -1.1224 C   0  0  0  0  0  0  0  0  0  0  0  0
   -1.8028    0.5629    2.9067 H   0  0  0  0  0  0  0  0  0  0  0  0
   -3.5770    0.2126    3.0304 H   0  0  0  0  0  0  0  0  0  0  0  0
   -2.4374   -1.1340    2.7905 H   0  0  0  0  0  0  0  0  0  0  0  0
   -0.3113   -0.1729    1.7431 H   0  0  0  0  0  0  0  0  0  0  0  0
    2.8089   -0.2006   -0.3981 H   0  0  0  0  0  0  0  0  0  0  0  0
    1.6130   -0.3032    2.3684 H   0  0  0  0  0  0  0  0  0  0  0  0
    7.2647   -0.5565   -0.0710 H   0  0  0  0  0  0  0  0  0  0  0  0
    9.3626   -0.7623    1.1686 H   0  0  0  0  0  0  0  0  0  0  0  0
    9.4150   -0.8918    3.6224 H   0  0  0  0  0  0  0  0  0  0  0  0
    7.2394   -0.8054    4.8301 H   0  0  0  0  0  0  0  0  0  0  0  0
    2.1437    0.2542   -4.3426 H   0  0  0  0  0  0  0  0  0  0  0  0
    0.6325    1.1836   -3.8600 H   0  0  0  0  0  0  0  0  0  0  0  0
    0.5156   -0.5719   -4.0508 H   0  0  0  0  0  0  0  0  0  0  0  0
   -1.0131    0.3182   -3.0312 H   0  0  0  0  0  0  0  0  0  0  0  0
   -3.3574    0.4753   -2.8445 H   0  0  0  0  0  0  0  0  0  0  0  0
   -4.5143    0.2608   -0.0802 H   0  0  0  0  0  0  0  0  0  0  0  0
   -4.9704    0.6824   -3.8710 H   0  0  0  0  0  0  0  0  0  0  0  0
   -7.0770    0.9253   -4.9304 H   0  0  0  0  0  0  0  0  0  0  0  0
   -9.0660    0.6577   -1.2075 H   0  0  0  0  0  0  0  0  0  0  0  0
   -6.9580    0.4070   -0.0423 H   0  0  0  0  0  0  0  0  0  0  0  0
  1  2  1  0
  2  3  1  0
  3  4  2  0
  4  5  1  0
  5  6  1  0
  6  7  2  0
  7  8  1  0
  8  9  2  0
  9 10  1  0
 10 11  2  0
 11 12  1  0
 12 13  2  0
 13 14  1  0
 14 15  2  0
 15 16  1  0
  5 17  2  0
 17 18  1  0
 18 19  1  0
 17 20  1  0
 20 21  2  0
 21 22  1  0
 22 23  2  0
 23 24  1  0
 24 25  2  0
 25 26  1  0
 26 27  2  0
 27 28  1  0
 28 29  2  0
 21  3  1  0
 29 24  1  0
 16  8  1  0
 15 10  1  0
  1 30  1  0
  1 31  1  0
  1 32  1  0
  4 33  1  0
  6 34  1  0
  7 35  1  0
 11 36  1  0
 12 37  1  0
 13 38  1  0
 14 39  1  0
 19 40  1  0
 19 41  1  0
 19 42  1  0
 20 43  1  0
 22 44  1  0
 23 45  1  0
 25 46  1  0
 26 47  1  0
 28 48  1  0
 29 49  1  0
M  END
