
     RDKit          3D

 85 92  0  0  0  0  0  0  0  0999 V2000
   -3.6651   -0.3855    0.5613 C   0  0  0  0  0  0  0  0  0  0  0  0
   -2.8548    0.0389   -0.3733 C   0  0  0  0  0  0  0  0  0  0  0  0
   -1.4102   -0.0079   -0.2901 C   0  0  0  0  0  0  0  0  0  0  0  0
   -0.6998    0.4955   -1.3772 C   0  0  0  0  0  0  0  0  0  0  0  0
    0.6696    0.5056   -1.4060 C   0  0  0  0  0  0  0  0  0  0  0  0
    1.3866   -0.0037   -0.3143 C   0  0  0  0  0  0  0  0  0  0  0  0
    2.8143    0.0430   -0.4049 C   0  0  0  0  0  0  0  0  0  0  0  0
    3.7275   -0.3571    0.4406 C   0  0  0  0  0  0  0  0  0  0  0  0
    5.1566   -0.2463    0.2166 C   0  0  0  0  0  0  0  0  0  0  0  0
    5.6989    0.2941   -0.9078 C   0  0  0  0  0  0  0  0  0  0  0  0
    7.0943    0.3756   -1.0615 C   0  0  0  0  0  0  0  0  0  0  0  0
    7.9382   -0.0872   -0.0829 C   0  0  0  0  0  0  0  0  0  0  0  0
    9.3480   -0.0097   -0.2171 N   0  0  0  0  0  0  0  0  0  0  0  0
   10.1565   -1.1202    0.1139 C   0  0  0  0  0  0  0  0  0  0  0  0
    9.8707   -2.4103   -0.2713 C   0  0  0  0  0  0  0  0  0  0  0  0
   10.6521   -3.4926    0.0467 C   0  0  0  0  0  0  0  0  0  0  0  0
   11.8054   -3.2812    0.8046 C   0  0  0  0  0  0  0  0  0  0  0  0
   12.1260   -2.0053    1.2095 C   0  0  0  0  0  0  0  0  0  0  0  0
   11.3186   -0.9436    0.8719 C   0  0  0  0  0  0  0  0  0  0  0  0
    9.9214    1.1974   -0.6836 C   0  0  0  0  0  0  0  0  0  0  0  0
    9.4397    2.3823   -0.1281 C   0  0  0  0  0  0  0  0  0  0  0  0
    9.9448    3.5954   -0.5263 C   0  0  0  0  0  0  0  0  0  0  0  0
   10.9342    3.5826   -1.4861 C   0  0  0  0  0  0  0  0  0  0  0  0
   11.4248    2.4386   -2.0474 C   0  0  0  0  0  0  0  0  0  0  0  0
   10.9048    1.2393   -1.6335 C   0  0  0  0  0  0  0  0  0  0  0  0
    7.3802   -0.6305    1.0468 C   0  0  0  0  0  0  0  0  0  0  0  0
    6.0085   -0.7099    1.1967 C   0  0  0  0  0  0  0  0  0  0  0  0
    0.6909   -0.5154    0.7897 C   0  0  0  0  0  0  0  0  0  0  0  0
    1.2721   -1.0235    1.8779 N   0  0  0  0  0  0  0  0  0  0  0  0
    0.0161   -1.4818    2.8692 S   0  0  0  0  0  0  0  0  0  0  0  0
   -1.2480   -1.0236    1.8918 N   0  0  0  0  0  0  0  0  0  0  0  0
   -0.6765   -0.5138    0.7937 C   0  0  0  0  0  0  0  0  0  0  0  0
   -5.1225   -0.2990    0.3926 C   0  0  0  0  0  0  0  0  0  0  0  0
   -5.7496    0.2043   -0.7181 C   0  0  0  0  0  0  0  0  0  0  0  0
   -7.1543    0.2609   -0.8053 C   0  0  0  0  0  0  0  0  0  0  0  0
   -7.9252   -0.1780    0.2020 C   0  0  0  0  0  0  0  0  0  0  0  0
   -9.3301   -0.1530    0.2221 N   0  0  0  0  0  0  0  0  0  0  0  0
   -9.9123    0.2983    1.4742 C   0  0  0  0  0  0  0  0  0  0  0  0
   -9.3015    1.4574    1.9864 C   0  0  0  0  0  0  0  0  0  0  0  0
   -9.7334    2.0016    3.1670 C   0  0  0  0  0  0  0  0  0  0  0  0
  -10.7709    1.3932    3.8362 C   0  0  0  0  0  0  0  0  0  0  0  0
  -11.3869    0.2594    3.3595 C   0  0  0  0  0  0  0  0  0  0  0  0
  -10.9120   -0.2611    2.1499 C   0  0  0  0  0  0  0  0  0  0  0  0
  -10.1800   -0.3763   -0.9092 C   0  0  0  0  0  0  0  0  0  0  0  0
  -11.1650   -1.3170   -0.9164 C   0  0  0  0  0  0  0  0  0  0  0  0
  -12.0640   -1.4403   -1.9385 C   0  0  0  0  0  0  0  0  0  0  0  0
  -12.0141   -0.6020   -3.0347 C   0  0  0  0  0  0  0  0  0  0  0  0
  -11.0246    0.3537   -3.0440 C   0  0  0  0  0  0  0  0  0  0  0  0
  -10.1116    0.4781   -2.0002 C   0  0  0  0  0  0  0  0  0  0  0  0
   -7.3060   -0.7037    1.3616 C   0  0  0  0  0  0  0  0  0  0  0  0
   -5.9363   -0.7492    1.4241 C   0  0  0  0  0  0  0  0  0  0  0  0
   -3.3243   -0.8121    1.4846 H   0  0  0  0  0  0  0  0  0  0  0  0
   -3.3077    0.4557   -1.2742 H   0  0  0  0  0  0  0  0  0  0  0  0
   -1.2168    0.9023   -2.2501 H   0  0  0  0  0  0  0  0  0  0  0  0
    1.1859    0.9152   -2.2902 H   0  0  0  0  0  0  0  0  0  0  0  0
    3.2605    0.4843   -1.3304 H   0  0  0  0  0  0  0  0  0  0  0  0
    3.3524   -0.8028    1.3737 H   0  0  0  0  0  0  0  0  0  0  0  0
    5.1213    0.6827   -1.7281 H   0  0  0  0  0  0  0  0  0  0  0  0
    7.5068    0.8129   -1.9720 H   0  0  0  0  0  0  0  0  0  0  0  0
    8.9585   -2.5355   -0.8642 H   0  0  0  0  0  0  0  0  0  0  0  0
   10.4022   -4.5067   -0.2723 H   0  0  0  0  0  0  0  0  0  0  0  0
   12.4274   -4.1357    1.0591 H   0  0  0  0  0  0  0  0  0  0  0  0
   13.0247   -1.8297    1.8013 H   0  0  0  0  0  0  0  0  0  0  0  0
   11.5400    0.0732    1.1739 H   0  0  0  0  0  0  0  0  0  0  0  0
    8.6571    2.3837    0.6305 H   0  0  0  0  0  0  0  0  0  0  0  0
    9.5677    4.5055   -0.0929 H   0  0  0  0  0  0  0  0  0  0  0  0
   11.3283    4.5297   -1.7967 H   0  0  0  0  0  0  0  0  0  0  0  0
   12.1996    2.4833   -2.7954 H   0  0  0  0  0  0  0  0  0  0  0  0
   11.2703    0.3153   -2.0569 H   0  0  0  0  0  0  0  0  0  0  0  0
    8.0306   -0.9994    1.8266 H   0  0  0  0  0  0  0  0  0  0  0  0
    5.5920   -1.1412    2.0936 H   0  0  0  0  0  0  0  0  0  0  0  0
   -5.1715    0.5613   -1.5369 H   0  0  0  0  0  0  0  0  0  0  0  0
   -7.5088    0.6637   -1.7316 H   0  0  0  0  0  0  0  0  0  0  0  0
   -8.4875    1.9208    1.4467 H   0  0  0  0  0  0  0  0  0  0  0  0
   -9.2546    2.8873    3.5434 H   0  0  0  0  0  0  0  0  0  0  0  0
  -11.0916    1.8439    4.7652 H   0  0  0  0  0  0  0  0  0  0  0  0
  -12.1991   -0.2314    3.8665 H   0  0  0  0  0  0  0  0  0  0  0  0
  -11.3949   -1.1435    1.8004 H   0  0  0  0  0  0  0  0  0  0  0  0
  -11.2320   -2.0284   -0.1147 H   0  0  0  0  0  0  0  0  0  0  0  0
  -12.8278   -2.1978   -1.9022 H   0  0  0  0  0  0  0  0  0  0  0  0
  -12.7353   -0.7211   -3.8286 H   0  0  0  0  0  0  0  0  0  0  0  0
  -10.9786    1.0201   -3.9082 H   0  0  0  0  0  0  0  0  0  0  0  0
   -9.4149    1.2886   -2.0876 H   0  0  0  0  0  0  0  0  0  0  0  0
   -7.8932   -1.0572    2.1699 H   0  0  0  0  0  0  0  0  0  0  0  0
   -5.4325   -1.1534    2.3146 H   0  0  0  0  0  0  0  0  0  0  0  0
  1  2  2  0
  2  3  1  0
  3  4  2  0
  4  5  1  0
  5  6  2  0
  6  7  1  0
  7  8  2  0
  8  9  1  0
  9 10  2  0
 10 11  1  0
 11 12  2  0
 12 13  1  0
 13 14  1  0
 14 15  2  0
 15 16  1  0
 16 17  2  0
 17 18  1  0
 18 19  2  0
 13 20  1  0
 20 21  2  0
 21 22  1  0
 22 23  2  0
 23 24  1  0
 24 25  2  0
 12 26  1  0
 26 27  2  0
  6 28  1  0
 28 29  2  0
 29 30  1  0
 30 31  1  0
 31 32  2  0
  1 33  1  0
 33 34  2  0
 34 35  1  0
 35 36  2  0
 36 37  1  0
 37 38  1  0
 38 39  2  0
 39 40  1  0
 40 41  2  0
 41 42  1  0
 42 43  2  0
 37 44  1  0
 44 45  2  0
 45 46  1  0
 46 47  2  0
 47 48  1  0
 48 49  2  0
 36 50  1  0
 50 51  2  0
 32  3  1  0
 51 33  1  0
 27  9  1  0
 32 28  1  0
 43 38  1  0
 49 44  1  0
 19 14  1  0
 25 20  1  0
  1 52  1  0
  2 53  1  0
  4 54  1  0
  5 55  1  0
  7 56  1  0
  8 57  1  0
 10 58  1  0
 11 59  1  0
 15 60  1  0
 16 61  1  0
 17 62  1  0
 18 63  1  0
 19 64  1  0
 21 65  1  0
 22 66  1  0
 23 67  1  0
 24 68  1  0
 25 69  1  0
 26 70  1  0
 27 71  1  0
 34 72  1  0
 35 73  1  0
 39 74  1  0
 40 75  1  0
 41 76  1  0
 42 77  1  0
 43 78  1  0
 45 79  1  0
 46 80  1  0
 47 81  1  0
 48 82  1  0
 49 83  1  0
 50 84  1  0
 51 85  1  0
M  END
