
     RDKit          3D

 57 62  0  0  0  0  0  0  0  0999 V2000
    4.2369   -1.3259   -1.5339 C   0  0  0  0  0  0  0  0  0  0  0  0
    3.0765   -1.3219   -1.2391 C   0  0  0  0  0  0  0  0  0  0  0  0
    1.6876   -1.3323   -0.8959 C   0  0  0  0  0  0  0  0  0  0  0  0
    0.7365   -2.2418   -1.2453 C   0  0  0  0  0  0  0  0  0  0  0  0
   -0.6470   -2.0114   -1.0076 C   0  0  0  0  0  0  0  0  0  0  0  0
   -1.5650   -3.0459   -1.3408 C   0  0  0  0  0  0  0  0  0  0  0  0
   -2.3763   -3.9353   -1.6360 C   0  0  0  0  0  0  0  0  0  0  0  0
   -3.3475   -4.9652   -1.9733 C   0  0  0  0  0  0  0  0  0  0  0  0
   -4.6843   -4.9002   -2.1771 C   0  0  0  0  0  0  0  0  0  0  0  0
   -5.3271   -6.0267   -2.4953 C   0  0  0  0  0  0  0  0  0  0  0  0
   -4.5682   -7.1757   -2.5894 C   0  0  0  0  0  0  0  0  0  0  0  0
   -2.9897   -6.6137   -2.2279 S   0  0  0  0  0  0  0  0  0  0  0  0
   -1.0748   -0.8561   -0.4275 C   0  0  0  0  0  0  0  0  0  0  0  0
   -2.3713   -0.5630    0.0977 C   0  0  0  0  0  0  0  0  0  0  0  0
   -3.4609   -0.3238    0.5486 C   0  0  0  0  0  0  0  0  0  0  0  0
   -4.7705   -0.0398    1.1092 C   0  0  0  0  0  0  0  0  0  0  0  0
   -5.8009    0.6638    0.5645 C   0  0  0  0  0  0  0  0  0  0  0  0
   -6.9003    0.8223    1.3099 C   0  0  0  0  0  0  0  0  0  0  0  0
   -6.9177    0.2696    2.5650 C   0  0  0  0  0  0  0  0  0  0  0  0
   -5.3829   -0.4671    2.6699 S   0  0  0  0  0  0  0  0  0  0  0  0
   -0.1083    0.0892   -0.0789 C   0  0  0  0  0  0  0  0  0  0  0  0
   -0.3778    1.4711    0.1137 C   0  0  0  0  0  0  0  0  0  0  0  0
   -0.5961    2.6951    0.2742 C   0  0  0  0  0  0  0  0  0  0  0  0
   -0.8702    4.0982    0.4561 C   0  0  0  0  0  0  0  0  0  0  0  0
   -0.9378    4.8873    1.5589 C   0  0  0  0  0  0  0  0  0  0  0  0
   -1.2054    6.1858    1.3907 C   0  0  0  0  0  0  0  0  0  0  0  0
   -1.3936    6.6515    0.1094 C   0  0  0  0  0  0  0  0  0  0  0  0
   -1.1944    5.2158   -0.8312 S   0  0  0  0  0  0  0  0  0  0  0  0
    1.2444   -0.1785   -0.2997 C   0  0  0  0  0  0  0  0  0  0  0  0
    2.1139    0.5704    0.6713 C   0  0  0  0  0  0  0  0  0  0  0  0
    2.8216    1.1608    1.4692 C   0  0  0  0  0  0  0  0  0  0  0  0
    3.6412    1.8617    2.3752 C   0  0  0  0  0  0  0  0  0  0  0  0
    3.9285    1.5634    3.6981 C   0  0  0  0  0  0  0  0  0  0  0  0
    4.7084    2.4080    4.3737 C   0  0  0  0  0  0  0  0  0  0  0  0
    5.1791    3.5118    3.7157 C   0  0  0  0  0  0  0  0  0  0  0  0
    4.5111    3.3434    2.1520 S   0  0  0  0  0  0  0  0  0  0  0  0
    5.6392   -1.3362   -1.9151 C   0  0  0  0  0  0  0  0  0  0  0  0
    6.1138   -0.6463   -3.0198 C   0  0  0  0  0  0  0  0  0  0  0  0
    7.4347   -0.6932   -3.2331 C   0  0  0  0  0  0  0  0  0  0  0  0
    8.2030   -1.4014   -2.3672 C   0  0  0  0  0  0  0  0  0  0  0  0
    7.0286   -2.0076   -1.2433 S   0  0  0  0  0  0  0  0  0  0  0  0
    1.0363   -3.1509   -1.7183 H   0  0  0  0  0  0  0  0  0  0  0  0
   -5.2182   -3.9159   -2.0757 H   0  0  0  0  0  0  0  0  0  0  0  0
   -6.4109   -6.0835   -2.6940 H   0  0  0  0  0  0  0  0  0  0  0  0
   -4.9284   -8.1901   -2.8426 H   0  0  0  0  0  0  0  0  0  0  0  0
   -5.6932    1.0905   -0.4581 H   0  0  0  0  0  0  0  0  0  0  0  0
   -7.7936    1.3987    0.9416 H   0  0  0  0  0  0  0  0  0  0  0  0
   -7.7527    0.3254    3.2945 H   0  0  0  0  0  0  0  0  0  0  0  0
   -0.7758    4.4560    2.5853 H   0  0  0  0  0  0  0  0  0  0  0  0
   -1.2724    6.9176    2.2215 H   0  0  0  0  0  0  0  0  0  0  0  0
   -1.6211    7.6993   -0.2144 H   0  0  0  0  0  0  0  0  0  0  0  0
    3.5037    0.6479    4.1309 H   0  0  0  0  0  0  0  0  0  0  0  0
    5.0098    2.2412    5.4319 H   0  0  0  0  0  0  0  0  0  0  0  0
    5.8318    4.3128    4.1233 H   0  0  0  0  0  0  0  0  0  0  0  0
    5.4324   -0.0867   -3.7029 H   0  0  0  0  0  0  0  0  0  0  0  0
    7.9216   -0.1618   -4.1083 H   0  0  0  0  0  0  0  0  0  0  0  0
    9.2935   -1.5607   -2.3605 H   0  0  0  0  0  0  0  0  0  0  0  0
  1  2  3  0
  2  3  1  0
  3  4  2  0
  4  5  1  0
  5  6  1  0
  6  7  3  0
  7  8  1  0
  8  9  2  0
  9 10  1  0
 10 11  2  0
 11 12  1  0
  5 13  2  0
 13 14  1  0
 14 15  3  0
 15 16  1  0
 16 17  2  0
 17 18  1  0
 18 19  2  0
 19 20  1  0
 13 21  1  0
 21 22  1  0
 22 23  3  0
 23 24  1  0
 24 25  2  0
 25 26  1  0
 26 27  2  0
 27 28  1  0
 21 29  2  0
 29 30  1  0
 30 31  3  0
 31 32  1  0
 32 33  2  0
 33 34  1  0
 34 35  2  0
 35 36  1  0
  1 37  1  0
 37 38  2  0
 38 39  1  0
 39 40  2  0
 40 41  1  0
 29  3  1  0
 36 32  1  0
 41 37  1  0
 12  8  1  0
 20 16  1  0
 28 24  1  0
  4 42  1  0
  9 43  1  0
 10 44  1  0
 11 45  1  0
 17 46  1  0
 18 47  1  0
 19 48  1  0
 25 49  1  0
 26 50  1  0
 27 51  1  0
 33 52  1  0
 34 53  1  0
 35 54  1  0
 38 55  1  0
 39 56  1  0
 40 57  1  0
M  END
