
     RDKit          3D

 20 20  0  0  0  0  0  0  0  0999 V2000
   -3.7501   -0.4411   -0.2557 C   0  0  0  0  0  0  0  0  0  0  0  0
   -2.2859   -0.7145   -0.0589 C   0  0  0  0  0  0  0  0  0  0  0  0
   -1.9168   -1.8780    0.1531 O   0  0  0  0  0  0  0  0  0  0  0  0
   -1.3394    0.3109   -0.1101 N   0  0  0  0  0  0  0  0  0  0  0  0
    0.0435    0.2155    0.0491 C   0  0  0  0  0  0  0  0  0  0  0  0
    0.7619   -0.9345    0.1773 C   0  0  0  0  0  0  0  0  0  0  0  0
    2.1394   -0.8636    0.3391 C   0  0  0  0  0  0  0  0  0  0  0  0
    2.8456    0.3033    0.3801 C   0  0  0  0  0  0  0  0  0  0  0  0
    4.2239    0.3441    0.5432 O   0  0  0  0  0  0  0  0  0  0  0  0
    2.1195    1.4781    0.2499 C   0  0  0  0  0  0  0  0  0  0  0  0
    0.7543    1.4327    0.0887 C   0  0  0  0  0  0  0  0  0  0  0  0
   -4.1757    0.1081    0.6035 H   0  0  0  0  0  0  0  0  0  0  0  0
   -4.2966   -1.4062   -0.3973 H   0  0  0  0  0  0  0  0  0  0  0  0
   -3.8895    0.1401   -1.1911 H   0  0  0  0  0  0  0  0  0  0  0  0
   -1.7537    1.2951   -0.3014 H   0  0  0  0  0  0  0  0  0  0  0  0
    0.2475   -1.8647    0.1463 H   0  0  0  0  0  0  0  0  0  0  0  0
    2.6632   -1.7912    0.4361 H   0  0  0  0  0  0  0  0  0  0  0  0
    4.7199   -0.5352    0.6350 H   0  0  0  0  0  0  0  0  0  0  0  0
    2.6484    2.4038    0.2786 H   0  0  0  0  0  0  0  0  0  0  0  0
    0.2406    2.3972   -0.0080 H   0  0  0  0  0  0  0  0  0  0  0  0
  1  2  1  0
  2  3  2  0
  2  4  1  0
  4  5  1  0
  5  6  2  0
  6  7  1  0
  7  8  2  0
  8  9  1  0
  8 10  1  0
 10 11  2  0
 11  5  1  0
  1 12  1  0
  1 13  1  0
  1 14  1  0
  4 15  1  0
  6 16  1  0
  7 17  1  0
  9 18  1  0
 10 19  1  0
 11 20  1  0
M  END
