
     RDKit          3D

 43 46  0  0  0  0  0  0  0  0999 V2000
    5.5546   -1.1692   -0.6141 C   0  0  0  0  0  0  0  0  0  0  0  0
    4.6923    0.0244   -0.1827 C   0  0  0  0  0  0  0  0  0  0  0  0
    4.1469    0.7386   -1.4036 C   0  0  0  0  0  0  0  0  0  0  0  0
    3.1200   -0.2814   -2.4203 S   0  0  0  0  0  0  0  0  0  0  0  0
    1.5634   -0.7793   -1.7695 C   0  0  0  0  0  0  0  0  0  0  0  0
    0.9446   -2.0223   -1.9798 C   0  0  0  0  0  0  0  0  0  0  0  0
   -0.2699   -2.0416   -1.3748 C   0  0  0  0  0  0  0  0  0  0  0  0
   -0.4329   -0.7927   -0.7684 C   0  0  0  0  0  0  0  0  0  0  0  0
    0.6588   -0.0753   -1.0166 N   0  0  0  0  0  0  0  0  0  0  0  0
    0.7942    1.3389   -0.4930 B   0  0  0  0  0  4  0  0  0  0  0  0
    1.8672    1.3287    0.5340 F   0  0  0  0  0  0  0  0  0  0  0  0
    1.1607    2.2803   -1.5396 F   0  0  0  0  0  0  0  0  0  0  0  0
   -0.4462    1.7738    0.2569 N   0  0  0  0  0  4  0  0  0  0  0  0
   -0.7057    2.9314    0.8362 C   0  0  0  0  0  0  0  0  0  0  0  0
    0.4055    4.3315    0.8709 S   0  0  0  0  0  0  0  0  0  0  0  0
   -0.3555    5.6788    1.7070 C   0  0  0  0  0  0  0  0  0  0  0  0
   -0.8759    6.5688    2.2794 N   0  0  0  0  0  0  0  0  0  0  0  0
   -2.0052    2.8619    1.4284 C   0  0  0  0  0  0  0  0  0  0  0  0
   -2.5511    1.6752    1.2209 C   0  0  0  0  0  0  0  0  0  0  0  0
   -1.5399    0.9292    0.4442 C   0  0  0  0  0  0  0  0  0  0  0  0
   -1.6001   -0.3088   -0.0125 C   0  0  0  0  0  0  0  0  0  0  0  0
   -2.7537   -1.1635    0.2478 C   0  0  0  0  0  0  0  0  0  0  0  0
   -3.4118   -1.8792   -0.7155 C   0  0  0  0  0  0  0  0  0  0  0  0
   -4.4775   -2.6834   -0.3860 C   0  0  0  0  0  0  0  0  0  0  0  0
   -4.9060   -2.7866    0.9161 C   0  0  0  0  0  0  0  0  0  0  0  0
   -4.2661   -2.0779    1.9208 C   0  0  0  0  0  0  0  0  0  0  0  0
   -3.2088   -1.2873    1.5591 C   0  0  0  0  0  0  0  0  0  0  0  0
    5.8561   -1.6899    0.3112 H   0  0  0  0  0  0  0  0  0  0  0  0
    5.0344   -1.8110   -1.3345 H   0  0  0  0  0  0  0  0  0  0  0  0
    6.4694   -0.7577   -1.0951 H   0  0  0  0  0  0  0  0  0  0  0  0
    3.9270   -0.2873    0.5277 H   0  0  0  0  0  0  0  0  0  0  0  0
    5.3801    0.7264    0.3285 H   0  0  0  0  0  0  0  0  0  0  0  0
    5.0962    0.9479   -2.0192 H   0  0  0  0  0  0  0  0  0  0  0  0
    3.7622    1.7403   -1.2058 H   0  0  0  0  0  0  0  0  0  0  0  0
    1.4152   -2.8121   -2.5505 H   0  0  0  0  0  0  0  0  0  0  0  0
   -1.0087   -2.8563   -1.3378 H   0  0  0  0  0  0  0  0  0  0  0  0
   -2.4609    3.6813    1.9701 H   0  0  0  0  0  0  0  0  0  0  0  0
   -3.5124    1.3127    1.5307 H   0  0  0  0  0  0  0  0  0  0  0  0
   -3.0668   -1.7802   -1.7426 H   0  0  0  0  0  0  0  0  0  0  0  0
   -4.9630   -3.2237   -1.1697 H   0  0  0  0  0  0  0  0  0  0  0  0
   -5.7487   -3.4182    1.1979 H   0  0  0  0  0  0  0  0  0  0  0  0
   -4.6068   -2.1583    2.9625 H   0  0  0  0  0  0  0  0  0  0  0  0
   -2.6752   -0.7267    2.3266 H   0  0  0  0  0  0  0  0  0  0  0  0
  1  2  1  0
  2  3  1  0
  3  4  1  0
  4  5  1  0
  5  6  2  0
  6  7  1  0
  7  8  2  0
  8  9  1  0
  9 10  1  0
 10 11  1  0
 10 12  1  0
 10 13  1  0
 13 14  2  0
 14 15  1  0
 15 16  1  0
 16 17  3  0
 14 18  1  0
 18 19  2  0
 19 20  1  0
 20 21  2  0
 21 22  1  0
 22 23  2  0
 23 24  1  0
 24 25  2  0
 25 26  1  0
 26 27  2  0
  9  5  1  0
 20 13  1  0
 27 22  1  0
 21  8  1  0
  1 28  1  0
  1 29  1  0
  1 30  1  0
  2 31  1  0
  2 32  1  0
  3 33  1  0
  3 34  1  0
  6 35  1  0
  7 36  1  0
 18 37  1  0
 19 38  1  0
 23 39  1  0
 24 40  1  0
 25 41  1  0
 26 42  1  0
 27 43  1  0
M  CHG  2  10  -1  13   1
M  END
