
     RDKit          3D

 32 34  0  0  0  0  0  0  0  0999 V2000
   -3.4250   -2.6727    0.2711 C   0  0  0  0  0  0  0  0  0  0  0  0
   -3.3420   -1.2120    0.1795 N   0  0  0  0  0  0  0  0  0  0  0  0
   -2.0691   -0.5736    0.1597 C   0  0  0  0  0  0  0  0  0  0  0  0
   -0.8990   -1.3488    0.2176 C   0  0  0  0  0  0  0  0  0  0  0  0
    0.3481   -0.7655    0.1990 C   0  0  0  0  0  0  0  0  0  0  0  0
    1.4831   -1.4935    0.2539 N   0  0  0  0  0  0  0  0  0  0  0  0
    2.6897   -0.8826    0.2331 C   0  0  0  0  0  0  0  0  0  0  0  0
    3.8691   -1.6025    0.2880 C   0  0  0  0  0  0  0  0  0  0  0  0
    5.0707   -0.9597    0.2654 C   0  0  0  0  0  0  0  0  0  0  0  0
    6.2471   -1.6598    0.3191 F   0  0  0  0  0  0  0  0  0  0  0  0
    5.1576    0.4126    0.1881 C   0  0  0  0  0  0  0  0  0  0  0  0
    6.3582    1.0499    0.1658 F   0  0  0  0  0  0  0  0  0  0  0  0
    4.0003    1.1444    0.1328 C   0  0  0  0  0  0  0  0  0  0  0  0
    2.7648    0.4923    0.1556 C   0  0  0  0  0  0  0  0  0  0  0  0
    1.6217    1.1858    0.1026 N   0  0  0  0  0  0  0  0  0  0  0  0
    0.4118    0.6097    0.1213 C   0  0  0  0  0  0  0  0  0  0  0  0
   -0.7180    1.3956    0.0632 C   0  0  0  0  0  0  0  0  0  0  0  0
   -1.9751    0.7862    0.0832 C   0  0  0  0  0  0  0  0  0  0  0  0
   -3.1338    1.6026    0.0223 N   0  0  0  0  0  0  0  0  0  0  0  0
   -2.9946    3.0671   -0.0544 C   0  0  0  0  0  0  0  0  0  0  0  0
   -3.2519   -3.0560   -0.7365 H   0  0  0  0  0  0  0  0  0  0  0  0
   -4.4371   -2.9173    0.6418 H   0  0  0  0  0  0  0  0  0  0  0  0
   -2.7298   -3.0767    1.0355 H   0  0  0  0  0  0  0  0  0  0  0  0
   -4.2464   -0.7104    0.1304 H   0  0  0  0  0  0  0  0  0  0  0  0
   -0.9705   -2.4141    0.2766 H   0  0  0  0  0  0  0  0  0  0  0  0
    3.8144   -2.6852    0.3491 H   0  0  0  0  0  0  0  0  0  0  0  0
    4.0453    2.2173    0.0721 H   0  0  0  0  0  0  0  0  0  0  0  0
   -0.6261    2.4865    0.0015 H   0  0  0  0  0  0  0  0  0  0  0  0
   -4.1076    1.2443    0.0260 H   0  0  0  0  0  0  0  0  0  0  0  0
   -3.9624    3.5268    0.2165 H   0  0  0  0  0  0  0  0  0  0  0  0
   -2.7137    3.4026   -1.0548 H   0  0  0  0  0  0  0  0  0  0  0  0
   -2.2797    3.4064    0.7456 H   0  0  0  0  0  0  0  0  0  0  0  0
  1  2  1  0
  2  3  1  0
  3  4  2  0
  4  5  1  0
  5  6  2  0
  6  7  1  0
  7  8  2  0
  8  9  1  0
  9 10  1  0
  9 11  2  0
 11 12  1  0
 11 13  1  0
 13 14  2  0
 14 15  1  0
 15 16  2  0
 16 17  1  0
 17 18  2  0
 18 19  1  0
 19 20  1  0
 18  3  1  0
 16  5  1  0
 14  7  1  0
  1 21  1  0
  1 22  1  0
  1 23  1  0
  2 24  1  0
  4 25  1  0
  8 26  1  0
 13 27  1  0
 17 28  1  0
 19 29  1  0
 20 30  1  0
 20 31  1  0
 20 32  1  0
M  END
