
     RDKit          3D

 54 57  0  0  0  0  0  0  0  0999 V2000
   -2.7975   -3.2636    0.5528 C   0  0  0  0  0  0  0  0  0  0  0  0
   -3.1237   -2.0150   -0.2060 C   0  0  0  0  0  0  0  0  0  0  0  0
   -3.4535   -2.3726   -1.6504 C   0  0  0  0  0  0  0  0  0  0  0  0
   -4.4082   -1.4565    0.4464 C   0  0  0  0  0  0  0  0  0  0  0  0
   -2.0511   -1.0204   -0.1078 C   0  0  0  0  0  0  0  0  0  0  0  0
   -0.7182   -1.3844   -0.2017 C   0  0  0  0  0  0  0  0  0  0  0  0
    0.2805   -0.4244   -0.1023 C   0  0  0  0  0  0  0  0  0  0  0  0
   -0.0763    0.8954    0.0866 C   0  0  0  0  0  0  0  0  0  0  0  0
   -1.3974    1.2648    0.1796 C   0  0  0  0  0  0  0  0  0  0  0  0
   -1.7213    2.6806    0.3857 C   0  0  0  0  0  0  0  0  0  0  0  0
   -1.1063    3.2059    1.6610 C   0  0  0  0  0  0  0  0  0  0  0  0
   -3.2100    2.9369    0.4500 C   0  0  0  0  0  0  0  0  0  0  0  0
   -1.1737    3.4762   -0.7796 C   0  0  0  0  0  0  0  0  0  0  0  0
   -2.3856    0.3211    0.0862 C   0  0  0  0  0  0  0  0  0  0  0  0
    0.8789    1.8769    0.1909 O   0  0  0  0  0  0  0  0  0  0  0  0
    2.3358    1.6172    0.1374 B   0  0  0  0  0  4  0  0  0  0  0  0
    2.8350    2.4196   -0.9801 F   0  0  0  0  0  0  0  0  0  0  0  0
    2.8644    2.1697    1.4006 F   0  0  0  0  0  0  0  0  0  0  0  0
    2.6743    0.1651   -0.0613 N   0  0  0  0  0  4  0  0  0  0  0  0
    1.7064   -0.7748   -0.1779 C   0  0  0  0  0  0  0  0  0  0  0  0
    2.0496   -2.0661   -0.3390 N   0  0  0  0  0  0  0  0  0  0  0  0
    3.3376   -2.4718   -0.3895 C   0  0  0  0  0  0  0  0  0  0  0  0
    3.6371   -3.6891   -0.5434 O   0  0  0  0  0  0  0  0  0  0  0  0
    4.3199   -1.5369   -0.2737 C   0  0  0  0  0  0  0  0  0  0  0  0
    5.6363   -1.9317   -0.3236 C   0  0  0  0  0  0  0  0  0  0  0  0
    6.6316   -0.9838   -0.2068 C   0  0  0  0  0  0  0  0  0  0  0  0
    6.2959    0.3370   -0.0423 C   0  0  0  0  0  0  0  0  0  0  0  0
    4.9747    0.7115    0.0055 C   0  0  0  0  0  0  0  0  0  0  0  0
    3.9613   -0.1958   -0.1059 C   0  0  0  0  0  0  0  0  0  0  0  0
   -1.7322   -3.4468    0.7474 H   0  0  0  0  0  0  0  0  0  0  0  0
   -3.3686   -3.3380    1.5061 H   0  0  0  0  0  0  0  0  0  0  0  0
   -3.1608   -4.1355   -0.0555 H   0  0  0  0  0  0  0  0  0  0  0  0
   -3.6389   -3.4498   -1.7976 H   0  0  0  0  0  0  0  0  0  0  0  0
   -2.6389   -2.0883   -2.3424 H   0  0  0  0  0  0  0  0  0  0  0  0
   -4.3783   -1.8351   -1.9916 H   0  0  0  0  0  0  0  0  0  0  0  0
   -4.8878   -0.6902   -0.1527 H   0  0  0  0  0  0  0  0  0  0  0  0
   -4.0939   -1.1735    1.4528 H   0  0  0  0  0  0  0  0  0  0  0  0
   -5.0694   -2.3508    0.5394 H   0  0  0  0  0  0  0  0  0  0  0  0
   -0.4632   -2.4285   -0.3716 H   0  0  0  0  0  0  0  0  0  0  0  0
   -1.0114    2.3344    2.3662 H   0  0  0  0  0  0  0  0  0  0  0  0
   -0.1390    3.7217    1.5110 H   0  0  0  0  0  0  0  0  0  0  0  0
   -1.7796    3.9241    2.1821 H   0  0  0  0  0  0  0  0  0  0  0  0
   -3.6798    2.5874   -0.4750 H   0  0  0  0  0  0  0  0  0  0  0  0
   -3.3722    4.0142    0.5228 H   0  0  0  0  0  0  0  0  0  0  0  0
   -3.6659    2.4319    1.3152 H   0  0  0  0  0  0  0  0  0  0  0  0
   -0.2628    4.0061   -0.4981 H   0  0  0  0  0  0  0  0  0  0  0  0
   -0.9178    2.7996   -1.6407 H   0  0  0  0  0  0  0  0  0  0  0  0
   -1.8728    4.2187   -1.1643 H   0  0  0  0  0  0  0  0  0  0  0  0
   -3.3980    0.6342    0.1721 H   0  0  0  0  0  0  0  0  0  0  0  0
    1.3482   -2.8515   -0.4418 H   0  0  0  0  0  0  0  0  0  0  0  0
    5.9154   -2.9617   -0.4577 H   0  0  0  0  0  0  0  0  0  0  0  0
    7.6930   -1.2636   -0.2327 H   0  0  0  0  0  0  0  0  0  0  0  0
    7.0765    1.0890    0.0609 H   0  0  0  0  0  0  0  0  0  0  0  0
    4.7019    1.7611    0.1545 H   0  0  0  0  0  0  0  0  0  0  0  0
  1  2  1  0
  2  3  1  0
  2  4  1  0
  2  5  1  0
  5  6  2  0
  6  7  1  0
  7  8  2  0
  8  9  1  0
  9 10  1  0
 10 11  1  0
 10 12  1  0
 10 13  1  0
  9 14  2  0
  8 15  1  0
 15 16  1  0
 16 17  1  0
 16 18  1  0
 16 19  1  0
 19 20  2  0
 20 21  1  0
 21 22  1  0
 22 23  2  0
 22 24  1  0
 24 25  2  0
 25 26  1  0
 26 27  2  0
 27 28  1  0
 28 29  2  0
 14  5  1  0
 29 19  1  0
 20  7  1  0
 29 24  1  0
  1 30  1  0
  1 31  1  0
  1 32  1  0
  3 33  1  0
  3 34  1  0
  3 35  1  0
  4 36  1  0
  4 37  1  0
  4 38  1  0
  6 39  1  0
 11 40  1  0
 11 41  1  0
 11 42  1  0
 12 43  1  0
 12 44  1  0
 12 45  1  0
 13 46  1  0
 13 47  1  0
 13 48  1  0
 14 49  1  0
 21 50  1  0
 25 51  1  0
 26 52  1  0
 27 53  1  0
 28 54  1  0
M  CHG  2  16  -1  19   1
M  END
