
     RDKit          3D

 38 40  0  0  0  0  0  0  0  0999 V2000
   -7.2035   -0.6763    0.1610 C   0  0  0  0  0  0  0  0  0  0  0  0
   -6.1927   -0.1057    0.8283 O   0  0  0  0  0  0  0  0  0  0  0  0
   -4.8535   -0.0236    0.7471 C   0  0  0  0  0  0  0  0  0  0  0  0
   -4.1100   -0.5238   -0.2897 C   0  0  0  0  0  0  0  0  0  0  0  0
   -2.7938   -0.4357   -0.2411 C   0  0  0  0  0  0  0  0  0  0  0  0
   -2.0023    0.1994    0.9271 C   0  0  0  0  0  0  0  0  0  0  0  0
   -0.8150   -0.0478    0.7063 C   0  0  0  0  0  0  0  0  0  0  0  0
    0.5993   -0.3635    0.4316 C   0  0  0  0  0  0  0  0  0  0  0  0
    1.9259   -0.6552    0.1792 C   0  0  0  0  0  0  0  0  0  0  0  0
    2.6431   -1.6109    0.8583 N   0  0  0  0  0  0  0  0  0  0  0  0
    3.9033   -1.6047    0.3651 C   0  0  0  0  0  0  0  0  0  0  0  0
    3.8618   -0.6251   -0.6037 C   0  0  0  0  0  0  0  0  0  0  0  0
    4.9693   -0.1625   -1.4805 C   0  0  0  0  0  0  0  0  0  0  0  0
    6.2932   -0.6604   -0.9553 C   0  0  0  0  0  0  0  0  0  0  0  0
    7.3054   -0.2188   -1.8142 C   0  0  0  0  0  0  0  0  0  0  0  0
    7.2659    0.4898   -2.9099 C   0  0  0  0  0  0  0  0  0  0  0  0
    5.9685    0.9683   -3.4171 C   0  0  0  0  0  0  0  0  0  0  0  0
    4.9827    0.5124   -2.5270 C   0  0  0  0  0  0  0  0  0  0  0  0
    2.6975   -0.1131   -0.6841 O   0  0  0  0  0  0  0  0  0  0  0  0
   -2.8147    0.6680    1.8666 C   0  0  0  0  0  0  0  0  0  0  0  0
   -4.1851    0.6131    1.8813 C   0  0  0  0  0  0  0  0  0  0  0  0
   -5.0597    1.0445    2.7340 O   0  0  0  0  0  0  0  0  0  0  0  0
   -4.5147    1.7630    3.9783 C   0  0  0  0  0  0  0  0  0  0  0  0
   -7.5680   -0.1844   -0.7524 H   0  0  0  0  0  0  0  0  0  0  0  0
   -8.0792   -0.8750    0.8385 H   0  0  0  0  0  0  0  0  0  0  0  0
   -6.9234   -1.7374   -0.2444 H   0  0  0  0  0  0  0  0  0  0  0  0
   -4.6444   -1.0451   -1.0990 H   0  0  0  0  0  0  0  0  0  0  0  0
   -2.1271   -0.7763   -1.0303 H   0  0  0  0  0  0  0  0  0  0  0  0
    4.7440   -2.2008    0.6286 H   0  0  0  0  0  0  0  0  0  0  0  0
    6.3348   -1.2019   -0.1299 H   0  0  0  0  0  0  0  0  0  0  0  0
    8.3362   -0.5212   -1.4706 H   0  0  0  0  0  0  0  0  0  0  0  0
    8.0621    0.8141   -3.5531 H   0  0  0  0  0  0  0  0  0  0  0  0
    5.8610    1.5079   -4.2695 H   0  0  0  0  0  0  0  0  0  0  0  0
    3.9376    0.8857   -2.8737 H   0  0  0  0  0  0  0  0  0  0  0  0
   -2.2569    1.1621    2.7258 H   0  0  0  0  0  0  0  0  0  0  0  0
   -3.8448    1.1665    4.5017 H   0  0  0  0  0  0  0  0  0  0  0  0
   -4.1941    2.7177    3.5843 H   0  0  0  0  0  0  0  0  0  0  0  0
   -5.5086    1.8566    4.5334 H   0  0  0  0  0  0  0  0  0  0  0  0
  1  2  1  0
  2  3  1  0
  3  4  2  0
  4  5  1  0
  5  6  2  0
  6  7  1  0
  7  8  3  0
  8  9  1  0
  9 10  2  0
 10 11  1  0
 11 12  2  0
 12 13  1  0
 13 14  2  0
 14 15  1  0
 15 16  2  0
 16 17  1  0
 17 18  2  0
 12 19  1  0
  6 20  1  0
 20 21  2  0
 21 22  1  0
 22 23  1  0
 21  3  1  0
 19  9  1  0
 18 13  1  0
  1 24  1  0
  1 25  1  0
  1 26  1  0
  4 27  1  0
  5 28  1  0
 11 29  1  0
 14 30  1  0
 15 31  1  0
 16 32  1  0
 17 33  1  0
 18 34  1  0
 20 35  1  0
 23 36  1  0
 23 37  1  0
 23 38  1  0
M  END
