
     RDKit          3D

 55 58  0  0  0  0  0  0  0  0999 V2000
   -4.1460    5.4540   -1.5523 C   0  0  0  0  0  0  0  0  0  0  0  0
   -4.5782    4.1479   -1.8735 O   0  0  0  0  0  0  0  0  0  0  0  0
   -3.8284    3.0191   -1.5254 C   0  0  0  0  0  0  0  0  0  0  0  0
   -4.2571    1.7493   -1.8467 C   0  0  0  0  0  0  0  0  0  0  0  0
   -3.4992    0.6764   -1.4734 C   0  0  0  0  0  0  0  0  0  0  0  0
   -2.2812    0.8341   -0.7643 C   0  0  0  0  0  0  0  0  0  0  0  0
   -1.5656   -0.3511   -0.4644 N   0  0  0  0  0  0  0  0  0  0  0  0
   -2.3721   -1.4484   -0.0379 C   0  0  0  0  0  0  0  0  0  0  0  0
   -3.3096   -1.2245    0.9547 C   0  0  0  0  0  0  0  0  0  0  0  0
   -4.1598   -2.1482    1.4678 C   0  0  0  0  0  0  0  0  0  0  0  0
   -4.0903   -3.4527    0.9503 C   0  0  0  0  0  0  0  0  0  0  0  0
   -4.9119   -4.4233    1.4446 O   0  0  0  0  0  0  0  0  0  0  0  0
   -5.8348   -4.1451    2.4571 C   0  0  0  0  0  0  0  0  0  0  0  0
   -3.1884   -3.7129   -0.0300 C   0  0  0  0  0  0  0  0  0  0  0  0
   -2.3275   -2.7251   -0.5303 C   0  0  0  0  0  0  0  0  0  0  0  0
   -0.1876   -0.4548   -0.3270 C   0  0  0  0  0  0  0  0  0  0  0  0
    0.4132    0.4285    0.5974 C   0  0  0  0  0  0  0  0  0  0  0  0
    1.7550    0.4983    0.7907 C   0  0  0  0  0  0  0  0  0  0  0  0
    2.5932   -0.3096    0.0795 C   0  0  0  0  0  0  0  0  0  0  0  0
    4.0563   -0.2191    0.2101 C   0  0  0  0  0  0  0  0  0  0  0  0
    5.0138   -1.0535   -0.2809 C   0  0  0  0  0  0  0  0  0  0  0  0
    6.2959   -0.7659   -0.0104 C   0  0  0  0  0  0  0  0  0  0  0  0
    6.5737    0.3396    0.7285 C   0  0  0  0  0  0  0  0  0  0  0  0
    7.8106    0.9639    1.1888 C   0  0  0  0  0  0  0  0  0  0  0  0
    8.8987    0.8894    0.4652 C   0  0  0  0  0  0  0  0  0  0  0  0
    9.0085    0.2618   -0.7114 C   0  0  0  0  0  0  0  0  0  0  0  0
    9.1108   -0.3266   -1.8622 N   0  0  0  0  0  0  0  0  0  0  0  0
   10.0433    1.6204    1.0152 C   0  0  0  0  0  0  0  0  0  0  0  0
   10.9862    2.2047    1.4651 N   0  0  0  0  0  0  0  0  0  0  0  0
    4.9710    0.9607    1.0388 S   0  0  0  0  0  0  0  0  0  0  0  0
    2.0391   -1.1692   -0.8089 C   0  0  0  0  0  0  0  0  0  0  0  0
    0.6497   -1.2643   -1.0366 C   0  0  0  0  0  0  0  0  0  0  0  0
   -1.9174    2.1168   -0.4826 C   0  0  0  0  0  0  0  0  0  0  0  0
   -2.6701    3.2496   -0.8477 C   0  0  0  0  0  0  0  0  0  0  0  0
   -4.9793    6.1484   -1.6957 H   0  0  0  0  0  0  0  0  0  0  0  0
   -3.8676    5.4660   -0.4592 H   0  0  0  0  0  0  0  0  0  0  0  0
   -3.2451    5.7464   -2.1463 H   0  0  0  0  0  0  0  0  0  0  0  0
   -5.1714    1.6580   -2.4023 H   0  0  0  0  0  0  0  0  0  0  0  0
   -3.7999   -0.3514   -1.7227 H   0  0  0  0  0  0  0  0  0  0  0  0
   -3.3686   -0.2198    1.3670 H   0  0  0  0  0  0  0  0  0  0  0  0
   -4.8860   -1.9403    2.2493 H   0  0  0  0  0  0  0  0  0  0  0  0
   -5.2767   -3.5950    3.2634 H   0  0  0  0  0  0  0  0  0  0  0  0
   -6.7049   -3.5258    2.0969 H   0  0  0  0  0  0  0  0  0  0  0  0
   -6.2552   -5.0730    2.8409 H   0  0  0  0  0  0  0  0  0  0  0  0
   -3.1059   -4.6888   -0.4545 H   0  0  0  0  0  0  0  0  0  0  0  0
   -1.6552   -2.9751   -1.3003 H   0  0  0  0  0  0  0  0  0  0  0  0
   -0.1956    1.0312    1.2541 H   0  0  0  0  0  0  0  0  0  0  0  0
    2.1644    1.2189    1.5329 H   0  0  0  0  0  0  0  0  0  0  0  0
    4.6892   -1.9228   -0.9103 H   0  0  0  0  0  0  0  0  0  0  0  0
    7.1418   -1.4139   -0.3505 H   0  0  0  0  0  0  0  0  0  0  0  0
    7.7615    1.4844    2.1503 H   0  0  0  0  0  0  0  0  0  0  0  0
    2.6396   -1.8687   -1.3835 H   0  0  0  0  0  0  0  0  0  0  0  0
    0.2678   -1.9370   -1.7682 H   0  0  0  0  0  0  0  0  0  0  0  0
   -0.9798    2.3241    0.0175 H   0  0  0  0  0  0  0  0  0  0  0  0
   -2.2671    4.2142   -0.5664 H   0  0  0  0  0  0  0  0  0  0  0  0
  1  2  1  0
  2  3  1  0
  3  4  2  0
  4  5  1  0
  5  6  2  0
  6  7  1  0
  7  8  1  0
  8  9  2  0
  9 10  1  0
 10 11  2  0
 11 12  1  0
 12 13  1  0
 11 14  1  0
 14 15  2  0
  7 16  1  0
 16 17  2  0
 17 18  1  0
 18 19  2  0
 19 20  1  0
 20 21  2  0
 21 22  1  0
 22 23  2  0
 23 24  1  0
 24 25  2  3
 25 26  1  0
 26 27  3  0
 25 28  1  0
 28 29  3  0
 23 30  1  0
 19 31  1  0
 31 32  2  0
  6 33  1  0
 33 34  2  0
 34  3  1  0
 15  8  1  0
 32 16  1  0
 30 20  1  0
  1 35  1  0
  1 36  1  0
  1 37  1  0
  4 38  1  0
  5 39  1  0
  9 40  1  0
 10 41  1  0
 13 42  1  0
 13 43  1  0
 13 44  1  0
 14 45  1  0
 15 46  1  0
 17 47  1  0
 18 48  1  0
 21 49  1  0
 22 50  1  0
 24 51  1  0
 31 52  1  0
 32 53  1  0
 33 54  1  0
 34 55  1  0
M  END
