
     RDKit          3D

 31 34  0  0  0  0  0  0  0  0999 V2000
    5.7847    2.9096   -1.5690 N   0  0  0  0  0  0  0  0  0  0  0  0
    4.8430    2.2638   -1.3828 C   0  0  0  0  0  0  0  0  0  0  0  0
    3.6322    1.4545   -1.1646 C   0  0  0  0  0  0  0  0  0  0  0  0
    3.2236    1.2236    0.0384 C   0  0  0  0  0  0  0  0  0  0  0  0
    2.0958    0.4933    0.5622 C   0  0  0  0  0  0  0  0  0  0  0  0
    2.2423   -0.1283    1.8170 C   0  0  0  0  0  0  0  0  0  0  0  0
    1.1997   -0.8083    2.3521 C   0  0  0  0  0  0  0  0  0  0  0  0
   -0.0161   -0.9207    1.7176 C   0  0  0  0  0  0  0  0  0  0  0  0
   -1.0589   -1.6185    2.2899 C   0  0  0  0  0  0  0  0  0  0  0  0
   -2.2846   -1.7454    1.6921 C   0  0  0  0  0  0  0  0  0  0  0  0
   -2.4873   -1.1406    0.4491 C   0  0  0  0  0  0  0  0  0  0  0  0
   -3.7268   -1.2327   -0.1660 C   0  0  0  0  0  0  0  0  0  0  0  0
   -3.9072   -0.6045   -1.3781 C   0  0  0  0  0  0  0  0  0  0  0  0
   -2.8631    0.0904   -1.9396 C   0  0  0  0  0  0  0  0  0  0  0  0
   -1.6531    0.1668   -1.3173 C   0  0  0  0  0  0  0  0  0  0  0  0
   -0.6321    0.8749   -1.8854 C   0  0  0  0  0  0  0  0  0  0  0  0
    0.6147    0.9853   -1.2746 C   0  0  0  0  0  0  0  0  0  0  0  0
    0.8673    0.3818   -0.0703 C   0  0  0  0  0  0  0  0  0  0  0  0
   -0.1958   -0.3237    0.4964 C   0  0  0  0  0  0  0  0  0  0  0  0
   -1.4188   -0.4459   -0.1020 C   0  0  0  0  0  0  0  0  0  0  0  0
    3.1539    1.0109   -2.0082 H   0  0  0  0  0  0  0  0  0  0  0  0
    3.8686    1.6948    0.8565 H   0  0  0  0  0  0  0  0  0  0  0  0
    3.2073   -0.0306    2.3041 H   0  0  0  0  0  0  0  0  0  0  0  0
    1.3247   -1.2882    3.3264 H   0  0  0  0  0  0  0  0  0  0  0  0
   -0.9008   -2.0929    3.2665 H   0  0  0  0  0  0  0  0  0  0  0  0
   -3.1152   -2.2809    2.1088 H   0  0  0  0  0  0  0  0  0  0  0  0
   -4.5147   -1.7939    0.3227 H   0  0  0  0  0  0  0  0  0  0  0  0
   -4.8708   -0.6681   -1.8707 H   0  0  0  0  0  0  0  0  0  0  0  0
   -2.9835    0.5884   -2.8847 H   0  0  0  0  0  0  0  0  0  0  0  0
   -0.7850    1.3752   -2.8488 H   0  0  0  0  0  0  0  0  0  0  0  0
    1.3560    1.6103   -1.7375 H   0  0  0  0  0  0  0  0  0  0  0  0
  1  2  3  0
  2  3  1  0
  3  4  2  0
  4  5  1  0
  5  6  2  0
  6  7  1  0
  7  8  2  0
  8  9  1  0
  9 10  2  0
 10 11  1  0
 11 12  2  0
 12 13  1  0
 13 14  2  0
 14 15  1  0
 15 16  2  0
 16 17  1  0
 17 18  2  0
 18 19  1  0
 19 20  2  0
 18  5  1  0
 19  8  1  0
 20 11  1  0
 20 15  1  0
  3 21  1  0
  4 22  1  0
  6 23  1  0
  7 24  1  0
  9 25  1  0
 10 26  1  0
 12 27  1  0
 13 28  1  0
 14 29  1  0
 16 30  1  0
 17 31  1  0
M  END
