
     RDKit          3D

 30 32  0  0  0  0  0  0  0  0999 V2000
   -2.7364    1.3516   -1.3162 C   0  0  0  0  0  0  0  0  0  0  0  0
   -2.5520    0.5516   -0.1508 N   0  0  0  0  0  0  0  0  0  0  0  0
   -3.4583    0.8156    0.9778 C   0  0  0  0  0  0  0  0  0  0  0  0
   -1.5983   -0.4674    0.0473 C   0  0  0  0  0  0  0  0  0  0  0  0
   -1.9521   -1.7887    0.2845 C   0  0  0  0  0  0  0  0  0  0  0  0
   -0.9955   -2.7605    0.4688 C   0  0  0  0  0  0  0  0  0  0  0  0
    0.3423   -2.4341    0.4204 C   0  0  0  0  0  0  0  0  0  0  0  0
    0.7244   -1.1316    0.1870 C   0  0  0  0  0  0  0  0  0  0  0  0
   -0.2602   -0.1588    0.0023 C   0  0  0  0  0  0  0  0  0  0  0  0
    0.3943    1.1323   -0.2249 C   0  0  0  0  0  0  0  0  0  0  0  0
   -0.1707    2.2523   -0.4319 O   0  0  0  0  0  0  0  0  0  0  0  0
    1.8227    0.8830   -0.1670 C   0  0  0  0  0  0  0  0  0  0  0  0
    2.9292    1.7016   -0.3050 C   0  0  0  0  0  0  0  0  0  0  0  0
    4.2011    1.2130   -0.2054 C   0  0  0  0  0  0  0  0  0  0  0  0
    4.3583   -0.1358    0.0396 C   0  0  0  0  0  0  0  0  0  0  0  0
    3.3068   -1.0034    0.1869 C   0  0  0  0  0  0  0  0  0  0  0  0
    2.0233   -0.4582    0.0770 C   0  0  0  0  0  0  0  0  0  0  0  0
   -2.0387    1.1861   -2.1297 H   0  0  0  0  0  0  0  0  0  0  0  0
   -2.8473    2.4207   -1.0001 H   0  0  0  0  0  0  0  0  0  0  0  0
   -3.7560    1.0970   -1.7361 H   0  0  0  0  0  0  0  0  0  0  0  0
   -4.3976    0.2408    0.7982 H   0  0  0  0  0  0  0  0  0  0  0  0
   -3.6877    1.9043    1.0431 H   0  0  0  0  0  0  0  0  0  0  0  0
   -3.0296    0.4484    1.9326 H   0  0  0  0  0  0  0  0  0  0  0  0
   -3.0171   -1.9975    0.3138 H   0  0  0  0  0  0  0  0  0  0  0  0
   -1.2967   -3.7818    0.6519 H   0  0  0  0  0  0  0  0  0  0  0  0
    1.1059   -3.1820    0.5624 H   0  0  0  0  0  0  0  0  0  0  0  0
    2.7489    2.7663   -0.4989 H   0  0  0  0  0  0  0  0  0  0  0  0
    5.0582    1.8872   -0.3195 H   0  0  0  0  0  0  0  0  0  0  0  0
    5.3692   -0.5016    0.1147 H   0  0  0  0  0  0  0  0  0  0  0  0
    3.4097   -2.0505    0.3770 H   0  0  0  0  0  0  0  0  0  0  0  0
  1  2  1  0
  2  3  1  0
  2  4  1  0
  4  5  2  0
  5  6  1  0
  6  7  2  0
  7  8  1  0
  8  9  2  0
  9 10  1  0
 10 11  2  0
 10 12  1  0
 12 13  2  0
 13 14  1  0
 14 15  2  0
 15 16  1  0
 16 17  2  0
  9  4  1  0
 17 12  1  0
 17  8  1  0
  1 18  1  0
  1 19  1  0
  1 20  1  0
  3 21  1  0
  3 22  1  0
  3 23  1  0
  5 24  1  0
  6 25  1  0
  7 26  1  0
 13 27  1  0
 14 28  1  0
 15 29  1  0
 16 30  1  0
M  END
