
     RDKit          3D

 29 30  0  0  0  0  0  0  0  0999 V2000
    4.9017    0.1295   -1.8691 O   0  0  0  0  0  0  0  0  0  0  0  0
    4.2220   -0.0909   -0.8445 C   0  0  0  0  0  0  0  0  0  0  0  0
    4.8525   -0.7908    0.1900 O   0  0  0  0  0  0  0  0  0  0  0  0
    2.8059    0.3616   -0.7104 C   0  0  0  0  0  0  0  0  0  0  0  0
    2.2592   -0.0504    0.6299 C   0  0  0  0  0  0  0  0  0  0  0  0
    0.8787    0.3452    0.8340 N   0  0  0  0  0  0  0  0  0  0  0  0
   -0.1951   -0.2457    0.1383 C   0  0  0  0  0  0  0  0  0  0  0  0
    0.0347   -1.3555   -0.6767 C   0  0  0  0  0  0  0  0  0  0  0  0
   -0.9859   -1.9780   -1.3534 C   0  0  0  0  0  0  0  0  0  0  0  0
   -2.2458   -1.4552   -1.1888 C   0  0  0  0  0  0  0  0  0  0  0  0
   -2.5140   -0.3630   -0.3942 C   0  0  0  0  0  0  0  0  0  0  0  0
   -3.7882    0.1406   -0.2490 C   0  0  0  0  0  0  0  0  0  0  0  0
   -4.0880    1.2321    0.5366 C   0  0  0  0  0  0  0  0  0  0  0  0
   -3.0717    1.8630    1.2182 C   0  0  0  0  0  0  0  0  0  0  0  0
   -1.7780    1.3569    1.0749 C   0  0  0  0  0  0  0  0  0  0  0  0
   -1.4700    0.2675    0.2927 C   0  0  0  0  0  0  0  0  0  0  0  0
    5.8376   -0.5853    0.4172 H   0  0  0  0  0  0  0  0  0  0  0  0
    2.2240    0.0619   -1.5693 H   0  0  0  0  0  0  0  0  0  0  0  0
    2.8668    1.4761   -0.6863 H   0  0  0  0  0  0  0  0  0  0  0  0
    2.8864    0.4270    1.4017 H   0  0  0  0  0  0  0  0  0  0  0  0
    2.4012   -1.1442    0.7784 H   0  0  0  0  0  0  0  0  0  0  0  0
    0.7325    1.0942    1.5332 H   0  0  0  0  0  0  0  0  0  0  0  0
    1.0105   -1.7615   -0.7893 H   0  0  0  0  0  0  0  0  0  0  0  0
   -0.7993   -2.8448   -1.9891 H   0  0  0  0  0  0  0  0  0  0  0  0
   -3.0669   -1.9309   -1.7136 H   0  0  0  0  0  0  0  0  0  0  0  0
   -4.5913   -0.3719   -0.7985 H   0  0  0  0  0  0  0  0  0  0  0  0
   -5.0928    1.6238    0.6470 H   0  0  0  0  0  0  0  0  0  0  0  0
   -3.2404    2.7323    1.8572 H   0  0  0  0  0  0  0  0  0  0  0  0
   -0.9866    1.8563    1.6085 H   0  0  0  0  0  0  0  0  0  0  0  0
  1  2  2  0
  2  3  1  0
  2  4  1  0
  4  5  1  0
  5  6  1  0
  6  7  1  0
  7  8  2  0
  8  9  1  0
  9 10  2  0
 10 11  1  0
 11 12  2  0
 12 13  1  0
 13 14  2  0
 14 15  1  0
 15 16  2  0
 16  7  1  0
 16 11  1  0
  3 17  1  0
  4 18  1  0
  4 19  1  0
  5 20  1  0
  5 21  1  0
  6 22  1  0
  8 23  1  0
  9 24  1  0
 10 25  1  0
 12 26  1  0
 13 27  1  0
 14 28  1  0
 15 29  1  0
M  END
