
     RDKit          3D

 80 86  0  0  0  0  0  0  0  0999 V2000
    4.2562   -1.4421   -1.2657 C   0  0  0  0  0  0  0  0  0  0  0  0
    4.3885   -2.5532   -2.1626 C   0  0  0  0  0  0  0  0  0  0  0  0
    4.5240   -3.5173   -2.9335 C   0  0  0  0  0  0  0  0  0  0  0  0
    3.6660   -4.6705   -2.8384 C   0  0  0  0  0  0  0  0  0  0  0  0
    3.7757   -5.7238   -3.6672 C   0  0  0  0  0  0  0  0  0  0  0  0
    4.7041   -5.7735   -4.6597 C   0  0  0  0  0  0  0  0  0  0  0  0
    5.5438   -4.7251   -4.8161 C   0  0  0  0  0  0  0  0  0  0  0  0
    5.4615   -3.6634   -4.0048 C   0  0  0  0  0  0  0  0  0  0  0  0
    4.1159   -0.3866   -0.4246 C   0  0  0  0  0  0  0  0  0  0  0  0
    4.9025    0.7915   -0.2284 C   0  0  0  0  0  0  0  0  0  0  0  0
    5.5875    1.8374   -0.0521 C   0  0  0  0  0  0  0  0  0  0  0  0
    6.3085    2.9635    0.1452 C   0  0  0  0  0  0  0  0  0  0  0  0
    5.6740    4.1686    0.5249 C   0  0  0  0  0  0  0  0  0  0  0  0
    6.3908    5.2933    0.7595 C   0  0  0  0  0  0  0  0  0  0  0  0
    7.7726    5.3068    0.6336 C   0  0  0  0  0  0  0  0  0  0  0  0
    8.3903    4.1493    0.2657 C   0  0  0  0  0  0  0  0  0  0  0  0
    7.6804    3.0090    0.0296 C   0  0  0  0  0  0  0  0  0  0  0  0
    2.9741   -0.2732    0.0898 C   0  0  0  0  0  0  0  0  0  0  0  0
    1.6417   -0.1143    0.7110 C   0  0  0  0  0  0  0  0  0  0  0  0
    1.0482    1.1454    0.4589 C   0  0  0  0  0  0  0  0  0  0  0  0
    1.8008    2.1161   -0.1334 C   0  0  0  0  0  0  0  0  0  0  0  0
    1.1734    3.3492   -0.3926 C   0  0  0  0  0  0  0  0  0  0  0  0
   -0.1130    3.5820   -0.0799 C   0  0  0  0  0  0  0  0  0  0  0  0
   -0.8570    2.5773    0.5217 C   0  0  0  0  0  0  0  0  0  0  0  0
   -0.2618    1.3801    0.7812 C   0  0  0  0  0  0  0  0  0  0  0  0
   -1.0105    0.3637    1.3592 C   0  0  0  0  0  0  0  0  0  0  0  0
   -2.3516    0.7139    1.7218 C   0  0  0  0  0  0  0  0  0  0  0  0
   -3.5222    0.4783    1.2187 C   0  0  0  0  0  0  0  0  0  0  0  0
   -3.8500   -0.2674    0.0499 C   0  0  0  0  0  0  0  0  0  0  0  0
   -4.1293   -0.9201   -0.9538 C   0  0  0  0  0  0  0  0  0  0  0  0
   -4.4265   -1.6485   -2.1011 C   0  0  0  0  0  0  0  0  0  0  0  0
   -4.1044   -2.9789   -2.2930 C   0  0  0  0  0  0  0  0  0  0  0  0
   -4.4243   -3.6468   -3.4850 C   0  0  0  0  0  0  0  0  0  0  0  0
   -5.0802   -3.0054   -4.5036 C   0  0  0  0  0  0  0  0  0  0  0  0
   -5.4167   -1.6841   -4.3555 C   0  0  0  0  0  0  0  0  0  0  0  0
   -5.1015   -1.0252   -3.1924 C   0  0  0  0  0  0  0  0  0  0  0  0
   -4.5975    0.9511    2.0269 C   0  0  0  0  0  0  0  0  0  0  0  0
   -5.5277    1.3728    2.7208 C   0  0  0  0  0  0  0  0  0  0  0  0
   -6.6420    1.8881    3.5260 C   0  0  0  0  0  0  0  0  0  0  0  0
   -6.5059    3.1639    4.0808 C   0  0  0  0  0  0  0  0  0  0  0  0
   -7.5941    3.6586    4.8258 C   0  0  0  0  0  0  0  0  0  0  0  0
   -8.7536    2.9465    5.0142 C   0  0  0  0  0  0  0  0  0  0  0  0
   -8.8536    1.6840    4.4470 C   0  0  0  0  0  0  0  0  0  0  0  0
   -7.7817    1.1852    3.7136 C   0  0  0  0  0  0  0  0  0  0  0  0
   -0.4325   -0.8668    1.6047 C   0  0  0  0  0  0  0  0  0  0  0  0
   -1.1949   -1.8621    2.1921 C   0  0  0  0  0  0  0  0  0  0  0  0
   -0.6599   -3.1067    2.4709 C   0  0  0  0  0  0  0  0  0  0  0  0
    0.6614   -3.3097    2.1485 C   0  0  0  0  0  0  0  0  0  0  0  0
    1.4540   -2.3297    1.5630 C   0  0  0  0  0  0  0  0  0  0  0  0
    0.9240   -1.0772    1.2714 C   0  0  0  0  0  0  0  0  0  0  0  0
    2.9343   -4.6083   -2.0494 H   0  0  0  0  0  0  0  0  0  0  0  0
    3.0643   -6.5672   -3.5409 H   0  0  0  0  0  0  0  0  0  0  0  0
    4.7734   -6.6493   -5.3166 H   0  0  0  0  0  0  0  0  0  0  0  0
    6.2781   -4.7768   -5.5869 H   0  0  0  0  0  0  0  0  0  0  0  0
    6.1339   -2.7677   -4.0737 H   0  0  0  0  0  0  0  0  0  0  0  0
    4.6022    4.1684    0.6201 H   0  0  0  0  0  0  0  0  0  0  0  0
    5.8598    6.2145    1.0470 H   0  0  0  0  0  0  0  0  0  0  0  0
    8.2863    6.2189    0.8286 H   0  0  0  0  0  0  0  0  0  0  0  0
    9.4625    4.1417    0.1616 H   0  0  0  0  0  0  0  0  0  0  0  0
    8.1858    2.0796   -0.2669 H   0  0  0  0  0  0  0  0  0  0  0  0
    3.4938    0.5409    1.0923 H   0  0  0  0  0  0  0  0  0  0  0  0
    2.8171    2.0717   -0.4114 H   0  0  0  0  0  0  0  0  0  0  0  0
    1.8128    4.1232   -0.8701 H   0  0  0  0  0  0  0  0  0  0  0  0
   -0.5593    4.5285   -0.3073 H   0  0  0  0  0  0  0  0  0  0  0  0
   -1.9273    2.7089    0.7880 H   0  0  0  0  0  0  0  0  0  0  0  0
   -2.3665    1.3646    2.6682 H   0  0  0  0  0  0  0  0  0  0  0  0
   -3.5816   -3.5285   -1.5198 H   0  0  0  0  0  0  0  0  0  0  0  0
   -4.1572   -4.6819   -3.6038 H   0  0  0  0  0  0  0  0  0  0  0  0
   -5.3198   -3.5418   -5.4266 H   0  0  0  0  0  0  0  0  0  0  0  0
   -5.9384   -1.1928   -5.1929 H   0  0  0  0  0  0  0  0  0  0  0  0
   -5.3402    0.0266   -3.0242 H   0  0  0  0  0  0  0  0  0  0  0  0
   -5.6140    3.6760    3.9281 H   0  0  0  0  0  0  0  0  0  0  0  0
   -7.5328    4.6685    5.2924 H   0  0  0  0  0  0  0  0  0  0  0  0
   -9.5741    3.3555    5.5972 H   0  0  0  0  0  0  0  0  0  0  0  0
   -9.7544    1.0985    4.5673 H   0  0  0  0  0  0  0  0  0  0  0  0
   -7.8431    0.1794    3.2588 H   0  0  0  0  0  0  0  0  0  0  0  0
   -2.2186   -1.6906    2.4371 H   0  0  0  0  0  0  0  0  0  0  0  0
   -1.2502   -3.9007    2.9234 H   0  0  0  0  0  0  0  0  0  0  0  0
    1.1317   -4.2686    2.3418 H   0  0  0  0  0  0  0  0  0  0  0  0
    2.5139   -2.4946    1.3058 H   0  0  0  0  0  0  0  0  0  0  0  0
  1  2  3  0
  2  3  1  0
  3  4  2  0
  4  5  1  0
  5  6  2  0
  6  7  1  0
  7  8  2  0
  1  9  1  0
  9 10  1  0
 10 11  3  0
 11 12  1  0
 12 13  2  0
 13 14  1  0
 14 15  2  0
 15 16  1  0
 16 17  2  0
  9 18  2  3
 18 19  1  0
 19 20  1  0
 20 21  2  0
 21 22  1  0
 22 23  2  0
 23 24  1  0
 24 25  2  0
 25 26  1  0
 26 27  1  0
 27 28  2  3
 28 29  1  0
 29 30  3  0
 30 31  1  0
 31 32  2  0
 32 33  1  0
 33 34  2  0
 34 35  1  0
 35 36  2  0
 28 37  1  0
 37 38  3  0
 38 39  1  0
 39 40  2  0
 40 41  1  0
 41 42  2  0
 42 43  1  0
 43 44  2  0
 26 45  2  0
 45 46  1  0
 46 47  2  0
 47 48  1  0
 48 49  2  0
 49 50  1  0
  8  3  1  0
 17 12  1  0
 50 19  2  0
 25 20  1  0
 36 31  1  0
 44 39  1  0
 50 45  1  0
  4 51  1  0
  5 52  1  0
  6 53  1  0
  7 54  1  0
  8 55  1  0
 13 56  1  0
 14 57  1  0
 15 58  1  0
 16 59  1  0
 17 60  1  0
 18 61  1  0
 21 62  1  0
 22 63  1  0
 23 64  1  0
 24 65  1  0
 27 66  1  0
 32 67  1  0
 33 68  1  0
 34 69  1  0
 35 70  1  0
 36 71  1  0
 40 72  1  0
 41 73  1  0
 42 74  1  0
 43 75  1  0
 44 76  1  0
 46 77  1  0
 47 78  1  0
 48 79  1  0
 49 80  1  0
M  END
