
     RDKit          3D

 44 48  0  0  0  0  0  0  0  0999 V2000
    1.2917   -2.3353    1.0661 F   0  0  0  0  0  0  0  0  0  0  0  0
    0.5337   -1.7653   -0.0425 B   0  0  0  0  0  4  0  0  0  0  0  0
    1.1528   -2.2671   -1.2878 F   0  0  0  0  0  0  0  0  0  0  0  0
   -0.8648   -2.3382    0.1130 N   0  0  0  0  0  0  0  0  0  0  0  0
   -1.2522   -3.6708    0.1797 C   0  0  0  0  0  0  0  0  0  0  0  0
   -2.6111   -3.7067    0.3192 C   0  0  0  0  0  0  0  0  0  0  0  0
   -3.0291   -2.3980    0.3352 C   0  0  0  0  0  0  0  0  0  0  0  0
   -1.9265   -1.5449    0.2056 C   0  0  0  0  0  0  0  0  0  0  0  0
   -1.8111   -0.0859    0.1510 C   0  0  0  0  0  0  0  0  0  0  0  0
   -3.0294    0.7062    0.2403 C   0  0  0  0  0  0  0  0  0  0  0  0
   -4.0075    0.5058    1.1910 C   0  0  0  0  0  0  0  0  0  0  0  0
   -5.1643    1.2511    1.2437 C   0  0  0  0  0  0  0  0  0  0  0  0
   -5.3911    2.2505    0.3246 C   0  0  0  0  0  0  0  0  0  0  0  0
   -4.4458    2.4876   -0.6406 C   0  0  0  0  0  0  0  0  0  0  0  0
   -3.2785    1.7211   -0.6793 C   0  0  0  0  0  0  0  0  0  0  0  0
   -0.6239    0.4805    0.0049 C   0  0  0  0  0  0  0  0  0  0  0  0
   -0.2246    1.8919   -0.0813 C   0  0  0  0  0  0  0  0  0  0  0  0
    1.0866    1.8687   -0.2193 C   0  0  0  0  0  0  0  0  0  0  0  0
    1.6151    0.5153   -0.2321 C   0  0  0  0  0  0  0  0  0  0  0  0
    2.9744    0.1397   -0.3727 N   0  0  0  0  0  0  0  0  0  0  0  0
    3.6934   -0.8080    0.4470 C   0  0  0  0  0  0  0  0  0  0  0  0
    5.1906   -0.4351    0.3640 C   0  0  0  0  0  0  0  0  0  0  0  0
    5.3786    0.9191    0.3520 O   0  0  0  0  0  0  0  0  0  0  0  0
    4.8134    1.5929   -0.7004 C   0  0  0  0  0  0  0  0  0  0  0  0
    3.8068    0.7259   -1.4234 C   0  0  0  0  0  0  0  0  0  0  0  0
    0.5596   -0.2800   -0.0949 N   0  0  0  0  0  4  0  0  0  0  0  0
   -0.5471   -4.5064    0.1245 H   0  0  0  0  0  0  0  0  0  0  0  0
   -3.1781   -4.6303    0.3961 H   0  0  0  0  0  0  0  0  0  0  0  0
   -4.0331   -2.0562    0.4248 H   0  0  0  0  0  0  0  0  0  0  0  0
   -3.8302   -0.2716    1.9257 H   0  0  0  0  0  0  0  0  0  0  0  0
   -5.9217    1.0827    1.9931 H   0  0  0  0  0  0  0  0  0  0  0  0
   -6.2913    2.8510    0.3431 H   0  0  0  0  0  0  0  0  0  0  0  0
   -4.6292    3.2722   -1.3580 H   0  0  0  0  0  0  0  0  0  0  0  0
   -2.5977    1.9602   -1.4586 H   0  0  0  0  0  0  0  0  0  0  0  0
   -0.8808    2.7652   -0.0362 H   0  0  0  0  0  0  0  0  0  0  0  0
    1.7311    2.7474   -0.3152 H   0  0  0  0  0  0  0  0  0  0  0  0
    3.4416   -0.7719    1.5027 H   0  0  0  0  0  0  0  0  0  0  0  0
    3.6710   -1.8220   -0.0153 H   0  0  0  0  0  0  0  0  0  0  0  0
    5.6795   -0.9597   -0.4924 H   0  0  0  0  0  0  0  0  0  0  0  0
    5.6712   -0.8423    1.2754 H   0  0  0  0  0  0  0  0  0  0  0  0
    5.5678    2.0208   -1.3847 H   0  0  0  0  0  0  0  0  0  0  0  0
    4.2255    2.4607   -0.2884 H   0  0  0  0  0  0  0  0  0  0  0  0
    3.1886    1.3397   -2.1010 H   0  0  0  0  0  0  0  0  0  0  0  0
    4.2964   -0.0606   -2.0325 H   0  0  0  0  0  0  0  0  0  0  0  0
  1  2  1  0
  2  3  1  0
  2  4  1  0
  4  5  1  0
  5  6  2  0
  6  7  1  0
  7  8  2  0
  8  9  1  0
  9 10  1  0
 10 11  2  0
 11 12  1  0
 12 13  2  0
 13 14  1  0
 14 15  2  0
  9 16  2  0
 16 17  1  0
 17 18  2  0
 18 19  1  0
 19 20  1  0
 20 21  1  0
 21 22  1  0
 22 23  1  0
 23 24  1  0
 24 25  1  0
 19 26  2  0
 26  2  1  0
  8  4  1  0
 15 10  1  0
 26 16  1  0
 25 20  1  0
  5 27  1  0
  6 28  1  0
  7 29  1  0
 11 30  1  0
 12 31  1  0
 13 32  1  0
 14 33  1  0
 15 34  1  0
 17 35  1  0
 18 36  1  0
 21 37  1  0
 21 38  1  0
 22 39  1  0
 22 40  1  0
 24 41  1  0
 24 42  1  0
 25 43  1  0
 25 44  1  0
M  CHG  2   2  -1  26   1
M  END
