
     RDKit          3D

 41 44  0  0  0  0  0  0  0  0999 V2000
    6.4484   -0.3894   -0.4559 C   0  0  0  0  0  0  0  0  0  0  0  0
    5.4381   -0.9320    0.3311 O   0  0  0  0  0  0  0  0  0  0  0  0
    4.0976   -0.6487    0.1543 C   0  0  0  0  0  0  0  0  0  0  0  0
    3.5707    0.1799   -0.7897 C   0  0  0  0  0  0  0  0  0  0  0  0
    2.2118    0.4153   -0.9045 C   0  0  0  0  0  0  0  0  0  0  0  0
    1.3762   -0.2227   -0.0197 C   0  0  0  0  0  0  0  0  0  0  0  0
   -0.0749   -0.0230   -0.0326 C   0  0  0  0  0  0  0  0  0  0  0  0
   -0.5553    1.2246   -0.0757 C   0  0  0  0  0  0  0  0  0  0  0  0
    0.0704    2.5377   -0.1140 C   0  0  0  0  0  0  0  0  0  0  0  0
   -0.9028    3.4555   -0.1597 C   0  0  0  0  0  0  0  0  0  0  0  0
   -2.1802    2.7541   -0.1519 C   0  0  0  0  0  0  0  0  0  0  0  0
   -3.4738    3.4800   -0.1967 C   0  0  0  0  0  0  0  0  0  0  0  0
   -1.9585    1.4845   -0.1037 N   0  0  0  0  0  4  0  0  0  0  0  0
   -2.9576    0.3531   -0.0776 B   0  0  0  0  0  4  0  0  0  0  0  0
   -3.7823    0.5125    1.0982 F   0  0  0  0  0  0  0  0  0  0  0  0
   -3.8240    0.5269   -1.2465 F   0  0  0  0  0  0  0  0  0  0  0  0
   -2.3187   -1.0137   -0.0402 N   0  0  0  0  0  0  0  0  0  0  0  0
   -2.8970   -2.2303   -0.0270 C   0  0  0  0  0  0  0  0  0  0  0  0
   -4.3408   -2.5814   -0.0464 C   0  0  0  0  0  0  0  0  0  0  0  0
   -1.9110   -3.1937    0.0074 C   0  0  0  0  0  0  0  0  0  0  0  0
   -0.6892   -2.5216    0.0148 C   0  0  0  0  0  0  0  0  0  0  0  0
   -0.9786   -1.1684   -0.0150 C   0  0  0  0  0  0  0  0  0  0  0  0
    1.8942   -1.0613    0.9370 C   0  0  0  0  0  0  0  0  0  0  0  0
    3.2390   -1.2991    1.0557 C   0  0  0  0  0  0  0  0  0  0  0  0
    6.1507    0.5552   -0.9263 H   0  0  0  0  0  0  0  0  0  0  0  0
    7.3708   -0.1552    0.1520 H   0  0  0  0  0  0  0  0  0  0  0  0
    6.7091   -1.1385   -1.2496 H   0  0  0  0  0  0  0  0  0  0  0  0
    4.2389    0.6782   -1.4869 H   0  0  0  0  0  0  0  0  0  0  0  0
    1.8056    1.0624   -1.6538 H   0  0  0  0  0  0  0  0  0  0  0  0
    1.1315    2.7086   -0.1032 H   0  0  0  0  0  0  0  0  0  0  0  0
   -0.6926    4.5236   -0.1948 H   0  0  0  0  0  0  0  0  0  0  0  0
   -3.6912    3.9359    0.7891 H   0  0  0  0  0  0  0  0  0  0  0  0
   -3.3617    4.3215   -0.9337 H   0  0  0  0  0  0  0  0  0  0  0  0
   -4.3171    2.8425   -0.5070 H   0  0  0  0  0  0  0  0  0  0  0  0
   -4.5309   -3.3040    0.7743 H   0  0  0  0  0  0  0  0  0  0  0  0
   -4.4871   -3.1585   -1.0037 H   0  0  0  0  0  0  0  0  0  0  0  0
   -4.9969   -1.7125   -0.0277 H   0  0  0  0  0  0  0  0  0  0  0  0
   -1.9761   -4.2697    0.0270 H   0  0  0  0  0  0  0  0  0  0  0  0
    0.2795   -3.0040    0.0350 H   0  0  0  0  0  0  0  0  0  0  0  0
    1.2257   -1.5574    1.6399 H   0  0  0  0  0  0  0  0  0  0  0  0
    3.6400   -1.9666    1.8170 H   0  0  0  0  0  0  0  0  0  0  0  0
  1  2  1  0
  2  3  1  0
  3  4  2  0
  4  5  1  0
  5  6  2  0
  6  7  1  0
  7  8  2  0
  8  9  1  0
  9 10  2  0
 10 11  1  0
 11 12  1  0
 11 13  2  0
 13 14  1  0
 14 15  1  0
 14 16  1  0
 14 17  1  0
 17 18  1  0
 18 19  1  0
 18 20  2  0
 20 21  1  0
 21 22  2  0
  6 23  1  0
 23 24  2  0
 24  3  1  0
 22  7  1  0
 13  8  1  0
 22 17  1  0
  1 25  1  0
  1 26  1  0
  1 27  1  0
  4 28  1  0
  5 29  1  0
  9 30  1  0
 10 31  1  0
 12 32  1  0
 12 33  1  0
 12 34  1  0
 19 35  1  0
 19 36  1  0
 19 37  1  0
 20 38  1  0
 21 39  1  0
 23 40  1  0
 24 41  1  0
M  CHG  2  13   1  14  -1
M  END
