
     RDKit          3D

 26 28  0  0  0  0  0  0  0  0999 V2000
   -0.6557   -1.9117   -1.4717 O   0  0  0  0  0  0  0  0  0  0  0  0
    0.1518   -1.1731   -0.8255 C   0  0  0  0  0  0  0  0  0  0  0  0
    1.4382   -1.3281   -0.9573 O   0  0  0  0  0  0  0  0  0  0  0  0
    2.2774   -0.5684   -0.2928 C   0  0  0  0  0  0  0  0  0  0  0  0
    3.6600   -0.7356   -0.4351 C   0  0  0  0  0  0  0  0  0  0  0  0
    4.5752    0.0405    0.2441 C   0  0  0  0  0  0  0  0  0  0  0  0
    4.1241    1.0236    1.1002 C   0  0  0  0  0  0  0  0  0  0  0  0
    2.7572    1.2031    1.2533 C   0  0  0  0  0  0  0  0  0  0  0  0
    1.8412    0.4204    0.5684 C   0  0  0  0  0  0  0  0  0  0  0  0
    0.5149    0.5983    0.7203 N   0  0  0  0  0  0  0  0  0  0  0  0
   -0.3356   -0.2036    0.0188 C   0  0  0  0  0  0  0  0  0  0  0  0
   -1.7860   -0.0512    0.1472 C   0  0  0  0  0  0  0  0  0  0  0  0
   -2.3596    1.1879    0.1193 C   0  0  0  0  0  0  0  0  0  0  0  0
   -3.7413    1.2519    0.2478 C   0  0  0  0  0  0  0  0  0  0  0  0
   -4.5215    0.1412    0.3972 C   0  0  0  0  0  0  0  0  0  0  0  0
   -3.9466   -1.1037    0.4254 C   0  0  0  0  0  0  0  0  0  0  0  0
   -2.5555   -1.1850    0.2971 C   0  0  0  0  0  0  0  0  0  0  0  0
    3.9896   -1.5116   -1.1110 H   0  0  0  0  0  0  0  0  0  0  0  0
    5.6459   -0.0925    0.1307 H   0  0  0  0  0  0  0  0  0  0  0  0
    4.7778    1.6707    1.6662 H   0  0  0  0  0  0  0  0  0  0  0  0
    2.3655    1.9644    1.9162 H   0  0  0  0  0  0  0  0  0  0  0  0
   -1.7850    2.1087    0.0024 H   0  0  0  0  0  0  0  0  0  0  0  0
   -4.1892    2.2292    0.2254 H   0  0  0  0  0  0  0  0  0  0  0  0
   -5.5943    0.2054    0.4960 H   0  0  0  0  0  0  0  0  0  0  0  0
   -4.5198   -2.0216    0.5420 H   0  0  0  0  0  0  0  0  0  0  0  0
   -2.1287   -2.1591    0.3218 H   0  0  0  0  0  0  0  0  0  0  0  0
  1  2  2  0
  2  3  1  0
  3  4  1  0
  4  5  2  0
  5  6  1  0
  6  7  2  0
  7  8  1  0
  8  9  2  0
  9 10  1  0
 10 11  2  0
 11 12  1  0
 12 13  2  0
 13 14  1  0
 14 15  2  0
 15 16  1  0
 16 17  2  0
 11  2  1  0
 17 12  1  0
  9  4  1  0
  5 18  1  0
  6 19  1  0
  7 20  1  0
  8 21  1  0
 13 22  1  0
 14 23  1  0
 15 24  1  0
 16 25  1  0
 17 26  1  0
M  END
