
     RDKit          3D

 35 36  0  0  0  0  0  0  0  0999 V2000
    2.7579   -3.4644    3.7526 C   0  0  0  0  0  0  0  0  0  0  0  0
    3.7379   -3.5126    2.5388 C   0  0  0  0  0  0  0  0  0  0  0  0
    3.1971   -2.7653    1.6183 O   0  0  0  0  0  0  0  0  0  0  0  0
    2.7515   -2.0736    0.6835 C   0  0  0  0  0  0  0  0  0  0  0  0
    3.5068   -2.1073   -0.4427 O   0  0  0  0  0  0  0  0  0  0  0  0
    1.5937   -1.1871    0.4199 C   0  0  0  0  0  0  0  0  0  0  0  0
    0.6513   -0.5839    1.8143 S   0  0  0  0  0  0  0  0  0  0  0  0
   -0.3289    0.4834    0.9237 C   0  0  0  0  0  0  0  0  0  0  0  0
   -1.3494    1.3782    1.1704 N   0  0  0  0  0  0  0  0  0  0  0  0
   -1.9929    2.1192    0.2992 C   0  0  0  0  0  0  0  0  0  0  0  0
   -3.0218    3.0671    0.8020 C   0  0  0  0  0  0  0  0  0  0  0  0
   -1.6033    1.9702   -0.9849 C   0  0  0  0  0  0  0  0  0  0  0  0
   -2.3337    2.6757   -2.0752 C   0  0  0  0  0  0  0  0  0  0  0  0
   -3.4409    1.7767   -2.6050 C   0  0  0  0  0  0  0  0  0  0  0  0
   -0.5834    1.0946   -1.3640 C   0  0  0  0  0  0  0  0  0  0  0  0
   -0.5781    0.6172   -2.6932 C   0  0  0  0  0  0  0  0  0  0  0  0
   -0.5601    0.1753   -3.9830 N   0  0  0  0  0  0  0  0  0  0  0  0
    0.0836    0.3391   -0.3814 C   0  0  0  0  0  0  0  0  0  0  0  0
    1.0975   -0.5488   -0.5799 C   0  0  0  0  0  0  0  0  0  0  0  0
    1.6853   -0.7185   -1.9177 N   0  0  0  0  0  0  0  0  0  0  0  0
    1.9535   -2.7371    3.4518 H   0  0  0  0  0  0  0  0  0  0  0  0
    2.2872   -4.4463    3.9076 H   0  0  0  0  0  0  0  0  0  0  0  0
    3.2948   -3.1295    4.6308 H   0  0  0  0  0  0  0  0  0  0  0  0
    4.7854   -3.2407    2.9239 H   0  0  0  0  0  0  0  0  0  0  0  0
    3.8767   -4.6180    2.3403 H   0  0  0  0  0  0  0  0  0  0  0  0
   -3.4143    2.6272    1.7633 H   0  0  0  0  0  0  0  0  0  0  0  0
   -2.4656    3.9971    1.0941 H   0  0  0  0  0  0  0  0  0  0  0  0
   -3.8165    3.2088    0.0820 H   0  0  0  0  0  0  0  0  0  0  0  0
   -1.6068    3.0572   -2.7675 H   0  0  0  0  0  0  0  0  0  0  0  0
   -2.8471    3.5599   -1.5856 H   0  0  0  0  0  0  0  0  0  0  0  0
   -3.2890    1.4642   -3.6554 H   0  0  0  0  0  0  0  0  0  0  0  0
   -4.4031    2.2344   -2.3741 H   0  0  0  0  0  0  0  0  0  0  0  0
   -3.4322    0.7822   -2.0244 H   0  0  0  0  0  0  0  0  0  0  0  0
    1.8883   -1.6327   -2.3282 H   0  0  0  0  0  0  0  0  0  0  0  0
    1.9185    0.1381   -2.4546 H   0  0  0  0  0  0  0  0  0  0  0  0
  1  2  1  0
  2  3  1  0
  3  4  1  0
  4  5  2  0
  4  6  1  0
  6  7  1  0
  7  8  1  0
  8  9  2  0
  9 10  1  0
 10 11  1  0
 10 12  2  0
 12 13  1  0
 13 14  1  0
 12 15  1  0
 15 16  1  0
 16 17  3  0
 15 18  2  0
 18 19  1  0
 19 20  1  0
 19  6  2  0
 18  8  1  0
  1 21  1  0
  1 22  1  0
  1 23  1  0
  2 24  1  0
  2 25  1  0
 11 26  1  0
 11 27  1  0
 11 28  1  0
 13 29  1  0
 13 30  1  0
 14 31  1  0
 14 32  1  0
 14 33  1  0
 20 34  1  0
 20 35  1  0
M  END
