
     RDKit          3D

 33 35  0  0  0  0  0  0  0  0999 V2000
    8.4252   -0.3506   -1.0773 N   0  0  0  0  0  0  0  0  0  0  0  0
    7.2813   -0.2624   -0.9007 C   0  0  0  0  0  0  0  0  0  0  0  0
    5.8529   -0.1484   -0.6762 C   0  0  0  0  0  0  0  0  0  0  0  0
    4.9629   -1.0352   -1.2511 C   0  0  0  0  0  0  0  0  0  0  0  0
    3.6013   -0.9080   -1.0233 C   0  0  0  0  0  0  0  0  0  0  0  0
    3.1034    0.1038   -0.2196 C   0  0  0  0  0  0  0  0  0  0  0  0
    1.6672    0.2070   -0.0024 C   0  0  0  0  0  0  0  0  0  0  0  0
    1.0823    1.1134    0.7312 C   0  0  0  0  0  0  0  0  0  0  0  0
   -0.3814    1.1607    0.9093 C   0  0  0  0  0  0  0  0  0  0  0  0
   -1.0966    2.0361    1.6324 N   0  0  0  0  0  0  0  0  0  0  0  0
   -2.3949    1.7070    1.5135 C   0  0  0  0  0  0  0  0  0  0  0  0
   -2.4642    0.6033    0.6966 C   0  0  0  0  0  0  0  0  0  0  0  0
   -3.6699   -0.1069    0.2843 C   0  0  0  0  0  0  0  0  0  0  0  0
   -4.9093    0.3153    0.7203 C   0  0  0  0  0  0  0  0  0  0  0  0
   -6.0552   -0.3531    0.3334 C   0  0  0  0  0  0  0  0  0  0  0  0
   -6.0257   -1.4569   -0.4933 C   0  0  0  0  0  0  0  0  0  0  0  0
   -4.7862   -1.8773   -0.9280 C   0  0  0  0  0  0  0  0  0  0  0  0
   -3.6313   -1.2095   -0.5424 C   0  0  0  0  0  0  0  0  0  0  0  0
   -1.2288    0.3210    0.3654 O   0  0  0  0  0  0  0  0  0  0  0  0
    4.0296    0.9608    0.3295 C   0  0  0  0  0  0  0  0  0  0  0  0
    5.3918    0.8575    0.1195 C   0  0  0  0  0  0  0  0  0  0  0  0
    5.3772   -1.8189   -1.8765 H   0  0  0  0  0  0  0  0  0  0  0  0
    2.9205   -1.6171   -1.4860 H   0  0  0  0  0  0  0  0  0  0  0  0
    0.9957   -0.5222   -0.4810 H   0  0  0  0  0  0  0  0  0  0  0  0
    1.6927    1.8565    1.2261 H   0  0  0  0  0  0  0  0  0  0  0  0
   -3.2028    2.2355    1.9868 H   0  0  0  0  0  0  0  0  0  0  0  0
   -4.9278    1.1798    1.3673 H   0  0  0  0  0  0  0  0  0  0  0  0
   -7.0290   -0.0235    0.6744 H   0  0  0  0  0  0  0  0  0  0  0  0
   -6.9361   -1.9781   -0.7934 H   0  0  0  0  0  0  0  0  0  0  0  0
   -4.7692   -2.7477   -1.5793 H   0  0  0  0  0  0  0  0  0  0  0  0
   -2.6720   -1.5547   -0.8936 H   0  0  0  0  0  0  0  0  0  0  0  0
    3.6930    1.7700    0.9663 H   0  0  0  0  0  0  0  0  0  0  0  0
    6.1035    1.5432    0.5618 H   0  0  0  0  0  0  0  0  0  0  0  0
  1  2  3  0
  2  3  1  0
  3  4  2  0
  4  5  1  0
  5  6  2  0
  6  7  1  0
  7  8  2  0
  8  9  1  0
  9 10  2  0
 10 11  1  0
 11 12  2  0
 12 13  1  0
 13 14  2  0
 14 15  1  0
 15 16  2  0
 16 17  1  0
 17 18  2  0
 12 19  1  0
  6 20  1  0
 20 21  2  0
 21  3  1  0
 19  9  1  0
 18 13  1  0
  4 22  1  0
  5 23  1  0
  7 24  1  0
  8 25  1  0
 11 26  1  0
 14 27  1  0
 15 28  1  0
 16 29  1  0
 17 30  1  0
 18 31  1  0
 20 32  1  0
 21 33  1  0
M  END
