
     RDKit          3D

 83 94  0  0  0  0  0  0  0  0999 V2000
   -6.9171    2.8555   -1.7083 C   0  0  0  0  0  0  0  0  0  0  0  0
   -5.5661    2.9957   -1.5230 C   0  0  0  0  0  0  0  0  0  0  0  0
   -4.9205    2.1356   -0.6692 C   0  0  0  0  0  0  0  0  0  0  0  0
   -5.5681    1.1232    0.0222 C   0  0  0  0  0  0  0  0  0  0  0  0
   -6.9187    1.0248   -0.1975 C   0  0  0  0  0  0  0  0  0  0  0  0
   -7.5892    1.8638   -1.0394 C   0  0  0  0  0  0  0  0  0  0  0  0
   -7.8718   -0.2286    0.6244 S   0  0  0  0  0  0  0  0  0  0  0  0
   -6.7330   -1.1469    1.6364 C   0  0  0  0  0  0  0  0  0  0  0  0
   -7.2285   -2.1849    2.3830 C   0  0  0  0  0  0  0  0  0  0  0  0
   -6.4026   -2.9388    3.1896 C   0  0  0  0  0  0  0  0  0  0  0  0
   -5.0640   -2.6003    3.2083 C   0  0  0  0  0  0  0  0  0  0  0  0
   -4.5701   -1.5599    2.4593 C   0  0  0  0  0  0  0  0  0  0  0  0
   -5.4052   -0.7921    1.6393 C   0  0  0  0  0  0  0  0  0  0  0  0
   -4.8493    0.2625    0.8927 N   0  0  0  0  0  0  0  0  0  0  0  0
   -3.4448    0.5126    0.9981 C   0  0  0  0  0  0  0  0  0  0  0  0
   -3.0016    1.3961    1.9586 C   0  0  0  0  0  0  0  0  0  0  0  0
   -1.6386    1.6313    2.0517 C   0  0  0  0  0  0  0  0  0  0  0  0
   -0.7230    1.0104    1.2163 C   0  0  0  0  0  0  0  0  0  0  0  0
   -1.1505    0.1311    0.2585 C   0  0  0  0  0  0  0  0  0  0  0  0
   -2.5350   -0.1030    0.1695 C   0  0  0  0  0  0  0  0  0  0  0  0
    0.0021   -0.3818   -0.4847 C   0  0  0  0  0  0  0  0  0  0  0  0
    0.1038   -1.8480   -0.3116 C   0  0  0  0  0  0  0  0  0  0  0  0
    0.2175   -2.6113    0.8303 C   0  0  0  0  0  0  0  0  0  0  0  0
    0.2963   -3.9836    0.7121 C   0  0  0  0  0  0  0  0  0  0  0  0
    0.2598   -4.5572   -0.5391 C   0  0  0  0  0  0  0  0  0  0  0  0
    0.1473   -3.7932   -1.6601 C   0  0  0  0  0  0  0  0  0  0  0  0
    0.0664   -2.4064   -1.5624 C   0  0  0  0  0  0  0  0  0  0  0  0
   -0.0578   -1.3461   -2.5701 C   0  0  0  0  0  0  0  0  0  0  0  0
   -0.1306   -1.4657   -3.9617 C   0  0  0  0  0  0  0  0  0  0  0  0
   -0.2451   -0.3370   -4.7314 C   0  0  0  0  0  0  0  0  0  0  0  0
   -0.2862    0.8943   -4.1154 C   0  0  0  0  0  0  0  0  0  0  0  0
   -0.2126    0.9846   -2.7393 C   0  0  0  0  0  0  0  0  0  0  0  0
   -0.0971   -0.1307   -1.9398 C   0  0  0  0  0  0  0  0  0  0  0  0
    1.1745    0.2741    0.1209 C   0  0  0  0  0  0  0  0  0  0  0  0
    2.5427    0.2078   -0.1321 C   0  0  0  0  0  0  0  0  0  0  0  0
    3.4583    0.9313    0.5839 C   0  0  0  0  0  0  0  0  0  0  0  0
    4.8724    0.8328    0.3192 N   0  0  0  0  0  0  0  0  0  0  0  0
    5.5239    1.9769   -0.1995 C   0  0  0  0  0  0  0  0  0  0  0  0
    4.7568    3.1272   -0.4528 C   0  0  0  0  0  0  0  0  0  0  0  0
    5.3045    4.2791   -0.9602 C   0  0  0  0  0  0  0  0  0  0  0  0
    6.6442    4.3365   -1.2389 C   0  0  0  0  0  0  0  0  0  0  0  0
    7.4235    3.2294   -1.0035 C   0  0  0  0  0  0  0  0  0  0  0  0
    6.8497    2.0893   -0.4951 C   0  0  0  0  0  0  0  0  0  0  0  0
    7.9023    0.6475   -0.2041 S   0  0  0  0  0  0  0  0  0  0  0  0
    6.8515   -0.6196    0.4307 C   0  0  0  0  0  0  0  0  0  0  0  0
    7.3703   -1.8279    0.7459 C   0  0  0  0  0  0  0  0  0  0  0  0
    6.6237   -2.8769    1.2539 C   0  0  0  0  0  0  0  0  0  0  0  0
    5.2962   -2.6602    1.4390 C   0  0  0  0  0  0  0  0  0  0  0  0
    4.7292   -1.4244    1.1237 C   0  0  0  0  0  0  0  0  0  0  0  0
    5.5117   -0.3846    0.6116 C   0  0  0  0  0  0  0  0  0  0  0  0
    2.9638    1.7418    1.5823 C   0  0  0  0  0  0  0  0  0  0  0  0
    1.6320    1.8552    1.8849 C   0  0  0  0  0  0  0  0  0  0  0  0
    0.7349    1.0946    1.1237 C   0  0  0  0  0  0  0  0  0  0  0  0
   -7.4663    3.5297   -2.3872 H   0  0  0  0  0  0  0  0  0  0  0  0
   -5.0491    3.7867   -2.0607 H   0  0  0  0  0  0  0  0  0  0  0  0
   -3.8419    2.2560   -0.5283 H   0  0  0  0  0  0  0  0  0  0  0  0
   -8.6703    1.7828   -1.2133 H   0  0  0  0  0  0  0  0  0  0  0  0
   -8.2926   -2.4663    2.3784 H   0  0  0  0  0  0  0  0  0  0  0  0
   -6.7689   -3.7614    3.7872 H   0  0  0  0  0  0  0  0  0  0  0  0
   -4.4100   -3.1890    3.8401 H   0  0  0  0  0  0  0  0  0  0  0  0
   -3.5005   -1.2961    2.4798 H   0  0  0  0  0  0  0  0  0  0  0  0
   -3.7074    1.8927    2.6233 H   0  0  0  0  0  0  0  0  0  0  0  0
   -1.2435    2.3159    2.7892 H   0  0  0  0  0  0  0  0  0  0  0  0
   -2.8994   -0.7917   -0.5768 H   0  0  0  0  0  0  0  0  0  0  0  0
    0.2458   -2.1471    1.8211 H   0  0  0  0  0  0  0  0  0  0  0  0
    0.3860   -4.5784    1.6230 H   0  0  0  0  0  0  0  0  0  0  0  0
    0.3213   -5.6250   -0.6282 H   0  0  0  0  0  0  0  0  0  0  0  0
    0.1178   -4.2382   -2.6513 H   0  0  0  0  0  0  0  0  0  0  0  0
   -0.0947   -2.4528   -4.4044 H   0  0  0  0  0  0  0  0  0  0  0  0
   -0.3031   -0.4163   -5.8231 H   0  0  0  0  0  0  0  0  0  0  0  0
   -0.3766    1.7953   -4.7130 H   0  0  0  0  0  0  0  0  0  0  0  0
   -0.2452    1.9476   -2.2654 H   0  0  0  0  0  0  0  0  0  0  0  0
    2.8593   -0.4445   -0.9251 H   0  0  0  0  0  0  0  0  0  0  0  0
    3.6803    3.1125   -0.2475 H   0  0  0  0  0  0  0  0  0  0  0  0
    4.6854    5.1322   -1.1381 H   0  0  0  0  0  0  0  0  0  0  0  0
    7.0852    5.2567   -1.6447 H   0  0  0  0  0  0  0  0  0  0  0  0
    8.4993    3.2223   -1.2089 H   0  0  0  0  0  0  0  0  0  0  0  0
    8.4354   -2.0225    0.6047 H   0  0  0  0  0  0  0  0  0  0  0  0
    7.0767   -3.8290    1.4935 H   0  0  0  0  0  0  0  0  0  0  0  0
    4.6995   -3.4565    1.8305 H   0  0  0  0  0  0  0  0  0  0  0  0
    3.6851   -1.3507    1.3078 H   0  0  0  0  0  0  0  0  0  0  0  0
    3.7161    2.3111    2.1415 H   0  0  0  0  0  0  0  0  0  0  0  0
    1.2443    2.4882    2.6649 H   0  0  0  0  0  0  0  0  0  0  0  0
  1  2  2  0
  2  3  1  0
  3  4  2  0
  4  5  1  0
  5  6  2  0
  5  7  1  0
  7  8  1  0
  8  9  2  0
  9 10  1  0
 10 11  2  0
 11 12  1  0
 12 13  2  0
 13 14  1  0
 14 15  1  0
 15 16  2  0
 16 17  1  0
 17 18  2  0
 18 19  1  0
 19 20  2  0
 19 21  1  0
 21 22  1  0
 22 23  2  0
 23 24  1  0
 24 25  2  0
 25 26  1  0
 26 27  2  0
 27 28  1  0
 28 29  2  0
 29 30  1  0
 30 31  2  0
 31 32  1  0
 32 33  2  0
 21 34  1  0
 34 35  2  0
 35 36  1  0
 36 37  1  0
 37 38  1  0
 38 39  2  0
 39 40  1  0
 40 41  2  0
 41 42  1  0
 42 43  2  0
 43 44  1  0
 44 45  1  0
 45 46  2  0
 46 47  1  0
 47 48  2  0
 48 49  1  0
 49 50  2  0
 36 51  2  0
 51 52  1  0
 52 53  2  0
  6  1  1  0
 13  8  1  0
 20 15  1  0
 33 21  1  0
 53 34  1  0
 14  4  1  0
 53 18  1  0
 27 22  1  0
 33 28  1  0
 50 37  1  0
 43 38  1  0
 50 45  1  0
  1 54  1  0
  2 55  1  0
  3 56  1  0
  6 57  1  0
  9 58  1  0
 10 59  1  0
 11 60  1  0
 12 61  1  0
 16 62  1  0
 17 63  1  0
 20 64  1  0
 23 65  1  0
 24 66  1  0
 25 67  1  0
 26 68  1  0
 29 69  1  0
 30 70  1  0
 31 71  1  0
 32 72  1  0
 35 73  1  0
 39 74  1  0
 40 75  1  0
 41 76  1  0
 42 77  1  0
 46 78  1  0
 47 79  1  0
 48 80  1  0
 49 81  1  0
 51 82  1  0
 52 83  1  0
M  END
