
     RDKit          3D

 43 46  0  0  0  0  0  0  0  0999 V2000
    7.2936   -1.1512   -0.9786 C   0  0  0  0  0  0  0  0  0  0  0  0
    5.8892   -0.9770   -0.9353 O   0  0  0  0  0  0  0  0  0  0  0  0
    5.1979   -0.4214    0.1217 C   0  0  0  0  0  0  0  0  0  0  0  0
    5.8428   -0.0389    1.1212 O   0  0  0  0  0  0  0  0  0  0  0  0
    3.7306   -0.2692    0.1015 C   0  0  0  0  0  0  0  0  0  0  0  0
    3.0070   -0.6787   -0.9815 C   0  0  0  0  0  0  0  0  0  0  0  0
    1.6249   -0.5499   -1.0376 C   0  0  0  0  0  0  0  0  0  0  0  0
    0.9341    0.0009    0.0098 C   0  0  0  0  0  0  0  0  0  0  0  0
   -0.5154    0.1404    0.0256 C   0  0  0  0  0  0  0  0  0  0  0  0
   -1.0880    1.2896    0.3517 C   0  0  0  0  0  0  0  0  0  0  0  0
   -0.4358    2.5596    0.7322 C   0  0  0  0  0  0  0  0  0  0  0  0
   -1.4322    3.4012    0.9698 C   0  0  0  0  0  0  0  0  0  0  0  0
   -2.6793    2.7281    0.7581 C   0  0  0  0  0  0  0  0  0  0  0  0
   -4.0219    3.3212    0.9174 C   0  0  0  0  0  0  0  0  0  0  0  0
   -2.4805    1.4838    0.3937 N   0  0  0  0  0  4  0  0  0  0  0  0
   -3.4394    0.3755    0.0526 B   0  0  0  0  0  4  0  0  0  0  0  0
   -4.2935    0.7290   -1.0948 F   0  0  0  0  0  0  0  0  0  0  0  0
   -4.3872    0.1137    1.1514 F   0  0  0  0  0  0  0  0  0  0  0  0
   -2.7057   -0.9127   -0.3017 N   0  0  0  0  0  0  0  0  0  0  0  0
   -3.2046   -2.1376   -0.6511 C   0  0  0  0  0  0  0  0  0  0  0  0
   -4.6325   -2.4796   -0.7616 C   0  0  0  0  0  0  0  0  0  0  0  0
   -2.1551   -2.9764   -0.8758 C   0  0  0  0  0  0  0  0  0  0  0  0
   -0.9672   -2.2835   -0.6685 C   0  0  0  0  0  0  0  0  0  0  0  0
   -1.3687   -0.9978   -0.3117 C   0  0  0  0  0  0  0  0  0  0  0  0
    1.6659    0.4125    1.1011 C   0  0  0  0  0  0  0  0  0  0  0  0
    3.0514    0.2852    1.1603 C   0  0  0  0  0  0  0  0  0  0  0  0
    7.5398   -2.1285   -1.4276 H   0  0  0  0  0  0  0  0  0  0  0  0
    7.7617   -1.0681    0.0245 H   0  0  0  0  0  0  0  0  0  0  0  0
    7.7308   -0.3773   -1.6343 H   0  0  0  0  0  0  0  0  0  0  0  0
    3.5538   -1.1200   -1.8214 H   0  0  0  0  0  0  0  0  0  0  0  0
    1.0896   -0.8764   -1.9064 H   0  0  0  0  0  0  0  0  0  0  0  0
    0.6185    2.7696    0.7976 H   0  0  0  0  0  0  0  0  0  0  0  0
   -1.3029    4.4400    1.2772 H   0  0  0  0  0  0  0  0  0  0  0  0
   -4.7856    2.5481    1.1346 H   0  0  0  0  0  0  0  0  0  0  0  0
   -4.3131    3.8158   -0.0217 H   0  0  0  0  0  0  0  0  0  0  0  0
   -4.0077    4.0116    1.7608 H   0  0  0  0  0  0  0  0  0  0  0  0
   -5.2240   -1.5772   -0.9758 H   0  0  0  0  0  0  0  0  0  0  0  0
   -4.9545   -2.9927    0.1746 H   0  0  0  0  0  0  0  0  0  0  0  0
   -4.7877   -3.2095   -1.5829 H   0  0  0  0  0  0  0  0  0  0  0  0
   -2.1952   -4.0054   -1.1655 H   0  0  0  0  0  0  0  0  0  0  0  0
    0.0430   -2.6572   -0.7591 H   0  0  0  0  0  0  0  0  0  0  0  0
    1.2024    0.8446    1.9751 H   0  0  0  0  0  0  0  0  0  0  0  0
    3.6009    0.6159    2.0256 H   0  0  0  0  0  0  0  0  0  0  0  0
  1  2  1  0
  2  3  1  0
  3  4  2  0
  3  5  1  0
  5  6  2  0
  6  7  1  0
  7  8  2  0
  8  9  1  0
  9 10  2  0
 10 11  1  0
 11 12  2  0
 12 13  1  0
 13 14  1  0
 13 15  2  0
 15 16  1  0
 16 17  1  0
 16 18  1  0
 16 19  1  0
 19 20  1  0
 20 21  1  0
 20 22  2  0
 22 23  1  0
 23 24  2  0
  8 25  1  0
 25 26  2  0
 26  5  1  0
 24  9  1  0
 15 10  1  0
 24 19  1  0
  1 27  1  0
  1 28  1  0
  1 29  1  0
  6 30  1  0
  7 31  1  0
 11 32  1  0
 12 33  1  0
 14 34  1  0
 14 35  1  0
 14 36  1  0
 21 37  1  0
 21 38  1  0
 21 39  1  0
 22 40  1  0
 23 41  1  0
 25 42  1  0
 26 43  1  0
M  CHG  2  15   1  16  -1
M  END
