
     RDKit          3D

 35 38  0  0  0  0  0  0  0  0999 V2000
    5.0777   -1.3814   -0.2947 C   0  0  0  0  0  0  0  0  0  0  0  0
    4.1059   -0.4716    0.1601 O   0  0  0  0  0  0  0  0  0  0  0  0
    2.7748   -0.6831   -0.1063 C   0  0  0  0  0  0  0  0  0  0  0  0
    2.2412   -1.7248   -0.7951 C   0  0  0  0  0  0  0  0  0  0  0  0
    0.8729   -1.5392   -0.8236 C   0  0  0  0  0  0  0  0  0  0  0  0
    0.5908   -0.3655   -0.1390 C   0  0  0  0  0  0  0  0  0  0  0  0
    1.7612    0.1226    0.2785 N   0  0  0  0  0  0  0  0  0  0  0  0
    1.8205    1.4181    1.0657 B   0  0  0  0  0  4  0  0  0  0  0  0
    2.7085    2.3302    0.3201 F   0  0  0  0  0  0  0  0  0  0  0  0
    2.4972    1.1902    2.3522 F   0  0  0  0  0  0  0  0  0  0  0  0
    0.4548    2.0303    1.2802 N   0  0  0  0  0  4  0  0  0  0  0  0
    0.1701    3.1253    1.9053 C   0  0  0  0  0  0  0  0  0  0  0  0
   -1.2757    3.2835    1.8401 C   0  0  0  0  0  0  0  0  0  0  0  0
   -1.8193    2.2752    1.1748 C   0  0  0  0  0  0  0  0  0  0  0  0
   -0.7178    1.4049    0.7748 C   0  0  0  0  0  0  0  0  0  0  0  0
   -0.6915    0.2686    0.1010 C   0  0  0  0  0  0  0  0  0  0  0  0
   -1.9270   -0.3501   -0.4208 C   0  0  0  0  0  0  0  0  0  0  0  0
   -2.1833   -1.7018   -0.2314 C   0  0  0  0  0  0  0  0  0  0  0  0
   -3.3085   -2.3186   -0.7188 C   0  0  0  0  0  0  0  0  0  0  0  0
   -4.2078   -1.5669   -1.4164 C   0  0  0  0  0  0  0  0  0  0  0  0
   -3.9863   -0.2244   -1.6228 C   0  0  0  0  0  0  0  0  0  0  0  0
   -2.8514    0.3795   -1.1272 C   0  0  0  0  0  0  0  0  0  0  0  0
    5.3361   -2.1125    0.4974 H   0  0  0  0  0  0  0  0  0  0  0  0
    6.0220   -0.8157   -0.5071 H   0  0  0  0  0  0  0  0  0  0  0  0
    4.7661   -1.9499   -1.1947 H   0  0  0  0  0  0  0  0  0  0  0  0
    2.8165   -2.5302   -1.2252 H   0  0  0  0  0  0  0  0  0  0  0  0
    0.1888   -2.2097   -1.3089 H   0  0  0  0  0  0  0  0  0  0  0  0
    0.8537    3.8105    2.3913 H   0  0  0  0  0  0  0  0  0  0  0  0
   -1.8465    4.1185    2.2767 H   0  0  0  0  0  0  0  0  0  0  0  0
   -2.8748    2.1214    0.9689 H   0  0  0  0  0  0  0  0  0  0  0  0
   -1.4709   -2.3122    0.3405 H   0  0  0  0  0  0  0  0  0  0  0  0
   -3.4450   -3.3762   -0.5340 H   0  0  0  0  0  0  0  0  0  0  0  0
   -5.1020   -2.0745   -1.8005 H   0  0  0  0  0  0  0  0  0  0  0  0
   -4.6979    0.3835   -2.1783 H   0  0  0  0  0  0  0  0  0  0  0  0
   -2.6530    1.4460   -1.2833 H   0  0  0  0  0  0  0  0  0  0  0  0
  1  2  1  0
  2  3  1  0
  3  4  2  0
  4  5  1  0
  5  6  2  0
  6  7  1  0
  7  8  1  0
  8  9  1  0
  8 10  1  0
  8 11  1  0
 11 12  2  0
 12 13  1  0
 13 14  2  0
 14 15  1  0
 15 16  2  0
 16 17  1  0
 17 18  2  0
 18 19  1  0
 19 20  2  0
 20 21  1  0
 21 22  2  0
  7  3  1  0
 15 11  1  0
 22 17  1  0
 16  6  1  0
  1 23  1  0
  1 24  1  0
  1 25  1  0
  4 26  1  0
  5 27  1  0
 12 28  1  0
 13 29  1  0
 14 30  1  0
 18 31  1  0
 19 32  1  0
 20 33  1  0
 21 34  1  0
 22 35  1  0
M  CHG  2   8  -1  11   1
M  END
