
     RDKit          3D

 79 86  0  0  0  0  0  0  0  0999 V2000
   -2.1951   -6.4658    1.9270 C   0  0  0  0  0  0  0  0  0  0  0  0
   -2.4525   -7.6556    1.0728 C   0  0  0  0  0  0  0  0  0  0  0  0
   -1.9901   -7.4435   -0.3154 N   0  0  0  0  0  0  0  0  0  0  0  0
   -2.0136   -8.4790   -1.2839 C   0  0  0  0  0  0  0  0  0  0  0  0
   -0.9407   -9.5358   -1.0094 C   0  0  0  0  0  0  0  0  0  0  0  0
   -1.4715   -6.1198   -0.6134 C   0  0  0  0  0  0  0  0  0  0  0  0
   -0.1299   -5.8959   -0.5046 C   0  0  0  0  0  0  0  0  0  0  0  0
    0.3786   -4.6082   -0.5433 C   0  0  0  0  0  0  0  0  0  0  0  0
   -0.4668   -3.5104   -0.6949 C   0  0  0  0  0  0  0  0  0  0  0  0
    0.0882   -2.1566   -0.4125 C   0  0  0  0  0  0  0  0  0  0  0  0
    1.3455   -2.0684   -0.0366 N   0  0  0  0  0  0  0  0  0  0  0  0
    1.8857   -0.9062    0.4860 C   0  0  0  0  0  0  0  0  0  0  0  0
    3.1786   -0.9070    0.8576 O   0  0  0  0  0  0  0  0  0  0  0  0
    4.1670   -0.0385    0.6180 C   0  0  0  0  0  0  0  0  0  0  0  0
    4.2136    0.6179   -0.6419 C   0  0  0  0  0  0  0  0  0  0  0  0
    5.2625    1.5270   -0.8674 C   0  0  0  0  0  0  0  0  0  0  0  0
    6.2360    1.8147    0.0467 C   0  0  0  0  0  0  0  0  0  0  0  0
    7.2671    2.8364   -0.1925 C   0  0  0  0  0  0  0  0  0  0  0  0
    8.1102    3.3004    0.7140 N   0  0  0  0  0  0  0  0  0  0  0  0
    8.9266    4.2582    0.4378 C   0  0  0  0  0  0  0  0  0  0  0  0
    9.8456    4.8483    1.3172 C   0  0  0  0  0  0  0  0  0  0  0  0
   10.6477    5.8799    0.9252 C   0  0  0  0  0  0  0  0  0  0  0  0
   10.6128    6.3920   -0.3244 C   0  0  0  0  0  0  0  0  0  0  0  0
    9.7136    5.8364   -1.2313 C   0  0  0  0  0  0  0  0  0  0  0  0
    8.8867    4.7798   -0.8371 C   0  0  0  0  0  0  0  0  0  0  0  0
    7.6432    3.8100   -1.5420 S   0  0  0  0  0  0  0  0  0  0  0  0
    6.1848    1.1705    1.2610 C   0  0  0  0  0  0  0  0  0  0  0  0
    5.1567    0.2678    1.5051 C   0  0  0  0  0  0  0  0  0  0  0  0
    1.0367    0.1091    0.5749 N   0  0  0  0  0  0  0  0  0  0  0  0
   -0.2792    0.0633    0.1933 C   0  0  0  0  0  0  0  0  0  0  0  0
   -0.9647    1.1915    0.3736 O   0  0  0  0  0  0  0  0  0  0  0  0
   -2.1705    1.7341    0.2110 C   0  0  0  0  0  0  0  0  0  0  0  0
   -3.2103    1.2801   -0.5834 C   0  0  0  0  0  0  0  0  0  0  0  0
   -4.4222    1.9715   -0.6578 C   0  0  0  0  0  0  0  0  0  0  0  0
   -4.5938    3.1080    0.0582 C   0  0  0  0  0  0  0  0  0  0  0  0
   -5.8207    3.9054   -0.0597 C   0  0  0  0  0  0  0  0  0  0  0  0
   -6.2804    4.8574    0.6652 N   0  0  0  0  0  0  0  0  0  0  0  0
   -7.4077    5.4554    0.4730 C   0  0  0  0  0  0  0  0  0  0  0  0
   -7.9904    6.4885    1.2164 C   0  0  0  0  0  0  0  0  0  0  0  0
   -9.1916    6.9860    0.8614 C   0  0  0  0  0  0  0  0  0  0  0  0
   -9.9504    6.5724   -0.2094 C   0  0  0  0  0  0  0  0  0  0  0  0
   -9.3788    5.5333   -0.9765 C   0  0  0  0  0  0  0  0  0  0  0  0
   -8.1363    5.0032   -0.6180 C   0  0  0  0  0  0  0  0  0  0  0  0
   -7.1118    3.7674   -1.2265 S   0  0  0  0  0  0  0  0  0  0  0  0
   -3.6113    3.6046    0.8665 C   0  0  0  0  0  0  0  0  0  0  0  0
   -2.4372    2.9258    0.9321 C   0  0  0  0  0  0  0  0  0  0  0  0
   -0.7397   -1.1254   -0.3152 N   0  0  0  0  0  0  0  0  0  0  0  0
   -1.8108   -3.7455   -0.8193 C   0  0  0  0  0  0  0  0  0  0  0  0
   -2.3330   -5.0601   -0.7811 C   0  0  0  0  0  0  0  0  0  0  0  0
   -1.1026   -6.3536    2.1692 H   0  0  0  0  0  0  0  0  0  0  0  0
   -2.5165   -5.4976    1.5656 H   0  0  0  0  0  0  0  0  0  0  0  0
   -2.7127   -6.6058    2.9174 H   0  0  0  0  0  0  0  0  0  0  0  0
   -2.0018   -8.5448    1.5080 H   0  0  0  0  0  0  0  0  0  0  0  0
   -3.5743   -7.8009    1.0122 H   0  0  0  0  0  0  0  0  0  0  0  0
   -1.9218   -8.1430   -2.3097 H   0  0  0  0  0  0  0  0  0  0  0  0
   -2.9893   -9.0572   -1.1342 H   0  0  0  0  0  0  0  0  0  0  0  0
   -1.3106  -10.3489   -0.3827 H   0  0  0  0  0  0  0  0  0  0  0  0
   -0.0485   -9.0184   -0.5619 H   0  0  0  0  0  0  0  0  0  0  0  0
   -0.6169   -9.9224   -1.9717 H   0  0  0  0  0  0  0  0  0  0  0  0
    0.5418   -6.7328   -0.3847 H   0  0  0  0  0  0  0  0  0  0  0  0
    1.4442   -4.3837   -0.4729 H   0  0  0  0  0  0  0  0  0  0  0  0
    3.4750    0.4271   -1.3807 H   0  0  0  0  0  0  0  0  0  0  0  0
    5.2620    1.9801   -1.8391 H   0  0  0  0  0  0  0  0  0  0  0  0
    9.9457    4.4969    2.3581 H   0  0  0  0  0  0  0  0  0  0  0  0
   11.3593    6.3190    1.6885 H   0  0  0  0  0  0  0  0  0  0  0  0
   11.2451    7.1988   -0.6187 H   0  0  0  0  0  0  0  0  0  0  0  0
    9.6182    6.1872   -2.2436 H   0  0  0  0  0  0  0  0  0  0  0  0
    6.9283    1.3494    2.0062 H   0  0  0  0  0  0  0  0  0  0  0  0
    5.1239   -0.2364    2.4915 H   0  0  0  0  0  0  0  0  0  0  0  0
   -3.0551    0.3702   -1.1351 H   0  0  0  0  0  0  0  0  0  0  0  0
   -5.2314    1.6146   -1.2856 H   0  0  0  0  0  0  0  0  0  0  0  0
   -7.4948    6.9238    2.0911 H   0  0  0  0  0  0  0  0  0  0  0  0
   -9.6262    7.7816    1.4739 H   0  0  0  0  0  0  0  0  0  0  0  0
  -10.8974    6.9512   -0.5128 H   0  0  0  0  0  0  0  0  0  0  0  0
   -9.8651    5.1366   -1.8290 H   0  0  0  0  0  0  0  0  0  0  0  0
   -3.7745    4.5083    1.4249 H   0  0  0  0  0  0  0  0  0  0  0  0
   -1.6491    3.3332    1.5889 H   0  0  0  0  0  0  0  0  0  0  0  0
   -2.4541   -2.8901   -0.9596 H   0  0  0  0  0  0  0  0  0  0  0  0
   -3.3869   -5.2169   -0.8766 H   0  0  0  0  0  0  0  0  0  0  0  0
  1  2  1  0
  2  3  1  0
  3  4  1  0
  4  5  1  0
  3  6  1  0
  6  7  2  0
  7  8  1  0
  8  9  2  0
  9 10  1  0
 10 11  2  0
 11 12  1  0
 12 13  1  0
 13 14  1  0
 14 15  2  0
 15 16  1  0
 16 17  2  0
 17 18  1  0
 18 19  2  0
 19 20  1  0
 20 21  2  0
 21 22  1  0
 22 23  2  0
 23 24  1  0
 24 25  2  0
 25 26  1  0
 17 27  1  0
 27 28  2  0
 12 29  2  0
 29 30  1  0
 30 31  1  0
 31 32  1  0
 32 33  2  0
 33 34  1  0
 34 35  2  0
 35 36  1  0
 36 37  2  0
 37 38  1  0
 38 39  2  0
 39 40  1  0
 40 41  2  0
 41 42  1  0
 42 43  2  0
 43 44  1  0
 35 45  1  0
 45 46  2  0
 30 47  2  0
  9 48  1  0
 48 49  2  0
 49  6  1  0
 47 10  1  0
 28 14  1  0
 46 32  1  0
 26 18  1  0
 44 36  1  0
 25 20  1  0
 43 38  1  0
  1 50  1  0
  1 51  1  0
  1 52  1  0
  2 53  1  0
  2 54  1  0
  4 55  1  0
  4 56  1  0
  5 57  1  0
  5 58  1  0
  5 59  1  0
  7 60  1  0
  8 61  1  0
 15 62  1  0
 16 63  1  0
 21 64  1  0
 22 65  1  0
 23 66  1  0
 24 67  1  0
 27 68  1  0
 28 69  1  0
 33 70  1  0
 34 71  1  0
 39 72  1  0
 40 73  1  0
 41 74  1  0
 42 75  1  0
 45 76  1  0
 46 77  1  0
 48 78  1  0
 49 79  1  0
M  END
