
     RDKit          3D

 36 37  0  0  0  0  0  0  0  0999 V2000
    5.2360    1.0430    0.4708 C   0  0  0  0  0  0  0  0  0  0  0  0
    4.8511   -0.1075   -0.4059 C   0  0  0  0  0  0  0  0  0  0  0  0
    4.0268    0.3134   -1.5010 O   0  0  0  0  0  0  0  0  0  0  0  0
    2.8052    0.9274   -1.2678 C   0  0  0  0  0  0  0  0  0  0  0  0
    2.4662    1.0928   -0.0604 O   0  0  0  0  0  0  0  0  0  0  0  0
    1.9048    1.3849   -2.3777 C   0  0  0  0  0  0  0  0  0  0  0  0
    0.7411    0.0765   -2.8498 S   0  0  0  0  0  0  0  0  0  0  0  0
   -0.4121   -0.2683   -1.5212 C   0  0  0  0  0  0  0  0  0  0  0  0
   -1.5736    0.3982   -1.4213 N   0  0  0  0  0  0  0  0  0  0  0  0
   -2.4438    0.1281   -0.4057 C   0  0  0  0  0  0  0  0  0  0  0  0
   -2.1824   -0.8237    0.5523 C   0  0  0  0  0  0  0  0  0  0  0  0
   -0.9835   -1.5246    0.4639 C   0  0  0  0  0  0  0  0  0  0  0  0
   -0.6583   -2.5390    1.4433 C   0  0  0  0  0  0  0  0  0  0  0  0
   -0.3950   -3.3661    2.2190 N   0  0  0  0  0  0  0  0  0  0  0  0
   -0.1263   -1.2277   -0.5737 C   0  0  0  0  0  0  0  0  0  0  0  0
    1.1115   -1.9318   -0.6907 C   0  0  0  0  0  0  0  0  0  0  0  0
    2.1083   -2.5161   -0.7980 N   0  0  0  0  0  0  0  0  0  0  0  0
   -3.0876   -1.1498    1.6685 C   0  0  0  0  0  0  0  0  0  0  0  0
   -4.1274   -0.1354    1.9614 C   0  0  0  0  0  0  0  0  0  0  0  0
   -4.0033    1.1233    1.1463 C   0  0  0  0  0  0  0  0  0  0  0  0
   -3.7367    0.8671   -0.3012 C   0  0  0  0  0  0  0  0  0  0  0  0
    4.6250    1.9331    0.2474 H   0  0  0  0  0  0  0  0  0  0  0  0
    6.2986    1.3605    0.2760 H   0  0  0  0  0  0  0  0  0  0  0  0
    5.2226    0.7906    1.5687 H   0  0  0  0  0  0  0  0  0  0  0  0
    4.3152   -0.8607    0.2049 H   0  0  0  0  0  0  0  0  0  0  0  0
    5.7847   -0.5301   -0.8372 H   0  0  0  0  0  0  0  0  0  0  0  0
    1.3108    2.2618   -2.0066 H   0  0  0  0  0  0  0  0  0  0  0  0
    2.4955    1.6573   -3.2571 H   0  0  0  0  0  0  0  0  0  0  0  0
   -3.5145   -2.1643    1.4419 H   0  0  0  0  0  0  0  0  0  0  0  0
   -2.4246   -1.2679    2.5784 H   0  0  0  0  0  0  0  0  0  0  0  0
   -5.1623   -0.5623    1.8215 H   0  0  0  0  0  0  0  0  0  0  0  0
   -4.0842    0.1613    3.0281 H   0  0  0  0  0  0  0  0  0  0  0  0
   -3.1938    1.7676    1.5477 H   0  0  0  0  0  0  0  0  0  0  0  0
   -4.9888    1.6487    1.2284 H   0  0  0  0  0  0  0  0  0  0  0  0
   -4.5108    0.1958   -0.7373 H   0  0  0  0  0  0  0  0  0  0  0  0
   -3.6942    1.8434   -0.8230 H   0  0  0  0  0  0  0  0  0  0  0  0
  1  2  1  0
  2  3  1  0
  3  4  1  0
  4  5  2  0
  4  6  1  0
  6  7  1  0
  7  8  1  0
  8  9  2  0
  9 10  1  0
 10 11  2  0
 11 12  1  0
 12 13  1  0
 13 14  3  0
 12 15  2  0
 15 16  1  0
 16 17  3  0
 11 18  1  0
 18 19  1  0
 19 20  1  0
 20 21  1  0
 15  8  1  0
 21 10  1  0
  1 22  1  0
  1 23  1  0
  1 24  1  0
  2 25  1  0
  2 26  1  0
  6 27  1  0
  6 28  1  0
 18 29  1  0
 18 30  1  0
 19 31  1  0
 19 32  1  0
 20 33  1  0
 20 34  1  0
 21 35  1  0
 21 36  1  0
M  END
