
     RDKit          3D

 41 45  0  0  0  0  0  0  0  0999 V2000
    2.0140   -3.0500    0.8576 F   0  0  0  0  0  0  0  0  0  0  0  0
    1.4735   -2.2946   -0.2830 B   0  0  0  0  0  4  0  0  0  0  0  0
    1.9505   -2.9674   -1.4817 F   0  0  0  0  0  0  0  0  0  0  0  0
    0.0449   -2.2839   -0.2700 O   0  0  0  0  0  0  0  0  0  0  0  0
   -0.7898   -1.1887   -0.1916 C   0  0  0  0  0  0  0  0  0  0  0  0
   -2.2397   -1.3088   -0.1554 C   0  0  0  0  0  0  0  0  0  0  0  0
   -2.9655   -2.0819   -1.0296 C   0  0  0  0  0  0  0  0  0  0  0  0
   -4.3561   -2.1921   -0.9300 C   0  0  0  0  0  0  0  0  0  0  0  0
   -5.0406   -1.5232    0.0555 C   0  0  0  0  0  0  0  0  0  0  0  0
   -4.3195   -0.7354    0.9497 C   0  0  0  0  0  0  0  0  0  0  0  0
   -2.9448   -0.6340    0.8415 C   0  0  0  0  0  0  0  0  0  0  0  0
   -0.2321   -0.0158   -0.1429 C   0  0  0  0  0  0  0  0  0  0  0  0
   -0.9821    1.2383   -0.0657 C   0  0  0  0  0  0  0  0  0  0  0  0
   -0.5782    2.2081    0.8235 C   0  0  0  0  0  0  0  0  0  0  0  0
   -1.2402    3.4310    0.9309 C   0  0  0  0  0  0  0  0  0  0  0  0
   -2.3194    3.6427    0.1145 C   0  0  0  0  0  0  0  0  0  0  0  0
   -2.7512    2.6942   -0.7880 C   0  0  0  0  0  0  0  0  0  0  0  0
   -2.0746    1.4990   -0.8678 C   0  0  0  0  0  0  0  0  0  0  0  0
    1.2431    0.1285   -0.1530 C   0  0  0  0  0  0  0  0  0  0  0  0
    2.2461    1.5176   -0.0884 S   0  0  0  0  0  0  0  0  0  0  0  0
    3.7608    0.7256   -0.1383 C   0  0  0  0  0  0  0  0  0  0  0  0
    5.0924    1.1729   -0.1188 C   0  0  0  0  0  0  0  0  0  0  0  0
    6.1307    0.2751   -0.1670 C   0  0  0  0  0  0  0  0  0  0  0  0
    5.7870   -1.0507   -0.2332 C   0  0  0  0  0  0  0  0  0  0  0  0
    4.4915   -1.4992   -0.2526 C   0  0  0  0  0  0  0  0  0  0  0  0
    3.4017   -0.5906   -0.2038 C   0  0  0  0  0  0  0  0  0  0  0  0
    2.1085   -0.8651   -0.2098 N   0  0  0  0  0  4  0  0  0  0  0  0
   -2.4415   -2.6060   -1.8030 H   0  0  0  0  0  0  0  0  0  0  0  0
   -4.9016   -2.8149   -1.6406 H   0  0  0  0  0  0  0  0  0  0  0  0
   -6.1130   -1.5981    0.1460 H   0  0  0  0  0  0  0  0  0  0  0  0
   -4.8662   -0.2074    1.7281 H   0  0  0  0  0  0  0  0  0  0  0  0
   -2.3810   -0.0274    1.5385 H   0  0  0  0  0  0  0  0  0  0  0  0
    0.2724    2.0560    1.4750 H   0  0  0  0  0  0  0  0  0  0  0  0
   -0.8884    4.1538    1.6376 H   0  0  0  0  0  0  0  0  0  0  0  0
   -2.8468    4.5845    0.1829 H   0  0  0  0  0  0  0  0  0  0  0  0
   -3.6093    2.9187   -1.4047 H   0  0  0  0  0  0  0  0  0  0  0  0
   -2.4065    0.7618   -1.5797 H   0  0  0  0  0  0  0  0  0  0  0  0
    5.2112    2.2345   -0.0643 H   0  0  0  0  0  0  0  0  0  0  0  0
    7.1302    0.6439   -0.1513 H   0  0  0  0  0  0  0  0  0  0  0  0
    6.5861   -1.7787   -0.2716 H   0  0  0  0  0  0  0  0  0  0  0  0
    4.3437   -2.5722   -0.3066 H   0  0  0  0  0  0  0  0  0  0  0  0
  1  2  1  0
  2  3  1  0
  2  4  1  0
  4  5  1  0
  5  6  1  0
  6  7  2  0
  7  8  1  0
  8  9  2  0
  9 10  1  0
 10 11  2  0
  5 12  2  0
 12 13  1  0
 13 14  2  0
 14 15  1  0
 15 16  2  0
 16 17  1  0
 17 18  2  0
 12 19  1  0
 19 20  1  0
 20 21  1  0
 21 22  2  0
 22 23  1  0
 23 24  2  0
 24 25  1  0
 25 26  2  0
 26 27  1  0
 27  2  1  0
 11  6  1  0
 18 13  1  0
 27 19  2  0
 26 21  1  0
  7 28  1  0
  8 29  1  0
  9 30  1  0
 10 31  1  0
 11 32  1  0
 14 33  1  0
 15 34  1  0
 16 35  1  0
 17 36  1  0
 18 37  1  0
 22 38  1  0
 23 39  1  0
 24 40  1  0
 25 41  1  0
M  CHG  2   2  -1  27   1
M  END
