
     RDKit          3D

 43 47  0  0  0  0  0  0  0  0999 V2000
   -2.5764   -4.1935    0.0903 C   0  0  0  0  0  0  0  0  0  0  0  0
   -2.0954   -2.7888   -0.0049 C   0  0  0  0  0  0  0  0  0  0  0  0
   -2.9823   -1.7364   -0.2494 C   0  0  0  0  0  0  0  0  0  0  0  0
   -2.5370   -0.4415   -0.3368 C   0  0  0  0  0  0  0  0  0  0  0  0
   -3.4646    0.6691   -0.5937 C   0  0  0  0  0  0  0  0  0  0  0  0
   -4.8072    0.4603   -0.7560 C   0  0  0  0  0  0  0  0  0  0  0  0
   -5.6956    1.5097   -1.0003 C   0  0  0  0  0  0  0  0  0  0  0  0
   -5.2028    2.7878   -1.0792 C   0  0  0  0  0  0  0  0  0  0  0  0
   -3.8408    3.0005   -0.9146 C   0  0  0  0  0  0  0  0  0  0  0  0
   -2.9668    1.9645   -0.6738 C   0  0  0  0  0  0  0  0  0  0  0  0
   -1.2047   -0.1822   -0.1818 N   0  0  0  0  0  0  0  0  0  0  0  0
   -0.3093   -1.1511    0.0542 C   0  0  0  0  0  0  0  0  0  0  0  0
   -0.7677   -2.4440    0.1396 C   0  0  0  0  0  0  0  0  0  0  0  0
    0.1493   -3.4391    0.3817 C   0  0  0  0  0  0  0  0  0  0  0  0
    1.4747   -3.0904    0.5254 C   0  0  0  0  0  0  0  0  0  0  0  0
    1.8979   -1.7802    0.4331 C   0  0  0  0  0  0  0  0  0  0  0  0
    3.1332   -1.2053    0.5383 N   0  0  0  0  0  0  0  0  0  0  0  0
    3.0195    0.1220    0.3694 C   0  0  0  0  0  0  0  0  0  0  0  0
    4.1176    1.1204    0.4067 C   0  0  0  0  0  0  0  0  0  0  0  0
    5.4106    0.7341    0.6306 C   0  0  0  0  0  0  0  0  0  0  0  0
    6.4227    1.6796    0.6621 C   0  0  0  0  0  0  0  0  0  0  0  0
    6.1434    3.0108    0.4698 C   0  0  0  0  0  0  0  0  0  0  0  0
    4.8480    3.3884    0.2466 C   0  0  0  0  0  0  0  0  0  0  0  0
    3.8459    2.4547    0.2152 C   0  0  0  0  0  0  0  0  0  0  0  0
    1.6786    0.3499    0.1570 C   0  0  0  0  0  0  0  0  0  0  0  0
    0.9966   -0.8112    0.1963 N   0  0  0  0  0  0  0  0  0  0  0  0
   -2.4655   -4.6299    1.0831 H   0  0  0  0  0  0  0  0  0  0  0  0
   -1.9911   -4.7893   -0.6677 H   0  0  0  0  0  0  0  0  0  0  0  0
   -3.6261   -4.2079   -0.2955 H   0  0  0  0  0  0  0  0  0  0  0  0
   -4.0240   -2.0152   -0.3618 H   0  0  0  0  0  0  0  0  0  0  0  0
   -5.2555   -0.5175   -0.7056 H   0  0  0  0  0  0  0  0  0  0  0  0
   -6.7619    1.3099   -1.1253 H   0  0  0  0  0  0  0  0  0  0  0  0
   -5.9056    3.5877   -1.2690 H   0  0  0  0  0  0  0  0  0  0  0  0
   -3.4741    4.0190   -0.9811 H   0  0  0  0  0  0  0  0  0  0  0  0
   -1.9067    2.0947   -0.5417 H   0  0  0  0  0  0  0  0  0  0  0  0
   -0.2133   -4.4503    0.4479 H   0  0  0  0  0  0  0  0  0  0  0  0
    2.2069   -3.8700    0.7169 H   0  0  0  0  0  0  0  0  0  0  0  0
    5.6592   -0.3061    0.7851 H   0  0  0  0  0  0  0  0  0  0  0  0
    7.4618    1.4106    0.8373 H   0  0  0  0  0  0  0  0  0  0  0  0
    6.9140    3.7902    0.4869 H   0  0  0  0  0  0  0  0  0  0  0  0
    4.6421    4.4617    0.0942 H   0  0  0  0  0  0  0  0  0  0  0  0
    2.8415    2.8145    0.0343 H   0  0  0  0  0  0  0  0  0  0  0  0
    1.2108    1.3100   -0.0186 H   0  0  0  0  0  0  0  0  0  0  0  0
  1  2  1  0
  2  3  2  0
  3  4  1  0
  4  5  1  0
  5  6  2  0
  6  7  1  0
  7  8  2  0
  8  9  1  0
  9 10  2  0
  4 11  2  0
 11 12  1  0
 12 13  2  0
 13 14  1  0
 14 15  2  0
 15 16  1  0
 16 17  2  0
 17 18  1  0
 18 19  1  0
 19 20  2  0
 20 21  1  0
 21 22  2  0
 22 23  1  0
 23 24  2  0
 18 25  2  0
 25 26  1  0
 13  2  1  0
 26 16  1  0
 10  5  1  0
 26 12  1  0
 24 19  1  0
  1 27  1  0
  1 28  1  0
  1 29  1  0
  3 30  1  0
  6 31  1  0
  7 32  1  0
  8 33  1  0
  9 34  1  0
 10 35  1  0
 14 36  1  0
 15 37  1  0
 20 38  1  0
 21 39  1  0
 22 40  1  0
 23 41  1  0
 24 42  1  0
 25 43  1  0
M  END
