
     RDKit          3D

 34 35  0  0  0  0  0  0  0  0999 V2000
   -4.9414    1.1028   -1.9944 C   0  0  0  0  0  0  0  0  0  0  0  0
   -4.7695    0.2346   -0.8028 C   0  0  0  0  0  0  0  0  0  0  0  0
   -5.8110   -0.2120   -0.2706 O   0  0  0  0  0  0  0  0  0  0  0  0
   -3.4702   -0.1019   -0.2529 C   0  0  0  0  0  0  0  0  0  0  0  0
   -2.2464    0.2716   -0.6728 N   0  0  0  0  0  0  0  0  0  0  0  0
   -1.2936   -0.2707    0.1319 C   0  0  0  0  0  0  0  0  0  0  0  0
    0.1357   -0.1231    0.0335 C   0  0  0  0  0  0  0  0  0  0  0  0
    0.6924    0.6373   -0.9598 C   0  0  0  0  0  0  0  0  0  0  0  0
    2.0693    0.7978   -1.0792 C   0  0  0  0  0  0  0  0  0  0  0  0
    2.9044    0.1705   -0.1672 C   0  0  0  0  0  0  0  0  0  0  0  0
    4.3195    0.3053   -0.2489 N   0  0  0  0  0  0  0  0  0  0  0  0
    5.1370   -0.3675    0.7234 C   0  0  0  0  0  0  0  0  0  0  0  0
    4.8848    1.1232   -1.3194 C   0  0  0  0  0  0  0  0  0  0  0  0
    2.3535   -0.5959    0.8347 C   0  0  0  0  0  0  0  0  0  0  0  0
    0.9624   -0.7428    0.9346 C   0  0  0  0  0  0  0  0  0  0  0  0
   -1.9455   -0.9771    1.0449 O   0  0  0  0  0  0  0  0  0  0  0  0
   -3.2395   -0.8990    0.8463 C   0  0  0  0  0  0  0  0  0  0  0  0
   -4.2936   -1.5670    1.6784 C   0  0  0  0  0  0  0  0  0  0  0  0
   -5.2049    2.1356   -1.6650 H   0  0  0  0  0  0  0  0  0  0  0  0
   -4.0405    1.0851   -2.6158 H   0  0  0  0  0  0  0  0  0  0  0  0
   -5.7912    0.7350   -2.6289 H   0  0  0  0  0  0  0  0  0  0  0  0
    0.0623    1.1439   -1.6932 H   0  0  0  0  0  0  0  0  0  0  0  0
    2.5114    1.3848   -1.8452 H   0  0  0  0  0  0  0  0  0  0  0  0
    4.9440   -1.4546    0.6380 H   0  0  0  0  0  0  0  0  0  0  0  0
    6.2067   -0.2118    0.5795 H   0  0  0  0  0  0  0  0  0  0  0  0
    4.7901   -0.0640    1.7318 H   0  0  0  0  0  0  0  0  0  0  0  0
    5.9485    1.3823   -1.0957 H   0  0  0  0  0  0  0  0  0  0  0  0
    4.3560    2.1125   -1.3668 H   0  0  0  0  0  0  0  0  0  0  0  0
    4.7544    0.6088   -2.2719 H   0  0  0  0  0  0  0  0  0  0  0  0
    2.9803   -1.0915    1.5529 H   0  0  0  0  0  0  0  0  0  0  0  0
    0.6033   -1.3626    1.7511 H   0  0  0  0  0  0  0  0  0  0  0  0
   -4.7258   -0.7663    2.3174 H   0  0  0  0  0  0  0  0  0  0  0  0
   -3.8089   -2.3461    2.3220 H   0  0  0  0  0  0  0  0  0  0  0  0
   -5.0339   -2.0771    1.0568 H   0  0  0  0  0  0  0  0  0  0  0  0
  1  2  1  0
  2  3  2  0
  2  4  1  0
  4  5  1  0
  5  6  2  0
  6  7  1  0
  7  8  2  0
  8  9  1  0
  9 10  2  0
 10 11  1  0
 11 12  1  0
 11 13  1  0
 10 14  1  0
 14 15  2  0
  6 16  1  0
 16 17  1  0
 17 18  1  0
 17  4  2  0
 15  7  1  0
  1 19  1  0
  1 20  1  0
  1 21  1  0
  8 22  1  0
  9 23  1  0
 12 24  1  0
 12 25  1  0
 12 26  1  0
 13 27  1  0
 13 28  1  0
 13 29  1  0
 14 30  1  0
 15 31  1  0
 18 32  1  0
 18 33  1  0
 18 34  1  0
M  END
