
     RDKit          3D

 52 55  0  0  0  0  0  0  0  0999 V2000
    3.8521    1.3953    2.4490 C   0  0  0  0  0  0  0  0  0  0  0  0
    2.3604    1.5327    2.5726 C   0  0  0  0  0  0  0  0  0  0  0  0
    1.6982    0.9852    1.4412 O   0  0  0  0  0  0  0  0  0  0  0  0
    0.3142    0.9980    1.3289 C   0  0  0  0  0  0  0  0  0  0  0  0
   -0.3054    1.5171    2.2788 O   0  0  0  0  0  0  0  0  0  0  0  0
   -0.3075    0.4329    0.1618 C   0  0  0  0  0  0  0  0  0  0  0  0
    0.3637   -0.1699   -0.9129 C   0  0  0  0  0  0  0  0  0  0  0  0
    1.7879   -0.3647   -1.0674 C   0  0  0  0  0  0  0  0  0  0  0  0
    2.4908   -1.1123   -0.1565 C   0  0  0  0  0  0  0  0  0  0  0  0
    3.8607   -1.3275   -0.2990 C   0  0  0  0  0  0  0  0  0  0  0  0
    4.5928   -2.0705    0.5956 C   0  0  0  0  0  0  0  0  0  0  0  0
    5.9434   -2.2573    0.4159 C   0  0  0  0  0  0  0  0  0  0  0  0
    6.5619   -1.6901   -0.6754 C   0  0  0  0  0  0  0  0  0  0  0  0
    5.8137   -0.9503   -1.5595 C   0  0  0  0  0  0  0  0  0  0  0  0
    4.4497   -0.7401   -1.4113 C   0  0  0  0  0  0  0  0  0  0  0  0
    3.7536   -0.0345   -2.2607 O   0  0  0  0  0  0  0  0  0  0  0  0
    2.4547    0.1777   -2.1377 C   0  0  0  0  0  0  0  0  0  0  0  0
    1.8358    0.8726   -2.9972 O   0  0  0  0  0  0  0  0  0  0  0  0
   -0.5846   -0.5158   -1.7666 N   0  0  0  0  0  0  0  0  0  0  0  0
   -1.7894   -0.1910   -1.3350 N   0  0  0  0  0  0  0  0  0  0  0  0
   -3.0257   -0.4229   -2.0124 C   0  0  0  0  0  0  0  0  0  0  0  0
   -3.6047    0.4666   -2.8910 C   0  0  0  0  0  0  0  0  0  0  0  0
   -4.8004    0.2122   -3.5279 C   0  0  0  0  0  0  0  0  0  0  0  0
   -5.4768   -0.9728   -3.3023 C   0  0  0  0  0  0  0  0  0  0  0  0
   -4.9138   -1.8716   -2.4291 C   0  0  0  0  0  0  0  0  0  0  0  0
   -5.5721   -3.0302   -2.2071 F   0  0  0  0  0  0  0  0  0  0  0  0
   -3.7183   -1.5976   -1.8030 C   0  0  0  0  0  0  0  0  0  0  0  0
   -1.6660    0.4098   -0.1224 C   0  0  0  0  0  0  0  0  0  0  0  0
   -2.7932    0.8975    0.6445 C   0  0  0  0  0  0  0  0  0  0  0  0
   -3.9728    0.7617    0.1700 O   0  0  0  0  0  0  0  0  0  0  0  0
   -2.7542    1.5163    1.8744 O   0  0  0  0  0  0  0  0  0  0  0  0
   -3.9178    1.9634    2.5562 C   0  0  0  0  0  0  0  0  0  0  0  0
   -4.8857    0.8731    2.8590 C   0  0  0  0  0  0  0  0  0  0  0  0
    4.1557    0.4545    2.9565 H   0  0  0  0  0  0  0  0  0  0  0  0
    4.1960    1.3046    1.3963 H   0  0  0  0  0  0  0  0  0  0  0  0
    4.4022    2.2527    2.8943 H   0  0  0  0  0  0  0  0  0  0  0  0
    2.1366    2.6240    2.6487 H   0  0  0  0  0  0  0  0  0  0  0  0
    2.0010    1.0713    3.5108 H   0  0  0  0  0  0  0  0  0  0  0  0
    2.0449   -1.5781    0.6977 H   0  0  0  0  0  0  0  0  0  0  0  0
    4.1275   -2.5209    1.4533 H   0  0  0  0  0  0  0  0  0  0  0  0
    6.5515   -2.8451    1.1123 H   0  0  0  0  0  0  0  0  0  0  0  0
    7.6225   -1.8431   -0.8062 H   0  0  0  0  0  0  0  0  0  0  0  0
    6.2754   -0.4837   -2.4403 H   0  0  0  0  0  0  0  0  0  0  0  0
   -3.1173    1.3991   -3.0979 H   0  0  0  0  0  0  0  0  0  0  0  0
   -5.2278    0.9519   -4.2236 H   0  0  0  0  0  0  0  0  0  0  0  0
   -6.4262   -1.1903   -3.7994 H   0  0  0  0  0  0  0  0  0  0  0  0
   -3.2631   -2.3057   -1.1073 H   0  0  0  0  0  0  0  0  0  0  0  0
   -3.5616    2.4114    3.5069 H   0  0  0  0  0  0  0  0  0  0  0  0
   -4.4247    2.7816    2.0046 H   0  0  0  0  0  0  0  0  0  0  0  0
   -4.5990   -0.0895    2.3904 H   0  0  0  0  0  0  0  0  0  0  0  0
   -5.9053    1.1476    2.4642 H   0  0  0  0  0  0  0  0  0  0  0  0
   -5.0333    0.7644    3.9648 H   0  0  0  0  0  0  0  0  0  0  0  0
  1  2  1  0
  2  3  1  0
  3  4  1  0
  4  5  2  0
  4  6  1  0
  6  7  1  0
  7  8  1  0
  8  9  2  0
  9 10  1  0
 10 11  2  0
 11 12  1  0
 12 13  2  0
 13 14  1  0
 14 15  2  0
 15 16  1  0
 16 17  1  0
 17 18  2  0
  7 19  2  0
 19 20  1  0
 20 21  1  0
 21 22  2  0
 22 23  1  0
 23 24  2  0
 24 25  1  0
 25 26  1  0
 25 27  2  0
 20 28  1  0
 28 29  1  0
 29 30  2  0
 29 31  1  0
 31 32  1  0
 32 33  1  0
 28  6  2  0
 17  8  1  0
 27 21  1  0
 15 10  1  0
  1 34  1  0
  1 35  1  0
  1 36  1  0
  2 37  1  0
  2 38  1  0
  9 39  1  0
 11 40  1  0
 12 41  1  0
 13 42  1  0
 14 43  1  0
 22 44  1  0
 23 45  1  0
 24 46  1  0
 27 47  1  0
 32 48  1  0
 32 49  1  0
 33 50  1  0
 33 51  1  0
 33 52  1  0
M  END
