
     RDKit          3D

 40 42  0  0  0  0  0  0  0  0999 V2000
   -6.4191    2.1812   -1.6820 C   0  0  0  0  0  0  0  0  0  0  0  0
   -6.1435    1.1233   -0.8033 O   0  0  0  0  0  0  0  0  0  0  0  0
   -4.8276    0.7248   -0.5063 C   0  0  0  0  0  0  0  0  0  0  0  0
   -3.7764    1.3691   -1.0755 C   0  0  0  0  0  0  0  0  0  0  0  0
   -2.4934    0.9558   -0.7651 C   0  0  0  0  0  0  0  0  0  0  0  0
   -2.2006   -0.0757    0.0909 C   0  0  0  0  0  0  0  0  0  0  0  0
   -0.8599   -0.5243    0.4292 C   0  0  0  0  0  0  0  0  0  0  0  0
    0.1866    0.0488   -0.0801 C   0  0  0  0  0  0  0  0  0  0  0  0
    1.5510   -0.4110    0.2670 C   0  0  0  0  0  0  0  0  0  0  0  0
    1.8696   -1.4031    1.0891 N   0  0  0  0  0  0  0  0  0  0  0  0
    3.2176   -1.4936    1.1272 C   0  0  0  0  0  0  0  0  0  0  0  0
    3.7202   -0.5151    0.2936 C   0  0  0  0  0  0  0  0  0  0  0  0
    5.1279   -0.2497    0.0320 C   0  0  0  0  0  0  0  0  0  0  0  0
    6.1266   -0.9898    0.6239 C   0  0  0  0  0  0  0  0  0  0  0  0
    7.4727   -0.7351    0.3729 C   0  0  0  0  0  0  0  0  0  0  0  0
    7.8437    0.2756   -0.4838 C   0  0  0  0  0  0  0  0  0  0  0  0
    6.8426    1.0170   -1.0766 C   0  0  0  0  0  0  0  0  0  0  0  0
    5.4995    0.7629   -0.8264 C   0  0  0  0  0  0  0  0  0  0  0  0
    2.6617    0.0913   -0.1848 O   0  0  0  0  0  0  0  0  0  0  0  0
   -3.3236   -0.7074    0.6515 C   0  0  0  0  0  0  0  0  0  0  0  0
   -4.6012   -0.3176    0.3607 C   0  0  0  0  0  0  0  0  0  0  0  0
   -5.6669   -0.9704    0.9374 O   0  0  0  0  0  0  0  0  0  0  0  0
   -5.4509   -2.0300    1.8191 C   0  0  0  0  0  0  0  0  0  0  0  0
   -7.5010    2.1493   -1.9323 H   0  0  0  0  0  0  0  0  0  0  0  0
   -5.7944    2.1098   -2.5970 H   0  0  0  0  0  0  0  0  0  0  0  0
   -6.2090    3.1316   -1.1181 H   0  0  0  0  0  0  0  0  0  0  0  0
   -3.9360    2.1912   -1.7598 H   0  0  0  0  0  0  0  0  0  0  0  0
   -1.7032    1.5061   -1.2483 H   0  0  0  0  0  0  0  0  0  0  0  0
   -0.7302   -1.3537    1.1203 H   0  0  0  0  0  0  0  0  0  0  0  0
    0.0873    0.8622   -0.7587 H   0  0  0  0  0  0  0  0  0  0  0  0
    3.8327   -2.1907    1.6939 H   0  0  0  0  0  0  0  0  0  0  0  0
    5.8172   -1.7806    1.2947 H   0  0  0  0  0  0  0  0  0  0  0  0
    8.2243   -1.3495    0.8664 H   0  0  0  0  0  0  0  0  0  0  0  0
    8.8966    0.4734   -0.6789 H   0  0  0  0  0  0  0  0  0  0  0  0
    7.1524    1.8055   -1.7456 H   0  0  0  0  0  0  0  0  0  0  0  0
    4.7160    1.3479   -1.2943 H   0  0  0  0  0  0  0  0  0  0  0  0
   -3.1681   -1.5245    1.3317 H   0  0  0  0  0  0  0  0  0  0  0  0
   -4.9599   -2.8519    1.2457 H   0  0  0  0  0  0  0  0  0  0  0  0
   -6.3608   -2.3694    2.3368 H   0  0  0  0  0  0  0  0  0  0  0  0
   -4.7203   -1.7691    2.6330 H   0  0  0  0  0  0  0  0  0  0  0  0
  1  2  1  0
  2  3  1  0
  3  4  2  0
  4  5  1  0
  5  6  2  0
  6  7  1  0
  7  8  2  0
  8  9  1  0
  9 10  2  0
 10 11  1  0
 11 12  2  0
 12 13  1  0
 13 14  2  0
 14 15  1  0
 15 16  2  0
 16 17  1  0
 17 18  2  0
 12 19  1  0
  6 20  1  0
 20 21  2  0
 21 22  1  0
 22 23  1  0
 21  3  1  0
 19  9  1  0
 18 13  1  0
  1 24  1  0
  1 25  1  0
  1 26  1  0
  4 27  1  0
  5 28  1  0
  7 29  1  0
  8 30  1  0
 11 31  1  0
 14 32  1  0
 15 33  1  0
 16 34  1  0
 17 35  1  0
 18 36  1  0
 20 37  1  0
 23 38  1  0
 23 39  1  0
 23 40  1  0
M  END
