
     RDKit          3D

 72 78  0  0  0  0  0  0  0  0999 V2000
    9.1382   -0.7890    1.9782 C   0  0  0  0  0  0  0  0  0  0  0  0
    8.3571   -1.3431    0.7740 C   0  0  0  0  0  0  0  0  0  0  0  0
    7.5587   -0.2844    0.1911 N   0  0  0  0  0  0  0  0  0  0  0  0
    8.3326    0.7812   -0.4403 C   0  0  0  0  0  0  0  0  0  0  0  0
    9.0261    0.2664   -1.6892 C   0  0  0  0  0  0  0  0  0  0  0  0
    6.1470   -0.2760    0.1762 C   0  0  0  0  0  0  0  0  0  0  0  0
    5.4103    0.8877   -0.0820 C   0  0  0  0  0  0  0  0  0  0  0  0
    4.0338    0.8622   -0.1413 C   0  0  0  0  0  0  0  0  0  0  0  0
    3.2998   -0.2845    0.0452 C   0  0  0  0  0  0  0  0  0  0  0  0
    1.8327   -0.2510   -0.0060 C   0  0  0  0  0  0  0  0  0  0  0  0
    1.1378    0.9077   -0.1260 N   0  0  0  0  0  0  0  0  0  0  0  0
   -0.1693    0.6158   -0.1226 C   0  0  0  0  0  0  0  0  0  0  0  0
   -1.2956    1.3779   -0.2138 C   0  0  0  0  0  0  0  0  0  0  0  0
   -1.1312    2.7404   -0.3202 C   0  0  0  0  0  0  0  0  0  0  0  0
   -2.2299    3.5369   -0.3994 C   0  0  0  0  0  0  0  0  0  0  0  0
   -3.5068    3.0183   -0.3766 C   0  0  0  0  0  0  0  0  0  0  0  0
   -4.6466    3.9040   -0.4470 C   0  0  0  0  0  0  0  0  0  0  0  0
   -5.8187    3.5603    0.1761 C   0  0  0  0  0  0  0  0  0  0  0  0
   -6.9272    4.4096    0.1234 C   0  0  0  0  0  0  0  0  0  0  0  0
   -6.8576    5.6037   -0.5554 C   0  0  0  0  0  0  0  0  0  0  0  0
   -5.6961    5.9487   -1.1748 C   0  0  0  0  0  0  0  0  0  0  0  0
   -4.5904    5.0999   -1.1217 C   0  0  0  0  0  0  0  0  0  0  0  0
   -3.6944    1.6352   -0.2697 C   0  0  0  0  0  0  0  0  0  0  0  0
   -2.5886    0.8378   -0.1899 C   0  0  0  0  0  0  0  0  0  0  0  0
   -2.7193   -0.5293   -0.0680 C   0  0  0  0  0  0  0  0  0  0  0  0
   -3.9575   -1.1225   -0.0479 C   0  0  0  0  0  0  0  0  0  0  0  0
   -4.0269   -2.5053    0.0686 C   0  0  0  0  0  0  0  0  0  0  0  0
   -5.3231   -3.1766    0.0806 C   0  0  0  0  0  0  0  0  0  0  0  0
   -6.3783   -2.6487   -0.6396 C   0  0  0  0  0  0  0  0  0  0  0  0
   -7.6252   -3.2534   -0.6570 C   0  0  0  0  0  0  0  0  0  0  0  0
   -7.8570   -4.4139    0.0510 C   0  0  0  0  0  0  0  0  0  0  0  0
   -6.8047   -4.9422    0.7702 C   0  0  0  0  0  0  0  0  0  0  0  0
   -5.5664   -4.3334    0.7820 C   0  0  0  0  0  0  0  0  0  0  0  0
   -2.9180   -3.2957    0.1639 C   0  0  0  0  0  0  0  0  0  0  0  0
   -1.6846   -2.6924    0.1430 C   0  0  0  0  0  0  0  0  0  0  0  0
   -1.5704   -1.3228    0.0283 C   0  0  0  0  0  0  0  0  0  0  0  0
   -0.3141   -0.7471    0.0007 C   0  0  0  0  0  0  0  0  0  0  0  0
    0.9513   -1.2348    0.0694 N   0  0  0  0  0  0  0  0  0  0  0  0
    4.0057   -1.4365    0.2999 C   0  0  0  0  0  0  0  0  0  0  0  0
    3.3684   -2.6253    0.4939 O   0  0  0  0  0  0  0  0  0  0  0  0
    5.4075   -1.4183    0.3624 C   0  0  0  0  0  0  0  0  0  0  0  0
    8.9936   -1.4810    2.8260 H   0  0  0  0  0  0  0  0  0  0  0  0
    8.7859    0.2426    2.2224 H   0  0  0  0  0  0  0  0  0  0  0  0
   10.1923   -0.7652    1.6884 H   0  0  0  0  0  0  0  0  0  0  0  0
    7.7030   -2.1429    1.1423 H   0  0  0  0  0  0  0  0  0  0  0  0
    9.0521   -1.8252    0.0554 H   0  0  0  0  0  0  0  0  0  0  0  0
    7.7665    1.6560   -0.7432 H   0  0  0  0  0  0  0  0  0  0  0  0
    9.1266    1.0483    0.3151 H   0  0  0  0  0  0  0  0  0  0  0  0
    8.4502    0.5183   -2.6107 H   0  0  0  0  0  0  0  0  0  0  0  0
    9.9978    0.8286   -1.7683 H   0  0  0  0  0  0  0  0  0  0  0  0
    9.2763   -0.7941   -1.6618 H   0  0  0  0  0  0  0  0  0  0  0  0
    5.9321    1.8114   -0.2284 H   0  0  0  0  0  0  0  0  0  0  0  0
    3.4961    1.7877   -0.3451 H   0  0  0  0  0  0  0  0  0  0  0  0
   -0.1559    3.1837   -0.3421 H   0  0  0  0  0  0  0  0  0  0  0  0
   -2.1273    4.6272   -0.4841 H   0  0  0  0  0  0  0  0  0  0  0  0
   -5.9637    2.6533    0.7252 H   0  0  0  0  0  0  0  0  0  0  0  0
   -7.8569    4.1485    0.6114 H   0  0  0  0  0  0  0  0  0  0  0  0
   -7.7218    6.2701   -0.5993 H   0  0  0  0  0  0  0  0  0  0  0  0
   -5.6222    6.8771   -1.7096 H   0  0  0  0  0  0  0  0  0  0  0  0
   -3.7022    5.4309   -1.6305 H   0  0  0  0  0  0  0  0  0  0  0  0
   -4.6930    1.2576   -0.2564 H   0  0  0  0  0  0  0  0  0  0  0  0
   -4.8922   -0.6010   -0.1154 H   0  0  0  0  0  0  0  0  0  0  0  0
   -6.2617   -1.7531   -1.2075 H   0  0  0  0  0  0  0  0  0  0  0  0
   -8.4465   -2.8266   -1.2285 H   0  0  0  0  0  0  0  0  0  0  0  0
   -8.8391   -4.8910    0.0388 H   0  0  0  0  0  0  0  0  0  0  0  0
   -6.9699   -5.8438    1.3234 H   0  0  0  0  0  0  0  0  0  0  0  0
   -4.7313   -4.7363    1.3429 H   0  0  0  0  0  0  0  0  0  0  0  0
   -3.0293   -4.3862    0.2564 H   0  0  0  0  0  0  0  0  0  0  0  0
   -0.8057   -3.3197    0.2205 H   0  0  0  0  0  0  0  0  0  0  0  0
    1.1341   -2.2466    0.1668 H   0  0  0  0  0  0  0  0  0  0  0  0
    3.8875   -3.4500    0.7421 H   0  0  0  0  0  0  0  0  0  0  0  0
    5.9154   -2.3462    0.5580 H   0  0  0  0  0  0  0  0  0  0  0  0
  1  2  1  0
  2  3  1  0
  3  4  1  0
  4  5  1  0
  3  6  1  0
  6  7  2  0
  7  8  1  0
  8  9  2  0
  9 10  1  0
 10 11  2  0
 11 12  1  0
 12 13  2  0
 13 14  1  0
 14 15  2  0
 15 16  1  0
 16 17  1  0
 17 18  2  0
 18 19  1  0
 19 20  2  0
 20 21  1  0
 21 22  2  0
 16 23  2  0
 23 24  1  0
 24 25  2  0
 25 26  1  0
 26 27  2  0
 27 28  1  0
 28 29  2  0
 29 30  1  0
 30 31  2  0
 31 32  1  0
 32 33  2  0
 27 34  1  0
 34 35  2  0
 35 36  1  0
 36 37  2  0
 37 38  1  0
  9 39  1  0
 39 40  1  0
 39 41  2  0
 41  6  1  0
 38 10  1  0
 37 12  1  0
 24 13  1  0
 36 25  1  0
 22 17  1  0
 33 28  1  0
  1 42  1  0
  1 43  1  0
  1 44  1  0
  2 45  1  0
  2 46  1  0
  4 47  1  0
  4 48  1  0
  5 49  1  0
  5 50  1  0
  5 51  1  0
  7 52  1  0
  8 53  1  0
 14 54  1  0
 15 55  1  0
 18 56  1  0
 19 57  1  0
 20 58  1  0
 21 59  1  0
 22 60  1  0
 23 61  1  0
 26 62  1  0
 29 63  1  0
 30 64  1  0
 31 65  1  0
 32 66  1  0
 33 67  1  0
 34 68  1  0
 35 69  1  0
 38 70  1  0
 40 71  1  0
 41 72  1  0
M  END
