
     RDKit          3D

 42 45  0  0  0  0  0  0  0  0999 V2000
   -2.5417    4.8089    0.9205 O   0  0  0  0  0  0  0  0  0  0  0  0
   -2.6585    3.6486    0.5049 C   0  0  0  0  0  0  0  0  0  0  0  0
   -1.4816    2.7693    0.5030 C   0  0  0  0  0  0  0  0  0  0  0  0
   -1.6833    1.5344    0.0416 C   0  0  0  0  0  0  0  0  0  0  0  0
   -0.7506    0.4202   -0.1020 C   0  0  0  0  0  0  0  0  0  0  0  0
   -1.0514   -0.8959   -0.1299 C   0  0  0  0  0  0  0  0  0  0  0  0
   -2.3357   -1.5730   -0.1315 C   0  0  0  0  0  0  0  0  0  0  0  0
   -2.4103   -2.8806    0.3904 C   0  0  0  0  0  0  0  0  0  0  0  0
   -3.5369   -3.6439    0.3695 C   0  0  0  0  0  0  0  0  0  0  0  0
   -4.6848   -3.1341   -0.1876 C   0  0  0  0  0  0  0  0  0  0  0  0
   -4.6574   -1.8824   -0.7017 C   0  0  0  0  0  0  0  0  0  0  0  0
   -3.4825   -1.1067   -0.6729 C   0  0  0  0  0  0  0  0  0  0  0  0
    0.1126   -1.5626   -0.1501 O   0  0  0  0  0  0  0  0  0  0  0  0
    1.1338   -0.7189   -0.1396 C   0  0  0  0  0  0  0  0  0  0  0  0
    2.5310   -1.1278   -0.1569 C   0  0  0  0  0  0  0  0  0  0  0  0
    3.5735   -0.3493    0.2159 C   0  0  0  0  0  0  0  0  0  0  0  0
    4.8916   -0.7828    0.1133 C   0  0  0  0  0  0  0  0  0  0  0  0
    5.1995   -2.0416   -0.3770 C   0  0  0  0  0  0  0  0  0  0  0  0
    4.1532   -2.8391   -0.7552 C   0  0  0  0  0  0  0  0  0  0  0  0
    2.8562   -2.4090   -0.6539 C   0  0  0  0  0  0  0  0  0  0  0  0
    0.6491    0.5459   -0.1153 C   0  0  0  0  0  0  0  0  0  0  0  0
    1.3973    1.7946   -0.1955 C   0  0  0  0  0  0  0  0  0  0  0  0
    0.9929    2.9641    0.3116 C   0  0  0  0  0  0  0  0  0  0  0  0
    1.9493    4.0391    0.0798 C   0  0  0  0  0  0  0  0  0  0  0  0
    1.7050    5.1990    0.5003 O   0  0  0  0  0  0  0  0  0  0  0  0
   -0.2264    3.3243    1.0293 C   0  0  0  0  0  0  0  0  0  0  0  0
   -3.5828    3.2710    0.1504 H   0  0  0  0  0  0  0  0  0  0  0  0
   -2.6856    1.3271   -0.2283 H   0  0  0  0  0  0  0  0  0  0  0  0
   -1.5069   -3.2721    0.8248 H   0  0  0  0  0  0  0  0  0  0  0  0
   -3.5772   -4.6443    0.7738 H   0  0  0  0  0  0  0  0  0  0  0  0
   -5.6175   -3.6961   -0.2329 H   0  0  0  0  0  0  0  0  0  0  0  0
   -5.5203   -1.4298   -1.1491 H   0  0  0  0  0  0  0  0  0  0  0  0
   -3.5689   -0.1634   -1.1523 H   0  0  0  0  0  0  0  0  0  0  0  0
    3.4376    0.6209    0.6527 H   0  0  0  0  0  0  0  0  0  0  0  0
    5.6617   -0.0980    0.4309 H   0  0  0  0  0  0  0  0  0  0  0  0
    6.2408   -2.3273   -0.4353 H   0  0  0  0  0  0  0  0  0  0  0  0
    4.3598   -3.8366   -1.1448 H   0  0  0  0  0  0  0  0  0  0  0  0
    2.0200   -3.0262   -0.9481 H   0  0  0  0  0  0  0  0  0  0  0  0
    2.3128    1.7197   -0.7367 H   0  0  0  0  0  0  0  0  0  0  0  0
    2.8772    3.8944   -0.4441 H   0  0  0  0  0  0  0  0  0  0  0  0
   -0.1545    3.1118    2.1349 H   0  0  0  0  0  0  0  0  0  0  0  0
   -0.3402    4.4480    0.9932 H   0  0  0  0  0  0  0  0  0  0  0  0
  1  2  2  0
  2  3  1  0
  3  4  2  0
  4  5  1  0
  5  6  2  0
  6  7  1  0
  7  8  2  0
  8  9  1  0
  9 10  2  0
 10 11  1  0
 11 12  2  0
  6 13  1  0
 13 14  1  0
 14 15  1  0
 15 16  2  0
 16 17  1  0
 17 18  2  0
 18 19  1  0
 19 20  2  0
 14 21  2  0
 21 22  1  0
 22 23  2  0
 23 24  1  0
 24 25  2  0
 23 26  1  0
 26  3  1  0
 21  5  1  0
 12  7  1  0
 20 15  1  0
  2 27  1  0
  4 28  1  0
  8 29  1  0
  9 30  1  0
 10 31  1  0
 11 32  1  0
 12 33  1  0
 16 34  1  0
 17 35  1  0
 18 36  1  0
 19 37  1  0
 20 38  1  0
 22 39  1  0
 24 40  1  0
 26 41  1  0
 26 42  1  0
M  END
