
     RDKit          3D

 34 35  0  0  0  0  0  0  0  0999 V2000
   -0.5494    3.0115    0.1974 C   0  0  0  0  0  0  0  0  0  0  0  0
   -0.6399    1.5657    0.0620 N   0  0  0  0  0  0  0  0  0  0  0  0
    0.4111    0.6402   -0.1158 C   0  0  0  0  0  0  0  0  0  0  0  0
    1.7111    0.9634   -0.1813 C   0  0  0  0  0  0  0  0  0  0  0  0
    2.7343   -0.0420   -0.3650 C   0  0  0  0  0  0  0  0  0  0  0  0
    3.9970    0.2995   -0.4262 C   0  0  0  0  0  0  0  0  0  0  0  0
    5.0648   -0.6920   -0.6119 C   0  0  0  0  0  0  0  0  0  0  0  0
    4.7442   -1.9136   -0.7152 O   0  0  0  0  0  0  0  0  0  0  0  0
   -0.1291   -0.7046   -0.2158 C   0  0  0  0  0  0  0  0  0  0  0  0
    0.1636   -1.3728   -1.5421 C   0  0  0  0  0  0  0  0  0  0  0  0
    0.3319   -1.6031    0.9348 C   0  0  0  0  0  0  0  0  0  0  0  0
   -1.5923   -0.5376   -0.0682 C   0  0  0  0  0  0  0  0  0  0  0  0
   -2.6221   -1.4987   -0.0741 C   0  0  0  0  0  0  0  0  0  0  0  0
   -3.8983   -1.0260    0.0822 C   0  0  0  0  0  0  0  0  0  0  0  0
   -4.1924    0.3077    0.2387 C   0  0  0  0  0  0  0  0  0  0  0  0
   -3.1770    1.2208    0.2412 C   0  0  0  0  0  0  0  0  0  0  0  0
   -1.8480    0.7983    0.0854 C   0  0  0  0  0  0  0  0  0  0  0  0
    0.3153    3.3275    0.8012 H   0  0  0  0  0  0  0  0  0  0  0  0
   -1.4580    3.4138    0.6647 H   0  0  0  0  0  0  0  0  0  0  0  0
   -0.5100    3.4446   -0.8406 H   0  0  0  0  0  0  0  0  0  0  0  0
    1.9304    2.0255   -0.0866 H   0  0  0  0  0  0  0  0  0  0  0  0
    2.4589   -1.0687   -0.4506 H   0  0  0  0  0  0  0  0  0  0  0  0
    4.2714    1.3446   -0.3379 H   0  0  0  0  0  0  0  0  0  0  0  0
    6.0930   -0.3886   -0.6591 H   0  0  0  0  0  0  0  0  0  0  0  0
   -0.7634   -1.5803   -2.1103 H   0  0  0  0  0  0  0  0  0  0  0  0
    0.6355   -2.3508   -1.3300 H   0  0  0  0  0  0  0  0  0  0  0  0
    0.8235   -0.7892   -2.1792 H   0  0  0  0  0  0  0  0  0  0  0  0
   -0.5179   -1.8664    1.5798 H   0  0  0  0  0  0  0  0  0  0  0  0
    1.1190   -1.1034    1.5395 H   0  0  0  0  0  0  0  0  0  0  0  0
    0.7465   -2.5106    0.5015 H   0  0  0  0  0  0  0  0  0  0  0  0
   -2.3524   -2.5376   -0.1995 H   0  0  0  0  0  0  0  0  0  0  0  0
   -4.7048   -1.7244    0.0829 H   0  0  0  0  0  0  0  0  0  0  0  0
   -5.2263    0.6541    0.3617 H   0  0  0  0  0  0  0  0  0  0  0  0
   -3.3700    2.2932    0.3633 H   0  0  0  0  0  0  0  0  0  0  0  0
  1  2  1  0
  2  3  1  0
  3  4  2  0
  4  5  1  0
  5  6  2  0
  6  7  1  0
  7  8  2  0
  3  9  1  0
  9 10  1  0
  9 11  1  0
  9 12  1  0
 12 13  2  0
 13 14  1  0
 14 15  2  0
 15 16  1  0
 16 17  2  0
 17  2  1  0
 17 12  1  0
  1 18  1  0
  1 19  1  0
  1 20  1  0
  4 21  1  0
  5 22  1  0
  6 23  1  0
  7 24  1  0
 10 25  1  0
 10 26  1  0
 10 27  1  0
 11 28  1  0
 11 29  1  0
 11 30  1  0
 13 31  1  0
 14 32  1  0
 15 33  1  0
 16 34  1  0
M  END
