
     RDKit          3D

 78 82  0  0  0  0  0  0  0  0999 V2000
   -6.3457    3.0561    0.1759 C   0  0  0  0  0  0  0  0  0  0  0  0
   -7.1082    1.8021   -0.0798 C   0  0  0  0  0  0  0  0  0  0  0  0
   -7.3396    0.9469    1.1439 C   0  0  0  0  0  0  0  0  0  0  0  0
   -6.1097    0.5032    1.8510 C   0  0  0  0  0  0  0  0  0  0  0  0
   -5.1814   -0.2890    1.1083 N   0  0  0  0  0  0  0  0  0  0  0  0
   -5.5354   -1.4787    0.4166 C   0  0  0  0  0  0  0  0  0  0  0  0
   -5.8437   -1.6049   -0.9188 C   0  0  0  0  0  0  0  0  0  0  0  0
   -6.1967   -2.8460   -1.4887 C   0  0  0  0  0  0  0  0  0  0  0  0
   -6.2538   -3.9782   -0.7154 C   0  0  0  0  0  0  0  0  0  0  0  0
   -5.9516   -3.8782    0.6389 C   0  0  0  0  0  0  0  0  0  0  0  0
   -5.6081   -2.6959    1.1680 C   0  0  0  0  0  0  0  0  0  0  0  0
   -3.7940    0.0630    1.1178 C   0  0  0  0  0  0  0  0  0  0  0  0
   -3.2582    0.6641    2.2432 C   0  0  0  0  0  0  0  0  0  0  0  0
   -1.9187    0.9997    2.2919 C   0  0  0  0  0  0  0  0  0  0  0  0
   -1.0887    0.7452    1.2123 C   0  0  0  0  0  0  0  0  0  0  0  0
   -1.5768    0.1409    0.0379 C   0  0  0  0  0  0  0  0  0  0  0  0
   -2.9249   -0.1608    0.0901 C   0  0  0  0  0  0  0  0  0  0  0  0
   -0.5071   -0.0148   -0.9710 C   0  0  0  0  0  0  0  0  0  0  0  0
   -0.6768    1.0115   -2.0738 C   0  0  0  0  0  0  0  0  0  0  0  0
   -1.9710    0.9787   -2.8084 C   0  0  0  0  0  0  0  0  0  0  0  0
   -0.2308   -1.4023   -1.4266 C   0  0  0  0  0  0  0  0  0  0  0  0
   -1.2570   -2.2263   -2.0598 C   0  0  0  0  0  0  0  0  0  0  0  0
    0.7294    0.4457   -0.2249 C   0  0  0  0  0  0  0  0  0  0  0  0
    2.0974    0.4767   -0.4738 C   0  0  0  0  0  0  0  0  0  0  0  0
    3.0041    0.9382    0.4329 C   0  0  0  0  0  0  0  0  0  0  0  0
    4.4281    0.8809    0.2792 C   0  0  0  0  0  0  0  0  0  0  0  0
    5.1265    0.4256   -0.7106 C   0  0  0  0  0  0  0  0  0  0  0  0
    6.5952    0.4999   -0.5407 C   0  0  0  0  0  0  0  0  0  0  0  0
    7.3343    1.0095    0.4447 C   0  0  0  0  0  0  0  0  0  0  0  0
    8.6354    0.8869    0.5203 C   0  0  0  0  0  0  0  0  0  0  0  0
    9.1784    0.1362   -0.6025 C   0  0  0  0  0  0  0  0  0  0  0  0
   10.6834   -0.0804   -0.5561 C   0  0  0  0  0  0  0  0  0  0  0  0
   11.1308   -0.5917    0.5081 C   0  0  0  0  0  0  0  0  0  0  0  0
   10.4926   -0.9836    1.5875 C   0  0  0  0  0  0  0  0  0  0  0  0
    9.8698   -1.3581    2.6731 N   0  0  0  0  0  0  0  0  0  0  0  0
   12.8930   -0.7017    0.6219 C   0  0  0  0  0  0  0  0  0  0  0  0
   12.7967   -1.0362    1.5560 O   0  0  0  0  0  0  0  0  0  0  0  0
   13.0248   -0.2136   -0.7401 O   0  0  0  0  0  0  0  0  0  0  0  0
    7.8658   -0.2356   -1.5028 S   0  0  0  0  0  0  0  0  0  0  0  0
    2.5635    1.4174    1.6799 C   0  0  0  0  0  0  0  0  0  0  0  0
    1.2206    1.3952    1.9436 C   0  0  0  0  0  0  0  0  0  0  0  0
    0.3430    0.9103    0.9938 C   0  0  0  0  0  0  0  0  0  0  0  0
   -5.2534    2.7669    0.1992 H   0  0  0  0  0  0  0  0  0  0  0  0
   -6.6554    3.6112    1.0679 H   0  0  0  0  0  0  0  0  0  0  0  0
   -6.4476    3.7028   -0.6959 H   0  0  0  0  0  0  0  0  0  0  0  0
   -8.1125    2.1684   -0.4816 H   0  0  0  0  0  0  0  0  0  0  0  0
   -6.6761    1.2756   -0.9330 H   0  0  0  0  0  0  0  0  0  0  0  0
   -8.0098    0.0938    0.9747 H   0  0  0  0  0  0  0  0  0  0  0  0
   -7.8984    1.6263    1.8568 H   0  0  0  0  0  0  0  0  0  0  0  0
   -5.5784    1.3910    2.3194 H   0  0  0  0  0  0  0  0  0  0  0  0
   -6.4192   -0.1216    2.7321 H   0  0  0  0  0  0  0  0  0  0  0  0
   -5.8019   -0.7703   -1.5856 H   0  0  0  0  0  0  0  0  0  0  0  0
   -6.3921   -2.8966   -2.5380 H   0  0  0  0  0  0  0  0  0  0  0  0
   -6.5245   -4.9680   -1.1297 H   0  0  0  0  0  0  0  0  0  0  0  0
   -6.0168   -4.8068    1.2140 H   0  0  0  0  0  0  0  0  0  0  0  0
   -5.3775   -2.5778    2.2271 H   0  0  0  0  0  0  0  0  0  0  0  0
   -3.8778    0.8565    3.0799 H   0  0  0  0  0  0  0  0  0  0  0  0
   -1.4888    1.4684    3.1772 H   0  0  0  0  0  0  0  0  0  0  0  0
   -3.3802   -0.6012   -0.8024 H   0  0  0  0  0  0  0  0  0  0  0  0
    0.2050    0.9170   -2.7535 H   0  0  0  0  0  0  0  0  0  0  0  0
   -0.5536    2.0438   -1.6162 H   0  0  0  0  0  0  0  0  0  0  0  0
   -2.7197    1.7149   -2.3868 H   0  0  0  0  0  0  0  0  0  0  0  0
   -1.8355    1.3143   -3.8748 H   0  0  0  0  0  0  0  0  0  0  0  0
   -2.4918    0.0350   -2.8677 H   0  0  0  0  0  0  0  0  0  0  0  0
    0.2029   -1.9795   -0.5549 H   0  0  0  0  0  0  0  0  0  0  0  0
    0.6112   -1.3177   -2.1773 H   0  0  0  0  0  0  0  0  0  0  0  0
   -0.8630   -3.3214   -2.0677 H   0  0  0  0  0  0  0  0  0  0  0  0
   -2.2263   -2.3358   -1.5797 H   0  0  0  0  0  0  0  0  0  0  0  0
   -1.4799   -2.0475   -3.1355 H   0  0  0  0  0  0  0  0  0  0  0  0
    2.4356    0.1226   -1.4534 H   0  0  0  0  0  0  0  0  0  0  0  0
    5.0598    1.2792    1.1269 H   0  0  0  0  0  0  0  0  0  0  0  0
    4.7022    0.0155   -1.5775 H   0  0  0  0  0  0  0  0  0  0  0  0
    6.8017    1.6353    1.2832 H   0  0  0  0  0  0  0  0  0  0  0  0
    9.2984    1.2574    1.3090 H   0  0  0  0  0  0  0  0  0  0  0  0
   11.1757    0.2181   -1.4715 H   0  0  0  0  0  0  0  0  0  0  0  0
   14.0648   -0.2290   -1.0104 H   0  0  0  0  0  0  0  0  0  0  0  0
    3.2940    1.7994    2.3884 H   0  0  0  0  0  0  0  0  0  0  0  0
    0.8936    1.7690    2.8939 H   0  0  0  0  0  0  0  0  0  0  0  0
  1  2  1  0
  2  3  1  0
  3  4  1  0
  4  5  1  0
  5  6  1  0
  6  7  2  0
  7  8  1  0
  8  9  2  0
  9 10  1  0
 10 11  2  0
  5 12  1  0
 12 13  2  0
 13 14  1  0
 14 15  2  0
 15 16  1  0
 16 17  2  0
 16 18  1  0
 18 19  1  0
 19 20  1  0
 18 21  1  0
 21 22  1  0
 18 23  1  0
 23 24  2  0
 24 25  1  0
 25 26  1  0
 26 27  2  0
 27 28  1  0
 28 29  2  0
 29 30  1  0
 30 31  2  0
 31 32  1  0
 32 33  2  0
 33 34  1  0
 34 35  3  0
 33 36  1  0
 36 37  2  0
 36 38  1  0
 31 39  1  0
 25 40  2  0
 40 41  1  0
 41 42  2  0
 11  6  1  0
 17 12  1  0
 42 23  1  0
 42 15  1  0
 39 28  1  0
  1 43  1  0
  1 44  1  0
  1 45  1  0
  2 46  1  0
  2 47  1  0
  3 48  1  0
  3 49  1  0
  4 50  1  0
  4 51  1  0
  7 52  1  0
  8 53  1  0
  9 54  1  0
 10 55  1  0
 11 56  1  0
 13 57  1  0
 14 58  1  0
 17 59  1  0
 19 60  1  0
 19 61  1  0
 20 62  1  0
 20 63  1  0
 20 64  1  0
 21 65  1  0
 21 66  1  0
 22 67  1  0
 22 68  1  0
 22 69  1  0
 24 70  1  0
 26 71  1  0
 27 72  1  0
 29 73  1  0
 30 74  1  0
 32 75  1  0
 38 76  1  0
 40 77  1  0
 41 78  1  0
M  END
