
     RDKit          3D

 84 90  0  0  0  0  0  0  0  0999 V2000
    1.4213    3.4842    1.2178 C   0  0  0  0  0  0  0  0  0  0  0  0
    1.2570    2.6174    0.3382 C   0  0  0  0  0  0  0  0  0  0  0  0
    1.0466    1.5936   -0.7185 C   0  0  0  0  0  0  0  0  0  0  0  0
   -0.2955    1.5240   -1.0578 C   0  0  0  0  0  0  0  0  0  0  0  0
   -1.0917    2.5910   -1.4687 C   0  0  0  0  0  0  0  0  0  0  0  0
   -1.7546    3.5092   -1.8151 C   0  0  0  0  0  0  0  0  0  0  0  0
   -2.5823    4.6248   -2.2227 C   0  0  0  0  0  0  0  0  0  0  0  0
   -2.9348    4.5813   -3.5952 C   0  0  0  0  0  0  0  0  0  0  0  0
   -3.7818    5.5390   -4.0990 C   0  0  0  0  0  0  0  0  0  0  0  0
   -4.2806    6.4824   -3.3678 C   0  0  0  0  0  0  0  0  0  0  0  0
   -3.9741    6.5983   -1.9550 C   0  0  0  0  0  0  0  0  0  0  0  0
   -3.0994    5.6029   -1.4997 C   0  0  0  0  0  0  0  0  0  0  0  0
   -0.9212    0.2418   -1.1947 C   0  0  0  0  0  0  0  0  0  0  0  0
   -2.3449    0.0877   -1.1226 C   0  0  0  0  0  0  0  0  0  0  0  0
   -3.5724   -0.0473   -1.0750 C   0  0  0  0  0  0  0  0  0  0  0  0
   -5.0046   -0.1902   -1.0177 C   0  0  0  0  0  0  0  0  0  0  0  0
   -5.8674    0.9086   -0.9259 C   0  0  0  0  0  0  0  0  0  0  0  0
   -7.2186    0.7597   -0.6859 C   0  0  0  0  0  0  0  0  0  0  0  0
   -7.7411   -0.5114   -0.5303 C   0  0  0  0  0  0  0  0  0  0  0  0
   -6.9258   -1.6060   -0.6195 C   0  0  0  0  0  0  0  0  0  0  0  0
   -5.5482   -1.4361   -0.8662 C   0  0  0  0  0  0  0  0  0  0  0  0
   -0.1893   -0.8622   -1.0023 C   0  0  0  0  0  0  0  0  0  0  0  0
   -0.8434   -2.1462   -0.6560 C   0  0  0  0  0  0  0  0  0  0  0  0
   -1.3937   -3.2451   -0.3603 C   0  0  0  0  0  0  0  0  0  0  0  0
   -2.0104   -4.4735   -0.0062 C   0  0  0  0  0  0  0  0  0  0  0  0
   -1.7527   -4.9318    1.3462 C   0  0  0  0  0  0  0  0  0  0  0  0
   -2.3086   -6.1176    1.6538 C   0  0  0  0  0  0  0  0  0  0  0  0
   -3.0521   -6.9050    0.8550 C   0  0  0  0  0  0  0  0  0  0  0  0
   -3.2822   -6.4393   -0.4513 C   0  0  0  0  0  0  0  0  0  0  0  0
   -2.7444   -5.2295   -0.8162 C   0  0  0  0  0  0  0  0  0  0  0  0
    1.2193   -0.7878   -0.6845 C   0  0  0  0  0  0  0  0  0  0  0  0
    1.7543   -2.0735   -0.4128 C   0  0  0  0  0  0  0  0  0  0  0  0
    2.1764   -3.1046   -0.1787 C   0  0  0  0  0  0  0  0  0  0  0  0
    2.7168   -4.4710    0.1295 C   0  0  0  0  0  0  0  0  0  0  0  0
    3.7853   -5.0252   -0.4833 C   0  0  0  0  0  0  0  0  0  0  0  0
    4.2094   -6.3302   -0.1458 C   0  0  0  0  0  0  0  0  0  0  0  0
    3.5299   -7.0327    0.7998 C   0  0  0  0  0  0  0  0  0  0  0  0
    2.4466   -6.5125    1.4512 C   0  0  0  0  0  0  0  0  0  0  0  0
    2.0483   -5.2108    1.0984 C   0  0  0  0  0  0  0  0  0  0  0  0
    1.8155    0.4513   -0.5433 C   0  0  0  0  0  0  0  0  0  0  0  0
    3.2050    0.4523   -0.3402 C   0  0  0  0  0  0  0  0  0  0  0  0
    4.4922    0.4740   -0.1574 C   0  0  0  0  0  0  0  0  0  0  0  0
    5.8275    0.4925    0.0295 C   0  0  0  0  0  0  0  0  0  0  0  0
    6.6508   -0.2639   -0.8607 C   0  0  0  0  0  0  0  0  0  0  0  0
    8.0461   -0.2088   -0.6902 C   0  0  0  0  0  0  0  0  0  0  0  0
    8.5551    0.5409    0.2855 C   0  0  0  0  0  0  0  0  0  0  0  0
    7.8543    1.2819    1.1603 C   0  0  0  0  0  0  0  0  0  0  0  0
    6.4500    1.2282    0.9852 C   0  0  0  0  0  0  0  0  0  0  0  0
    1.5950    4.4621    2.2231 C   0  0  0  0  0  0  0  0  0  0  0  0
    0.6372    4.3677    3.3090 C   0  0  0  0  0  0  0  0  0  0  0  0
    0.7574    5.3471    4.2943 C   0  0  0  0  0  0  0  0  0  0  0  0
    1.6256    6.2721    4.2723 C   0  0  0  0  0  0  0  0  0  0  0  0
    2.6331    6.4619    3.2432 C   0  0  0  0  0  0  0  0  0  0  0  0
    2.4701    5.4447    2.2760 C   0  0  0  0  0  0  0  0  0  0  0  0
   -2.5207    3.7877   -4.2191 H   0  0  0  0  0  0  0  0  0  0  0  0
   -3.9903    5.4156   -5.2100 H   0  0  0  0  0  0  0  0  0  0  0  0
   -4.9528    7.2921   -3.7529 H   0  0  0  0  0  0  0  0  0  0  0  0
   -4.4179    7.3588   -1.4370 H   0  0  0  0  0  0  0  0  0  0  0  0
   -2.8775    5.6356   -0.4056 H   0  0  0  0  0  0  0  0  0  0  0  0
   -5.4204    1.9285   -1.0713 H   0  0  0  0  0  0  0  0  0  0  0  0
   -7.8174    1.6370   -0.6228 H   0  0  0  0  0  0  0  0  0  0  0  0
   -8.8451   -0.5958   -0.3162 H   0  0  0  0  0  0  0  0  0  0  0  0
   -7.3362   -2.5785   -0.4772 H   0  0  0  0  0  0  0  0  0  0  0  0
   -4.9076   -2.2521   -0.9314 H   0  0  0  0  0  0  0  0  0  0  0  0
   -1.1572   -4.2978    1.9460 H   0  0  0  0  0  0  0  0  0  0  0  0
   -2.1228   -6.4847    2.6977 H   0  0  0  0  0  0  0  0  0  0  0  0
   -3.4589   -7.8314    1.1750 H   0  0  0  0  0  0  0  0  0  0  0  0
   -3.8668   -7.0559   -1.0974 H   0  0  0  0  0  0  0  0  0  0  0  0
   -2.9542   -4.9364   -1.8575 H   0  0  0  0  0  0  0  0  0  0  0  0
    4.2938   -4.4513   -1.2396 H   0  0  0  0  0  0  0  0  0  0  0  0
    5.0405   -6.7312   -0.6608 H   0  0  0  0  0  0  0  0  0  0  0  0
    3.8429   -8.0404    1.0795 H   0  0  0  0  0  0  0  0  0  0  0  0
    1.9036   -7.0717    2.2081 H   0  0  0  0  0  0  0  0  0  0  0  0
    1.1759   -4.7922    1.5903 H   0  0  0  0  0  0  0  0  0  0  0  0
    6.1308   -0.8603   -1.6084 H   0  0  0  0  0  0  0  0  0  0  0  0
    8.6567   -0.7645   -1.3581 H   0  0  0  0  0  0  0  0  0  0  0  0
    9.6704    0.5494    0.3511 H   0  0  0  0  0  0  0  0  0  0  0  0
    8.2577    1.8649    1.9415 H   0  0  0  0  0  0  0  0  0  0  0  0
    5.8862    1.8245    1.7088 H   0  0  0  0  0  0  0  0  0  0  0  0
   -0.0877    3.5934    3.2725 H   0  0  0  0  0  0  0  0  0  0  0  0
   -0.0469    5.2151    5.1039 H   0  0  0  0  0  0  0  0  0  0  0  0
    1.7010    7.0696    5.0886 H   0  0  0  0  0  0  0  0  0  0  0  0
    3.2825    7.2068    3.3110 H   0  0  0  0  0  0  0  0  0  0  0  0
    3.2283    5.5050    1.4494 H   0  0  0  0  0  0  0  0  0  0  0  0
  1  2  3  0
  2  3  1  0
  3  4  2  0
  4  5  1  0
  5  6  3  0
  6  7  1  0
  7  8  2  0
  8  9  1  0
  9 10  2  0
 10 11  1  0
 11 12  2  0
  4 13  1  0
 13 14  1  0
 14 15  3  0
 15 16  1  0
 16 17  2  0
 17 18  1  0
 18 19  2  0
 19 20  1  0
 20 21  2  0
 13 22  2  0
 22 23  1  0
 23 24  3  0
 24 25  1  0
 25 26  2  0
 26 27  1  0
 27 28  2  0
 28 29  1  0
 29 30  2  0
 22 31  1  0
 31 32  1  0
 32 33  3  0
 33 34  1  0
 34 35  2  0
 35 36  1  0
 36 37  2  0
 37 38  1  0
 38 39  2  0
 31 40  2  0
 40 41  1  0
 41 42  3  0
 42 43  1  0
 43 44  2  0
 44 45  1  0
 45 46  2  0
 46 47  1  0
 47 48  2  0
  1 49  1  0
 49 50  2  0
 50 51  1  0
 51 52  2  0
 52 53  1  0
 53 54  2  0
 40  3  1  0
 48 43  1  0
 54 49  1  0
 12  7  1  0
 21 16  1  0
 30 25  1  0
 39 34  1  0
  8 55  1  0
  9 56  1  0
 10 57  1  0
 11 58  1  0
 12 59  1  0
 17 60  1  0
 18 61  1  0
 19 62  1  0
 20 63  1  0
 21 64  1  0
 26 65  1  0
 27 66  1  0
 28 67  1  0
 29 68  1  0
 30 69  1  0
 35 70  1  0
 36 71  1  0
 37 72  1  0
 38 73  1  0
 39 74  1  0
 44 75  1  0
 45 76  1  0
 46 77  1  0
 47 78  1  0
 48 79  1  0
 50 80  1  0
 51 81  1  0
 52 82  1  0
 53 83  1  0
 54 84  1  0
M  END
