
     RDKit          3D

 27 29  0  0  0  0  0  0  0  0999 V2000
    3.1071    0.1065   -0.1972 C   0  0  0  0  0  0  0  0  0  0  0  0
    1.7926   -0.2179   -0.0161 C   0  0  0  0  0  0  0  0  0  0  0  0
    0.4695   -0.5487    0.1439 C   0  0  0  0  0  0  0  0  0  0  0  0
    0.0712   -0.5535   -1.5015 N   0  0  0  0  0  0  0  0  0  0  0  0
   -1.0746   -0.8225   -1.7338 C   0  0  0  0  0  0  0  0  0  0  0  0
   -1.6082   -1.0250   -0.1916 C   0  0  0  0  0  0  0  0  0  0  0  0
   -2.8989   -1.2702    0.0353 C   0  0  0  0  0  0  0  0  0  0  0  0
   -2.9043    0.5805    0.3462 C   0  0  0  0  0  0  0  0  0  0  0  0
   -4.1421    0.9799    0.6876 C   0  0  0  0  0  0  0  0  0  0  0  0
   -5.2525    0.5763    0.8549 C   0  0  0  0  0  0  0  0  0  0  0  0
   -5.3252   -0.8984    0.6217 C   0  0  0  0  0  0  0  0  0  0  0  0
   -4.1616   -1.4085    0.2856 C   0  0  0  0  0  0  0  0  0  0  0  0
   -0.5745   -0.8088    0.2552 O   0  0  0  0  0  0  0  0  0  0  0  0
    4.3595    0.4377   -0.3747 C   0  0  0  0  0  0  0  0  0  0  0  0
    5.2459    0.1423   -1.4553 C   0  0  0  0  0  0  0  0  0  0  0  0
    6.4227    0.6816   -1.3373 C   0  0  0  0  0  0  0  0  0  0  0  0
    6.3489    1.3866   -0.1154 C   0  0  0  0  0  0  0  0  0  0  0  0
    5.2091    1.2418    0.4226 O   0  0  0  0  0  0  0  0  0  0  0  0
   -1.9295   -0.9827   -2.3567 H   0  0  0  0  0  0  0  0  0  0  0  0
   -1.9890    0.7843    0.2254 H   0  0  0  0  0  0  0  0  0  0  0  0
   -3.9593    2.1862    0.9861 H   0  0  0  0  0  0  0  0  0  0  0  0
   -6.1380    1.0829    1.1136 H   0  0  0  0  0  0  0  0  0  0  0  0
   -6.2885   -1.2546    0.7958 H   0  0  0  0  0  0  0  0  0  0  0  0
   -4.2391   -2.6416    0.0678 H   0  0  0  0  0  0  0  0  0  0  0  0
    4.9330   -0.4527   -2.3687 H   0  0  0  0  0  0  0  0  0  0  0  0
    7.3538    0.7471   -1.9143 H   0  0  0  0  0  0  0  0  0  0  0  0
    7.1722    1.9514    0.2418 H   0  0  0  0  0  0  0  0  0  0  0  0
  1  2  3  0
  2  3  1  0
  3  4  2  0
  4  5  1  0
  5  6  2  0
  6  7  1  0
  7  8  2  0
  8  9  1  0
  9 10  2  0
 10 11  1  0
 11 12  2  0
  6 13  1  0
  1 14  1  0
 14 15  2  0
 15 16  1  0
 16 17  2  0
 17 18  1  0
 13  3  1  0
 18 14  1  0
 12  7  1  0
  5 19  1  0
  8 20  1  0
  9 21  1  0
 10 22  1  0
 11 23  1  0
 12 24  1  0
 15 25  1  0
 16 26  1  0
 17 27  1  0
M  END
