
     RDKit          3D

 22 23  0  0  0  0  0  0  0  0999 V2000
   -4.1192   -0.4162   -0.1314 C   0  0  0  0  0  0  0  0  0  0  0  0
   -2.9350   -1.1139    0.1453 O   0  0  0  0  0  0  0  0  0  0  0  0
   -1.6711   -0.5022    0.0447 C   0  0  0  0  0  0  0  0  0  0  0  0
   -1.5264    0.8170   -0.3315 C   0  0  0  0  0  0  0  0  0  0  0  0
   -0.2995    1.4369   -0.4368 C   0  0  0  0  0  0  0  0  0  0  0  0
    0.8238    0.6746   -0.1450 C   0  0  0  0  0  0  0  0  0  0  0  0
    2.0620    1.2090   -0.2247 N   0  0  0  0  0  0  0  0  0  0  0  0
    3.1343    0.4526    0.0622 C   0  0  0  0  0  0  0  0  0  0  0  0
    4.4434    0.9840   -0.0122 N   0  0  0  0  0  0  0  0  0  0  0  0
    3.0104   -0.8334    0.4300 N   0  0  0  0  0  0  0  0  0  0  0  0
    1.8295   -1.3871    0.5188 N   0  0  0  0  0  4  0  0  0  0  0  0
    1.6591   -2.7057    0.8932 O   0  0  0  0  0  1  0  0  0  0  0  0
    0.7404   -0.6479    0.2359 C   0  0  0  0  0  0  0  0  0  0  0  0
   -0.5229   -1.2122    0.3227 C   0  0  0  0  0  0  0  0  0  0  0  0
   -4.2144   -0.3001   -1.2390 H   0  0  0  0  0  0  0  0  0  0  0  0
   -4.0760    0.6122    0.3047 H   0  0  0  0  0  0  0  0  0  0  0  0
   -4.9754   -0.9762    0.2976 H   0  0  0  0  0  0  0  0  0  0  0  0
   -2.3968    1.3908   -0.5527 H   0  0  0  0  0  0  0  0  0  0  0  0
   -0.1826    2.4587   -0.7279 H   0  0  0  0  0  0  0  0  0  0  0  0
    4.6565    1.9412    0.2767 H   0  0  0  0  0  0  0  0  0  0  0  0
    5.2067    0.3794   -0.3716 H   0  0  0  0  0  0  0  0  0  0  0  0
   -0.6466   -2.2613    0.6214 H   0  0  0  0  0  0  0  0  0  0  0  0
  1  2  1  0
  2  3  1  0
  3  4  2  0
  4  5  1  0
  5  6  2  0
  6  7  1  0
  7  8  2  0
  8  9  1  0
  8 10  1  0
 10 11  2  0
 11 12  1  0
 11 13  1  0
 13 14  2  0
 14  3  1  0
 13  6  1  0
  1 15  1  0
  1 16  1  0
  1 17  1  0
  4 18  1  0
  5 19  1  0
  9 20  1  0
  9 21  1  0
 14 22  1  0
M  CHG  2  11   1  12  -1
M  END
