
     RDKit          3D

 36 38  0  0  0  0  0  0  0  0999 V2000
   -5.9197    1.2944   -0.6115 C   0  0  0  0  0  0  0  0  0  0  0  0
   -4.5436    0.7756   -0.3990 C   0  0  0  0  0  0  0  0  0  0  0  0
   -4.4039   -0.5521   -0.0325 C   0  0  0  0  0  0  0  0  0  0  0  0
   -3.1363   -1.0723    0.1747 C   0  0  0  0  0  0  0  0  0  0  0  0
   -1.9857   -0.3340    0.0352 C   0  0  0  0  0  0  0  0  0  0  0  0
   -0.6784   -0.8947    0.2553 C   0  0  0  0  0  0  0  0  0  0  0  0
    0.4734   -0.1579    0.1166 C   0  0  0  0  0  0  0  0  0  0  0  0
    1.7569   -0.6566    0.3187 C   0  0  0  0  0  0  0  0  0  0  0  0
    2.9345    0.1853    0.1496 C   0  0  0  0  0  0  0  0  0  0  0  0
    2.9732    1.4690    0.7053 C   0  0  0  0  0  0  0  0  0  0  0  0
    4.0698    2.2929    0.5626 C   0  0  0  0  0  0  0  0  0  0  0  0
    5.1627    1.8423   -0.1478 C   0  0  0  0  0  0  0  0  0  0  0  0
    5.1452    0.5799   -0.7039 C   0  0  0  0  0  0  0  0  0  0  0  0
    4.0324   -0.2315   -0.5481 C   0  0  0  0  0  0  0  0  0  0  0  0
    1.8566   -1.9815    0.6821 C   0  0  0  0  0  0  0  0  0  0  0  0
    3.1443   -2.5618    0.9098 C   0  0  0  0  0  0  0  0  0  0  0  0
    4.1944   -3.0547    1.1070 N   0  0  0  0  0  0  0  0  0  0  0  0
    0.7128   -2.7325    0.8250 C   0  0  0  0  0  0  0  0  0  0  0  0
    0.8761   -4.2865    1.2535 S   0  0  0  0  0  0  0  0  0  0  0  0
   -0.5130   -2.1925    0.6147 N   0  0  0  0  0  0  0  0  0  0  0  0
   -2.1494    0.9830   -0.3297 C   0  0  0  0  0  0  0  0  0  0  0  0
   -3.4108    1.5370   -0.5457 C   0  0  0  0  0  0  0  0  0  0  0  0
   -5.8625    2.1691   -1.2679 H   0  0  0  0  0  0  0  0  0  0  0  0
   -6.3602    1.5750    0.3723 H   0  0  0  0  0  0  0  0  0  0  0  0
   -6.5133    0.4815   -1.0586 H   0  0  0  0  0  0  0  0  0  0  0  0
   -5.2492   -1.1967    0.0976 H   0  0  0  0  0  0  0  0  0  0  0  0
   -3.0811   -2.1029    0.4564 H   0  0  0  0  0  0  0  0  0  0  0  0
    0.4492    0.8835   -0.1661 H   0  0  0  0  0  0  0  0  0  0  0  0
    2.0885    1.7755    1.2544 H   0  0  0  0  0  0  0  0  0  0  0  0
    4.0326    3.2748    1.0188 H   0  0  0  0  0  0  0  0  0  0  0  0
    6.0297    2.5022   -0.2568 H   0  0  0  0  0  0  0  0  0  0  0  0
    6.0053    0.2331   -1.2595 H   0  0  0  0  0  0  0  0  0  0  0  0
    4.0368   -1.2291   -0.9982 H   0  0  0  0  0  0  0  0  0  0  0  0
   -1.3005   -2.8396    0.7483 H   0  0  0  0  0  0  0  0  0  0  0  0
   -1.3324    1.6473   -0.4666 H   0  0  0  0  0  0  0  0  0  0  0  0
   -3.5345    2.5753   -0.8331 H   0  0  0  0  0  0  0  0  0  0  0  0
  1  2  1  0
  2  3  2  0
  3  4  1  0
  4  5  2  0
  5  6  1  0
  6  7  2  0
  7  8  1  0
  8  9  1  0
  9 10  2  0
 10 11  1  0
 11 12  2  0
 12 13  1  0
 13 14  2  0
  8 15  2  0
 15 16  1  0
 16 17  3  0
 15 18  1  0
 18 19  2  0
 18 20  1  0
  5 21  1  0
 21 22  2  0
 22  2  1  0
 20  6  1  0
 14  9  1  0
  1 23  1  0
  1 24  1  0
  1 25  1  0
  3 26  1  0
  4 27  1  0
  7 28  1  0
 10 29  1  0
 11 30  1  0
 12 31  1  0
 13 32  1  0
 14 33  1  0
 20 34  1  0
 21 35  1  0
 22 36  1  0
M  END
