
     RDKit          3D

 84 90  0  0  0  0  0  0  0  0999 V2000
   -9.4159    2.6414    0.2524 C   0  0  0  0  0  0  0  0  0  0  0  0
   -8.8915    1.4167   -0.2583 O   0  0  0  0  0  0  0  0  0  0  0  0
   -7.4967    1.2242   -0.2786 C   0  0  0  0  0  0  0  0  0  0  0  0
   -6.6075    2.1776    0.1698 C   0  0  0  0  0  0  0  0  0  0  0  0
   -5.2293    1.9174    0.1213 C   0  0  0  0  0  0  0  0  0  0  0  0
   -4.8266    0.7151   -0.3730 C   0  0  0  0  0  0  0  0  0  0  0  0
   -3.3662    0.3858   -0.4411 C   0  0  0  0  0  0  0  0  0  0  0  0
   -2.8213    0.6302   -1.7166 C   0  0  0  0  0  0  0  0  0  0  0  0
   -1.6047    1.1699   -1.8250 N   0  0  0  0  0  0  0  0  0  0  0  0
   -1.0947    0.8590   -3.0183 C   0  0  0  0  0  0  0  0  0  0  0  0
    0.2631    0.7236   -3.2539 C   0  0  0  0  0  0  0  0  0  0  0  0
    1.3056    0.5771   -2.3220 C   0  0  0  0  0  0  0  0  0  0  0  0
    2.4498    1.3907   -2.4845 C   0  0  0  0  0  0  0  0  0  0  0  0
    3.2900    1.0733   -1.4578 C   0  0  0  0  0  0  0  0  0  0  0  0
    2.6328    0.0774   -0.7031 C   0  0  0  0  0  0  0  0  0  0  0  0
    1.4368   -0.2109   -1.2415 N   0  0  0  0  0  0  0  0  0  0  0  0
    3.2808   -0.4186    0.4497 C   0  0  0  0  0  0  0  0  0  0  0  0
    4.7627   -0.5795    0.4383 C   0  0  0  0  0  0  0  0  0  0  0  0
    5.3141   -1.8094    0.1570 C   0  0  0  0  0  0  0  0  0  0  0  0
    6.6963   -2.0132    0.1226 C   0  0  0  0  0  0  0  0  0  0  0  0
    7.5070   -0.9458    0.3787 C   0  0  0  0  0  0  0  0  0  0  0  0
    8.8712   -1.0865    0.3601 O   0  0  0  0  0  0  0  0  0  0  0  0
    9.4805   -2.3150    0.0828 C   0  0  0  0  0  0  0  0  0  0  0  0
    6.9778    0.3120    0.6662 C   0  0  0  0  0  0  0  0  0  0  0  0
    7.8837    1.3260    0.9083 O   0  0  0  0  0  0  0  0  0  0  0  0
    7.3867    2.6345    1.2048 C   0  0  0  0  0  0  0  0  0  0  0  0
    8.4989    3.5762    1.4300 C   0  0  0  0  0  0  0  0  0  0  0  0
    8.2630    4.7668    1.6912 O   0  0  0  0  0  0  0  0  0  0  0  0
    9.7965    3.1309    1.3497 O   0  0  0  0  0  0  0  0  0  0  0  0
    5.6165    0.4553    0.6874 C   0  0  0  0  0  0  0  0  0  0  0  0
    2.7138   -0.7921    1.6456 C   0  0  0  0  0  0  0  0  0  0  0  0
    1.4394   -1.3163    1.6641 N   0  0  0  0  0  0  0  0  0  0  0  0
    0.9865   -1.2269    2.9245 C   0  0  0  0  0  0  0  0  0  0  0  0
   -0.3075   -0.8724    3.1877 C   0  0  0  0  0  0  0  0  0  0  0  0
   -1.3832   -0.6736    2.2984 C   0  0  0  0  0  0  0  0  0  0  0  0
   -2.6201   -1.3162    2.5823 C   0  0  0  0  0  0  0  0  0  0  0  0
   -3.4581   -0.9677    1.5801 C   0  0  0  0  0  0  0  0  0  0  0  0
   -2.7240   -0.1218    0.7026 C   0  0  0  0  0  0  0  0  0  0  0  0
   -1.4762    0.0368    1.1653 N   0  0  0  0  0  0  0  0  0  0  0  0
    2.1652   -1.5867    3.7469 C   0  0  0  0  0  0  0  0  0  0  0  0
    3.2181   -0.7564    3.0399 C   0  0  0  0  0  0  0  0  0  0  0  0
   -2.2215    0.7080   -3.9792 C   0  0  0  0  0  0  0  0  0  0  0  0
   -3.3454    0.4224   -3.0794 C   0  0  0  0  0  0  0  0  0  0  0  0
   -5.7367   -0.2163   -0.8128 C   0  0  0  0  0  0  0  0  0  0  0  0
   -7.0957    0.0046   -0.7814 C   0  0  0  0  0  0  0  0  0  0  0  0
   -7.9903   -0.9509   -1.2332 O   0  0  0  0  0  0  0  0  0  0  0  0
   -7.4646   -2.1653   -1.7312 C   0  0  0  0  0  0  0  0  0  0  0  0
   -8.4765   -3.1160   -2.1956 C   0  0  0  0  0  0  0  0  0  0  0  0
   -9.6932   -2.8304   -2.1299 O   0  0  0  0  0  0  0  0  0  0  0  0
   -8.1223   -4.3455   -2.7151 O   0  0  0  0  0  0  0  0  0  0  0  0
   -9.3063    2.6798    1.3658 H   0  0  0  0  0  0  0  0  0  0  0  0
  -10.4934    2.6362    0.0095 H   0  0  0  0  0  0  0  0  0  0  0  0
   -8.8881    3.4864   -0.1862 H   0  0  0  0  0  0  0  0  0  0  0  0
   -6.9776    3.1267    0.5573 H   0  0  0  0  0  0  0  0  0  0  0  0
   -4.5266    2.6885    0.4838 H   0  0  0  0  0  0  0  0  0  0  0  0
    0.5293    0.7603   -4.3460 H   0  0  0  0  0  0  0  0  0  0  0  0
    2.6650    2.1376   -3.2726 H   0  0  0  0  0  0  0  0  0  0  0  0
    4.2823    1.5298   -1.2893 H   0  0  0  0  0  0  0  0  0  0  0  0
    0.7023   -0.9671   -0.8821 H   0  0  0  0  0  0  0  0  0  0  0  0
    4.6592   -2.6613   -0.0479 H   0  0  0  0  0  0  0  0  0  0  0  0
    7.0203   -3.0180   -0.1059 H   0  0  0  0  0  0  0  0  0  0  0  0
    9.4420   -2.9198    1.0359 H   0  0  0  0  0  0  0  0  0  0  0  0
    8.9026   -2.8343   -0.7003 H   0  0  0  0  0  0  0  0  0  0  0  0
   10.5518   -2.1844   -0.2341 H   0  0  0  0  0  0  0  0  0  0  0  0
    6.8493    2.5346    2.1979 H   0  0  0  0  0  0  0  0  0  0  0  0
    6.6230    2.9770    0.5037 H   0  0  0  0  0  0  0  0  0  0  0  0
   10.5540    3.7198    0.9790 H   0  0  0  0  0  0  0  0  0  0  0  0
    5.2164    1.4348    0.9114 H   0  0  0  0  0  0  0  0  0  0  0  0
   -0.5127   -0.7524    4.2883 H   0  0  0  0  0  0  0  0  0  0  0  0
   -2.8657   -1.9654    3.4439 H   0  0  0  0  0  0  0  0  0  0  0  0
   -4.4886   -1.3033    1.5143 H   0  0  0  0  0  0  0  0  0  0  0  0
   -0.6649    0.6570    0.7047 H   0  0  0  0  0  0  0  0  0  0  0  0
    2.0224   -1.3035    4.8088 H   0  0  0  0  0  0  0  0  0  0  0  0
    2.3848   -2.6706    3.6296 H   0  0  0  0  0  0  0  0  0  0  0  0
    4.2211   -1.2020    3.1581 H   0  0  0  0  0  0  0  0  0  0  0  0
    3.1464    0.2637    3.4985 H   0  0  0  0  0  0  0  0  0  0  0  0
   -2.3847    1.7077   -4.4537 H   0  0  0  0  0  0  0  0  0  0  0  0
   -2.0139   -0.0784   -4.7351 H   0  0  0  0  0  0  0  0  0  0  0  0
   -4.2824    0.9690   -3.2825 H   0  0  0  0  0  0  0  0  0  0  0  0
   -3.6028   -0.6795   -3.1692 H   0  0  0  0  0  0  0  0  0  0  0  0
   -5.4019   -1.1942   -1.2147 H   0  0  0  0  0  0  0  0  0  0  0  0
   -6.8472   -2.5949   -0.8865 H   0  0  0  0  0  0  0  0  0  0  0  0
   -6.7129   -1.9709   -2.5517 H   0  0  0  0  0  0  0  0  0  0  0  0
   -8.5695   -4.7281   -3.5588 H   0  0  0  0  0  0  0  0  0  0  0  0
  1  2  1  0
  2  3  1  0
  3  4  2  0
  4  5  1  0
  5  6  2  0
  6  7  1  0
  7  8  1  0
  8  9  2  0
  9 10  1  0
 10 11  2  0
 11 12  1  0
 12 13  2  0
 13 14  1  0
 14 15  2  0
 15 16  1  0
 15 17  1  0
 17 18  1  0
 18 19  2  0
 19 20  1  0
 20 21  2  0
 21 22  1  0
 22 23  1  0
 21 24  1  0
 24 25  1  0
 25 26  1  0
 26 27  1  0
 27 28  2  0
 27 29  1  0
 24 30  2  0
 17 31  2  0
 31 32  1  0
 32 33  2  0
 33 34  1  0
 34 35  2  0
 35 36  1  0
 36 37  2  0
 37 38  1  0
 38 39  1  0
 33 40  1  0
 40 41  1  0
 10 42  1  0
 42 43  1  0
  6 44  1  0
 44 45  2  0
 45 46  1  0
 46 47  1  0
 47 48  1  0
 48 49  2  0
 48 50  1  0
 45  3  1  0
 38  7  2  0
 43  8  1  0
 16 12  1  0
 30 18  1  0
 41 31  1  0
 39 35  1  0
  1 51  1  0
  1 52  1  0
  1 53  1  0
  4 54  1  0
  5 55  1  0
 11 56  1  0
 13 57  1  0
 14 58  1  0
 16 59  1  0
 19 60  1  0
 20 61  1  0
 23 62  1  0
 23 63  1  0
 23 64  1  0
 26 65  1  0
 26 66  1  0
 29 67  1  0
 30 68  1  0
 34 69  1  0
 36 70  1  0
 37 71  1  0
 39 72  1  0
 40 73  1  0
 40 74  1  0
 41 75  1  0
 41 76  1  0
 42 77  1  0
 42 78  1  0
 43 79  1  0
 43 80  1  0
 44 81  1  0
 47 82  1  0
 47 83  1  0
 50 84  1  0
M  END
