
     RDKit          3D

 68 72  0  0  0  0  0  0  0  0999 V2000
    7.9100   -1.9447   -0.3071 C   0  0  0  0  0  0  0  0  0  0  0  0
    8.6493   -0.7278   -0.1740 N   0  0  0  0  0  0  0  0  0  0  0  0
   10.1001   -0.7939   -0.2313 C   0  0  0  0  0  0  0  0  0  0  0  0
    8.0371    0.5453    0.0123 C   0  0  0  0  0  0  0  0  0  0  0  0
    8.7977    1.6838    0.1324 C   0  0  0  0  0  0  0  0  0  0  0  0
    8.2367    2.9357    0.3144 C   0  0  0  0  0  0  0  0  0  0  0  0
    6.8555    3.0152    0.3740 C   0  0  0  0  0  0  0  0  0  0  0  0
    6.0544    1.9053    0.2590 C   0  0  0  0  0  0  0  0  0  0  0  0
    4.6151    2.0484    0.3290 C   0  0  0  0  0  0  0  0  0  0  0  0
    3.7331    1.0761    0.2356 C   0  0  0  0  0  0  0  0  0  0  0  0
    2.2893    1.3070    0.3171 C   0  0  0  0  0  0  0  0  0  0  0  0
    1.6649    2.4618    0.4875 N   0  0  0  0  0  0  0  0  0  0  0  0
    0.3209    2.2150    0.5043 C   0  0  0  0  0  0  0  0  0  0  0  0
    0.1838    0.8556    0.3351 C   0  0  0  0  0  0  0  0  0  0  0  0
   -1.0568    0.0880    0.2814 C   0  0  0  0  0  0  0  0  0  0  0  0
   -1.0750   -1.2772    0.1074 C   0  0  0  0  0  0  0  0  0  0  0  0
   -2.2604   -1.9796    0.0602 C   0  0  0  0  0  0  0  0  0  0  0  0
   -3.4865   -1.3650    0.1829 C   0  0  0  0  0  0  0  0  0  0  0  0
   -4.6821   -2.0817    0.1343 O   0  0  0  0  0  0  0  0  0  0  0  0
   -4.6015   -3.4817   -0.0479 C   0  0  0  0  0  0  0  0  0  0  0  0
   -5.9287   -4.1112   -0.0803 C   0  0  0  0  0  0  0  0  0  0  0  0
   -7.1227   -3.4420    0.0485 C   0  0  0  0  0  0  0  0  0  0  0  0
   -8.3346   -4.1155    0.0064 C   0  0  0  0  0  0  0  0  0  0  0  0
   -8.3593   -5.4807   -0.1672 C   0  0  0  0  0  0  0  0  0  0  0  0
   -7.1822   -6.1778   -0.2990 C   0  0  0  0  0  0  0  0  0  0  0  0
   -5.9813   -5.4844   -0.2540 C   0  0  0  0  0  0  0  0  0  0  0  0
   -3.4750    0.0113    0.3585 C   0  0  0  0  0  0  0  0  0  0  0  0
   -4.6764    0.6602    0.4837 O   0  0  0  0  0  0  0  0  0  0  0  0
   -4.8969    2.0193    0.6553 C   0  0  0  0  0  0  0  0  0  0  0  0
   -4.4013    2.8800   -0.4428 C   0  0  0  0  0  0  0  0  0  0  0  0
   -3.9647    2.4522   -1.6602 C   0  0  0  0  0  0  0  0  0  0  0  0
   -3.5234    3.3485   -2.6106 C   0  0  0  0  0  0  0  0  0  0  0  0
   -3.5203    4.6994   -2.3338 C   0  0  0  0  0  0  0  0  0  0  0  0
   -3.9542    5.1683   -1.1143 C   0  0  0  0  0  0  0  0  0  0  0  0
   -4.3876    4.2511   -0.1889 C   0  0  0  0  0  0  0  0  0  0  0  0
   -2.2867    0.7116    0.4055 C   0  0  0  0  0  0  0  0  0  0  0  0
    1.3882    0.3606    0.2283 O   0  0  0  0  0  0  0  0  0  0  0  0
    6.6549    0.6825    0.0794 C   0  0  0  0  0  0  0  0  0  0  0  0
    7.7067   -2.3816    0.7045 H   0  0  0  0  0  0  0  0  0  0  0  0
    6.9786   -1.8530   -0.9006 H   0  0  0  0  0  0  0  0  0  0  0  0
    8.5292   -2.7008   -0.8317 H   0  0  0  0  0  0  0  0  0  0  0  0
   10.4697   -1.8325   -0.1692 H   0  0  0  0  0  0  0  0  0  0  0  0
   10.5027   -0.2230    0.6329 H   0  0  0  0  0  0  0  0  0  0  0  0
   10.4470   -0.3874   -1.1953 H   0  0  0  0  0  0  0  0  0  0  0  0
    9.8973    1.6482    0.0886 H   0  0  0  0  0  0  0  0  0  0  0  0
    8.8755    3.8000    0.4035 H   0  0  0  0  0  0  0  0  0  0  0  0
    6.4414    4.0074    0.5171 H   0  0  0  0  0  0  0  0  0  0  0  0
    4.1802    3.0457    0.4728 H   0  0  0  0  0  0  0  0  0  0  0  0
    4.1177    0.0752    0.0932 H   0  0  0  0  0  0  0  0  0  0  0  0
   -0.4872    2.9231    0.6240 H   0  0  0  0  0  0  0  0  0  0  0  0
   -0.1197   -1.7849    0.0081 H   0  0  0  0  0  0  0  0  0  0  0  0
   -2.2762   -3.0680   -0.0784 H   0  0  0  0  0  0  0  0  0  0  0  0
   -4.0339   -3.9160    0.8154 H   0  0  0  0  0  0  0  0  0  0  0  0
   -3.9910   -3.7329   -0.9584 H   0  0  0  0  0  0  0  0  0  0  0  0
   -7.1026   -2.3708    0.1847 H   0  0  0  0  0  0  0  0  0  0  0  0
   -9.2737   -3.5908    0.1075 H   0  0  0  0  0  0  0  0  0  0  0  0
   -9.3261   -5.9809   -0.1960 H   0  0  0  0  0  0  0  0  0  0  0  0
   -7.1878   -7.2519   -0.4361 H   0  0  0  0  0  0  0  0  0  0  0  0
   -5.0710   -6.0744   -0.3626 H   0  0  0  0  0  0  0  0  0  0  0  0
   -4.4517    2.4184    1.6030 H   0  0  0  0  0  0  0  0  0  0  0  0
   -6.0089    2.1612    0.7774 H   0  0  0  0  0  0  0  0  0  0  0  0
   -3.9776    1.3780   -1.8535 H   0  0  0  0  0  0  0  0  0  0  0  0
   -3.1858    2.9701   -3.5622 H   0  0  0  0  0  0  0  0  0  0  0  0
   -3.1608    5.3644   -3.1216 H   0  0  0  0  0  0  0  0  0  0  0  0
   -3.9462    6.2410   -0.9086 H   0  0  0  0  0  0  0  0  0  0  0  0
   -4.7286    4.6359    0.7726 H   0  0  0  0  0  0  0  0  0  0  0  0
   -2.2520    1.8006    0.5489 H   0  0  0  0  0  0  0  0  0  0  0  0
    6.1016   -0.2392   -0.0199 H   0  0  0  0  0  0  0  0  0  0  0  0
  1  2  1  0
  2  3  1  0
  2  4  1  0
  4  5  2  0
  5  6  1  0
  6  7  2  0
  7  8  1  0
  8  9  1  0
  9 10  2  0
 10 11  1  0
 11 12  2  0
 12 13  1  0
 13 14  2  0
 14 15  1  0
 15 16  2  0
 16 17  1  0
 17 18  2  0
 18 19  1  0
 19 20  1  0
 20 21  1  0
 21 22  2  0
 22 23  1  0
 23 24  2  0
 24 25  1  0
 25 26  2  0
 18 27  1  0
 27 28  1  0
 28 29  1  0
 29 30  1  0
 30 31  2  0
 31 32  1  0
 32 33  2  0
 33 34  1  0
 34 35  2  0
 27 36  2  0
 14 37  1  0
  8 38  2  0
 38  4  1  0
 37 11  1  0
 36 15  1  0
 26 21  1  0
 35 30  1  0
  1 39  1  0
  1 40  1  0
  1 41  1  0
  3 42  1  0
  3 43  1  0
  3 44  1  0
  5 45  1  0
  6 46  1  0
  7 47  1  0
  9 48  1  0
 10 49  1  0
 13 50  1  0
 16 51  1  0
 17 52  1  0
 20 53  1  0
 20 54  1  0
 22 55  1  0
 23 56  1  0
 24 57  1  0
 25 58  1  0
 26 59  1  0
 29 60  1  0
 29 61  1  0
 31 62  1  0
 32 63  1  0
 33 64  1  0
 34 65  1  0
 35 66  1  0
 36 67  1  0
 38 68  1  0
M  END
