
     RDKit          3D

 32 35  0  0  0  0  0  0  0  0999 V2000
    0.3483   -3.9279    0.4727 C   0  0  0  0  0  0  0  0  0  0  0  0
   -0.0610   -2.5198    0.3880 N   0  0  0  0  0  0  0  0  0  0  0  0
   -1.2621   -2.0272    0.4460 N   0  0  0  0  0  0  0  0  0  0  0  0
   -1.2335   -0.6708    0.3294 C   0  0  0  0  0  0  0  0  0  0  0  0
   -2.4164    0.1823    0.3556 C   0  0  0  0  0  0  0  0  0  0  0  0
   -3.5395   -0.1737   -0.3800 C   0  0  0  0  0  0  0  0  0  0  0  0
   -4.6872    0.5931   -0.3943 C   0  0  0  0  0  0  0  0  0  0  0  0
   -4.7016    1.7532    0.3557 C   0  0  0  0  0  0  0  0  0  0  0  0
   -3.5941    2.1229    1.0932 C   0  0  0  0  0  0  0  0  0  0  0  0
   -2.4541    1.3462    1.0976 C   0  0  0  0  0  0  0  0  0  0  0  0
    0.0722   -0.3149    0.1913 C   0  0  0  0  0  0  0  0  0  0  0  0
    0.6723    0.8804    0.0409 N   0  0  0  0  0  0  0  0  0  0  0  0
    2.0224    0.9245   -0.0747 C   0  0  0  0  0  0  0  0  0  0  0  0
    2.6978    2.1181   -0.2312 C   0  0  0  0  0  0  0  0  0  0  0  0
    4.0712    2.1397   -0.3467 C   0  0  0  0  0  0  0  0  0  0  0  0
    4.9586    3.6366   -0.5463 Cl  0  0  0  0  0  0  0  0  0  0  0  0
    4.8300    0.9717   -0.3112 C   0  0  0  0  0  0  0  0  0  0  0  0
    4.1534   -0.2228   -0.1546 C   0  0  0  0  0  0  0  0  0  0  0  0
    2.7773   -0.2290   -0.0400 C   0  0  0  0  0  0  0  0  0  0  0  0
    2.1288   -1.3988    0.1122 N   0  0  0  0  0  0  0  0  0  0  0  0
    0.8085   -1.5040    0.2304 C   0  0  0  0  0  0  0  0  0  0  0  0
    0.3261   -4.2673    1.5108 H   0  0  0  0  0  0  0  0  0  0  0  0
    1.3842   -4.0521    0.0955 H   0  0  0  0  0  0  0  0  0  0  0  0
   -0.3071   -4.5587   -0.1603 H   0  0  0  0  0  0  0  0  0  0  0  0
   -3.4942   -1.0825   -0.9522 H   0  0  0  0  0  0  0  0  0  0  0  0
   -5.5607    0.3050   -0.9737 H   0  0  0  0  0  0  0  0  0  0  0  0
   -5.5890    2.3709    0.3607 H   0  0  0  0  0  0  0  0  0  0  0  0
   -3.6001    3.0452    1.6918 H   0  0  0  0  0  0  0  0  0  0  0  0
   -1.5682    1.6035    1.6625 H   0  0  0  0  0  0  0  0  0  0  0  0
    2.1452    3.0626   -0.2649 H   0  0  0  0  0  0  0  0  0  0  0  0
    5.9157    1.0147   -0.4048 H   0  0  0  0  0  0  0  0  0  0  0  0
    4.7568   -1.1209   -0.1289 H   0  0  0  0  0  0  0  0  0  0  0  0
  1  2  1  0
  2  3  1  0
  3  4  2  0
  4  5  1  0
  5  6  2  0
  6  7  1  0
  7  8  2  0
  8  9  1  0
  9 10  2  0
  4 11  1  0
 11 12  2  0
 12 13  1  0
 13 14  2  0
 14 15  1  0
 15 16  1  0
 15 17  2  0
 17 18  1  0
 18 19  2  0
 19 20  1  0
 20 21  2  0
 21  2  1  0
 10  5  1  0
 21 11  1  0
 19 13  1  0
  1 22  1  0
  1 23  1  0
  1 24  1  0
  6 25  1  0
  7 26  1  0
  8 27  1  0
  9 28  1  0
 10 29  1  0
 14 30  1  0
 17 31  1  0
 18 32  1  0
M  END
