
     RDKit          3D

 42 46  0  0  0  0  0  0  0  0999 V2000
    7.2827   -0.5167    0.1116 O   0  0  0  0  0  0  0  0  0  0  0  0
    5.9141   -0.2670    0.1606 C   0  0  0  0  0  0  0  0  0  0  0  0
    5.0745   -1.1361   -0.4592 C   0  0  0  0  0  0  0  0  0  0  0  0
    3.6961   -0.9109   -0.4271 C   0  0  0  0  0  0  0  0  0  0  0  0
    3.1085    0.1435    0.1959 C   0  0  0  0  0  0  0  0  0  0  0  0
    1.6875    0.4348    0.2954 C   0  0  0  0  0  0  0  0  0  0  0  0
    0.6369   -0.2307   -0.1123 N   0  0  0  0  0  4  0  0  0  0  0  0
   -0.5507    0.4845    0.2272 C   0  0  0  0  0  0  0  0  0  0  0  0
   -1.7845    0.0397   -0.0426 C   0  0  0  0  0  0  0  0  0  0  0  0
   -2.9297    0.8569    0.3495 C   0  0  0  0  0  0  0  0  0  0  0  0
   -4.0012    0.3050    1.0267 C   0  0  0  0  0  0  0  0  0  0  0  0
   -5.1027    1.0568    1.3793 C   0  0  0  0  0  0  0  0  0  0  0  0
   -5.1877    2.3914    1.0746 C   0  0  0  0  0  0  0  0  0  0  0  0
   -4.1286    2.9662    0.3985 C   0  0  0  0  0  0  0  0  0  0  0  0
   -3.0192    2.1986    0.0452 C   0  0  0  0  0  0  0  0  0  0  0  0
   -1.9710   -1.2201   -0.7145 C   0  0  0  0  0  0  0  0  0  0  0  0
   -3.1492   -1.8692   -1.0899 C   0  0  0  0  0  0  0  0  0  0  0  0
   -2.7927   -3.0459   -1.6994 C   0  0  0  0  0  0  0  0  0  0  0  0
   -1.4220   -3.0890   -1.6842 C   0  0  0  0  0  0  0  0  0  0  0  0
   -0.9383   -1.9474   -1.0699 N   0  0  0  0  0  0  0  0  0  0  0  0
    0.5094   -1.5445   -0.8320 B   0  0  0  0  0  4  0  0  0  0  0  0
    1.0625   -1.4813   -2.2167 F   0  0  0  0  0  0  0  0  0  0  0  0
    1.0792   -2.6767   -0.0913 F   0  0  0  0  0  0  0  0  0  0  0  0
   -0.1118    1.6907    0.9015 C   0  0  0  0  0  0  0  0  0  0  0  0
    1.1787    1.6668    0.9429 C   0  0  0  0  0  0  0  0  0  0  0  0
    4.0221    1.0147    0.8229 C   0  0  0  0  0  0  0  0  0  0  0  0
    5.3808    0.8069    0.8004 C   0  0  0  0  0  0  0  0  0  0  0  0
    7.7676   -1.0709    0.8036 H   0  0  0  0  0  0  0  0  0  0  0  0
    5.4702   -1.9978   -0.9764 H   0  0  0  0  0  0  0  0  0  0  0  0
    3.1277   -1.6252   -0.9380 H   0  0  0  0  0  0  0  0  0  0  0  0
   -3.9568   -0.7423    1.2866 H   0  0  0  0  0  0  0  0  0  0  0  0
   -5.8915    0.5204    1.9113 H   0  0  0  0  0  0  0  0  0  0  0  0
   -6.0682    2.9305    1.3703 H   0  0  0  0  0  0  0  0  0  0  0  0
   -4.2117    4.0137    0.1674 H   0  0  0  0  0  0  0  0  0  0  0  0
   -2.2378    2.7083   -0.4862 H   0  0  0  0  0  0  0  0  0  0  0  0
   -4.1381   -1.4967   -0.9286 H   0  0  0  0  0  0  0  0  0  0  0  0
   -3.4261   -3.8107   -2.1181 H   0  0  0  0  0  0  0  0  0  0  0  0
   -0.7753   -3.8581   -2.0726 H   0  0  0  0  0  0  0  0  0  0  0  0
   -0.7324    2.4724    1.3069 H   0  0  0  0  0  0  0  0  0  0  0  0
    1.8079    2.4650    1.4010 H   0  0  0  0  0  0  0  0  0  0  0  0
    3.6662    1.8768    1.3454 H   0  0  0  0  0  0  0  0  0  0  0  0
    6.0546    1.4934    1.2918 H   0  0  0  0  0  0  0  0  0  0  0  0
  1  2  1  0
  2  3  2  0
  3  4  1  0
  4  5  2  0
  5  6  1  0
  6  7  2  0
  7  8  1  0
  8  9  2  0
  9 10  1  0
 10 11  2  0
 11 12  1  0
 12 13  2  0
 13 14  1  0
 14 15  2  0
  9 16  1  0
 16 17  2  0
 17 18  1  0
 18 19  2  0
 19 20  1  0
 20 21  1  0
 21 22  1  0
 21 23  1  0
  8 24  1  0
 24 25  2  0
  5 26  1  0
 26 27  2  0
 27  2  1  0
 25  6  1  0
 21  7  1  0
 15 10  1  0
 20 16  1  0
  1 28  1  0
  3 29  1  0
  4 30  1  0
 11 31  1  0
 12 32  1  0
 13 33  1  0
 14 34  1  0
 15 35  1  0
 17 36  1  0
 18 37  1  0
 19 38  1  0
 24 39  1  0
 25 40  1  0
 26 41  1  0
 27 42  1  0
M  CHG  2   7   1  21  -1
M  END
