
     RDKit          3D

 60 63  0  0  0  0  0  0  0  0999 V2000
    9.0876   -0.3046   -1.4163 C   0  0  0  0  0  0  0  0  0  0  0  0
    8.2551    0.6114   -0.6834 N   0  0  0  0  0  0  0  0  0  0  0  0
    8.7313    1.9306   -0.3549 C   0  0  0  0  0  0  0  0  0  0  0  0
    6.9579    0.2220   -0.2918 C   0  0  0  0  0  0  0  0  0  0  0  0
    5.8973    0.9259   -0.8715 C   0  0  0  0  0  0  0  0  0  0  0  0
    4.6203    0.5567   -0.5098 C   0  0  0  0  0  0  0  0  0  0  0  0
    4.3091   -0.4421    0.3704 C   0  0  0  0  0  0  0  0  0  0  0  0
    2.9691   -0.8365    0.7645 C   0  0  0  0  0  0  0  0  0  0  0  0
    1.8986   -0.2423    0.3058 C   0  0  0  0  0  0  0  0  0  0  0  0
    0.5462   -0.6532    0.7176 C   0  0  0  0  0  0  0  0  0  0  0  0
   -0.5529   -0.0769    0.2791 C   0  0  0  0  0  0  0  0  0  0  0  0
   -1.8874   -0.5332    0.7281 C   0  0  0  0  0  0  0  0  0  0  0  0
   -2.0939   -1.4980    1.5474 N   0  0  0  0  0  0  0  0  0  0  0  0
   -3.5124   -1.6616    1.7586 C   0  0  0  0  0  0  0  0  0  0  0  0
   -3.9199   -3.0542    1.9243 C   0  0  0  0  0  0  0  0  0  0  0  0
   -4.1534   -3.5402    3.0385 O   0  0  0  0  0  0  0  0  0  0  0  0
   -4.0436   -3.8516    0.7560 N   0  0  0  0  0  0  0  0  0  0  0  0
   -4.1863   -3.1650   -0.5114 C   0  0  0  0  0  0  0  0  0  0  0  0
   -4.3118   -3.9738   -1.6747 N   0  0  0  0  0  0  0  0  0  0  0  0
   -4.2040   -1.8902   -0.6004 N   0  0  0  0  0  0  0  0  0  0  0  0
   -4.0880   -1.0157    0.5206 C   0  0  0  0  0  0  0  0  0  0  0  0
   -3.1123    0.0412    0.3026 N   0  0  0  0  0  0  0  0  0  0  0  0
   -3.3931    1.3519   -0.2244 C   0  0  1  0  0  0  0  0  0  0  0  0
   -4.0119    1.3179   -1.6025 C   0  0  0  0  0  0  0  0  0  0  0  0
   -4.9238    2.5236   -1.5966 C   0  0  2  0  0  0  0  0  0  0  0  0
   -4.3214    3.6849   -2.0165 O   0  0  0  0  0  0  0  0  0  0  0  0
   -5.2544    2.6283   -0.1301 C   0  0  1  0  0  0  0  0  0  0  0  0
   -6.5921    1.9447    0.0639 C   0  0  0  0  0  0  0  0  0  0  0  0
   -7.0180    1.9630    1.3792 O   0  0  0  0  0  0  0  0  0  0  0  0
   -4.2471    2.0727    0.5878 O   0  0  0  0  0  0  0  0  0  0  0  0
    5.4048   -1.1155    0.9226 C   0  0  0  0  0  0  0  0  0  0  0  0
    6.6956   -0.7856    0.5945 C   0  0  0  0  0  0  0  0  0  0  0  0
    9.2327   -0.0320   -2.4777 H   0  0  0  0  0  0  0  0  0  0  0  0
   10.1167   -0.3710   -0.9520 H   0  0  0  0  0  0  0  0  0  0  0  0
    8.6876   -1.3412   -1.4070 H   0  0  0  0  0  0  0  0  0  0  0  0
    8.0162    2.6813   -0.8076 H   0  0  0  0  0  0  0  0  0  0  0  0
    9.7335    2.1496   -0.7706 H   0  0  0  0  0  0  0  0  0  0  0  0
    8.7145    2.1041    0.7452 H   0  0  0  0  0  0  0  0  0  0  0  0
    6.0929    1.7315   -1.5768 H   0  0  0  0  0  0  0  0  0  0  0  0
    3.8038    1.1123   -0.9683 H   0  0  0  0  0  0  0  0  0  0  0  0
    2.8349   -1.6487    1.4613 H   0  0  0  0  0  0  0  0  0  0  0  0
    1.9798    0.5621   -0.3824 H   0  0  0  0  0  0  0  0  0  0  0  0
    0.4453   -1.4829    1.4264 H   0  0  0  0  0  0  0  0  0  0  0  0
   -0.4411    0.7358   -0.4133 H   0  0  0  0  0  0  0  0  0  0  0  0
   -3.8315   -1.0147    2.6164 H   0  0  0  0  0  0  0  0  0  0  0  0
   -4.0384   -4.8889    0.7592 H   0  0  0  0  0  0  0  0  0  0  0  0
   -5.2404   -4.2730   -2.0194 H   0  0  0  0  0  0  0  0  0  0  0  0
   -3.4425   -4.2545   -2.1679 H   0  0  0  0  0  0  0  0  0  0  0  0
   -5.0770   -0.5814    0.8201 H   0  0  0  0  0  0  0  0  0  0  0  0
   -2.4671    1.9687   -0.3283 H   0  0  0  0  0  0  0  0  0  0  0  0
   -3.2818    1.4635   -2.4225 H   0  0  0  0  0  0  0  0  0  0  0  0
   -4.5722    0.3987   -1.8085 H   0  0  0  0  0  0  0  0  0  0  0  0
   -5.8270    2.3459   -2.1940 H   0  0  0  0  0  0  0  0  0  0  0  0
   -4.0061    4.1817   -1.2243 H   0  0  0  0  0  0  0  0  0  0  0  0
   -5.3812    3.6881    0.1694 H   0  0  0  0  0  0  0  0  0  0  0  0
   -7.3244    2.5492   -0.5347 H   0  0  0  0  0  0  0  0  0  0  0  0
   -6.5708    0.9094   -0.3016 H   0  0  0  0  0  0  0  0  0  0  0  0
   -6.4439    1.3951    1.9551 H   0  0  0  0  0  0  0  0  0  0  0  0
    5.1884   -1.9077    1.6158 H   0  0  0  0  0  0  0  0  0  0  0  0
    7.5540   -1.3159    1.0291 H   0  0  0  0  0  0  0  0  0  0  0  0
  1  2  1  0
  2  3  1  0
  2  4  1  0
  4  5  2  0
  5  6  1  0
  6  7  2  0
  7  8  1  0
  8  9  2  0
  9 10  1  0
 10 11  2  0
 11 12  1  0
 12 13  2  0
 13 14  1  0
 14 15  1  0
 15 16  2  0
 15 17  1  0
 17 18  1  0
 18 19  1  0
 18 20  2  0
 20 21  1  0
 21 22  1  0
 22 23  1  0
 23 24  1  0
 24 25  1  0
 25 26  1  0
 25 27  1  0
 27 28  1  0
 28 29  1  0
 27 30  1  0
  7 31  1  0
 31 32  2  0
 32  4  1  0
 22 12  1  0
 30 23  1  0
 21 14  1  0
  1 33  1  0
  1 34  1  0
  1 35  1  0
  3 36  1  0
  3 37  1  0
  3 38  1  0
  5 39  1  0
  6 40  1  0
  8 41  1  0
  9 42  1  0
 10 43  1  0
 11 44  1  0
 14 45  1  0
 17 46  1  0
 19 47  1  0
 19 48  1  0
 21 49  1  0
 23 50  1  6
 24 51  1  0
 24 52  1  0
 25 53  1  6
 26 54  1  0
 27 55  1  1
 28 56  1  0
 28 57  1  0
 29 58  1  0
 31 59  1  0
 32 60  1  0
M  END
