
     RDKit          3D

 36 39  0  0  0  0  0  0  0  0999 V2000
   -4.5372   -0.0998   -2.0276 N   0  0  0  0  0  0  0  0  0  0  0  0
   -3.4955   -0.3139   -1.4895 C   0  0  0  0  0  0  0  0  0  0  0  0
   -2.2452   -0.5457   -0.8423 C   0  0  0  0  0  0  0  0  0  0  0  0
   -1.4729   -1.6025   -1.0663 C   0  0  0  0  0  0  0  0  0  0  0  0
   -1.7523   -2.6675   -1.9729 N   0  0  0  0  0  0  0  0  0  0  0  0
   -0.3221   -1.4765   -0.2363 N   0  0  0  0  0  0  0  0  0  0  0  0
    0.7436   -2.2994   -0.1054 C   0  0  0  0  0  0  0  0  0  0  0  0
    0.8380   -3.3709   -0.7769 O   0  0  0  0  0  0  0  0  0  0  0  0
    1.7729   -2.0105    0.7623 C   0  0  0  0  0  0  0  0  0  0  0  0
    2.8674   -2.8792    0.8822 C   0  0  0  0  0  0  0  0  0  0  0  0
    3.8465   -2.5222    1.7655 C   0  0  0  0  0  0  0  0  0  0  0  0
    3.7697   -1.3620    2.5091 C   0  0  0  0  0  0  0  0  0  0  0  0
    2.7004   -0.5142    2.3913 C   0  0  0  0  0  0  0  0  0  0  0  0
    1.6808   -0.8488    1.4972 C   0  0  0  0  0  0  0  0  0  0  0  0
    0.5845   -0.0191    1.3509 C   0  0  0  0  0  0  0  0  0  0  0  0
    0.5444    1.0320    2.0439 O   0  0  0  0  0  0  0  0  0  0  0  0
   -0.3695   -0.3728    0.4877 N   0  0  0  0  0  0  0  0  0  0  0  0
   -1.5977    0.3440    0.1782 C   0  0  0  0  0  0  0  0  0  0  0  0
   -1.3704    1.6954   -0.3532 C   0  0  0  0  0  0  0  0  0  0  0  0
   -1.1374    1.8829   -1.6893 C   0  0  0  0  0  0  0  0  0  0  0  0
   -0.9321    3.1514   -2.1457 C   0  0  0  0  0  0  0  0  0  0  0  0
   -0.9446    4.2671   -1.3390 C   0  0  0  0  0  0  0  0  0  0  0  0
   -1.1828    4.0656    0.0196 C   0  0  0  0  0  0  0  0  0  0  0  0
   -1.3947    2.7718    0.5011 C   0  0  0  0  0  0  0  0  0  0  0  0
   -2.4041   -2.5656   -2.7743 H   0  0  0  0  0  0  0  0  0  0  0  0
   -1.2757   -3.5775   -1.8122 H   0  0  0  0  0  0  0  0  0  0  0  0
    2.8814   -3.7802    0.2731 H   0  0  0  0  0  0  0  0  0  0  0  0
    4.7058   -3.1675    1.8853 H   0  0  0  0  0  0  0  0  0  0  0  0
    4.5509   -1.0863    3.2079 H   0  0  0  0  0  0  0  0  0  0  0  0
    2.5908    0.4117    2.9540 H   0  0  0  0  0  0  0  0  0  0  0  0
   -2.2347    0.3349    1.0864 H   0  0  0  0  0  0  0  0  0  0  0  0
   -1.1172    1.0237   -2.3771 H   0  0  0  0  0  0  0  0  0  0  0  0
   -0.7481    3.2640   -3.2246 H   0  0  0  0  0  0  0  0  0  0  0  0
   -0.7747    5.2270   -1.7784 H   0  0  0  0  0  0  0  0  0  0  0  0
   -1.1910    4.9282    0.6469 H   0  0  0  0  0  0  0  0  0  0  0  0
   -1.5771    2.6822    1.5683 H   0  0  0  0  0  0  0  0  0  0  0  0
  1  2  3  0
  2  3  1  0
  3  4  2  0
  4  5  1  0
  4  6  1  0
  6  7  1  0
  7  8  2  0
  7  9  1  0
  9 10  2  0
 10 11  1  0
 11 12  2  0
 12 13  1  0
 13 14  2  0
 14 15  1  0
 15 16  2  0
 15 17  1  0
 17 18  1  0
 18 19  1  0
 19 20  2  0
 20 21  1  0
 21 22  2  0
 22 23  1  0
 23 24  2  0
 18  3  1  0
 24 19  1  0
 17  6  1  0
 14  9  1  0
  5 25  1  0
  5 26  1  0
 10 27  1  0
 11 28  1  0
 12 29  1  0
 13 30  1  0
 18 31  1  0
 20 32  1  0
 21 33  1  0
 22 34  1  0
 23 35  1  0
 24 36  1  0
M  END
