
     RDKit          3D

 29 31  0  0  0  0  0  0  0  0999 V2000
   -1.1226    1.7095    2.3129 N   0  0  0  0  0  0  0  0  0  0  0  0
   -0.8161    1.0603    1.3680 C   0  0  0  0  0  0  0  0  0  0  0  0
   -0.4462    0.2705    0.2515 C   0  0  0  0  0  0  0  0  0  0  0  0
   -1.3391   -0.0560   -0.6507 C   0  0  0  0  0  0  0  0  0  0  0  0
   -2.7369    0.3528   -0.5752 C   0  0  0  0  0  0  0  0  0  0  0  0
   -3.4981    0.3212    0.5751 C   0  0  0  0  0  0  0  0  0  0  0  0
   -4.8311    0.7522    0.5625 C   0  0  0  0  0  0  0  0  0  0  0  0
   -5.4191    1.2168   -0.5874 C   0  0  0  0  0  0  0  0  0  0  0  0
   -7.1015    1.7606   -0.6038 Cl  0  0  0  0  0  0  0  0  0  0  0  0
   -4.6747    1.2569   -1.7515 C   0  0  0  0  0  0  0  0  0  0  0  0
   -3.3502    0.8242   -1.7216 C   0  0  0  0  0  0  0  0  0  0  0  0
    0.9632   -0.1781    0.1191 C   0  0  0  0  0  0  0  0  0  0  0  0
    1.9761    0.0427    0.9205 N   0  0  0  0  0  0  0  0  0  0  0  0
    3.1584   -0.4392    0.6329 C   0  0  0  0  0  0  0  0  0  0  0  0
    4.3179   -0.2749    1.4092 C   0  0  0  0  0  0  0  0  0  0  0  0
    5.4934   -0.8366    0.9950 C   0  0  0  0  0  0  0  0  0  0  0  0
    5.6320   -1.5670   -0.1532 C   0  0  0  0  0  0  0  0  0  0  0  0
    4.4988   -1.7340   -0.9245 C   0  0  0  0  0  0  0  0  0  0  0  0
    3.2834   -1.1641   -0.5129 C   0  0  0  0  0  0  0  0  0  0  0  0
    1.6824   -1.1158   -1.1208 S   0  0  0  0  0  0  0  0  0  0  0  0
   -1.0544   -0.6507   -1.4955 H   0  0  0  0  0  0  0  0  0  0  0  0
   -3.0454   -0.0518    1.4668 H   0  0  0  0  0  0  0  0  0  0  0  0
   -5.4166    0.7241    1.4638 H   0  0  0  0  0  0  0  0  0  0  0  0
   -5.1245    1.6202   -2.6644 H   0  0  0  0  0  0  0  0  0  0  0  0
   -2.7337    0.8429   -2.6315 H   0  0  0  0  0  0  0  0  0  0  0  0
    4.3024    0.2882    2.3298 H   0  0  0  0  0  0  0  0  0  0  0  0
    6.3743   -0.6903    1.6219 H   0  0  0  0  0  0  0  0  0  0  0  0
    6.5607   -2.0019   -0.4738 H   0  0  0  0  0  0  0  0  0  0  0  0
    4.4674   -2.2826   -1.8370 H   0  0  0  0  0  0  0  0  0  0  0  0
  1  2  3  0
  2  3  1  0
  3  4  2  0
  4  5  1  0
  5  6  2  0
  6  7  1  0
  7  8  2  0
  8  9  1  0
  8 10  1  0
 10 11  2  0
  3 12  1  0
 12 13  2  0
 13 14  1  0
 14 15  2  0
 15 16  1  0
 16 17  2  0
 17 18  1  0
 18 19  2  0
 19 20  1  0
 11  5  1  0
 20 12  1  0
 19 14  1  0
  4 21  1  0
  6 22  1  0
  7 23  1  0
 10 24  1  0
 11 25  1  0
 15 26  1  0
 16 27  1  0
 17 28  1  0
 18 29  1  0
M  END
