
     RDKit          3D

 74 82  0  0  0  0  0  0  0  0999 V2000
   -0.7652   -5.9010    1.6816 C   0  0  0  0  0  0  0  0  0  0  0  0
   -0.4909   -4.5572    1.0832 C   0  0  0  0  0  0  0  0  0  0  0  0
    0.1173   -3.6237    2.1383 C   0  0  0  0  0  0  0  0  0  0  0  0
    0.2397   -2.3228    1.3659 N   0  0  0  0  0  0  0  0  0  0  0  0
   -1.0167   -1.7322    1.0412 C   0  0  0  0  0  0  0  0  0  0  0  0
   -2.1840   -2.1692    1.7330 C   0  0  0  0  0  0  0  0  0  0  0  0
   -3.3356   -1.5184    1.4408 C   0  0  0  0  0  0  0  0  0  0  0  0
   -3.5293   -0.4851    0.5606 C   0  0  0  0  0  0  0  0  0  0  0  0
   -4.7392   -0.0654    0.0769 C   0  0  0  0  0  0  0  0  0  0  0  0
   -5.8535    0.3106   -0.3883 C   0  0  0  0  0  0  0  0  0  0  0  0
   -7.1506    0.7665   -0.9171 C   0  0  0  0  0  0  0  0  0  0  0  0
   -8.1668   -0.0949   -0.6898 C   0  0  0  0  0  0  0  0  0  0  0  0
   -8.1956   -1.4152   -0.0219 C   0  0  0  0  0  0  0  0  0  0  0  0
   -9.4446   -1.7913    0.0316 C   0  0  0  0  0  0  0  0  0  0  0  0
  -10.2853   -0.7623   -0.5861 C   0  0  0  0  0  0  0  0  0  0  0  0
   -9.5084    0.2168   -0.9964 N   0  0  0  0  0  4  0  0  0  0  0  0
   -9.8173    1.5467   -1.6258 B   0  0  0  0  0  4  0  0  0  0  0  0
  -10.4922    2.3254   -0.4919 F   0  0  0  0  0  0  0  0  0  0  0  0
  -10.7673    1.4667   -2.7044 F   0  0  0  0  0  0  0  0  0  0  0  0
   -8.6151    2.3992   -1.9418 N   0  0  0  0  0  0  0  0  0  0  0  0
   -8.5574    3.6143   -2.5556 C   0  0  0  0  0  0  0  0  0  0  0  0
   -7.2457    4.0083   -2.5348 C   0  0  0  0  0  0  0  0  0  0  0  0
   -6.5190    3.0229   -1.9108 C   0  0  0  0  0  0  0  0  0  0  0  0
   -7.3594    2.0228   -1.5413 C   0  0  0  0  0  0  0  0  0  0  0  0
   -2.3551   -0.0445   -0.1104 C   0  0  0  0  0  0  0  0  0  0  0  0
   -1.2193   -0.7031    0.1873 C   0  0  0  0  0  0  0  0  0  0  0  0
    0.2275   -0.1555   -0.8080 S   0  0  0  0  0  0  0  0  0  0  0  0
    1.6145   -0.8265   -0.0032 C   0  0  0  0  0  0  0  0  0  0  0  0
    2.8345   -0.2849   -0.2971 C   0  0  0  0  0  0  0  0  0  0  0  0
    3.9636   -0.8275    0.3133 C   0  0  0  0  0  0  0  0  0  0  0  0
    5.2215    0.0596    0.1499 C   0  0  0  0  0  0  0  0  0  0  0  0
    6.1732    0.7433    0.0346 C   0  0  0  0  0  0  0  0  0  0  0  0
    7.2549    1.4993   -0.0876 C   0  0  0  0  0  0  0  0  0  0  0  0
    7.8253    1.8370   -1.2779 C   0  0  0  0  0  0  0  0  0  0  0  0
    7.3602    1.4250   -2.6313 C   0  0  0  0  0  0  0  0  0  0  0  0
    8.1946    2.0862   -3.4622 C   0  0  0  0  0  0  0  0  0  0  0  0
    9.1480    2.8703   -2.7074 C   0  0  0  0  0  0  0  0  0  0  0  0
    8.9106    2.7090   -1.3965 N   0  0  0  0  0  4  0  0  0  0  0  0
    9.5846    3.4082   -0.2407 B   0  0  0  0  0  4  0  0  0  0  0  0
    9.1610    4.8508   -0.2575 F   0  0  0  0  0  0  0  0  0  0  0  0
   11.0144    3.3471   -0.1761 F   0  0  0  0  0  0  0  0  0  0  0  0
    8.9595    2.8832    1.0715 N   0  0  0  0  0  0  0  0  0  0  0  0
    9.3642    3.2079    2.3645 C   0  0  0  0  0  0  0  0  0  0  0  0
    8.4811    2.5361    3.1597 C   0  0  0  0  0  0  0  0  0  0  0  0
    7.5374    1.8145    2.4093 C   0  0  0  0  0  0  0  0  0  0  0  0
    7.9383    2.1043    1.1030 C   0  0  0  0  0  0  0  0  0  0  0  0
    3.9476   -1.8414    1.1568 C   0  0  0  0  0  0  0  0  0  0  0  0
    2.6556   -2.3758    1.4391 C   0  0  0  0  0  0  0  0  0  0  0  0
    1.4858   -1.9035    0.8878 C   0  0  0  0  0  0  0  0  0  0  0  0
   -1.8749   -6.1359    1.5722 H   0  0  0  0  0  0  0  0  0  0  0  0
   -0.4272   -6.0399    2.6984 H   0  0  0  0  0  0  0  0  0  0  0  0
   -0.2907   -6.7234    1.0252 H   0  0  0  0  0  0  0  0  0  0  0  0
   -1.3856   -4.1351    0.6614 H   0  0  0  0  0  0  0  0  0  0  0  0
    0.2236   -4.6192    0.1961 H   0  0  0  0  0  0  0  0  0  0  0  0
   -0.5345   -3.6042    2.9709 H   0  0  0  0  0  0  0  0  0  0  0  0
    1.0959   -4.0097    2.3931 H   0  0  0  0  0  0  0  0  0  0  0  0
   -2.0715   -2.9348    2.4084 H   0  0  0  0  0  0  0  0  0  0  0  0
   -4.2176   -1.9309    1.9546 H   0  0  0  0  0  0  0  0  0  0  0  0
   -7.3014   -1.8713    0.3048 H   0  0  0  0  0  0  0  0  0  0  0  0
   -9.7807   -2.7182    0.4805 H   0  0  0  0  0  0  0  0  0  0  0  0
  -11.3621   -0.8591   -0.6635 H   0  0  0  0  0  0  0  0  0  0  0  0
   -9.4589    4.1258   -2.9778 H   0  0  0  0  0  0  0  0  0  0  0  0
   -6.9244    4.9284   -2.9568 H   0  0  0  0  0  0  0  0  0  0  0  0
   -5.4080    3.0732   -1.7554 H   0  0  0  0  0  0  0  0  0  0  0  0
   -2.4827    0.7683   -0.7856 H   0  0  0  0  0  0  0  0  0  0  0  0
    2.9153    0.5583   -0.9838 H   0  0  0  0  0  0  0  0  0  0  0  0
    6.6061    0.7472   -2.8483 H   0  0  0  0  0  0  0  0  0  0  0  0
    8.1938    2.0529   -4.5342 H   0  0  0  0  0  0  0  0  0  0  0  0
    9.9102    3.5225   -3.0475 H   0  0  0  0  0  0  0  0  0  0  0  0
   10.1731    3.8155    2.5893 H   0  0  0  0  0  0  0  0  0  0  0  0
    8.4716    2.5350    4.2593 H   0  0  0  0  0  0  0  0  0  0  0  0
    6.7575    1.2385    2.8130 H   0  0  0  0  0  0  0  0  0  0  0  0
    4.8706   -2.2396    1.6080 H   0  0  0  0  0  0  0  0  0  0  0  0
    2.7013   -3.2249    2.1239 H   0  0  0  0  0  0  0  0  0  0  0  0
  1  2  1  0
  2  3  1  0
  3  4  1  0
  4  5  1  0
  5  6  2  0
  6  7  1  0
  7  8  2  0
  8  9  1  0
  9 10  3  0
 10 11  1  0
 11 12  2  0
 12 13  1  0
 13 14  2  0
 14 15  1  0
 15 16  2  0
 16 17  1  0
 17 18  1  0
 17 19  1  0
 17 20  1  0
 20 21  1  0
 21 22  2  0
 22 23  1  0
 23 24  2  0
  8 25  1  0
 25 26  2  0
 26 27  1  0
 27 28  1  0
 28 29  2  0
 29 30  1  0
 30 31  1  0
 31 32  3  0
 32 33  1  0
 33 34  2  0
 34 35  1  0
 35 36  2  0
 36 37  1  0
 37 38  2  0
 38 39  1  0
 39 40  1  0
 39 41  1  0
 39 42  1  0
 42 43  1  0
 43 44  2  0
 44 45  1  0
 45 46  2  0
 30 47  2  0
 47 48  1  0
 48 49  2  0
 49  4  1  0
 26  5  1  0
 49 28  1  0
 24 11  1  0
 46 33  1  0
 16 12  1  0
 24 20  1  0
 38 34  1  0
 46 42  1  0
  1 50  1  0
  1 51  1  0
  1 52  1  0
  2 53  1  0
  2 54  1  0
  3 55  1  0
  3 56  1  0
  6 57  1  0
  7 58  1  0
 13 59  1  0
 14 60  1  0
 15 61  1  0
 21 62  1  0
 22 63  1  0
 23 64  1  0
 25 65  1  0
 29 66  1  0
 35 67  1  0
 36 68  1  0
 37 69  1  0
 43 70  1  0
 44 71  1  0
 45 72  1  0
 47 73  1  0
 48 74  1  0
M  CHG  4  16   1  17  -1  38   1  39  -1
M  END
