
     RDKit          3D

 27 29  0  0  0  0  0  0  0  0999 V2000
    1.6730    0.9047   -0.7445 C   0  0  0  0  0  0  0  0  0  0  0  0
    2.8770    0.9357   -0.7897 C   0  0  0  0  0  0  0  0  0  0  0  0
    4.3345    0.9485   -0.8428 C   0  0  0  0  0  0  0  0  0  0  0  0
    5.1288    1.2971   -1.9018 C   0  0  0  0  0  0  0  0  0  0  0  0
    6.4668    1.2294   -1.7111 C   0  0  0  0  0  0  0  0  0  0  0  0
    6.9017    0.8198   -0.4806 C   0  0  0  0  0  0  0  0  0  0  0  0
    5.4549    0.5430    0.3685 S   0  0  0  0  0  0  0  0  0  0  0  0
    0.2370    0.8812   -0.6696 C   0  0  0  0  0  0  0  0  0  0  0  0
   -0.6328    1.8090   -1.1469 N   0  0  0  0  0  0  0  0  0  0  0  0
   -1.8744    1.3855   -0.8583 C   0  0  0  0  0  0  0  0  0  0  0  0
   -1.7548    0.1845   -0.1972 C   0  0  0  0  0  0  0  0  0  0  0  0
   -2.8686   -0.6291    0.3023 C   0  0  0  0  0  0  0  0  0  0  0  0
   -4.1585   -0.2180    0.1299 C   0  0  0  0  0  0  0  0  0  0  0  0
   -5.2477   -0.9608    0.5890 C   0  0  0  0  0  0  0  0  0  0  0  0
   -5.0231   -2.1556    1.2421 C   0  0  0  0  0  0  0  0  0  0  0  0
   -3.7185   -2.5804    1.4215 C   0  0  0  0  0  0  0  0  0  0  0  0
   -2.6432   -1.8175    0.9518 C   0  0  0  0  0  0  0  0  0  0  0  0
   -0.4766   -0.0613   -0.1159 O   0  0  0  0  0  0  0  0  0  0  0  0
    4.6462    1.6176   -2.8634 H   0  0  0  0  0  0  0  0  0  0  0  0
    7.1632    1.5045   -2.5476 H   0  0  0  0  0  0  0  0  0  0  0  0
    7.9582    0.7134   -0.1702 H   0  0  0  0  0  0  0  0  0  0  0  0
   -2.7653    1.9334   -1.1239 H   0  0  0  0  0  0  0  0  0  0  0  0
   -4.3396    0.7133   -0.3789 H   0  0  0  0  0  0  0  0  0  0  0  0
   -6.2530   -0.5938    0.4288 H   0  0  0  0  0  0  0  0  0  0  0  0
   -5.8794   -2.7287    1.5971 H   0  0  0  0  0  0  0  0  0  0  0  0
   -3.5605   -3.5167    1.9341 H   0  0  0  0  0  0  0  0  0  0  0  0
   -1.6452   -2.1587    1.0980 H   0  0  0  0  0  0  0  0  0  0  0  0
  1  2  3  0
  2  3  1  0
  3  4  2  0
  4  5  1  0
  5  6  2  0
  6  7  1  0
  1  8  1  0
  8  9  2  0
  9 10  1  0
 10 11  2  0
 11 12  1  0
 12 13  2  0
 13 14  1  0
 14 15  2  0
 15 16  1  0
 16 17  2  0
 11 18  1  0
  7  3  1  0
 18  8  1  0
 17 12  1  0
  4 19  1  0
  5 20  1  0
  6 21  1  0
 10 22  1  0
 13 23  1  0
 14 24  1  0
 15 25  1  0
 16 26  1  0
 17 27  1  0
M  END
