
     RDKit          3D

 43 46  0  0  0  0  0  0  0  0999 V2000
    7.9089   -1.6980   -0.2293 F   0  0  0  0  0  0  0  0  0  0  0  0
    7.6189   -0.4615   -0.8597 C   0  0  0  0  0  0  0  0  0  0  0  0
    8.0328   -0.4768   -2.1409 F   0  0  0  0  0  0  0  0  0  0  0  0
    8.3708    0.4500   -0.1686 F   0  0  0  0  0  0  0  0  0  0  0  0
    6.1766   -0.1543   -0.6368 C   0  0  0  0  0  0  0  0  0  0  0  0
    5.1862   -0.9996   -0.9867 C   0  0  0  0  0  0  0  0  0  0  0  0
    3.8937   -0.8558   -0.6671 C   0  0  0  0  0  0  0  0  0  0  0  0
    3.4877    0.2800    0.1008 C   0  0  0  0  0  0  0  0  0  0  0  0
    2.1780    0.2238    0.4815 N   0  0  0  0  0  0  0  0  0  0  0  0
    1.4095    0.0529    1.4127 N   0  0  0  0  0  0  0  0  0  0  0  0
   -0.0204    0.1399    1.0213 C   0  0  0  0  0  0  0  0  0  0  0  0
   -0.4258   -0.4135   -0.1489 C   0  0  0  0  0  0  0  0  0  0  0  0
   -1.6699   -0.4557   -0.5867 C   0  0  0  0  0  0  0  0  0  0  0  0
   -2.6477    0.1272    0.1771 C   0  0  0  0  0  0  0  0  0  0  0  0
   -2.2942    0.7271    1.3870 C   0  0  0  0  0  0  0  0  0  0  0  0
   -0.9754    0.7226    1.8112 C   0  0  0  0  0  0  0  0  0  0  0  0
   -3.3235    1.3485    2.2427 C   0  0  0  0  0  0  0  0  0  0  0  0
   -4.7277    0.9200    1.8436 C   0  0  0  0  0  0  0  0  0  0  0  0
   -4.9182    1.0479    0.3321 C   0  0  0  0  0  0  0  0  0  0  0  0
   -3.9993    0.0828   -0.2266 N   0  0  0  0  0  0  0  0  0  0  0  0
   -4.5232   -0.9184   -1.1140 C   0  0  0  0  0  0  0  0  0  0  0  0
   -3.4692   -1.7876   -1.7353 C   0  0  0  0  0  0  0  0  0  0  0  0
   -2.1256   -1.1371   -1.8386 C   0  0  0  0  0  0  0  0  0  0  0  0
    4.4331    1.1861    0.4597 C   0  0  0  0  0  0  0  0  0  0  0  0
    5.7900    0.9724    0.0957 C   0  0  0  0  0  0  0  0  0  0  0  0
    5.5136   -1.8784   -1.6166 H   0  0  0  0  0  0  0  0  0  0  0  0
    3.1076   -1.5096   -1.0187 H   0  0  0  0  0  0  0  0  0  0  0  0
    0.4056   -0.8095   -0.7914 H   0  0  0  0  0  0  0  0  0  0  0  0
   -0.6998    1.1198    2.7714 H   0  0  0  0  0  0  0  0  0  0  0  0
   -3.1383    0.9113    3.2678 H   0  0  0  0  0  0  0  0  0  0  0  0
   -3.2977    2.4368    2.2930 H   0  0  0  0  0  0  0  0  0  0  0  0
   -5.4263    1.6263    2.2964 H   0  0  0  0  0  0  0  0  0  0  0  0
   -4.9453   -0.0903    2.2156 H   0  0  0  0  0  0  0  0  0  0  0  0
   -5.9653    0.8071    0.1223 H   0  0  0  0  0  0  0  0  0  0  0  0
   -4.6160    2.0571    0.0489 H   0  0  0  0  0  0  0  0  0  0  0  0
   -5.1643   -0.3815   -1.8358 H   0  0  0  0  0  0  0  0  0  0  0  0
   -5.1510   -1.5850   -0.4375 H   0  0  0  0  0  0  0  0  0  0  0  0
   -3.8233   -2.0065   -2.7821 H   0  0  0  0  0  0  0  0  0  0  0  0
   -3.3877   -2.7619   -1.2298 H   0  0  0  0  0  0  0  0  0  0  0  0
   -2.0632   -0.4558   -2.6792 H   0  0  0  0  0  0  0  0  0  0  0  0
   -1.3984   -1.9696   -2.0220 H   0  0  0  0  0  0  0  0  0  0  0  0
    4.1808    2.1090    0.9765 H   0  0  0  0  0  0  0  0  0  0  0  0
    6.5027    1.7029    0.3949 H   0  0  0  0  0  0  0  0  0  0  0  0
  1  2  1  0
  2  3  1  0
  2  4  1  0
  2  5  1  0
  5  6  2  0
  6  7  1  0
  7  8  2  0
  8  9  1  0
  9 10  2  0
 10 11  1  0
 11 12  2  0
 12 13  1  0
 13 14  2  0
 14 15  1  0
 15 16  2  0
 15 17  1  0
 17 18  1  0
 18 19  1  0
 19 20  1  0
 20 21  1  0
 21 22  1  0
 22 23  1  0
  8 24  1  0
 24 25  2  0
 25  5  1  0
 16 11  1  0
 23 13  1  0
 20 14  1  0
  6 26  1  0
  7 27  1  0
 12 28  1  0
 16 29  1  0
 17 30  1  0
 17 31  1  0
 18 32  1  0
 18 33  1  0
 19 34  1  0
 19 35  1  0
 21 36  1  0
 21 37  1  0
 22 38  1  0
 22 39  1  0
 23 40  1  0
 23 41  1  0
 24 42  1  0
 25 43  1  0
M  END
