
     RDKit          3D

109114  0  0  0  0  0  0  0  0999 V2000
   -5.1009    8.2344   -0.6409 C   0  0  0  0  0  0  0  0  0  0  0  0
   -5.1767    6.7364   -0.4283 C   0  0  0  0  0  0  0  0  0  0  0  0
   -3.9623    6.0720   -1.0351 C   0  0  0  0  0  0  0  0  0  0  0  0
   -4.0984    4.5777   -0.7893 C   0  0  0  0  0  0  0  0  0  0  0  0
   -2.8710    3.9253   -1.4183 C   0  0  0  0  0  0  0  0  0  0  0  0
   -2.9560    2.4587   -1.2138 C   0  0  0  0  0  0  0  0  0  0  0  0
   -2.9761    2.0155    0.2412 C   0  0  0  0  0  0  0  0  0  0  0  0
   -3.0555    0.5090    0.2013 C   0  0  0  0  0  0  0  0  0  0  0  0
   -3.0716   -0.1921    1.4963 C   0  0  0  0  0  0  0  0  0  0  0  0
   -3.1397   -1.7008    1.1945 C   0  0  0  0  0  0  0  0  0  0  0  0
   -4.3273   -2.1343    0.4345 C   0  0  0  0  0  0  0  0  0  0  0  0
   -4.2949   -3.6503    0.1977 C   0  0  0  0  0  0  0  0  0  0  0  0
   -3.0936   -4.0856   -0.5923 C   0  0  0  0  0  0  0  0  0  0  0  0
   -3.0590   -3.4111   -1.9491 C   0  0  0  0  0  0  0  0  0  0  0  0
   -4.2758   -3.7343   -2.7647 C   0  0  0  0  0  0  0  0  0  0  0  0
   -4.4581   -5.1888   -3.0547 C   0  0  0  0  0  0  0  0  0  0  0  0
   -3.3104   -5.7696   -3.8256 C   0  0  0  0  0  0  0  0  0  0  0  0
   -4.0651    0.2084    2.4708 C   0  0  0  0  0  0  0  0  0  0  0  0
   -5.4484    0.3554    2.5094 C   0  0  0  0  0  0  0  0  0  0  0  0
   -6.1298    0.7355    3.6334 C   0  0  0  0  0  0  0  0  0  0  0  0
   -7.5869    0.8833    3.6584 C   0  0  0  0  0  0  0  0  0  0  0  0
   -8.1871    1.2334    4.7014 O   0  0  0  0  0  0  0  0  0  0  0  0
   -5.4548    0.9995    4.8162 C   0  0  0  0  0  0  0  0  0  0  0  0
   -4.0949    0.8690    4.8214 C   0  0  0  0  0  0  0  0  0  0  0  0
   -3.4223    0.4782    3.6552 C   0  0  0  0  0  0  0  0  0  0  0  0
   -1.9992    0.3425    3.4693 C   0  0  0  0  0  0  0  0  0  0  0  0
   -0.9249    0.5477    4.3497 C   0  0  0  0  0  0  0  0  0  0  0  0
    0.3495    0.4009    3.9238 C   0  0  0  0  0  0  0  0  0  0  0  0
    0.5916    0.0424    2.5965 C   0  0  0  0  0  0  0  0  0  0  0  0
    1.9813   -0.1027    2.1653 C   0  0  0  0  0  0  0  0  0  0  0  0
    2.3253   -0.3964    0.9433 C   0  0  0  0  0  0  0  0  0  0  0  0
    3.7270   -0.5440    0.5050 C   0  0  0  0  0  0  0  0  0  0  0  0
    3.9717   -0.8106   -0.8190 C   0  0  0  0  0  0  0  0  0  0  0  0
    5.2682   -0.9505   -1.2296 C   0  0  0  0  0  0  0  0  0  0  0  0
    6.3704   -0.8332   -0.3506 C   0  0  0  0  0  0  0  0  0  0  0  0
    7.6558   -0.9818   -0.9716 N   0  0  0  0  0  0  0  0  0  0  0  0
    8.6946   -1.7842   -0.4616 C   0  0  0  0  0  0  0  0  0  0  0  0
    9.3241   -2.7611   -1.2274 C   0  0  0  0  0  0  0  0  0  0  0  0
   10.4169   -3.4699   -0.8040 C   0  0  0  0  0  0  0  0  0  0  0  0
   10.9390   -3.2237    0.4447 C   0  0  0  0  0  0  0  0  0  0  0  0
   10.3578   -2.2738    1.2411 C   0  0  0  0  0  0  0  0  0  0  0  0
    9.2567   -1.5703    0.7892 C   0  0  0  0  0  0  0  0  0  0  0  0
    7.8293   -0.0953   -2.0690 C   0  0  0  0  0  0  0  0  0  0  0  0
    7.4539    1.2292   -1.8536 C   0  0  0  0  0  0  0  0  0  0  0  0
    7.5716    2.1768   -2.8305 C   0  0  0  0  0  0  0  0  0  0  0  0
    8.0780    1.7909   -4.0569 C   0  0  0  0  0  0  0  0  0  0  0  0
    8.4533    0.5072   -4.3018 C   0  0  0  0  0  0  0  0  0  0  0  0
    8.3156   -0.4362   -3.2700 C   0  0  0  0  0  0  0  0  0  0  0  0
    6.1009   -0.5723    0.9390 C   0  0  0  0  0  0  0  0  0  0  0  0
    4.7686   -0.4257    1.3752 C   0  0  0  0  0  0  0  0  0  0  0  0
   -0.4613   -0.1594    1.7380 C   0  0  0  0  0  0  0  0  0  0  0  0
   -1.7721   -0.0103    2.1720 C   0  0  0  0  0  0  0  0  0  0  0  0
   -6.1024    8.6583   -0.5443 H   0  0  0  0  0  0  0  0  0  0  0  0
   -4.7776    8.4219   -1.7009 H   0  0  0  0  0  0  0  0  0  0  0  0
   -4.3448    8.6216    0.0580 H   0  0  0  0  0  0  0  0  0  0  0  0
   -6.1030    6.3284   -0.8887 H   0  0  0  0  0  0  0  0  0  0  0  0
   -5.2197    6.4998    0.6526 H   0  0  0  0  0  0  0  0  0  0  0  0
   -3.0456    6.3844   -0.4882 H   0  0  0  0  0  0  0  0  0  0  0  0
   -3.8793    6.2150   -2.1119 H   0  0  0  0  0  0  0  0  0  0  0  0
   -4.0690    4.4171    0.3011 H   0  0  0  0  0  0  0  0  0  0  0  0
   -5.0257    4.2385   -1.2441 H   0  0  0  0  0  0  0  0  0  0  0  0
   -2.9127    4.2024   -2.4914 H   0  0  0  0  0  0  0  0  0  0  0  0
   -1.9383    4.3758   -1.0265 H   0  0  0  0  0  0  0  0  0  0  0  0
   -2.1010    1.9918   -1.7592 H   0  0  0  0  0  0  0  0  0  0  0  0
   -3.8738    2.0124   -1.6765 H   0  0  0  0  0  0  0  0  0  0  0  0
   -3.7725    2.4786    0.8195 H   0  0  0  0  0  0  0  0  0  0  0  0
   -2.0101    2.3425    0.6818 H   0  0  0  0  0  0  0  0  0  0  0  0
   -3.9716    0.2048   -0.3896 H   0  0  0  0  0  0  0  0  0  0  0  0
   -2.1972    0.1430   -0.3971 H   0  0  0  0  0  0  0  0  0  0  0  0
   -2.2346   -1.9482    0.5587 H   0  0  0  0  0  0  0  0  0  0  0  0
   -3.0286   -2.2996    2.1121 H   0  0  0  0  0  0  0  0  0  0  0  0
   -5.2966   -1.9434    0.9406 H   0  0  0  0  0  0  0  0  0  0  0  0
   -4.4473   -1.7017   -0.5802 H   0  0  0  0  0  0  0  0  0  0  0  0
   -5.2512   -4.0018   -0.2102 H   0  0  0  0  0  0  0  0  0  0  0  0
   -4.1896   -4.1431    1.2072 H   0  0  0  0  0  0  0  0  0  0  0  0
   -2.1808   -3.8363   -0.0372 H   0  0  0  0  0  0  0  0  0  0  0  0
   -3.1461   -5.1942   -0.6999 H   0  0  0  0  0  0  0  0  0  0  0  0
   -2.9785   -2.3208   -1.8470 H   0  0  0  0  0  0  0  0  0  0  0  0
   -2.1771   -3.7810   -2.5175 H   0  0  0  0  0  0  0  0  0  0  0  0
   -4.2100   -3.1954   -3.7230 H   0  0  0  0  0  0  0  0  0  0  0  0
   -5.1979   -3.3382   -2.2530 H   0  0  0  0  0  0  0  0  0  0  0  0
   -4.5929   -5.8038   -2.1327 H   0  0  0  0  0  0  0  0  0  0  0  0
   -5.3777   -5.2934   -3.6669 H   0  0  0  0  0  0  0  0  0  0  0  0
   -2.7616   -5.0199   -4.4397 H   0  0  0  0  0  0  0  0  0  0  0  0
   -2.6196   -6.2774   -3.1233 H   0  0  0  0  0  0  0  0  0  0  0  0
   -3.7089   -6.5680   -4.5014 H   0  0  0  0  0  0  0  0  0  0  0  0
   -5.9987    0.1696    1.6055 H   0  0  0  0  0  0  0  0  0  0  0  0
   -8.1282    0.6855    2.7652 H   0  0  0  0  0  0  0  0  0  0  0  0
   -5.9613    1.2997    5.7186 H   0  0  0  0  0  0  0  0  0  0  0  0
   -3.5562    1.0775    5.7568 H   0  0  0  0  0  0  0  0  0  0  0  0
   -1.1133    0.8291    5.3843 H   0  0  0  0  0  0  0  0  0  0  0  0
    1.1972    0.5580    4.6008 H   0  0  0  0  0  0  0  0  0  0  0  0
    2.7572    0.0443    2.9086 H   0  0  0  0  0  0  0  0  0  0  0  0
    1.5333   -0.5418    0.2013 H   0  0  0  0  0  0  0  0  0  0  0  0
    3.1392   -0.9025   -1.4990 H   0  0  0  0  0  0  0  0  0  0  0  0
    5.4764   -1.1597   -2.2697 H   0  0  0  0  0  0  0  0  0  0  0  0
    8.8739   -2.9967   -2.2030 H   0  0  0  0  0  0  0  0  0  0  0  0
   10.8435   -4.2012   -1.4517 H   0  0  0  0  0  0  0  0  0  0  0  0
   11.8129   -3.8196    0.7362 H   0  0  0  0  0  0  0  0  0  0  0  0
   10.7579   -2.0777    2.2132 H   0  0  0  0  0  0  0  0  0  0  0  0
    8.8756   -0.8124    1.4508 H   0  0  0  0  0  0  0  0  0  0  0  0
    7.0608    1.5295   -0.9043 H   0  0  0  0  0  0  0  0  0  0  0  0
    7.2895    3.2226   -2.6973 H   0  0  0  0  0  0  0  0  0  0  0  0
    8.1724    2.5373   -4.8345 H   0  0  0  0  0  0  0  0  0  0  0  0
    8.8496    0.1969   -5.2563 H   0  0  0  0  0  0  0  0  0  0  0  0
    8.6224   -1.4487   -3.5349 H   0  0  0  0  0  0  0  0  0  0  0  0
    6.8897   -0.4634    1.6487 H   0  0  0  0  0  0  0  0  0  0  0  0
    4.6377   -0.2181    2.4261 H   0  0  0  0  0  0  0  0  0  0  0  0
   -0.3156   -0.4393    0.7043 H   0  0  0  0  0  0  0  0  0  0  0  0
  1  2  1  0
  2  3  1  0
  3  4  1  0
  4  5  1  0
  5  6  1  0
  6  7  1  0
  7  8  1  0
  8  9  1  0
  9 10  1  0
 10 11  1  0
 11 12  1  0
 12 13  1  0
 13 14  1  0
 14 15  1  0
 15 16  1  0
 16 17  1  0
  9 18  1  0
 18 19  2  0
 19 20  1  0
 20 21  1  0
 21 22  2  0
 20 23  2  0
 23 24  1  0
 24 25  2  0
 25 26  1  0
 26 27  2  0
 27 28  1  0
 28 29  2  0
 29 30  1  0
 30 31  2  0
 31 32  1  0
 32 33  2  0
 33 34  1  0
 34 35  2  0
 35 36  1  0
 36 37  1  0
 37 38  2  0
 38 39  1  0
 39 40  2  0
 40 41  1  0
 41 42  2  0
 36 43  1  0
 43 44  2  0
 44 45  1  0
 45 46  2  0
 46 47  1  0
 47 48  2  0
 35 49  1  0
 49 50  2  0
 29 51  1  0
 51 52  2  0
 52  9  1  0
 25 18  1  0
 52 26  1  0
 50 32  1  0
 42 37  1  0
 48 43  1  0
  1 53  1  0
  1 54  1  0
  1 55  1  0
  2 56  1  0
  2 57  1  0
  3 58  1  0
  3 59  1  0
  4 60  1  0
  4 61  1  0
  5 62  1  0
  5 63  1  0
  6 64  1  0
  6 65  1  0
  7 66  1  0
  7 67  1  0
  8 68  1  0
  8 69  1  0
 10 70  1  0
 10 71  1  0
 11 72  1  0
 11 73  1  0
 12 74  1  0
 12 75  1  0
 13 76  1  0
 13 77  1  0
 14 78  1  0
 14 79  1  0
 15 80  1  0
 15 81  1  0
 16 82  1  0
 16 83  1  0
 17 84  1  0
 17 85  1  0
 17 86  1  0
 19 87  1  0
 21 88  1  0
 23 89  1  0
 24 90  1  0
 27 91  1  0
 28 92  1  0
 30 93  1  0
 31 94  1  0
 33 95  1  0
 34 96  1  0
 38 97  1  0
 39 98  1  0
 40 99  1  0
 41100  1  0
 42101  1  0
 44102  1  0
 45103  1  0
 46104  1  0
 47105  1  0
 48106  1  0
 49107  1  0
 50108  1  0
 51109  1  0
M  END
