
     RDKit          3D

 60 66  0  0  0  0  0  0  0  0999 V2000
   -5.3240    4.0157   -0.9801 C   0  0  0  0  0  0  0  0  0  0  0  0
   -4.9495    2.9297   -1.9484 C   0  0  0  0  0  0  0  0  0  0  0  0
   -4.7521    1.5985   -1.2248 C   0  0  0  0  0  0  0  0  0  0  0  0
   -4.3717    0.5590   -2.2762 C   0  0  0  0  0  0  0  0  0  0  0  0
   -4.1723   -0.7177   -1.6276 N   0  0  0  0  0  0  0  0  0  0  0  0
   -5.1103   -1.6562   -1.4217 C   0  0  0  0  0  0  0  0  0  0  0  0
   -6.4504   -1.6963   -1.7403 C   0  0  0  0  0  0  0  0  0  0  0  0
   -7.2172   -2.7940   -1.4170 C   0  0  0  0  0  0  0  0  0  0  0  0
   -6.6277   -3.8561   -0.7691 C   0  0  0  0  0  0  0  0  0  0  0  0
   -5.2863   -3.8399   -0.4390 C   0  0  0  0  0  0  0  0  0  0  0  0
   -4.5268   -2.7368   -0.7666 C   0  0  0  0  0  0  0  0  0  0  0  0
   -3.1876   -2.4252   -0.5766 C   0  0  0  0  0  0  0  0  0  0  0  0
   -2.1320   -3.0951    0.0056 C   0  0  0  0  0  0  0  0  0  0  0  0
   -0.8835   -2.5191    0.0502 C   0  0  0  0  0  0  0  0  0  0  0  0
   -0.6750   -1.2760   -0.4820 C   0  0  0  0  0  0  0  0  0  0  0  0
    0.6274   -0.6343   -0.4533 C   0  0  0  0  0  0  0  0  0  0  0  0
    1.7111   -0.1085   -0.4309 C   0  0  0  0  0  0  0  0  0  0  0  0
    3.0091    0.4995   -0.3889 C   0  0  0  0  0  0  0  0  0  0  0  0
    3.4321    1.4141   -1.3522 C   0  0  0  0  0  0  0  0  0  0  0  0
    4.6703    1.9996   -1.3109 C   0  0  0  0  0  0  0  0  0  0  0  0
    5.5608    1.6907   -0.2832 C   0  0  0  0  0  0  0  0  0  0  0  0
    6.8127    2.2755   -0.2293 C   0  0  0  0  0  0  0  0  0  0  0  0
    7.6869    1.9706    0.7835 C   0  0  0  0  0  0  0  0  0  0  0  0
    7.2965    1.0568    1.7675 C   0  0  0  0  0  0  0  0  0  0  0  0
    8.1966    0.7634    2.7821 C   0  0  0  0  0  0  0  0  0  0  0  0
    7.7745   -0.1467    3.7386 C   0  0  0  0  0  0  0  0  0  0  0  0
    6.5204   -0.7181    3.6650 C   0  0  0  0  0  0  0  0  0  0  0  0
    5.6281   -0.4310    2.6641 C   0  0  0  0  0  0  0  0  0  0  0  0
    4.3843   -1.0158    2.6177 C   0  0  0  0  0  0  0  0  0  0  0  0
    3.5178   -0.6975    1.5933 C   0  0  0  0  0  0  0  0  0  0  0  0
    3.9124    0.2157    0.6128 C   0  0  0  0  0  0  0  0  0  0  0  0
    5.1616    0.7922    0.6738 C   0  0  0  0  0  0  0  0  0  0  0  0
    6.0414    0.4869    1.6911 C   0  0  0  0  0  0  0  0  0  0  0  0
   -1.7349   -0.6186   -1.0594 C   0  0  0  0  0  0  0  0  0  0  0  0
   -3.0021   -1.1631   -1.1235 C   0  0  0  0  0  0  0  0  0  0  0  0
   -5.1680    4.9913   -1.5053 H   0  0  0  0  0  0  0  0  0  0  0  0
   -4.7316    3.9663   -0.0389 H   0  0  0  0  0  0  0  0  0  0  0  0
   -6.3826    3.9173   -0.7038 H   0  0  0  0  0  0  0  0  0  0  0  0
   -4.0357    3.1474   -2.5190 H   0  0  0  0  0  0  0  0  0  0  0  0
   -5.7847    2.8527   -2.6828 H   0  0  0  0  0  0  0  0  0  0  0  0
   -3.9361    1.7232   -0.4836 H   0  0  0  0  0  0  0  0  0  0  0  0
   -5.7013    1.3201   -0.7246 H   0  0  0  0  0  0  0  0  0  0  0  0
   -3.4672    0.8917   -2.8223 H   0  0  0  0  0  0  0  0  0  0  0  0
   -5.2198    0.5459   -3.0024 H   0  0  0  0  0  0  0  0  0  0  0  0
   -6.9250   -0.8491   -2.2585 H   0  0  0  0  0  0  0  0  0  0  0  0
   -8.2900   -2.8139   -1.6780 H   0  0  0  0  0  0  0  0  0  0  0  0
   -7.2473   -4.7108   -0.5232 H   0  0  0  0  0  0  0  0  0  0  0  0
   -4.8489   -4.6869    0.0700 H   0  0  0  0  0  0  0  0  0  0  0  0
   -2.2544   -4.0754    0.4351 H   0  0  0  0  0  0  0  0  0  0  0  0
   -0.0244   -3.0170    0.5014 H   0  0  0  0  0  0  0  0  0  0  0  0
    2.7247    1.6423   -2.1440 H   0  0  0  0  0  0  0  0  0  0  0  0
    5.0180    2.7105   -2.0460 H   0  0  0  0  0  0  0  0  0  0  0  0
    7.1066    2.9862   -1.0025 H   0  0  0  0  0  0  0  0  0  0  0  0
    8.6754    2.4071    0.8621 H   0  0  0  0  0  0  0  0  0  0  0  0
    9.1855    1.2317    2.8152 H   0  0  0  0  0  0  0  0  0  0  0  0
    8.4593   -0.3958    4.5468 H   0  0  0  0  0  0  0  0  0  0  0  0
    6.2114   -1.4354    4.4347 H   0  0  0  0  0  0  0  0  0  0  0  0
    4.1289   -1.7059    3.3881 H   0  0  0  0  0  0  0  0  0  0  0  0
    2.5352   -1.1320    1.5198 H   0  0  0  0  0  0  0  0  0  0  0  0
   -1.5686    0.3666   -1.4814 H   0  0  0  0  0  0  0  0  0  0  0  0
  1  2  1  0
  2  3  1  0
  3  4  1  0
  4  5  1  0
  5  6  1  0
  6  7  2  0
  7  8  1  0
  8  9  2  0
  9 10  1  0
 10 11  2  0
 11 12  1  0
 12 13  2  0
 13 14  1  0
 14 15  2  0
 15 16  1  0
 16 17  3  0
 17 18  1  0
 18 19  2  0
 19 20  1  0
 20 21  2  0
 21 22  1  0
 22 23  2  0
 23 24  1  0
 24 25  2  0
 25 26  1  0
 26 27  2  0
 27 28  1  0
 28 29  2  0
 29 30  1  0
 30 31  2  0
 31 32  1  0
 32 33  2  0
 15 34  1  0
 34 35  2  0
 35  5  1  0
 11  6  1  0
 35 12  1  0
 31 18  1  0
 32 21  1  0
 33 24  1  0
 33 28  1  0
  1 36  1  0
  1 37  1  0
  1 38  1  0
  2 39  1  0
  2 40  1  0
  3 41  1  0
  3 42  1  0
  4 43  1  0
  4 44  1  0
  7 45  1  0
  8 46  1  0
  9 47  1  0
 10 48  1  0
 13 49  1  0
 14 50  1  0
 19 51  1  0
 20 52  1  0
 22 53  1  0
 23 54  1  0
 25 55  1  0
 26 56  1  0
 27 57  1  0
 29 58  1  0
 30 59  1  0
 34 60  1  0
M  END
