
     RDKit          3D

 23 25  0  0  0  0  0  0  0  0999 V2000
   -5.2939    2.5311    0.6050 N   0  0  0  0  0  0  0  0  0  0  0  0
   -4.3702    1.8446    0.3879 C   0  0  0  0  0  0  0  0  0  0  0  0
   -3.2257    1.0064    0.1365 C   0  0  0  0  0  0  0  0  0  0  0  0
   -3.3775   -0.3042   -0.2850 C   0  0  0  0  0  0  0  0  0  0  0  0
   -2.2896   -1.1104   -0.5271 C   0  0  0  0  0  0  0  0  0  0  0  0
   -1.0171   -0.6154   -0.3502 C   0  0  0  0  0  0  0  0  0  0  0  0
    0.0825   -1.3874   -0.5812 N   0  0  0  0  0  0  0  0  0  0  0  0
    1.3332   -0.9204   -0.4136 C   0  0  0  0  0  0  0  0  0  0  0  0
    2.4591   -1.6890   -0.6432 C   0  0  0  0  0  0  0  0  0  0  0  0
    2.2979   -2.8908   -1.0300 O   0  0  0  0  0  0  0  0  0  0  0  0
    3.7112   -1.2242   -0.4763 N   0  0  0  0  0  0  0  0  0  0  0  0
    3.8339    0.0609   -0.0634 C   0  0  0  0  0  0  0  0  0  0  0  0
    5.0144    0.5186    0.1002 O   0  0  0  0  0  0  0  0  0  0  0  0
    2.7612    0.8154    0.1625 N   0  0  0  0  0  0  0  0  0  0  0  0
    1.4964    0.3832    0.0058 C   0  0  0  0  0  0  0  0  0  0  0  0
    0.4341    1.1740    0.2434 N   0  0  0  0  0  0  0  0  0  0  0  0
   -0.8194    0.6752    0.0656 C   0  0  0  0  0  0  0  0  0  0  0  0
   -1.9360    1.4659    0.3023 C   0  0  0  0  0  0  0  0  0  0  0  0
   -4.4001   -0.6535   -0.4117 H   0  0  0  0  0  0  0  0  0  0  0  0
   -2.4134   -2.1310   -0.8555 H   0  0  0  0  0  0  0  0  0  0  0  0
    4.5549   -1.8308   -0.6581 H   0  0  0  0  0  0  0  0  0  0  0  0
    2.9161    1.7969    0.4788 H   0  0  0  0  0  0  0  0  0  0  0  0
   -1.7520    2.4850    0.6310 H   0  0  0  0  0  0  0  0  0  0  0  0
  1  2  3  0
  2  3  1  0
  3  4  2  0
  4  5  1  0
  5  6  2  0
  6  7  1  0
  7  8  2  0
  8  9  1  0
  9 10  2  0
  9 11  1  0
 11 12  1  0
 12 13  2  0
 12 14  1  0
 14 15  1  0
 15 16  2  0
 16 17  1  0
 17 18  2  0
 18  3  1  0
 17  6  1  0
 15  8  1  0
  4 19  1  0
  5 20  1  0
 11 21  1  0
 14 22  1  0
 18 23  1  0
M  END
