
 OpenBabel03212210103D

 34 38  0  0  0  0  0  0  0  0999 V2000
    3.9785   -1.3757    0.3608 C   0  0  0  0  0  0  0  0  0  0  0  0
    2.8782   -2.1313    0.7286 C   0  0  0  0  0  0  0  0  0  0  0  0
    1.5941   -1.5873    0.6193 C   0  0  0  0  0  0  0  0  0  0  0  0
    1.3457   -0.2906    0.1022 C   0  0  0  0  0  0  0  0  0  0  0  0
    2.5034    0.4906   -0.1480 C   0  0  0  0  0  0  0  0  0  0  0  0
    3.7923   -0.0629   -0.0573 C   0  0  0  0  0  0  0  0  0  0  0  0
    2.3665    1.8418   -0.4378 C   0  0  0  0  0  0  0  0  0  0  0  0
    1.1115    2.4331   -0.3926 C   0  0  0  0  0  0  0  0  0  0  0  0
   -0.0375    1.6954   -0.1825 C   0  0  0  0  0  0  0  0  0  0  0  0
   -1.1585    2.4087   -0.0709 N   0  0  0  0  0  0  0  0  0  0  0  0
   -2.3012    1.7467    0.1678 C   0  0  0  0  0  0  0  0  0  0  0  0
   -2.4254    0.3682    0.1434 C   0  0  0  0  0  0  0  0  0  0  0  0
   -3.6860   -0.2061    0.3561 C   0  0  0  0  0  0  0  0  0  0  0  0
   -3.8685   -1.5737    0.2258 C   0  0  0  0  0  0  0  0  0  0  0  0
   -2.8198   -2.3681   -0.2317 C   0  0  0  0  0  0  0  0  0  0  0  0
   -3.0298   -3.7230   -0.5075 C   0  0  0  0  0  0  0  0  0  0  0  0
   -2.1168   -4.5454   -1.0625 N   0  0  0  0  0  0  0  0  0  0  0  0
   -0.9472   -3.9797   -1.3986 C   0  0  0  0  0  0  0  0  0  0  0  0
   -0.6362   -2.6494   -1.1488 C   0  0  0  0  0  0  0  0  0  0  0  0
   -1.5436   -1.8013   -0.4760 C   0  0  0  0  0  0  0  0  0  0  0  0
   -1.2775   -0.4106   -0.1294 C   0  0  0  0  0  0  0  0  0  0  0  0
    0.0186    0.2843   -0.0830 C   0  0  0  0  0  0  0  0  0  0  0  0
    4.9803   -1.7884    0.4399 H   0  0  0  0  0  0  0  0  0  0  0  0
    3.0097   -3.1391    1.1137 H   0  0  0  0  0  0  0  0  0  0  0  0
    0.7700   -2.1954    0.9876 H   0  0  0  0  0  0  0  0  0  0  0  0
    4.6692    0.5404   -0.2836 H   0  0  0  0  0  0  0  0  0  0  0  0
    3.2359    2.4702   -0.6170 H   0  0  0  0  0  0  0  0  0  0  0  0
    1.0294    3.5108   -0.5185 H   0  0  0  0  0  0  0  0  0  0  0  0
   -3.1582    2.3924    0.3393 H   0  0  0  0  0  0  0  0  0  0  0  0
   -4.5425    0.4132    0.6143 H   0  0  0  0  0  0  0  0  0  0  0  0
   -4.8555   -1.9958    0.4013 H   0  0  0  0  0  0  0  0  0  0  0  0
   -3.9879   -4.1961   -0.3070 H   0  0  0  0  0  0  0  0  0  0  0  0
   -0.2389   -4.6329   -1.8996 H   0  0  0  0  0  0  0  0  0  0  0  0
    0.3141   -2.2777   -1.5187 H   0  0  0  0  0  0  0  0  0  0  0  0
  1  2  2  0  0  0  0
  1 23  1  0  0  0  0
  2  3  1  0  0  0  0
  2 24  1  0  0  0  0
  3  4  2  0  0  0  0
  3 25  1  0  0  0  0
  4  5  1  0  0  0  0
  5  6  2  0  0  0  0
  5  7  1  0  0  0  0
  6  1  1  0  0  0  0
  6 26  1  0  0  0  0
  7  8  2  0  0  0  0
  7 27  1  0  0  0  0
  8  9  1  0  0  0  0
  8 28  1  0  0  0  0
  9 10  2  0  0  0  0
 10 11  1  0  0  0  0
 11 12  2  0  0  0  0
 11 29  1  0  0  0  0
 12 13  1  0  0  0  0
 13 14  2  0  0  0  0
 13 30  1  0  0  0  0
 14 15  1  0  0  0  0
 14 31  1  0  0  0  0
 15 16  2  0  0  0  0
 16 17  1  0  0  0  0
 16 32  1  0  0  0  0
 17 18  2  0  0  0  0
 18 19  1  0  0  0  0
 18 33  1  0  0  0  0
 19 20  2  0  0  0  0
 19 34  1  0  0  0  0
 20 21  1  0  0  0  0
 20 15  1  0  0  0  0
 21 22  2  0  0  0  0
 21 12  1  0  0  0  0
 22  9  1  0  0  0  0
 22  4  1  0  0  0  0
M  END
