
     RDKit          3D

 51 55  0  0  0  0  0  0  0  0999 V2000
    2.6649   -0.4442   -0.7804 O   0  0  0  0  0  0  0  0  0  0  0  0
    3.6916   -0.3347   -0.0200 C   0  0  0  0  0  0  0  0  0  0  0  0
    3.5544   -0.0930    1.3885 C   0  0  0  0  0  0  0  0  0  0  0  0
    2.5070    0.1224    2.1347 C   0  0  0  0  0  0  0  0  0  0  0  0
    1.1756    0.1534    1.5512 C   0  0  0  0  0  0  0  0  0  0  0  0
    0.2032   -0.7070    2.0545 C   0  0  0  0  0  0  0  0  0  0  0  0
   -1.0948   -0.7208    1.5942 C   0  0  0  0  0  0  0  0  0  0  0  0
   -1.4967    0.1361    0.5925 C   0  0  0  0  0  0  0  0  0  0  0  0
   -2.8216    0.1605    0.0750 N   0  0  0  0  0  0  0  0  0  0  0  0
   -3.5215   -1.0184   -0.2503 C   0  0  0  0  0  0  0  0  0  0  0  0
   -2.8894   -2.0295   -0.9633 C   0  0  0  0  0  0  0  0  0  0  0  0
   -3.5575   -3.2111   -1.3015 C   0  0  0  0  0  0  0  0  0  0  0  0
   -4.8632   -3.3972   -0.9321 C   0  0  0  0  0  0  0  0  0  0  0  0
   -5.4792   -2.3938   -0.2284 C   0  0  0  0  0  0  0  0  0  0  0  0
   -4.8362   -1.2386    0.1057 C   0  0  0  0  0  0  0  0  0  0  0  0
   -3.5047    1.4015   -0.1363 C   0  0  0  0  0  0  0  0  0  0  0  0
   -4.2063    1.6410   -1.2994 C   0  0  0  0  0  0  0  0  0  0  0  0
   -4.8627    2.8226   -1.5094 C   0  0  0  0  0  0  0  0  0  0  0  0
   -4.8425    3.8238   -0.5505 C   0  0  0  0  0  0  0  0  0  0  0  0
   -4.1411    3.5818    0.6101 C   0  0  0  0  0  0  0  0  0  0  0  0
   -3.4772    2.3943    0.8290 C   0  0  0  0  0  0  0  0  0  0  0  0
   -0.5203    0.9986    0.0896 C   0  0  0  0  0  0  0  0  0  0  0  0
    0.7783    1.0119    0.5513 C   0  0  0  0  0  0  0  0  0  0  0  0
    5.1878   -0.0960    2.0126 S   0  0  0  0  0  6  0  0  0  0  0  0
    5.5607    1.2489    2.5745 O   0  0  0  0  0  0  0  0  0  0  0  0
    5.4563   -1.2070    2.9519 O   0  0  0  0  0  0  0  0  0  0  0  0
    6.0173   -0.3070    0.4684 C   0  0  0  0  0  0  0  0  0  0  0  0
    7.3899   -0.3630    0.1880 C   0  0  0  0  0  0  0  0  0  0  0  0
    7.8033   -0.5642   -1.1012 C   0  0  0  0  0  0  0  0  0  0  0  0
    6.8440   -0.7037   -2.0721 C   0  0  0  0  0  0  0  0  0  0  0  0
    5.4986   -0.6466   -1.7857 C   0  0  0  0  0  0  0  0  0  0  0  0
    5.0418   -0.4409   -0.4730 C   0  0  0  0  0  0  0  0  0  0  0  0
    2.6216    0.2864    3.2378 H   0  0  0  0  0  0  0  0  0  0  0  0
    0.5138   -1.3932    2.8527 H   0  0  0  0  0  0  0  0  0  0  0  0
   -1.8549   -1.3950    1.9895 H   0  0  0  0  0  0  0  0  0  0  0  0
   -1.8785   -1.9376   -1.2744 H   0  0  0  0  0  0  0  0  0  0  0  0
   -3.0364   -3.9809   -1.8588 H   0  0  0  0  0  0  0  0  0  0  0  0
   -5.3518   -4.3250   -1.2109 H   0  0  0  0  0  0  0  0  0  0  0  0
   -6.5109   -2.5513    0.0581 H   0  0  0  0  0  0  0  0  0  0  0  0
   -5.3103   -0.4266    0.6673 H   0  0  0  0  0  0  0  0  0  0  0  0
   -4.2108    0.8497   -2.0359 H   0  0  0  0  0  0  0  0  0  0  0  0
   -5.4216    3.0299   -2.4220 H   0  0  0  0  0  0  0  0  0  0  0  0
   -5.3685    4.7590   -0.7290 H   0  0  0  0  0  0  0  0  0  0  0  0
   -4.1189    4.3584    1.3682 H   0  0  0  0  0  0  0  0  0  0  0  0
   -2.9339    2.2307    1.7506 H   0  0  0  0  0  0  0  0  0  0  0  0
   -0.8623    1.6681   -0.7030 H   0  0  0  0  0  0  0  0  0  0  0  0
    1.4950    1.7319    0.1282 H   0  0  0  0  0  0  0  0  0  0  0  0
    8.0882   -0.2431    1.0132 H   0  0  0  0  0  0  0  0  0  0  0  0
    8.8672   -0.6111   -1.3432 H   0  0  0  0  0  0  0  0  0  0  0  0
    7.1991   -0.8643   -3.0981 H   0  0  0  0  0  0  0  0  0  0  0  0
    4.8141   -0.7659   -2.6071 H   0  0  0  0  0  0  0  0  0  0  0  0
  1  2  2  0
  2  3  1  0
  3  4  2  0
  4  5  1  0
  5  6  2  0
  6  7  1  0
  7  8  2  0
  8  9  1  0
  9 10  1  0
 10 11  2  0
 11 12  1  0
 12 13  2  0
 13 14  1  0
 14 15  2  0
  9 16  1  0
 16 17  2  0
 17 18  1  0
 18 19  2  0
 19 20  1  0
 20 21  2  0
  8 22  1  0
 22 23  2  0
  3 24  1  0
 24 25  2  0
 24 26  2  0
 24 27  1  0
 27 28  2  0
 28 29  1  0
 29 30  2  0
 30 31  1  0
 31 32  2  0
 32  2  1  0
 23  5  1  0
 32 27  1  0
 15 10  1  0
 21 16  1  0
  4 33  1  0
  6 34  1  0
  7 35  1  0
 11 36  1  0
 12 37  1  0
 13 38  1  0
 14 39  1  0
 15 40  1  0
 17 41  1  0
 18 42  1  0
 19 43  1  0
 20 44  1  0
 21 45  1  0
 22 46  1  0
 23 47  1  0
 28 48  1  0
 29 49  1  0
 30 50  1  0
 31 51  1  0
M  END
