
     RDKit          3D

 39 43  0  0  0  0  0  0  0  0999 V2000
   -2.9824   -1.0635    1.6619 C   0  0  0  0  0  0  0  0  0  0  0  0
   -2.7760   -0.7518    0.2244 C   0  0  2  0  0  0  0  0  0  0  0  0
   -4.0643   -1.5984   -0.7324 S   0  0  0  0  0  0  0  0  0  0  0  0
   -3.0892   -3.0893   -0.9420 C   0  0  0  0  0  0  0  0  0  0  0  0
   -3.4398   -4.2681   -1.1010 O   0  0  0  0  0  0  0  0  0  0  0  0
   -1.7275   -2.5802   -0.8804 C   0  0  0  0  0  0  0  0  0  0  0  0
   -1.5530   -1.4282   -0.3100 C   0  0  0  0  0  0  0  0  0  0  0  0
   -0.2704   -0.6825   -0.1365 C   0  0  0  0  0  0  0  0  0  0  0  0
    1.0243   -1.0499   -0.2666 N   0  0  0  0  0  0  0  0  0  0  0  0
    1.8278   -0.0055   -0.0082 C   0  0  0  0  0  0  0  0  0  0  0  0
    3.2957   -0.0219   -0.0492 C   0  0  0  0  0  0  0  0  0  0  0  0
    4.0411    1.0990    0.2310 C   0  0  0  0  0  0  0  0  0  0  0  0
    5.4246    1.0506    0.1835 C   0  0  0  0  0  0  0  0  0  0  0  0
    6.0641   -0.1320   -0.1476 C   0  0  0  0  0  0  0  0  0  0  0  0
    7.8141   -0.2620   -0.2260 Cl  0  0  0  0  0  0  0  0  0  0  0  0
    5.3233   -1.2573   -0.4291 C   0  0  0  0  0  0  0  0  0  0  0  0
    3.9568   -1.1797   -0.3743 C   0  0  0  0  0  0  0  0  0  0  0  0
    1.0195    1.0223    0.2861 N   0  0  0  0  0  0  0  0  0  0  0  0
   -0.2828    0.6269    0.2133 C   0  0  0  0  0  0  0  0  0  0  0  0
   -1.5498    1.3730    0.4508 C   0  0  0  0  0  0  0  0  0  0  0  0
   -1.7376    2.5044    1.0635 C   0  0  0  0  0  0  0  0  0  0  0  0
   -3.0942    3.0023    1.1495 C   0  0  0  0  0  0  0  0  0  0  0  0
   -3.4525    4.1761    1.3655 O   0  0  0  0  0  0  0  0  0  0  0  0
   -4.0673    1.5199    0.8701 S   0  0  0  0  0  0  0  0  0  0  0  0
   -2.7670    0.7050   -0.1046 C   0  0  2  0  0  0  0  0  0  0  0  0
   -2.9968    1.0038   -1.5469 C   0  0  0  0  0  0  0  0  0  0  0  0
   -3.4777   -2.0636    1.7926 H   0  0  0  0  0  0  0  0  0  0  0  0
   -1.9704   -1.1953    2.1393 H   0  0  0  0  0  0  0  0  0  0  0  0
   -3.5981   -0.3314    2.1912 H   0  0  0  0  0  0  0  0  0  0  0  0
   -0.8712   -3.1758   -1.3149 H   0  0  0  0  0  0  0  0  0  0  0  0
    3.5282    2.0374    0.4940 H   0  0  0  0  0  0  0  0  0  0  0  0
    6.0267    1.9277    0.4023 H   0  0  0  0  0  0  0  0  0  0  0  0
    5.8127   -2.2078   -0.6947 H   0  0  0  0  0  0  0  0  0  0  0  0
    3.3700   -2.0518   -0.5922 H   0  0  0  0  0  0  0  0  0  0  0  0
    1.3172    1.9868    0.5357 H   0  0  0  0  0  0  0  0  0  0  0  0
   -0.8739    3.0742    1.5096 H   0  0  0  0  0  0  0  0  0  0  0  0
   -4.0240    0.7112   -1.8057 H   0  0  0  0  0  0  0  0  0  0  0  0
   -2.9175    2.0916   -1.7053 H   0  0  0  0  0  0  0  0  0  0  0  0
   -2.2628    0.4837   -2.1974 H   0  0  0  0  0  0  0  0  0  0  0  0
  2  1  1  1
  2  3  1  0
  3  4  1  0
  4  5  2  0
  4  6  1  0
  6  7  2  0
  7  8  1  0
  8  9  1  0
  9 10  2  0
 10 11  1  0
 11 12  2  0
 12 13  1  0
 13 14  2  0
 14 15  1  0
 14 16  1  0
 16 17  2  0
 10 18  1  0
 18 19  1  0
 19 20  1  0
 20 21  2  0
 21 22  1  0
 22 23  2  0
 22 24  1  0
 24 25  1  0
 25 26  1  6
  7  2  1  0
 19  8  2  0
 25 20  1  0
 25  2  1  0
 17 11  1  0
  1 27  1  0
  1 28  1  0
  1 29  1  0
  6 30  1  0
 12 31  1  0
 13 32  1  0
 16 33  1  0
 17 34  1  0
 18 35  1  0
 21 36  1  0
 26 37  1  0
 26 38  1  0
 26 39  1  0
M  END
