
     RDKit          3D

 44 46  0  0  0  0  0  0  0  0999 V2000
    7.6875    2.2823   -0.0866 C   0  0  0  0  0  0  0  0  0  0  0  0
    7.6321    0.8757    0.1303 O   0  0  0  0  0  0  0  0  0  0  0  0
    6.3940    0.2528    0.1861 C   0  0  0  0  0  0  0  0  0  0  0  0
    5.2243    0.9692    0.0359 C   0  0  0  0  0  0  0  0  0  0  0  0
    4.0145    0.3101    0.0982 C   0  0  0  0  0  0  0  0  0  0  0  0
    3.9924   -1.0514    0.3092 C   0  0  0  0  0  0  0  0  0  0  0  0
    2.6835   -1.7036    0.3673 C   0  0  0  0  0  0  0  0  0  0  0  0
    2.4916   -3.0579    0.5715 C   0  0  0  0  0  0  0  0  0  0  0  0
    1.1643   -3.2481    0.5571 N   0  0  0  0  0  0  0  0  0  0  0  0
    0.5698   -2.0629    0.3530 C   0  0  0  0  0  0  0  0  0  0  0  0
   -0.8803   -1.8412    0.2705 C   0  0  0  0  0  0  0  0  0  0  0  0
   -1.4039   -0.6593    0.0693 C   0  0  0  0  0  0  0  0  0  0  0  0
   -2.8291   -0.3777   -0.0217 C   0  0  0  0  0  0  0  0  0  0  0  0
   -3.7890   -1.3494    0.0976 C   0  0  0  0  0  0  0  0  0  0  0  0
   -5.1616   -1.0704    0.0088 C   0  0  0  0  0  0  0  0  0  0  0  0
   -5.5722    0.2188   -0.2053 C   0  0  0  0  0  0  0  0  0  0  0  0
   -6.9020    0.5457   -0.3002 O   0  0  0  0  0  0  0  0  0  0  0  0
   -7.9696   -0.3470   -0.1967 C   0  0  0  0  0  0  0  0  0  0  0  0
   -4.6271    1.2101   -0.3282 C   0  0  0  0  0  0  0  0  0  0  0  0
   -5.0625    2.5072   -0.5444 O   0  0  0  0  0  0  0  0  0  0  0  0
   -4.1046    3.5294   -0.6716 C   0  0  0  0  0  0  0  0  0  0  0  0
   -3.2735    0.9315   -0.2401 C   0  0  0  0  0  0  0  0  0  0  0  0
    1.5111   -1.1367    0.2402 O   0  0  0  0  0  0  0  0  0  0  0  0
    5.1497   -1.7859    0.4619 C   0  0  0  0  0  0  0  0  0  0  0  0
    6.3511   -1.1095    0.3966 C   0  0  0  0  0  0  0  0  0  0  0  0
    7.0717    2.5973   -0.9281 H   0  0  0  0  0  0  0  0  0  0  0  0
    8.7673    2.5371   -0.1938 H   0  0  0  0  0  0  0  0  0  0  0  0
    7.3128    2.8006    0.8237 H   0  0  0  0  0  0  0  0  0  0  0  0
    5.2451    2.0500   -0.1315 H   0  0  0  0  0  0  0  0  0  0  0  0
    3.0746    0.8649   -0.0193 H   0  0  0  0  0  0  0  0  0  0  0  0
    3.2881   -3.8017    0.7136 H   0  0  0  0  0  0  0  0  0  0  0  0
   -1.5311   -2.6900    0.3810 H   0  0  0  0  0  0  0  0  0  0  0  0
   -0.7026    0.1801   -0.0380 H   0  0  0  0  0  0  0  0  0  0  0  0
   -3.5022   -2.3731    0.2663 H   0  0  0  0  0  0  0  0  0  0  0  0
   -5.9120   -1.8418    0.1039 H   0  0  0  0  0  0  0  0  0  0  0  0
   -7.9039   -0.8114    0.8301 H   0  0  0  0  0  0  0  0  0  0  0  0
   -7.9114   -1.1581   -0.9630 H   0  0  0  0  0  0  0  0  0  0  0  0
   -8.9130    0.2443   -0.2895 H   0  0  0  0  0  0  0  0  0  0  0  0
   -3.3668    3.4897    0.1413 H   0  0  0  0  0  0  0  0  0  0  0  0
   -3.5318    3.4503   -1.6383 H   0  0  0  0  0  0  0  0  0  0  0  0
   -4.6330    4.5053   -0.7241 H   0  0  0  0  0  0  0  0  0  0  0  0
   -2.5123    1.6967   -0.3339 H   0  0  0  0  0  0  0  0  0  0  0  0
    5.1190   -2.8626    0.6283 H   0  0  0  0  0  0  0  0  0  0  0  0
    7.2511   -1.7091    0.5197 H   0  0  0  0  0  0  0  0  0  0  0  0
  1  2  1  0
  2  3  1  0
  3  4  2  0
  4  5  1  0
  5  6  2  0
  6  7  1  0
  7  8  2  0
  8  9  1  0
  9 10  2  0
 10 11  1  0
 11 12  2  0
 12 13  1  0
 13 14  2  0
 14 15  1  0
 15 16  2  0
 16 17  1  0
 17 18  1  0
 16 19  1  0
 19 20  1  0
 20 21  1  0
 19 22  2  0
 10 23  1  0
  6 24  1  0
 24 25  2  0
 25  3  1  0
 23  7  1  0
 22 13  1  0
  1 26  1  0
  1 27  1  0
  1 28  1  0
  4 29  1  0
  5 30  1  0
  8 31  1  0
 11 32  1  0
 12 33  1  0
 14 34  1  0
 15 35  1  0
 18 36  1  0
 18 37  1  0
 18 38  1  0
 21 39  1  0
 21 40  1  0
 21 41  1  0
 22 42  1  0
 24 43  1  0
 25 44  1  0
M  END
