
     RDKit          3D

 30 32  0  0  0  0  0  0  0  0999 V2000
   -0.5713    1.3304    0.9751 O   0  0  0  0  0  0  0  0  0  0  0  0
    0.5538    0.9557    0.6451 C   0  0  0  0  0  0  0  0  0  0  0  0
    1.7409    1.7487    0.6033 N   0  0  0  0  0  0  0  0  0  0  0  0
    2.8302    0.9411    0.1911 C   0  0  0  0  0  0  0  0  0  0  0  0
    4.1769    1.2459    0.0015 C   0  0  0  0  0  0  0  0  0  0  0  0
    5.0307    0.2411   -0.4115 C   0  0  0  0  0  0  0  0  0  0  0  0
    4.5729   -1.0404   -0.6351 C   0  0  0  0  0  0  0  0  0  0  0  0
    3.2307   -1.2956   -0.4343 C   0  0  0  0  0  0  0  0  0  0  0  0
    2.3558   -0.3337   -0.0276 C   0  0  0  0  0  0  0  0  0  0  0  0
    0.8970   -0.3846    0.2450 C   0  0  0  0  0  0  0  0  0  0  0  0
    0.0925   -1.3821    0.0509 C   0  0  0  0  0  0  0  0  0  0  0  0
   -1.3043   -1.4583    0.1369 C   0  0  0  0  0  0  0  0  0  0  0  0
   -1.7201   -2.7390    0.1361 O   0  0  0  0  0  0  0  0  0  0  0  0
   -2.4376   -0.6022    0.2161 C   0  0  0  0  0  0  0  0  0  0  0  0
   -3.5675   -0.9343    0.9839 C   0  0  0  0  0  0  0  0  0  0  0  0
   -4.7317   -0.2152    0.9168 C   0  0  0  0  0  0  0  0  0  0  0  0
   -4.8433    0.8700    0.0883 C   0  0  0  0  0  0  0  0  0  0  0  0
   -6.3111    1.8143   -0.0261 Cl  0  0  0  0  0  0  0  0  0  0  0  0
   -3.7430    1.1980   -0.6643 C   0  0  0  0  0  0  0  0  0  0  0  0
   -2.5824    0.4856   -0.6018 C   0  0  0  0  0  0  0  0  0  0  0  0
    1.7502    2.7575    0.8468 H   0  0  0  0  0  0  0  0  0  0  0  0
    4.4984    2.2604    0.1865 H   0  0  0  0  0  0  0  0  0  0  0  0
    6.0852    0.4508   -0.5671 H   0  0  0  0  0  0  0  0  0  0  0  0
    5.2076   -1.8513   -0.9577 H   0  0  0  0  0  0  0  0  0  0  0  0
    2.8555   -2.3063   -0.6079 H   0  0  0  0  0  0  0  0  0  0  0  0
    0.6572   -2.3339   -0.2438 H   0  0  0  0  0  0  0  0  0  0  0  0
   -3.5223   -1.7845    1.6514 H   0  0  0  0  0  0  0  0  0  0  0  0
   -5.5890   -0.5170    1.5399 H   0  0  0  0  0  0  0  0  0  0  0  0
   -3.8420    2.0805   -1.3345 H   0  0  0  0  0  0  0  0  0  0  0  0
   -1.7701    0.7984   -1.2571 H   0  0  0  0  0  0  0  0  0  0  0  0
  1  2  2  0
  2  3  1  0
  3  4  1  0
  4  5  2  0
  5  6  1  0
  6  7  2  0
  7  8  1  0
  8  9  2  0
  9 10  1  0
 10 11  2  0
 11 12  1  0
 12 13  2  0
 12 14  1  0
 14 15  2  0
 15 16  1  0
 16 17  2  0
 17 18  1  0
 17 19  1  0
 19 20  2  0
 10  2  1  0
 20 14  1  0
  9  4  1  0
  3 21  1  0
  5 22  1  0
  6 23  1  0
  7 24  1  0
  8 25  1  0
 11 26  1  0
 15 27  1  0
 16 28  1  0
 19 29  1  0
 20 30  1  0
M  END
