
     RDKit          3D

 43 44  0  0  0  0  0  0  0  0999 V2000
    7.9106   -0.8529    0.1067 C   0  0  0  0  0  0  0  0  0  0  0  0
    6.8637    0.1342    0.0406 N   0  0  0  0  0  0  0  0  0  0  0  0
    7.2536    1.5764   -0.0162 C   0  0  0  0  0  0  0  0  0  0  0  0
    5.4636   -0.1269    0.1421 C   0  0  0  0  0  0  0  0  0  0  0  0
    4.9863   -1.2149    0.7768 C   0  0  0  0  0  0  0  0  0  0  0  0
    3.6236   -1.4575    0.8756 C   0  0  0  0  0  0  0  0  0  0  0  0
    2.7530   -0.5469    0.2939 C   0  0  0  0  0  0  0  0  0  0  0  0
    1.3315   -0.6401    0.5738 C   0  0  0  0  0  0  0  0  0  0  0  0
    0.4916   -0.1067   -0.3294 C   0  0  0  0  0  0  0  0  0  0  0  0
   -0.9015   -0.1617   -0.0585 C   0  0  0  0  0  0  0  0  0  0  0  0
   -2.0907   -0.1686    0.0920 C   0  0  0  0  0  0  0  0  0  0  0  0
   -3.4698   -0.1780    0.2697 C   0  0  0  0  0  0  0  0  0  0  0  0
   -4.3198    0.2473   -0.7127 C   0  0  0  0  0  0  0  0  0  0  0  0
   -5.7368    0.2303   -0.4255 C   0  0  0  0  0  0  0  0  0  0  0  0
   -6.1495    0.7322    0.8413 C   0  0  0  0  0  0  0  0  0  0  0  0
   -7.4690    0.7001    1.2430 C   0  0  0  0  0  0  0  0  0  0  0  0
   -8.4428    0.1535    0.3994 C   0  0  0  0  0  0  0  0  0  0  0  0
   -9.8216    0.1190    0.7772 C   0  0  0  0  0  0  0  0  0  0  0  0
  -10.9724    0.0970    1.0838 N   0  0  0  0  0  0  0  0  0  0  0  0
   -8.0149   -0.3304   -0.8238 C   0  0  0  0  0  0  0  0  0  0  0  0
   -6.6841   -0.2899   -1.2246 C   0  0  0  0  0  0  0  0  0  0  0  0
    3.2370    0.5738   -0.3701 C   0  0  0  0  0  0  0  0  0  0  0  0
    4.5742    0.7959   -0.4506 C   0  0  0  0  0  0  0  0  0  0  0  0
    7.9581   -1.4078    1.0393 H   0  0  0  0  0  0  0  0  0  0  0  0
    8.9121   -0.3790   -0.1208 H   0  0  0  0  0  0  0  0  0  0  0  0
    7.7157   -1.5389   -0.7543 H   0  0  0  0  0  0  0  0  0  0  0  0
    7.2641    1.8387   -1.0783 H   0  0  0  0  0  0  0  0  0  0  0  0
    8.2739    1.6523    0.4414 H   0  0  0  0  0  0  0  0  0  0  0  0
    6.4922    2.1608    0.5615 H   0  0  0  0  0  0  0  0  0  0  0  0
    5.6124   -1.9790    1.2460 H   0  0  0  0  0  0  0  0  0  0  0  0
    3.2716   -2.3256    1.3739 H   0  0  0  0  0  0  0  0  0  0  0  0
    0.9403   -1.0971    1.4451 H   0  0  0  0  0  0  0  0  0  0  0  0
    0.9044    0.3302   -1.2369 H   0  0  0  0  0  0  0  0  0  0  0  0
   -1.2129    0.5583   -1.2782 H   0  0  0  0  0  0  0  0  0  0  0  0
   -1.8495   -0.7663    1.3470 H   0  0  0  0  0  0  0  0  0  0  0  0
   -3.9986   -0.5011    1.1436 H   0  0  0  0  0  0  0  0  0  0  0  0
   -3.8301    0.5373   -1.6152 H   0  0  0  0  0  0  0  0  0  0  0  0
   -5.4133    1.1386    1.4415 H   0  0  0  0  0  0  0  0  0  0  0  0
   -7.7930    1.0934    2.1799 H   0  0  0  0  0  0  0  0  0  0  0  0
   -8.7574   -0.7819   -1.4888 H   0  0  0  0  0  0  0  0  0  0  0  0
   -6.4597   -0.7312   -2.2088 H   0  0  0  0  0  0  0  0  0  0  0  0
    2.5488    1.2778   -0.8151 H   0  0  0  0  0  0  0  0  0  0  0  0
    5.0050    1.6352   -0.9437 H   0  0  0  0  0  0  0  0  0  0  0  0
  1  2  1  0
  2  3  1  0
  2  4  1  0
  4  5  2  0
  5  6  1  0
  6  7  2  0
  7  8  1  0
  8  9  2  0
  9 10  1  0
 10 11  2  0
 11 12  1  0
 12 13  2  0
 13 14  1  0
 14 15  2  0
 15 16  1  0
 16 17  2  0
 17 18  1  0
 18 19  3  0
 17 20  1  0
 20 21  2  0
  7 22  1  0
 22 23  2  0
 23  4  1  0
 21 14  1  0
  1 24  1  0
  1 25  1  0
  1 26  1  0
  3 27  1  0
  3 28  1  0
  3 29  1  0
  5 30  1  0
  6 31  1  0
  8 32  1  0
  9 33  1  0
 10 34  1  0
 11 35  1  0
 12 36  1  0
 13 37  1  0
 15 38  1  0
 16 39  1  0
 20 40  1  0
 21 41  1  0
 22 42  1  0
 23 43  1  0
M  END
