
     RDKit          3D

 53 55  0  0  0  0  0  0  0  0999 V2000
   -5.8350    2.3943    0.8512 C   0  0  0  0  0  0  0  0  0  0  0  0
   -5.2177    1.0396    0.9637 C   0  0  0  0  0  0  0  0  0  0  0  0
   -4.6102    0.5858   -0.2665 N   0  0  0  0  0  0  0  0  0  0  0  0
   -5.3614    0.2488   -1.4485 C   0  0  0  0  0  0  0  0  0  0  0  0
   -5.9953    1.4630   -2.0699 C   0  0  0  0  0  0  0  0  0  0  0  0
   -3.2032    0.4645   -0.3309 C   0  0  0  0  0  0  0  0  0  0  0  0
   -2.4299    1.4786   -0.7825 C   0  0  0  0  0  0  0  0  0  0  0  0
   -1.0401    1.3164   -0.8299 C   0  0  0  0  0  0  0  0  0  0  0  0
   -0.4708    0.1374   -0.4210 C   0  0  0  0  0  0  0  0  0  0  0  0
    0.9504    0.0244   -0.4875 N   0  0  0  0  0  0  0  0  0  0  0  0
    1.7214    0.9405   -0.1475 N   0  0  0  0  0  0  0  0  0  0  0  0
    3.1302    0.9717   -0.1601 C   0  0  0  0  0  0  0  0  0  0  0  0
    3.8080    2.1331   -0.4785 C   0  0  0  0  0  0  0  0  0  0  0  0
    5.1641    2.2020   -0.5107 C   0  0  0  0  0  0  0  0  0  0  0  0
    5.8832    1.0568   -0.2107 C   0  0  0  0  0  0  0  0  0  0  0  0
    7.2760    1.1196   -0.2410 C   0  0  0  0  0  0  0  0  0  0  0  0
    7.8387    2.2068   -0.5399 O   0  0  0  0  0  0  0  0  0  0  0  0
    7.9766    0.0261    0.0477 N   0  0  0  0  0  0  0  0  0  0  0  0
    7.3691   -1.0917    0.3550 N   0  0  0  0  0  0  0  0  0  0  0  0
    6.0196   -1.2279    0.4042 C   0  0  0  0  0  0  0  0  0  0  0  0
    5.4667   -2.2975    0.6983 O   0  0  0  0  0  0  0  0  0  0  0  0
    5.2509   -0.1242    0.1131 C   0  0  0  0  0  0  0  0  0  0  0  0
    3.8545   -0.1585    0.1364 C   0  0  0  0  0  0  0  0  0  0  0  0
    3.2219   -1.3769    0.4858 N   0  0  0  0  0  4  0  0  0  0  0  0
    3.1276   -2.2730   -0.3642 O   0  0  0  0  0  0  0  0  0  0  0  0
    2.7095   -1.5587    1.7417 O   0  0  0  0  0  1  0  0  0  0  0  0
   -1.2563   -0.9112    0.0448 C   0  0  0  0  0  0  0  0  0  0  0  0
   -0.5812   -2.0904    0.4372 N   0  0  0  0  0  0  0  0  0  0  0  0
   -1.1283   -3.2513    0.9936 C   0  0  0  0  0  0  0  0  0  0  0  0
   -0.2733   -4.4387    1.3662 C   0  0  0  0  0  0  0  0  0  0  0  0
   -2.3626   -3.3227    1.1949 O   0  0  0  0  0  0  0  0  0  0  0  0
   -2.6185   -0.7234    0.0801 C   0  0  0  0  0  0  0  0  0  0  0  0
   -5.4211    3.0306    0.0598 H   0  0  0  0  0  0  0  0  0  0  0  0
   -5.7052    2.9624    1.8204 H   0  0  0  0  0  0  0  0  0  0  0  0
   -6.9410    2.2508    0.7674 H   0  0  0  0  0  0  0  0  0  0  0  0
   -4.4416    1.0996    1.7672 H   0  0  0  0  0  0  0  0  0  0  0  0
   -5.9334    0.2654    1.3196 H   0  0  0  0  0  0  0  0  0  0  0  0
   -6.2029   -0.4610   -1.2220 H   0  0  0  0  0  0  0  0  0  0  0  0
   -4.7494   -0.2480   -2.2128 H   0  0  0  0  0  0  0  0  0  0  0  0
   -6.3011    1.1387   -3.1066 H   0  0  0  0  0  0  0  0  0  0  0  0
   -5.2311    2.2666   -2.1992 H   0  0  0  0  0  0  0  0  0  0  0  0
   -6.9073    1.8029   -1.5761 H   0  0  0  0  0  0  0  0  0  0  0  0
   -2.9093    2.4041   -1.1023 H   0  0  0  0  0  0  0  0  0  0  0  0
   -0.4599    2.1456   -1.1949 H   0  0  0  0  0  0  0  0  0  0  0  0
    3.2030    3.0201   -0.7097 H   0  0  0  0  0  0  0  0  0  0  0  0
    5.7024    3.1308   -0.7647 H   0  0  0  0  0  0  0  0  0  0  0  0
    9.0311    0.0675    0.0277 H   0  0  0  0  0  0  0  0  0  0  0  0
    7.9375   -1.9317    0.5768 H   0  0  0  0  0  0  0  0  0  0  0  0
    0.4870   -2.1456    0.3025 H   0  0  0  0  0  0  0  0  0  0  0  0
    0.2810   -4.2563    2.2936 H   0  0  0  0  0  0  0  0  0  0  0  0
    0.3978   -4.6797    0.5221 H   0  0  0  0  0  0  0  0  0  0  0  0
   -0.9628   -5.2986    1.4510 H   0  0  0  0  0  0  0  0  0  0  0  0
   -3.2585   -1.5276    0.4378 H   0  0  0  0  0  0  0  0  0  0  0  0
  1  2  1  0
  2  3  1  0
  3  4  1  0
  4  5  1  0
  3  6  1  0
  6  7  2  0
  7  8  1  0
  8  9  2  0
  9 10  1  0
 10 11  2  0
 11 12  1  0
 12 13  2  0
 13 14  1  0
 14 15  2  0
 15 16  1  0
 16 17  2  0
 16 18  1  0
 18 19  1  0
 19 20  1  0
 20 21  2  0
 20 22  1  0
 22 23  2  0
 23 24  1  0
 24 25  2  0
 24 26  1  0
  9 27  1  0
 27 28  1  0
 28 29  1  0
 29 30  1  0
 29 31  2  0
 27 32  2  0
 32  6  1  0
 23 12  1  0
 22 15  1  0
  1 33  1  0
  1 34  1  0
  1 35  1  0
  2 36  1  0
  2 37  1  0
  4 38  1  0
  4 39  1  0
  5 40  1  0
  5 41  1  0
  5 42  1  0
  7 43  1  0
  8 44  1  0
 13 45  1  0
 14 46  1  0
 18 47  1  0
 19 48  1  0
 28 49  1  0
 30 50  1  0
 30 51  1  0
 30 52  1  0
 32 53  1  0
M  CHG  2  24   1  26  -1
M  END
