
     RDKit          3D

 82 88  0  0  0  0  0  0  0  0999 V2000
   -8.2269   -3.1788   -3.0152 C   0  0  0  0  0  0  0  0  0  0  0  0
   -8.3222   -2.0597   -1.9700 C   0  0  0  0  0  0  0  0  0  0  0  0
   -8.7867   -2.6889   -0.6963 C   0  0  0  0  0  0  0  0  0  0  0  0
   -8.9543   -1.7592    0.4584 C   0  0  0  0  0  0  0  0  0  0  0  0
   -7.7777   -1.0619    0.8552 N   0  0  0  0  0  0  0  0  0  0  0  0
   -7.4897    0.1937    0.2582 C   0  0  0  0  0  0  0  0  0  0  0  0
   -8.2466    0.7059   -0.6094 O   0  0  0  0  0  0  0  0  0  0  0  0
   -6.3025    0.9725    0.6084 C   0  0  0  0  0  0  0  0  0  0  0  0
   -6.0446    2.1850    0.0250 C   0  0  0  0  0  0  0  0  0  0  0  0
   -4.9429    2.9168    0.3515 C   0  0  0  0  0  0  0  0  0  0  0  0
   -4.0411    2.4403    1.3002 C   0  0  0  0  0  0  0  0  0  0  0  0
   -4.2624    1.2261    1.9088 C   0  0  0  0  0  0  0  0  0  0  0  0
   -3.3793    0.7642    2.8400 C   0  0  0  0  0  0  0  0  0  0  0  0
   -2.2450    1.4164    3.2372 O   0  0  0  0  0  0  0  0  0  0  0  0
   -1.1758    1.6265    2.4108 C   0  0  0  0  0  0  0  0  0  0  0  0
   -0.6471    2.8547    2.1042 C   0  0  0  0  0  0  0  0  0  0  0  0
    0.4313    3.0547    1.2699 C   0  0  0  0  0  0  0  0  0  0  0  0
    0.8968    4.4440    1.0034 C   0  0  0  0  0  0  0  0  0  0  0  0
    0.2266    4.9845   -0.1089 O   0  0  0  0  0  0  0  0  0  0  0  0
    1.0242    1.9318    0.7009 C   0  0  0  0  0  0  0  0  0  0  0  0
    0.5462    0.6698    0.9650 C   0  0  0  0  0  0  0  0  0  0  0  0
    1.1174   -0.4776    0.4138 O   0  0  0  0  0  0  0  0  0  0  0  0
    2.3136   -0.4219   -0.2879 C   0  0  0  0  0  0  0  0  0  0  0  0
    2.3513   -0.7477   -1.6202 C   0  0  0  0  0  0  0  0  0  0  0  0
    3.5315   -0.6995   -2.3558 C   0  0  0  0  0  0  0  0  0  0  0  0
    4.7176   -0.3178   -1.7624 C   0  0  0  0  0  0  0  0  0  0  0  0
    4.6838    0.0091   -0.4238 C   0  0  0  0  0  0  0  0  0  0  0  0
    5.8614    0.3914    0.2041 C   0  0  0  0  0  0  0  0  0  0  0  0
    5.8207    0.7066    1.5334 C   0  0  0  0  0  0  0  0  0  0  0  0
    4.6879    0.6718    2.3005 C   0  0  0  0  0  0  0  0  0  0  0  0
    3.5089    0.2854    1.6531 C   0  0  0  0  0  0  0  0  0  0  0  0
    3.4949   -0.0392    0.3220 C   0  0  0  0  0  0  0  0  0  0  0  0
    7.1260    0.4636   -0.4930 C   0  0  0  0  0  0  0  0  0  0  0  0
    8.1647    0.8231    0.1403 O   0  0  0  0  0  0  0  0  0  0  0  0
    7.1578    0.1266   -1.8751 N   0  0  0  0  0  0  0  0  0  0  0  0
    8.4059    0.1940   -2.5729 C   0  0  0  0  0  0  0  0  0  0  0  0
    9.2070   -1.0756   -2.5481 C   0  0  0  0  0  0  0  0  0  0  0  0
    9.5701   -1.5214   -1.1479 C   0  0  0  0  0  0  0  0  0  0  0  0
   10.3777   -2.8115   -1.2928 C   0  0  0  0  0  0  0  0  0  0  0  0
    5.9585   -0.2699   -2.5357 C   0  0  0  0  0  0  0  0  0  0  0  0
    5.9707   -0.5742   -3.7672 O   0  0  0  0  0  0  0  0  0  0  0  0
   -0.5313    0.5293    1.8029 C   0  0  0  0  0  0  0  0  0  0  0  0
   -3.6818   -0.4850    3.4262 C   0  0  0  0  0  0  0  0  0  0  0  0
   -4.7773   -1.2178    3.1074 C   0  0  0  0  0  0  0  0  0  0  0  0
   -5.6503   -0.7322    2.1649 C   0  0  0  0  0  0  0  0  0  0  0  0
   -5.4152    0.4956    1.5465 C   0  0  0  0  0  0  0  0  0  0  0  0
   -6.8453   -1.5234    1.8171 C   0  0  0  0  0  0  0  0  0  0  0  0
   -7.0279   -2.6097    2.3811 O   0  0  0  0  0  0  0  0  0  0  0  0
   -8.6685   -4.1252   -2.6143 H   0  0  0  0  0  0  0  0  0  0  0  0
   -7.1581   -3.4066   -3.2491 H   0  0  0  0  0  0  0  0  0  0  0  0
   -8.7279   -2.9031   -3.9678 H   0  0  0  0  0  0  0  0  0  0  0  0
   -7.3474   -1.5400   -1.8902 H   0  0  0  0  0  0  0  0  0  0  0  0
   -9.0678   -1.3404   -2.3576 H   0  0  0  0  0  0  0  0  0  0  0  0
   -8.1603   -3.5906   -0.4236 H   0  0  0  0  0  0  0  0  0  0  0  0
   -9.7892   -3.1376   -0.9136 H   0  0  0  0  0  0  0  0  0  0  0  0
   -9.7244   -1.0014    0.1716 H   0  0  0  0  0  0  0  0  0  0  0  0
   -9.4103   -2.3569    1.2829 H   0  0  0  0  0  0  0  0  0  0  0  0
   -6.7301    2.5636   -0.7090 H   0  0  0  0  0  0  0  0  0  0  0  0
   -4.7669    3.8672   -0.1245 H   0  0  0  0  0  0  0  0  0  0  0  0
   -3.1860    3.0259    1.5757 H   0  0  0  0  0  0  0  0  0  0  0  0
   -1.1155    3.7246    2.5561 H   0  0  0  0  0  0  0  0  0  0  0  0
    1.9963    4.4972    0.8610 H   0  0  0  0  0  0  0  0  0  0  0  0
    0.6714    5.1060    1.8672 H   0  0  0  0  0  0  0  0  0  0  0  0
    0.0520    4.3108   -0.8118 H   0  0  0  0  0  0  0  0  0  0  0  0
    1.8611    2.0570    0.0514 H   0  0  0  0  0  0  0  0  0  0  0  0
    1.4385   -1.0528   -2.1286 H   0  0  0  0  0  0  0  0  0  0  0  0
    3.5486   -0.9557   -3.3984 H   0  0  0  0  0  0  0  0  0  0  0  0
    6.7424    1.0063    2.0248 H   0  0  0  0  0  0  0  0  0  0  0  0
    4.6885    0.9280    3.3577 H   0  0  0  0  0  0  0  0  0  0  0  0
    2.6241    0.2427    2.2652 H   0  0  0  0  0  0  0  0  0  0  0  0
    8.1952    0.4124   -3.6519 H   0  0  0  0  0  0  0  0  0  0  0  0
    9.0592    1.0153   -2.2060 H   0  0  0  0  0  0  0  0  0  0  0  0
   10.1769   -0.8537   -3.0600 H   0  0  0  0  0  0  0  0  0  0  0  0
    8.6508   -1.8877   -3.0648 H   0  0  0  0  0  0  0  0  0  0  0  0
    8.6856   -1.7707   -0.5605 H   0  0  0  0  0  0  0  0  0  0  0  0
   10.2378   -0.7673   -0.6836 H   0  0  0  0  0  0  0  0  0  0  0  0
   11.2620   -2.6268   -1.9542 H   0  0  0  0  0  0  0  0  0  0  0  0
   10.7358   -3.1108   -0.2933 H   0  0  0  0  0  0  0  0  0  0  0  0
    9.7565   -3.6159   -1.7172 H   0  0  0  0  0  0  0  0  0  0  0  0
   -0.9081   -0.4820    2.0105 H   0  0  0  0  0  0  0  0  0  0  0  0
   -2.9825   -0.8618    4.1730 H   0  0  0  0  0  0  0  0  0  0  0  0
   -5.0181   -2.1808    3.5550 H   0  0  0  0  0  0  0  0  0  0  0  0
  1  2  1  0
  2  3  1  0
  3  4  1  0
  4  5  1  0
  5  6  1  0
  6  7  2  0
  6  8  1  0
  8  9  1  0
  9 10  2  0
 10 11  1  0
 11 12  2  0
 12 13  1  0
 13 14  1  0
 14 15  1  0
 15 16  2  0
 16 17  1  0
 17 18  1  0
 18 19  1  0
 17 20  2  0
 20 21  1  0
 21 22  1  0
 22 23  1  0
 23 24  2  0
 24 25  1  0
 25 26  2  0
 26 27  1  0
 27 28  2  0
 28 29  1  0
 29 30  2  0
 30 31  1  0
 31 32  2  0
 28 33  1  0
 33 34  2  0
 33 35  1  0
 35 36  1  0
 36 37  1  0
 37 38  1  0
 38 39  1  0
 35 40  1  0
 40 41  2  0
 21 42  2  0
 13 43  2  0
 43 44  1  0
 44 45  2  0
 45 46  1  0
 45 47  1  0
 47 48  2  0
 47  5  1  0
 46  8  2  0
 46 12  1  0
 42 15  1  0
 32 23  1  0
 40 26  1  0
 32 27  1  0
  1 49  1  0
  1 50  1  0
  1 51  1  0
  2 52  1  0
  2 53  1  0
  3 54  1  0
  3 55  1  0
  4 56  1  0
  4 57  1  0
  9 58  1  0
 10 59  1  0
 11 60  1  0
 16 61  1  0
 18 62  1  0
 18 63  1  0
 19 64  1  0
 20 65  1  0
 24 66  1  0
 25 67  1  0
 29 68  1  0
 30 69  1  0
 31 70  1  0
 36 71  1  0
 36 72  1  0
 37 73  1  0
 37 74  1  0
 38 75  1  0
 38 76  1  0
 39 77  1  0
 39 78  1  0
 39 79  1  0
 42 80  1  0
 43 81  1  0
 44 82  1  0
M  END
