
     RDKit          3D

 51 55  0  0  0  0  0  0  0  0999 V2000
    6.5712    2.5994    0.0406 C   0  0  0  0  0  0  0  0  0  0  0  0
    6.1654    1.2621    0.2753 O   0  0  0  0  0  0  0  0  0  0  0  0
    4.8121    0.9542    0.2227 C   0  0  0  0  0  0  0  0  0  0  0  0
    3.8742    1.9079   -0.0495 C   0  0  0  0  0  0  0  0  0  0  0  0
    2.5591    1.5872   -0.0969 C   0  0  0  0  0  0  0  0  0  0  0  0
    2.0776    0.2868    0.1245 C   0  0  0  0  0  0  0  0  0  0  0  0
    0.6224    0.0856    0.0467 C   0  0  0  0  0  0  0  0  0  0  0  0
   -0.2346    1.1052   -0.1745 C   0  0  0  0  0  0  0  0  0  0  0  0
   -1.6152    0.6512   -0.2096 C   0  0  0  0  0  0  0  0  0  0  0  0
   -2.7929    1.5171   -0.4598 C   0  0  0  0  0  0  0  0  0  0  0  0
   -3.7807    1.0993   -1.3198 C   0  0  0  0  0  0  0  0  0  0  0  0
   -4.8989    1.9115   -1.5533 C   0  0  0  0  0  0  0  0  0  0  0  0
   -5.0366    3.1272   -0.9404 C   0  0  0  0  0  0  0  0  0  0  0  0
   -4.0477    3.5542   -0.0750 C   0  0  0  0  0  0  0  0  0  0  0  0
   -2.9556    2.7443    0.1437 C   0  0  0  0  0  0  0  0  0  0  0  0
   -1.6287   -0.6207   -0.0157 C   0  0  0  0  0  0  0  0  0  0  0  0
   -2.7886   -1.5188    0.0374 C   0  0  0  0  0  0  0  0  0  0  0  0
   -3.9664   -1.2151    0.6802 C   0  0  0  0  0  0  0  0  0  0  0  0
   -5.0375   -2.0967    0.6957 C   0  0  0  0  0  0  0  0  0  0  0  0
   -4.9553   -3.3152    0.0629 C   0  0  0  0  0  0  0  0  0  0  0  0
   -3.7795   -3.6298   -0.5838 C   0  0  0  0  0  0  0  0  0  0  0  0
   -2.7073   -2.7405   -0.5964 C   0  0  0  0  0  0  0  0  0  0  0  0
   -0.1820   -1.0979    0.1584 C   0  0  0  0  0  0  0  0  0  0  0  0
    3.0000   -0.6703    0.3966 C   0  0  0  0  0  0  0  0  0  0  0  0
    2.6281   -1.9664    0.6308 C   0  0  0  0  0  0  0  0  0  0  0  0
    3.5956   -2.9038    0.9051 C   0  0  0  0  0  0  0  0  0  0  0  0
    4.9181   -2.5690    0.9493 C   0  0  0  0  0  0  0  0  0  0  0  0
    5.3159   -1.2886    0.7213 C   0  0  0  0  0  0  0  0  0  0  0  0
    4.3650   -0.3281    0.4438 C   0  0  0  0  0  0  0  0  0  0  0  0
    7.6401    2.7547    0.2213 H   0  0  0  0  0  0  0  0  0  0  0  0
    6.0146    3.2791    0.7485 H   0  0  0  0  0  0  0  0  0  0  0  0
    6.3561    2.8458   -1.0190 H   0  0  0  0  0  0  0  0  0  0  0  0
    4.2451    2.9289   -0.2238 H   0  0  0  0  0  0  0  0  0  0  0  0
    1.8809    2.3936   -0.3198 H   0  0  0  0  0  0  0  0  0  0  0  0
    0.0447    2.1442   -0.3105 H   0  0  0  0  0  0  0  0  0  0  0  0
   -3.6957    0.1434   -1.8269 H   0  0  0  0  0  0  0  0  0  0  0  0
   -5.6605    1.5523   -2.2366 H   0  0  0  0  0  0  0  0  0  0  0  0
   -5.9200    3.7012   -1.1641 H   0  0  0  0  0  0  0  0  0  0  0  0
   -4.1831    4.5174    0.3932 H   0  0  0  0  0  0  0  0  0  0  0  0
   -2.1758    3.0715    0.8214 H   0  0  0  0  0  0  0  0  0  0  0  0
   -4.0570   -0.2811    1.1831 H   0  0  0  0  0  0  0  0  0  0  0  0
   -5.9705   -1.8598    1.2017 H   0  0  0  0  0  0  0  0  0  0  0  0
   -5.8045   -4.0060    0.0811 H   0  0  0  0  0  0  0  0  0  0  0  0
   -3.7251   -4.5880   -1.0764 H   0  0  0  0  0  0  0  0  0  0  0  0
   -1.8082   -3.0391   -1.1194 H   0  0  0  0  0  0  0  0  0  0  0  0
   -0.2488   -1.5612    1.1814 H   0  0  0  0  0  0  0  0  0  0  0  0
   -0.0298   -1.8844   -0.6239 H   0  0  0  0  0  0  0  0  0  0  0  0
    1.6377   -2.2940    0.6181 H   0  0  0  0  0  0  0  0  0  0  0  0
    3.3184   -3.9608    1.0979 H   0  0  0  0  0  0  0  0  0  0  0  0
    5.6799   -3.3064    1.1651 H   0  0  0  0  0  0  0  0  0  0  0  0
    6.3643   -0.9836    0.7474 H   0  0  0  0  0  0  0  0  0  0  0  0
  1  2  1  0
  2  3  1  0
  3  4  2  0
  4  5  1  0
  5  6  2  0
  6  7  1  0
  7  8  2  0
  8  9  1  0
  9 10  1  0
 10 11  2  0
 11 12  1  0
 12 13  2  0
 13 14  1  0
 14 15  2  0
  9 16  2  0
 16 17  1  0
 17 18  2  0
 18 19  1  0
 19 20  2  0
 20 21  1  0
 21 22  2  0
 16 23  1  0
  6 24  1  0
 24 25  2  0
 25 26  1  0
 26 27  2  0
 27 28  1  0
 28 29  2  0
 29  3  1  0
 23  7  1  0
 29 24  1  0
 15 10  1  0
 22 17  1  0
  1 30  1  0
  1 31  1  0
  1 32  1  0
  4 33  1  0
  5 34  1  0
  8 35  1  0
 11 36  1  0
 12 37  1  0
 13 38  1  0
 14 39  1  0
 15 40  1  0
 18 41  1  0
 19 42  1  0
 20 43  1  0
 21 44  1  0
 22 45  1  0
 23 46  1  0
 23 47  1  0
 25 48  1  0
 26 49  1  0
 27 50  1  0
 28 51  1  0
M  END
