
     RDKit          3D

 27 29  0  0  0  0  0  0  0  0999 V2000
    4.5597    0.5528    0.4917 C   0  0  0  0  0  0  0  0  0  0  0  0
    3.8081    0.1107   -0.6361 N   0  0  0  0  0  0  0  0  0  0  0  0
    2.3948    0.0018   -0.6008 C   0  0  0  0  0  0  0  0  0  0  0  0
    1.6857   -0.4329   -1.7127 C   0  0  0  0  0  0  0  0  0  0  0  0
    0.3119   -0.5409   -1.6853 C   0  0  0  0  0  0  0  0  0  0  0  0
   -0.4173   -0.2240   -0.5589 C   0  0  0  0  0  0  0  0  0  0  0  0
    0.2634    0.2095    0.5564 C   0  0  0  0  0  0  0  0  0  0  0  0
    1.6452    0.3129    0.5135 C   0  0  0  0  0  0  0  0  0  0  0  0
   -0.7551    0.4618    1.5643 C   0  0  0  0  0  0  0  0  0  0  0  0
   -0.5253    0.8707    2.7209 O   0  0  0  0  0  0  0  0  0  0  0  0
   -2.0886    0.1631    1.0149 C   0  0  0  0  0  0  0  0  0  0  0  0
   -3.3653    0.2315    1.5419 C   0  0  0  0  0  0  0  0  0  0  0  0
   -4.4567   -0.1183    0.7794 C   0  0  0  0  0  0  0  0  0  0  0  0
   -4.2357   -0.5349   -0.5143 C   0  0  0  0  0  0  0  0  0  0  0  0
   -2.9646   -0.6039   -1.0416 C   0  0  0  0  0  0  0  0  0  0  0  0
   -1.8546   -0.2525   -0.2790 C   0  0  0  0  0  0  0  0  0  0  0  0
    4.6072    1.6688    0.5926 H   0  0  0  0  0  0  0  0  0  0  0  0
    4.1262    0.1950    1.4625 H   0  0  0  0  0  0  0  0  0  0  0  0
    5.6274    0.2176    0.4665 H   0  0  0  0  0  0  0  0  0  0  0  0
    4.3050   -0.1412   -1.5140 H   0  0  0  0  0  0  0  0  0  0  0  0
    2.2784   -0.6796   -2.5959 H   0  0  0  0  0  0  0  0  0  0  0  0
   -0.2147   -0.8819   -2.5649 H   0  0  0  0  0  0  0  0  0  0  0  0
    2.1413    0.6586    1.4145 H   0  0  0  0  0  0  0  0  0  0  0  0
   -3.5359    0.5581    2.5553 H   0  0  0  0  0  0  0  0  0  0  0  0
   -5.4788   -0.0704    1.1809 H   0  0  0  0  0  0  0  0  0  0  0  0
   -5.0954   -0.8073   -1.1056 H   0  0  0  0  0  0  0  0  0  0  0  0
   -2.7663   -0.9251   -2.0463 H   0  0  0  0  0  0  0  0  0  0  0  0
  1  2  1  0
  2  3  1  0
  3  4  2  0
  4  5  1  0
  5  6  2  0
  6  7  1  0
  7  8  2  0
  7  9  1  0
  9 10  2  0
  9 11  1  0
 11 12  2  0
 12 13  1  0
 13 14  2  0
 14 15  1  0
 15 16  2  0
  8  3  1  0
 16 11  1  0
 16  6  1  0
  1 17  1  0
  1 18  1  0
  1 19  1  0
  2 20  1  0
  4 21  1  0
  5 22  1  0
  8 23  1  0
 12 24  1  0
 13 25  1  0
 14 26  1  0
 15 27  1  0
M  END
