
     RDKit          3D

 67 73  0  0  0  0  0  0  0  0999 V2000
   12.9791    0.0095    0.8088 C   0  0  0  0  0  0  0  0  0  0  0  0
   11.6474   -0.0371    0.1207 C   0  0  0  0  0  0  0  0  0  0  0  0
   11.6251   -0.1524   -1.2578 C   0  0  0  0  0  0  0  0  0  0  0  0
   10.4071   -0.1944   -1.8756 C   0  0  0  0  0  0  0  0  0  0  0  0
    9.2429   -0.1215   -1.1174 C   0  0  0  0  0  0  0  0  0  0  0  0
    7.9346   -0.1401   -1.4621 N   0  0  0  0  0  0  0  0  0  0  0  0
    7.1559   -0.0430   -0.3759 C   0  0  0  0  0  0  0  0  0  0  0  0
    5.6915   -0.0264   -0.3096 C   0  0  0  0  0  0  0  0  0  0  0  0
    5.0317    0.0796    0.8971 C   0  0  0  0  0  0  0  0  0  0  0  0
    3.6375    0.0980    0.9979 C   0  0  0  0  0  0  0  0  0  0  0  0
    2.8842    0.0071   -0.1486 C   0  0  0  0  0  0  0  0  0  0  0  0
    1.4399    0.0192   -0.1092 C   0  0  0  0  0  0  0  0  0  0  0  0
    0.8209    0.7513    0.8860 C   0  0  0  0  0  0  0  0  0  0  0  0
   -0.5442    0.8132    0.9929 C   0  0  0  0  0  0  0  0  0  0  0  0
   -1.3023    0.1052    0.0538 C   0  0  0  0  0  0  0  0  0  0  0  0
   -2.7687    0.1472    0.1557 C   0  0  0  0  0  0  0  0  0  0  0  0
   -3.3995    1.3665    0.2947 C   0  0  0  0  0  0  0  0  0  0  0  0
   -4.7752    1.3903    0.4025 C   0  0  0  0  0  0  0  0  0  0  0  0
   -5.5126    0.2313    0.3736 C   0  0  0  0  0  0  0  0  0  0  0  0
   -6.9661    0.2557    0.4882 C   0  0  0  0  0  0  0  0  0  0  0  0
   -7.8074   -0.8124    0.4745 N   0  0  0  0  0  0  0  0  0  0  0  0
   -9.0802   -0.4007    0.6042 C   0  0  0  0  0  0  0  0  0  0  0  0
  -10.2864   -1.0612    0.6492 C   0  0  0  0  0  0  0  0  0  0  0  0
  -11.4693   -0.3680    0.7929 C   0  0  0  0  0  0  0  0  0  0  0  0
  -12.7749   -1.1146    0.8395 C   0  0  0  0  0  0  0  0  0  0  0  0
  -11.4780    1.0166    0.8965 C   0  0  0  0  0  0  0  0  0  0  0  0
  -10.2609    1.6617    0.8495 C   0  0  0  0  0  0  0  0  0  0  0  0
   -9.0641    0.9707    0.7049 C   0  0  0  0  0  0  0  0  0  0  0  0
   -7.7739    1.3272    0.6308 N   0  0  0  0  0  0  0  0  0  0  0  0
   -4.8569   -0.9642    0.2345 C   0  0  0  0  0  0  0  0  0  0  0  0
   -3.4655   -1.0353    0.1220 C   0  0  0  0  0  0  0  0  0  0  0  0
   -0.7286   -0.6360   -0.9537 C   0  0  0  0  0  0  0  0  0  0  0  0
   -1.5013   -1.3798   -1.9581 C   0  0  0  0  0  0  0  0  0  0  0  0
    0.6569   -0.6615   -1.0116 C   0  0  0  0  0  0  0  0  0  0  0  0
    3.5324   -0.0992   -1.3607 C   0  0  0  0  0  0  0  0  0  0  0  0
    4.9091   -0.1153   -1.4355 C   0  0  0  0  0  0  0  0  0  0  0  0
    7.9787    0.0390    0.6803 N   0  0  0  0  0  0  0  0  0  0  0  0
    9.2546   -0.0065    0.2571 C   0  0  0  0  0  0  0  0  0  0  0  0
   10.4990    0.0354    0.8765 C   0  0  0  0  0  0  0  0  0  0  0  0
   12.9220   -0.6862    1.6662 H   0  0  0  0  0  0  0  0  0  0  0  0
   13.2255    1.0158    1.1672 H   0  0  0  0  0  0  0  0  0  0  0  0
   13.7552   -0.4159    0.1220 H   0  0  0  0  0  0  0  0  0  0  0  0
   12.5737   -0.2043   -1.7862 H   0  0  0  0  0  0  0  0  0  0  0  0
   10.3508   -0.2846   -2.9583 H   0  0  0  0  0  0  0  0  0  0  0  0
    7.5736   -0.2188   -2.4330 H   0  0  0  0  0  0  0  0  0  0  0  0
    5.6508    0.1509    1.7973 H   0  0  0  0  0  0  0  0  0  0  0  0
    3.1845    0.1839    1.9842 H   0  0  0  0  0  0  0  0  0  0  0  0
    1.4284    1.3058    1.6214 H   0  0  0  0  0  0  0  0  0  0  0  0
   -1.0630    1.3840    1.7692 H   0  0  0  0  0  0  0  0  0  0  0  0
   -2.7721    2.2462    0.3113 H   0  0  0  0  0  0  0  0  0  0  0  0
   -5.2543    2.3488    0.5106 H   0  0  0  0  0  0  0  0  0  0  0  0
  -10.2673   -2.1426    0.5673 H   0  0  0  0  0  0  0  0  0  0  0  0
  -13.1810   -1.1415   -0.1836 H   0  0  0  0  0  0  0  0  0  0  0  0
  -12.6121   -2.1421    1.1792 H   0  0  0  0  0  0  0  0  0  0  0  0
  -13.4795   -0.5479    1.4816 H   0  0  0  0  0  0  0  0  0  0  0  0
  -12.4203    1.5606    1.0103 H   0  0  0  0  0  0  0  0  0  0  0  0
  -10.2324    2.7349    0.9270 H   0  0  0  0  0  0  0  0  0  0  0  0
   -7.4313    2.3233    0.6779 H   0  0  0  0  0  0  0  0  0  0  0  0
   -5.3986   -1.8915    0.2077 H   0  0  0  0  0  0  0  0  0  0  0  0
   -3.0058   -2.0122    0.0171 H   0  0  0  0  0  0  0  0  0  0  0  0
   -2.5250   -1.0320   -2.1269 H   0  0  0  0  0  0  0  0  0  0  0  0
   -0.9660   -1.2496   -2.9450 H   0  0  0  0  0  0  0  0  0  0  0  0
   -1.5324   -2.4813   -1.7905 H   0  0  0  0  0  0  0  0  0  0  0  0
    1.1327   -1.2305   -1.7848 H   0  0  0  0  0  0  0  0  0  0  0  0
    2.9401   -0.1715   -2.2765 H   0  0  0  0  0  0  0  0  0  0  0  0
    5.3694   -0.1994   -2.3984 H   0  0  0  0  0  0  0  0  0  0  0  0
   10.5215    0.1258    1.9568 H   0  0  0  0  0  0  0  0  0  0  0  0
  1  2  1  0
  2  3  2  0
  3  4  1  0
  4  5  2  0
  5  6  1  0
  6  7  1  0
  7  8  1  0
  8  9  2  0
  9 10  1  0
 10 11  2  0
 11 12  1  0
 12 13  2  0
 13 14  1  0
 14 15  2  0
 15 16  1  0
 16 17  2  0
 17 18  1  0
 18 19  2  0
 19 20  1  0
 20 21  2  0
 21 22  1  0
 22 23  2  0
 23 24  1  0
 24 25  1  0
 24 26  2  0
 26 27  1  0
 27 28  2  0
 28 29  1  0
 19 30  1  0
 30 31  2  0
 15 32  1  0
 32 33  1  0
 32 34  2  0
 11 35  1  0
 35 36  2  0
  7 37  2  0
 37 38  1  0
 38 39  2  0
 39  2  1  0
 38  5  1  0
 36  8  1  0
 34 12  1  0
 31 16  1  0
 29 20  1  0
 28 22  1  0
  1 40  1  0
  1 41  1  0
  1 42  1  0
  3 43  1  0
  4 44  1  0
  6 45  1  0
  9 46  1  0
 10 47  1  0
 13 48  1  0
 14 49  1  0
 17 50  1  0
 18 51  1  0
 23 52  1  0
 25 53  1  0
 25 54  1  0
 25 55  1  0
 26 56  1  0
 27 57  1  0
 29 58  1  0
 30 59  1  0
 31 60  1  0
 33 61  1  0
 33 62  1  0
 33 63  1  0
 34 64  1  0
 35 65  1  0
 36 66  1  0
 39 67  1  0
M  END
