
     RDKit          3D

 60 66  0  0  0  0  0  0  0  0999 V2000
    5.7662    1.7744    5.6551 C   0  0  0  0  0  0  0  0  0  0  0  0
    5.5649    0.4006    5.0587 C   0  0  0  0  0  0  0  0  0  0  0  0
    5.1088    0.5604    3.6349 C   0  0  0  0  0  0  0  0  0  0  0  0
    4.8794   -0.7743    2.9322 C   0  0  0  0  0  0  0  0  0  0  0  0
    4.4343   -0.4893    1.5724 N   0  0  0  0  0  0  0  0  0  0  0  0
    5.2310   -0.3322    0.4945 C   0  0  0  0  0  0  0  0  0  0  0  0
    6.6024   -0.3854    0.3144 C   0  0  0  0  0  0  0  0  0  0  0  0
    7.1639   -0.1769   -0.9465 C   0  0  0  0  0  0  0  0  0  0  0  0
    6.3368    0.0853   -2.0248 C   0  0  0  0  0  0  0  0  0  0  0  0
    4.9863    0.1408   -1.8634 C   0  0  0  0  0  0  0  0  0  0  0  0
    4.4473   -0.0685   -0.6070 C   0  0  0  0  0  0  0  0  0  0  0  0
    3.1363   -0.0770   -0.1304 C   0  0  0  0  0  0  0  0  0  0  0  0
    1.9031    0.1182   -0.7258 C   0  0  0  0  0  0  0  0  0  0  0  0
    0.7026    0.0658   -0.0532 C   0  0  0  0  0  0  0  0  0  0  0  0
   -0.5714    0.2776   -0.6832 C   0  0  0  0  0  0  0  0  0  0  0  0
   -1.6456    0.4648   -1.2347 C   0  0  0  0  0  0  0  0  0  0  0  0
   -2.8973    0.6899   -1.9034 C   0  0  0  0  0  0  0  0  0  0  0  0
   -3.0463    1.6491   -2.8874 C   0  0  0  0  0  0  0  0  0  0  0  0
   -4.2333    1.8847   -3.5326 C   0  0  0  0  0  0  0  0  0  0  0  0
   -5.3318    1.1327   -3.1885 C   0  0  0  0  0  0  0  0  0  0  0  0
   -6.5187    1.3961   -3.8576 C   0  0  0  0  0  0  0  0  0  0  0  0
   -7.6249    0.6495   -3.5192 C   0  0  0  0  0  0  0  0  0  0  0  0
   -7.5074   -0.3138   -2.5435 C   0  0  0  0  0  0  0  0  0  0  0  0
   -8.6395   -1.0521   -2.2213 C   0  0  0  0  0  0  0  0  0  0  0  0
   -8.5784   -2.0251   -1.2558 C   0  0  0  0  0  0  0  0  0  0  0  0
   -7.4030   -2.3038   -0.5762 C   0  0  0  0  0  0  0  0  0  0  0  0
   -6.2686   -1.5663   -0.8958 C   0  0  0  0  0  0  0  0  0  0  0  0
   -5.0687   -1.8042   -0.2446 C   0  0  0  0  0  0  0  0  0  0  0  0
   -3.9790   -1.0408   -0.6033 C   0  0  0  0  0  0  0  0  0  0  0  0
   -4.0084   -0.0594   -1.5672 C   0  0  0  0  0  0  0  0  0  0  0  0
   -5.2221    0.1649   -2.2116 C   0  0  0  0  0  0  0  0  0  0  0  0
   -6.3430   -0.5926   -1.8673 C   0  0  0  0  0  0  0  0  0  0  0  0
    0.7185   -0.1979    1.3013 C   0  0  0  0  0  0  0  0  0  0  0  0
    1.9439   -0.3953    1.9131 C   0  0  0  0  0  0  0  0  0  0  0  0
    3.1401   -0.3388    1.2224 C   0  0  0  0  0  0  0  0  0  0  0  0
    6.8592    1.9435    5.8826 H   0  0  0  0  0  0  0  0  0  0  0  0
    5.1883    1.8818    6.5997 H   0  0  0  0  0  0  0  0  0  0  0  0
    5.4064    2.5353    4.9407 H   0  0  0  0  0  0  0  0  0  0  0  0
    6.5096   -0.1677    5.1616 H   0  0  0  0  0  0  0  0  0  0  0  0
    4.7890   -0.1245    5.6761 H   0  0  0  0  0  0  0  0  0  0  0  0
    4.1857    1.1644    3.6537 H   0  0  0  0  0  0  0  0  0  0  0  0
    5.8651    1.1591    3.0727 H   0  0  0  0  0  0  0  0  0  0  0  0
    4.0496   -1.2879    3.4536 H   0  0  0  0  0  0  0  0  0  0  0  0
    5.7802   -1.3902    2.9297 H   0  0  0  0  0  0  0  0  0  0  0  0
    7.2198   -0.5917    1.1819 H   0  0  0  0  0  0  0  0  0  0  0  0
    8.2376   -0.2175   -1.0921 H   0  0  0  0  0  0  0  0  0  0  0  0
    6.7804    0.2485   -3.0173 H   0  0  0  0  0  0  0  0  0  0  0  0
    4.3031    0.3449   -2.6840 H   0  0  0  0  0  0  0  0  0  0  0  0
    1.9117    0.3253   -1.7950 H   0  0  0  0  0  0  0  0  0  0  0  0
   -2.1893    2.2611   -3.1815 H   0  0  0  0  0  0  0  0  0  0  0  0
   -4.3103    2.6519   -4.3044 H   0  0  0  0  0  0  0  0  0  0  0  0
   -6.5415    2.1629   -4.6085 H   0  0  0  0  0  0  0  0  0  0  0  0
   -8.5513    0.8575   -4.0425 H   0  0  0  0  0  0  0  0  0  0  0  0
   -9.5788   -0.8738   -2.7221 H   0  0  0  0  0  0  0  0  0  0  0  0
   -9.4462   -2.6302   -0.9690 H   0  0  0  0  0  0  0  0  0  0  0  0
   -7.3366   -3.0706    0.1886 H   0  0  0  0  0  0  0  0  0  0  0  0
   -5.0551   -2.5742    0.5076 H   0  0  0  0  0  0  0  0  0  0  0  0
   -3.0210   -1.2245   -0.0891 H   0  0  0  0  0  0  0  0  0  0  0  0
   -0.2145   -0.2390    1.8214 H   0  0  0  0  0  0  0  0  0  0  0  0
    1.9806   -0.6056    2.9825 H   0  0  0  0  0  0  0  0  0  0  0  0
  1  2  1  0
  2  3  1  0
  3  4  1  0
  4  5  1  0
  5  6  1  0
  6  7  2  0
  7  8  1  0
  8  9  2  0
  9 10  1  0
 10 11  2  0
 11 12  1  0
 12 13  2  0
 13 14  1  0
 14 15  1  0
 15 16  3  0
 16 17  1  0
 17 18  2  0
 18 19  1  0
 19 20  2  0
 20 21  1  0
 21 22  2  0
 22 23  1  0
 23 24  2  0
 24 25  1  0
 25 26  2  0
 26 27  1  0
 27 28  2  0
 28 29  1  0
 29 30  2  0
 30 31  1  0
 31 32  2  0
 14 33  2  0
 33 34  1  0
 34 35  2  0
 35  5  1  0
 11  6  1  0
 35 12  1  0
 30 17  1  0
 31 20  1  0
 32 23  1  0
 32 27  1  0
  1 36  1  0
  1 37  1  0
  1 38  1  0
  2 39  1  0
  2 40  1  0
  3 41  1  0
  3 42  1  0
  4 43  1  0
  4 44  1  0
  7 45  1  0
  8 46  1  0
  9 47  1  0
 10 48  1  0
 13 49  1  0
 18 50  1  0
 19 51  1  0
 21 52  1  0
 22 53  1  0
 24 54  1  0
 25 55  1  0
 26 56  1  0
 28 57  1  0
 29 58  1  0
 33 59  1  0
 34 60  1  0
M  END
