
 OpenBabel03212210083D

116121  0  0  0  0  0  0  0  0999 V2000
    1.2600   -0.2299    0.7298 C   0  0  0  0  0  0  0  0  0  0  0  0
    1.1182    1.2750    0.5579 C   0  0  0  0  0  0  0  0  0  0  0  0
    1.4073    1.7630   -0.8647 C   0  0  0  0  0  0  0  0  0  0  0  0
    0.5290    1.1611   -1.9675 C   0  0  0  0  0  0  0  0  0  0  0  0
   -0.9810    1.3483   -1.7883 C   0  0  0  0  0  0  0  0  0  0  0  0
   -1.4721    2.7998   -1.7919 C   0  0  0  0  0  0  0  0  0  0  0  0
   -1.2399    3.5774   -3.0926 C   0  0  0  0  0  0  0  0  0  0  0  0
   -1.8330    2.9545   -4.3627 C   0  0  0  0  0  0  0  0  0  0  0  0
   -3.3433    2.6832   -4.3415 C   0  0  0  0  0  0  0  0  0  0  0  0
   -4.2472    3.9009   -4.1151 C   0  0  0  0  0  0  0  0  0  0  0  0
   -4.0655    5.0580   -5.0988 C   0  0  0  0  0  0  0  0  0  0  0  0
   -4.3359    4.7306   -6.5751 C   0  0  0  0  0  0  0  0  0  0  0  0
   -5.8061    4.5043   -6.9993 C   0  0  1  0  0  0  0  0  0  0  0  0
   -6.7280    5.7024   -6.6396 C   0  0  0  0  0  0  0  0  0  0  0  0
   -6.2905    7.1299   -7.0285 C   0  0  0  0  0  0  0  0  0  0  0  0
   -6.2023    7.4723   -8.5191 C   0  0  0  0  0  0  0  0  0  0  0  0
   -7.5323    7.3786   -9.2738 C   0  0  0  0  0  0  0  0  0  0  0  0
   -8.3122    8.6982   -9.2832 C   0  0  0  0  0  0  0  0  0  0  0  0
   -7.7878    9.7389  -10.2830 C   0  0  0  0  0  0  0  0  0  0  0  0
   -7.8821    9.3418  -11.7625 C   0  0  0  0  0  0  0  0  0  0  0  0
   -9.2817    8.9620  -12.2588 C   0  0  0  0  0  0  0  0  0  0  0  0
  -10.3548   10.0395  -12.0842 C   0  0  0  0  0  0  0  0  0  0  0  0
  -10.0616   11.3139  -12.8606 C   0  0  0  0  0  0  0  0  0  0  0  0
   -5.9459    4.1267   -8.5061 C   0  0  0  0  0  0  0  0  0  0  0  0
   -5.4281    2.8076   -8.8575 N   0  0  0  0  0  0  0  0  0  0  0  0
   -4.1179    2.5609   -9.2715 C   0  0  0  0  0  0  0  0  0  0  0  0
   -3.0435    3.3463   -9.7134 C   0  0  0  0  0  0  0  0  0  0  0  0
   -1.7156    2.8149   -9.7685 C   0  0  0  0  0  0  0  0  0  0  0  0
   -0.5060    3.7454   -9.9819 C   0  0  0  0  0  0  0  0  0  0  0  0
   -0.3902    5.0964   -9.7795 C   0  0  0  0  0  0  0  0  0  0  0  0
    0.8074    5.8175   -9.9999 C   0  0  0  0  0  0  0  0  0  0  0  0
    1.7974    6.3926  -10.1881 N   0  0  0  0  0  0  0  0  0  0  0  0
   -1.6774    5.7952   -9.3731 C   0  0  0  0  0  0  0  0  0  0  0  0
   -2.7452    6.3749   -9.0358 N   0  0  0  0  0  0  0  0  0  0  0  0
   -1.5653    1.3757   -9.6219 C   0  0  0  0  0  0  0  0  0  0  0  0
   -0.3949    0.5979   -9.7183 C   0  0  0  0  0  0  0  0  0  0  0  0
   -0.4393   -0.8082   -9.6096 C   0  0  0  0  0  0  0  0  0  0  0  0
   -1.6476   -1.5086   -9.3977 C   0  0  0  0  0  0  0  0  0  0  0  0
   -2.8774   -0.8442   -9.2568 C   0  0  0  0  0  0  0  0  0  0  0  0
   -4.2280   -1.4999   -9.0251 C   0  0  0  0  0  0  0  0  0  0  0  0
   -4.4794   -2.8821   -8.9683 C   0  0  0  0  0  0  0  0  0  0  0  0
   -5.7803   -3.3986   -8.7772 C   0  0  0  0  0  0  0  0  0  0  0  0
   -6.9003   -2.5592   -8.6180 C   0  0  0  0  0  0  0  0  0  0  0  0
   -6.7625   -1.1587   -8.6312 C   0  0  0  0  0  0  0  0  0  0  0  0
   -7.7857   -0.1516   -8.4523 C   0  0  0  0  0  0  0  0  0  0  0  0
   -9.2076   -0.4858   -8.1316 C   0  0  0  0  0  0  0  0  0  0  0  0
   -9.5917   -0.9569   -6.9293 C   0  0  0  0  0  0  0  0  0  0  0  0
  -11.0288   -1.1665   -6.4805 C   0  0  0  0  0  0  0  0  0  0  0  0
  -12.2209   -1.3403   -6.1082 N   0  0  0  0  0  0  0  0  0  0  0  0
   -8.6381   -1.2237   -5.8934 C   0  0  0  0  0  0  0  0  0  0  0  0
   -7.8855   -1.4501   -5.0395 N   0  0  0  0  0  0  0  0  0  0  0  0
   -7.4669    1.2419   -8.4991 C   0  0  0  0  0  0  0  0  0  0  0  0
   -6.1317    1.6082   -8.7486 C   0  0  0  0  0  0  0  0  0  0  0  0
   -5.1756    0.6278   -8.9080 C   0  0  0  0  0  0  0  0  0  0  0  0
   -5.4313   -0.7304   -8.8436 C   0  0  0  0  0  0  0  0  0  0  0  0
   -3.9398    1.2130   -9.1586 C   0  0  0  0  0  0  0  0  0  0  0  0
   -2.7257    0.5824   -9.3665 C   0  0  0  0  0  0  0  0  0  0  0  0
    0.5025   -0.7728    0.1571 H   0  0  0  0  0  0  0  0  0  0  0  0
    1.1344   -0.5012    1.7831 H   0  0  0  0  0  0  0  0  0  0  0  0
    2.2488   -0.5716    0.4083 H   0  0  0  0  0  0  0  0  0  0  0  0
    0.1157    1.5860    0.8710 H   0  0  0  0  0  0  0  0  0  0  0  0
    1.8207    1.7691    1.2403 H   0  0  0  0  0  0  0  0  0  0  0  0
    1.3206    2.8557   -0.8844 H   0  0  0  0  0  0  0  0  0  0  0  0
    2.4552    1.5402   -1.1039 H   0  0  0  0  0  0  0  0  0  0  0  0
    0.8398    1.5847   -2.9298 H   0  0  0  0  0  0  0  0  0  0  0  0
    0.7362    0.0865   -2.0404 H   0  0  0  0  0  0  0  0  0  0  0  0
   -1.4947    0.7886   -2.5782 H   0  0  0  0  0  0  0  0  0  0  0  0
   -1.2961    0.8790   -0.8491 H   0  0  0  0  0  0  0  0  0  0  0  0
   -2.5444    2.8009   -1.5632 H   0  0  0  0  0  0  0  0  0  0  0  0
   -0.9962    3.3477   -0.9697 H   0  0  0  0  0  0  0  0  0  0  0  0
   -1.6431    4.5894   -2.9655 H   0  0  0  0  0  0  0  0  0  0  0  0
   -0.1613    3.7081   -3.2442 H   0  0  0  0  0  0  0  0  0  0  0  0
   -1.5931    3.6062   -5.2116 H   0  0  0  0  0  0  0  0  0  0  0  0
   -1.3175    2.0090   -4.5705 H   0  0  0  0  0  0  0  0  0  0  0  0
   -3.6195    2.2038   -5.2882 H   0  0  0  0  0  0  0  0  0  0  0  0
   -3.5654    1.9427   -3.5640 H   0  0  0  0  0  0  0  0  0  0  0  0
   -5.2920    3.5699   -4.1380 H   0  0  0  0  0  0  0  0  0  0  0  0
   -4.0765    4.2846   -3.1016 H   0  0  0  0  0  0  0  0  0  0  0  0
   -4.6959    5.8927   -4.7746 H   0  0  0  0  0  0  0  0  0  0  0  0
   -3.0369    5.4311   -5.0178 H   0  0  0  0  0  0  0  0  0  0  0  0
   -3.9511    5.5725   -7.1482 H   0  0  0  0  0  0  0  0  0  0  0  0
   -3.7253    3.8687   -6.8555 H   0  0  0  0  0  0  0  0  0  0  0  0
   -6.1793    3.6464   -6.4233 H   0  0  0  0  0  0  0  0  0  0  0  0
   -7.7358    5.5060   -7.0218 H   0  0  0  0  0  0  0  0  0  0  0  0
   -6.8473    5.7024   -5.5474 H   0  0  0  0  0  0  0  0  0  0  0  0
   -6.9938    7.8310   -6.5607 H   0  0  0  0  0  0  0  0  0  0  0  0
   -5.3188    7.3502   -6.5719 H   0  0  0  0  0  0  0  0  0  0  0  0
   -5.7881    8.4832   -8.6139 H   0  0  0  0  0  0  0  0  0  0  0  0
   -5.4675    6.8289   -9.0017 H   0  0  0  0  0  0  0  0  0  0  0  0
   -7.3370    7.0518  -10.3002 H   0  0  0  0  0  0  0  0  0  0  0  0
   -8.1672    6.6025   -8.8367 H   0  0  0  0  0  0  0  0  0  0  0  0
   -9.3645    8.4853   -9.5015 H   0  0  0  0  0  0  0  0  0  0  0  0
   -8.2981    9.1376   -8.2784 H   0  0  0  0  0  0  0  0  0  0  0  0
   -8.3389   10.6743  -10.1292 H   0  0  0  0  0  0  0  0  0  0  0  0
   -6.7409    9.9723  -10.0568 H   0  0  0  0  0  0  0  0  0  0  0  0
   -7.4959   10.1702  -12.3686 H   0  0  0  0  0  0  0  0  0  0  0  0
   -7.2060    8.5018  -11.9599 H   0  0  0  0  0  0  0  0  0  0  0  0
   -9.2115    8.7026  -13.3228 H   0  0  0  0  0  0  0  0  0  0  0  0
   -9.6140    8.0489  -11.7513 H   0  0  0  0  0  0  0  0  0  0  0  0
  -11.3118    9.6330  -12.4331 H   0  0  0  0  0  0  0  0  0  0  0  0
  -10.4900   10.2794  -11.0241 H   0  0  0  0  0  0  0  0  0  0  0  0
   -9.9155   11.1002  -13.9242 H   0  0  0  0  0  0  0  0  0  0  0  0
  -10.8998   12.0119  -12.7678 H   0  0  0  0  0  0  0  0  0  0  0  0
   -9.1674   11.8180  -12.4826 H   0  0  0  0  0  0  0  0  0  0  0  0
   -7.0006    4.1327   -8.8040 H   0  0  0  0  0  0  0  0  0  0  0  0
   -5.4290    4.8356   -9.1522 H   0  0  0  0  0  0  0  0  0  0  0  0
   -3.2941    4.3476  -10.0152 H   0  0  0  0  0  0  0  0  0  0  0  0
    0.3857    3.2155  -10.3132 H   0  0  0  0  0  0  0  0  0  0  0  0
    0.5722    1.0599   -9.8930 H   0  0  0  0  0  0  0  0  0  0  0  0
    0.4868   -1.3746   -9.6987 H   0  0  0  0  0  0  0  0  0  0  0  0
   -1.6027   -2.5930   -9.3316 H   0  0  0  0  0  0  0  0  0  0  0  0
   -3.6634   -3.5907   -9.0861 H   0  0  0  0  0  0  0  0  0  0  0  0
   -5.9200   -4.4783   -8.7525 H   0  0  0  0  0  0  0  0  0  0  0  0
   -7.8747   -3.0204   -8.4822 H   0  0  0  0  0  0  0  0  0  0  0  0
   -9.9337   -0.2387   -8.9016 H   0  0  0  0  0  0  0  0  0  0  0  0
   -8.2286    2.0002   -8.3448 H   0  0  0  0  0  0  0  0  0  0  0  0
  1  2  1  0  0  0  0
  1 58  1  0  0  0  0
  1 59  1  0  0  0  0
  1 60  1  0  0  0  0
  2  3  1  0  0  0  0
  2 61  1  0  0  0  0
  2 62  1  0  0  0  0
  3  4  1  0  0  0  0
  3 63  1  0  0  0  0
  3 64  1  0  0  0  0
  4  5  1  0  0  0  0
  4 65  1  0  0  0  0
  4 66  1  0  0  0  0
  5  6  1  0  0  0  0
  5 67  1  0  0  0  0
  5 68  1  0  0  0  0
  6  7  1  0  0  0  0
  6 69  1  0  0  0  0
  6 70  1  0  0  0  0
  7  8  1  0  0  0  0
  7 71  1  0  0  0  0
  7 72  1  0  0  0  0
  8  9  1  0  0  0  0
  8 73  1  0  0  0  0
  8 74  1  0  0  0  0
  9 10  1  0  0  0  0
  9 75  1  0  0  0  0
  9 76  1  0  0  0  0
 10 11  1  0  0  0  0
 10 77  1  0  0  0  0
 10 78  1  0  0  0  0
 11 12  1  0  0  0  0
 11 79  1  0  0  0  0
 11 80  1  0  0  0  0
 12 13  1  0  0  0  0
 12 81  1  0  0  0  0
 12 82  1  0  0  0  0
 13 14  1  0  0  0  0
 13 24  1  0  0  0  0
 13 83  1  1  0  0  0
 14 15  1  0  0  0  0
 14 84  1  0  0  0  0
 14 85  1  0  0  0  0
 15 16  1  0  0  0  0
 15 86  1  0  0  0  0
 15 87  1  0  0  0  0
 16 17  1  0  0  0  0
 16 88  1  0  0  0  0
 16 89  1  0  0  0  0
 17 18  1  0  0  0  0
 17 90  1  0  0  0  0
 17 91  1  0  0  0  0
 18 19  1  0  0  0  0
 18 92  1  0  0  0  0
 18 93  1  0  0  0  0
 19 20  1  0  0  0  0
 19 94  1  0  0  0  0
 19 95  1  0  0  0  0
 20 21  1  0  0  0  0
 20 96  1  0  0  0  0
 20 97  1  0  0  0  0
 21 22  1  0  0  0  0
 21 98  1  0  0  0  0
 21 99  1  0  0  0  0
 22 23  1  0  0  0  0
 22100  1  0  0  0  0
 22101  1  0  0  0  0
 23102  1  0  0  0  0
 23103  1  0  0  0  0
 23104  1  0  0  0  0
 24 25  1  0  0  0  0
 24105  1  0  0  0  0
 24106  1  0  0  0  0
 25 26  1  0  0  0  0
 26 27  2  0  0  0  0
 27 28  1  0  0  0  0
 27107  1  0  0  0  0
 28 29  1  0  0  0  0
 28 35  2  0  0  0  0
 29 30  2  0  0  0  0
 29108  1  0  0  0  0
 30 31  1  0  0  0  0
 30 33  1  0  0  0  0
 31 32  3  0  0  0  0
 33 34  3  0  0  0  0
 35 36  1  0  0  0  0
 36 37  2  0  0  0  0
 36109  1  0  0  0  0
 37 38  1  0  0  0  0
 37110  1  0  0  0  0
 38 39  2  0  0  0  0
 38111  1  0  0  0  0
 39 40  1  0  0  0  0
 40 41  2  0  0  0  0
 41 42  1  0  0  0  0
 41112  1  0  0  0  0
 42 43  2  0  0  0  0
 42113  1  0  0  0  0
 43 44  1  0  0  0  0
 43114  1  0  0  0  0
 44 45  2  0  0  0  0
 45 46  1  0  0  0  0
 45 52  1  0  0  0  0
 46 47  2  0  0  0  0
 46115  1  0  0  0  0
 47 48  1  0  0  0  0
 47 50  1  0  0  0  0
 48 49  3  0  0  0  0
 50 51  3  0  0  0  0
 52 53  2  0  0  0  0
 52116  1  0  0  0  0
 53 54  1  0  0  0  0
 53 25  1  0  0  0  0
 54 55  2  0  0  0  0
 54 56  1  0  0  0  0
 55 40  1  0  0  0  0
 55 44  1  0  0  0  0
 56 57  2  0  0  0  0
 56 26  1  0  0  0  0
 57 35  1  0  0  0  0
 57 39  1  0  0  0  0
M  END
