
     RDKit          3D

 27 27  0  0  0  0  0  0  0  0999 V2000
   -5.0065   -0.6849   -0.3788 C   0  0  0  0  0  0  0  0  0  0  0  0
   -4.2442    0.1890    0.4842 N   0  0  0  0  0  0  0  0  0  0  0  0
   -2.8291    0.1877    0.3586 C   0  0  0  0  0  0  0  0  0  0  0  0
   -2.1773   -0.6147   -0.5526 C   0  0  0  0  0  0  0  0  0  0  0  0
   -0.7822   -0.6185   -0.6792 C   0  0  0  0  0  0  0  0  0  0  0  0
   -0.0038    0.1884    0.1111 C   0  0  0  0  0  0  0  0  0  0  0  0
    1.4451    0.2307    0.0289 C   0  0  0  0  0  0  0  0  0  0  0  0
    2.1672   -0.4847   -0.7957 C   0  0  0  0  0  0  0  0  0  0  0  0
    3.6393   -0.3977   -0.8324 C   0  0  0  0  0  0  0  0  0  0  0  0
    4.2434   -1.1225   -1.6568 O   0  0  0  0  0  0  0  0  0  0  0  0
    4.3737    0.4252   -0.0213 O   0  0  0  0  0  0  0  0  0  0  0  0
    5.7872    0.5126   -0.0525 C   0  0  0  0  0  0  0  0  0  0  0  0
   -0.6605    0.9935    1.0257 C   0  0  0  0  0  0  0  0  0  0  0  0
   -2.0328    0.9939    1.1466 C   0  0  0  0  0  0  0  0  0  0  0  0
   -6.0987   -0.4833   -0.3093 H   0  0  0  0  0  0  0  0  0  0  0  0
   -4.7197   -0.5527   -1.4319 H   0  0  0  0  0  0  0  0  0  0  0  0
   -4.8668   -1.7210   -0.0032 H   0  0  0  0  0  0  0  0  0  0  0  0
   -4.7262    0.7986    1.1753 H   0  0  0  0  0  0  0  0  0  0  0  0
   -2.7890   -1.2512   -1.1762 H   0  0  0  0  0  0  0  0  0  0  0  0
   -0.3335   -1.2666   -1.4083 H   0  0  0  0  0  0  0  0  0  0  0  0
    1.9959    0.8970    0.6895 H   0  0  0  0  0  0  0  0  0  0  0  0
    1.6668   -1.1500   -1.4597 H   0  0  0  0  0  0  0  0  0  0  0  0
    6.1062    0.5405    1.0306 H   0  0  0  0  0  0  0  0  0  0  0  0
    6.2713   -0.3608   -0.5014 H   0  0  0  0  0  0  0  0  0  0  0  0
    6.1236    1.4793   -0.4795 H   0  0  0  0  0  0  0  0  0  0  0  0
   -0.0416    1.6321    1.6509 H   0  0  0  0  0  0  0  0  0  0  0  0
   -2.5078    1.6401    1.8760 H   0  0  0  0  0  0  0  0  0  0  0  0
  1  2  1  0
  2  3  1  0
  3  4  2  0
  4  5  1  0
  5  6  2  0
  6  7  1  0
  7  8  2  0
  8  9  1  0
  9 10  2  0
  9 11  1  0
 11 12  1  0
  6 13  1  0
 13 14  2  0
 14  3  1  0
  1 15  1  0
  1 16  1  0
  1 17  1  0
  2 18  1  0
  4 19  1  0
  5 20  1  0
  7 21  1  0
  8 22  1  0
 12 23  1  0
 12 24  1  0
 12 25  1  0
 13 26  1  0
 14 27  1  0
M  END
