
     RDKit          3D

 46 48  0  0  0  0  0  0  0  0999 V2000
   -4.6731   -0.8723   -3.1977 C   0  0  0  0  0  0  0  0  0  0  0  0
   -4.8918    0.5674   -2.8909 C   0  0  0  0  0  0  0  0  0  0  0  0
   -4.0705    1.1786   -1.8951 N   0  0  0  0  0  0  0  0  0  0  0  0
   -4.5694    2.4819   -1.4064 C   0  0  0  0  0  0  0  0  0  0  0  0
   -5.8102    2.2976   -0.5878 C   0  0  0  0  0  0  0  0  0  0  0  0
   -2.8463    0.7063   -1.4152 C   0  0  0  0  0  0  0  0  0  0  0  0
   -1.9786   -0.1353   -2.0745 C   0  0  0  0  0  0  0  0  0  0  0  0
   -0.7808   -0.5783   -1.5073 C   0  0  0  0  0  0  0  0  0  0  0  0
   -0.4022   -0.1937   -0.2517 C   0  0  0  0  0  0  0  0  0  0  0  0
    0.8011   -0.6630    0.2589 C   0  0  0  0  0  0  0  0  0  0  0  0
    1.1280   -0.2444    1.5098 C   0  0  0  0  0  0  0  0  0  0  0  0
    2.4029   -0.6591    2.1646 C   0  0  0  0  0  0  0  0  0  0  0  0
    2.4071   -1.0573    3.4722 C   0  0  0  0  0  0  0  0  0  0  0  0
    4.0457   -1.4150    3.7701 S   0  0  0  0  0  0  0  0  0  0  0  0
    4.6832   -1.0519    2.2343 C   0  0  0  0  0  0  0  0  0  0  0  0
    6.0691   -1.1349    1.8238 N   0  0  0  0  0  0  0  0  0  0  0  0
    7.0464   -1.5595    2.7305 C   0  0  0  0  0  0  0  0  0  0  0  0
    8.5045   -1.6597    2.3803 C   0  0  0  0  0  0  0  0  0  0  0  0
    6.7115   -1.8816    3.9093 O   0  0  0  0  0  0  0  0  0  0  0  0
    3.5886   -0.6576    1.5211 C   0  0  0  0  0  0  0  0  0  0  0  0
    3.7882   -0.2584    0.0928 C   0  0  0  0  0  0  0  0  0  0  0  0
    3.9285    0.0291   -0.9964 N   0  0  0  0  0  0  0  0  0  0  0  0
    0.2419    0.6025    2.1591 C   0  0  0  0  0  0  0  0  0  0  0  0
    0.5360    0.9997    3.3332 O   0  0  0  0  0  0  0  0  0  0  0  0
   -0.8859    1.0293    1.6532 O   0  0  0  0  0  0  0  0  0  0  0  0
   -1.2420    0.6404    0.4254 C   0  0  0  0  0  0  0  0  0  0  0  0
   -2.4327    1.0848   -0.1276 C   0  0  0  0  0  0  0  0  0  0  0  0
   -4.2825   -1.4716   -2.3256 H   0  0  0  0  0  0  0  0  0  0  0  0
   -4.0531   -1.0935   -4.0620 H   0  0  0  0  0  0  0  0  0  0  0  0
   -5.7111   -1.2957   -3.4079 H   0  0  0  0  0  0  0  0  0  0  0  0
   -4.7562    1.1070   -3.8898 H   0  0  0  0  0  0  0  0  0  0  0  0
   -5.9760    0.7858   -2.6686 H   0  0  0  0  0  0  0  0  0  0  0  0
   -4.8163    3.0792   -2.3197 H   0  0  0  0  0  0  0  0  0  0  0  0
   -3.8002    2.9773   -0.8262 H   0  0  0  0  0  0  0  0  0  0  0  0
   -5.5948    1.4995    0.1458 H   0  0  0  0  0  0  0  0  0  0  0  0
   -6.0626    3.2718   -0.1289 H   0  0  0  0  0  0  0  0  0  0  0  0
   -6.7025    2.0467   -1.2248 H   0  0  0  0  0  0  0  0  0  0  0  0
   -2.2267   -0.4458   -3.0752 H   0  0  0  0  0  0  0  0  0  0  0  0
   -0.1318   -1.2363   -2.0623 H   0  0  0  0  0  0  0  0  0  0  0  0
    1.4562   -1.3328   -0.3048 H   0  0  0  0  0  0  0  0  0  0  0  0
    1.5342   -1.1216    4.1564 H   0  0  0  0  0  0  0  0  0  0  0  0
    6.3285   -0.8753    0.8473 H   0  0  0  0  0  0  0  0  0  0  0  0
    8.6093   -2.6160    1.7959 H   0  0  0  0  0  0  0  0  0  0  0  0
    8.8309   -0.8217    1.7306 H   0  0  0  0  0  0  0  0  0  0  0  0
    9.0809   -1.7836    3.3044 H   0  0  0  0  0  0  0  0  0  0  0  0
   -3.0257    1.7308    0.4797 H   0  0  0  0  0  0  0  0  0  0  0  0
  1  2  1  0
  2  3  1  0
  3  4  1  0
  4  5  1  0
  3  6  1  0
  6  7  2  0
  7  8  1  0
  8  9  2  0
  9 10  1  0
 10 11  2  0
 11 12  1  0
 12 13  2  0
 13 14  1  0
 14 15  1  0
 15 16  1  0
 16 17  1  0
 17 18  1  0
 17 19  2  0
 15 20  2  0
 20 21  1  0
 21 22  3  0
 11 23  1  0
 23 24  2  0
 23 25  1  0
 25 26  1  0
 26 27  2  0
 27  6  1  0
 26  9  1  0
 20 12  1  0
  1 28  1  0
  1 29  1  0
  1 30  1  0
  2 31  1  0
  2 32  1  0
  4 33  1  0
  4 34  1  0
  5 35  1  0
  5 36  1  0
  5 37  1  0
  7 38  1  0
  8 39  1  0
 10 40  1  0
 13 41  1  0
 16 42  1  0
 18 43  1  0
 18 44  1  0
 18 45  1  0
 27 46  1  0
M  END
