
     RDKit          3D

 37 39  0  0  0  0  0  0  0  0999 V2000
   -6.2193   -1.8764   -0.2669 C   0  0  0  0  0  0  0  0  0  0  0  0
   -5.6368   -0.5637   -0.0730 N   0  0  0  0  0  0  0  0  0  0  0  0
   -6.5234    0.5540    0.1958 C   0  0  0  0  0  0  0  0  0  0  0  0
   -4.2167   -0.3968   -0.1493 C   0  0  0  0  0  0  0  0  0  0  0  0
   -3.6035   -0.1037   -1.3491 C   0  0  0  0  0  0  0  0  0  0  0  0
   -2.2162    0.0581   -1.4178 C   0  0  0  0  0  0  0  0  0  0  0  0
   -1.4228   -0.0691   -0.2969 C   0  0  0  0  0  0  0  0  0  0  0  0
    0.0042    0.0969   -0.3652 C   0  0  0  0  0  0  0  0  0  0  0  0
    1.2036    0.2339   -0.4177 C   0  0  0  0  0  0  0  0  0  0  0  0
    2.6266    0.4209   -0.4820 C   0  0  0  0  0  0  0  0  0  0  0  0
    3.4321    0.0928    0.5857 C   0  0  0  0  0  0  0  0  0  0  0  0
    4.8191    0.2758    0.5211 C   0  0  0  0  0  0  0  0  0  0  0  0
    5.6213   -0.0572    1.6002 C   0  0  0  0  0  0  0  0  0  0  0  0
    6.9673    0.1463    1.4718 C   0  0  0  0  0  0  0  0  0  0  0  0
    7.4857    0.6651    0.3020 C   0  0  0  0  0  0  0  0  0  0  0  0
    6.6817    0.9968   -0.7744 C   0  0  0  0  0  0  0  0  0  0  0  0
    5.3281    0.7864   -0.6306 C   0  0  0  0  0  0  0  0  0  0  0  0
    4.5498    1.1030   -1.6609 O   0  0  0  0  0  0  0  0  0  0  0  0
    3.2487    0.9333   -1.6055 C   0  0  0  0  0  0  0  0  0  0  0  0
    2.5721    1.2586   -2.6288 O   0  0  0  0  0  0  0  0  0  0  0  0
   -2.0538   -0.3625    0.8944 C   0  0  0  0  0  0  0  0  0  0  0  0
   -3.4299   -0.5242    0.9685 C   0  0  0  0  0  0  0  0  0  0  0  0
   -6.2578   -2.3818    0.7205 H   0  0  0  0  0  0  0  0  0  0  0  0
   -7.2087   -1.8228   -0.7613 H   0  0  0  0  0  0  0  0  0  0  0  0
   -5.5594   -2.4521   -0.9659 H   0  0  0  0  0  0  0  0  0  0  0  0
   -7.3378    0.2386    0.8579 H   0  0  0  0  0  0  0  0  0  0  0  0
   -5.9619    1.4214    0.6151 H   0  0  0  0  0  0  0  0  0  0  0  0
   -6.9356    0.9294   -0.7853 H   0  0  0  0  0  0  0  0  0  0  0  0
   -4.2113   -0.0048   -2.2158 H   0  0  0  0  0  0  0  0  0  0  0  0
   -1.7410    0.2893   -2.3692 H   0  0  0  0  0  0  0  0  0  0  0  0
    2.9918   -0.3120    1.4881 H   0  0  0  0  0  0  0  0  0  0  0  0
    5.1883   -0.4585    2.4959 H   0  0  0  0  0  0  0  0  0  0  0  0
    7.5975   -0.1112    2.3090 H   0  0  0  0  0  0  0  0  0  0  0  0
    8.5519    0.8261    0.2007 H   0  0  0  0  0  0  0  0  0  0  0  0
    7.0891    1.4029   -1.6896 H   0  0  0  0  0  0  0  0  0  0  0  0
   -1.4931   -0.4758    1.8102 H   0  0  0  0  0  0  0  0  0  0  0  0
   -3.9298   -0.7569    1.9141 H   0  0  0  0  0  0  0  0  0  0  0  0
  1  2  1  0
  2  3  1  0
  2  4  1  0
  4  5  2  0
  5  6  1  0
  6  7  2  0
  7  8  1  0
  8  9  3  0
  9 10  1  0
 10 11  2  0
 11 12  1  0
 12 13  2  0
 13 14  1  0
 14 15  2  0
 15 16  1  0
 16 17  2  0
 17 18  1  0
 18 19  1  0
 19 20  2  0
  7 21  1  0
 21 22  2  0
 22  4  1  0
 19 10  1  0
 17 12  1  0
  1 23  1  0
  1 24  1  0
  1 25  1  0
  3 26  1  0
  3 27  1  0
  3 28  1  0
  5 29  1  0
  6 30  1  0
 11 31  1  0
 13 32  1  0
 14 33  1  0
 15 34  1  0
 16 35  1  0
 21 36  1  0
 22 37  1  0
M  END
