
     RDKit          3D

 53 58  0  0  0  0  0  0  0  0999 V2000
   -4.9224    1.5837   -0.6113 C   0  0  0  0  0  0  0  0  0  0  0  0
   -5.6754    0.4599    0.0805 C   0  0  0  0  0  0  0  0  0  0  0  0
   -4.7722   -0.4631    0.8190 C   0  0  0  0  0  0  0  0  0  0  0  0
   -3.7968   -1.1519    0.0116 N   0  0  0  0  0  0  0  0  0  0  0  0
   -4.3112   -2.2416   -0.7987 C   0  0  0  0  0  0  0  0  0  0  0  0
   -5.6311   -2.6205   -0.6723 C   0  0  0  0  0  0  0  0  0  0  0  0
   -6.1332   -3.7103   -1.4002 C   0  0  0  0  0  0  0  0  0  0  0  0
   -5.3398   -4.4278   -2.2516 C   0  0  0  0  0  0  0  0  0  0  0  0
   -4.0294   -4.0694   -2.3920 C   0  0  0  0  0  0  0  0  0  0  0  0
   -3.5482   -2.9783   -1.6564 C   0  0  0  0  0  0  0  0  0  0  0  0
   -1.8209   -2.5929   -1.9083 S   0  0  0  0  0  0  0  0  0  0  0  0
   -1.4371   -1.3010   -0.7565 C   0  0  0  0  0  0  0  0  0  0  0  0
   -0.1608   -0.8906   -0.6806 C   0  0  0  0  0  0  0  0  0  0  0  0
    0.2411    0.1361    0.1745 C   0  0  0  0  0  0  0  0  0  0  0  0
    1.6076    0.5254    0.2437 C   0  0  0  0  0  0  0  0  0  0  0  0
    2.7788    0.8609    0.3240 C   0  0  0  0  0  0  0  0  0  0  0  0
    4.1788    1.2415    0.4356 C   0  0  0  0  0  0  0  0  0  0  0  0
    4.7292    2.0521   -0.4493 C   0  0  0  0  0  0  0  0  0  0  0  0
    4.1669    2.7192   -1.6408 C   0  0  0  0  0  0  0  0  0  0  0  0
    5.1566    3.4314   -2.1946 C   0  0  0  0  0  0  0  0  0  0  0  0
    6.3513    3.2408   -1.3870 C   0  0  0  0  0  0  0  0  0  0  0  0
    6.0796    2.4402   -0.3847 N   0  0  0  0  0  4  0  0  0  0  0  0
    6.9882    1.9130    0.7354 B   0  0  0  0  0  4  0  0  0  0  0  0
    7.6026    3.0405    1.4519 F   0  0  0  0  0  0  0  0  0  0  0  0
    8.0538    1.1698    0.0295 F   0  0  0  0  0  0  0  0  0  0  0  0
    6.2364    1.0209    1.6832 N   0  0  0  0  0  0  0  0  0  0  0  0
    6.7117    0.4064    2.8004 C   0  0  0  0  0  0  0  0  0  0  0  0
    5.6886   -0.3245    3.3834 C   0  0  0  0  0  0  0  0  0  0  0  0
    4.5574   -0.1365    2.5794 C   0  0  0  0  0  0  0  0  0  0  0  0
    4.9384    0.6911    1.5547 C   0  0  0  0  0  0  0  0  0  0  0  0
   -0.7219    0.7134    0.9367 C   0  0  0  0  0  0  0  0  0  0  0  0
   -2.0354    0.2887    0.8575 C   0  0  0  0  0  0  0  0  0  0  0  0
   -2.4308   -0.7395    0.0023 C   0  0  0  0  0  0  0  0  0  0  0  0
   -5.4977    1.9964   -1.4687 H   0  0  0  0  0  0  0  0  0  0  0  0
   -3.9509    1.2627   -1.0295 H   0  0  0  0  0  0  0  0  0  0  0  0
   -4.7394    2.4227    0.0868 H   0  0  0  0  0  0  0  0  0  0  0  0
   -6.4001    0.9722    0.7615 H   0  0  0  0  0  0  0  0  0  0  0  0
   -6.2951   -0.0119   -0.7008 H   0  0  0  0  0  0  0  0  0  0  0  0
   -4.3703    0.0955    1.6823 H   0  0  0  0  0  0  0  0  0  0  0  0
   -5.4134   -1.2488    1.3459 H   0  0  0  0  0  0  0  0  0  0  0  0
   -6.3217   -2.1220   -0.0151 H   0  0  0  0  0  0  0  0  0  0  0  0
   -7.1626   -3.9791   -1.2699 H   0  0  0  0  0  0  0  0  0  0  0  0
   -5.7108   -5.2690   -2.8143 H   0  0  0  0  0  0  0  0  0  0  0  0
   -3.3630   -4.6156   -3.0619 H   0  0  0  0  0  0  0  0  0  0  0  0
    0.6014   -1.3506   -1.2882 H   0  0  0  0  0  0  0  0  0  0  0  0
    3.1474    2.5954   -1.9278 H   0  0  0  0  0  0  0  0  0  0  0  0
    5.0184    4.0222   -3.0896 H   0  0  0  0  0  0  0  0  0  0  0  0
    7.3070    3.6984   -1.6048 H   0  0  0  0  0  0  0  0  0  0  0  0
    7.7104    0.4541    3.2008 H   0  0  0  0  0  0  0  0  0  0  0  0
    5.7348   -0.9261    4.2814 H   0  0  0  0  0  0  0  0  0  0  0  0
    3.6010   -0.5892    2.7927 H   0  0  0  0  0  0  0  0  0  0  0  0
   -0.4357    1.5220    1.6108 H   0  0  0  0  0  0  0  0  0  0  0  0
   -2.7601    0.7841    1.4714 H   0  0  0  0  0  0  0  0  0  0  0  0
  1  2  1  0
  2  3  1  0
  3  4  1  0
  4  5  1  0
  5  6  2  0
  6  7  1  0
  7  8  2  0
  8  9  1  0
  9 10  2  0
 10 11  1  0
 11 12  1  0
 12 13  2  0
 13 14  1  0
 14 15  1  0
 15 16  3  0
 16 17  1  0
 17 18  2  0
 18 19  1  0
 19 20  2  0
 20 21  1  0
 21 22  2  0
 22 23  1  0
 23 24  1  0
 23 25  1  0
 23 26  1  0
 26 27  1  0
 27 28  2  0
 28 29  1  0
 29 30  2  0
 14 31  2  0
 31 32  1  0
 32 33  2  0
 33  4  1  0
 10  5  1  0
 33 12  1  0
 30 17  1  0
 22 18  1  0
 30 26  1  0
  1 34  1  0
  1 35  1  0
  1 36  1  0
  2 37  1  0
  2 38  1  0
  3 39  1  0
  3 40  1  0
  6 41  1  0
  7 42  1  0
  8 43  1  0
  9 44  1  0
 13 45  1  0
 19 46  1  0
 20 47  1  0
 21 48  1  0
 27 49  1  0
 28 50  1  0
 29 51  1  0
 31 52  1  0
 32 53  1  0
M  CHG  2  22   1  23  -1
M  END
