
     RDKit          3D

 39 41  0  0  0  0  0  0  0  0999 V2000
   -3.3553   -3.4998   -0.8723 C   0  0  0  0  0  0  0  0  0  0  0  0
   -3.7532   -2.1649   -0.7129 O   0  0  0  0  0  0  0  0  0  0  0  0
   -2.8648   -1.1164   -0.5324 C   0  0  0  0  0  0  0  0  0  0  0  0
   -1.4863   -1.3543   -0.5001 C   0  0  0  0  0  0  0  0  0  0  0  0
   -0.5576   -0.3546   -0.3243 C   0  0  0  0  0  0  0  0  0  0  0  0
    0.8710   -0.6306   -0.2946 C   0  0  0  0  0  0  0  0  0  0  0  0
    1.4138   -1.8870   -0.4363 C   0  0  0  0  0  0  0  0  0  0  0  0
    2.7349   -1.7771   -0.3604 N   0  0  0  0  0  0  0  0  0  0  0  0
    3.0146   -0.4790   -0.1750 C   0  0  0  0  0  0  0  0  0  0  0  0
    4.3641    0.0627   -0.0404 C   0  0  0  0  0  0  0  0  0  0  0  0
    4.5850    1.4103    0.1488 C   0  0  0  0  0  0  0  0  0  0  0  0
    5.8550    1.9392    0.2780 C   0  0  0  0  0  0  0  0  0  0  0  0
    6.8924    1.1062    0.2155 N   0  0  0  0  0  0  0  0  0  0  0  0
    6.7264   -0.2153    0.0324 C   0  0  0  0  0  0  0  0  0  0  0  0
    5.4637   -0.7619   -0.0989 C   0  0  0  0  0  0  0  0  0  0  0  0
    1.8766    0.1817   -0.1401 O   0  0  0  0  0  0  0  0  0  0  0  0
   -1.0441    0.9455   -0.1741 C   0  0  0  0  0  0  0  0  0  0  0  0
   -2.3962    1.2128   -0.2013 C   0  0  0  0  0  0  0  0  0  0  0  0
   -2.8861    2.5020   -0.0527 O   0  0  0  0  0  0  0  0  0  0  0  0
   -1.9845    3.5856    0.1330 C   0  0  0  0  0  0  0  0  0  0  0  0
   -3.2966    0.1756   -0.3808 C   0  0  0  0  0  0  0  0  0  0  0  0
   -4.6569    0.4475   -0.4077 O   0  0  0  0  0  0  0  0  0  0  0  0
   -5.4694    0.4450    0.7376 C   0  0  0  0  0  0  0  0  0  0  0  0
   -3.1500   -3.9158    0.1366 H   0  0  0  0  0  0  0  0  0  0  0  0
   -2.4497   -3.6200   -1.5098 H   0  0  0  0  0  0  0  0  0  0  0  0
   -4.1865   -4.1194   -1.3189 H   0  0  0  0  0  0  0  0  0  0  0  0
   -1.1250   -2.3575   -0.6164 H   0  0  0  0  0  0  0  0  0  0  0  0
    0.8514   -2.8230   -0.5867 H   0  0  0  0  0  0  0  0  0  0  0  0
    3.7013    2.0651    0.1947 H   0  0  0  0  0  0  0  0  0  0  0  0
    5.9584    3.0208    0.4264 H   0  0  0  0  0  0  0  0  0  0  0  0
    7.6018   -0.8581   -0.0124 H   0  0  0  0  0  0  0  0  0  0  0  0
    5.3788   -1.8387   -0.2458 H   0  0  0  0  0  0  0  0  0  0  0  0
   -0.3267    1.7466   -0.0345 H   0  0  0  0  0  0  0  0  0  0  0  0
   -1.2419    3.2920    0.9318 H   0  0  0  0  0  0  0  0  0  0  0  0
   -1.4061    3.8056   -0.7657 H   0  0  0  0  0  0  0  0  0  0  0  0
   -2.5071    4.4734    0.5555 H   0  0  0  0  0  0  0  0  0  0  0  0
   -4.8956    0.5545    1.6832 H   0  0  0  0  0  0  0  0  0  0  0  0
   -6.1825    1.2914    0.6503 H   0  0  0  0  0  0  0  0  0  0  0  0
   -6.0669   -0.4898    0.8342 H   0  0  0  0  0  0  0  0  0  0  0  0
  1  2  1  0
  2  3  1  0
  3  4  2  0
  4  5  1  0
  5  6  1  0
  6  7  2  0
  7  8  1  0
  8  9  2  0
  9 10  1  0
 10 11  2  0
 11 12  1  0
 12 13  2  0
 13 14  1  0
 14 15  2  0
  9 16  1  0
  5 17  2  0
 17 18  1  0
 18 19  1  0
 19 20  1  0
 18 21  2  0
 21 22  1  0
 22 23  1  0
 21  3  1  0
 16  6  1  0
 15 10  1  0
  1 24  1  0
  1 25  1  0
  1 26  1  0
  4 27  1  0
  7 28  1  0
 11 29  1  0
 12 30  1  0
 14 31  1  0
 15 32  1  0
 17 33  1  0
 20 34  1  0
 20 35  1  0
 20 36  1  0
 23 37  1  0
 23 38  1  0
 23 39  1  0
M  END
