
     RDKit          3D

 52 56  0  0  0  0  0  0  0  0999 V2000
   -5.0189    3.5521    0.2156 C   0  0  0  0  0  0  0  0  0  0  0  0
   -3.6935    2.8721    0.2010 C   0  0  0  0  0  0  0  0  0  0  0  0
   -3.4656    1.5901    0.0524 N   0  0  0  0  0  4  0  0  0  0  0  0
   -2.0635    1.3233    0.0934 C   0  0  0  0  0  0  0  0  0  0  0  0
   -1.5841    0.1060   -0.0409 C   0  0  0  0  0  0  0  0  0  0  0  0
   -0.1517   -0.1355    0.0061 C   0  0  0  0  0  0  0  0  0  0  0  0
    0.4740   -0.9290   -0.9478 C   0  0  0  0  0  0  0  0  0  0  0  0
    1.8218   -1.1657   -0.8768 C   0  0  0  0  0  0  0  0  0  0  0  0
    2.6014   -0.6283    0.1371 C   0  0  0  0  0  0  0  0  0  0  0  0
    3.9980   -0.8672    0.1950 N   0  0  0  0  0  0  0  0  0  0  0  0
    4.8325   -0.6041    1.3478 C   0  0  0  0  0  0  0  0  0  0  0  0
    5.7189    0.5883    1.0772 C   0  0  0  0  0  0  0  0  0  0  0  0
    6.0574    0.6005   -0.3937 C   0  0  0  0  0  0  0  0  0  0  0  0
    6.1325   -0.8506   -0.8613 C   0  0  0  0  0  0  0  0  0  0  0  0
    4.7219   -1.4053   -0.9682 C   0  0  0  0  0  0  0  0  0  0  0  0
    1.9728    0.1569    1.0775 C   0  0  0  0  0  0  0  0  0  0  0  0
    0.6240    0.3936    1.0070 C   0  0  0  0  0  0  0  0  0  0  0  0
   -2.4849   -1.0302   -0.2285 C   0  0  0  0  0  0  0  0  0  0  0  0
   -2.2571   -2.3894   -0.3778 C   0  0  0  0  0  0  0  0  0  0  0  0
   -3.4789   -3.0130   -0.5079 C   0  0  0  0  0  0  0  0  0  0  0  0
   -4.4626   -2.0603   -0.4413 C   0  0  0  0  0  0  0  0  0  0  0  0
   -5.9275   -2.3041   -0.5373 C   0  0  0  0  0  0  0  0  0  0  0  0
   -3.8198   -0.8661   -0.2709 N   0  0  0  0  0  0  0  0  0  0  0  0
   -4.4710    0.4942   -0.1401 B   0  0  0  0  0  4  0  0  0  0  0  0
   -5.1954    0.7297   -1.4028 F   0  0  0  0  0  0  0  0  0  0  0  0
   -5.4799    0.5307    0.9052 F   0  0  0  0  0  0  0  0  0  0  0  0
   -1.4277    2.6296    0.2904 C   0  0  0  0  0  0  0  0  0  0  0  0
   -2.4021    3.5161    0.3499 C   0  0  0  0  0  0  0  0  0  0  0  0
   -5.1085    4.2392    1.0923 H   0  0  0  0  0  0  0  0  0  0  0  0
   -5.8517    2.8293    0.3011 H   0  0  0  0  0  0  0  0  0  0  0  0
   -5.1456    4.1532   -0.7322 H   0  0  0  0  0  0  0  0  0  0  0  0
   -0.0843   -1.3641   -1.7626 H   0  0  0  0  0  0  0  0  0  0  0  0
    2.3475   -1.7877   -1.6096 H   0  0  0  0  0  0  0  0  0  0  0  0
    4.2157   -0.4926    2.2448 H   0  0  0  0  0  0  0  0  0  0  0  0
    5.4366   -1.5317    1.5162 H   0  0  0  0  0  0  0  0  0  0  0  0
    5.1739    1.4938    1.4065 H   0  0  0  0  0  0  0  0  0  0  0  0
    6.6618    0.4264    1.6474 H   0  0  0  0  0  0  0  0  0  0  0  0
    7.0112    1.1191   -0.6185 H   0  0  0  0  0  0  0  0  0  0  0  0
    5.1882    1.0575   -0.9380 H   0  0  0  0  0  0  0  0  0  0  0  0
    6.6087   -0.9452   -1.8480 H   0  0  0  0  0  0  0  0  0  0  0  0
    6.6750   -1.4365   -0.0936 H   0  0  0  0  0  0  0  0  0  0  0  0
    4.2061   -1.0369   -1.8715 H   0  0  0  0  0  0  0  0  0  0  0  0
    4.6866   -2.5054   -0.9691 H   0  0  0  0  0  0  0  0  0  0  0  0
    2.5923    0.5808    1.8698 H   0  0  0  0  0  0  0  0  0  0  0  0
    0.1681    1.0088    1.7684 H   0  0  0  0  0  0  0  0  0  0  0  0
   -1.2812   -2.8452   -0.3808 H   0  0  0  0  0  0  0  0  0  0  0  0
   -3.5669   -4.0915   -0.6392 H   0  0  0  0  0  0  0  0  0  0  0  0
   -6.4859   -1.3465   -0.5713 H   0  0  0  0  0  0  0  0  0  0  0  0
   -6.1202   -2.9693   -1.3839 H   0  0  0  0  0  0  0  0  0  0  0  0
   -6.3033   -2.8201    0.3928 H   0  0  0  0  0  0  0  0  0  0  0  0
   -0.3585    2.8374    0.3690 H   0  0  0  0  0  0  0  0  0  0  0  0
   -2.2367    4.5925    0.4938 H   0  0  0  0  0  0  0  0  0  0  0  0
  1  2  1  0
  2  3  2  0
  3  4  1  0
  4  5  2  0
  5  6  1  0
  6  7  2  0
  7  8  1  0
  8  9  2  0
  9 10  1  0
 10 11  1  0
 11 12  1  0
 12 13  1  0
 13 14  1  0
 14 15  1  0
  9 16  1  0
 16 17  2  0
  5 18  1  0
 18 19  2  0
 19 20  1  0
 20 21  2  0
 21 22  1  0
 21 23  1  0
 23 24  1  0
 24 25  1  0
 24 26  1  0
  4 27  1  0
 27 28  2  0
 28  2  1  0
 24  3  1  0
 17  6  1  0
 23 18  1  0
 15 10  1  0
  1 29  1  0
  1 30  1  0
  1 31  1  0
  7 32  1  0
  8 33  1  0
 11 34  1  0
 11 35  1  0
 12 36  1  0
 12 37  1  0
 13 38  1  0
 13 39  1  0
 14 40  1  0
 14 41  1  0
 15 42  1  0
 15 43  1  0
 16 44  1  0
 17 45  1  0
 19 46  1  0
 20 47  1  0
 22 48  1  0
 22 49  1  0
 22 50  1  0
 27 51  1  0
 28 52  1  0
M  CHG  2   3   1  24  -1
M  END
