
     RDKit          3D

 78 84  0  0  0  0  0  0  0  0999 V2000
  -11.7654    0.7247   -1.0573 C   0  0  0  0  0  0  0  0  0  0  0  0
  -10.7372   -0.3720   -1.2976 C   0  0  0  0  0  0  0  0  0  0  0  0
  -10.8038   -1.2925   -0.0928 C   0  0  0  0  0  0  0  0  0  0  0  0
   -9.8185   -2.4075   -0.2464 C   0  0  0  0  0  0  0  0  0  0  0  0
   -8.4064   -1.9009   -0.3641 C   0  0  0  0  0  0  0  0  0  0  0  0
   -7.9761   -1.1112    0.8434 C   0  0  0  0  0  0  0  0  0  0  0  0
   -6.5972   -0.6828    0.5984 N   0  0  0  0  0  0  0  0  0  0  0  0
   -6.3849    0.5630   -0.0500 C   0  0  0  0  0  0  0  0  0  0  0  0
   -7.3777    1.2686   -0.3988 O   0  0  0  0  0  0  0  0  0  0  0  0
   -5.0196    1.0035   -0.3005 C   0  0  0  0  0  0  0  0  0  0  0  0
   -4.8639    2.2045   -0.9509 C   0  0  0  0  0  0  0  0  0  0  0  0
   -3.5962    2.6393   -1.2235 C   0  0  0  0  0  0  0  0  0  0  0  0
   -2.5120    1.8796   -0.8470 C   0  0  0  0  0  0  0  0  0  0  0  0
   -2.6102    0.6764   -0.1928 C   0  0  0  0  0  0  0  0  0  0  0  0
   -1.5350   -0.0506    0.1497 C   0  0  0  0  0  0  0  0  0  0  0  0
   -0.1390    0.3651    0.0652 C   0  0  0  0  0  0  0  0  0  0  0  0
    0.4944    1.5653    0.1510 C   0  0  0  0  0  0  0  0  0  0  0  0
    1.8340    1.5919    0.1199 C   0  0  0  0  0  0  0  0  0  0  0  0
    2.4921    0.4053    0.0058 C   0  0  0  0  0  0  0  0  0  0  0  0
    3.9539    0.1759   -0.0491 C   0  0  0  0  0  0  0  0  0  0  0  0
    4.8812    1.1595    0.0092 C   0  0  0  0  0  0  0  0  0  0  0  0
    6.1465    0.5631   -0.0711 C   0  0  0  0  0  0  0  0  0  0  0  0
    7.4065    1.3129   -0.0404 C   0  0  0  0  0  0  0  0  0  0  0  0
    7.3071    2.6996    0.0757 C   0  0  0  0  0  0  0  0  0  0  0  0
    8.4317    3.4629    0.1109 C   0  0  0  0  0  0  0  0  0  0  0  0
    9.6716    2.8681    0.0320 C   0  0  0  0  0  0  0  0  0  0  0  0
   10.8005    3.6583    0.0693 O   0  0  0  0  0  0  0  0  0  0  0  0
   12.0899    3.0770   -0.0097 C   0  0  0  0  0  0  0  0  0  0  0  0
    9.7816    1.5158   -0.0815 C   0  0  0  0  0  0  0  0  0  0  0  0
    8.6358    0.7086   -0.1198 C   0  0  0  0  0  0  0  0  0  0  0  0
    5.9547   -0.7519   -0.1747 N   0  0  0  0  0  0  0  0  0  0  0  0
    6.8640   -1.8432   -0.2870 C   0  0  0  0  0  0  0  0  0  0  0  0
    7.2569   -2.2784   -1.5340 C   0  0  0  0  0  0  0  0  0  0  0  0
    8.1238   -3.3769   -1.6085 C   0  0  0  0  0  0  0  0  0  0  0  0
    8.5904   -4.0282   -0.4889 C   0  0  0  0  0  0  0  0  0  0  0  0
    8.1885   -3.5809    0.7458 C   0  0  0  0  0  0  0  0  0  0  0  0
    7.3221   -2.4842    0.8413 C   0  0  0  0  0  0  0  0  0  0  0  0
    4.6126   -0.9577   -0.1587 N   0  0  0  0  0  0  0  0  0  0  0  0
    1.2242   -0.7256   -0.0565 S   0  0  0  0  0  0  0  0  0  0  0  0
   -1.7676   -1.2780    0.7866 C   0  0  0  0  0  0  0  0  0  0  0  0
   -3.0346   -1.7338    1.0619 C   0  0  0  0  0  0  0  0  0  0  0  0
   -4.1203   -0.9652    0.7034 C   0  0  0  0  0  0  0  0  0  0  0  0
   -3.9285    0.2566    0.0691 C   0  0  0  0  0  0  0  0  0  0  0  0
   -5.4787   -1.4536    0.9786 C   0  0  0  0  0  0  0  0  0  0  0  0
   -5.6591   -2.5586    1.5531 O   0  0  0  0  0  0  0  0  0  0  0  0
  -11.6077    1.1461   -0.0350 H   0  0  0  0  0  0  0  0  0  0  0  0
  -11.6192    1.5624   -1.7652 H   0  0  0  0  0  0  0  0  0  0  0  0
  -12.7720    0.3058   -1.1588 H   0  0  0  0  0  0  0  0  0  0  0  0
  -10.9895   -0.9196   -2.2227 H   0  0  0  0  0  0  0  0  0  0  0  0
   -9.7575    0.1031   -1.4242 H   0  0  0  0  0  0  0  0  0  0  0  0
  -10.6471   -0.7300    0.8449 H   0  0  0  0  0  0  0  0  0  0  0  0
  -11.8306   -1.7316   -0.0914 H   0  0  0  0  0  0  0  0  0  0  0  0
  -10.0428   -2.9478   -1.2002 H   0  0  0  0  0  0  0  0  0  0  0  0
   -9.8590   -3.1138    0.5850 H   0  0  0  0  0  0  0  0  0  0  0  0
   -8.2526   -1.2637   -1.2596 H   0  0  0  0  0  0  0  0  0  0  0  0
   -7.7593   -2.7997   -0.5266 H   0  0  0  0  0  0  0  0  0  0  0  0
   -8.6126   -0.2108    0.8960 H   0  0  0  0  0  0  0  0  0  0  0  0
   -8.0453   -1.6684    1.7800 H   0  0  0  0  0  0  0  0  0  0  0  0
   -5.7289    2.8117   -1.2508 H   0  0  0  0  0  0  0  0  0  0  0  0
   -3.4102    3.5727   -1.7321 H   0  0  0  0  0  0  0  0  0  0  0  0
   -1.5131    2.1984   -1.1131 H   0  0  0  0  0  0  0  0  0  0  0  0
   -0.0763    2.5189    0.2972 H   0  0  0  0  0  0  0  0  0  0  0  0
    2.4291    2.5347    0.1825 H   0  0  0  0  0  0  0  0  0  0  0  0
    4.6630    2.2282    0.1026 H   0  0  0  0  0  0  0  0  0  0  0  0
    6.3449    3.2180    0.1415 H   0  0  0  0  0  0  0  0  0  0  0  0
    8.3892    4.5343    0.1997 H   0  0  0  0  0  0  0  0  0  0  0  0
   12.2359    2.5498   -0.9669 H   0  0  0  0  0  0  0  0  0  0  0  0
   12.8716    3.8172    0.2133 H   0  0  0  0  0  0  0  0  0  0  0  0
   12.1235    2.2990    0.7922 H   0  0  0  0  0  0  0  0  0  0  0  0
   10.7353    1.0019   -0.1468 H   0  0  0  0  0  0  0  0  0  0  0  0
    8.7498   -0.3532   -0.2095 H   0  0  0  0  0  0  0  0  0  0  0  0
    6.8969   -1.7746   -2.4223 H   0  0  0  0  0  0  0  0  0  0  0  0
    8.4176   -3.6999   -2.5873 H   0  0  0  0  0  0  0  0  0  0  0  0
    9.2586   -4.8756   -0.5316 H   0  0  0  0  0  0  0  0  0  0  0  0
    8.5510   -4.0879    1.6372 H   0  0  0  0  0  0  0  0  0  0  0  0
    7.0172   -2.1469    1.8183 H   0  0  0  0  0  0  0  0  0  0  0  0
   -0.9227   -1.8972    1.0761 H   0  0  0  0  0  0  0  0  0  0  0  0
   -3.1694   -2.6936    1.5585 H   0  0  0  0  0  0  0  0  0  0  0  0
  1  2  1  0
  2  3  1  0
  3  4  1  0
  4  5  1  0
  5  6  1  0
  6  7  1  0
  7  8  1  0
  8  9  2  0
  8 10  1  0
 10 11  1  0
 11 12  2  0
 12 13  1  0
 13 14  2  0
 14 15  1  0
 15 16  1  0
 16 17  2  0
 17 18  1  0
 18 19  2  0
 19 20  1  0
 20 21  1  0
 21 22  2  0
 22 23  1  0
 23 24  2  0
 24 25  1  0
 25 26  2  0
 26 27  1  0
 27 28  1  0
 26 29  1  0
 29 30  2  0
 22 31  1  0
 31 32  1  0
 32 33  2  0
 33 34  1  0
 34 35  2  0
 35 36  1  0
 36 37  2  0
 31 38  1  0
 19 39  1  0
 15 40  2  0
 40 41  1  0
 41 42  2  0
 42 43  1  0
 42 44  1  0
 44 45  2  0
 44  7  1  0
 43 10  2  0
 43 14  1  0
 39 16  1  0
 38 20  2  0
 30 23  1  0
 37 32  1  0
  1 46  1  0
  1 47  1  0
  1 48  1  0
  2 49  1  0
  2 50  1  0
  3 51  1  0
  3 52  1  0
  4 53  1  0
  4 54  1  0
  5 55  1  0
  5 56  1  0
  6 57  1  0
  6 58  1  0
 11 59  1  0
 12 60  1  0
 13 61  1  0
 17 62  1  0
 18 63  1  0
 21 64  1  0
 24 65  1  0
 25 66  1  0
 28 67  1  0
 28 68  1  0
 28 69  1  0
 29 70  1  0
 30 71  1  0
 33 72  1  0
 34 73  1  0
 35 74  1  0
 36 75  1  0
 37 76  1  0
 40 77  1  0
 41 78  1  0
M  END
