
     RDKit          3D

 84 90  0  0  0  0  0  0  0  0999 V2000
   -8.5583    2.6242    1.0852 F   0  0  0  0  0  0  0  0  0  0  0  0
   -7.2298    2.5507    0.9617 C   0  0  0  0  0  0  0  0  0  0  0  0
   -6.6331    2.4700   -0.2724 C   0  0  0  0  0  0  0  0  0  0  0  0
   -5.3113    2.3345   -0.4798 C   0  0  0  0  0  0  0  0  0  0  0  0
   -4.4086    2.2496    0.6179 C   0  0  0  0  0  0  0  0  0  0  0  0
   -3.1926    1.6686    0.5373 C   0  0  0  0  0  0  0  0  0  0  0  0
   -2.0128    1.1035    0.4754 C   0  0  0  0  0  0  0  0  0  0  0  0
   -0.7188    0.4645    0.4259 C   0  0  0  0  0  0  0  0  0  0  0  0
    0.2466    1.0965   -0.2662 C   0  0  0  0  0  0  0  0  0  0  0  0
    0.2048    2.3442   -0.8358 C   0  0  0  0  0  0  0  0  0  0  0  0
    0.1503    3.5092   -1.3552 C   0  0  0  0  0  0  0  0  0  0  0  0
    0.0742    4.7675   -1.9248 C   0  0  0  0  0  0  0  0  0  0  0  0
    0.7471    5.8660   -1.5260 C   0  0  0  0  0  0  0  0  0  0  0  0
    0.6617    7.0500   -2.2059 C   0  0  0  0  0  0  0  0  0  0  0  0
   -0.1303    7.1813   -3.3516 C   0  0  0  0  0  0  0  0  0  0  0  0
   -0.2328    8.3413   -4.0451 F   0  0  0  0  0  0  0  0  0  0  0  0
   -0.8201    6.0766   -3.7789 C   0  0  0  0  0  0  0  0  0  0  0  0
   -0.7360    4.9086   -3.1071 C   0  0  0  0  0  0  0  0  0  0  0  0
    1.5742    0.2233   -0.1814 C   0  0  0  0  0  0  0  0  0  0  0  0
    2.5124    0.8899   -0.5698 C   0  0  0  0  0  0  0  0  0  0  0  0
    3.7227    1.7530   -1.1006 C   0  0  0  0  0  0  0  0  0  0  0  0
    4.6223    2.3831   -1.4734 C   0  0  0  0  0  0  0  0  0  0  0  0
    4.9347    2.8465   -2.7806 C   0  0  0  0  0  0  0  0  0  0  0  0
    6.0616    3.5690   -3.1438 C   0  0  0  0  0  0  0  0  0  0  0  0
    6.9381    3.8800   -2.1236 C   0  0  0  0  0  0  0  0  0  0  0  0
    8.0939    4.6090   -2.4819 F   0  0  0  0  0  0  0  0  0  0  0  0
    6.7765    3.5341   -0.8295 C   0  0  0  0  0  0  0  0  0  0  0  0
    5.6412    2.7985   -0.4814 C   0  0  0  0  0  0  0  0  0  0  0  0
    1.4865   -0.9960    0.4861 C   0  0  0  0  0  0  0  0  0  0  0  0
    2.6898   -1.8326    0.2774 C   0  0  0  0  0  0  0  0  0  0  0  0
    3.6863   -2.5399    0.0848 C   0  0  0  0  0  0  0  0  0  0  0  0
    4.7942   -3.3281   -0.1064 C   0  0  0  0  0  0  0  0  0  0  0  0
    4.8150   -4.5426   -0.6559 C   0  0  0  0  0  0  0  0  0  0  0  0
    5.9695   -5.3422   -0.8541 C   0  0  0  0  0  0  0  0  0  0  0  0
    7.1665   -4.8374   -0.4454 C   0  0  0  0  0  0  0  0  0  0  0  0
    8.3449   -5.5385   -0.5900 F   0  0  0  0  0  0  0  0  0  0  0  0
    7.2078   -3.5762    0.1406 C   0  0  0  0  0  0  0  0  0  0  0  0
    6.0769   -2.8111    0.3179 C   0  0  0  0  0  0  0  0  0  0  0  0
    0.3901   -1.4681    1.0940 C   0  0  0  0  0  0  0  0  0  0  0  0
   -0.1075   -2.8975    0.5003 C   0  0  0  0  0  0  0  0  0  0  0  0
   -0.5191   -4.0261    0.0153 C   0  0  0  0  0  0  0  0  0  0  0  0
   -0.9187   -5.1128   -0.4755 C   0  0  0  0  0  0  0  0  0  0  0  0
   -2.1233   -5.2181   -1.1534 C   0  0  0  0  0  0  0  0  0  0  0  0
   -2.6896   -6.2519   -1.7329 C   0  0  0  0  0  0  0  0  0  0  0  0
   -1.9328   -7.4895   -1.6389 C   0  0  0  0  0  0  0  0  0  0  0  0
   -2.4889   -8.5781   -2.1785 F   0  0  0  0  0  0  0  0  0  0  0  0
   -0.7454   -7.5139   -1.0033 C   0  0  0  0  0  0  0  0  0  0  0  0
   -0.2280   -6.3423   -0.4224 C   0  0  0  0  0  0  0  0  0  0  0  0
   -0.7669   -0.7849    1.1484 C   0  0  0  0  0  0  0  0  0  0  0  0
   -1.8124   -0.9078    1.9628 C   0  0  0  0  0  0  0  0  0  0  0  0
   -2.7915   -1.0026    2.7359 C   0  0  0  0  0  0  0  0  0  0  0  0
   -3.8784   -1.0892    3.6119 C   0  0  0  0  0  0  0  0  0  0  0  0
   -5.1412   -0.6254    3.3411 C   0  0  0  0  0  0  0  0  0  0  0  0
   -6.1205   -0.4105    4.2677 C   0  0  0  0  0  0  0  0  0  0  0  0
   -5.8078   -0.6934    5.5894 C   0  0  0  0  0  0  0  0  0  0  0  0
   -6.7349   -0.4639    6.5347 F   0  0  0  0  0  0  0  0  0  0  0  0
   -4.5661   -1.1689    5.9270 C   0  0  0  0  0  0  0  0  0  0  0  0
   -3.5938   -1.3730    4.9552 C   0  0  0  0  0  0  0  0  0  0  0  0
   -5.0577    2.3476    1.8793 C   0  0  0  0  0  0  0  0  0  0  0  0
   -6.3848    2.4874    2.0627 C   0  0  0  0  0  0  0  0  0  0  0  0
   -7.3029    2.5017   -1.1395 H   0  0  0  0  0  0  0  0  0  0  0  0
   -4.7924    2.2802   -1.4298 H   0  0  0  0  0  0  0  0  0  0  0  0
    1.3882    5.7586   -0.6414 H   0  0  0  0  0  0  0  0  0  0  0  0
    1.2070    7.9223   -1.8581 H   0  0  0  0  0  0  0  0  0  0  0  0
   -1.4087    6.2146   -4.6877 H   0  0  0  0  0  0  0  0  0  0  0  0
   -1.3007    4.0515   -3.4640 H   0  0  0  0  0  0  0  0  0  0  0  0
    4.1595    2.5385   -3.5022 H   0  0  0  0  0  0  0  0  0  0  0  0
    6.2178    3.8542   -4.1472 H   0  0  0  0  0  0  0  0  0  0  0  0
    7.4756    3.8021   -0.0240 H   0  0  0  0  0  0  0  0  0  0  0  0
    5.4838    2.4692    0.5269 H   0  0  0  0  0  0  0  0  0  0  0  0
    3.8725   -5.0063   -1.0142 H   0  0  0  0  0  0  0  0  0  0  0  0
    5.9180   -6.3091   -1.3158 H   0  0  0  0  0  0  0  0  0  0  0  0
    8.1969   -3.2126    0.4538 H   0  0  0  0  0  0  0  0  0  0  0  0
    6.0734   -1.8346    0.7490 H   0  0  0  0  0  0  0  0  0  0  0  0
   -2.7405   -4.2694   -1.1168 H   0  0  0  0  0  0  0  0  0  0  0  0
   -3.5966   -6.3429   -2.2632 H   0  0  0  0  0  0  0  0  0  0  0  0
   -0.1125   -8.3807   -0.9384 H   0  0  0  0  0  0  0  0  0  0  0  0
    0.7229   -6.4003    0.0977 H   0  0  0  0  0  0  0  0  0  0  0  0
   -5.3777   -0.4571    2.2907 H   0  0  0  0  0  0  0  0  0  0  0  0
   -7.0657   -0.0189    3.9853 H   0  0  0  0  0  0  0  0  0  0  0  0
   -4.3638   -1.3949    6.9675 H   0  0  0  0  0  0  0  0  0  0  0  0
   -2.6079   -1.7717    5.1573 H   0  0  0  0  0  0  0  0  0  0  0  0
   -4.4224    2.3017    2.7770 H   0  0  0  0  0  0  0  0  0  0  0  0
   -6.8200    2.5386    3.0723 H   0  0  0  0  0  0  0  0  0  0  0  0
  1  2  1  0
  2  3  2  0
  3  4  1  0
  4  5  2  0
  5  6  1  0
  6  7  3  0
  7  8  1  0
  8  9  2  0
  9 10  1  0
 10 11  3  0
 11 12  1  0
 12 13  2  0
 13 14  1  0
 14 15  2  0
 15 16  1  0
 15 17  1  0
 17 18  2  0
  9 19  1  0
 19 20  1  0
 20 21  3  0
 21 22  1  0
 22 23  2  0
 23 24  1  0
 24 25  2  0
 25 26  1  0
 25 27  1  0
 27 28  2  0
 19 29  2  0
 29 30  1  0
 30 31  3  0
 31 32  1  0
 32 33  2  0
 33 34  1  0
 34 35  2  0
 35 36  1  0
 35 37  1  0
 37 38  2  0
 29 39  1  0
 39 40  1  0
 40 41  3  0
 41 42  1  0
 42 43  2  0
 43 44  1  0
 44 45  2  0
 45 46  1  0
 45 47  1  0
 47 48  2  0
 39 49  2  0
 49 50  1  0
 50 51  3  0
 51 52  1  0
 52 53  2  0
 53 54  1  0
 54 55  2  0
 55 56  1  0
 55 57  1  0
 57 58  2  0
  5 59  1  0
 59 60  2  0
 60  2  1  0
 49  8  1  0
 58 52  1  0
 18 12  1  0
 28 22  1  0
 38 32  1  0
 48 42  1  0
  3 61  1  0
  4 62  1  0
 13 63  1  0
 14 64  1  0
 17 65  1  0
 18 66  1  0
 23 67  1  0
 24 68  1  0
 27 69  1  0
 28 70  1  0
 33 71  1  0
 34 72  1  0
 37 73  1  0
 38 74  1  0
 43 75  1  0
 44 76  1  0
 47 77  1  0
 48 78  1  0
 53 79  1  0
 54 80  1  0
 57 81  1  0
 58 82  1  0
 59 83  1  0
 60 84  1  0
M  END
