
     RDKit          3D

 45 49  0  0  0  0  0  0  0  0999 V2000
   -3.1627   -1.3814    1.3123 C   0  0  0  0  0  0  0  0  0  0  0  0
   -4.1958   -0.4810    0.8457 C   0  0  0  0  0  0  0  0  0  0  0  0
   -5.4982   -0.5706    1.4104 C   0  0  0  0  0  0  0  0  0  0  0  0
   -6.5305    0.2349    1.0057 C   0  0  0  0  0  0  0  0  0  0  0  0
   -7.6553    0.1212    1.5289 O   0  0  0  0  0  0  0  0  0  0  0  0
   -6.3321    1.1134    0.0786 O   0  0  0  0  0  0  0  0  0  0  0  0
   -5.1655    1.2663   -0.4974 C   0  0  0  0  0  0  0  0  0  0  0  0
   -5.0163    2.2183   -1.4794 C   0  0  0  0  0  0  0  0  0  0  0  0
   -3.8316    2.4205   -2.1105 C   0  0  0  0  0  0  0  0  0  0  0  0
   -2.7476    1.6524   -1.7586 C   0  0  0  0  0  0  0  0  0  0  0  0
   -1.5360    1.8624   -2.3990 C   0  0  0  0  0  0  0  0  0  0  0  0
   -0.4516    1.1156   -2.0592 C   0  0  0  0  0  0  0  0  0  0  0  0
   -0.5186    0.1549   -1.0965 C   0  0  0  0  0  0  0  0  0  0  0  0
    0.6496   -0.6401   -0.7391 C   0  0  0  0  0  0  0  0  0  0  0  0
    1.9283   -0.5952   -1.2421 C   0  0  0  0  0  0  0  0  0  0  0  0
    2.6941   -1.5214   -0.6121 N   0  0  0  0  0  0  0  0  0  0  0  0
    4.0922   -1.8053   -0.8368 C   0  0  0  0  0  0  0  0  0  0  0  0
    4.9724   -0.9706    0.0428 C   0  0  0  0  0  0  0  0  0  0  0  0
    5.4321    0.2658   -0.3626 C   0  0  0  0  0  0  0  0  0  0  0  0
    6.2442    1.0426    0.4416 C   0  0  0  0  0  0  0  0  0  0  0  0
    6.6233    0.5918    1.6962 C   0  0  0  0  0  0  0  0  0  0  0  0
    6.1702   -0.6491    2.1202 C   0  0  0  0  0  0  0  0  0  0  0  0
    5.3614   -1.4009    1.2955 C   0  0  0  0  0  0  0  0  0  0  0  0
    1.8986   -2.1186    0.2569 N   0  0  0  0  0  0  0  0  0  0  0  0
    0.6720   -1.6006    0.1912 N   0  0  0  0  0  0  0  0  0  0  0  0
   -1.7457   -0.0791   -0.4273 C   0  0  0  0  0  0  0  0  0  0  0  0
   -2.8329    0.6621   -0.7622 C   0  0  0  0  0  0  0  0  0  0  0  0
   -4.0590    0.4691   -0.1268 C   0  0  0  0  0  0  0  0  0  0  0  0
   -2.4223   -0.9993    2.0422 H   0  0  0  0  0  0  0  0  0  0  0  0
   -2.8736   -2.2304    0.6516 H   0  0  0  0  0  0  0  0  0  0  0  0
   -3.7173   -2.0611    2.0850 H   0  0  0  0  0  0  0  0  0  0  0  0
   -5.6219   -1.3190    2.1854 H   0  0  0  0  0  0  0  0  0  0  0  0
   -5.9212    2.8086   -1.7229 H   0  0  0  0  0  0  0  0  0  0  0  0
   -3.6969    3.1611   -2.8821 H   0  0  0  0  0  0  0  0  0  0  0  0
   -1.4784    2.6254   -3.1648 H   0  0  0  0  0  0  0  0  0  0  0  0
    0.4865    1.2835   -2.5611 H   0  0  0  0  0  0  0  0  0  0  0  0
    2.2373    0.0866   -2.0192 H   0  0  0  0  0  0  0  0  0  0  0  0
    4.3219   -2.8776   -0.6959 H   0  0  0  0  0  0  0  0  0  0  0  0
    4.3905   -1.5536   -1.8917 H   0  0  0  0  0  0  0  0  0  0  0  0
    5.1587    0.6484   -1.3297 H   0  0  0  0  0  0  0  0  0  0  0  0
    6.6147    2.0108    0.1452 H   0  0  0  0  0  0  0  0  0  0  0  0
    7.2640    1.1797    2.3579 H   0  0  0  0  0  0  0  0  0  0  0  0
    6.4878   -0.9664    3.1061 H   0  0  0  0  0  0  0  0  0  0  0  0
    5.0190   -2.3649    1.6443 H   0  0  0  0  0  0  0  0  0  0  0  0
   -1.7079   -0.8093    0.2898 H   0  0  0  0  0  0  0  0  0  0  0  0
  1  2  1  0
  2  3  2  0
  3  4  1  0
  4  5  2  0
  4  6  1  0
  6  7  1  0
  7  8  2  0
  8  9  1  0
  9 10  2  0
 10 11  1  0
 11 12  2  0
 12 13  1  0
 13 14  1  0
 14 15  2  0
 15 16  1  0
 16 17  1  0
 17 18  1  0
 18 19  2  0
 19 20  1  0
 20 21  2  0
 21 22  1  0
 22 23  2  0
 16 24  1  0
 24 25  2  0
 13 26  2  0
 26 27  1  0
 27 28  2  0
 28  2  1  0
 28  7  1  0
 27 10  1  0
 25 14  1  0
 23 18  1  0
  1 29  1  0
  1 30  1  0
  1 31  1  0
  3 32  1  0
  8 33  1  0
  9 34  1  0
 11 35  1  0
 12 36  1  0
 15 37  1  0
 17 38  1  0
 17 39  1  0
 19 40  1  0
 20 41  1  0
 21 42  1  0
 22 43  1  0
 23 44  1  0
 26 45  1  0
M  END
