
     RDKit          3D

 53 56  0  0  0  0  0  0  0  0999 V2000
   -4.5406    4.6924    0.1952 C   0  0  0  0  0  0  0  0  0  0  0  0
   -5.1459    3.6396    1.1327 C   0  0  0  0  0  0  0  0  0  0  0  0
   -4.6624    2.2676    0.7288 C   0  0  0  0  0  0  0  0  0  0  0  0
   -2.8609    2.1581    0.8228 S   0  0  0  0  0  0  0  0  0  0  0  0
   -2.2977    0.5390    0.3514 C   0  0  0  0  0  0  0  0  0  0  0  0
   -1.0454    0.1745    0.3237 N   0  0  0  0  0  4  0  0  0  0  0  0
   -0.9826   -1.2015   -0.1058 C   0  0  0  0  0  0  0  0  0  0  0  0
    0.1648   -1.8286   -0.2351 C   0  0  0  0  0  0  0  0  0  0  0  0
    0.1851   -3.2196   -0.6698 C   0  0  0  0  0  0  0  0  0  0  0  0
    1.0203   -3.6825   -1.6389 C   0  0  0  0  0  0  0  0  0  0  0  0
    1.0050   -5.0073   -1.9812 C   0  0  0  0  0  0  0  0  0  0  0  0
    0.1607   -5.9083   -1.3716 C   0  0  0  0  0  0  0  0  0  0  0  0
   -0.6867   -5.4174   -0.3828 C   0  0  0  0  0  0  0  0  0  0  0  0
   -0.6686   -4.0890   -0.0418 C   0  0  0  0  0  0  0  0  0  0  0  0
    1.4350   -1.1805    0.0521 C   0  0  0  0  0  0  0  0  0  0  0  0
    2.7452   -1.6308   -0.0037 C   0  0  0  0  0  0  0  0  0  0  0  0
    3.5827   -0.6068    0.3804 C   0  0  0  0  0  0  0  0  0  0  0  0
    2.7741    0.4675    0.6695 C   0  0  0  0  0  0  0  0  0  0  0  0
    3.3373    2.0668    1.2128 S   0  0  0  0  0  0  0  0  0  0  0  0
    5.1229    2.1615    1.2673 C   0  0  0  0  0  0  0  0  0  0  0  0
    5.7266    2.1348   -0.1249 C   0  0  0  0  0  0  0  0  0  0  0  0
    5.2375    3.3297   -0.9394 C   0  0  0  0  0  0  0  0  0  0  0  0
    1.4758    0.1086    0.4674 N   0  0  0  0  0  0  0  0  0  0  0  0
    0.2224    0.9528    0.6548 B   0  0  0  0  0  4  0  0  0  0  0  0
    0.3012    2.1787   -0.1467 F   0  0  0  0  0  0  0  0  0  0  0  0
    0.1793    1.3078    2.0833 F   0  0  0  0  0  0  0  0  0  0  0  0
   -2.3762   -1.5765   -0.3215 C   0  0  0  0  0  0  0  0  0  0  0  0
   -3.1652   -0.5498   -0.0525 C   0  0  0  0  0  0  0  0  0  0  0  0
   -4.9625   -0.5207   -0.1697 S   0  0  0  0  0  0  0  0  0  0  0  0
   -5.5246   -2.1117   -0.6975 C   0  0  0  0  0  0  0  0  0  0  0  0
   -5.8965   -3.1570   -1.0235 N   0  0  0  0  0  0  0  0  0  0  0  0
   -5.2258    5.5265    0.0177 H   0  0  0  0  0  0  0  0  0  0  0  0
   -3.5855    4.9907    0.6649 H   0  0  0  0  0  0  0  0  0  0  0  0
   -4.3079    4.1660   -0.7442 H   0  0  0  0  0  0  0  0  0  0  0  0
   -6.2486    3.7233    1.0602 H   0  0  0  0  0  0  0  0  0  0  0  0
   -4.8935    3.8876    2.1928 H   0  0  0  0  0  0  0  0  0  0  0  0
   -4.9423    2.1495   -0.3488 H   0  0  0  0  0  0  0  0  0  0  0  0
   -5.0991    1.5152    1.3850 H   0  0  0  0  0  0  0  0  0  0  0  0
    1.6910   -3.0182   -2.1455 H   0  0  0  0  0  0  0  0  0  0  0  0
    1.6582   -5.3995   -2.7475 H   0  0  0  0  0  0  0  0  0  0  0  0
    0.1426   -6.9554   -1.6363 H   0  0  0  0  0  0  0  0  0  0  0  0
   -1.3548   -6.1301    0.0995 H   0  0  0  0  0  0  0  0  0  0  0  0
   -1.3270   -3.7695    0.7252 H   0  0  0  0  0  0  0  0  0  0  0  0
    3.1011   -2.6025   -0.2873 H   0  0  0  0  0  0  0  0  0  0  0  0
    4.6713   -0.6997    0.4300 H   0  0  0  0  0  0  0  0  0  0  0  0
    5.5177    1.2613    1.7914 H   0  0  0  0  0  0  0  0  0  0  0  0
    5.4953    3.0676    1.7806 H   0  0  0  0  0  0  0  0  0  0  0  0
    5.3983    1.2468   -0.6667 H   0  0  0  0  0  0  0  0  0  0  0  0
    6.8298    2.1512   -0.1114 H   0  0  0  0  0  0  0  0  0  0  0  0
    4.1721    3.2535   -1.1970 H   0  0  0  0  0  0  0  0  0  0  0  0
    5.8508    3.4484   -1.8451 H   0  0  0  0  0  0  0  0  0  0  0  0
    5.3612    4.2416   -0.3101 H   0  0  0  0  0  0  0  0  0  0  0  0
   -2.7653   -2.5458   -0.6615 H   0  0  0  0  0  0  0  0  0  0  0  0
  1  2  1  0
  2  3  1  0
  3  4  1  0
  4  5  1  0
  5  6  2  0
  6  7  1  0
  7  8  2  0
  8  9  1  0
  9 10  2  0
 10 11  1  0
 11 12  2  0
 12 13  1  0
 13 14  2  0
  8 15  1  0
 15 16  2  0
 16 17  1  0
 17 18  2  0
 18 19  1  0
 19 20  1  0
 20 21  1  0
 21 22  1  0
 18 23  1  0
 23 24  1  0
 24 25  1  0
 24 26  1  0
  7 27  1  0
 27 28  2  0
 28 29  1  0
 29 30  1  0
 30 31  3  0
 28  5  1  0
 24  6  1  0
 14  9  1  0
 23 15  1  0
  1 32  1  0
  1 33  1  0
  1 34  1  0
  2 35  1  0
  2 36  1  0
  3 37  1  0
  3 38  1  0
 10 39  1  0
 11 40  1  0
 12 41  1  0
 13 42  1  0
 14 43  1  0
 16 44  1  0
 17 45  1  0
 20 46  1  0
 20 47  1  0
 21 48  1  0
 21 49  1  0
 22 50  1  0
 22 51  1  0
 22 52  1  0
 27 53  1  0
M  CHG  2   6   1  24  -1
M  END
