
     RDKit          3D

 26 28  0  0  0  0  0  0  0  0999 V2000
   -0.4938    0.9328   -2.2021 O   0  0  0  0  0  0  0  0  0  0  0  0
    0.2560    0.5495   -1.2409 C   0  0  0  0  0  0  0  0  0  0  0  0
    1.5468    0.5861   -1.3899 O   0  0  0  0  0  0  0  0  0  0  0  0
    2.3583    0.2113   -0.4535 C   0  0  0  0  0  0  0  0  0  0  0  0
    3.7339    0.2776   -0.6829 C   0  0  0  0  0  0  0  0  0  0  0  0
    4.6102   -0.1177    0.3038 C   0  0  0  0  0  0  0  0  0  0  0  0
    4.0894   -0.5703    1.4980 C   0  0  0  0  0  0  0  0  0  0  0  0
    2.7330   -0.6363    1.7258 C   0  0  0  0  0  0  0  0  0  0  0  0
    1.8405   -0.2438    0.7468 C   0  0  0  0  0  0  0  0  0  0  0  0
    0.5089   -0.2914    0.9260 N   0  0  0  0  0  0  0  0  0  0  0  0
   -0.2848    0.1040   -0.0645 C   0  0  0  0  0  0  0  0  0  0  0  0
   -1.7514    0.0625    0.1046 C   0  0  0  0  0  0  0  0  0  0  0  0
   -2.5355    1.1279   -0.2899 C   0  0  0  0  0  0  0  0  0  0  0  0
   -3.9083    1.1187   -0.1448 C   0  0  0  0  0  0  0  0  0  0  0  0
   -4.5551    0.0325    0.4061 C   0  0  0  0  0  0  0  0  0  0  0  0
   -6.3044    0.0085    0.5965 Cl  0  0  0  0  0  0  0  0  0  0  0  0
   -3.7755   -1.0339    0.8015 C   0  0  0  0  0  0  0  0  0  0  0  0
   -2.3917   -1.0276    0.6565 C   0  0  0  0  0  0  0  0  0  0  0  0
    4.1006    0.6394   -1.6353 H   0  0  0  0  0  0  0  0  0  0  0  0
    5.6967   -0.0724    0.1410 H   0  0  0  0  0  0  0  0  0  0  0  0
    4.7737   -0.8859    2.2863 H   0  0  0  0  0  0  0  0  0  0  0  0
    2.3144   -0.9873    2.6521 H   0  0  0  0  0  0  0  0  0  0  0  0
   -2.0010    1.9856   -0.7273 H   0  0  0  0  0  0  0  0  0  0  0  0
   -4.4757    1.9820   -0.4714 H   0  0  0  0  0  0  0  0  0  0  0  0
   -4.2895   -1.8842    1.2335 H   0  0  0  0  0  0  0  0  0  0  0  0
   -1.7956   -1.8679    0.9700 H   0  0  0  0  0  0  0  0  0  0  0  0
  1  2  2  0
  2  3  1  0
  3  4  1  0
  4  5  2  0
  5  6  1  0
  6  7  2  0
  7  8  1  0
  8  9  2  0
  9 10  1  0
 10 11  2  0
 11 12  1  0
 12 13  2  0
 13 14  1  0
 14 15  2  0
 15 16  1  0
 15 17  1  0
 17 18  2  0
 11  2  1  0
 18 12  1  0
  9  4  1  0
  5 19  1  0
  6 20  1  0
  7 21  1  0
  8 22  1  0
 13 23  1  0
 14 24  1  0
 17 25  1  0
 18 26  1  0
M  END
