
     RDKit          3D

 26 28  0  0  0  0  0  0  0  0999 V2000
   -3.5515   -0.2660    0.2011 C   0  0  0  0  0  0  0  0  0  0  0  0
   -2.2433    0.4297    0.1165 C   0  0  0  0  0  0  0  0  0  0  0  0
   -2.1972    1.8178    0.0841 C   0  0  0  0  0  0  0  0  0  0  0  0
   -0.9554    2.3910    0.0056 C   0  0  0  0  0  0  0  0  0  0  0  0
   -0.8321    3.6406   -0.0279 O   0  0  0  0  0  0  0  0  0  0  0  0
    0.1339    1.6700   -0.0369 O   0  0  0  0  0  0  0  0  0  0  0  0
    0.1361    0.3615   -0.0088 C   0  0  0  0  0  0  0  0  0  0  0  0
   -1.0745   -0.2935    0.0698 C   0  0  0  0  0  0  0  0  0  0  0  0
   -1.1313   -1.6865    0.1028 C   0  0  0  0  0  0  0  0  0  0  0  0
    0.0581   -2.3783    0.0543 C   0  0  0  0  0  0  0  0  0  0  0  0
   -0.0479   -4.1388    0.0979 Cl  0  0  0  0  0  0  0  0  0  0  0  0
    1.2906   -1.7580   -0.0247 C   0  0  0  0  0  0  0  0  0  0  0  0
    2.5264   -2.1959   -0.0811 O   0  0  0  0  0  0  0  0  0  0  0  0
    3.3900   -1.2201   -0.1481 C   0  0  0  0  0  0  0  0  0  0  0  0
    2.6382   -0.0435   -0.1334 C   0  0  0  0  0  0  0  0  0  0  0  0
    3.1577    1.3334   -0.1908 C   0  0  0  0  0  0  0  0  0  0  0  0
    1.3003   -0.3727   -0.0551 C   0  0  0  0  0  0  0  0  0  0  0  0
   -4.3628    0.4757   -0.0263 H   0  0  0  0  0  0  0  0  0  0  0  0
   -3.7094   -0.7251    1.2023 H   0  0  0  0  0  0  0  0  0  0  0  0
   -3.6480   -1.0548   -0.5772 H   0  0  0  0  0  0  0  0  0  0  0  0
   -3.1225    2.3906    0.1211 H   0  0  0  0  0  0  0  0  0  0  0  0
   -2.1006   -2.1577    0.1646 H   0  0  0  0  0  0  0  0  0  0  0  0
    4.4696   -1.2997   -0.2040 H   0  0  0  0  0  0  0  0  0  0  0  0
    3.2413    1.8077    0.8057 H   0  0  0  0  0  0  0  0  0  0  0  0
    2.4793    1.9518   -0.8445 H   0  0  0  0  0  0  0  0  0  0  0  0
    4.1553    1.3208   -0.6672 H   0  0  0  0  0  0  0  0  0  0  0  0
  1  2  1  0
  2  3  2  0
  3  4  1  0
  4  5  2  0
  4  6  1  0
  6  7  1  0
  7  8  2  0
  8  9  1  0
  9 10  2  0
 10 11  1  0
 10 12  1  0
 12 13  1  0
 13 14  1  0
 14 15  2  0
 15 16  1  0
 15 17  1  0
  8  2  1  0
 17 12  2  0
 17  7  1  0
  1 18  1  0
  1 19  1  0
  1 20  1  0
  3 21  1  0
  9 22  1  0
 14 23  1  0
 16 24  1  0
 16 25  1  0
 16 26  1  0
M  END
