
     RDKit          3D

 51 56  0  0  0  0  0  0  0  0999 V2000
   -3.2761    2.1990    0.7799 C   0  0  0  0  0  0  0  0  0  0  0  0
   -4.3490    1.4437   -0.0410 C   0  0  0  0  0  0  0  0  0  0  0  0
   -3.6262    0.5096   -1.0151 C   0  0  0  0  0  0  0  0  0  0  0  0
   -2.8251   -0.4579   -0.2944 N   0  0  0  0  0  0  0  0  0  0  0  0
   -3.5178   -1.5375    0.3327 C   0  0  0  0  0  0  0  0  0  0  0  0
   -4.9020   -1.6688    0.1831 C   0  0  0  0  0  0  0  0  0  0  0  0
   -5.6398   -2.6905    0.7415 C   0  0  0  0  0  0  0  0  0  0  0  0
   -5.0234   -3.6551    1.4935 C   0  0  0  0  0  0  0  0  0  0  0  0
   -3.6656   -3.5470    1.6534 C   0  0  0  0  0  0  0  0  0  0  0  0
   -2.9384   -2.5211    1.0905 C   0  0  0  0  0  0  0  0  0  0  0  0
   -1.1730   -2.4822    1.3536 S   0  0  0  0  0  0  0  0  0  0  0  0
   -0.5525   -1.0862    0.4751 C   0  0  0  0  0  0  0  0  0  0  0  0
    0.8016   -0.8599    0.5206 C   0  0  0  0  0  0  0  0  0  0  0  0
    1.3888    0.2005   -0.1161 C   0  0  0  0  0  0  0  0  0  0  0  0
    2.8142    0.4004   -0.0723 C   0  0  0  0  0  0  0  0  0  0  0  0
    3.6568   -0.5901   -0.3358 C   0  0  0  0  0  0  0  0  0  0  0  0
    3.4158   -2.0020   -0.7050 C   0  0  0  0  0  0  0  0  0  0  0  0
    4.5902   -2.5704   -0.8529 C   0  0  0  0  0  0  0  0  0  0  0  0
    5.5985   -1.5677   -0.5901 C   0  0  0  0  0  0  0  0  0  0  0  0
    5.0422   -0.4172   -0.2897 N   0  0  0  0  0  4  0  0  0  0  0  0
    5.6727    0.9077    0.0599 B   0  0  0  0  0  4  0  0  0  0  0  0
    6.5582    0.6884    1.2129 F   0  0  0  0  0  0  0  0  0  0  0  0
    6.4814    1.3233   -1.0995 F   0  0  0  0  0  0  0  0  0  0  0  0
    4.6402    1.9601    0.3398 N   0  0  0  0  0  0  0  0  0  0  0  0
    4.7722    3.2857    0.6976 C   0  0  0  0  0  0  0  0  0  0  0  0
    3.5464    3.8633    0.8566 C   0  0  0  0  0  0  0  0  0  0  0  0
    2.6288    2.8900    0.5962 C   0  0  0  0  0  0  0  0  0  0  0  0
    3.3282    1.7333    0.2815 C   0  0  0  0  0  0  0  0  0  0  0  0
    0.5640    1.0440   -0.8126 C   0  0  0  0  0  0  0  0  0  0  0  0
   -0.7989    0.8042   -0.8494 C   0  0  0  0  0  0  0  0  0  0  0  0
   -1.4114   -0.2617   -0.2138 C   0  0  0  0  0  0  0  0  0  0  0  0
   -2.6498    1.4711    1.3468 H   0  0  0  0  0  0  0  0  0  0  0  0
   -2.6918    2.8687    0.1440 H   0  0  0  0  0  0  0  0  0  0  0  0
   -3.8498    2.7648    1.5393 H   0  0  0  0  0  0  0  0  0  0  0  0
   -4.9271    0.9131    0.7266 H   0  0  0  0  0  0  0  0  0  0  0  0
   -4.8959    2.2299   -0.5790 H   0  0  0  0  0  0  0  0  0  0  0  0
   -3.0782    1.1693   -1.6843 H   0  0  0  0  0  0  0  0  0  0  0  0
   -4.4474    0.0180   -1.6251 H   0  0  0  0  0  0  0  0  0  0  0  0
   -5.4568   -0.9504   -0.4121 H   0  0  0  0  0  0  0  0  0  0  0  0
   -6.7068   -2.7555    0.6029 H   0  0  0  0  0  0  0  0  0  0  0  0
   -5.5386   -4.4812    1.9581 H   0  0  0  0  0  0  0  0  0  0  0  0
   -3.1645   -4.3179    2.2566 H   0  0  0  0  0  0  0  0  0  0  0  0
    1.4468   -1.5361    1.0886 H   0  0  0  0  0  0  0  0  0  0  0  0
    2.4536   -2.4510   -0.8277 H   0  0  0  0  0  0  0  0  0  0  0  0
    4.7878   -3.6196   -1.1271 H   0  0  0  0  0  0  0  0  0  0  0  0
    6.6867   -1.7178   -0.6287 H   0  0  0  0  0  0  0  0  0  0  0  0
    5.7287    3.7575    0.8227 H   0  0  0  0  0  0  0  0  0  0  0  0
    3.2949    4.8819    1.1323 H   0  0  0  0  0  0  0  0  0  0  0  0
    1.5677    3.0182    0.6402 H   0  0  0  0  0  0  0  0  0  0  0  0
    0.9987    1.8786   -1.3302 H   0  0  0  0  0  0  0  0  0  0  0  0
   -1.3590    1.5203   -1.4115 H   0  0  0  0  0  0  0  0  0  0  0  0
  1  2  1  0
  2  3  1  0
  3  4  1  0
  4  5  1  0
  5  6  2  0
  6  7  1  0
  7  8  2  0
  8  9  1  0
  9 10  2  0
 10 11  1  0
 11 12  1  0
 12 13  2  0
 13 14  1  0
 14 15  1  0
 15 16  2  0
 16 17  1  0
 17 18  2  0
 18 19  1  0
 19 20  2  0
 20 21  1  0
 21 22  1  0
 21 23  1  0
 21 24  1  0
 24 25  1  0
 25 26  2  0
 26 27  1  0
 27 28  2  0
 14 29  2  0
 29 30  1  0
 30 31  2  0
 31  4  1  0
 10  5  1  0
 31 12  1  0
 28 15  1  0
 20 16  1  0
 28 24  1  0
  1 32  1  0
  1 33  1  0
  1 34  1  0
  2 35  1  0
  2 36  1  0
  3 37  1  0
  3 38  1  0
  6 39  1  0
  7 40  1  0
  8 41  1  0
  9 42  1  0
 13 43  1  0
 17 44  1  0
 18 45  1  0
 19 46  1  0
 25 47  1  0
 26 48  1  0
 27 49  1  0
 29 50  1  0
 30 51  1  0
M  CHG  2  20   1  21  -1
M  END
