
     RDKit          3D

 23 23  0  0  0  0  0  0  0  0999 V2000
    3.7864    0.1498    0.5274 C   0  0  0  0  0  0  0  0  0  0  0  0
    2.9589   -1.1091    0.2746 C   0  0  0  0  0  0  0  0  0  0  0  0
    1.5823   -0.8087    0.1901 O   0  0  0  0  0  0  0  0  0  0  0  0
    1.0174    0.0296   -0.7215 C   0  0  0  0  0  0  0  0  0  0  0  0
    1.7336    0.6041   -1.5737 O   0  0  0  0  0  0  0  0  0  0  0  0
   -0.4203    0.2500   -0.6953 C   0  0  0  0  0  0  0  0  0  0  0  0
   -0.9880    1.1146   -1.6388 C   0  0  0  0  0  0  0  0  0  0  0  0
   -2.3494    1.3248   -1.6158 C   0  0  0  0  0  0  0  0  0  0  0  0
   -3.1160    0.6808   -0.6678 C   0  0  0  0  0  0  0  0  0  0  0  0
   -2.5785   -0.1739    0.2697 C   0  0  0  0  0  0  0  0  0  0  0  0
   -3.4085   -0.8315    1.2475 N   0  0  0  0  0  0  0  0  0  0  0  0
   -1.2167   -0.3808    0.2427 C   0  0  0  0  0  0  0  0  0  0  0  0
    3.8363    0.7711   -0.4084 H   0  0  0  0  0  0  0  0  0  0  0  0
    4.8309   -0.2121    0.6795 H   0  0  0  0  0  0  0  0  0  0  0  0
    3.4143    0.7187    1.3880 H   0  0  0  0  0  0  0  0  0  0  0  0
    3.3240   -1.5445   -0.6769 H   0  0  0  0  0  0  0  0  0  0  0  0
    3.1235   -1.7929    1.1336 H   0  0  0  0  0  0  0  0  0  0  0  0
   -0.3341    1.5935   -2.3611 H   0  0  0  0  0  0  0  0  0  0  0  0
   -2.8035    1.9919   -2.3403 H   0  0  0  0  0  0  0  0  0  0  0  0
   -4.1891    0.8341   -0.6345 H   0  0  0  0  0  0  0  0  0  0  0  0
   -3.3347   -0.5871    2.2575 H   0  0  0  0  0  0  0  0  0  0  0  0
   -4.0966   -1.5623    0.9629 H   0  0  0  0  0  0  0  0  0  0  0  0
   -0.7721   -1.0601    0.9842 H   0  0  0  0  0  0  0  0  0  0  0  0
  1  2  1  0
  2  3  1  0
  3  4  1  0
  4  5  2  0
  4  6  1  0
  6  7  2  0
  7  8  1  0
  8  9  2  0
  9 10  1  0
 10 11  1  0
 10 12  2  0
 12  6  1  0
  1 13  1  0
  1 14  1  0
  1 15  1  0
  2 16  1  0
  2 17  1  0
  7 18  1  0
  8 19  1  0
  9 20  1  0
 11 21  1  0
 11 22  1  0
 12 23  1  0
M  END
