
     RDKit          3D

 43 47  0  0  0  0  0  0  0  0999 V2000
    4.0382   -0.0194   -2.9865 C   0  0  0  0  0  0  0  0  0  0  0  0
    3.2083    0.0551   -1.8682 O   0  0  0  0  0  0  0  0  0  0  0  0
    3.6651    0.2708   -0.5862 C   0  0  0  0  0  0  0  0  0  0  0  0
    5.0289    0.4203   -0.4151 C   0  0  0  0  0  0  0  0  0  0  0  0
    5.5754    0.6406    0.8396 C   0  0  0  0  0  0  0  0  0  0  0  0
    4.7104    0.7047    1.9054 C   0  0  0  0  0  0  0  0  0  0  0  0
    3.3597    0.5561    1.7311 C   0  0  0  0  0  0  0  0  0  0  0  0
    2.7972    0.3340    0.4746 C   0  0  0  0  0  0  0  0  0  0  0  0
    1.3552    0.1832    0.3467 C   0  0  0  0  0  0  0  0  0  0  0  0
    0.5208    0.2490    1.4042 N   0  0  0  0  0  0  0  0  0  0  0  0
   -0.7507    0.0785    1.0143 C   0  0  0  0  0  0  0  0  0  0  0  0
   -0.7332   -0.1035   -0.3436 C   0  0  0  0  0  0  0  0  0  0  0  0
    0.5713   -0.0315   -0.7045 N   0  0  0  0  0  0  0  0  0  0  0  0
   -1.9799   -0.3241   -1.1305 C   0  0  0  0  0  0  0  0  0  0  0  0
   -2.2069   -0.1513   -2.3802 C   0  0  0  0  0  0  0  0  0  0  0  0
   -3.5258   -0.4478   -2.8829 C   0  0  0  0  0  0  0  0  0  0  0  0
   -3.9390   -0.6206   -4.0495 O   0  0  0  0  0  0  0  0  0  0  0  0
   -4.5289   -0.5235   -1.3739 S   0  0  0  0  0  0  0  0  0  0  0  0
   -3.0992   -0.8196   -0.2938 C   0  0  1  0  0  0  0  0  0  0  0  0
   -2.9621   -2.2456    0.1051 C   0  0  0  0  0  0  0  0  0  0  0  0
   -3.2166    0.1366    0.8617 C   0  0  1  0  0  0  0  0  0  0  0  0
   -3.3957    1.5272    0.2915 C   0  0  0  0  0  0  0  0  0  0  0  0
   -4.5734   -0.3076    1.9809 S   0  0  0  0  0  0  0  0  0  0  0  0
   -3.6347   -0.0082    3.4742 C   0  0  0  0  0  0  0  0  0  0  0  0
   -4.0680    0.1611    4.6311 O   0  0  0  0  0  0  0  0  0  0  0  0
   -2.2570   -0.0088    3.0255 C   0  0  0  0  0  0  0  0  0  0  0  0
   -2.0450    0.0604    1.7622 C   0  0  0  0  0  0  0  0  0  0  0  0
    4.5885   -0.9812   -3.0195 H   0  0  0  0  0  0  0  0  0  0  0  0
    4.8168    0.7959   -3.0129 H   0  0  0  0  0  0  0  0  0  0  0  0
    3.3916    0.1032   -3.8905 H   0  0  0  0  0  0  0  0  0  0  0  0
    5.7288    0.3743   -1.2337 H   0  0  0  0  0  0  0  0  0  0  0  0
    6.6373    0.7586    0.9848 H   0  0  0  0  0  0  0  0  0  0  0  0
    5.1480    0.8779    2.8861 H   0  0  0  0  0  0  0  0  0  0  0  0
    2.7385    0.6186    2.6179 H   0  0  0  0  0  0  0  0  0  0  0  0
    0.9303   -0.1319   -1.6924 H   0  0  0  0  0  0  0  0  0  0  0  0
   -1.4340    0.2147   -3.0914 H   0  0  0  0  0  0  0  0  0  0  0  0
   -3.5040   -2.4665    1.0380 H   0  0  0  0  0  0  0  0  0  0  0  0
   -3.3741   -2.8706   -0.7307 H   0  0  0  0  0  0  0  0  0  0  0  0
   -1.8978   -2.5126    0.1925 H   0  0  0  0  0  0  0  0  0  0  0  0
   -2.5104    1.7253   -0.3428 H   0  0  0  0  0  0  0  0  0  0  0  0
   -4.2719    1.4915   -0.3789 H   0  0  0  0  0  0  0  0  0  0  0  0
   -3.4827    2.3049    1.0691 H   0  0  0  0  0  0  0  0  0  0  0  0
   -1.4192   -0.0683    3.7715 H   0  0  0  0  0  0  0  0  0  0  0  0
  1  2  1  0
  2  3  1  0
  3  4  2  0
  4  5  1  0
  5  6  2  0
  6  7  1  0
  7  8  2  0
  8  9  1  0
  9 10  2  0
 10 11  1  0
 11 12  2  0
 12 13  1  0
 12 14  1  0
 14 15  2  0
 15 16  1  0
 16 17  2  0
 16 18  1  0
 18 19  1  0
 19 20  1  1
 19 21  1  0
 21 22  1  6
 21 23  1  0
 23 24  1  0
 24 25  2  0
 24 26  1  0
 26 27  2  0
  8  3  1  0
 13  9  1  0
 19 14  1  0
 27 21  1  0
 27 11  1  0
  1 28  1  0
  1 29  1  0
  1 30  1  0
  4 31  1  0
  5 32  1  0
  6 33  1  0
  7 34  1  0
 13 35  1  0
 15 36  1  0
 20 37  1  0
 20 38  1  0
 20 39  1  0
 22 40  1  0
 22 41  1  0
 22 42  1  0
 26 43  1  0
M  END
