
     RDKit          3D

 34 37  0  0  0  0  0  0  0  0999 V2000
    5.1314   -0.1277    0.3203 C   0  0  0  0  0  0  0  0  0  0  0  0
    3.6456   -0.0797    0.2742 C   0  0  0  0  0  0  0  0  0  0  0  0
    2.8808   -0.5314    1.3239 C   0  0  0  0  0  0  0  0  0  0  0  0
    1.5041   -0.4962    1.2960 C   0  0  0  0  0  0  0  0  0  0  0  0
    0.8950    0.0156    0.1614 C   0  0  0  0  0  0  0  0  0  0  0  0
   -0.5525    0.0659    0.0091 C   0  0  0  0  0  0  0  0  0  0  0  0
   -1.1591    1.1715   -0.3744 C   0  0  0  0  0  0  0  0  0  0  0  0
   -0.6336    2.4958   -0.7121 C   0  0  0  0  0  0  0  0  0  0  0  0
   -1.6797    3.2343   -1.0405 C   0  0  0  0  0  0  0  0  0  0  0  0
   -2.9046    2.4599   -0.9388 C   0  0  0  0  0  0  0  0  0  0  0  0
   -4.5097    3.0516   -1.2826 Cl  0  0  0  0  0  0  0  0  0  0  0  0
   -2.5627    1.2518   -0.5446 N   0  0  0  0  0  4  0  0  0  0  0  0
   -3.4922    0.0906   -0.2939 B   0  0  0  0  0  4  0  0  0  0  0  0
   -4.1724   -0.2595   -1.5652 F   0  0  0  0  0  0  0  0  0  0  0  0
   -4.5245    0.4392    0.6810 F   0  0  0  0  0  0  0  0  0  0  0  0
   -2.7173   -1.1419    0.1334 N   0  0  0  0  0  0  0  0  0  0  0  0
   -3.1296   -2.4134    0.4476 C   0  0  0  0  0  0  0  0  0  0  0  0
   -4.8248   -2.8744    0.4003 Cl  0  0  0  0  0  0  0  0  0  0  0  0
   -2.0490   -3.1927    0.7783 C   0  0  0  0  0  0  0  0  0  0  0  0
   -0.9393   -2.3725    0.6628 C   0  0  0  0  0  0  0  0  0  0  0  0
   -1.3919   -1.1055    0.2604 C   0  0  0  0  0  0  0  0  0  0  0  0
    1.6551    0.4751   -0.9056 C   0  0  0  0  0  0  0  0  0  0  0  0
    3.0211    0.4228   -0.8381 C   0  0  0  0  0  0  0  0  0  0  0  0
    5.4466   -1.0325    0.9163 H   0  0  0  0  0  0  0  0  0  0  0  0
    5.5579   -0.3030   -0.6895 H   0  0  0  0  0  0  0  0  0  0  0  0
    5.5937    0.7471    0.7780 H   0  0  0  0  0  0  0  0  0  0  0  0
    3.3926   -0.9252    2.1954 H   0  0  0  0  0  0  0  0  0  0  0  0
    0.8816   -0.8368    2.1048 H   0  0  0  0  0  0  0  0  0  0  0  0
    0.4042    2.7538   -0.6726 H   0  0  0  0  0  0  0  0  0  0  0  0
   -1.5887    4.2854   -1.3418 H   0  0  0  0  0  0  0  0  0  0  0  0
   -2.0645   -4.2401    1.0705 H   0  0  0  0  0  0  0  0  0  0  0  0
    0.0815   -2.6706    0.8482 H   0  0  0  0  0  0  0  0  0  0  0  0
    1.2001    0.8644   -1.7989 H   0  0  0  0  0  0  0  0  0  0  0  0
    3.6050    0.7783   -1.6632 H   0  0  0  0  0  0  0  0  0  0  0  0
  1  2  1  0
  2  3  2  0
  3  4  1  0
  4  5  2  0
  5  6  1  0
  6  7  2  0
  7  8  1  0
  8  9  2  0
  9 10  1  0
 10 11  1  0
 10 12  2  0
 12 13  1  0
 13 14  1  0
 13 15  1  0
 13 16  1  0
 16 17  1  0
 17 18  1  0
 17 19  2  0
 19 20  1  0
 20 21  2  0
  5 22  1  0
 22 23  2  0
 23  2  1  0
 21  6  1  0
 12  7  1  0
 21 16  1  0
  1 24  1  0
  1 25  1  0
  1 26  1  0
  3 27  1  0
  4 28  1  0
  8 29  1  0
  9 30  1  0
 19 31  1  0
 20 32  1  0
 22 33  1  0
 23 34  1  0
M  CHG  2  12   1  13  -1
M  END
