
     RDKit          3D

 31 35  0  0  0  0  0  0  0  0999 V2000
   -1.7641    2.7305    0.0806 O   0  0  0  0  0  0  0  0  0  0  0  0
   -1.6576    1.4604    0.0861 C   0  0  0  0  0  0  0  0  0  0  0  0
   -2.7767    0.5223    0.0704 C   0  0  0  0  0  0  0  0  0  0  0  0
   -4.1319    0.7191    0.0474 C   0  0  0  0  0  0  0  0  0  0  0  0
   -4.9874   -0.3746    0.0365 C   0  0  0  0  0  0  0  0  0  0  0  0
   -4.5286   -1.6751    0.0479 C   0  0  0  0  0  0  0  0  0  0  0  0
   -3.1589   -1.8648    0.0712 C   0  0  0  0  0  0  0  0  0  0  0  0
   -2.2921   -0.7663    0.0822 C   0  0  0  0  0  0  0  0  0  0  0  0
   -0.8388   -0.6738    0.1060 C   0  0  0  0  0  0  0  0  0  0  0  0
    0.0671   -1.6206    0.1238 N   0  0  0  0  0  0  0  0  0  0  0  0
    1.4481   -1.2805    0.1456 C   0  0  0  0  0  0  0  0  0  0  0  0
    2.4297   -2.2784    0.1649 C   0  0  0  0  0  0  0  0  0  0  0  0
    3.7546   -1.9288    0.1857 C   0  0  0  0  0  0  0  0  0  0  0  0
    4.1702   -0.6105    0.1887 C   0  0  0  0  0  0  0  0  0  0  0  0
    3.1981    0.3651    0.1697 C   0  0  0  0  0  0  0  0  0  0  0  0
    3.5560    1.7071    0.1717 C   0  0  0  0  0  0  0  0  0  0  0  0
    2.6145    2.7120    0.1531 C   0  0  0  0  0  0  0  0  0  0  0  0
    1.2652    2.3913    0.1317 C   0  0  0  0  0  0  0  0  0  0  0  0
    0.9113    1.0604    0.1298 C   0  0  0  0  0  0  0  0  0  0  0  0
    1.8555    0.0393    0.1485 C   0  0  0  0  0  0  0  0  0  0  0  0
   -0.4630    0.6973    0.1082 N   0  0  0  0  0  0  0  0  0  0  0  0
   -4.5119    1.7446    0.0381 H   0  0  0  0  0  0  0  0  0  0  0  0
   -6.0596   -0.1844    0.0182 H   0  0  0  0  0  0  0  0  0  0  0  0
   -5.2284   -2.5002    0.0388 H   0  0  0  0  0  0  0  0  0  0  0  0
   -2.7713   -2.8768    0.0806 H   0  0  0  0  0  0  0  0  0  0  0  0
    2.1219   -3.3243    0.1629 H   0  0  0  0  0  0  0  0  0  0  0  0
    4.4893   -2.7287    0.2003 H   0  0  0  0  0  0  0  0  0  0  0  0
    5.2432   -0.3705    0.2058 H   0  0  0  0  0  0  0  0  0  0  0  0
    4.5996    2.0030    0.1881 H   0  0  0  0  0  0  0  0  0  0  0  0
    2.9311    3.7422    0.1553 H   0  0  0  0  0  0  0  0  0  0  0  0
    0.5150    3.1640    0.1170 H   0  0  0  0  0  0  0  0  0  0  0  0
  1  2  2  0
  2  3  1  0
  3  4  2  0
  4  5  1  0
  5  6  2  0
  6  7  1  0
  7  8  2  0
  8  9  1  0
  9 10  2  0
 10 11  1  0
 11 12  2  0
 12 13  1  0
 13 14  2  0
 14 15  1  0
 15 16  2  0
 16 17  1  0
 17 18  2  0
 18 19  1  0
 19 20  2  0
 19 21  1  0
 21  2  1  0
  8  3  1  0
 21  9  1  0
 20 11  1  0
 20 15  1  0
  4 22  1  0
  5 23  1  0
  6 24  1  0
  7 25  1  0
 12 26  1  0
 13 27  1  0
 14 28  1  0
 16 29  1  0
 17 30  1  0
 18 31  1  0
M  END
