
     RDKit          3D

 38 40  0  0  0  0  0  0  0  0999 V2000
    5.5158    0.4153   -0.0166 C   0  0  0  0  0  0  0  0  0  0  0  0
    4.4777   -0.1210    0.7480 O   0  0  0  0  0  0  0  0  0  0  0  0
    3.1820   -0.0924    0.2605 C   0  0  0  0  0  0  0  0  0  0  0  0
    2.9430    0.4631   -0.9663 C   0  0  0  0  0  0  0  0  0  0  0  0
    1.6551    0.4940   -1.4563 C   0  0  0  0  0  0  0  0  0  0  0  0
    1.3131    1.0795   -2.7791 C   0  0  0  0  0  0  0  0  0  0  0  0
    0.6154   -0.0385   -0.6999 C   0  0  0  0  0  0  0  0  0  0  0  0
    0.8756   -0.5978    0.5418 C   0  0  0  0  0  0  0  0  0  0  0  0
    2.1604   -0.6353    1.0441 C   0  0  0  0  0  0  0  0  0  0  0  0
    2.4346   -1.2376    2.3795 C   0  0  0  0  0  0  0  0  0  0  0  0
    0.0014   -1.1904    1.4771 O   0  0  0  0  0  0  0  0  0  0  0  0
   -1.3722   -1.2900    1.3527 C   0  0  0  0  0  0  0  0  0  0  0  0
   -1.9978   -2.1441    2.0319 O   0  0  0  0  0  0  0  0  0  0  0  0
   -2.2384   -0.4962    0.4948 C   0  0  0  0  0  0  0  0  0  0  0  0
   -3.5042   -0.4122    1.0373 C   0  0  0  0  0  0  0  0  0  0  0  0
   -3.8750   -1.0488    2.3171 C   0  0  0  0  0  0  0  0  0  0  0  0
   -4.4206    0.3335    0.2780 C   0  0  0  0  0  0  0  0  0  0  0  0
   -6.0481    0.4759    0.9165 Cl  0  0  0  0  0  0  0  0  0  0  0  0
   -4.0963    0.9380   -0.9134 C   0  0  0  0  0  0  0  0  0  0  0  0
   -5.0682    1.6712   -1.6217 O   0  0  0  0  0  0  0  0  0  0  0  0
   -2.8098    0.8085   -1.3899 C   0  0  0  0  0  0  0  0  0  0  0  0
   -2.3803    1.5718   -2.9047 Cl  0  0  0  0  0  0  0  0  0  0  0  0
   -1.8597    0.0934   -0.7005 C   0  0  0  0  0  0  0  0  0  0  0  0
   -0.6116    0.0809   -1.3526 O   0  0  0  0  0  0  0  0  0  0  0  0
    6.4820    0.4114    0.5129 H   0  0  0  0  0  0  0  0  0  0  0  0
    5.2513    1.4539   -0.2783 H   0  0  0  0  0  0  0  0  0  0  0  0
    5.5635   -0.1595   -0.9673 H   0  0  0  0  0  0  0  0  0  0  0  0
    3.7620    0.8750   -1.5465 H   0  0  0  0  0  0  0  0  0  0  0  0
    2.2253    1.0619   -3.4396 H   0  0  0  0  0  0  0  0  0  0  0  0
    0.8839    2.0861   -2.6783 H   0  0  0  0  0  0  0  0  0  0  0  0
    0.5520    0.4634   -3.3119 H   0  0  0  0  0  0  0  0  0  0  0  0
    1.7751   -2.0935    2.5826 H   0  0  0  0  0  0  0  0  0  0  0  0
    2.2750   -0.4783    3.1926 H   0  0  0  0  0  0  0  0  0  0  0  0
    3.5211   -1.5156    2.4175 H   0  0  0  0  0  0  0  0  0  0  0  0
   -3.3010   -0.7312    3.2049 H   0  0  0  0  0  0  0  0  0  0  0  0
   -4.8576   -0.5223    2.5802 H   0  0  0  0  0  0  0  0  0  0  0  0
   -4.2439   -2.0691    2.2768 H   0  0  0  0  0  0  0  0  0  0  0  0
   -4.7806    2.0970   -2.4928 H   0  0  0  0  0  0  0  0  0  0  0  0
  1  2  1  0
  2  3  1  0
  3  4  2  0
  4  5  1  0
  5  6  1  0
  5  7  2  0
  7  8  1  0
  8  9  2  0
  9 10  1  0
  8 11  1  0
 11 12  1  0
 12 13  2  0
 12 14  1  0
 14 15  2  0
 15 16  1  0
 15 17  1  0
 17 18  1  0
 17 19  2  0
 19 20  1  0
 19 21  1  0
 21 22  1  0
 21 23  2  0
 23 24  1  0
  9  3  1  0
 23 14  1  0
 24  7  1  0
  1 25  1  0
  1 26  1  0
  1 27  1  0
  4 28  1  0
  6 29  1  0
  6 30  1  0
  6 31  1  0
 10 32  1  0
 10 33  1  0
 10 34  1  0
 16 35  1  0
 16 36  1  0
 16 37  1  0
 20 38  1  0
M  END
