
     RDKit          3D

 44 52  0  0  0  0  0  0  0  0999 V2000
   -6.6752    2.3415    0.6411 F   0  0  0  0  0  0  0  0  0  0  0  0
   -5.5967    1.5354    0.6367 C   0  0  0  0  0  0  0  0  0  0  0  0
   -5.7254    0.1484    0.7364 C   0  0  0  0  0  0  0  0  0  0  0  0
   -6.9956   -0.3580    0.8387 F   0  0  0  0  0  0  0  0  0  0  0  0
   -4.6530   -0.7093    0.7359 C   0  0  0  0  0  0  0  0  0  0  0  0
   -4.7770   -2.0602    0.8306 F   0  0  0  0  0  0  0  0  0  0  0  0
   -3.3980   -0.1874    0.6334 C   0  0  0  0  0  0  0  0  0  0  0  0
   -3.2521    1.2204    0.5312 C   0  0  0  0  0  0  0  0  0  0  0  0
   -4.3259    2.0687    0.5325 C   0  0  0  0  0  0  0  0  0  0  0  0
   -4.1097    3.4055    0.4312 F   0  0  0  0  0  0  0  0  0  0  0  0
   -1.8189    1.4964    0.4210 C   0  0  0  0  0  0  0  0  0  0  0  0
   -0.9996    2.5279    0.2972 N   0  0  0  0  0  0  0  0  0  0  0  0
    0.4477    2.3071    0.1888 C   0  0  0  0  0  0  0  0  0  0  0  0
    1.5127    3.0732   -0.1987 C   0  0  0  0  0  0  0  0  0  0  0  0
    1.6891    4.4083   -0.4216 C   0  0  0  0  0  0  0  0  0  0  0  0
    0.6337    5.2150   -0.2285 F   0  0  0  0  0  0  0  0  0  0  0  0
    2.9167    4.9091   -0.8339 C   0  0  0  0  0  0  0  0  0  0  0  0
    3.0809    6.2231   -1.0506 F   0  0  0  0  0  0  0  0  0  0  0  0
    3.9830    4.0489   -1.0243 C   0  0  0  0  0  0  0  0  0  0  0  0
    5.1952    4.5226   -1.4289 F   0  0  0  0  0  0  0  0  0  0  0  0
    3.8057    2.6895   -0.7981 C   0  0  0  0  0  0  0  0  0  0  0  0
    4.8341    1.8135   -0.9783 F   0  0  0  0  0  0  0  0  0  0  0  0
    2.6147    2.1877   -0.3959 C   0  0  0  0  0  0  0  0  0  0  0  0
    2.1766    0.9159   -0.1202 C   0  0  0  0  0  0  0  0  0  0  0  0
    0.9100    1.0635    0.2256 N   0  0  0  0  0  0  0  0  0  0  0  0
    0.1301   -0.0319    0.7739 B   0  0  0  0  0  4  0  0  0  0  0  0
    0.3378   -0.0586    2.6432 Cl  0  0  0  0  0  0  0  0  0  0  0  0
    0.5942   -1.2980    0.1603 N   0  0  0  0  0  0  0  0  0  0  0  0
   -0.2134   -2.3373    0.2690 C   0  0  0  0  0  0  0  0  0  0  0  0
    0.6135   -3.3872   -0.0557 C   0  0  0  0  0  0  0  0  0  0  0  0
    0.3990   -4.7289   -0.1326 C   0  0  0  0  0  0  0  0  0  0  0  0
   -0.8336   -5.1988    0.1541 F   0  0  0  0  0  0  0  0  0  0  0  0
    1.4232   -5.5784   -0.4965 C   0  0  0  0  0  0  0  0  0  0  0  0
    1.1842   -6.9057   -0.5654 F   0  0  0  0  0  0  0  0  0  0  0  0
    2.6717   -5.0489   -0.7824 C   0  0  0  0  0  0  0  0  0  0  0  0
    3.6686   -5.8803   -1.1369 F   0  0  0  0  0  0  0  0  0  0  0  0
    2.9161   -3.6932   -0.7123 C   0  0  0  0  0  0  0  0  0  0  0  0
    4.1392   -3.1493   -0.9898 F   0  0  0  0  0  0  0  0  0  0  0  0
    1.9020   -2.8412   -0.3511 C   0  0  0  0  0  0  0  0  0  0  0  0
    1.8364   -1.4677   -0.2070 C   0  0  0  0  0  0  0  0  0  0  0  0
    2.6653   -0.4436   -0.3464 N   0  0  0  0  0  0  0  0  0  0  0  0
   -1.5162   -2.1474    0.4853 N   0  0  0  0  0  0  0  0  0  0  0  0
   -2.0852   -0.8028    0.5964 C   0  0  0  0  0  0  0  0  0  0  0  0
   -1.3059    0.1925    0.4925 N   0  0  0  0  0  4  0  0  0  0  0  0
  1  2  1  0
  2  3  2  0
  3  4  1  0
  3  5  1  0
  5  6  1  0
  5  7  2  0
  7  8  1  0
  8  9  2  0
  9 10  1  0
  8 11  1  0
 11 12  2  0
 12 13  1  0
 13 14  2  0
 14 15  1  0
 15 16  1  0
 15 17  2  0
 17 18  1  0
 17 19  1  0
 19 20  1  0
 19 21  2  0
 21 22  1  0
 21 23  1  0
 23 24  2  0
 24 25  1  0
 25 26  1  0
 26 27  1  0
 26 28  1  0
 28 29  1  0
 29 30  1  0
 30 31  2  0
 31 32  1  0
 31 33  1  0
 33 34  1  0
 33 35  2  0
 35 36  1  0
 35 37  1  0
 37 38  1  0
 37 39  2  0
 39 40  1  0
 40 41  2  0
 29 42  2  0
 42 43  1  0
 43 44  2  0
  9  2  1  0
 44 11  1  0
 43  7  1  0
 25 13  1  0
 44 26  1  0
 23 14  1  0
 41 24  1  0
 40 28  1  0
 39 30  1  0
M  CHG  2  26  -1  44   1
M  END
