
 OpenBabel03212209593D

102113  0  0  0  0  0  0  0  0999 V2000
    0.8395    0.3768    1.8824 C   0  0  0  0  0  0  0  0  0  0  0  0
   -0.0585    1.6047    1.8348 C   0  0  0  0  0  0  0  0  0  0  0  0
    0.1385    2.4442    0.5703 C   0  0  0  0  0  0  0  0  0  0  0  0
   -0.3845    1.7975   -0.7145 C   0  0  0  0  0  0  0  0  0  0  0  0
   -1.8363    1.8444   -0.8445 N   0  0  0  0  0  0  0  0  0  0  0  0
   -2.5208    2.9295   -1.3493 C   0  0  0  0  0  0  0  0  0  0  0  0
   -2.0671    4.1946   -1.7519 C   0  0  0  0  0  0  0  0  0  0  0  0
   -2.9849    5.0748   -2.3333 C   0  0  0  0  0  0  0  0  0  0  0  0
   -4.3192    4.7222   -2.5501 C   0  0  0  0  0  0  0  0  0  0  0  0
   -5.2527    5.6448   -3.2306 C   0  0  0  0  0  0  0  0  0  0  0  0
   -6.1031    5.1831   -4.2390 C   0  0  0  0  0  0  0  0  0  0  0  0
   -7.0069    6.0279   -4.8873 C   0  0  0  0  0  0  0  0  0  0  0  0
   -7.0282    7.3863   -4.5355 C   0  0  0  0  0  0  0  0  0  0  0  0
   -6.1609    7.9232   -3.5812 C   0  0  0  0  0  0  0  0  0  0  0  0
   -5.3096    7.0146   -2.8973 C   0  0  0  0  0  0  0  0  0  0  0  0
   -6.4130    9.3526   -3.4891 C   0  0  0  0  0  0  0  0  0  0  0  0
   -5.8510   10.4499   -2.7077 C   0  0  0  0  0  0  0  0  0  0  0  0
   -6.7162   11.5735   -2.5604 C   0  0  0  0  0  0  0  0  0  0  0  0
   -6.4786   12.5102   -1.5587 C   0  0  0  0  0  0  0  0  0  0  0  0
   -5.4186   12.3450   -0.6799 C   0  0  0  0  0  0  0  0  0  0  0  0
   -4.4636   11.3516   -0.8955 C   0  0  0  0  0  0  0  0  0  0  0  0
   -3.3837   11.2823   -0.0112 C   0  0  0  0  0  0  0  0  0  0  0  0
   -2.3177   10.4292   -0.2545 C   0  0  0  0  0  0  0  0  0  0  0  0
   -2.2578    9.7168   -1.4477 C   0  0  0  0  0  0  0  0  0  0  0  0
   -1.0840    9.0097   -1.7575 C   0  0  0  0  0  0  0  0  0  0  0  0
   -0.9214    8.4048   -2.9988 C   0  0  0  0  0  0  0  0  0  0  0  0
   -1.9316    8.5081   -3.9421 C   0  0  0  0  0  0  0  0  0  0  0  0
   -3.1185    9.1776   -3.6239 C   0  0  0  0  0  0  0  0  0  0  0  0
   -3.3507    9.7625   -2.3558 C   0  0  0  0  0  0  0  0  0  0  0  0
   -4.5669   10.4713   -2.0040 C   0  0  0  0  0  0  0  0  0  0  0  0
   -7.8280   11.7644   -3.3782 C   0  0  0  0  0  0  0  0  0  0  0  0
   -8.2164   10.8076   -4.3026 C   0  0  0  0  0  0  0  0  0  0  0  0
   -7.5477    9.5805   -4.2819 C   0  0  0  0  0  0  0  0  0  0  0  0
   -7.8541    8.4067   -4.9482 N   0  0  0  0  0  0  0  0  0  0  0  0
   -9.0319    8.2324   -5.7928 C   0  0  0  0  0  0  0  0  0  0  0  0
   -8.7980    8.5957   -7.2607 C   0  0  0  0  0  0  0  0  0  0  0  0
   -8.2968    7.4400   -8.1312 C   0  0  0  0  0  0  0  0  0  0  0  0
   -9.3377    6.3457   -8.3311 C   0  0  0  0  0  0  0  0  0  0  0  0
   -4.7358    3.4476   -2.1195 C   0  0  0  0  0  0  0  0  0  0  0  0
   -3.8566    2.5495   -1.4612 C   0  0  0  0  0  0  0  0  0  0  0  0
   -4.0039    1.2336   -0.8694 C   0  0  0  0  0  0  0  0  0  0  0  0
   -5.1322    0.3483   -0.6169 C   0  0  0  0  0  0  0  0  0  0  0  0
   -4.7879   -1.0302   -0.5099 C   0  0  0  0  0  0  0  0  0  0  0  0
   -5.7795   -2.0020   -0.6113 C   0  0  0  0  0  0  0  0  0  0  0  0
   -7.0992   -1.6403   -0.8436 C   0  0  0  0  0  0  0  0  0  0  0  0
   -7.4907   -0.3008   -0.8144 C   0  0  0  0  0  0  0  0  0  0  0  0
   -8.8426   -0.0087   -1.0188 C   0  0  0  0  0  0  0  0  0  0  0  0
   -9.3201    1.2880   -0.8932 C   0  0  0  0  0  0  0  0  0  0  0  0
   -8.4783    2.2994   -0.4416 C   0  0  0  0  0  0  0  0  0  0  0  0
   -9.0147    3.5741   -0.1901 C   0  0  0  0  0  0  0  0  0  0  0  0
   -8.2367    4.5795    0.3737 C   0  0  0  0  0  0  0  0  0  0  0  0
   -6.9263    4.3046    0.7263 C   0  0  0  0  0  0  0  0  0  0  0  0
   -6.3841    3.0427    0.4612 C   0  0  0  0  0  0  0  0  0  0  0  0
   -7.1067    2.0207   -0.2018 C   0  0  0  0  0  0  0  0  0  0  0  0
   -6.5473    0.7269   -0.5560 C   0  0  0  0  0  0  0  0  0  0  0  0
   -3.4707   -1.4521   -0.3293 C   0  0  0  0  0  0  0  0  0  0  0  0
   -2.4145   -0.5515   -0.3257 C   0  0  0  0  0  0  0  0  0  0  0  0
   -2.6945    0.7772   -0.6534 C   0  0  0  0  0  0  0  0  0  0  0  0
    0.6082   -0.3284    1.0803 H   0  0  0  0  0  0  0  0  0  0  0  0
    0.7091   -0.1474    2.8345 H   0  0  0  0  0  0  0  0  0  0  0  0
    1.8936    0.6595    1.7955 H   0  0  0  0  0  0  0  0  0  0  0  0
   -1.1062    1.3046    1.9409 H   0  0  0  0  0  0  0  0  0  0  0  0
    0.1775    2.2313    2.7034 H   0  0  0  0  0  0  0  0  0  0  0  0
   -0.3472    3.4160    0.7202 H   0  0  0  0  0  0  0  0  0  0  0  0
    1.2094    2.6487    0.4472 H   0  0  0  0  0  0  0  0  0  0  0  0
    0.0259    2.3281   -1.5825 H   0  0  0  0  0  0  0  0  0  0  0  0
   -0.0491    0.7626   -0.8192 H   0  0  0  0  0  0  0  0  0  0  0  0
   -1.0295    4.4925   -1.6425 H   0  0  0  0  0  0  0  0  0  0  0  0
   -2.6259    6.0476   -2.6568 H   0  0  0  0  0  0  0  0  0  0  0  0
   -6.0804    4.1347   -4.5319 H   0  0  0  0  0  0  0  0  0  0  0  0
   -7.6766    5.6203   -5.6367 H   0  0  0  0  0  0  0  0  0  0  0  0
   -4.6947    7.3840   -2.0811 H   0  0  0  0  0  0  0  0  0  0  0  0
   -7.1543   13.3491   -1.4062 H   0  0  0  0  0  0  0  0  0  0  0  0
   -5.3115   13.0515    0.1408 H   0  0  0  0  0  0  0  0  0  0  0  0
   -3.3491   11.9148    0.8739 H   0  0  0  0  0  0  0  0  0  0  0  0
   -1.4934   10.4056    0.4543 H   0  0  0  0  0  0  0  0  0  0  0  0
   -0.2655    8.9598   -1.0422 H   0  0  0  0  0  0  0  0  0  0  0  0
   -0.0008    7.8793   -3.2354 H   0  0  0  0  0  0  0  0  0  0  0  0
   -1.8091    8.0675   -4.9280 H   0  0  0  0  0  0  0  0  0  0  0  0
   -3.8655    9.2625   -4.4101 H   0  0  0  0  0  0  0  0  0  0  0  0
   -8.4248   12.6714   -3.2980 H   0  0  0  0  0  0  0  0  0  0  0  0
   -9.0840   10.9817   -4.9303 H   0  0  0  0  0  0  0  0  0  0  0  0
   -9.4031    7.2123   -5.6627 H   0  0  0  0  0  0  0  0  0  0  0  0
   -9.8164    8.8775   -5.3805 H   0  0  0  0  0  0  0  0  0  0  0  0
   -9.7440    8.9561   -7.6842 H   0  0  0  0  0  0  0  0  0  0  0  0
   -8.0875    9.4280   -7.3358 H   0  0  0  0  0  0  0  0  0  0  0  0
   -8.0338    7.8415   -9.1173 H   0  0  0  0  0  0  0  0  0  0  0  0
   -7.3803    7.0117   -7.7135 H   0  0  0  0  0  0  0  0  0  0  0  0
  -10.2674    6.7581   -8.7367 H   0  0  0  0  0  0  0  0  0  0  0  0
   -8.9659    5.5962   -9.0369 H   0  0  0  0  0  0  0  0  0  0  0  0
   -9.5722    5.8299   -7.3959 H   0  0  0  0  0  0  0  0  0  0  0  0
   -5.7655    3.1439   -2.2863 H   0  0  0  0  0  0  0  0  0  0  0  0
   -5.5303   -3.0603   -0.5716 H   0  0  0  0  0  0  0  0  0  0  0  0
   -7.8329   -2.4298   -0.9948 H   0  0  0  0  0  0  0  0  0  0  0  0
   -9.5481   -0.7969   -1.2745 H   0  0  0  0  0  0  0  0  0  0  0  0
  -10.3754    1.4790   -1.0730 H   0  0  0  0  0  0  0  0  0  0  0  0
  -10.0577    3.7883   -0.4130 H   0  0  0  0  0  0  0  0  0  0  0  0
   -8.6607    5.5614    0.5631 H   0  0  0  0  0  0  0  0  0  0  0  0
   -6.3140    5.0668    1.2007 H   0  0  0  0  0  0  0  0  0  0  0  0
   -5.3632    2.8647    0.7910 H   0  0  0  0  0  0  0  0  0  0  0  0
   -3.2440   -2.5074   -0.1873 H   0  0  0  0  0  0  0  0  0  0  0  0
   -1.4026   -0.9074   -0.1693 H   0  0  0  0  0  0  0  0  0  0  0  0
  1  2  1  0  0  0  0
  1 59  1  0  0  0  0
  1 60  1  0  0  0  0
  1 61  1  0  0  0  0
  2  3  1  0  0  0  0
  2 62  1  0  0  0  0
  2 63  1  0  0  0  0
  3  4  1  0  0  0  0
  3 64  1  0  0  0  0
  3 65  1  0  0  0  0
  4  5  1  0  0  0  0
  4 66  1  0  0  0  0
  4 67  1  0  0  0  0
  5  6  1  0  0  0  0
  6  7  2  0  0  0  0
  7  8  1  0  0  0  0
  7 68  1  0  0  0  0
  8  9  2  0  0  0  0
  8 69  1  0  0  0  0
  9 10  1  0  0  0  0
  9 39  1  0  0  0  0
 10 11  2  0  0  0  0
 11 12  1  0  0  0  0
 11 70  1  0  0  0  0
 12 13  2  0  0  0  0
 12 71  1  0  0  0  0
 13 14  1  0  0  0  0
 14 15  2  0  0  0  0
 14 16  1  0  0  0  0
 15 10  1  0  0  0  0
 15 72  1  0  0  0  0
 16 17  2  0  0  0  0
 17 18  1  0  0  0  0
 18 19  1  0  0  0  0
 18 31  2  0  0  0  0
 19 20  2  0  0  0  0
 19 73  1  0  0  0  0
 20 21  1  0  0  0  0
 20 74  1  0  0  0  0
 21 22  2  0  0  0  0
 22 23  1  0  0  0  0
 22 75  1  0  0  0  0
 23 24  2  0  0  0  0
 23 76  1  0  0  0  0
 24 25  1  0  0  0  0
 25 26  2  0  0  0  0
 25 77  1  0  0  0  0
 26 27  1  0  0  0  0
 26 78  1  0  0  0  0
 27 28  2  0  0  0  0
 27 79  1  0  0  0  0
 28 29  1  0  0  0  0
 28 80  1  0  0  0  0
 29 30  2  0  0  0  0
 29 24  1  0  0  0  0
 30 17  1  0  0  0  0
 30 21  1  0  0  0  0
 31 32  1  0  0  0  0
 31 81  1  0  0  0  0
 32 33  2  0  0  0  0
 32 82  1  0  0  0  0
 33 34  1  0  0  0  0
 33 16  1  0  0  0  0
 34 35  1  0  0  0  0
 34 13  1  0  0  0  0
 35 36  1  0  0  0  0
 35 83  1  0  0  0  0
 35 84  1  0  0  0  0
 36 37  1  0  0  0  0
 36 85  1  0  0  0  0
 36 86  1  0  0  0  0
 37 38  1  0  0  0  0
 37 87  1  0  0  0  0
 37 88  1  0  0  0  0
 38 89  1  0  0  0  0
 38 90  1  0  0  0  0
 38 91  1  0  0  0  0
 39 40  2  0  0  0  0
 39 92  1  0  0  0  0
 40 41  1  0  0  0  0
 40  6  1  0  0  0  0
 41 42  2  0  0  0  0
 42 43  1  0  0  0  0
 43 44  1  0  0  0  0
 43 56  2  0  0  0  0
 44 45  2  0  0  0  0
 44 93  1  0  0  0  0
 45 46  1  0  0  0  0
 45 94  1  0  0  0  0
 46 47  2  0  0  0  0
 47 48  1  0  0  0  0
 47 95  1  0  0  0  0
 48 49  2  0  0  0  0
 48 96  1  0  0  0  0
 49 50  1  0  0  0  0
 50 51  2  0  0  0  0
 50 97  1  0  0  0  0
 51 52  1  0  0  0  0
 51 98  1  0  0  0  0
 52 53  2  0  0  0  0
 52 99  1  0  0  0  0
 53 54  1  0  0  0  0
 53100  1  0  0  0  0
 54 55  2  0  0  0  0
 54 49  1  0  0  0  0
 55 42  1  0  0  0  0
 55 46  1  0  0  0  0
 56 57  1  0  0  0  0
 56101  1  0  0  0  0
 57 58  2  0  0  0  0
 57102  1  0  0  0  0
 58  5  1  0  0  0  0
 58 41  1  0  0  0  0
M  END
