
     RDKit          3D

 38 40  0  0  0  0  0  0  0  0999 V2000
   -5.2868    1.1264   -0.1303 C   0  0  0  0  0  0  0  0  0  0  0  0
   -4.1272    0.2856    0.4403 C   0  0  0  0  0  0  0  0  0  0  0  0
   -3.7635   -0.8118   -0.4640 C   0  0  0  0  0  0  0  0  0  0  0  0
   -2.6877   -1.7221   -0.0618 C   0  0  0  0  0  0  0  0  0  0  0  0
   -1.3802   -1.2043    0.1856 N   0  0  0  0  0  0  0  0  0  0  0  0
   -0.9796   -0.5372    1.3490 C   0  0  0  0  0  0  0  0  0  0  0  0
   -1.9686   -0.4345    2.6814 S   0  0  0  0  0  0  0  0  0  0  0  0
    0.3809    0.0330    1.4562 C   0  0  0  0  0  0  0  0  0  0  0  0
    0.7431    0.6758    2.5974 C   0  0  0  0  0  0  0  0  0  0  0  0
    2.0216    1.2257    2.7353 C   0  0  0  0  0  0  0  0  0  0  0  0
    2.9418    1.1270    1.7125 C   0  0  0  0  0  0  0  0  0  0  0  0
    2.5812    0.4768    0.5528 C   0  0  0  0  0  0  0  0  0  0  0  0
    3.5161    0.3915   -0.4489 C   0  0  0  0  0  0  0  0  0  0  0  0
    4.7967    0.9120   -0.3824 O   0  0  0  0  0  0  0  0  0  0  0  0
    5.7452    0.8283   -1.3946 C   0  0  0  0  0  0  0  0  0  0  0  0
    3.1438   -0.2635   -1.6046 C   0  0  0  0  0  0  0  0  0  0  0  0
    1.8781   -0.8087   -1.7388 C   0  0  0  0  0  0  0  0  0  0  0  0
    0.9303   -0.7216   -0.7218 C   0  0  0  0  0  0  0  0  0  0  0  0
    1.2947   -0.0673    0.4379 C   0  0  0  0  0  0  0  0  0  0  0  0
   -0.3987   -1.3012   -0.8793 C   0  0  0  0  0  0  0  0  0  0  0  0
   -0.7621   -2.0531   -2.2585 S   0  0  0  0  0  0  0  0  0  0  0  0
   -6.0375    0.4075   -0.5468 H   0  0  0  0  0  0  0  0  0  0  0  0
   -5.7631    1.6130    0.7384 H   0  0  0  0  0  0  0  0  0  0  0  0
   -4.9525    1.8547   -0.8687 H   0  0  0  0  0  0  0  0  0  0  0  0
   -4.5273   -0.1046    1.3903 H   0  0  0  0  0  0  0  0  0  0  0  0
   -3.2783    0.9922    0.6000 H   0  0  0  0  0  0  0  0  0  0  0  0
   -4.7307   -1.3765   -0.7083 H   0  0  0  0  0  0  0  0  0  0  0  0
   -3.4445   -0.3463   -1.4542 H   0  0  0  0  0  0  0  0  0  0  0  0
   -2.6440   -2.5724   -0.8261 H   0  0  0  0  0  0  0  0  0  0  0  0
   -3.0514   -2.3086    0.8587 H   0  0  0  0  0  0  0  0  0  0  0  0
    0.0307    0.7617    3.4070 H   0  0  0  0  0  0  0  0  0  0  0  0
    2.3158    1.7401    3.6473 H   0  0  0  0  0  0  0  0  0  0  0  0
    3.9421    1.5556    1.8163 H   0  0  0  0  0  0  0  0  0  0  0  0
    6.5963    1.5122   -1.1487 H   0  0  0  0  0  0  0  0  0  0  0  0
    5.3320    1.0107   -2.4091 H   0  0  0  0  0  0  0  0  0  0  0  0
    6.1944   -0.2039   -1.3584 H   0  0  0  0  0  0  0  0  0  0  0  0
    3.8305   -0.3706   -2.4457 H   0  0  0  0  0  0  0  0  0  0  0  0
    1.5682   -1.3215   -2.6244 H   0  0  0  0  0  0  0  0  0  0  0  0
  1  2  1  0
  2  3  1  0
  3  4  1  0
  4  5  1  0
  5  6  1  0
  6  7  2  0
  6  8  1  0
  8  9  1  0
  9 10  2  0
 10 11  1  0
 11 12  2  0
 12 13  1  0
 13 14  1  0
 14 15  1  0
 13 16  2  0
 16 17  1  0
 17 18  2  0
 18 19  1  0
 18 20  1  0
 20 21  2  0
 20  5  1  0
 19  8  2  0
 19 12  1  0
  1 22  1  0
  1 23  1  0
  1 24  1  0
  2 25  1  0
  2 26  1  0
  3 27  1  0
  3 28  1  0
  4 29  1  0
  4 30  1  0
  9 31  1  0
 10 32  1  0
 11 33  1  0
 15 34  1  0
 15 35  1  0
 15 36  1  0
 16 37  1  0
 17 38  1  0
M  END
