
     RDKit          3D

 42 43  0  0  0  0  0  0  0  0999 V2000
    7.7124    0.7510   -2.0673 C   0  0  0  0  0  0  0  0  0  0  0  0
    6.3481    1.3798   -2.2440 C   0  0  0  0  0  0  0  0  0  0  0  0
    5.3292    0.6342   -1.6511 O   0  0  0  0  0  0  0  0  0  0  0  0
    4.0293    1.0962   -1.7312 C   0  0  0  0  0  0  0  0  0  0  0  0
    3.8106    2.1850   -2.3427 O   0  0  0  0  0  0  0  0  0  0  0  0
    2.8735    0.3862   -1.1390 C   0  0  0  0  0  0  0  0  0  0  0  0
    1.3346    1.2984   -1.4337 S   0  0  0  0  0  0  0  0  0  0  0  0
   -0.0634    0.4424   -0.6995 C   0  0  0  0  0  0  0  0  0  0  0  0
   -0.4398    0.6857    0.5666 N   0  0  0  0  0  0  0  0  0  0  0  0
   -1.4839    0.0735    1.1509 C   0  0  0  0  0  0  0  0  0  0  0  0
   -2.1764   -0.8402    0.3833 C   0  0  0  0  0  0  0  0  0  0  0  0
   -1.8281   -1.1216   -0.9154 C   0  0  0  0  0  0  0  0  0  0  0  0
   -2.5381   -2.0581   -1.7041 C   0  0  0  0  0  0  0  0  0  0  0  0
   -3.1331   -2.8600   -2.3528 N   0  0  0  0  0  0  0  0  0  0  0  0
   -0.7562   -0.4740   -1.4716 C   0  0  0  0  0  0  0  0  0  0  0  0
   -0.3210   -0.7086   -2.8225 C   0  0  0  0  0  0  0  0  0  0  0  0
    0.0374   -0.8803   -3.9302 N   0  0  0  0  0  0  0  0  0  0  0  0
   -3.3545   -1.7147    0.6084 C   0  0  0  0  0  0  0  0  0  0  0  0
   -3.7628   -1.8434    2.0328 C   0  0  0  0  0  0  0  0  0  0  0  0
   -4.3661   -0.6605    2.6775 C   0  0  0  0  0  0  0  0  0  0  0  0
   -4.0874    0.6696    2.0753 C   0  0  0  0  0  0  0  0  0  0  0  0
   -2.8715    1.3605    2.6608 C   0  0  0  0  0  0  0  0  0  0  0  0
   -1.6093    0.5694    2.5205 C   0  0  0  0  0  0  0  0  0  0  0  0
    7.8496    0.4981   -0.9908 H   0  0  0  0  0  0  0  0  0  0  0  0
    7.7767   -0.1908   -2.6436 H   0  0  0  0  0  0  0  0  0  0  0  0
    8.5265    1.4062   -2.3886 H   0  0  0  0  0  0  0  0  0  0  0  0
    6.3501    2.3934   -1.8355 H   0  0  0  0  0  0  0  0  0  0  0  0
    6.0975    1.4428   -3.3433 H   0  0  0  0  0  0  0  0  0  0  0  0
    3.0037    0.1895   -0.0602 H   0  0  0  0  0  0  0  0  0  0  0  0
    2.8170   -0.6059   -1.6638 H   0  0  0  0  0  0  0  0  0  0  0  0
   -3.0330   -2.7426    0.2743 H   0  0  0  0  0  0  0  0  0  0  0  0
   -4.1991   -1.4587   -0.0738 H   0  0  0  0  0  0  0  0  0  0  0  0
   -4.4363   -2.7501    2.0911 H   0  0  0  0  0  0  0  0  0  0  0  0
   -2.8409   -2.1779    2.5964 H   0  0  0  0  0  0  0  0  0  0  0  0
   -5.4811   -0.8036    2.6964 H   0  0  0  0  0  0  0  0  0  0  0  0
   -4.0853   -0.6786    3.7726 H   0  0  0  0  0  0  0  0  0  0  0  0
   -4.9502    1.3651    2.3059 H   0  0  0  0  0  0  0  0  0  0  0  0
   -4.0345    0.6551    0.9731 H   0  0  0  0  0  0  0  0  0  0  0  0
   -2.7422    2.3000    2.0830 H   0  0  0  0  0  0  0  0  0  0  0  0
   -3.0519    1.6874    3.7109 H   0  0  0  0  0  0  0  0  0  0  0  0
   -0.7640    1.3019    2.6768 H   0  0  0  0  0  0  0  0  0  0  0  0
   -1.4865   -0.2016    3.3057 H   0  0  0  0  0  0  0  0  0  0  0  0
  1  2  1  0
  2  3  1  0
  3  4  1  0
  4  5  2  0
  4  6  1  0
  6  7  1  0
  7  8  1  0
  8  9  2  0
  9 10  1  0
 10 11  2  0
 11 12  1  0
 12 13  1  0
 13 14  3  0
 12 15  2  0
 15 16  1  0
 16 17  3  0
 11 18  1  0
 18 19  1  0
 19 20  1  0
 20 21  1  0
 21 22  1  0
 22 23  1  0
 15  8  1  0
 23 10  1  0
  1 24  1  0
  1 25  1  0
  1 26  1  0
  2 27  1  0
  2 28  1  0
  6 29  1  0
  6 30  1  0
 18 31  1  0
 18 32  1  0
 19 33  1  0
 19 34  1  0
 20 35  1  0
 20 36  1  0
 21 37  1  0
 21 38  1  0
 22 39  1  0
 22 40  1  0
 23 41  1  0
 23 42  1  0
M  END
