
     RDKit          3D

 36 39  0  0  0  0  0  0  0  0999 V2000
   -4.6061   -2.1219    0.5190 C   0  0  0  0  0  0  0  0  0  0  0  0
   -3.6732   -0.9787    0.3716 C   0  0  0  0  0  0  0  0  0  0  0  0
   -4.0939    0.3304    0.3570 C   0  0  0  0  0  0  0  0  0  0  0  0
   -3.2118    1.3724    0.2295 C   0  0  0  0  0  0  0  0  0  0  0  0
   -3.7145    2.8003    0.2206 C   0  0  0  0  0  0  0  0  0  0  0  0
   -4.1149    3.1169   -1.0484 F   0  0  0  0  0  0  0  0  0  0  0  0
   -4.7043    2.8870    1.1640 F   0  0  0  0  0  0  0  0  0  0  0  0
   -2.6515    3.6064    0.5683 F   0  0  0  0  0  0  0  0  0  0  0  0
   -1.9000    1.1147    0.1151 N   0  0  0  0  0  0  0  0  0  0  0  0
   -1.4706   -0.1554    0.1265 C   0  0  0  0  0  0  0  0  0  0  0  0
   -2.3395   -1.2415    0.2541 C   0  0  0  0  0  0  0  0  0  0  0  0
   -1.8252   -2.5190    0.2586 C   0  0  0  0  0  0  0  0  0  0  0  0
   -0.4627   -2.6919    0.1355 C   0  0  0  0  0  0  0  0  0  0  0  0
    0.3815   -1.6100    0.0103 C   0  0  0  0  0  0  0  0  0  0  0  0
    1.7085   -1.4837   -0.1189 N   0  0  0  0  0  0  0  0  0  0  0  0
    2.0749   -0.1787   -0.2061 C   0  0  0  0  0  0  0  0  0  0  0  0
    3.4289    0.3245   -0.3455 C   0  0  0  0  0  0  0  0  0  0  0  0
    3.7030    1.6680   -0.4410 C   0  0  0  0  0  0  0  0  0  0  0  0
    5.0092    2.1419   -0.5685 C   0  0  0  0  0  0  0  0  0  0  0  0
    6.0655    1.2629   -0.6020 C   0  0  0  0  0  0  0  0  0  0  0  0
    7.7345    1.8326   -0.7699 Cl  0  0  0  0  0  0  0  0  0  0  0  0
    5.8016   -0.0994   -0.5060 C   0  0  0  0  0  0  0  0  0  0  0  0
    4.5078   -0.5352   -0.3823 C   0  0  0  0  0  0  0  0  0  0  0  0
    0.8865    0.5185   -0.1229 C   0  0  0  0  0  0  0  0  0  0  0  0
   -0.1351   -0.3723    0.0085 N   0  0  0  0  0  0  0  0  0  0  0  0
   -4.7436   -2.7207   -0.3915 H   0  0  0  0  0  0  0  0  0  0  0  0
   -5.6026   -1.8026    0.9302 H   0  0  0  0  0  0  0  0  0  0  0  0
   -4.1768   -2.7533    1.3503 H   0  0  0  0  0  0  0  0  0  0  0  0
   -5.1527    0.5280    0.4464 H   0  0  0  0  0  0  0  0  0  0  0  0
   -2.5192   -3.3333    0.3589 H   0  0  0  0  0  0  0  0  0  0  0  0
   -0.0681   -3.7101    0.1416 H   0  0  0  0  0  0  0  0  0  0  0  0
    2.9225    2.4127   -0.4209 H   0  0  0  0  0  0  0  0  0  0  0  0
    5.2166    3.2186   -0.6453 H   0  0  0  0  0  0  0  0  0  0  0  0
    6.6055   -0.8172   -0.5263 H   0  0  0  0  0  0  0  0  0  0  0  0
    4.3367   -1.6021   -0.3125 H   0  0  0  0  0  0  0  0  0  0  0  0
    0.7828    1.5915   -0.1581 H   0  0  0  0  0  0  0  0  0  0  0  0
  1  2  1  0
  2  3  2  0
  3  4  1  0
  4  5  1  0
  5  6  1  0
  5  7  1  0
  5  8  1  0
  4  9  2  0
  9 10  1  0
 10 11  2  0
 11 12  1  0
 12 13  2  0
 13 14  1  0
 14 15  2  0
 15 16  1  0
 16 17  1  0
 17 18  2  0
 18 19  1  0
 19 20  2  0
 20 21  1  0
 20 22  1  0
 22 23  2  0
 16 24  2  0
 24 25  1  0
 11  2  1  0
 25 14  1  0
 25 10  1  0
 23 17  1  0
  1 26  1  0
  1 27  1  0
  1 28  1  0
  3 29  1  0
 12 30  1  0
 13 31  1  0
 18 32  1  0
 19 33  1  0
 22 34  1  0
 23 35  1  0
 24 36  1  0
M  END
