
     RDKit          3D

 57 59  0  0  0  0  0  0  0  0999 V2000
   -6.0406   -1.5960   -0.5880 C   0  0  0  0  0  0  0  0  0  0  0  0
   -5.0652   -0.7187   -1.3195 C   0  0  0  0  0  0  0  0  0  0  0  0
   -4.4169    0.2231   -0.4464 N   0  0  0  0  0  0  0  0  0  0  0  0
   -5.1870    1.2793    0.1460 C   0  0  0  0  0  0  0  0  0  0  0  0
   -5.6513    2.2805   -0.8921 C   0  0  0  0  0  0  0  0  0  0  0  0
   -3.0317    0.0953   -0.1910 C   0  0  0  0  0  0  0  0  0  0  0  0
   -2.2002    1.1666   -0.5304 C   0  0  0  0  0  0  0  0  0  0  0  0
   -0.8423    1.1660   -0.3290 C   0  0  0  0  0  0  0  0  0  0  0  0
    0.0332    2.2214   -0.6511 N   0  0  0  0  0  0  0  0  0  0  0  0
   -0.3250    3.4326   -1.2639 C   0  0  0  0  0  0  0  0  0  0  0  0
    0.7471    4.4839   -1.5471 C   0  0  0  0  0  0  0  0  0  0  0  0
   -1.5055    3.6562   -1.5766 O   0  0  0  0  0  0  0  0  0  0  0  0
   -0.3082    0.0079    0.2501 C   0  0  0  0  0  0  0  0  0  0  0  0
    1.1009   -0.0474    0.4798 N   0  0  0  0  0  0  0  0  0  0  0  0
    1.7389   -1.0590    0.0811 N   0  0  0  0  0  0  0  0  0  0  0  0
    3.1069   -1.2734    0.2247 C   0  0  0  0  0  0  0  0  0  0  0  0
    3.5653   -2.6035    0.2638 C   0  0  0  0  0  0  0  0  0  0  0  0
    4.8852   -2.9273    0.4046 C   0  0  0  0  0  0  0  0  0  0  0  0
    5.8013   -1.8978    0.5134 C   0  0  0  0  0  0  0  0  0  0  0  0
    7.1305   -2.2112    0.6585 C   0  0  0  0  0  0  0  0  0  0  0  0
    7.5461   -3.3921    0.6930 O   0  0  0  0  0  0  0  0  0  0  0  0
    8.0079   -1.2002    0.7661 N   0  0  0  0  0  0  0  0  0  0  0  0
    7.6068    0.0521    0.7340 N   0  0  0  0  0  0  0  0  0  0  0  0
    6.3038    0.3953    0.5924 C   0  0  0  0  0  0  0  0  0  0  0  0
    5.9640    1.6033    0.5688 O   0  0  0  0  0  0  0  0  0  0  0  0
    5.3657   -0.5919    0.4770 C   0  0  0  0  0  0  0  0  0  0  0  0
    4.0130   -0.2616    0.3316 C   0  0  0  0  0  0  0  0  0  0  0  0
    3.6053    1.1064    0.2964 N   0  0  0  0  0  4  0  0  0  0  0  0
    3.7411    1.8498   -0.6956 O   0  0  0  0  0  0  0  0  0  0  0  0
    3.0245    1.6186    1.4272 O   0  0  0  0  0  1  0  0  0  0  0  0
   -1.1073   -1.0580    0.5917 C   0  0  0  0  0  0  0  0  0  0  0  0
   -2.4740   -1.0303    0.3770 C   0  0  0  0  0  0  0  0  0  0  0  0
   -3.2816   -2.0849    0.7115 O   0  0  0  0  0  0  0  0  0  0  0  0
   -2.8469   -3.2948    1.2971 C   0  0  0  0  0  0  0  0  0  0  0  0
   -5.9406   -1.4641    0.5176 H   0  0  0  0  0  0  0  0  0  0  0  0
   -5.9436   -2.6249   -0.9358 H   0  0  0  0  0  0  0  0  0  0  0  0
   -7.0729   -1.2620   -0.8800 H   0  0  0  0  0  0  0  0  0  0  0  0
   -4.3071   -1.4016   -1.8123 H   0  0  0  0  0  0  0  0  0  0  0  0
   -5.5969   -0.2003   -2.1635 H   0  0  0  0  0  0  0  0  0  0  0  0
   -4.5969    1.7764    0.9643 H   0  0  0  0  0  0  0  0  0  0  0  0
   -6.0789    0.8372    0.6488 H   0  0  0  0  0  0  0  0  0  0  0  0
   -5.0904    2.1397   -1.8609 H   0  0  0  0  0  0  0  0  0  0  0  0
   -6.7132    2.0854   -1.1426 H   0  0  0  0  0  0  0  0  0  0  0  0
   -5.5757    3.2995   -0.5139 H   0  0  0  0  0  0  0  0  0  0  0  0
   -2.6769    2.0077   -0.9630 H   0  0  0  0  0  0  0  0  0  0  0  0
    1.0671    2.0882   -0.4071 H   0  0  0  0  0  0  0  0  0  0  0  0
    0.3126    5.4555   -1.2682 H   0  0  0  0  0  0  0  0  0  0  0  0
    1.0558    4.3909   -2.5892 H   0  0  0  0  0  0  0  0  0  0  0  0
    1.6077    4.2450   -0.8842 H   0  0  0  0  0  0  0  0  0  0  0  0
    2.8458   -3.4251    0.1781 H   0  0  0  0  0  0  0  0  0  0  0  0
    5.2628   -3.9359    0.4363 H   0  0  0  0  0  0  0  0  0  0  0  0
    9.0371   -1.4216    0.8795 H   0  0  0  0  0  0  0  0  0  0  0  0
    8.2920    0.8370    0.8179 H   0  0  0  0  0  0  0  0  0  0  0  0
   -0.6505   -1.9257    1.0335 H   0  0  0  0  0  0  0  0  0  0  0  0
   -2.1175   -3.1316    2.1167 H   0  0  0  0  0  0  0  0  0  0  0  0
   -2.4069   -3.9047    0.4690 H   0  0  0  0  0  0  0  0  0  0  0  0
   -3.7165   -3.8553    1.6703 H   0  0  0  0  0  0  0  0  0  0  0  0
  1  2  1  0
  2  3  1  0
  3  4  1  0
  4  5  1  0
  3  6  1  0
  6  7  2  0
  7  8  1  0
  8  9  1  0
  9 10  1  0
 10 11  1  0
 10 12  2  0
  8 13  2  0
 13 14  1  0
 14 15  2  0
 15 16  1  0
 16 17  2  0
 17 18  1  0
 18 19  2  0
 19 20  1  0
 20 21  2  0
 20 22  1  0
 22 23  1  0
 23 24  1  0
 24 25  2  0
 24 26  1  0
 26 27  2  0
 27 28  1  0
 28 29  2  0
 28 30  1  0
 13 31  1  0
 31 32  2  0
 32 33  1  0
 33 34  1  0
 32  6  1  0
 27 16  1  0
 26 19  1  0
  1 35  1  0
  1 36  1  0
  1 37  1  0
  2 38  1  0
  2 39  1  0
  4 40  1  0
  4 41  1  0
  5 42  1  0
  5 43  1  0
  5 44  1  0
  7 45  1  0
  9 46  1  0
 11 47  1  0
 11 48  1  0
 11 49  1  0
 17 50  1  0
 18 51  1  0
 22 52  1  0
 23 53  1  0
 31 54  1  0
 34 55  1  0
 34 56  1  0
 34 57  1  0
M  CHG  2  28   1  30  -1
M  END
