
     RDKit          3D

 43 45  0  0  0  0  0  0  0  0999 V2000
    5.4474    0.3827   -0.7080 C   0  0  0  0  0  0  0  0  0  0  0  0
    4.1264    1.0043   -0.5704 C   0  0  0  0  0  0  0  0  0  0  0  0
    3.9864    2.2460   -0.8248 O   0  0  0  0  0  0  0  0  0  0  0  0
    2.9443    0.2545   -0.1485 C   0  0  0  0  0  0  0  0  0  0  0  0
    3.0267   -1.0405    0.1304 C   0  0  0  0  0  0  0  0  0  0  0  0
    4.2434   -1.6880    0.0209 O   0  0  0  0  0  0  0  0  0  0  0  0
    1.8317   -1.8152    0.5608 C   0  0  0  0  0  0  0  0  0  0  0  0
    0.6555   -1.1784   -0.0597 C   0  0  0  0  0  0  0  0  0  0  0  0
   -0.5964   -1.6805    0.2374 O   0  0  0  0  0  0  0  0  0  0  0  0
   -1.4929   -0.6079   -0.0048 C   0  0  0  0  0  0  0  0  0  0  0  0
   -2.8412   -0.5947   -0.3728 C   0  0  0  0  0  0  0  0  0  0  0  0
   -3.5111   -1.8570   -0.5545 C   0  0  0  0  0  0  0  0  0  0  0  0
   -2.7548   -3.1155   -0.3511 C   0  0  0  0  0  0  0  0  0  0  0  0
   -4.6975   -1.9449   -0.8750 O   0  0  0  0  0  0  0  0  0  0  0  0
   -3.5321    0.5730   -0.5585 C   0  0  0  0  0  0  0  0  0  0  0  0
   -4.8516    0.7031   -0.9187 O   0  0  0  0  0  0  0  0  0  0  0  0
   -2.8161    1.7734   -0.3599 C   0  0  0  0  0  0  0  0  0  0  0  0
   -3.5266    3.0526   -0.5507 C   0  0  0  0  0  0  0  0  0  0  0  0
   -1.4975    1.7407    0.0002 C   0  0  0  0  0  0  0  0  0  0  0  0
   -0.8618    2.9803    0.1784 O   0  0  0  0  0  0  0  0  0  0  0  0
   -0.8131    0.5690    0.1838 C   0  0  0  0  0  0  0  0  0  0  0  0
    0.5444    0.2293    0.5612 C   0  0  0  0  0  0  0  0  0  0  0  0
    0.6971    0.1333    2.0704 C   0  0  0  0  0  0  0  0  0  0  0  0
    1.6460    0.9647   -0.0361 C   0  0  0  0  0  0  0  0  0  0  0  0
    1.5014    2.1339   -0.4327 O   0  0  0  0  0  0  0  0  0  0  0  0
    5.8628   -0.0290    0.2335 H   0  0  0  0  0  0  0  0  0  0  0  0
    5.4985   -0.4205   -1.4744 H   0  0  0  0  0  0  0  0  0  0  0  0
    6.1795    1.1528   -1.0717 H   0  0  0  0  0  0  0  0  0  0  0  0
    4.3989   -2.4873   -0.5975 H   0  0  0  0  0  0  0  0  0  0  0  0
    1.9115   -2.8821    0.2745 H   0  0  0  0  0  0  0  0  0  0  0  0
    1.8353   -1.7962    1.6723 H   0  0  0  0  0  0  0  0  0  0  0  0
    0.8480   -1.0229   -1.1390 H   0  0  0  0  0  0  0  0  0  0  0  0
   -1.8673   -3.1681   -1.0391 H   0  0  0  0  0  0  0  0  0  0  0  0
   -2.3326   -3.1757    0.6855 H   0  0  0  0  0  0  0  0  0  0  0  0
   -3.4131   -3.9764   -0.4602 H   0  0  0  0  0  0  0  0  0  0  0  0
   -5.5174    0.0192   -1.1026 H   0  0  0  0  0  0  0  0  0  0  0  0
   -4.6076    2.8785   -0.5832 H   0  0  0  0  0  0  0  0  0  0  0  0
   -3.3472    3.7170    0.3350 H   0  0  0  0  0  0  0  0  0  0  0  0
   -3.1480    3.6305   -1.4295 H   0  0  0  0  0  0  0  0  0  0  0  0
   -1.3327    3.8608    0.0529 H   0  0  0  0  0  0  0  0  0  0  0  0
    0.2126   -0.7729    2.4413 H   0  0  0  0  0  0  0  0  0  0  0  0
    1.7694    0.2247    2.3361 H   0  0  0  0  0  0  0  0  0  0  0  0
    0.1912    1.0294    2.4944 H   0  0  0  0  0  0  0  0  0  0  0  0
  1  2  1  0
  2  3  2  0
  2  4  1  0
  4  5  2  0
  5  6  1  0
  5  7  1  0
  7  8  1  0
  8  9  1  0
  9 10  1  0
 10 11  2  0
 11 12  1  0
 12 13  1  0
 12 14  2  0
 11 15  1  0
 15 16  1  0
 15 17  2  0
 17 18  1  0
 17 19  1  0
 19 20  1  0
 19 21  2  0
 21 22  1  0
 22 23  1  0
 22 24  1  0
 24 25  2  0
 24  4  1  0
 22  8  1  0
 21 10  1  0
  1 26  1  0
  1 27  1  0
  1 28  1  0
  6 29  1  0
  7 30  1  0
  7 31  1  0
  8 32  1  0
 13 33  1  0
 13 34  1  0
 13 35  1  0
 16 36  1  0
 18 37  1  0
 18 38  1  0
 18 39  1  0
 20 40  1  0
 23 41  1  0
 23 42  1  0
 23 43  1  0
M  END
