
     RDKit          3D

 47 50  0  0  0  0  0  0  0  0999 V2000
    8.0484   -0.8341   -1.3712 N   0  0  0  0  0  0  0  0  0  0  0  0
    7.7446   -1.9250   -1.0779 C   0  0  0  0  0  0  0  0  0  0  0  0
    7.3697   -3.2521   -0.6959 C   0  0  0  0  0  0  0  0  0  0  0  0
    8.3781   -4.2776   -0.4808 C   0  0  0  0  0  0  0  0  0  0  0  0
    9.1796   -5.0748   -0.2962 N   0  0  0  0  0  0  0  0  0  0  0  0
    6.1267   -3.5597   -0.5343 C   0  0  0  0  0  0  0  0  0  0  0  0
    4.9739   -2.6637   -0.7036 C   0  0  0  0  0  0  0  0  0  0  0  0
    4.7669   -1.6826   -1.6326 C   0  0  0  0  0  0  0  0  0  0  0  0
    3.6200   -0.9980   -1.5741 C   0  0  0  0  0  0  0  0  0  0  0  0
    2.7362   -1.3331   -0.5839 C   0  0  0  0  0  0  0  0  0  0  0  0
    1.4118   -0.7279   -0.3064 C   0  0  0  0  0  0  0  0  0  0  0  0
    0.9417    0.2858   -1.1016 C   0  0  0  0  0  0  0  0  0  0  0  0
   -0.2887    0.8731   -0.8593 C   0  0  0  0  0  0  0  0  0  0  0  0
   -1.0543    0.4386    0.1913 C   0  0  0  0  0  0  0  0  0  0  0  0
   -2.3354    0.9992    0.5038 N   0  0  0  0  0  0  0  0  0  0  0  0
   -3.3080    1.2540   -0.4988 C   0  0  0  0  0  0  0  0  0  0  0  0
   -4.0378    2.4211   -0.5799 C   0  0  0  0  0  0  0  0  0  0  0  0
   -4.9813    2.6321   -1.5656 C   0  0  0  0  0  0  0  0  0  0  0  0
   -5.2367    1.6763   -2.5202 C   0  0  0  0  0  0  0  0  0  0  0  0
   -4.5126    0.4990   -2.4529 C   0  0  0  0  0  0  0  0  0  0  0  0
   -3.5704    0.2952   -1.4636 C   0  0  0  0  0  0  0  0  0  0  0  0
   -2.6392    1.3054    1.8590 C   0  0  0  0  0  0  0  0  0  0  0  0
   -1.6803    1.9510    2.6055 C   0  0  0  0  0  0  0  0  0  0  0  0
   -1.8895    2.2891    3.9334 C   0  0  0  0  0  0  0  0  0  0  0  0
   -3.1186    1.9467    4.4828 C   0  0  0  0  0  0  0  0  0  0  0  0
   -4.0518    1.3094    3.7271 C   0  0  0  0  0  0  0  0  0  0  0  0
   -3.8480    0.9720    2.4101 C   0  0  0  0  0  0  0  0  0  0  0  0
   -0.5717   -0.5735    0.9747 C   0  0  0  0  0  0  0  0  0  0  0  0
    0.6619   -1.1754    0.7465 C   0  0  0  0  0  0  0  0  0  0  0  0
    3.5377   -2.5957    0.2341 S   0  0  0  0  0  0  0  0  0  0  0  0
    5.8712   -4.5914   -0.2381 H   0  0  0  0  0  0  0  0  0  0  0  0
    5.5525   -1.4906   -2.4004 H   0  0  0  0  0  0  0  0  0  0  0  0
    3.3624   -0.1819   -2.2890 H   0  0  0  0  0  0  0  0  0  0  0  0
    1.5399    0.6301   -1.9286 H   0  0  0  0  0  0  0  0  0  0  0  0
   -0.6752    1.6766   -1.4804 H   0  0  0  0  0  0  0  0  0  0  0  0
   -3.8181    3.1674    0.1908 H   0  0  0  0  0  0  0  0  0  0  0  0
   -5.5349    3.5536   -1.5985 H   0  0  0  0  0  0  0  0  0  0  0  0
   -5.9850    1.8352   -3.3041 H   0  0  0  0  0  0  0  0  0  0  0  0
   -4.7181   -0.2619   -3.2167 H   0  0  0  0  0  0  0  0  0  0  0  0
   -3.0177   -0.6455   -1.4406 H   0  0  0  0  0  0  0  0  0  0  0  0
   -0.7233    2.2166    2.1735 H   0  0  0  0  0  0  0  0  0  0  0  0
   -1.1200    2.7928    4.4901 H   0  0  0  0  0  0  0  0  0  0  0  0
   -3.3353    2.1873    5.5110 H   0  0  0  0  0  0  0  0  0  0  0  0
   -4.9984    1.0591    4.1980 H   0  0  0  0  0  0  0  0  0  0  0  0
   -4.6214    0.4687    1.8601 H   0  0  0  0  0  0  0  0  0  0  0  0
   -1.1731   -0.9180    1.8030 H   0  0  0  0  0  0  0  0  0  0  0  0
    1.0217   -1.9728    1.3810 H   0  0  0  0  0  0  0  0  0  0  0  0
  1  2  3  0
  2  3  1  0
  3  4  1  0
  4  5  3  0
  3  6  2  3
  6  7  1  0
  7  8  2  0
  8  9  1  0
  9 10  2  0
 10 11  1  0
 11 12  2  0
 12 13  1  0
 13 14  2  0
 14 15  1  0
 15 16  1  0
 16 17  2  0
 17 18  1  0
 18 19  2  0
 19 20  1  0
 20 21  2  0
 15 22  1  0
 22 23  2  0
 23 24  1  0
 24 25  2  0
 25 26  1  0
 26 27  2  0
 14 28  1  0
 28 29  2  0
 10 30  1  0
 30  7  1  0
 29 11  1  0
 21 16  1  0
 27 22  1  0
  6 31  1  0
  8 32  1  0
  9 33  1  0
 12 34  1  0
 13 35  1  0
 17 36  1  0
 18 37  1  0
 19 38  1  0
 20 39  1  0
 21 40  1  0
 23 41  1  0
 24 42  1  0
 25 43  1  0
 26 44  1  0
 27 45  1  0
 28 46  1  0
 29 47  1  0
M  END
