
     RDKit          3D

 45 46  0  0  0  0  0  0  0  0999 V2000
    3.8152    3.7895   -1.0115 C   0  0  0  0  0  0  0  0  0  0  0  0
    3.3761    2.4119   -0.7052 C   0  0  0  0  0  0  0  0  0  0  0  0
    3.8234    1.8762    0.3414 O   0  0  0  0  0  0  0  0  0  0  0  0
    2.5117    1.6744   -1.4853 O   0  0  0  0  0  0  0  0  0  0  0  0
    2.0861    0.3704   -1.2101 C   0  0  0  0  0  0  0  0  0  0  0  0
    1.3543    0.2337    0.1022 C   0  0  1  0  0  0  0  0  0  0  0  0
    0.2262    0.9969    0.1790 O   0  0  0  0  0  0  0  0  0  0  0  0
   -0.8494    0.2262    0.5246 C   0  0  1  0  0  0  0  0  0  0  0  0
   -2.1641    0.8237    0.0722 C   0  0  2  0  0  0  0  0  0  0  0  0
   -2.2418    0.9957   -1.3721 C   0  0  0  0  0  0  0  0  0  0  0  0
   -2.4466    2.1490   -1.9643 C   0  0  0  0  0  0  0  0  0  0  0  0
   -2.6174    3.3798   -1.2256 C   0  0  0  0  0  0  0  0  0  0  0  0
   -2.8738    4.8297   -1.9398 S   0  0  0  0  0  0  0  0  0  0  0  0
   -2.5636    3.3514    0.1861 N   0  0  0  0  0  0  0  0  0  0  0  0
   -2.3404    2.0905    0.8126 C   0  0  0  0  0  0  0  0  0  0  0  0
   -2.2961    2.0936    2.0944 O   0  0  0  0  0  0  0  0  0  0  0  0
   -0.5533   -1.0839   -0.1909 C   0  0  2  0  0  0  0  0  0  0  0  0
   -1.3260   -2.1467    0.2708 O   0  0  0  0  0  0  0  0  0  0  0  0
   -2.0279   -2.9347   -0.6144 C   0  0  0  0  0  0  0  0  0  0  0  0
   -2.8748   -4.0929   -0.1566 C   0  0  0  0  0  0  0  0  0  0  0  0
   -1.9421   -2.6572   -1.8386 O   0  0  0  0  0  0  0  0  0  0  0  0
    0.9232   -1.2350    0.1969 C   0  0  2  0  0  0  0  0  0  0  0  0
    1.0066   -1.6227    1.5456 O   0  0  0  0  0  0  0  0  0  0  0  0
    1.7458   -2.7427    1.8990 C   0  0  0  0  0  0  0  0  0  0  0  0
    1.8180   -3.1309    3.3295 C   0  0  0  0  0  0  0  0  0  0  0  0
    2.3186   -3.3708    0.9724 O   0  0  0  0  0  0  0  0  0  0  0  0
    4.9247    3.7668   -1.1335 H   0  0  0  0  0  0  0  0  0  0  0  0
    3.6061    4.5041   -0.1985 H   0  0  0  0  0  0  0  0  0  0  0  0
    3.3981    4.1857   -1.9430 H   0  0  0  0  0  0  0  0  0  0  0  0
    2.9025   -0.3764   -1.2068 H   0  0  0  0  0  0  0  0  0  0  0  0
    1.3677    0.0811   -2.0071 H   0  0  0  0  0  0  0  0  0  0  0  0
    2.0783    0.4340    0.9167 H   0  0  0  0  0  0  0  0  0  0  0  0
   -0.9265    0.0027    1.6075 H   0  0  0  0  0  0  0  0  0  0  0  0
   -2.9630    0.1298    0.4712 H   0  0  0  0  0  0  0  0  0  0  0  0
   -2.1271    0.1294   -2.0502 H   0  0  0  0  0  0  0  0  0  0  0  0
   -2.4986    2.2348   -3.0642 H   0  0  0  0  0  0  0  0  0  0  0  0
   -2.6857    4.2372    0.7426 H   0  0  0  0  0  0  0  0  0  0  0  0
   -0.5686   -0.9546   -1.2863 H   0  0  0  0  0  0  0  0  0  0  0  0
   -2.4875   -4.5581    0.7512 H   0  0  0  0  0  0  0  0  0  0  0  0
   -2.8897   -4.8110   -1.0109 H   0  0  0  0  0  0  0  0  0  0  0  0
   -3.9221   -3.7328   -0.0408 H   0  0  0  0  0  0  0  0  0  0  0  0
    1.4704   -1.8731   -0.4967 H   0  0  0  0  0  0  0  0  0  0  0  0
    0.9207   -2.7329    3.8654 H   0  0  0  0  0  0  0  0  0  0  0  0
    2.7056   -2.6895    3.8234 H   0  0  0  0  0  0  0  0  0  0  0  0
    1.8067   -4.2524    3.4477 H   0  0  0  0  0  0  0  0  0  0  0  0
  1  2  1  0
  2  3  2  0
  2  4  1  0
  4  5  1  0
  5  6  1  0
  6  7  1  0
  7  8  1  0
  8  9  1  0
  9 10  1  0
 10 11  2  0
 11 12  1  0
 12 13  2  0
 12 14  1  0
 14 15  1  0
 15 16  2  0
  8 17  1  0
 17 18  1  0
 18 19  1  0
 19 20  1  0
 19 21  2  0
 17 22  1  0
 22 23  1  0
 23 24  1  0
 24 25  1  0
 24 26  2  0
 22  6  1  0
 15  9  1  0
  1 27  1  0
  1 28  1  0
  1 29  1  0
  5 30  1  0
  5 31  1  0
  6 32  1  1
  8 33  1  1
  9 34  1  1
 10 35  1  0
 11 36  1  0
 14 37  1  0
 17 38  1  6
 20 39  1  0
 20 40  1  0
 20 41  1  0
 22 42  1  6
 25 43  1  0
 25 44  1  0
 25 45  1  0
M  END
