
     RDKit          3D

 43 47  0  0  0  0  0  0  0  0999 V2000
    7.1188   -0.2885   -0.0388 C   0  0  0  0  0  0  0  0  0  0  0  0
    5.6229   -0.3073   -0.0677 C   0  0  0  0  0  0  0  0  0  0  0  0
    5.0040   -1.4505   -0.4715 C   0  0  0  0  0  0  0  0  0  0  0  0
    3.6351   -1.4920   -0.5064 C   0  0  0  0  0  0  0  0  0  0  0  0
    2.8431   -0.4192   -0.1480 C   0  0  0  0  0  0  0  0  0  0  0  0
    1.4074   -0.5649   -0.2199 C   0  0  0  0  0  0  0  0  0  0  0  0
    0.5710    0.4165    0.1063 C   0  0  0  0  0  0  0  0  0  0  0  0
   -0.8873    0.3046    0.0454 C   0  0  0  0  0  0  0  0  0  0  0  0
   -1.7186    1.3401    0.3985 C   0  0  0  0  0  0  0  0  0  0  0  0
   -1.1836    2.5279    0.8176 C   0  0  0  0  0  0  0  0  0  0  0  0
   -2.0304    3.5711    1.1731 C   0  0  0  0  0  0  0  0  0  0  0  0
   -3.3805    3.4409    1.1148 C   0  0  0  0  0  0  0  0  0  0  0  0
   -3.9421    2.2359    0.6894 C   0  0  0  0  0  0  0  0  0  0  0  0
   -3.1123    1.2044    0.3379 C   0  0  0  0  0  0  0  0  0  0  0  0
   -3.6649    0.0136   -0.0825 C   0  0  0  0  0  0  0  0  0  0  0  0
   -5.0266   -0.1687   -0.1580 C   0  0  0  0  0  0  0  0  0  0  0  0
   -5.5256   -1.3825   -0.5849 C   0  0  0  0  0  0  0  0  0  0  0  0
   -4.7278   -2.4275   -0.9416 C   0  0  0  0  0  0  0  0  0  0  0  0
   -3.3536   -2.2115   -0.8543 C   0  0  0  0  0  0  0  0  0  0  0  0
   -2.7956   -1.0162   -0.4334 C   0  0  0  0  0  0  0  0  0  0  0  0
   -1.4470   -0.8484   -0.3623 N   0  0  0  0  0  4  0  0  0  0  0  0
   -0.5860   -2.0375   -0.7781 B   0  0  0  0  0  4  0  0  0  0  0  0
   -0.7918   -2.4288   -2.1670 F   0  0  0  0  0  0  0  0  0  0  0  0
   -0.8226   -3.1795    0.1256 F   0  0  0  0  0  0  0  0  0  0  0  0
    0.8664   -1.7471   -0.6356 O   0  0  0  0  0  0  0  0  0  0  0  0
    3.4760    0.7305    0.2583 C   0  0  0  0  0  0  0  0  0  0  0  0
    4.8725    0.7706    0.2931 C   0  0  0  0  0  0  0  0  0  0  0  0
    7.5432   -1.0803   -0.6780 H   0  0  0  0  0  0  0  0  0  0  0  0
    7.4056    0.7272   -0.4412 H   0  0  0  0  0  0  0  0  0  0  0  0
    7.5024   -0.3150    0.9974 H   0  0  0  0  0  0  0  0  0  0  0  0
    5.5831   -2.3360   -0.7685 H   0  0  0  0  0  0  0  0  0  0  0  0
    3.1724   -2.4294   -0.8368 H   0  0  0  0  0  0  0  0  0  0  0  0
    0.9938    1.3394    0.4315 H   0  0  0  0  0  0  0  0  0  0  0  0
   -0.1428    2.7399    0.9013 H   0  0  0  0  0  0  0  0  0  0  0  0
   -1.6293    4.5257    1.5097 H   0  0  0  0  0  0  0  0  0  0  0  0
   -4.0741    4.2187    1.3793 H   0  0  0  0  0  0  0  0  0  0  0  0
   -5.0103    2.1339    0.6437 H   0  0  0  0  0  0  0  0  0  0  0  0
   -5.7662    0.5653    0.0910 H   0  0  0  0  0  0  0  0  0  0  0  0
   -6.6108   -1.5541   -0.6542 H   0  0  0  0  0  0  0  0  0  0  0  0
   -5.0489   -3.3984   -1.2823 H   0  0  0  0  0  0  0  0  0  0  0  0
   -2.6623   -3.0134   -1.1259 H   0  0  0  0  0  0  0  0  0  0  0  0
    2.9355    1.6182    0.5565 H   0  0  0  0  0  0  0  0  0  0  0  0
    5.3878    1.6722    0.6119 H   0  0  0  0  0  0  0  0  0  0  0  0
  1  2  1  0
  2  3  2  0
  3  4  1  0
  4  5  2  0
  5  6  1  0
  6  7  2  0
  7  8  1  0
  8  9  2  0
  9 10  1  0
 10 11  2  0
 11 12  1  0
 12 13  2  0
 13 14  1  0
 14 15  2  0
 15 16  1  0
 16 17  2  0
 17 18  1  0
 18 19  2  0
 19 20  1  0
 20 21  2  0
 21 22  1  0
 22 23  1  0
 22 24  1  0
 22 25  1  0
  5 26  1  0
 26 27  2  0
 27  2  1  0
 25  6  1  0
 21  8  1  0
 14  9  1  0
 20 15  1  0
  1 28  1  0
  1 29  1  0
  1 30  1  0
  3 31  1  0
  4 32  1  0
  7 33  1  0
 10 34  1  0
 11 35  1  0
 12 36  1  0
 13 37  1  0
 16 38  1  0
 17 39  1  0
 18 40  1  0
 19 41  1  0
 26 42  1  0
 27 43  1  0
M  CHG  2  21   1  22  -1
M  END
