
     RDKit          3D

 92 98  0  0  0  0  0  0  0  0999 V2000
   -9.8884    2.3533   -2.9270 C   0  0  0  0  0  0  0  0  0  0  0  0
   -9.2547    1.9485   -1.7793 O   0  0  0  0  0  0  0  0  0  0  0  0
   -7.9061    1.7508   -1.6559 C   0  0  0  0  0  0  0  0  0  0  0  0
   -7.0354    1.9458   -2.6995 C   0  0  0  0  0  0  0  0  0  0  0  0
   -5.6954    1.7243   -2.4715 C   0  0  0  0  0  0  0  0  0  0  0  0
   -5.1492    1.3279   -1.3020 C   0  0  0  0  0  0  0  0  0  0  0  0
   -3.7873    1.0127   -0.9721 C   0  0  0  0  0  0  0  0  0  0  0  0
   -3.6531   -0.2963   -0.3844 C   0  0  0  0  0  0  0  0  0  0  0  0
   -2.4846   -0.5595    0.1181 N   0  0  0  0  0  0  0  0  0  0  0  0
   -2.4061   -1.8466    0.6868 C   0  0  0  0  0  0  0  0  0  0  0  0
   -1.1695   -1.9997    1.1381 C   0  0  0  0  0  0  0  0  0  0  0  0
    0.1173   -1.8697    1.4675 C   0  0  0  0  0  0  0  0  0  0  0  0
    0.8448   -2.0984    2.5918 C   0  0  0  0  0  0  0  0  0  0  0  0
    2.0988   -1.5704    2.3983 C   0  0  0  0  0  0  0  0  0  0  0  0
    2.1451   -1.0133    1.1411 C   0  0  0  0  0  0  0  0  0  0  0  0
    0.9665   -1.1923    0.5711 N   0  0  0  0  0  0  0  0  0  0  0  0
    3.2473   -0.2883    0.5768 C   0  0  0  0  0  0  0  0  0  0  0  0
    4.5794   -0.7835    0.7988 C   0  0  0  0  0  0  0  0  0  0  0  0
    4.8351   -2.1202    0.4894 C   0  0  0  0  0  0  0  0  0  0  0  0
    6.0979   -2.6181    0.4450 C   0  0  0  0  0  0  0  0  0  0  0  0
    7.1663   -1.8031    0.7039 C   0  0  0  0  0  0  0  0  0  0  0  0
    8.4717   -2.2389    0.6862 O   0  0  0  0  0  0  0  0  0  0  0  0
    8.9353   -3.5248    0.4304 C   0  0  0  0  0  0  0  0  0  0  0  0
    6.9137   -0.4379    1.0166 C   0  0  0  0  0  0  0  0  0  0  0  0
    7.9855    0.3377    1.2428 O   0  0  0  0  0  0  0  0  0  0  0  0
    8.9285    1.1271    1.4853 C   0  0  0  0  0  0  0  0  0  0  0  0
   10.3495    0.7007    1.0357 C   0  0  0  0  0  0  0  0  0  0  0  0
   10.5169    0.7468   -0.4429 C   0  0  0  0  0  0  0  0  0  0  0  0
    9.5968    0.0144   -1.2792 C   0  0  0  0  0  0  0  0  0  0  0  0
    8.4666    0.5396   -1.6002 O   0  0  0  0  0  0  0  0  0  0  0  0
    9.8148   -1.2457   -1.7943 O   0  0  0  0  0  0  0  0  0  0  0  0
    5.6471    0.0730    1.0760 C   0  0  0  0  0  0  0  0  0  0  0  0
    3.0690    0.8970   -0.1750 C   0  0  0  0  0  0  0  0  0  0  0  0
    1.8159    1.3340   -0.4380 N   0  0  0  0  0  0  0  0  0  0  0  0
    1.8149    2.4335   -1.1789 C   0  0  0  0  0  0  0  0  0  0  0  0
    0.6732    3.0807   -1.6033 C   0  0  0  0  0  0  0  0  0  0  0  0
   -0.6594    2.7955   -1.4183 C   0  0  0  0  0  0  0  0  0  0  0  0
   -1.5925    3.8214   -1.1274 C   0  0  0  0  0  0  0  0  0  0  0  0
   -2.8213    3.2818   -0.9579 C   0  0  0  0  0  0  0  0  0  0  0  0
   -2.6853    1.8844   -1.1415 C   0  0  0  0  0  0  0  0  0  0  0  0
   -1.3986    1.6686   -1.4116 N   0  0  0  0  0  0  0  0  0  0  0  0
    3.2274    2.7128   -1.4000 C   0  0  0  0  0  0  0  0  0  0  0  0
    3.9629    1.7767   -0.7886 C   0  0  0  0  0  0  0  0  0  0  0  0
   -3.7071   -2.3719    0.4748 C   0  0  0  0  0  0  0  0  0  0  0  0
   -4.4459   -1.4653   -0.1548 C   0  0  0  0  0  0  0  0  0  0  0  0
   -6.0674    1.1317   -0.2367 C   0  0  0  0  0  0  0  0  0  0  0  0
   -7.3924    1.3306   -0.3987 C   0  0  0  0  0  0  0  0  0  0  0  0
   -8.3513    1.1548    0.5523 O   0  0  0  0  0  0  0  0  0  0  0  0
   -8.2303    0.6760    1.8258 C   0  0  0  0  0  0  0  0  0  0  0  0
   -7.7841   -0.7999    1.8564 C   0  0  0  0  0  0  0  0  0  0  0  0
   -8.7996   -1.6230    1.0822 C   0  0  0  0  0  0  0  0  0  0  0  0
   -8.4264   -3.0545    1.0525 C   0  0  0  0  0  0  0  0  0  0  0  0
   -9.2346   -3.8198    0.4543 O   0  0  0  0  0  0  0  0  0  0  0  0
   -7.2838   -3.5260    1.6370 O   0  0  0  0  0  0  0  0  0  0  0  0
   -9.2760    2.8255   -3.6869 H   0  0  0  0  0  0  0  0  0  0  0  0
  -10.6945    3.1084   -2.6573 H   0  0  0  0  0  0  0  0  0  0  0  0
  -10.4681    1.4771   -3.3177 H   0  0  0  0  0  0  0  0  0  0  0  0
   -7.3530    2.2620   -3.6859 H   0  0  0  0  0  0  0  0  0  0  0  0
   -4.9726    1.8731   -3.3018 H   0  0  0  0  0  0  0  0  0  0  0  0
   -1.4310   -3.1948    1.7173 H   0  0  0  0  0  0  0  0  0  0  0  0
    0.4796   -2.6117    3.5020 H   0  0  0  0  0  0  0  0  0  0  0  0
    2.9274   -1.5802    3.1116 H   0  0  0  0  0  0  0  0  0  0  0  0
    0.6172   -0.9148   -0.4789 H   0  0  0  0  0  0  0  0  0  0  0  0
    3.9906   -2.7929    0.2819 H   0  0  0  0  0  0  0  0  0  0  0  0
    6.2301   -3.6832    0.1926 H   0  0  0  0  0  0  0  0  0  0  0  0
    9.1207   -4.1208    1.3476 H   0  0  0  0  0  0  0  0  0  0  0  0
    9.9075   -3.4626   -0.1346 H   0  0  0  0  0  0  0  0  0  0  0  0
    8.2368   -4.1399   -0.1720 H   0  0  0  0  0  0  0  0  0  0  0  0
    9.0458    1.3869    2.5997 H   0  0  0  0  0  0  0  0  0  0  0  0
    8.8115    2.1958    1.0274 H   0  0  0  0  0  0  0  0  0  0  0  0
   11.0757    1.3495    1.5295 H   0  0  0  0  0  0  0  0  0  0  0  0
   10.5243   -0.3630    1.3876 H   0  0  0  0  0  0  0  0  0  0  0  0
   11.5667    0.3890   -0.7318 H   0  0  0  0  0  0  0  0  0  0  0  0
   10.5551    1.8296   -0.7919 H   0  0  0  0  0  0  0  0  0  0  0  0
    9.0178   -1.8712   -1.9435 H   0  0  0  0  0  0  0  0  0  0  0  0
    5.3951    1.0798    1.3401 H   0  0  0  0  0  0  0  0  0  0  0  0
    0.9051    4.0121   -2.1889 H   0  0  0  0  0  0  0  0  0  0  0  0
   -1.3955    4.9183   -1.0455 H   0  0  0  0  0  0  0  0  0  0  0  0
   -3.7242    3.8517   -0.7285 H   0  0  0  0  0  0  0  0  0  0  0  0
   -0.9410    0.6500   -1.6461 H   0  0  0  0  0  0  0  0  0  0  0  0
    3.6556    3.5428   -1.9701 H   0  0  0  0  0  0  0  0  0  0  0  0
    5.0619    1.7449   -0.8012 H   0  0  0  0  0  0  0  0  0  0  0  0
   -4.0139   -3.3699    0.7874 H   0  0  0  0  0  0  0  0  0  0  0  0
   -5.4770   -1.5539   -0.4583 H   0  0  0  0  0  0  0  0  0  0  0  0
   -5.6666    0.8248    0.7504 H   0  0  0  0  0  0  0  0  0  0  0  0
   -7.5117    1.2160    2.4680 H   0  0  0  0  0  0  0  0  0  0  0  0
   -9.1998    0.6554    2.3892 H   0  0  0  0  0  0  0  0  0  0  0  0
   -6.7643   -0.9765    1.5495 H   0  0  0  0  0  0  0  0  0  0  0  0
   -7.9006   -1.0935    2.9144 H   0  0  0  0  0  0  0  0  0  0  0  0
   -9.8057   -1.4567    1.4702 H   0  0  0  0  0  0  0  0  0  0  0  0
   -8.8267   -1.2930    0.0073 H   0  0  0  0  0  0  0  0  0  0  0  0
   -6.6814   -4.1291    1.1268 H   0  0  0  0  0  0  0  0  0  0  0  0
  1  2  1  0
  2  3  1  0
  3  4  2  0
  4  5  1  0
  5  6  2  0
  6  7  1  0
  7  8  1  0
  8  9  2  0
  9 10  1  0
 10 11  2  0
 11 12  1  0
 12 13  2  0
 13 14  1  0
 14 15  2  0
 15 16  1  0
 15 17  1  0
 17 18  1  0
 18 19  2  0
 19 20  1  0
 20 21  2  0
 21 22  1  0
 22 23  1  0
 21 24  1  0
 24 25  1  0
 25 26  1  0
 26 27  1  0
 27 28  1  0
 28 29  1  0
 29 30  2  0
 29 31  1  0
 24 32  2  0
 17 33  2  0
 33 34  1  0
 34 35  2  0
 35 36  1  0
 36 37  2  0
 37 38  1  0
 38 39  2  0
 39 40  1  0
 40 41  1  0
 35 42  1  0
 42 43  2  0
 10 44  1  0
 44 45  2  0
  6 46  1  0
 46 47  2  0
 47 48  1  0
 48 49  1  0
 49 50  1  0
 50 51  1  0
 51 52  1  0
 52 53  2  0
 52 54  1  0
 47  3  1  0
 40  7  2  0
 45  8  1  0
 16 12  1  0
 32 18  1  0
 43 33  1  0
 41 37  1  0
  1 55  1  0
  1 56  1  0
  1 57  1  0
  4 58  1  0
  5 59  1  0
 11 60  1  0
 13 61  1  0
 14 62  1  0
 16 63  1  0
 19 64  1  0
 20 65  1  0
 23 66  1  0
 23 67  1  0
 23 68  1  0
 26 69  1  0
 26 70  1  0
 27 71  1  0
 27 72  1  0
 28 73  1  0
 28 74  1  0
 31 75  1  0
 32 76  1  0
 36 77  1  0
 38 78  1  0
 39 79  1  0
 41 80  1  0
 42 81  1  0
 43 82  1  0
 44 83  1  0
 45 84  1  0
 46 85  1  0
 49 86  1  0
 49 87  1  0
 50 88  1  0
 50 89  1  0
 51 90  1  0
 51 91  1  0
 54 92  1  0
M  END
