
     RDKit          3D

 39 41  0  0  0  0  0  0  0  0999 V2000
   -5.4708    1.1510    1.1361 C   0  0  0  0  0  0  0  0  0  0  0  0
   -4.9420    0.6898   -0.1924 C   0  0  0  0  0  0  0  0  0  0  0  0
   -3.4646    0.6007   -0.1483 C   0  0  0  0  0  0  0  0  0  0  0  0
   -2.7445   -0.4828   -0.3517 C   0  0  0  0  0  0  0  0  0  0  0  0
   -3.2113   -1.8674   -0.6711 C   0  0  0  0  0  0  0  0  0  0  0  0
   -1.3526   -0.0893   -0.2069 C   0  0  0  0  0  0  0  0  0  0  0  0
   -0.2040   -0.8452   -0.3211 C   0  0  0  0  0  0  0  0  0  0  0  0
    1.0179   -0.2395   -0.1377 C   0  0  0  0  0  0  0  0  0  0  0  0
    2.1673   -0.9895   -0.2506 C   0  0  0  0  0  0  0  0  0  0  0  0
    2.0385   -2.3301   -0.5460 O   0  0  0  0  0  0  0  0  0  0  0  0
    3.2122   -3.1127   -0.6648 C   0  0  0  0  0  0  0  0  0  0  0  0
    3.3972   -0.3653   -0.0628 C   0  0  0  0  0  0  0  0  0  0  0  0
    3.5100    0.9758    0.2320 C   0  0  0  0  0  0  0  0  0  0  0  0
    4.7100    1.6278    0.4245 O   0  0  0  0  0  0  0  0  0  0  0  0
    5.9675    1.0311    0.3494 C   0  0  0  0  0  0  0  0  0  0  0  0
    2.3438    1.7053    0.3397 C   0  0  0  0  0  0  0  0  0  0  0  0
    1.0915    1.1042    0.1560 C   0  0  0  0  0  0  0  0  0  0  0  0
   -0.0689    1.8348    0.2642 C   0  0  0  0  0  0  0  0  0  0  0  0
    0.0235    3.0575    0.5326 O   0  0  0  0  0  0  0  0  0  0  0  0
   -1.2514    1.2245    0.0815 N   0  0  0  0  0  0  0  0  0  0  0  0
   -2.5791    1.7186    0.1314 C   0  0  0  0  0  0  0  0  0  0  0  0
   -2.8649    2.9195    0.3789 O   0  0  0  0  0  0  0  0  0  0  0  0
   -5.4331    2.2526    1.2590 H   0  0  0  0  0  0  0  0  0  0  0  0
   -4.8537    0.6951    1.9387 H   0  0  0  0  0  0  0  0  0  0  0  0
   -6.5095    0.8367    1.3036 H   0  0  0  0  0  0  0  0  0  0  0  0
   -5.4218   -0.2540   -0.4548 H   0  0  0  0  0  0  0  0  0  0  0  0
   -5.2050    1.4582   -0.9455 H   0  0  0  0  0  0  0  0  0  0  0  0
   -4.2906   -1.9179   -0.7909 H   0  0  0  0  0  0  0  0  0  0  0  0
   -2.7323   -2.2509   -1.6007 H   0  0  0  0  0  0  0  0  0  0  0  0
   -2.9375   -2.5742    0.1636 H   0  0  0  0  0  0  0  0  0  0  0  0
   -0.2497   -1.9209   -0.5557 H   0  0  0  0  0  0  0  0  0  0  0  0
    3.5973   -3.3639    0.3429 H   0  0  0  0  0  0  0  0  0  0  0  0
    2.9919   -4.1023   -1.1498 H   0  0  0  0  0  0  0  0  0  0  0  0
    3.9796   -2.6324   -1.3009 H   0  0  0  0  0  0  0  0  0  0  0  0
    4.2940   -0.9355   -0.1477 H   0  0  0  0  0  0  0  0  0  0  0  0
    5.9976   -0.0367    0.5725 H   0  0  0  0  0  0  0  0  0  0  0  0
    6.7186    1.5210    1.0129 H   0  0  0  0  0  0  0  0  0  0  0  0
    6.3763    1.1550   -0.6867 H   0  0  0  0  0  0  0  0  0  0  0  0
    2.3528    2.7512    0.5663 H   0  0  0  0  0  0  0  0  0  0  0  0
  1  2  1  0
  2  3  1  0
  3  4  2  0
  4  5  1  0
  4  6  1  0
  6  7  2  0
  7  8  1  0
  8  9  2  0
  9 10  1  0
 10 11  1  0
  9 12  1  0
 12 13  2  0
 13 14  1  0
 14 15  1  0
 13 16  1  0
 16 17  2  0
 17 18  1  0
 18 19  2  0
 18 20  1  0
 20 21  1  0
 21 22  2  0
 21  3  1  0
 20  6  1  0
 17  8  1  0
  1 23  1  0
  1 24  1  0
  1 25  1  0
  2 26  1  0
  2 27  1  0
  5 28  1  0
  5 29  1  0
  5 30  1  0
  7 31  1  0
 11 32  1  0
 11 33  1  0
 11 34  1  0
 12 35  1  0
 15 36  1  0
 15 37  1  0
 15 38  1  0
 16 39  1  0
M  END
