
     RDKit          3D

 77 82  0  0  0  0  0  0  0  0999 V2000
    9.9279    0.9638   -2.1171 C   0  0  0  0  0  0  0  0  0  0  0  0
    9.8223   -0.4285   -1.6904 N   0  0  0  0  0  0  0  0  0  0  0  0
   10.1493   -0.4571   -0.2758 C   0  0  0  0  0  0  0  0  0  0  0  0
    9.1765    0.4204    0.5016 C   0  0  0  0  0  0  0  0  0  0  0  0
    7.8271    0.2413    0.0146 N   0  0  0  0  0  0  0  0  0  0  0  0
    6.8050    1.0904    0.5030 C   0  0  0  0  0  0  0  0  0  0  0  0
    7.0141    2.3587    1.0076 C   0  0  0  0  0  0  0  0  0  0  0  0
    5.9746    3.1630    1.4770 C   0  0  0  0  0  0  0  0  0  0  0  0
    4.7082    2.6341    1.4178 C   0  0  0  0  0  0  0  0  0  0  0  0
    4.4179    1.3764    0.9291 C   0  0  0  0  0  0  0  0  0  0  0  0
    3.0488    0.8799    0.8695 C   0  0  0  0  0  0  0  0  0  0  0  0
    2.6842   -0.3354    0.5197 C   0  0  0  0  0  0  0  0  0  0  0  0
    1.2896   -0.7674    0.4787 C   0  0  0  0  0  0  0  0  0  0  0  0
    0.9015   -2.0255    0.2322 N   0  0  0  0  0  0  0  0  0  0  0  0
   -0.4501   -2.1302    0.2562 C   0  0  0  0  0  0  0  0  0  0  0  0
   -0.8662   -0.8432    0.5333 C   0  0  0  0  0  0  0  0  0  0  0  0
   -2.2655   -0.4417    0.6565 C   0  0  0  0  0  0  0  0  0  0  0  0
   -2.6073    0.8927    0.8446 C   0  0  0  0  0  0  0  0  0  0  0  0
   -3.9229    1.2804    0.9594 C   0  0  0  0  0  0  0  0  0  0  0  0
   -4.9411    0.3685    0.8928 C   0  0  0  0  0  0  0  0  0  0  0  0
   -6.2660    0.7627    1.0072 O   0  0  0  0  0  0  0  0  0  0  0  0
   -6.6396    2.1173    1.1772 C   0  0  0  0  0  0  0  0  0  0  0  0
   -6.1807    2.8781   -0.0302 C   0  0  0  0  0  0  0  0  0  0  0  0
   -6.1052    4.2539    0.0106 C   0  0  0  0  0  0  0  0  0  0  0  0
   -5.6906    4.9924   -1.0867 C   0  0  0  0  0  0  0  0  0  0  0  0
   -5.3343    4.3681   -2.2719 C   0  0  0  0  0  0  0  0  0  0  0  0
   -5.4206    2.9858   -2.2816 C   0  0  0  0  0  0  0  0  0  0  0  0
   -5.8298    2.2376   -1.2031 C   0  0  0  0  0  0  0  0  0  0  0  0
   -4.5885   -0.9560    0.7066 C   0  0  0  0  0  0  0  0  0  0  0  0
   -5.6293   -1.8785    0.6443 O   0  0  0  0  0  0  0  0  0  0  0  0
   -5.4796   -3.2672    0.4716 C   0  0  0  0  0  0  0  0  0  0  0  0
   -6.8486   -3.8658    0.4531 C   0  0  0  0  0  0  0  0  0  0  0  0
   -7.3498   -4.5255   -0.6328 C   0  0  0  0  0  0  0  0  0  0  0  0
   -8.6320   -5.0574   -0.6252 C   0  0  0  0  0  0  0  0  0  0  0  0
   -9.4555   -4.9416    0.4839 C   0  0  0  0  0  0  0  0  0  0  0  0
   -8.9455   -4.2729    1.5842 C   0  0  0  0  0  0  0  0  0  0  0  0
   -7.6733   -3.7468    1.5720 C   0  0  0  0  0  0  0  0  0  0  0  0
   -3.2799   -1.3582    0.5900 C   0  0  0  0  0  0  0  0  0  0  0  0
    0.2061   -0.0933    0.6528 O   0  0  0  0  0  0  0  0  0  0  0  0
    5.4768    0.6239    0.4788 C   0  0  0  0  0  0  0  0  0  0  0  0
    7.4782   -0.7570   -0.9749 C   0  0  0  0  0  0  0  0  0  0  0  0
    8.5416   -0.9799   -2.0065 C   0  0  0  0  0  0  0  0  0  0  0  0
   10.1161    1.0240   -3.2017 H   0  0  0  0  0  0  0  0  0  0  0  0
   10.8151    1.3916   -1.5792 H   0  0  0  0  0  0  0  0  0  0  0  0
    9.0368    1.5200   -1.8382 H   0  0  0  0  0  0  0  0  0  0  0  0
   11.1530   -0.0134   -0.1597 H   0  0  0  0  0  0  0  0  0  0  0  0
   10.0895   -1.4708    0.1353 H   0  0  0  0  0  0  0  0  0  0  0  0
    9.4905    1.4674    0.5164 H   0  0  0  0  0  0  0  0  0  0  0  0
    9.2305    0.0531    1.5627 H   0  0  0  0  0  0  0  0  0  0  0  0
    8.0418    2.7256    1.0287 H   0  0  0  0  0  0  0  0  0  0  0  0
    6.1892    4.1509    1.8592 H   0  0  0  0  0  0  0  0  0  0  0  0
    3.8581    3.2265    1.7739 H   0  0  0  0  0  0  0  0  0  0  0  0
    2.2290    1.5659    1.1369 H   0  0  0  0  0  0  0  0  0  0  0  0
    3.4635   -1.0352    0.2528 H   0  0  0  0  0  0  0  0  0  0  0  0
   -1.0671   -3.0040    0.0977 H   0  0  0  0  0  0  0  0  0  0  0  0
   -1.8053    1.6455    0.9007 H   0  0  0  0  0  0  0  0  0  0  0  0
   -4.1087    2.3277    1.1069 H   0  0  0  0  0  0  0  0  0  0  0  0
   -7.7035    2.2680    1.3895 H   0  0  0  0  0  0  0  0  0  0  0  0
   -6.0616    2.5379    2.0295 H   0  0  0  0  0  0  0  0  0  0  0  0
   -6.3853    4.7372    0.9471 H   0  0  0  0  0  0  0  0  0  0  0  0
   -5.6507    6.0626   -0.9995 H   0  0  0  0  0  0  0  0  0  0  0  0
   -5.0043    4.9256   -3.1490 H   0  0  0  0  0  0  0  0  0  0  0  0
   -5.1351    2.5051   -3.2297 H   0  0  0  0  0  0  0  0  0  0  0  0
   -5.8906    1.1689   -1.2337 H   0  0  0  0  0  0  0  0  0  0  0  0
   -4.9224   -3.6895    1.3383 H   0  0  0  0  0  0  0  0  0  0  0  0
   -4.9853   -3.4553   -0.4870 H   0  0  0  0  0  0  0  0  0  0  0  0
   -6.7259   -4.6331   -1.5191 H   0  0  0  0  0  0  0  0  0  0  0  0
   -9.0260   -5.5772   -1.4796 H   0  0  0  0  0  0  0  0  0  0  0  0
  -10.4441   -5.3525    0.4853 H   0  0  0  0  0  0  0  0  0  0  0  0
   -9.5644   -4.1625    2.4738 H   0  0  0  0  0  0  0  0  0  0  0  0
   -7.2749   -3.2254    2.4265 H   0  0  0  0  0  0  0  0  0  0  0  0
   -3.0716   -2.3959    0.4458 H   0  0  0  0  0  0  0  0  0  0  0  0
    5.3185   -0.3645    0.0862 H   0  0  0  0  0  0  0  0  0  0  0  0
    7.2944   -1.7081   -0.4355 H   0  0  0  0  0  0  0  0  0  0  0  0
    6.5434   -0.4317   -1.5037 H   0  0  0  0  0  0  0  0  0  0  0  0
    8.6973   -2.0713   -2.2504 H   0  0  0  0  0  0  0  0  0  0  0  0
    8.2123   -0.4734   -2.9572 H   0  0  0  0  0  0  0  0  0  0  0  0
  1  2  1  0
  2  3  1  0
  3  4  1  0
  4  5  1  0
  5  6  1  0
  6  7  2  0
  7  8  1  0
  8  9  2  0
  9 10  1  0
 10 11  1  0
 11 12  2  0
 12 13  1  0
 13 14  2  0
 14 15  1  0
 15 16  2  0
 16 17  1  0
 17 18  2  0
 18 19  1  0
 19 20  2  0
 20 21  1  0
 21 22  1  0
 22 23  1  0
 23 24  2  0
 24 25  1  0
 25 26  2  0
 26 27  1  0
 27 28  2  0
 20 29  1  0
 29 30  1  0
 30 31  1  0
 31 32  1  0
 32 33  2  0
 33 34  1  0
 34 35  2  0
 35 36  1  0
 36 37  2  0
 29 38  2  0
 16 39  1  0
 10 40  2  0
  5 41  1  0
 41 42  1  0
 42  2  1  0
 40  6  1  0
 39 13  1  0
 38 17  1  0
 28 23  1  0
 37 32  1  0
  1 43  1  0
  1 44  1  0
  1 45  1  0
  3 46  1  0
  3 47  1  0
  4 48  1  0
  4 49  1  0
  7 50  1  0
  8 51  1  0
  9 52  1  0
 11 53  1  0
 12 54  1  0
 15 55  1  0
 18 56  1  0
 19 57  1  0
 22 58  1  0
 22 59  1  0
 24 60  1  0
 25 61  1  0
 26 62  1  0
 27 63  1  0
 28 64  1  0
 31 65  1  0
 31 66  1  0
 33 67  1  0
 34 68  1  0
 35 69  1  0
 36 70  1  0
 37 71  1  0
 38 72  1  0
 40 73  1  0
 41 74  1  0
 41 75  1  0
 42 76  1  0
 42 77  1  0
M  END
