
     RDKit          3D

 44 48  0  0  0  0  0  0  0  0999 V2000
    4.9395   -1.9744   -0.0118 C   0  0  0  0  0  0  0  0  0  0  0  0
    3.9756   -1.6052    1.1192 C   0  0  0  0  0  0  0  0  0  0  0  0
    2.8726   -0.9805    0.5284 O   0  0  0  0  0  0  0  0  0  0  0  0
    1.8015   -0.5154    1.2735 C   0  0  0  0  0  0  0  0  0  0  0  0
    1.8420   -0.6693    2.5174 O   0  0  0  0  0  0  0  0  0  0  0  0
    0.6614    0.1313    0.6538 C   0  0  0  0  0  0  0  0  0  0  0  0
    0.7230    1.4996    0.5029 C   0  0  0  0  0  0  0  0  0  0  0  0
   -0.3611    2.0925   -0.0833 C   0  0  0  0  0  0  0  0  0  0  0  0
   -0.1836    3.4514   -0.1787 C   0  0  0  0  0  0  0  0  0  0  0  0
   -1.2354    4.1404   -0.7625 C   0  0  0  0  0  0  0  0  0  0  0  0
   -2.3596    3.4851   -1.2035 C   0  0  0  0  0  0  0  0  0  0  0  0
   -2.5081    2.0958   -1.0905 C   0  0  0  0  0  0  0  0  0  0  0  0
   -1.4721    1.4009   -0.5134 C   0  0  0  0  0  0  0  0  0  0  0  0
   -1.5506    0.0237   -0.3692 C   0  0  0  0  0  0  0  0  0  0  0  0
   -2.6372   -0.7107   -0.7822 C   0  0  0  0  0  0  0  0  0  0  0  0
   -2.6805   -2.0809   -0.6225 C   0  0  0  0  0  0  0  0  0  0  0  0
   -3.7751   -2.8247   -1.0380 C   0  0  0  0  0  0  0  0  0  0  0  0
   -3.7584   -4.1854   -0.8513 C   0  0  0  0  0  0  0  0  0  0  0  0
   -2.7029   -4.8306   -0.2716 C   0  0  0  0  0  0  0  0  0  0  0  0
   -1.6304   -4.0652    0.1307 C   0  0  0  0  0  0  0  0  0  0  0  0
   -1.5888   -2.6958   -0.0298 C   0  0  0  0  0  0  0  0  0  0  0  0
   -0.4781   -1.9598    0.3944 C   0  0  0  0  0  0  0  0  0  0  0  0
   -0.4509   -0.5907    0.2272 C   0  0  0  0  0  0  0  0  0  0  0  0
    1.0865    3.8047    0.3704 N   0  0  0  0  0  0  0  0  0  0  0  0
    1.6373    5.1337    0.4540 C   0  0  0  0  0  0  0  0  0  0  0  0
    1.6760    2.5751    0.8085 C   0  0  0  0  0  0  0  0  0  0  0  0
    2.7910    2.3972    1.3547 O   0  0  0  0  0  0  0  0  0  0  0  0
    4.6209   -2.9496   -0.4174 H   0  0  0  0  0  0  0  0  0  0  0  0
    4.8240   -1.2244   -0.8125 H   0  0  0  0  0  0  0  0  0  0  0  0
    5.9892   -1.9838    0.3332 H   0  0  0  0  0  0  0  0  0  0  0  0
    3.6384   -2.5206    1.6496 H   0  0  0  0  0  0  0  0  0  0  0  0
    4.5185   -0.9118    1.7750 H   0  0  0  0  0  0  0  0  0  0  0  0
   -1.1789    5.2072   -0.8762 H   0  0  0  0  0  0  0  0  0  0  0  0
   -3.1947    3.9991   -1.6627 H   0  0  0  0  0  0  0  0  0  0  0  0
   -3.3740    1.5984   -1.4312 H   0  0  0  0  0  0  0  0  0  0  0  0
   -3.4891   -0.2474   -1.2426 H   0  0  0  0  0  0  0  0  0  0  0  0
   -4.6233   -2.3064   -1.5039 H   0  0  0  0  0  0  0  0  0  0  0  0
   -4.6343   -4.7475   -1.1882 H   0  0  0  0  0  0  0  0  0  0  0  0
   -2.7275   -5.9160   -0.1405 H   0  0  0  0  0  0  0  0  0  0  0  0
   -0.7878   -4.5532    0.5900 H   0  0  0  0  0  0  0  0  0  0  0  0
    0.3467   -2.4853    0.8502 H   0  0  0  0  0  0  0  0  0  0  0  0
    2.4118    5.3176   -0.3343 H   0  0  0  0  0  0  0  0  0  0  0  0
    2.1851    5.2803    1.4296 H   0  0  0  0  0  0  0  0  0  0  0  0
    0.8413    5.9005    0.4552 H   0  0  0  0  0  0  0  0  0  0  0  0
  1  2  1  0
  2  3  1  0
  3  4  1  0
  4  5  2  0
  4  6  1  0
  6  7  2  0
  7  8  1  0
  8  9  2  0
  9 10  1  0
 10 11  2  0
 11 12  1  0
 12 13  2  0
 13 14  1  0
 14 15  2  0
 15 16  1  0
 16 17  2  0
 17 18  1  0
 18 19  2  0
 19 20  1  0
 20 21  2  0
 21 22  1  0
 22 23  2  0
  9 24  1  0
 24 25  1  0
 24 26  1  0
 26 27  2  0
 23  6  1  0
 26  7  1  0
 13  8  1  0
 23 14  1  0
 21 16  1  0
  1 28  1  0
  1 29  1  0
  1 30  1  0
  2 31  1  0
  2 32  1  0
 10 33  1  0
 11 34  1  0
 12 35  1  0
 15 36  1  0
 17 37  1  0
 18 38  1  0
 19 39  1  0
 20 40  1  0
 22 41  1  0
 25 42  1  0
 25 43  1  0
 25 44  1  0
M  END
