
     RDKit          3D

 29 32  0  0  0  0  0  0  0  0999 V2000
   -0.4389   -1.0672    2.4664 O   0  0  0  0  0  0  0  0  0  0  0  0
   -1.1255   -0.6329    1.5132 C   0  0  0  0  0  0  0  0  0  0  0  0
   -2.4287   -0.6471    1.6577 O   0  0  0  0  0  0  0  0  0  0  0  0
   -3.2141   -0.2040    0.6923 C   0  0  0  0  0  0  0  0  0  0  0  0
   -4.5873   -0.2103    0.8243 C   0  0  0  0  0  0  0  0  0  0  0  0
   -5.4437    0.2483   -0.1711 C   0  0  0  0  0  0  0  0  0  0  0  0
   -4.8731    0.7253   -1.3312 C   0  0  0  0  0  0  0  0  0  0  0  0
   -3.5040    0.7488   -1.5030 C   0  0  0  0  0  0  0  0  0  0  0  0
   -2.6891    0.2832   -0.4879 C   0  0  0  0  0  0  0  0  0  0  0  0
   -1.2956    0.2926   -0.6289 C   0  0  0  0  0  0  0  0  0  0  0  0
   -0.4931   -0.1729    0.3874 C   0  0  0  0  0  0  0  0  0  0  0  0
    0.9622   -0.1630    0.2398 C   0  0  0  0  0  0  0  0  0  0  0  0
    1.8777   -0.5830    1.1402 N   0  0  0  0  0  0  0  0  0  0  0  0
    3.1268   -0.4237    0.6623 C   0  0  0  0  0  0  0  0  0  0  0  0
    4.3954   -0.6846    1.1617 C   0  0  0  0  0  0  0  0  0  0  0  0
    5.4997   -0.4073    0.4212 C   0  0  0  0  0  0  0  0  0  0  0  0
    5.3259    0.1375   -0.8333 C   0  0  0  0  0  0  0  0  0  0  0  0
    4.0738    0.4070   -1.3543 C   0  0  0  0  0  0  0  0  0  0  0  0
    2.9382    0.1256   -0.6015 C   0  0  0  0  0  0  0  0  0  0  0  0
    1.6585    0.2531   -0.7891 O   0  0  0  0  0  0  0  0  0  0  0  0
   -4.9796   -0.5972    1.7592 H   0  0  0  0  0  0  0  0  0  0  0  0
   -6.5236    0.2257   -0.0263 H   0  0  0  0  0  0  0  0  0  0  0  0
   -5.5384    1.0824   -2.1066 H   0  0  0  0  0  0  0  0  0  0  0  0
   -3.0215    1.1145   -2.3963 H   0  0  0  0  0  0  0  0  0  0  0  0
   -0.8937    0.6820   -1.5705 H   0  0  0  0  0  0  0  0  0  0  0  0
    4.5246   -1.1120    2.1466 H   0  0  0  0  0  0  0  0  0  0  0  0
    6.4959   -0.6061    0.7994 H   0  0  0  0  0  0  0  0  0  0  0  0
    6.2150    0.3513   -1.4075 H   0  0  0  0  0  0  0  0  0  0  0  0
    3.9561    0.8339   -2.3388 H   0  0  0  0  0  0  0  0  0  0  0  0
  1  2  2  0
  2  3  1  0
  3  4  1  0
  4  5  2  0
  5  6  1  0
  6  7  2  0
  7  8  1  0
  8  9  2  0
  9 10  1  0
 10 11  2  0
 11 12  1  0
 12 13  2  0
 13 14  1  0
 14 15  2  0
 15 16  1  0
 16 17  2  0
 17 18  1  0
 18 19  2  0
 19 20  1  0
 11  2  1  0
 20 12  1  0
  9  4  1  0
 19 14  1  0
  5 21  1  0
  6 22  1  0
  7 23  1  0
  8 24  1  0
 10 25  1  0
 15 26  1  0
 16 27  1  0
 17 28  1  0
 18 29  1  0
M  END
