
     RDKit          3D

 49 52  0  0  0  0  0  0  0  0999 V2000
    6.2269   -2.5017   -0.3858 C   0  0  0  0  0  0  0  0  0  0  0  0
    4.8325   -2.4799   -0.4015 O   0  0  0  0  0  0  0  0  0  0  0  0
    4.0856   -1.3225   -0.2711 C   0  0  0  0  0  0  0  0  0  0  0  0
    4.7977   -0.1307   -0.1166 C   0  0  0  0  0  0  0  0  0  0  0  0
    4.1409    1.0636    0.0189 C   0  0  0  0  0  0  0  0  0  0  0  0
    4.8455    2.2365    0.1709 O   0  0  0  0  0  0  0  0  0  0  0  0
    6.2306    2.3777    0.2067 C   0  0  0  0  0  0  0  0  0  0  0  0
    2.7690    1.0395   -0.0033 C   0  0  0  0  0  0  0  0  0  0  0  0
    2.0204   -0.1148   -0.1535 C   0  0  0  0  0  0  0  0  0  0  0  0
    0.5662   -0.0984   -0.1723 C   0  0  0  0  0  0  0  0  0  0  0  0
   -0.1708    0.9862   -0.0565 C   0  0  0  0  0  0  0  0  0  0  0  0
   -1.6031    0.6051   -0.1213 C   0  0  0  0  0  0  0  0  0  0  0  0
   -2.6936    1.5640    0.0046 C   0  0  0  0  0  0  0  0  0  0  0  0
   -2.5892    2.7704   -0.7039 C   0  0  0  0  0  0  0  0  0  0  0  0
   -3.5423    3.7531   -0.6497 C   0  0  0  0  0  0  0  0  0  0  0  0
   -4.6446    3.5287    0.1408 C   0  0  0  0  0  0  0  0  0  0  0  0
   -4.7853    2.3406    0.8618 C   0  0  0  0  0  0  0  0  0  0  0  0
   -3.7982    1.3746    0.7781 C   0  0  0  0  0  0  0  0  0  0  0  0
   -1.7018   -0.6938   -0.2740 C   0  0  0  0  0  0  0  0  0  0  0  0
   -2.9503   -1.4347   -0.3815 C   0  0  0  0  0  0  0  0  0  0  0  0
   -4.0375   -1.0325   -1.1161 C   0  0  0  0  0  0  0  0  0  0  0  0
   -5.1574   -1.8333   -1.1223 C   0  0  0  0  0  0  0  0  0  0  0  0
   -5.2373   -3.0176   -0.4267 C   0  0  0  0  0  0  0  0  0  0  0  0
   -4.1512   -3.4238    0.3097 C   0  0  0  0  0  0  0  0  0  0  0  0
   -3.0303   -2.6217    0.3157 C   0  0  0  0  0  0  0  0  0  0  0  0
   -0.3084   -1.2795   -0.3199 C   0  0  0  0  0  0  0  0  0  0  0  0
    2.7116   -1.3024   -0.2876 C   0  0  0  0  0  0  0  0  0  0  0  0
    6.6120   -1.8847   -1.2454 H   0  0  0  0  0  0  0  0  0  0  0  0
    6.6656   -2.0634    0.5324 H   0  0  0  0  0  0  0  0  0  0  0  0
    6.5733   -3.5239   -0.5503 H   0  0  0  0  0  0  0  0  0  0  0  0
    5.8781   -0.1241   -0.1006 H   0  0  0  0  0  0  0  0  0  0  0  0
    6.7634    1.6698   -0.4453 H   0  0  0  0  0  0  0  0  0  0  0  0
    6.5412    2.2730    1.2886 H   0  0  0  0  0  0  0  0  0  0  0  0
    6.4795    3.4259   -0.1388 H   0  0  0  0  0  0  0  0  0  0  0  0
    2.2256    1.9673    0.1013 H   0  0  0  0  0  0  0  0  0  0  0  0
    0.1899    2.0104    0.0673 H   0  0  0  0  0  0  0  0  0  0  0  0
   -1.7012    2.9180   -1.3230 H   0  0  0  0  0  0  0  0  0  0  0  0
   -3.3875    4.6570   -1.2264 H   0  0  0  0  0  0  0  0  0  0  0  0
   -5.4154    4.2726    0.2118 H   0  0  0  0  0  0  0  0  0  0  0  0
   -5.6380    2.1407    1.4876 H   0  0  0  0  0  0  0  0  0  0  0  0
   -3.8783    0.4335    1.3396 H   0  0  0  0  0  0  0  0  0  0  0  0
   -4.0000   -0.1199   -1.6683 H   0  0  0  0  0  0  0  0  0  0  0  0
   -6.0461   -1.5440   -1.6988 H   0  0  0  0  0  0  0  0  0  0  0  0
   -6.1643   -3.6118   -0.4744 H   0  0  0  0  0  0  0  0  0  0  0  0
   -4.1735   -4.3314    0.8597 H   0  0  0  0  0  0  0  0  0  0  0  0
   -2.1694   -2.9650    0.9125 H   0  0  0  0  0  0  0  0  0  0  0  0
   -0.1739   -2.0310    0.4845 H   0  0  0  0  0  0  0  0  0  0  0  0
   -0.1838   -1.6958   -1.3281 H   0  0  0  0  0  0  0  0  0  0  0  0
    2.1776   -2.2258   -0.4077 H   0  0  0  0  0  0  0  0  0  0  0  0
  1  2  1  0
  2  3  1  0
  3  4  2  0
  4  5  1  0
  5  6  1  0
  6  7  1  0
  5  8  2  0
  8  9  1  0
  9 10  1  0
 10 11  2  0
 11 12  1  0
 12 13  1  0
 13 14  2  0
 14 15  1  0
 15 16  2  0
 16 17  1  0
 17 18  2  0
 12 19  2  0
 19 20  1  0
 20 21  2  0
 21 22  1  0
 22 23  2  0
 23 24  1  0
 24 25  2  0
 19 26  1  0
  9 27  2  0
 27  3  1  0
 26 10  1  0
 18 13  1  0
 25 20  1  0
  1 28  1  0
  1 29  1  0
  1 30  1  0
  4 31  1  0
  7 32  1  0
  7 33  1  0
  7 34  1  0
  8 35  1  0
 11 36  1  0
 14 37  1  0
 15 38  1  0
 16 39  1  0
 17 40  1  0
 18 41  1  0
 21 42  1  0
 22 43  1  0
 23 44  1  0
 24 45  1  0
 25 46  1  0
 26 47  1  0
 26 48  1  0
 27 49  1  0
M  END
