
     RDKit          3D

 72 77  0  0  0  0  0  0  0  0999 V2000
    4.1699    1.0957   -0.2745 C   0  0  0  0  0  0  0  0  0  0  0  0
    3.8090   -0.1333    0.0128 C   0  0  0  0  0  0  0  0  0  0  0  0
    2.3837   -0.5132    0.1095 C   0  0  0  0  0  0  0  0  0  0  0  0
    1.9061   -1.7302    0.3935 N   0  0  0  0  0  0  0  0  0  0  0  0
    0.5632   -1.6015    0.3725 C   0  0  0  0  0  0  0  0  0  0  0  0
    0.2424   -0.2981    0.0737 C   0  0  0  0  0  0  0  0  0  0  0  0
   -1.1391    0.1934   -0.0305 C   0  0  0  0  0  0  0  0  0  0  0  0
   -1.3820    1.5166   -0.3295 C   0  0  0  0  0  0  0  0  0  0  0  0
   -2.6867    1.9376   -0.4187 C   0  0  0  0  0  0  0  0  0  0  0  0
   -3.7499    1.0721   -0.2172 C   0  0  0  0  0  0  0  0  0  0  0  0
   -5.0276    1.5473   -0.3190 O   0  0  0  0  0  0  0  0  0  0  0  0
   -5.3780    2.8666   -0.6144 C   0  0  0  0  0  0  0  0  0  0  0  0
   -6.8563    2.9796   -0.6359 C   0  0  0  0  0  0  0  0  0  0  0  0
   -7.6621    1.8608   -0.4096 C   0  0  0  0  0  0  0  0  0  0  0  0
   -9.0491    1.9574   -0.4285 C   0  0  0  0  0  0  0  0  0  0  0  0
   -9.6723    3.1543   -0.6698 C   0  0  0  0  0  0  0  0  0  0  0  0
   -8.8775    4.2640   -0.8943 C   0  0  0  0  0  0  0  0  0  0  0  0
   -7.4856    4.1821   -0.8783 C   0  0  0  0  0  0  0  0  0  0  0  0
   -3.5327   -0.2578    0.0835 C   0  0  0  0  0  0  0  0  0  0  0  0
   -4.5695   -1.1569    0.2928 O   0  0  0  0  0  0  0  0  0  0  0  0
   -4.2376   -2.4837    0.5936 C   0  0  0  0  0  0  0  0  0  0  0  0
   -5.4076   -3.3501    0.7965 C   0  0  0  0  0  0  0  0  0  0  0  0
   -6.7021   -2.8886    0.6846 C   0  0  0  0  0  0  0  0  0  0  0  0
   -7.7766   -3.7460    0.8866 C   0  0  0  0  0  0  0  0  0  0  0  0
   -7.5942   -5.0814    1.2043 C   0  0  0  0  0  0  0  0  0  0  0  0
   -6.3009   -5.5376    1.3151 C   0  0  0  0  0  0  0  0  0  0  0  0
   -5.2295   -4.6804    1.1131 C   0  0  0  0  0  0  0  0  0  0  0  0
   -2.2132   -0.6464    0.1655 C   0  0  0  0  0  0  0  0  0  0  0  0
    1.3744    0.3300   -0.0787 O   0  0  0  0  0  0  0  0  0  0  0  0
    5.5737    1.4680   -0.3693 C   0  0  0  0  0  0  0  0  0  0  0  0
    5.9254    2.7946   -0.6787 C   0  0  0  0  0  0  0  0  0  0  0  0
    7.2304    3.2005   -0.7809 C   0  0  0  0  0  0  0  0  0  0  0  0
    8.2396    2.2928   -0.5768 C   0  0  0  0  0  0  0  0  0  0  0  0
    7.9682    0.9810   -0.2714 C   0  0  0  0  0  0  0  0  0  0  0  0
    9.0082    0.0347   -0.0604 N   0  0  0  0  0  0  0  0  0  0  0  0
   10.4116    0.3355   -0.1228 C   0  0  0  0  0  0  0  0  0  0  0  0
   11.1350   -0.9760    0.1214 C   0  0  0  0  0  0  0  0  0  0  0  0
   10.1117   -1.8645    0.8022 C   0  0  0  0  0  0  0  0  0  0  0  0
    8.8308   -1.3569    0.2409 C   0  0  0  0  0  0  0  0  0  0  0  0
    6.6252    0.6103   -0.1772 C   0  0  0  0  0  0  0  0  0  0  0  0
    3.4066    1.8514   -0.4456 H   0  0  0  0  0  0  0  0  0  0  0  0
    4.5254   -0.9238    0.1918 H   0  0  0  0  0  0  0  0  0  0  0  0
   -0.1343   -2.4059    0.5618 H   0  0  0  0  0  0  0  0  0  0  0  0
   -0.5332    2.1696   -0.4821 H   0  0  0  0  0  0  0  0  0  0  0  0
   -2.8462    2.9902   -0.6566 H   0  0  0  0  0  0  0  0  0  0  0  0
   -4.9819    3.2162   -1.5874 H   0  0  0  0  0  0  0  0  0  0  0  0
   -5.0303    3.5757    0.1739 H   0  0  0  0  0  0  0  0  0  0  0  0
   -7.1548    0.9254   -0.2210 H   0  0  0  0  0  0  0  0  0  0  0  0
   -9.6430    1.0805   -0.2512 H   0  0  0  0  0  0  0  0  0  0  0  0
  -10.7522    3.2848   -0.6947 H   0  0  0  0  0  0  0  0  0  0  0  0
   -9.3389    5.2109   -1.0862 H   0  0  0  0  0  0  0  0  0  0  0  0
   -6.8700    5.0680   -1.0574 H   0  0  0  0  0  0  0  0  0  0  0  0
   -3.5593   -2.9497   -0.1589 H   0  0  0  0  0  0  0  0  0  0  0  0
   -3.6947   -2.4492    1.5834 H   0  0  0  0  0  0  0  0  0  0  0  0
   -6.8438   -1.8545    0.4387 H   0  0  0  0  0  0  0  0  0  0  0  0
   -8.7933   -3.4101    0.8053 H   0  0  0  0  0  0  0  0  0  0  0  0
   -8.4317   -5.7526    1.3623 H   0  0  0  0  0  0  0  0  0  0  0  0
   -6.1467   -6.5914    1.5663 H   0  0  0  0  0  0  0  0  0  0  0  0
   -4.2133   -5.0397    1.1997 H   0  0  0  0  0  0  0  0  0  0  0  0
   -2.0326   -1.7011    0.4042 H   0  0  0  0  0  0  0  0  0  0  0  0
    5.1037    3.4925   -0.8354 H   0  0  0  0  0  0  0  0  0  0  0  0
    7.4665    4.2181   -1.0185 H   0  0  0  0  0  0  0  0  0  0  0  0
    9.2892    2.5920   -0.6530 H   0  0  0  0  0  0  0  0  0  0  0  0
   10.7498    0.7213   -1.0950 H   0  0  0  0  0  0  0  0  0  0  0  0
   10.7222    1.0432    0.6789 H   0  0  0  0  0  0  0  0  0  0  0  0
   12.0354   -0.8569    0.7468 H   0  0  0  0  0  0  0  0  0  0  0  0
   11.4289   -1.4751   -0.8381 H   0  0  0  0  0  0  0  0  0  0  0  0
   10.1309   -1.6820    1.8905 H   0  0  0  0  0  0  0  0  0  0  0  0
   10.2412   -2.9292    0.5300 H   0  0  0  0  0  0  0  0  0  0  0  0
    8.4972   -1.9156   -0.6702 H   0  0  0  0  0  0  0  0  0  0  0  0
    7.9887   -1.4450    0.9867 H   0  0  0  0  0  0  0  0  0  0  0  0
    6.4364   -0.4300    0.0654 H   0  0  0  0  0  0  0  0  0  0  0  0
  1  2  2  0
  2  3  1  0
  3  4  2  0
  4  5  1  0
  5  6  2  0
  6  7  1  0
  7  8  2  0
  8  9  1  0
  9 10  2  0
 10 11  1  0
 11 12  1  0
 12 13  1  0
 13 14  2  0
 14 15  1  0
 15 16  2  0
 16 17  1  0
 17 18  2  0
 10 19  1  0
 19 20  1  0
 20 21  1  0
 21 22  1  0
 22 23  2  0
 23 24  1  0
 24 25  2  0
 25 26  1  0
 26 27  2  0
 19 28  2  0
  6 29  1  0
  1 30  1  0
 30 31  2  0
 31 32  1  0
 32 33  2  0
 33 34  1  0
 34 35  1  0
 35 36  1  0
 36 37  1  0
 37 38  1  0
 38 39  1  0
 34 40  2  0
 29  3  1  0
 40 30  1  0
 28  7  1  0
 39 35  1  0
 18 13  1  0
 27 22  1  0
  1 41  1  0
  2 42  1  0
  5 43  1  0
  8 44  1  0
  9 45  1  0
 12 46  1  0
 12 47  1  0
 14 48  1  0
 15 49  1  0
 16 50  1  0
 17 51  1  0
 18 52  1  0
 21 53  1  0
 21 54  1  0
 23 55  1  0
 24 56  1  0
 25 57  1  0
 26 58  1  0
 27 59  1  0
 28 60  1  0
 31 61  1  0
 32 62  1  0
 33 63  1  0
 36 64  1  0
 36 65  1  0
 37 66  1  0
 37 67  1  0
 38 68  1  0
 38 69  1  0
 39 70  1  0
 39 71  1  0
 40 72  1  0
M  END
