
     RDKit          3D

 52 55  0  0  0  0  0  0  0  0999 V2000
    2.4406    4.1482    1.6549 C   0  0  0  0  0  0  0  0  0  0  0  0
    1.8216    3.5896    0.4183 C   0  0  0  0  0  0  0  0  0  0  0  0
    1.2399    2.2959    0.6172 O   0  0  0  0  0  0  0  0  0  0  0  0
    0.6352    1.6592   -0.4595 C   0  0  0  0  0  0  0  0  0  0  0  0
    0.6496    2.3020   -1.5641 O   0  0  0  0  0  0  0  0  0  0  0  0
    0.0141    0.3503   -0.3852 C   0  0  0  0  0  0  0  0  0  0  0  0
    0.6008   -0.8983   -0.5956 C   0  0  0  0  0  0  0  0  0  0  0  0
    2.0024   -1.0415   -0.9267 C   0  0  0  0  0  0  0  0  0  0  0  0
    2.9895   -0.5302   -0.1174 C   0  0  0  0  0  0  0  0  0  0  0  0
    4.3006   -0.7352   -0.5393 C   0  0  0  0  0  0  0  0  0  0  0  0
    5.3240   -0.2306    0.2552 C   0  0  0  0  0  0  0  0  0  0  0  0
    6.6103   -0.4332   -0.1612 C   0  0  0  0  0  0  0  0  0  0  0  0
    6.9466   -1.1055   -1.3178 C   0  0  0  0  0  0  0  0  0  0  0  0
    5.9275   -1.5980   -2.0929 C   0  0  0  0  0  0  0  0  0  0  0  0
    4.6111   -1.4087   -1.6970 C   0  0  0  0  0  0  0  0  0  0  0  0
    3.6164   -1.8760   -2.4310 O   0  0  0  0  0  0  0  0  0  0  0  0
    2.3633   -1.7044   -2.0695 C   0  0  0  0  0  0  0  0  0  0  0  0
    1.5180   -2.2073   -2.8735 O   0  0  0  0  0  0  0  0  0  0  0  0
   -0.3522   -1.8284   -0.4380 N   0  0  0  0  0  0  0  0  0  0  0  0
   -1.5219   -1.2431   -0.1362 N   0  0  0  0  0  0  0  0  0  0  0  0
   -2.7281   -1.9493    0.0893 C   0  0  0  0  0  0  0  0  0  0  0  0
   -3.8671   -1.7732   -0.6649 C   0  0  0  0  0  0  0  0  0  0  0  0
   -5.0450   -2.4832   -0.4409 C   0  0  0  0  0  0  0  0  0  0  0  0
   -5.0371   -3.4019    0.5960 C   0  0  0  0  0  0  0  0  0  0  0  0
   -3.9162   -3.6030    1.3708 C   0  0  0  0  0  0  0  0  0  0  0  0
   -2.7652   -2.8847    1.1252 C   0  0  0  0  0  0  0  0  0  0  0  0
   -1.3112    0.0801   -0.1020 C   0  0  0  0  0  0  0  0  0  0  0  0
   -2.3151    1.0965    0.1918 C   0  0  0  0  0  0  0  0  0  0  0  0
   -1.9477    2.3004    0.1919 O   0  0  0  0  0  0  0  0  0  0  0  0
   -3.6385    0.8471    0.4702 O   0  0  0  0  0  0  0  0  0  0  0  0
   -4.6020    1.8442    0.7495 C   0  0  0  0  0  0  0  0  0  0  0  0
   -5.9657    1.1996    1.0046 C   0  0  0  0  0  0  0  0  0  0  0  0
    1.8035    4.0234    2.5463 H   0  0  0  0  0  0  0  0  0  0  0  0
    3.4757    3.7665    1.7821 H   0  0  0  0  0  0  0  0  0  0  0  0
    2.5204    5.2646    1.5084 H   0  0  0  0  0  0  0  0  0  0  0  0
    1.0152    4.2946    0.1038 H   0  0  0  0  0  0  0  0  0  0  0  0
    2.5529    3.5981   -0.4024 H   0  0  0  0  0  0  0  0  0  0  0  0
    2.7560   -0.0043    0.7906 H   0  0  0  0  0  0  0  0  0  0  0  0
    5.0433    0.2905    1.1485 H   0  0  0  0  0  0  0  0  0  0  0  0
    7.4242   -0.0501    0.4422 H   0  0  0  0  0  0  0  0  0  0  0  0
    7.9976   -1.2253   -1.5798 H   0  0  0  0  0  0  0  0  0  0  0  0
    6.1278   -2.1286   -3.0057 H   0  0  0  0  0  0  0  0  0  0  0  0
   -3.8742   -1.0622   -1.4767 H   0  0  0  0  0  0  0  0  0  0  0  0
   -5.9365   -2.3200   -1.0591 H   0  0  0  0  0  0  0  0  0  0  0  0
   -5.9701   -3.9519    0.7584 H   0  0  0  0  0  0  0  0  0  0  0  0
   -3.9709   -4.3386    2.1690 H   0  0  0  0  0  0  0  0  0  0  0  0
   -1.8659   -3.0160    1.7070 H   0  0  0  0  0  0  0  0  0  0  0  0
   -4.2622    2.3869    1.6535 H   0  0  0  0  0  0  0  0  0  0  0  0
   -4.6695    2.5982   -0.0592 H   0  0  0  0  0  0  0  0  0  0  0  0
   -6.0283    0.2655    0.4147 H   0  0  0  0  0  0  0  0  0  0  0  0
   -6.7602    1.9171    0.7647 H   0  0  0  0  0  0  0  0  0  0  0  0
   -5.9772    0.9138    2.0714 H   0  0  0  0  0  0  0  0  0  0  0  0
  1  2  1  0
  2  3  1  0
  3  4  1  0
  4  5  2  0
  4  6  1  0
  6  7  1  0
  7  8  1  0
  8  9  2  0
  9 10  1  0
 10 11  2  0
 11 12  1  0
 12 13  2  0
 13 14  1  0
 14 15  2  0
 15 16  1  0
 16 17  1  0
 17 18  2  0
  7 19  2  0
 19 20  1  0
 20 21  1  0
 21 22  2  0
 22 23  1  0
 23 24  2  0
 24 25  1  0
 25 26  2  0
 20 27  1  0
 27 28  1  0
 28 29  2  0
 28 30  1  0
 30 31  1  0
 31 32  1  0
 27  6  2  0
 17  8  1  0
 26 21  1  0
 15 10  1  0
  1 33  1  0
  1 34  1  0
  1 35  1  0
  2 36  1  0
  2 37  1  0
  9 38  1  0
 11 39  1  0
 12 40  1  0
 13 41  1  0
 14 42  1  0
 22 43  1  0
 23 44  1  0
 24 45  1  0
 25 46  1  0
 26 47  1  0
 31 48  1  0
 31 49  1  0
 32 50  1  0
 32 51  1  0
 32 52  1  0
M  END
