
     RDKit          3D

 44 45  0  0  0  0  0  0  0  0999 V2000
    7.0086   -0.7415    0.7596 C   0  0  0  0  0  0  0  0  0  0  0  0
    6.3077   -0.8662   -0.5599 C   0  0  0  0  0  0  0  0  0  0  0  0
    4.8474   -0.7649   -0.4754 C   0  0  0  0  0  0  0  0  0  0  0  0
    4.2159    0.4735   -0.5875 C   0  0  0  0  0  0  0  0  0  0  0  0
    2.8475    0.6010   -0.5118 C   0  0  0  0  0  0  0  0  0  0  0  0
    2.0662   -0.5085   -0.3212 C   0  0  0  0  0  0  0  0  0  0  0  0
    0.6017   -0.3633   -0.2409 C   0  0  0  0  0  0  0  0  0  0  0  0
    0.0499    0.7750   -0.3473 N   0  0  0  0  0  0  0  0  0  0  0  0
   -1.3394    0.9541   -0.2762 C   0  0  0  0  0  0  0  0  0  0  0  0
   -2.2566   -0.0634   -0.1255 C   0  0  0  0  0  0  0  0  0  0  0  0
   -3.6309    0.1373   -0.0571 C   0  0  0  0  0  0  0  0  0  0  0  0
   -4.6014   -0.9742    0.1046 C   0  0  0  0  0  0  0  0  0  0  0  0
   -3.8824   -2.2893    0.2213 C   0  0  0  0  0  0  0  0  0  0  0  0
   -5.4873   -0.7958    1.3171 C   0  0  0  0  0  0  0  0  0  0  0  0
   -4.0906    1.4342   -0.1464 C   0  0  0  0  0  0  0  0  0  0  0  0
   -5.4592    1.6544   -0.0802 O   0  0  0  0  0  0  0  0  0  0  0  0
   -3.1844    2.4706   -0.2981 C   0  0  0  0  0  0  0  0  0  0  0  0
   -1.8296    2.2641   -0.3647 C   0  0  0  0  0  0  0  0  0  0  0  0
   -0.8512    3.3672   -0.5275 C   0  0  0  0  0  0  0  0  0  0  0  0
    2.6557   -1.7460   -0.2065 C   0  0  0  0  0  0  0  0  0  0  0  0
    4.0430   -1.8601   -0.2852 C   0  0  0  0  0  0  0  0  0  0  0  0
    8.1008   -0.9204    0.5545 H   0  0  0  0  0  0  0  0  0  0  0  0
    6.9368    0.2560    1.2150 H   0  0  0  0  0  0  0  0  0  0  0  0
    6.6896   -1.5367    1.4581 H   0  0  0  0  0  0  0  0  0  0  0  0
    6.5652   -1.8522   -0.9920 H   0  0  0  0  0  0  0  0  0  0  0  0
    6.7335   -0.0744   -1.2344 H   0  0  0  0  0  0  0  0  0  0  0  0
    4.7914    1.3737   -0.7380 H   0  0  0  0  0  0  0  0  0  0  0  0
    2.4061    1.5839   -0.6049 H   0  0  0  0  0  0  0  0  0  0  0  0
    0.0273   -1.2517   -0.0898 H   0  0  0  0  0  0  0  0  0  0  0  0
   -1.9391   -1.0827   -0.0529 H   0  0  0  0  0  0  0  0  0  0  0  0
   -5.3044   -0.9792   -0.7772 H   0  0  0  0  0  0  0  0  0  0  0  0
   -3.3715   -2.3141    1.2110 H   0  0  0  0  0  0  0  0  0  0  0  0
   -3.2439   -2.5406   -0.6248 H   0  0  0  0  0  0  0  0  0  0  0  0
   -4.6643   -3.1001    0.2749 H   0  0  0  0  0  0  0  0  0  0  0  0
   -6.4938   -0.4016    1.0497 H   0  0  0  0  0  0  0  0  0  0  0  0
   -4.9530   -0.1449    2.0326 H   0  0  0  0  0  0  0  0  0  0  0  0
   -5.6719   -1.7676    1.8353 H   0  0  0  0  0  0  0  0  0  0  0  0
   -5.8269    2.6089   -0.1438 H   0  0  0  0  0  0  0  0  0  0  0  0
   -3.5470    3.4806   -0.3672 H   0  0  0  0  0  0  0  0  0  0  0  0
   -0.2334    3.1736   -1.4441 H   0  0  0  0  0  0  0  0  0  0  0  0
   -1.3907    4.3200   -0.7370 H   0  0  0  0  0  0  0  0  0  0  0  0
   -0.1824    3.4720    0.3410 H   0  0  0  0  0  0  0  0  0  0  0  0
    2.0402   -2.6213   -0.0565 H   0  0  0  0  0  0  0  0  0  0  0  0
    4.5007   -2.8396   -0.1939 H   0  0  0  0  0  0  0  0  0  0  0  0
  1  2  1  0
  2  3  1  0
  3  4  2  0
  4  5  1  0
  5  6  2  0
  6  7  1  0
  7  8  2  0
  8  9  1  0
  9 10  2  0
 10 11  1  0
 11 12  1  0
 12 13  1  0
 12 14  1  0
 11 15  2  0
 15 16  1  0
 15 17  1  0
 17 18  2  0
 18 19  1  0
  6 20  1  0
 20 21  2  0
 21  3  1  0
 18  9  1  0
  1 22  1  0
  1 23  1  0
  1 24  1  0
  2 25  1  0
  2 26  1  0
  4 27  1  0
  5 28  1  0
  7 29  1  0
 10 30  1  0
 12 31  1  0
 13 32  1  0
 13 33  1  0
 13 34  1  0
 14 35  1  0
 14 36  1  0
 14 37  1  0
 16 38  1  0
 17 39  1  0
 19 40  1  0
 19 41  1  0
 19 42  1  0
 20 43  1  0
 21 44  1  0
M  END
