
     RDKit          3D

 70 74  0  0  0  0  0  0  0  0999 V2000
    2.7659   -2.8034   -0.3253 O   0  0  0  0  0  0  0  0  0  0  0  0
    1.9208   -2.0710   -0.8419 N   0  0  0  0  0  4  0  0  0  0  0  0
    1.9561   -1.8592   -2.2088 O   0  0  0  0  0  1  0  0  0  0  0  0
    0.9030   -1.4879   -0.0735 C   0  0  0  0  0  0  0  0  0  0  0  0
   -0.4001   -1.3434   -0.5666 C   0  0  0  0  0  0  0  0  0  0  0  0
   -1.4141   -0.7802    0.1568 C   0  0  0  0  0  0  0  0  0  0  0  0
   -2.5392   -0.2730   -0.5262 C   0  0  0  0  0  0  0  0  0  0  0  0
   -3.7732   -0.2457   -0.6058 C   0  0  0  0  0  0  0  0  0  0  0  0
   -4.7385   -0.9490    0.2504 C   0  0  0  0  0  0  0  0  0  0  0  0
   -5.5307   -1.5055    0.9520 C   0  0  0  0  0  0  0  0  0  0  0  0
   -6.4590   -2.1433    1.7929 C   0  0  0  0  0  0  0  0  0  0  0  0
   -6.9343   -3.4415    1.4985 C   0  0  0  0  0  0  0  0  0  0  0  0
   -7.8971   -4.0583    2.2568 C   0  0  0  0  0  0  0  0  0  0  0  0
   -8.4376   -3.4318    3.3487 C   0  0  0  0  0  0  0  0  0  0  0  0
   -7.9507   -2.1409    3.6272 C   0  0  0  0  0  0  0  0  0  0  0  0
   -7.0072   -1.5305    2.8912 C   0  0  0  0  0  0  0  0  0  0  0  0
   -4.4363    0.6478   -1.4362 C   0  0  0  0  0  0  0  0  0  0  0  0
   -5.0763    1.5499   -2.2667 C   0  0  0  0  0  0  0  0  0  0  0  0
   -5.7040    2.4258   -3.0715 C   0  0  0  0  0  0  0  0  0  0  0  0
   -7.1265    2.5606   -3.0288 C   0  0  0  0  0  0  0  0  0  0  0  0
   -7.7444    3.4455   -3.7926 C   0  0  0  0  0  0  0  0  0  0  0  0
   -7.1246    4.2751   -4.6692 C   0  0  0  0  0  0  0  0  0  0  0  0
   -5.7332    4.1710   -4.7439 C   0  0  0  0  0  0  0  0  0  0  0  0
   -5.0853    3.2932   -3.9748 C   0  0  0  0  0  0  0  0  0  0  0  0
   -1.1244   -0.3414    1.4805 C   0  0  0  0  0  0  0  0  0  0  0  0
    0.1723   -0.4714    1.9767 C   0  0  0  0  0  0  0  0  0  0  0  0
    1.1853   -1.0213    1.2216 C   0  0  0  0  0  0  0  0  0  0  0  0
    2.6052   -0.7372    1.4935 C   0  0  0  0  0  0  0  0  0  0  0  0
    3.7618   -0.4221    1.3909 C   0  0  0  0  0  0  0  0  0  0  0  0
    4.8839   -0.3305    2.2319 C   0  0  0  0  0  0  0  0  0  0  0  0
    5.8257   -0.2717    2.9248 C   0  0  0  0  0  0  0  0  0  0  0  0
    7.0139   -0.1771    3.7823 C   0  0  0  0  0  0  0  0  0  0  0  0
    6.8665   -0.4004    5.1025 C   0  0  0  0  0  0  0  0  0  0  0  0
    7.9959   -0.2479    5.9432 C   0  0  0  0  0  0  0  0  0  0  0  0
    9.1990    0.1179    5.3914 C   0  0  0  0  0  0  0  0  0  0  0  0
    9.3348    0.3402    4.0469 C   0  0  0  0  0  0  0  0  0  0  0  0
    8.2043    0.1808    3.2372 C   0  0  0  0  0  0  0  0  0  0  0  0
    4.2023   -0.0766   -0.0726 C   0  0  0  0  0  0  0  0  0  0  0  0
    4.5626    0.2046   -1.2322 C   0  0  0  0  0  0  0  0  0  0  0  0
    4.9728    0.5030   -2.5298 C   0  0  0  0  0  0  0  0  0  0  0  0
    4.1239    0.6402   -3.5623 C   0  0  0  0  0  0  0  0  0  0  0  0
    4.5073    0.8954   -4.8607 C   0  0  0  0  0  0  0  0  0  0  0  0
    5.8760    1.0016   -5.0615 C   0  0  0  0  0  0  0  0  0  0  0  0
    6.8089    0.8672   -4.0376 C   0  0  0  0  0  0  0  0  0  0  0  0
    6.3643    0.6127   -2.7595 C   0  0  0  0  0  0  0  0  0  0  0  0
   -0.6363   -1.7028   -1.5841 H   0  0  0  0  0  0  0  0  0  0  0  0
   -2.0713    0.4960   -1.3719 H   0  0  0  0  0  0  0  0  0  0  0  0
   -6.4772   -3.9158    0.6138 H   0  0  0  0  0  0  0  0  0  0  0  0
   -8.2379   -5.0445    2.0119 H   0  0  0  0  0  0  0  0  0  0  0  0
   -9.2025   -3.8637    3.9525 H   0  0  0  0  0  0  0  0  0  0  0  0
   -8.3977   -1.6604    4.4941 H   0  0  0  0  0  0  0  0  0  0  0  0
   -6.6636   -0.5237    3.1554 H   0  0  0  0  0  0  0  0  0  0  0  0
   -7.6163    1.8836   -2.3053 H   0  0  0  0  0  0  0  0  0  0  0  0
   -8.8431    3.5063   -3.7258 H   0  0  0  0  0  0  0  0  0  0  0  0
   -7.6550    4.9847   -5.2812 H   0  0  0  0  0  0  0  0  0  0  0  0
   -5.2206    4.8150   -5.4202 H   0  0  0  0  0  0  0  0  0  0  0  0
   -3.9795    3.1944   -4.0289 H   0  0  0  0  0  0  0  0  0  0  0  0
   -1.9240    0.0712    2.0265 H   0  0  0  0  0  0  0  0  0  0  0  0
    0.3875   -0.1547    2.9800 H   0  0  0  0  0  0  0  0  0  0  0  0
    2.4217    0.4599    0.6134 H   0  0  0  0  0  0  0  0  0  0  0  0
    5.9369   -0.6758    5.5628 H   0  0  0  0  0  0  0  0  0  0  0  0
    7.8755   -0.4245    6.9971 H   0  0  0  0  0  0  0  0  0  0  0  0
   10.0405    0.2551    6.0546 H   0  0  0  0  0  0  0  0  0  0  0  0
   10.2854    0.6344    3.6190 H   0  0  0  0  0  0  0  0  0  0  0  0
    8.2582    0.3354    2.1839 H   0  0  0  0  0  0  0  0  0  0  0  0
    3.0452    0.5313   -3.3456 H   0  0  0  0  0  0  0  0  0  0  0  0
    3.8006    0.9846   -5.6595 H   0  0  0  0  0  0  0  0  0  0  0  0
    6.2382    1.1971   -6.0672 H   0  0  0  0  0  0  0  0  0  0  0  0
    7.8426    0.9531   -4.2744 H   0  0  0  0  0  0  0  0  0  0  0  0
    7.0170    0.4936   -1.9507 H   0  0  0  0  0  0  0  0  0  0  0  0
  1  2  2  0
  2  3  1  0
  2  4  1  0
  4  5  2  0
  5  6  1  0
  6  7  1  0
  7  8  2  3
  8  9  1  0
  9 10  3  0
 10 11  1  0
 11 12  2  0
 12 13  1  0
 13 14  2  0
 14 15  1  0
 15 16  2  0
  8 17  1  0
 17 18  3  0
 18 19  1  0
 19 20  2  0
 20 21  1  0
 21 22  2  0
 22 23  1  0
 23 24  2  0
  6 25  2  0
 25 26  1  0
 26 27  2  0
 27 28  1  0
 28 29  2  3
 29 30  1  0
 30 31  3  0
 31 32  1  0
 32 33  2  0
 33 34  1  0
 34 35  2  0
 35 36  1  0
 36 37  2  0
 29 38  1  0
 38 39  3  0
 39 40  1  0
 40 41  2  0
 41 42  1  0
 42 43  2  0
 43 44  1  0
 44 45  2  0
 27  4  1  0
 37 32  1  0
 45 40  1  0
 16 11  1  0
 24 19  1  0
  5 46  1  0
  7 47  1  0
 12 48  1  0
 13 49  1  0
 14 50  1  0
 15 51  1  0
 16 52  1  0
 20 53  1  0
 21 54  1  0
 22 55  1  0
 23 56  1  0
 24 57  1  0
 25 58  1  0
 26 59  1  0
 28 60  1  0
 33 61  1  0
 34 62  1  0
 35 63  1  0
 36 64  1  0
 37 65  1  0
 41 66  1  0
 42 67  1  0
 43 68  1  0
 44 69  1  0
 45 70  1  0
M  CHG  2   2   1   3  -1
M  END
