
     RDKit          3D

 67 73  0  0  0  0  0  0  0  0999 V2000
  -10.5805   -2.3695    1.2894 C   0  0  0  0  0  0  0  0  0  0  0  0
   -9.8372   -1.7236    0.1474 C   0  0  0  0  0  0  0  0  0  0  0  0
   -8.9223   -0.7072    0.5688 N   0  0  0  0  0  0  0  0  0  0  0  0
   -9.2984    0.5837    0.7731 C   0  0  0  0  0  0  0  0  0  0  0  0
  -10.4797    1.2578    0.7060 C   0  0  0  0  0  0  0  0  0  0  0  0
  -10.6148    2.6207    0.9769 C   0  0  0  0  0  0  0  0  0  0  0  0
   -9.4622    3.3383    1.3361 C   0  0  0  0  0  0  0  0  0  0  0  0
   -8.2710    2.6729    1.4026 C   0  0  0  0  0  0  0  0  0  0  0  0
   -8.1813    1.3213    1.1289 C   0  0  0  0  0  0  0  0  0  0  0  0
   -7.1088    0.4704    1.1388 C   0  0  0  0  0  0  0  0  0  0  0  0
   -5.7821    0.6280    1.3665 C   0  0  0  0  0  0  0  0  0  0  0  0
   -4.8208   -0.3567    1.2769 C   0  0  0  0  0  0  0  0  0  0  0  0
   -3.4481   -0.1125    1.3423 C   0  0  0  0  0  0  0  0  0  0  0  0
   -2.1983    0.1063    1.3823 C   0  0  0  0  0  0  0  0  0  0  0  0
   -0.7725    0.3492    1.4522 C   0  0  0  0  0  0  0  0  0  0  0  0
    0.1358    0.1021    0.5502 C   0  0  0  0  0  0  0  0  0  0  0  0
    1.4553    0.1581    0.9024 C   0  0  0  0  0  0  0  0  0  0  0  0
    2.6312    0.1340    0.1169 C   0  0  0  0  0  0  0  0  0  0  0  0
    3.6080    0.1283   -0.5534 C   0  0  0  0  0  0  0  0  0  0  0  0
    4.7835    0.1176   -1.3598 C   0  0  0  0  0  0  0  0  0  0  0  0
    5.1916    1.3971   -1.8286 C   0  0  0  0  0  0  0  0  0  0  0  0
    6.4731    1.6098   -2.2571 C   0  0  0  0  0  0  0  0  0  0  0  0
    7.3860    0.5423   -2.2286 C   0  0  0  0  0  0  0  0  0  0  0  0
    6.9889   -0.6864   -1.7890 C   0  0  0  0  0  0  0  0  0  0  0  0
    5.7151   -0.8974   -1.3739 C   0  0  0  0  0  0  0  0  0  0  0  0
    8.1143   -1.5558   -1.7491 C   0  0  0  0  0  0  0  0  0  0  0  0
    8.1716   -2.8609   -1.3521 C   0  0  0  0  0  0  0  0  0  0  0  0
    9.4087   -3.5392   -1.3760 C   0  0  0  0  0  0  0  0  0  0  0  0
   10.4625   -2.7913   -1.8079 C   0  0  0  0  0  0  0  0  0  0  0  0
   10.4033   -1.4779   -2.2048 C   0  0  0  0  0  0  0  0  0  0  0  0
    9.1453   -0.7867   -2.1815 C   0  0  0  0  0  0  0  0  0  0  0  0
    8.7362    0.4340   -2.4619 N   0  0  0  0  0  0  0  0  0  0  0  0
    9.6031    1.5534   -2.8362 C   0  0  0  0  0  0  0  0  0  0  0  0
    9.8630    2.3088   -1.5147 C   0  0  0  0  0  0  0  0  0  0  0  0
    1.8014    0.4808    2.2559 N   0  0  0  0  0  0  0  0  0  0  0  0
    0.8559    0.7455    3.1576 C   0  0  0  0  0  0  0  0  0  0  0  0
    1.1623    1.0240    4.6081 C   0  0  0  0  0  0  0  0  0  0  0  0
    1.3754    1.2317    5.6724 N   0  0  0  0  0  0  0  0  0  0  0  0
   -0.4169    0.6825    2.7645 N   0  0  0  0  0  0  0  0  0  0  0  0
   -5.3393   -1.6332    0.9183 C   0  0  0  0  0  0  0  0  0  0  0  0
   -6.6773   -1.8073    0.6907 C   0  0  0  0  0  0  0  0  0  0  0  0
   -7.5881   -0.7692    0.7911 C   0  0  0  0  0  0  0  0  0  0  0  0
   -9.9073   -2.4695    2.1529 H   0  0  0  0  0  0  0  0  0  0  0  0
  -11.4431   -1.7260    1.5985 H   0  0  0  0  0  0  0  0  0  0  0  0
  -10.9578   -3.3840    1.0041 H   0  0  0  0  0  0  0  0  0  0  0  0
  -10.6003   -1.2481   -0.5315 H   0  0  0  0  0  0  0  0  0  0  0  0
   -9.2962   -2.5310   -0.4232 H   0  0  0  0  0  0  0  0  0  0  0  0
  -11.3762    0.7460    0.4104 H   0  0  0  0  0  0  0  0  0  0  0  0
  -11.5476    3.1317    0.9199 H   0  0  0  0  0  0  0  0  0  0  0  0
   -9.5433    4.3833    1.5471 H   0  0  0  0  0  0  0  0  0  0  0  0
   -7.3418    3.2121    1.6751 H   0  0  0  0  0  0  0  0  0  0  0  0
   -5.4714    1.6720    1.6126 H   0  0  0  0  0  0  0  0  0  0  0  0
   -0.0955   -0.1607   -0.4614 H   0  0  0  0  0  0  0  0  0  0  0  0
    4.4921    2.2342   -1.8147 H   0  0  0  0  0  0  0  0  0  0  0  0
    6.8383    2.5717   -2.6169 H   0  0  0  0  0  0  0  0  0  0  0  0
    5.3926   -1.8885   -1.0289 H   0  0  0  0  0  0  0  0  0  0  0  0
    7.3190   -3.3825   -1.0239 H   0  0  0  0  0  0  0  0  0  0  0  0
    9.4813   -4.5579   -1.0622 H   0  0  0  0  0  0  0  0  0  0  0  0
   11.4488   -3.2529   -1.8403 H   0  0  0  0  0  0  0  0  0  0  0  0
   11.2549   -0.9268   -2.5433 H   0  0  0  0  0  0  0  0  0  0  0  0
   10.5611    1.1443   -3.2014 H   0  0  0  0  0  0  0  0  0  0  0  0
    9.1674    2.1971   -3.6148 H   0  0  0  0  0  0  0  0  0  0  0  0
    9.1064    1.9830   -0.7344 H   0  0  0  0  0  0  0  0  0  0  0  0
    9.6649    3.4018   -1.6957 H   0  0  0  0  0  0  0  0  0  0  0  0
   10.8599    2.1698   -1.1275 H   0  0  0  0  0  0  0  0  0  0  0  0
   -4.6366   -2.4288    0.8247 H   0  0  0  0  0  0  0  0  0  0  0  0
   -7.0418   -2.8141    0.4168 H   0  0  0  0  0  0  0  0  0  0  0  0
  1  2  1  0
  2  3  1  0
  3  4  1  0
  4  5  2  0
  5  6  1  0
  6  7  2  0
  7  8  1  0
  8  9  2  0
  9 10  1  0
 10 11  2  0
 11 12  1  0
 12 13  1  0
 13 14  3  0
 14 15  1  0
 15 16  2  0
 16 17  1  0
 17 18  1  0
 18 19  3  0
 19 20  1  0
 20 21  2  0
 21 22  1  0
 22 23  2  0
 23 24  1  0
 24 25  2  0
 24 26  1  0
 26 27  2  0
 27 28  1  0
 28 29  2  0
 29 30  1  0
 30 31  2  0
 31 32  1  0
 32 33  1  0
 33 34  1  0
 17 35  2  0
 35 36  1  0
 36 37  1  0
 37 38  3  0
 36 39  2  0
 12 40  2  0
 40 41  1  0
 41 42  2  0
 42  3  1  0
  9  4  1  0
 42 10  1  0
 39 15  1  0
 25 20  1  0
 31 26  1  0
 32 23  1  0
  1 43  1  0
  1 44  1  0
  1 45  1  0
  2 46  1  0
  2 47  1  0
  5 48  1  0
  6 49  1  0
  7 50  1  0
  8 51  1  0
 11 52  1  0
 16 53  1  0
 21 54  1  0
 22 55  1  0
 25 56  1  0
 27 57  1  0
 28 58  1  0
 29 59  1  0
 30 60  1  0
 33 61  1  0
 33 62  1  0
 34 63  1  0
 34 64  1  0
 34 65  1  0
 40 66  1  0
 41 67  1  0
M  END
