
     RDKit          3D

 24 25  0  0  0  0  0  0  0  0999 V2000
   -1.3383    0.2869   -2.5243 C   0  0  0  0  0  0  0  0  0  0  0  0
   -1.8638    0.2176   -1.1718 N   0  0  0  0  0  0  0  0  0  0  0  0
   -3.1950    0.2927   -0.8706 C   0  0  0  0  0  0  0  0  0  0  0  0
   -3.3339    0.1958    0.4786 C   0  0  0  0  0  0  0  0  0  0  0  0
   -2.0645    0.0620    0.9731 C   0  0  0  0  0  0  0  0  0  0  0  0
   -1.1201    0.0750   -0.0745 C   0  0  0  0  0  0  0  0  0  0  0  0
    0.2949   -0.0488    0.1647 C   0  0  0  0  0  0  0  0  0  0  0  0
    1.2284   -0.0456   -0.8014 C   0  0  0  0  0  0  0  0  0  0  0  0
    2.6062   -0.1672   -0.5384 C   0  0  0  0  0  0  0  0  0  0  0  0
    3.0393   -0.2964    0.7605 C   0  0  0  0  0  0  0  0  0  0  0  0
    4.4496   -0.4220    1.0439 C   0  0  0  0  0  0  0  0  0  0  0  0
    5.5803   -0.5427    1.2725 N   0  0  0  0  0  0  0  0  0  0  0  0
    2.1052   -0.3029    1.7702 C   0  0  0  0  0  0  0  0  0  0  0  0
    0.7739   -0.1825    1.4772 C   0  0  0  0  0  0  0  0  0  0  0  0
   -0.7541    1.2095   -2.7250 H   0  0  0  0  0  0  0  0  0  0  0  0
   -0.9043   -0.6490   -2.8886 H   0  0  0  0  0  0  0  0  0  0  0  0
   -2.2365    0.4347   -3.2137 H   0  0  0  0  0  0  0  0  0  0  0  0
   -4.0081    0.4118   -1.6082 H   0  0  0  0  0  0  0  0  0  0  0  0
   -4.2804    0.2218    1.0369 H   0  0  0  0  0  0  0  0  0  0  0  0
   -1.8764   -0.0370    2.0413 H   0  0  0  0  0  0  0  0  0  0  0  0
    0.9973    0.0479   -1.8297 H   0  0  0  0  0  0  0  0  0  0  0  0
    3.3233   -0.1599   -1.3439 H   0  0  0  0  0  0  0  0  0  0  0  0
    2.4770   -0.4057    2.7773 H   0  0  0  0  0  0  0  0  0  0  0  0
    0.1001   -0.1959    2.3232 H   0  0  0  0  0  0  0  0  0  0  0  0
  1  2  1  0
  2  3  1  0
  3  4  2  0
  4  5  1  0
  5  6  2  0
  6  7  1  0
  7  8  2  0
  8  9  1  0
  9 10  2  0
 10 11  1  0
 11 12  3  0
 10 13  1  0
 13 14  2  0
  6  2  1  0
 14  7  1  0
  1 15  1  0
  1 16  1  0
  1 17  1  0
  3 18  1  0
  4 19  1  0
  5 20  1  0
  8 21  1  0
  9 22  1  0
 13 23  1  0
 14 24  1  0
M  END
