
     RDKit          3D

 76 80  0  0  0  0  0  0  0  0999 V2000
    2.2036    2.4573   -1.9304 C   0  0  0  0  0  0  0  0  0  0  0  0
    2.3328    1.3439   -1.0548 O   0  0  0  0  0  0  0  0  0  0  0  0
    1.2718    0.4895   -0.8741 C   0  0  0  0  0  0  0  0  0  0  0  0
    0.0570    0.7499   -1.4514 C   0  0  0  0  0  0  0  0  0  0  0  0
   -1.0397   -0.0697   -1.3228 C   0  0  0  0  0  0  0  0  0  0  0  0
   -2.3389    0.5330   -1.2336 C   0  0  0  0  0  0  0  0  0  0  0  0
   -3.5811    0.5524   -1.0165 C   0  0  0  0  0  0  0  0  0  0  0  0
   -4.2817    1.7745   -1.1858 C   0  0  0  0  0  0  0  0  0  0  0  0
   -5.0072    3.0094   -1.3491 C   0  0  0  0  0  0  0  0  0  0  0  0
   -5.6342    4.0933   -1.5123 C   0  0  0  0  0  0  0  0  0  0  0  0
   -5.2589    5.2201   -0.5847 C   0  0  0  0  0  0  0  0  0  0  0  0
   -5.9289    6.3728   -0.7583 C   0  0  0  0  0  0  0  0  0  0  0  0
   -6.8993    6.6117   -1.6785 C   0  0  0  0  0  0  0  0  0  0  0  0
   -7.2769    5.5765   -2.5677 C   0  0  0  0  0  0  0  0  0  0  0  0
   -6.6120    4.4221   -2.3989 C   0  0  0  0  0  0  0  0  0  0  0  0
   -4.3548   -0.4151   -0.2305 C   0  0  0  0  0  0  0  0  0  0  0  0
   -5.0397   -1.2514    0.4765 C   0  0  0  0  0  0  0  0  0  0  0  0
   -5.7442   -2.1308    1.2359 C   0  0  0  0  0  0  0  0  0  0  0  0
   -5.1675   -3.0123    2.1249 C   0  0  0  0  0  0  0  0  0  0  0  0
   -5.7565   -3.9446    2.9043 C   0  0  0  0  0  0  0  0  0  0  0  0
   -7.1876   -4.0320    2.7977 C   0  0  0  0  0  0  0  0  0  0  0  0
   -7.8117   -3.1783    1.9325 C   0  0  0  0  0  0  0  0  0  0  0  0
   -7.1355   -2.2573    1.1657 C   0  0  0  0  0  0  0  0  0  0  0  0
   -0.9191   -1.2827   -0.5789 C   0  0  0  0  0  0  0  0  0  0  0  0
   -1.9633   -2.0603   -0.5784 O   0  0  0  0  0  0  0  0  0  0  0  0
   -2.4237   -3.2052   -0.0801 C   0  0  0  0  0  0  0  0  0  0  0  0
    0.3199   -1.5205    0.0191 C   0  0  0  0  0  0  0  0  0  0  0  0
    1.3918   -0.6834   -0.0901 C   0  0  0  0  0  0  0  0  0  0  0  0
    2.5397   -0.7742    0.7449 C   0  0  0  0  0  0  0  0  0  0  0  0
    3.7937   -0.8613    0.5179 C   0  0  0  0  0  0  0  0  0  0  0  0
    4.3821   -0.9270   -0.7583 C   0  0  0  0  0  0  0  0  0  0  0  0
    4.8811   -1.0015   -1.8254 C   0  0  0  0  0  0  0  0  0  0  0  0
    5.4668   -1.0959   -3.1291 C   0  0  0  0  0  0  0  0  0  0  0  0
    5.2910   -0.1621   -4.1039 C   0  0  0  0  0  0  0  0  0  0  0  0
    5.8759   -0.3866   -5.3116 C   0  0  0  0  0  0  0  0  0  0  0  0
    6.6179   -1.4548   -5.6168 C   0  0  0  0  0  0  0  0  0  0  0  0
    6.7979   -2.4239   -4.6072 C   0  0  0  0  0  0  0  0  0  0  0  0
    6.2457   -2.2737   -3.3684 C   0  0  0  0  0  0  0  0  0  0  0  0
    4.6079   -0.7697    1.8281 C   0  0  0  0  0  0  0  0  0  0  0  0
    5.2645   -0.7012    2.9238 C   0  0  0  0  0  0  0  0  0  0  0  0
    5.9376   -0.6114    4.0280 C   0  0  0  0  0  0  0  0  0  0  0  0
    5.2638   -0.6625    5.2965 C   0  0  0  0  0  0  0  0  0  0  0  0
    5.9069   -0.4629    6.4824 C   0  0  0  0  0  0  0  0  0  0  0  0
    7.2508   -0.2032    6.5577 C   0  0  0  0  0  0  0  0  0  0  0  0
    7.9276   -0.1443    5.3403 C   0  0  0  0  0  0  0  0  0  0  0  0
    7.3214   -0.3333    4.1465 C   0  0  0  0  0  0  0  0  0  0  0  0
    1.3887    3.1528   -1.6374 H   0  0  0  0  0  0  0  0  0  0  0  0
    3.1530    3.0305   -1.9325 H   0  0  0  0  0  0  0  0  0  0  0  0
    1.9233    2.0497   -2.9172 H   0  0  0  0  0  0  0  0  0  0  0  0
   -0.0165    1.6647   -2.0860 H   0  0  0  0  0  0  0  0  0  0  0  0
   -2.1368    1.7416   -1.5567 H   0  0  0  0  0  0  0  0  0  0  0  0
   -4.5080    5.0067    0.1220 H   0  0  0  0  0  0  0  0  0  0  0  0
   -5.6632    7.2281   -0.0554 H   0  0  0  0  0  0  0  0  0  0  0  0
   -7.3779    7.5671   -1.7125 H   0  0  0  0  0  0  0  0  0  0  0  0
   -8.0422    5.8063   -3.2602 H   0  0  0  0  0  0  0  0  0  0  0  0
   -6.9122    3.5987   -3.1173 H   0  0  0  0  0  0  0  0  0  0  0  0
   -4.0716   -2.9176    2.2055 H   0  0  0  0  0  0  0  0  0  0  0  0
   -5.3417   -4.6222    3.6039 H   0  0  0  0  0  0  0  0  0  0  0  0
   -7.7258   -4.7542    3.3991 H   0  0  0  0  0  0  0  0  0  0  0  0
   -8.9097   -3.2168    1.8317 H   0  0  0  0  0  0  0  0  0  0  0  0
   -7.7087   -1.6154    0.5082 H   0  0  0  0  0  0  0  0  0  0  0  0
   -3.5499   -3.3911   -0.3182 H   0  0  0  0  0  0  0  0  0  0  0  0
   -2.0011   -4.1285   -0.6471 H   0  0  0  0  0  0  0  0  0  0  0  0
   -2.2804   -3.5122    0.9645 H   0  0  0  0  0  0  0  0  0  0  0  0
    0.4380   -2.4207    0.6133 H   0  0  0  0  0  0  0  0  0  0  0  0
    2.3153   -0.8055    1.8724 H   0  0  0  0  0  0  0  0  0  0  0  0
    4.6841    0.7229   -3.9039 H   0  0  0  0  0  0  0  0  0  0  0  0
    5.6983    0.4139   -6.0812 H   0  0  0  0  0  0  0  0  0  0  0  0
    7.0912   -1.6468   -6.5695 H   0  0  0  0  0  0  0  0  0  0  0  0
    7.3818   -3.2858   -4.8609 H   0  0  0  0  0  0  0  0  0  0  0  0
    6.3739   -3.0054   -2.6080 H   0  0  0  0  0  0  0  0  0  0  0  0
    4.2176   -0.8521    5.2368 H   0  0  0  0  0  0  0  0  0  0  0  0
    5.3468   -0.4871    7.4498 H   0  0  0  0  0  0  0  0  0  0  0  0
    7.7744   -0.0505    7.4857 H   0  0  0  0  0  0  0  0  0  0  0  0
    8.9856    0.0638    5.4089 H   0  0  0  0  0  0  0  0  0  0  0  0
    7.8866   -0.2478    3.2367 H   0  0  0  0  0  0  0  0  0  0  0  0
  1  2  1  0
  2  3  1  0
  3  4  2  0
  4  5  1  0
  5  6  1  0
  6  7  2  3
  7  8  1  0
  8  9  3  0
  9 10  1  0
 10 11  2  0
 11 12  1  0
 12 13  2  0
 13 14  1  0
 14 15  2  0
  7 16  1  0
 16 17  3  0
 17 18  1  0
 18 19  2  0
 19 20  1  0
 20 21  2  0
 21 22  1  0
 22 23  2  0
  5 24  2  0
 24 25  1  0
 25 26  1  0
 24 27  1  0
 27 28  2  0
 28 29  1  0
 29 30  2  3
 30 31  1  0
 31 32  3  0
 32 33  1  0
 33 34  2  0
 34 35  1  0
 35 36  2  0
 36 37  1  0
 37 38  2  0
 30 39  1  0
 39 40  3  0
 40 41  1  0
 41 42  2  0
 42 43  1  0
 43 44  2  0
 44 45  1  0
 45 46  2  0
 28  3  1  0
 38 33  1  0
 46 41  1  0
 15 10  1  0
 23 18  1  0
  1 47  1  0
  1 48  1  0
  1 49  1  0
  4 50  1  0
  6 51  1  0
 11 52  1  0
 12 53  1  0
 13 54  1  0
 14 55  1  0
 15 56  1  0
 19 57  1  0
 20 58  1  0
 21 59  1  0
 22 60  1  0
 23 61  1  0
 26 62  1  0
 26 63  1  0
 26 64  1  0
 27 65  1  0
 29 66  1  0
 34 67  1  0
 35 68  1  0
 36 69  1  0
 37 70  1  0
 38 71  1  0
 42 72  1  0
 43 73  1  0
 44 74  1  0
 45 75  1  0
 46 76  1  0
M  END
