
     RDKit          3D

 96102  0  0  0  0  0  0  0  0999 V2000
   -9.4533    0.1381    2.7973 C   0  0  0  0  0  0  0  0  0  0  0  0
   -8.9516    0.0997    1.4938 O   0  0  0  0  0  0  0  0  0  0  0  0
   -7.5850   -0.0449    1.2662 C   0  0  0  0  0  0  0  0  0  0  0  0
   -6.7350   -0.1501    2.3416 C   0  0  0  0  0  0  0  0  0  0  0  0
   -5.3858   -0.2938    2.1695 C   0  0  0  0  0  0  0  0  0  0  0  0
   -4.8293   -0.3375    0.9310 C   0  0  0  0  0  0  0  0  0  0  0  0
   -3.3573   -0.5365    0.7093 C   0  0  0  0  0  0  0  0  0  0  0  0
   -3.1025   -1.8069    0.3190 C   0  0  0  0  0  0  0  0  0  0  0  0
   -2.1337   -2.2198   -0.5351 N   0  0  0  0  0  0  0  0  0  0  0  0
   -1.4402   -3.2300    0.0451 C   0  0  0  0  0  0  0  0  0  0  0  0
   -0.1343   -3.5550   -0.2226 C   0  0  0  0  0  0  0  0  0  0  0  0
    1.0440   -2.7764   -0.1967 C   0  0  0  0  0  0  0  0  0  0  0  0
    1.9597   -2.8430   -1.2505 C   0  0  0  0  0  0  0  0  0  0  0  0
    2.9794   -1.9956   -0.9383 C   0  0  0  0  0  0  0  0  0  0  0  0
    2.6790   -1.4161    0.3058 C   0  0  0  0  0  0  0  0  0  0  0  0
    1.5082   -1.9153    0.7130 N   0  0  0  0  0  0  0  0  0  0  0  0
    3.5369   -0.4706    0.9267 C   0  0  0  0  0  0  0  0  0  0  0  0
    4.9736   -0.8661    0.9492 C   0  0  0  0  0  0  0  0  0  0  0  0
    5.4297   -1.8797    1.7770 C   0  0  0  0  0  0  0  0  0  0  0  0
    6.7707   -2.1677    1.7628 C   0  0  0  0  0  0  0  0  0  0  0  0
    7.6447   -1.4800    0.9588 C   0  0  0  0  0  0  0  0  0  0  0  0
    9.0020   -1.7412    0.9182 O   0  0  0  0  0  0  0  0  0  0  0  0
    9.5487   -2.7514    1.7237 C   0  0  0  0  0  0  0  0  0  0  0  0
    7.1504   -0.4562    0.1302 C   0  0  0  0  0  0  0  0  0  0  0  0
    8.0634    0.2240   -0.6722 O   0  0  0  0  0  0  0  0  0  0  0  0
    7.6518    1.2650   -1.5350 C   0  0  0  0  0  0  0  0  0  0  0  0
    8.8308    1.8620   -2.2672 C   0  0  0  0  0  0  0  0  0  0  0  0
    8.3511    2.9582   -3.1653 C   0  0  0  0  0  0  0  0  0  0  0  0
    9.5338    3.5559   -3.8528 C   0  0  0  0  0  0  0  0  0  0  0  0
   10.0796    2.9642   -4.7924 O   0  0  0  0  0  0  0  0  0  0  0  0
    9.9992    4.7926   -3.4047 O   0  0  0  0  0  0  0  0  0  0  0  0
    5.8254   -0.1686    0.1397 C   0  0  0  0  0  0  0  0  0  0  0  0
    3.2317    0.7503    1.4671 C   0  0  0  0  0  0  0  0  0  0  0  0
    2.2611    1.5721    1.0151 N   0  0  0  0  0  0  0  0  0  0  0  0
    1.6001    2.1198    2.0540 C   0  0  0  0  0  0  0  0  0  0  0  0
    0.3089    2.5167    2.0313 C   0  0  0  0  0  0  0  0  0  0  0  0
   -0.8570    1.9343    1.5146 C   0  0  0  0  0  0  0  0  0  0  0  0
   -1.8034    2.6931    0.7928 C   0  0  0  0  0  0  0  0  0  0  0  0
   -2.8073    1.8632    0.4304 C   0  0  0  0  0  0  0  0  0  0  0  0
   -2.5026    0.5741    0.9194 C   0  0  0  0  0  0  0  0  0  0  0  0
   -1.3361    0.6893    1.5512 N   0  0  0  0  0  0  0  0  0  0  0  0
    2.6136    2.1602    3.1457 C   0  0  0  0  0  0  0  0  0  0  0  0
    3.8281    1.4608    2.6004 C   0  0  0  0  0  0  0  0  0  0  0  0
   -2.4200   -3.8460    0.9868 C   0  0  0  0  0  0  0  0  0  0  0  0
   -3.7152   -3.1411    0.6203 C   0  0  0  0  0  0  0  0  0  0  0  0
   -5.6511   -0.2340   -0.1681 C   0  0  0  0  0  0  0  0  0  0  0  0
   -7.0344   -0.0880   -0.0024 C   0  0  0  0  0  0  0  0  0  0  0  0
   -7.8627    0.0102   -1.0803 O   0  0  0  0  0  0  0  0  0  0  0  0
   -7.5274   -0.0141   -2.4168 C   0  0  0  0  0  0  0  0  0  0  0  0
   -8.6163    0.1010   -3.4164 C   0  0  0  0  0  0  0  0  0  0  0  0
   -9.4331    1.3493   -3.3844 C   0  0  0  0  0  0  0  0  0  0  0  0
  -10.1925    1.6088   -2.1664 C   0  0  0  0  0  0  0  0  0  0  0  0
  -10.2693    0.8214   -1.1900 O   0  0  0  0  0  0  0  0  0  0  0  0
  -10.9230    2.8059   -1.9886 O   0  0  0  0  0  0  0  0  0  0  0  0
   -9.3740   -0.8287    3.3156 H   0  0  0  0  0  0  0  0  0  0  0  0
   -8.9915    0.9598    3.4138 H   0  0  0  0  0  0  0  0  0  0  0  0
  -10.5452    0.4131    2.7437 H   0  0  0  0  0  0  0  0  0  0  0  0
   -7.1658   -0.1164    3.3245 H   0  0  0  0  0  0  0  0  0  0  0  0
   -4.6916   -0.3793    3.0149 H   0  0  0  0  0  0  0  0  0  0  0  0
   -0.0314   -4.6493   -0.5365 H   0  0  0  0  0  0  0  0  0  0  0  0
    1.8763   -3.4647   -2.1514 H   0  0  0  0  0  0  0  0  0  0  0  0
    3.8875   -1.8054   -1.5547 H   0  0  0  0  0  0  0  0  0  0  0  0
    0.9787   -1.6659    1.6923 H   0  0  0  0  0  0  0  0  0  0  0  0
    4.6817   -2.3713    2.3774 H   0  0  0  0  0  0  0  0  0  0  0  0
    7.0911   -2.9637    2.4143 H   0  0  0  0  0  0  0  0  0  0  0  0
   10.6310   -2.5661    1.9511 H   0  0  0  0  0  0  0  0  0  0  0  0
    9.0590   -2.8589    2.7102 H   0  0  0  0  0  0  0  0  0  0  0  0
    9.5221   -3.7540    1.2314 H   0  0  0  0  0  0  0  0  0  0  0  0
    7.0921    2.0719   -1.0172 H   0  0  0  0  0  0  0  0  0  0  0  0
    6.9941    0.7918   -2.3044 H   0  0  0  0  0  0  0  0  0  0  0  0
    9.5608    2.3032   -1.5533 H   0  0  0  0  0  0  0  0  0  0  0  0
    9.3801    1.1092   -2.8420 H   0  0  0  0  0  0  0  0  0  0  0  0
    7.8147    3.7556   -2.6223 H   0  0  0  0  0  0  0  0  0  0  0  0
    7.7060    2.5510   -3.9800 H   0  0  0  0  0  0  0  0  0  0  0  0
   10.9965    4.9662   -3.4282 H   0  0  0  0  0  0  0  0  0  0  0  0
    5.4722    0.6359   -0.5211 H   0  0  0  0  0  0  0  0  0  0  0  0
    0.1783    3.5311    2.5174 H   0  0  0  0  0  0  0  0  0  0  0  0
   -1.7523    3.7837    0.5583 H   0  0  0  0  0  0  0  0  0  0  0  0
   -3.6968    2.1755   -0.1432 H   0  0  0  0  0  0  0  0  0  0  0  0
   -0.8030   -0.1785    2.0806 H   0  0  0  0  0  0  0  0  0  0  0  0
    2.2027    1.6113    4.0345 H   0  0  0  0  0  0  0  0  0  0  0  0
    2.8341    3.2058    3.4569 H   0  0  0  0  0  0  0  0  0  0  0  0
    4.5778    2.2275    2.3213 H   0  0  0  0  0  0  0  0  0  0  0  0
    4.1965    0.7855    3.4001 H   0  0  0  0  0  0  0  0  0  0  0  0
   -2.2245   -3.6118    2.0431 H   0  0  0  0  0  0  0  0  0  0  0  0
   -2.6037   -4.9165    0.7846 H   0  0  0  0  0  0  0  0  0  0  0  0
   -4.1130   -3.5727   -0.3156 H   0  0  0  0  0  0  0  0  0  0  0  0
   -4.4044   -3.1396    1.4578 H   0  0  0  0  0  0  0  0  0  0  0  0
   -5.2831   -0.2595   -1.1989 H   0  0  0  0  0  0  0  0  0  0  0  0
   -6.8389    0.8695   -2.5922 H   0  0  0  0  0  0  0  0  0  0  0  0
   -6.8625   -0.8908   -2.6054 H   0  0  0  0  0  0  0  0  0  0  0  0
   -9.2536   -0.8217   -3.4800 H   0  0  0  0  0  0  0  0  0  0  0  0
   -8.1063    0.1060   -4.4316 H   0  0  0  0  0  0  0  0  0  0  0  0
  -10.1609    1.3277   -4.2365 H   0  0  0  0  0  0  0  0  0  0  0  0
   -8.7099    2.2028   -3.5368 H   0  0  0  0  0  0  0  0  0  0  0  0
  -11.4672    2.9662   -1.1551 H   0  0  0  0  0  0  0  0  0  0  0  0
  1  2  1  0
  2  3  1  0
  3  4  2  0
  4  5  1  0
  5  6  2  0
  6  7  1  0
  7  8  1  0
  8  9  2  0
  9 10  1  0
 10 11  2  0
 11 12  1  0
 12 13  2  0
 13 14  1  0
 14 15  2  0
 15 16  1  0
 15 17  1  0
 17 18  1  0
 18 19  2  0
 19 20  1  0
 20 21  2  0
 21 22  1  0
 22 23  1  0
 21 24  1  0
 24 25  1  0
 25 26  1  0
 26 27  1  0
 27 28  1  0
 28 29  1  0
 29 30  2  0
 29 31  1  0
 24 32  2  0
 17 33  2  0
 33 34  1  0
 34 35  2  0
 35 36  1  0
 36 37  2  0
 37 38  1  0
 38 39  2  0
 39 40  1  0
 40 41  1  0
 35 42  1  0
 42 43  1  0
 10 44  1  0
 44 45  1  0
  6 46  1  0
 46 47  2  0
 47 48  1  0
 48 49  1  0
 49 50  1  0
 50 51  1  0
 51 52  1  0
 52 53  2  0
 52 54  1  0
 47  3  1  0
 40  7  2  0
 45  8  1  0
 16 12  1  0
 32 18  1  0
 43 33  1  0
 41 37  1  0
  1 55  1  0
  1 56  1  0
  1 57  1  0
  4 58  1  0
  5 59  1  0
 11 60  1  0
 13 61  1  0
 14 62  1  0
 16 63  1  0
 19 64  1  0
 20 65  1  0
 23 66  1  0
 23 67  1  0
 23 68  1  0
 26 69  1  0
 26 70  1  0
 27 71  1  0
 27 72  1  0
 28 73  1  0
 28 74  1  0
 31 75  1  0
 32 76  1  0
 36 77  1  0
 38 78  1  0
 39 79  1  0
 41 80  1  0
 42 81  1  0
 42 82  1  0
 43 83  1  0
 43 84  1  0
 44 85  1  0
 44 86  1  0
 45 87  1  0
 45 88  1  0
 46 89  1  0
 49 90  1  0
 49 91  1  0
 50 92  1  0
 50 93  1  0
 51 94  1  0
 51 95  1  0
 54 96  1  0
M  END
