
     RDKit          3D

 50 52  0  0  0  0  0  0  0  0999 V2000
   -7.9255    0.4791   -0.6379 C   0  0  0  0  0  0  0  0  0  0  0  0
   -6.9253   -0.6265   -0.3690 C   0  0  0  0  0  0  0  0  0  0  0  0
   -6.2135   -0.4273    0.8608 N   0  0  0  0  0  0  0  0  0  0  0  0
   -5.2797   -1.5164    1.0572 C   0  0  0  0  0  0  0  0  0  0  0  0
   -4.1419   -1.4252    0.0462 C   0  0  0  0  0  0  0  0  0  0  0  0
   -3.5726   -0.1068   -0.0171 N   0  0  0  0  0  0  0  0  0  0  0  0
   -2.1671    0.1268    0.0109 C   0  0  0  0  0  0  0  0  0  0  0  0
   -1.6584    1.2952   -0.4927 C   0  0  0  0  0  0  0  0  0  0  0  0
   -0.3108    1.5397   -0.4575 C   0  0  0  0  0  0  0  0  0  0  0  0
    0.5909    0.6331    0.0796 C   0  0  0  0  0  0  0  0  0  0  0  0
    1.9859    0.8564    0.1301 N   0  0  0  0  0  0  0  0  0  0  0  0
    2.7422   -0.0310   -0.3949 N   0  0  0  0  0  0  0  0  0  0  0  0
    4.1508    0.0940   -0.3988 C   0  0  0  0  0  0  0  0  0  0  0  0
    4.7323    1.0043   -1.2458 C   0  0  0  0  0  0  0  0  0  0  0  0
    6.1237    1.0876   -1.2101 C   0  0  0  0  0  0  0  0  0  0  0  0
    6.8954    0.3123   -0.3816 C   0  0  0  0  0  0  0  0  0  0  0  0
    8.3564    0.4105   -0.3547 C   0  0  0  0  0  0  0  0  0  0  0  0
    8.9765    1.2141   -1.0934 O   0  0  0  0  0  0  0  0  0  0  0  0
    9.0842   -0.3950    0.4999 O   0  0  0  0  0  0  0  0  0  0  0  0
   10.4776   -0.3946    0.6173 C   0  0  0  0  0  0  0  0  0  0  0  0
    6.2380   -0.5785    0.4397 C   0  0  0  0  0  0  0  0  0  0  0  0
    4.8848   -0.7017    0.4465 C   0  0  0  0  0  0  0  0  0  0  0  0
    0.0574   -0.5300    0.5775 C   0  0  0  0  0  0  0  0  0  0  0  0
   -1.2941   -0.7897    0.5496 C   0  0  0  0  0  0  0  0  0  0  0  0
   -4.4593    1.0250   -0.1014 C   0  0  0  0  0  0  0  0  0  0  0  0
   -5.5816    0.8522    0.9053 C   0  0  0  0  0  0  0  0  0  0  0  0
   -8.6737    0.0759   -1.3512 H   0  0  0  0  0  0  0  0  0  0  0  0
   -7.4524    1.3688   -1.0555 H   0  0  0  0  0  0  0  0  0  0  0  0
   -8.3774    0.7436    0.3375 H   0  0  0  0  0  0  0  0  0  0  0  0
   -7.5078   -1.5849   -0.2484 H   0  0  0  0  0  0  0  0  0  0  0  0
   -6.2788   -0.7080   -1.2616 H   0  0  0  0  0  0  0  0  0  0  0  0
   -4.8723   -1.5567    2.0705 H   0  0  0  0  0  0  0  0  0  0  0  0
   -5.8076   -2.4651    0.8458 H   0  0  0  0  0  0  0  0  0  0  0  0
   -4.5361   -1.7213   -0.9771 H   0  0  0  0  0  0  0  0  0  0  0  0
   -3.4362   -2.2232    0.3002 H   0  0  0  0  0  0  0  0  0  0  0  0
   -2.3213    2.0152   -0.9210 H   0  0  0  0  0  0  0  0  0  0  0  0
    0.1400    2.4612   -0.8488 H   0  0  0  0  0  0  0  0  0  0  0  0
    4.1477    1.6306   -1.9118 H   0  0  0  0  0  0  0  0  0  0  0  0
    6.5942    1.8028   -1.8744 H   0  0  0  0  0  0  0  0  0  0  0  0
   10.7743   -1.3219    1.1735 H   0  0  0  0  0  0  0  0  0  0  0  0
   10.9833   -0.4528   -0.3787 H   0  0  0  0  0  0  0  0  0  0  0  0
   10.8520    0.5192    1.1414 H   0  0  0  0  0  0  0  0  0  0  0  0
    6.8337   -1.1970    1.0990 H   0  0  0  0  0  0  0  0  0  0  0  0
    4.3768   -1.4109    1.1017 H   0  0  0  0  0  0  0  0  0  0  0  0
    0.7351   -1.2786    1.0133 H   0  0  0  0  0  0  0  0  0  0  0  0
   -1.6530   -1.7428    0.9721 H   0  0  0  0  0  0  0  0  0  0  0  0
   -4.8223    1.1109   -1.1364 H   0  0  0  0  0  0  0  0  0  0  0  0
   -3.9598    1.9880    0.1903 H   0  0  0  0  0  0  0  0  0  0  0  0
   -6.3715    1.6236    0.7502 H   0  0  0  0  0  0  0  0  0  0  0  0
   -5.1330    1.0357    1.9037 H   0  0  0  0  0  0  0  0  0  0  0  0
  1  2  1  0
  2  3  1  0
  3  4  1  0
  4  5  1  0
  5  6  1  0
  6  7  1  0
  7  8  2  0
  8  9  1  0
  9 10  2  0
 10 11  1  0
 11 12  2  0
 12 13  1  0
 13 14  2  0
 14 15  1  0
 15 16  2  0
 16 17  1  0
 17 18  2  0
 17 19  1  0
 19 20  1  0
 16 21  1  0
 21 22  2  0
 10 23  1  0
 23 24  2  0
  6 25  1  0
 25 26  1  0
 26  3  1  0
 24  7  1  0
 22 13  1  0
  1 27  1  0
  1 28  1  0
  1 29  1  0
  2 30  1  0
  2 31  1  0
  4 32  1  0
  4 33  1  0
  5 34  1  0
  5 35  1  0
  8 36  1  0
  9 37  1  0
 14 38  1  0
 15 39  1  0
 20 40  1  0
 20 41  1  0
 20 42  1  0
 21 43  1  0
 22 44  1  0
 23 45  1  0
 24 46  1  0
 25 47  1  0
 25 48  1  0
 26 49  1  0
 26 50  1  0
M  END
