
     RDKit          3D

 49 52  0  0  0  0  0  0  0  0999 V2000
    6.7783   -1.3669    2.5190 C   0  0  0  0  0  0  0  0  0  0  0  0
    6.2557   -0.2495    1.7429 N   0  0  0  0  0  0  0  0  0  0  0  0
    7.0864    0.9123    1.5071 C   0  0  0  0  0  0  0  0  0  0  0  0
    4.9139   -0.2746    1.2723 C   0  0  0  0  0  0  0  0  0  0  0  0
    4.0182   -1.2503    1.6708 C   0  0  0  0  0  0  0  0  0  0  0  0
    2.7384   -1.2872    1.1358 C   0  0  0  0  0  0  0  0  0  0  0  0
    2.3061   -0.3249    0.1702 C   0  0  0  0  0  0  0  0  0  0  0  0
    1.0271   -0.3998   -0.3235 C   0  0  0  0  0  0  0  0  0  0  0  0
    0.7153    0.6331   -1.2736 C   0  0  0  0  0  0  0  0  0  0  0  0
   -0.6037    0.7654   -1.8489 C   0  0  0  0  0  0  0  0  0  0  0  0
   -1.7936    0.3023   -1.2983 C   0  0  0  0  0  0  0  0  0  0  0  0
   -2.4873   -0.1581   -0.3318 C   0  0  0  0  0  0  0  0  0  0  0  0
   -3.9249   -0.4705   -0.5185 C   0  0  0  0  0  0  0  0  0  0  0  0
   -4.5670   -0.6417   -1.7233 C   0  0  0  0  0  0  0  0  0  0  0  0
   -5.8709   -0.7631   -1.6419 N   0  0  0  0  0  0  0  0  0  0  0  0
   -6.1013   -0.6688   -0.2479 C   0  0  0  0  0  0  0  0  0  0  0  0
   -7.2845   -0.6786    0.4069 C   0  0  0  0  0  0  0  0  0  0  0  0
   -7.2870   -0.5105    1.7718 C   0  0  0  0  0  0  0  0  0  0  0  0
   -6.1212   -0.3264    2.5434 C   0  0  0  0  0  0  0  0  0  0  0  0
   -4.9329   -0.3263    1.7411 C   0  0  0  0  0  0  0  0  0  0  0  0
   -4.9263   -0.4916    0.4058 C   0  0  0  0  0  0  0  0  0  0  0  0
   -0.7318    1.2225   -3.0725 C   0  0  0  0  0  0  0  0  0  0  0  0
   -0.2421    1.6608   -4.2060 C   0  0  0  0  0  0  0  0  0  0  0  0
    0.2082    2.0693   -5.2270 N   0  0  0  0  0  0  0  0  0  0  0  0
   -2.2507    1.8621   -3.0319 C   0  0  0  0  0  0  0  0  0  0  0  0
   -3.3428    2.3447   -3.0044 N   0  0  0  0  0  0  0  0  0  0  0  0
    1.7151    1.4721   -1.5043 C   0  0  0  0  0  0  0  0  0  0  0  0
    1.4902    2.4592   -2.3668 O   0  0  0  0  0  0  0  0  0  0  0  0
    2.9252    1.5469   -1.0443 O   0  0  0  0  0  0  0  0  0  0  0  0
    3.2656    0.5915   -0.1397 C   0  0  0  0  0  0  0  0  0  0  0  0
    4.5162    0.6673    0.3436 C   0  0  0  0  0  0  0  0  0  0  0  0
    6.2171   -1.5225    3.4260 H   0  0  0  0  0  0  0  0  0  0  0  0
    7.8445   -1.2802    2.7342 H   0  0  0  0  0  0  0  0  0  0  0  0
    6.7329   -2.2873    1.8461 H   0  0  0  0  0  0  0  0  0  0  0  0
    8.0743    0.7472    1.9944 H   0  0  0  0  0  0  0  0  0  0  0  0
    6.5434    1.7465    2.0734 H   0  0  0  0  0  0  0  0  0  0  0  0
    7.1341    1.1927    0.4620 H   0  0  0  0  0  0  0  0  0  0  0  0
    4.3042   -1.9962    2.3821 H   0  0  0  0  0  0  0  0  0  0  0  0
    1.9978   -2.0148    1.3655 H   0  0  0  0  0  0  0  0  0  0  0  0
    0.3157   -1.0999   -0.0807 H   0  0  0  0  0  0  0  0  0  0  0  0
   -2.6405    0.2788   -2.2518 H   0  0  0  0  0  0  0  0  0  0  0  0
   -1.9444   -0.2592    0.5618 H   0  0  0  0  0  0  0  0  0  0  0  0
   -4.0605   -0.6880   -2.7132 H   0  0  0  0  0  0  0  0  0  0  0  0
   -6.5954   -0.8731   -2.3734 H   0  0  0  0  0  0  0  0  0  0  0  0
   -8.2324   -0.8041   -0.1196 H   0  0  0  0  0  0  0  0  0  0  0  0
   -8.2824   -0.5107    2.2431 H   0  0  0  0  0  0  0  0  0  0  0  0
   -6.1340   -0.2030    3.5547 H   0  0  0  0  0  0  0  0  0  0  0  0
   -3.9584   -0.1747    2.2938 H   0  0  0  0  0  0  0  0  0  0  0  0
    5.1918    1.4280    0.0311 H   0  0  0  0  0  0  0  0  0  0  0  0
  1  2  1  0
  2  3  1  0
  2  4  1  0
  4  5  2  0
  5  6  1  0
  6  7  2  0
  7  8  1  0
  8  9  2  0
  9 10  1  0
 10 11  1  0
 11 12  2  0
 12 13  1  0
 13 14  2  0
 14 15  1  0
 15 16  1  0
 16 17  2  0
 17 18  1  0
 18 19  2  0
 19 20  1  0
 20 21  2  0
 10 22  2  0
 22 23  1  0
 23 24  3  0
 22 25  1  0
 25 26  3  0
  9 27  1  0
 27 28  2  0
 27 29  1  0
 29 30  1  0
 30 31  2  0
 31  4  1  0
 30  7  1  0
 21 13  1  0
 21 16  1  0
  1 32  1  0
  1 33  1  0
  1 34  1  0
  3 35  1  0
  3 36  1  0
  3 37  1  0
  5 38  1  0
  6 39  1  0
  8 40  1  0
 11 41  1  0
 12 42  1  0
 14 43  1  0
 15 44  1  0
 17 45  1  0
 18 46  1  0
 19 47  1  0
 20 48  1  0
 31 49  1  0
M  END
