
     RDKit          3D

 34 38  0  0  0  0  0  0  0  0999 V2000
   -3.7080    1.4062    0.1374 O   0  0  0  0  0  0  0  0  0  0  0  0
   -2.5527    0.9378    0.1067 C   0  0  0  0  0  0  0  0  0  0  0  0
   -2.3393   -0.4225    0.1328 C   0  0  0  0  0  0  0  0  0  0  0  0
   -3.4025   -1.2658    0.3638 C   0  0  0  0  0  0  0  0  0  0  0  0
   -3.2579   -2.6158    0.5772 C   0  0  0  0  0  0  0  0  0  0  0  0
   -1.9791   -3.1102    0.5574 C   0  0  0  0  0  0  0  0  0  0  0  0
   -0.8857   -2.2855    0.3219 C   0  0  0  0  0  0  0  0  0  0  0  0
   -1.0399   -0.9515    0.0908 C   0  0  0  0  0  0  0  0  0  0  0  0
    0.0086   -0.1248    0.0090 N   0  0  0  0  0  0  0  0  0  0  0  0
    1.2691   -0.5785   -0.0802 C   0  0  0  0  0  0  0  0  0  0  0  0
    1.5416   -1.8963   -0.3070 C   0  0  0  0  0  0  0  0  0  0  0  0
    2.8371   -2.3298   -0.5503 C   0  0  0  0  0  0  0  0  0  0  0  0
    3.8856   -1.4556   -0.5817 C   0  0  0  0  0  0  0  0  0  0  0  0
    3.6199   -0.1290   -0.3687 C   0  0  0  0  0  0  0  0  0  0  0  0
    2.3390    0.3273   -0.1233 C   0  0  0  0  0  0  0  0  0  0  0  0
    2.1278    1.6866   -0.1054 C   0  0  0  0  0  0  0  0  0  0  0  0
    3.0881    2.4746   -0.1385 O   0  0  0  0  0  0  0  0  0  0  0  0
    0.8383    2.1347   -0.0502 C   0  0  0  0  0  0  0  0  0  0  0  0
    0.6573    3.5231   -0.0545 C   0  0  0  0  0  0  0  0  0  0  0  0
   -0.6138    4.0137   -0.0078 C   0  0  0  0  0  0  0  0  0  0  0  0
   -1.6799    3.1418    0.0424 C   0  0  0  0  0  0  0  0  0  0  0  0
   -1.4888    1.7744    0.0465 C   0  0  0  0  0  0  0  0  0  0  0  0
   -0.2128    1.2546   -0.0008 C   0  0  0  0  0  0  0  0  0  0  0  0
   -4.3950   -0.8113    0.3716 H   0  0  0  0  0  0  0  0  0  0  0  0
   -4.1130   -3.2601    0.7518 H   0  0  0  0  0  0  0  0  0  0  0  0
   -1.8139   -4.1782    0.7294 H   0  0  0  0  0  0  0  0  0  0  0  0
    0.0441   -2.7802    0.5518 H   0  0  0  0  0  0  0  0  0  0  0  0
    0.8228   -2.6649   -0.5224 H   0  0  0  0  0  0  0  0  0  0  0  0
    3.0324   -3.3826   -0.7192 H   0  0  0  0  0  0  0  0  0  0  0  0
    4.8706   -1.8182   -0.7671 H   0  0  0  0  0  0  0  0  0  0  0  0
    4.4327    0.6168   -0.3878 H   0  0  0  0  0  0  0  0  0  0  0  0
    1.5363    4.1846   -0.0951 H   0  0  0  0  0  0  0  0  0  0  0  0
   -0.7697    5.0864   -0.0107 H   0  0  0  0  0  0  0  0  0  0  0  0
   -2.6991    3.4984    0.0802 H   0  0  0  0  0  0  0  0  0  0  0  0
  1  2  2  0
  2  3  1  0
  3  4  2  0
  4  5  1  0
  5  6  2  0
  6  7  1  0
  7  8  2  0
  8  9  1  0
  9 10  1  0
 10 11  2  0
 11 12  1  0
 12 13  2  0
 13 14  1  0
 14 15  2  0
 15 16  1  0
 16 17  2  0
 16 18  1  0
 18 19  1  0
 19 20  2  0
 20 21  1  0
 21 22  2  0
 22 23  1  0
 22  2  1  0
  8  3  1  0
 23  9  1  0
 15 10  1  0
 23 18  2  0
  4 24  1  0
  5 25  1  0
  6 26  1  0
  7 27  1  0
 11 28  1  0
 12 29  1  0
 13 30  1  0
 14 31  1  0
 19 32  1  0
 20 33  1  0
 21 34  1  0
M  END
