
     RDKit          3D

 64 67  0  0  0  0  0  0  0  0999 V2000
    5.0822   -5.7803   -0.9324 C   0  0  0  0  0  0  0  0  0  0  0  0
    4.8036   -5.2115   -2.3085 C   0  0  0  0  0  0  0  0  0  0  0  0
    4.2324   -3.9419   -2.1555 O   0  0  0  0  0  0  0  0  0  0  0  0
    2.9722   -3.6901   -1.5724 C   0  0  0  0  0  0  0  0  0  0  0  0
    2.3602   -4.7264   -1.2299 O   0  0  0  0  0  0  0  0  0  0  0  0
    2.5387   -2.3494   -1.4200 C   0  0  0  0  0  0  0  0  0  0  0  0
    1.4389   -1.8017   -0.8943 C   0  0  0  0  0  0  0  0  0  0  0  0
    1.3009   -0.4331   -0.8988 C   0  0  0  0  0  0  0  0  0  0  0  0
    1.1789    0.7734   -0.9026 C   0  0  0  0  0  0  0  0  0  0  0  0
    0.5117    2.0077   -0.5576 C   0  0  0  0  0  0  0  0  0  0  0  0
    0.9392    3.2976   -0.5606 C   0  0  0  0  0  0  0  0  0  0  0  0
    2.1950    3.7137   -1.1427 C   0  0  0  0  0  0  0  0  0  0  0  0
    2.9555    4.6585   -0.4436 C   0  0  0  0  0  0  0  0  0  0  0  0
    4.1116    5.1765   -0.9828 C   0  0  0  0  0  0  0  0  0  0  0  0
    4.5286    4.7586   -2.2295 C   0  0  0  0  0  0  0  0  0  0  0  0
    3.8187    3.8340   -2.9611 C   0  0  0  0  0  0  0  0  0  0  0  0
    2.6518    3.3406   -2.3738 C   0  0  0  0  0  0  0  0  0  0  0  0
    0.0142    4.0190    0.0418 O   0  0  0  0  0  0  0  0  0  0  0  0
   -1.0209    3.2637    0.4408 C   0  0  0  0  0  0  0  0  0  0  0  0
   -2.2004    3.7305    1.1507 C   0  0  0  0  0  0  0  0  0  0  0  0
   -2.0078    4.7635    2.0835 C   0  0  0  0  0  0  0  0  0  0  0  0
   -2.9967    5.3543    2.8147 C   0  0  0  0  0  0  0  0  0  0  0  0
   -4.3140    4.9011    2.6316 C   0  0  0  0  0  0  0  0  0  0  0  0
   -4.5357    3.9062    1.7313 C   0  0  0  0  0  0  0  0  0  0  0  0
   -3.4704    3.3292    0.9934 C   0  0  0  0  0  0  0  0  0  0  0  0
   -0.7406    2.0096    0.0762 C   0  0  0  0  0  0  0  0  0  0  0  0
   -1.5296    0.8080    0.2664 C   0  0  0  0  0  0  0  0  0  0  0  0
   -0.9465   -0.3995    0.4907 C   0  0  0  0  0  0  0  0  0  0  0  0
   -1.9972   -1.4463    0.6298 C   0  0  0  0  0  0  0  0  0  0  0  0
   -1.7238   -2.6959    0.8860 C   0  0  0  0  0  0  0  0  0  0  0  0
   -2.8484   -3.6506    0.9969 C   0  0  0  0  0  0  0  0  0  0  0  0
   -2.5867   -4.8698    1.2809 O   0  0  0  0  0  0  0  0  0  0  0  0
   -4.1304   -3.2625    0.8016 O   0  0  0  0  0  0  0  0  0  0  0  0
   -5.2658   -4.0743    0.8909 C   0  0  0  0  0  0  0  0  0  0  0  0
   -5.4383   -4.5557    2.3070 C   0  0  0  0  0  0  0  0  0  0  0  0
    0.3916   -0.6923    0.6907 C   0  0  0  0  0  0  0  0  0  0  0  0
    5.5984   -6.7643   -0.9656 H   0  0  0  0  0  0  0  0  0  0  0  0
    4.1392   -5.8934   -0.3819 H   0  0  0  0  0  0  0  0  0  0  0  0
    5.6898   -5.0300   -0.3605 H   0  0  0  0  0  0  0  0  0  0  0  0
    5.7551   -5.1584   -2.8982 H   0  0  0  0  0  0  0  0  0  0  0  0
    4.1221   -5.9279   -2.8529 H   0  0  0  0  0  0  0  0  0  0  0  0
    3.2142   -1.5155   -1.8077 H   0  0  0  0  0  0  0  0  0  0  0  0
    0.7258   -2.5231   -0.5767 H   0  0  0  0  0  0  0  0  0  0  0  0
    2.0843    1.1231   -1.6546 H   0  0  0  0  0  0  0  0  0  0  0  0
    2.6726    5.0102    0.5333 H   0  0  0  0  0  0  0  0  0  0  0  0
    4.7424    5.9167   -0.4819 H   0  0  0  0  0  0  0  0  0  0  0  0
    5.4444    5.1475   -2.6994 H   0  0  0  0  0  0  0  0  0  0  0  0
    4.1560    3.5157   -3.9569 H   0  0  0  0  0  0  0  0  0  0  0  0
    2.0558    2.6630   -2.9815 H   0  0  0  0  0  0  0  0  0  0  0  0
   -0.9568    5.1014    2.2060 H   0  0  0  0  0  0  0  0  0  0  0  0
   -2.8466    6.1422    3.5185 H   0  0  0  0  0  0  0  0  0  0  0  0
   -5.0801    5.3843    3.2219 H   0  0  0  0  0  0  0  0  0  0  0  0
   -5.5175    3.5384    1.5439 H   0  0  0  0  0  0  0  0  0  0  0  0
   -3.7367    2.5750    0.2722 H   0  0  0  0  0  0  0  0  0  0  0  0
   -2.5623    0.8762    0.2759 H   0  0  0  0  0  0  0  0  0  0  0  0
   -3.0491   -1.1594    0.5225 H   0  0  0  0  0  0  0  0  0  0  0  0
   -0.7460   -3.0636    1.0383 H   0  0  0  0  0  0  0  0  0  0  0  0
   -5.1856   -4.9604    0.1703 H   0  0  0  0  0  0  0  0  0  0  0  0
   -6.1690   -3.4560    0.6289 H   0  0  0  0  0  0  0  0  0  0  0  0
   -5.1821   -3.6951    2.9710 H   0  0  0  0  0  0  0  0  0  0  0  0
   -4.8319   -5.4152    2.5554 H   0  0  0  0  0  0  0  0  0  0  0  0
   -6.5457   -4.7659    2.4113 H   0  0  0  0  0  0  0  0  0  0  0  0
    0.7396   -1.6994    0.8485 H   0  0  0  0  0  0  0  0  0  0  0  0
    0.9972   -0.0307    1.2616 H   0  0  0  0  0  0  0  0  0  0  0  0
  1  2  1  0
  2  3  1  0
  3  4  1  0
  4  5  2  0
  4  6  1  0
  6  7  2  0
  7  8  1  0
  8  9  2  0
  9 10  1  0
 10 11  2  0
 11 12  1  0
 12 13  2  0
 13 14  1  0
 14 15  2  0
 15 16  1  0
 16 17  2  0
 11 18  1  0
 18 19  1  0
 19 20  1  0
 20 21  2  0
 21 22  1  0
 22 23  2  0
 23 24  1  0
 24 25  2  0
 19 26  2  0
 26 27  1  0
 27 28  2  0
 28 29  1  0
 29 30  2  0
 30 31  1  0
 31 32  2  0
 31 33  1  0
 33 34  1  0
 34 35  1  0
 28 36  1  0
 36  8  1  0
 26 10  1  0
 17 12  1  0
 25 20  1  0
  1 37  1  0
  1 38  1  0
  1 39  1  0
  2 40  1  0
  2 41  1  0
  6 42  1  0
  7 43  1  0
  9 44  1  0
 13 45  1  0
 14 46  1  0
 15 47  1  0
 16 48  1  0
 17 49  1  0
 21 50  1  0
 22 51  1  0
 23 52  1  0
 24 53  1  0
 25 54  1  0
 27 55  1  0
 29 56  1  0
 30 57  1  0
 34 58  1  0
 34 59  1  0
 35 60  1  0
 35 61  1  0
 35 62  1  0
 36 63  1  0
 36 64  1  0
M  END
