
     RDKit          3D

 49 53  0  0  0  0  0  0  0  0999 V2000
   -6.1815   -1.1028    0.9281 C   0  0  0  0  0  0  0  0  0  0  0  0
   -5.4031   -0.0879    0.2600 N   0  0  0  0  0  0  0  0  0  0  0  0
   -6.0623    0.9084   -0.5332 C   0  0  0  0  0  0  0  0  0  0  0  0
   -3.9685   -0.0938    0.4035 C   0  0  0  0  0  0  0  0  0  0  0  0
   -3.1975    0.8645   -0.2220 C   0  0  0  0  0  0  0  0  0  0  0  0
   -1.8218    0.8177   -0.0529 C   0  0  0  0  0  0  0  0  0  0  0  0
   -1.2193   -0.1530    0.7157 C   0  0  0  0  0  0  0  0  0  0  0  0
    0.2269   -0.1258    0.8278 C   0  0  0  0  0  0  0  0  0  0  0  0
    1.0729    0.0281   -0.1720 C   0  0  0  0  0  0  0  0  0  0  0  0
    0.6098    0.1819   -1.5107 C   0  0  0  0  0  0  0  0  0  0  0  0
    1.0919    1.1383   -2.3917 C   0  0  0  0  0  0  0  0  0  0  0  0
    0.6559    1.2513   -3.6933 C   0  0  0  0  0  0  0  0  0  0  0  0
   -0.3077    0.3702   -4.1442 C   0  0  0  0  0  0  0  0  0  0  0  0
   -0.8212   -0.5970   -3.3170 C   0  0  0  0  0  0  0  0  0  0  0  0
   -0.3542   -0.6819   -2.0005 C   0  0  0  0  0  0  0  0  0  0  0  0
    2.5308    0.0495    0.0783 C   0  0  0  0  0  0  0  0  0  0  0  0
    3.8381    0.2200   -0.9989 S   0  0  0  0  0  0  0  0  0  0  0  0
    5.1112    0.1214    0.1432 C   0  0  0  0  0  0  0  0  0  0  0  0
    6.5109    0.1750    0.0531 C   0  0  0  0  0  0  0  0  0  0  0  0
    7.2834    0.0619    1.1854 C   0  0  0  0  0  0  0  0  0  0  0  0
    6.6186   -0.1008    2.3634 C   0  0  0  0  0  0  0  0  0  0  0  0
    5.2549   -0.1552    2.4693 C   0  0  0  0  0  0  0  0  0  0  0  0
    4.4310   -0.0416    1.3199 C   0  0  0  0  0  0  0  0  0  0  0  0
    3.1136   -0.0742    1.2539 N   0  0  0  0  0  4  0  0  0  0  0  0
    2.1281   -0.2436    2.4594 B   0  0  0  0  0  4  0  0  0  0  0  0
    2.5162   -1.5421    3.0445 F   0  0  0  0  0  0  0  0  0  0  0  0
    2.3982    0.7901    3.4499 F   0  0  0  0  0  0  0  0  0  0  0  0
    0.7505   -0.2749    2.0921 O   0  0  0  0  0  0  0  0  0  0  0  0
   -2.0133   -1.0857    1.3200 C   0  0  0  0  0  0  0  0  0  0  0  0
   -3.3676   -1.0634    1.1713 C   0  0  0  0  0  0  0  0  0  0  0  0
   -6.0683   -2.1088    0.4657 H   0  0  0  0  0  0  0  0  0  0  0  0
   -5.9253   -1.1962    2.0150 H   0  0  0  0  0  0  0  0  0  0  0  0
   -7.2577   -0.8128    0.9213 H   0  0  0  0  0  0  0  0  0  0  0  0
   -5.5355    1.1437   -1.4875 H   0  0  0  0  0  0  0  0  0  0  0  0
   -7.0878    0.5349   -0.7965 H   0  0  0  0  0  0  0  0  0  0  0  0
   -6.1619    1.8484    0.0582 H   0  0  0  0  0  0  0  0  0  0  0  0
   -3.6705    1.6337   -0.8305 H   0  0  0  0  0  0  0  0  0  0  0  0
   -1.2809    1.6103   -0.5698 H   0  0  0  0  0  0  0  0  0  0  0  0
    1.8460    1.8310   -2.0503 H   0  0  0  0  0  0  0  0  0  0  0  0
    1.0381    2.0024   -4.3733 H   0  0  0  0  0  0  0  0  0  0  0  0
   -0.6659    0.4364   -5.1583 H   0  0  0  0  0  0  0  0  0  0  0  0
   -1.5747   -1.2698   -3.7052 H   0  0  0  0  0  0  0  0  0  0  0  0
   -0.8155   -1.4828   -1.4280 H   0  0  0  0  0  0  0  0  0  0  0  0
    6.9072    0.3053   -0.9308 H   0  0  0  0  0  0  0  0  0  0  0  0
    8.3405    0.1094    1.0652 H   0  0  0  0  0  0  0  0  0  0  0  0
    7.2151   -0.1911    3.2607 H   0  0  0  0  0  0  0  0  0  0  0  0
    4.8385   -0.2879    3.4633 H   0  0  0  0  0  0  0  0  0  0  0  0
   -1.5471   -1.8472    1.9225 H   0  0  0  0  0  0  0  0  0  0  0  0
   -4.0193   -1.8137    1.6559 H   0  0  0  0  0  0  0  0  0  0  0  0
  1  2  1  0
  2  3  1  0
  2  4  1  0
  4  5  2  0
  5  6  1  0
  6  7  2  0
  7  8  1  0
  8  9  2  0
  9 10  1  0
 10 11  2  0
 11 12  1  0
 12 13  2  0
 13 14  1  0
 14 15  2  0
  9 16  1  0
 16 17  1  0
 17 18  1  0
 18 19  2  0
 19 20  1  0
 20 21  2  0
 21 22  1  0
 22 23  2  0
 23 24  1  0
 24 25  1  0
 25 26  1  0
 25 27  1  0
 25 28  1  0
  7 29  1  0
 29 30  2  0
 30  4  1  0
 28  8  1  0
 15 10  1  0
 24 16  2  0
 23 18  1  0
  1 31  1  0
  1 32  1  0
  1 33  1  0
  3 34  1  0
  3 35  1  0
  3 36  1  0
  5 37  1  0
  6 38  1  0
 11 39  1  0
 12 40  1  0
 13 41  1  0
 14 42  1  0
 15 43  1  0
 19 44  1  0
 20 45  1  0
 21 46  1  0
 22 47  1  0
 29 48  1  0
 30 49  1  0
M  CHG  2  24   1  25  -1
M  END
