
     RDKit          3D

 60 64  0  0  0  0  0  0  0  0999 V2000
   -2.7504   -1.7608    2.7094 C   0  0  0  0  0  0  0  0  0  0  0  0
   -3.3067   -1.0660    1.6346 O   0  0  0  0  0  0  0  0  0  0  0  0
   -2.5920   -0.4139    0.6491 C   0  0  0  0  0  0  0  0  0  0  0  0
   -1.1760   -0.4447    0.7230 C   0  0  0  0  0  0  0  0  0  0  0  0
   -0.3858    0.1764   -0.2132 C   0  0  0  0  0  0  0  0  0  0  0  0
    1.0642    0.1182   -0.1014 C   0  0  0  0  0  0  0  0  0  0  0  0
    1.7382   -0.5340    0.8998 N   0  0  0  0  0  0  0  0  0  0  0  0
    3.0552   -0.4276    0.7569 C   0  0  0  0  0  0  0  0  0  0  0  0
    4.1183   -0.9876    1.6230 C   0  0  0  0  0  0  0  0  0  0  0  0
    5.0011   -0.1783    2.2857 C   0  0  0  0  0  0  0  0  0  0  0  0
    6.0115   -0.6353    3.1051 C   0  0  0  0  0  0  0  0  0  0  0  0
    6.1006   -2.0218    3.2368 C   0  0  0  0  0  0  0  0  0  0  0  0
    5.2292   -2.8659    2.5848 C   0  0  0  0  0  0  0  0  0  0  0  0
    4.2542   -2.3508    1.7908 C   0  0  0  0  0  0  0  0  0  0  0  0
    3.2486    0.3195   -0.3759 C   0  0  0  0  0  0  0  0  0  0  0  0
    4.5332    0.6961   -0.9305 C   0  0  0  0  0  0  0  0  0  0  0  0
    4.9290    2.0035   -1.0648 C   0  0  0  0  0  0  0  0  0  0  0  0
    6.1460    2.3760   -1.5898 C   0  0  0  0  0  0  0  0  0  0  0  0
    6.9910    1.3695   -1.9931 C   0  0  0  0  0  0  0  0  0  0  0  0
    6.6575    0.0268   -1.8874 C   0  0  0  0  0  0  0  0  0  0  0  0
    5.4252   -0.2932   -1.3541 C   0  0  0  0  0  0  0  0  0  0  0  0
    2.0237    0.6352   -0.8734 N   0  0  0  0  0  0  0  0  0  0  0  0
   -0.9984    0.8406   -1.2417 C   0  0  0  0  0  0  0  0  0  0  0  0
   -0.2843    1.4993   -2.2366 O   0  0  0  0  0  0  0  0  0  0  0  0
   -0.9530    2.1727   -3.2799 C   0  0  0  0  0  0  0  0  0  0  0  0
   -2.3728    0.8702   -1.3130 C   0  0  0  0  0  0  0  0  0  0  0  0
   -3.2130    0.2395   -0.3632 C   0  0  0  0  0  0  0  0  0  0  0  0
   -4.6400    0.3321   -0.5360 C   0  0  0  0  0  0  0  0  0  0  0  0
   -5.5249   -0.1919    0.2459 C   0  0  0  0  0  0  0  0  0  0  0  0
   -6.9885   -0.0729    0.0318 C   0  0  0  0  0  0  0  0  0  0  0  0
   -7.4463    0.6233   -1.0425 C   0  0  0  0  0  0  0  0  0  0  0  0
   -8.8311    0.7039   -1.1998 C   0  0  0  0  0  0  0  0  0  0  0  0
   -9.6895    0.1216   -0.3318 N   0  0  0  0  0  0  0  0  0  0  0  0
   -9.1993   -0.5650    0.7289 C   0  0  0  0  0  0  0  0  0  0  0  0
   -7.8550   -0.6802    0.9379 C   0  0  0  0  0  0  0  0  0  0  0  0
   -2.1139   -2.6060    2.3515 H   0  0  0  0  0  0  0  0  0  0  0  0
   -2.1708   -1.1305    3.4075 H   0  0  0  0  0  0  0  0  0  0  0  0
   -3.5856   -2.1950    3.3003 H   0  0  0  0  0  0  0  0  0  0  0  0
   -0.7436   -0.9835    1.5557 H   0  0  0  0  0  0  0  0  0  0  0  0
    4.9128    0.9049    2.1683 H   0  0  0  0  0  0  0  0  0  0  0  0
    6.7022    0.0237    3.6224 H   0  0  0  0  0  0  0  0  0  0  0  0
    6.8771   -2.4422    3.8691 H   0  0  0  0  0  0  0  0  0  0  0  0
    5.3079   -3.9381    2.6948 H   0  0  0  0  0  0  0  0  0  0  0  0
    3.5462   -2.9733    1.2585 H   0  0  0  0  0  0  0  0  0  0  0  0
    4.2241    2.7717   -0.7304 H   0  0  0  0  0  0  0  0  0  0  0  0
    6.4573    3.4153   -1.6947 H   0  0  0  0  0  0  0  0  0  0  0  0
    7.9708    1.6156   -2.4172 H   0  0  0  0  0  0  0  0  0  0  0  0
    7.3669   -0.7381   -2.2239 H   0  0  0  0  0  0  0  0  0  0  0  0
    5.1202   -1.3347   -1.2517 H   0  0  0  0  0  0  0  0  0  0  0  0
    1.8759    1.2026   -1.7375 H   0  0  0  0  0  0  0  0  0  0  0  0
   -1.6825    2.9065   -2.8279 H   0  0  0  0  0  0  0  0  0  0  0  0
   -1.6109    1.4763   -3.8716 H   0  0  0  0  0  0  0  0  0  0  0  0
   -0.2553    2.7247   -3.9181 H   0  0  0  0  0  0  0  0  0  0  0  0
   -2.8501    1.3917   -2.1213 H   0  0  0  0  0  0  0  0  0  0  0  0
   -5.0104    0.9000   -1.4124 H   0  0  0  0  0  0  0  0  0  0  0  0
   -5.2345   -0.7647    1.1284 H   0  0  0  0  0  0  0  0  0  0  0  0
   -6.8525    1.1121   -1.7735 H   0  0  0  0  0  0  0  0  0  0  0  0
   -9.1960    1.2575   -2.0544 H   0  0  0  0  0  0  0  0  0  0  0  0
   -9.9194   -1.0158    1.3996 H   0  0  0  0  0  0  0  0  0  0  0  0
   -7.4559   -1.2153    1.7652 H   0  0  0  0  0  0  0  0  0  0  0  0
  1  2  1  0
  2  3  1  0
  3  4  2  0
  4  5  1  0
  5  6  1  0
  6  7  2  0
  7  8  1  0
  8  9  1  0
  9 10  2  0
 10 11  1  0
 11 12  2  0
 12 13  1  0
 13 14  2  0
  8 15  2  0
 15 16  1  0
 16 17  2  0
 17 18  1  0
 18 19  2  0
 19 20  1  0
 20 21  2  0
 15 22  1  0
  5 23  2  0
 23 24  1  0
 24 25  1  0
 23 26  1  0
 26 27  2  0
 27 28  1  0
 28 29  2  0
 29 30  1  0
 30 31  2  0
 31 32  1  0
 32 33  2  0
 33 34  1  0
 34 35  2  0
 27  3  1  0
 35 30  1  0
 22  6  1  0
 14  9  1  0
 21 16  1  0
  1 36  1  0
  1 37  1  0
  1 38  1  0
  4 39  1  0
 10 40  1  0
 11 41  1  0
 12 42  1  0
 13 43  1  0
 14 44  1  0
 17 45  1  0
 18 46  1  0
 19 47  1  0
 20 48  1  0
 21 49  1  0
 22 50  1  0
 25 51  1  0
 25 52  1  0
 25 53  1  0
 26 54  1  0
 28 55  1  0
 29 56  1  0
 31 57  1  0
 32 58  1  0
 34 59  1  0
 35 60  1  0
M  END
