
     RDKit          3D

 30 33  0  0  0  0  0  0  0  0999 V2000
   -1.7248   -3.0083   -1.2555 O   0  0  0  0  0  0  0  0  0  0  0  0
   -1.2936   -1.9177   -0.7994 C   0  0  0  0  0  0  0  0  0  0  0  0
    0.0381   -1.6553   -0.6825 N   0  0  0  0  0  0  0  0  0  0  0  0
    0.4719   -0.4796   -0.1911 C   0  0  0  0  0  0  0  0  0  0  0  0
   -0.3803    0.4771    0.2022 N   0  0  0  0  0  4  0  0  0  0  0  0
   -1.7295    0.2467    0.0982 C   0  0  0  0  0  0  0  0  0  0  0  0
   -2.6622    1.1789    0.4790 C   0  0  0  0  0  0  0  0  0  0  0  0
   -4.0375    0.9640    0.3803 C   0  0  0  0  0  0  0  0  0  0  0  0
   -4.4634   -0.2445   -0.1247 C   0  0  0  0  0  0  0  0  0  0  0  0
   -3.5757   -1.2171   -0.5227 C   0  0  0  0  0  0  0  0  0  0  0  0
   -2.2136   -0.9499   -0.4024 C   0  0  0  0  0  0  0  0  0  0  0  0
    0.0379    1.8212    0.7735 B   0  0  0  0  0  4  0  0  0  0  0  0
   -0.4920    1.9497    2.1397 F   0  0  0  0  0  0  0  0  0  0  0  0
   -0.4421    2.9311   -0.0411 F   0  0  0  0  0  0  0  0  0  0  0  0
    1.5185    1.9789    0.8164 O   0  0  0  0  0  0  0  0  0  0  0  0
    2.3836    0.9997    0.4155 C   0  0  0  0  0  0  0  0  0  0  0  0
    3.7555    1.2610    0.5231 C   0  0  0  0  0  0  0  0  0  0  0  0
    4.6095    0.2643    0.1149 C   0  0  0  0  0  0  0  0  0  0  0  0
    4.1811   -0.9354   -0.3769 C   0  0  0  0  0  0  0  0  0  0  0  0
    2.8183   -1.1674   -0.4725 C   0  0  0  0  0  0  0  0  0  0  0  0
    1.9117   -0.2153   -0.0827 C   0  0  0  0  0  0  0  0  0  0  0  0
    0.6331   -2.4250   -0.9992 H   0  0  0  0  0  0  0  0  0  0  0  0
   -2.2973    2.1274    0.8741 H   0  0  0  0  0  0  0  0  0  0  0  0
   -4.7012    1.7524    0.7034 H   0  0  0  0  0  0  0  0  0  0  0  0
   -5.5396   -0.4391   -0.2128 H   0  0  0  0  0  0  0  0  0  0  0  0
   -3.8763   -2.1686   -0.9201 H   0  0  0  0  0  0  0  0  0  0  0  0
    4.0821    2.2154    0.9143 H   0  0  0  0  0  0  0  0  0  0  0  0
    5.6703    0.4693    0.1993 H   0  0  0  0  0  0  0  0  0  0  0  0
    4.8762   -1.7128   -0.6953 H   0  0  0  0  0  0  0  0  0  0  0  0
    2.4417   -2.1009   -0.8550 H   0  0  0  0  0  0  0  0  0  0  0  0
  1  2  2  0
  2  3  1  0
  3  4  1  0
  4  5  2  0
  5  6  1  0
  6  7  2  0
  7  8  1  0
  8  9  2  0
  9 10  1  0
 10 11  2  0
  5 12  1  0
 12 13  1  0
 12 14  1  0
 12 15  1  0
 15 16  1  0
 16 17  2  0
 17 18  1  0
 18 19  2  0
 19 20  1  0
 20 21  2  0
 11  2  1  0
 21 16  1  0
 21  4  1  0
 11  6  1  0
  3 22  1  0
  7 23  1  0
  8 24  1  0
  9 25  1  0
 10 26  1  0
 17 27  1  0
 18 28  1  0
 19 29  1  0
 20 30  1  0
M  CHG  2   5   1  12  -1
M  END
