
     RDKit          3D

 51 54  0  0  0  0  0  0  0  0999 V2000
    6.2164    0.4631   -0.8385 N   0  0  0  0  0  0  0  0  0  0  0  0
    5.4206   -0.3854   -0.6504 C   0  0  0  0  0  0  0  0  0  0  0  0
    4.4498   -1.4557   -0.4252 C   0  0  0  0  0  0  0  0  0  0  0  0
    4.7567   -2.8676   -0.6060 C   0  0  0  0  0  0  0  0  0  0  0  0
    5.0025   -3.9855   -0.7617 N   0  0  0  0  0  0  0  0  0  0  0  0
    3.2157   -1.0535   -0.3022 C   0  0  0  0  0  0  0  0  0  0  0  0
    1.9382   -0.5786   -0.1787 C   0  0  0  0  0  0  0  0  0  0  0  0
    0.7855   -1.2674    0.0301 C   0  0  0  0  0  0  0  0  0  0  0  0
   -0.4800   -0.4837    0.1446 C   0  0  0  0  0  0  0  0  0  0  0  0
   -0.5479    0.9131    0.1480 C   0  0  0  0  0  0  0  0  0  0  0  0
   -1.8607    1.2549    0.0740 N   0  0  0  0  0  0  0  0  0  0  0  0
   -2.3483    2.5836    0.0548 C   0  0  0  0  0  0  0  0  0  0  0  0
   -3.6737    2.7831   -0.4732 C   0  0  0  0  0  0  0  0  0  0  0  0
   -4.1705    4.0697   -0.5036 C   0  0  0  0  0  0  0  0  0  0  0  0
   -3.3737    5.1620   -0.0153 C   0  0  0  0  0  0  0  0  0  0  0  0
   -2.1283    4.9327    0.4830 C   0  0  0  0  0  0  0  0  0  0  0  0
   -1.7067    3.6411    0.4780 C   0  0  0  0  0  0  0  0  0  0  0  0
   -2.6166    0.1501    0.0309 N   0  0  0  0  0  0  0  0  0  0  0  0
   -1.7302   -0.9277    0.0697 C   0  0  0  0  0  0  0  0  0  0  0  0
   -2.2818   -2.2679    0.0575 C   0  0  0  0  0  0  0  0  0  0  0  0
   -3.5460   -2.4120    0.9474 C   0  0  0  0  0  0  0  0  0  0  0  0
   -3.9913   -3.6885    0.8587 C   0  0  0  0  0  0  0  0  0  0  0  0
   -3.6394   -4.7476    0.2461 C   0  0  0  0  0  0  0  0  0  0  0  0
   -4.3353   -6.0095    0.3104 N   0  0  0  0  0  4  0  0  0  0  0  0
   -4.0436   -7.0171   -0.3272 O   0  0  0  0  0  0  0  0  0  0  0  0
   -5.4369   -6.0508    1.1611 O   0  0  0  0  0  1  0  0  0  0  0  0
   -2.4579   -4.6181   -0.5985 C   0  0  0  0  0  0  0  0  0  0  0  0
   -1.9068   -3.3280   -0.5797 C   0  0  0  0  0  0  0  0  0  0  0  0
    3.8734    0.4807    0.2833 C   0  0  0  0  0  0  0  0  0  0  0  0
    3.5007    1.5311   -0.3510 C   0  0  0  0  0  0  0  0  0  0  0  0
    4.0224    2.8310    0.0954 C   0  0  0  0  0  0  0  0  0  0  0  0
    4.8864    2.8067    1.1617 C   0  0  0  0  0  0  0  0  0  0  0  0
    5.2534    1.6594    1.8054 C   0  0  0  0  0  0  0  0  0  0  0  0
    4.7009    0.3901    1.3210 C   0  0  0  0  0  0  0  0  0  0  0  0
    1.6703    0.4987   -0.3160 H   0  0  0  0  0  0  0  0  0  0  0  0
    0.8205   -2.3192    0.1240 H   0  0  0  0  0  0  0  0  0  0  0  0
    0.2647    1.5974    0.2481 H   0  0  0  0  0  0  0  0  0  0  0  0
   -4.2097    1.9219   -0.8454 H   0  0  0  0  0  0  0  0  0  0  0  0
   -5.1449    4.2912   -0.8651 H   0  0  0  0  0  0  0  0  0  0  0  0
   -3.8364    6.1605   -0.0851 H   0  0  0  0  0  0  0  0  0  0  0  0
   -1.5056    5.7158    0.8597 H   0  0  0  0  0  0  0  0  0  0  0  0
   -0.6557    3.4737    0.9285 H   0  0  0  0  0  0  0  0  0  0  0  0
   -3.7927   -1.5431    1.4270 H   0  0  0  0  0  0  0  0  0  0  0  0
   -4.9501   -3.7496    1.5416 H   0  0  0  0  0  0  0  0  0  0  0  0
   -2.1304   -5.4273   -1.1480 H   0  0  0  0  0  0  0  0  0  0  0  0
   -0.9912   -3.2901   -1.2810 H   0  0  0  0  0  0  0  0  0  0  0  0
    2.8019    1.6377   -1.1687 H   0  0  0  0  0  0  0  0  0  0  0  0
    3.7333    3.6691   -0.4801 H   0  0  0  0  0  0  0  0  0  0  0  0
    5.3150    3.7798    1.5297 H   0  0  0  0  0  0  0  0  0  0  0  0
    5.9314    1.6077    2.6198 H   0  0  0  0  0  0  0  0  0  0  0  0
    4.9326   -0.5321    1.7744 H   0  0  0  0  0  0  0  0  0  0  0  0
  1  2  3  0
  2  3  1  0
  3  4  1  0
  4  5  3  0
  3  6  2  0
  6  7  1  0
  7  8  2  0
  8  9  1  0
  9 10  2  0
 10 11  1  0
 11 12  1  0
 12 13  2  0
 13 14  1  0
 14 15  2  0
 15 16  1  0
 16 17  2  0
 11 18  1  0
 18 19  2  0
 19 20  1  0
 20 21  2  0
 21 22  1  0
 22 23  2  0
 23 24  1  0
 24 25  2  0
 24 26  1  0
 23 27  1  0
 27 28  2  0
  6 29  1  0
 29 30  2  0
 30 31  1  0
 31 32  2  0
 32 33  1  0
 33 34  2  0
 19  9  1  0
 28 20  1  0
 34 29  1  0
 17 12  1  0
  7 35  1  0
  8 36  1  0
 10 37  1  0
 13 38  1  0
 14 39  1  0
 15 40  1  0
 16 41  1  0
 17 42  1  0
 21 43  1  0
 22 44  1  0
 27 45  1  0
 28 46  1  0
 30 47  1  0
 31 48  1  0
 32 49  1  0
 33 50  1  0
 34 51  1  0
M  CHG  2  24   1  26  -1
M  END
