
     RDKit          3D

 63 67  0  0  0  0  0  0  0  0999 V2000
   -3.3480    3.1754   -1.6327 C   0  0  0  0  0  0  0  0  0  0  0  0
   -2.0650    3.1002   -0.8277 C   0  0  0  0  0  0  0  0  0  0  0  0
   -0.8516    3.4360   -1.6677 C   0  0  0  0  0  0  0  0  0  0  0  0
   -2.1725    4.1881    0.2194 C   0  0  0  0  0  0  0  0  0  0  0  0
   -1.8855    1.7534   -0.2514 C   0  0  0  0  0  0  0  0  0  0  0  0
   -0.6523    1.1287   -0.2401 C   0  0  0  0  0  0  0  0  0  0  0  0
   -0.5026   -0.1534    0.3065 C   0  0  0  0  0  0  0  0  0  0  0  0
   -1.5655   -0.8048    0.8325 C   0  0  0  0  0  0  0  0  0  0  0  0
   -2.8007   -0.2076    0.8327 C   0  0  0  0  0  0  0  0  0  0  0  0
   -3.9801   -0.8718    1.3737 C   0  0  0  0  0  0  0  0  0  0  0  0
   -3.8677   -1.1983    2.8363 C   0  0  0  0  0  0  0  0  0  0  0  0
   -4.2010   -2.1813    0.6249 C   0  0  0  0  0  0  0  0  0  0  0  0
   -5.2348   -0.0587    1.1619 C   0  0  0  0  0  0  0  0  0  0  0  0
   -2.9474    1.0589    0.2936 C   0  0  0  0  0  0  0  0  0  0  0  0
   -1.4044   -2.0571    1.3511 O   0  0  0  0  0  0  0  0  0  0  0  0
   -0.0542   -2.6732    1.6448 B   0  0  0  0  0  4  0  0  0  0  0  0
   -0.1790   -4.0503    1.1387 F   0  0  0  0  0  0  0  0  0  0  0  0
    0.0684   -2.6154    3.0915 F   0  0  0  0  0  0  0  0  0  0  0  0
    1.0481   -1.9932    0.8771 N   0  0  0  0  0  4  0  0  0  0  0  0
    0.8275   -0.7918    0.3381 C   0  0  0  0  0  0  0  0  0  0  0  0
    1.7808   -0.1239   -0.3530 N   0  0  0  0  0  0  0  0  0  0  0  0
    3.0006   -0.6609   -0.5322 C   0  0  0  0  0  0  0  0  0  0  0  0
    4.0438    0.0931   -1.2468 C   0  0  0  0  0  0  0  0  0  0  0  0
    4.5607    1.2223   -0.6626 C   0  0  0  0  0  0  0  0  0  0  0  0
    5.4847    2.0613   -1.2785 C   0  0  0  0  0  0  0  0  0  0  0  0
    5.9082    1.7304   -2.5674 C   0  0  0  0  0  0  0  0  0  0  0  0
    5.4043    0.6141   -3.1574 C   0  0  0  0  0  0  0  0  0  0  0  0
    4.4828   -0.2050   -2.5208 C   0  0  0  0  0  0  0  0  0  0  0  0
    3.2227   -1.9033    0.0224 C   0  0  0  0  0  0  0  0  0  0  0  0
    4.4696   -2.4486   -0.1513 C   0  0  0  0  0  0  0  0  0  0  0  0
    4.7480   -3.6748    0.3915 C   0  0  0  0  0  0  0  0  0  0  0  0
    6.3466   -4.3556    0.1344 Cl  0  0  0  0  0  0  0  0  0  0  0  0
    3.7972   -4.3582    1.1041 C   0  0  0  0  0  0  0  0  0  0  0  0
    2.5137   -3.8241    1.2965 C   0  0  0  0  0  0  0  0  0  0  0  0
    2.2536   -2.6028    0.7454 C   0  0  0  0  0  0  0  0  0  0  0  0
   -3.2772    4.0918   -2.2460 H   0  0  0  0  0  0  0  0  0  0  0  0
   -4.1983    3.2976   -0.9422 H   0  0  0  0  0  0  0  0  0  0  0  0
   -3.4699    2.3421   -2.3274 H   0  0  0  0  0  0  0  0  0  0  0  0
   -0.9796    4.3699   -2.2271 H   0  0  0  0  0  0  0  0  0  0  0  0
   -0.5011    2.5984   -2.2900 H   0  0  0  0  0  0  0  0  0  0  0  0
   -0.0205    3.6452   -0.9258 H   0  0  0  0  0  0  0  0  0  0  0  0
   -1.3450    4.0706    0.9330 H   0  0  0  0  0  0  0  0  0  0  0  0
   -2.0325    5.1817   -0.2691 H   0  0  0  0  0  0  0  0  0  0  0  0
   -3.1149    4.1458    0.8050 H   0  0  0  0  0  0  0  0  0  0  0  0
    0.2098    1.6167   -0.6380 H   0  0  0  0  0  0  0  0  0  0  0  0
   -4.6013   -2.0227    3.0437 H   0  0  0  0  0  0  0  0  0  0  0  0
   -2.8733   -1.6018    3.1123 H   0  0  0  0  0  0  0  0  0  0  0  0
   -4.1928   -0.3417    3.4683 H   0  0  0  0  0  0  0  0  0  0  0  0
   -3.3215   -2.3928    0.0208 H   0  0  0  0  0  0  0  0  0  0  0  0
   -4.2895   -3.0361    1.3530 H   0  0  0  0  0  0  0  0  0  0  0  0
   -5.1656   -2.1699    0.0671 H   0  0  0  0  0  0  0  0  0  0  0  0
   -5.2738    0.8659    1.7807 H   0  0  0  0  0  0  0  0  0  0  0  0
   -6.1259   -0.7211    1.3957 H   0  0  0  0  0  0  0  0  0  0  0  0
   -5.3590    0.2065    0.1027 H   0  0  0  0  0  0  0  0  0  0  0  0
   -3.9003    1.5660    0.2806 H   0  0  0  0  0  0  0  0  0  0  0  0
    4.2502    1.5090    0.3518 H   0  0  0  0  0  0  0  0  0  0  0  0
    5.8830    2.9247   -0.7964 H   0  0  0  0  0  0  0  0  0  0  0  0
    6.6266    2.3668   -3.0681 H   0  0  0  0  0  0  0  0  0  0  0  0
    5.7504    0.3798   -4.1724 H   0  0  0  0  0  0  0  0  0  0  0  0
    4.0946   -1.0689   -3.0281 H   0  0  0  0  0  0  0  0  0  0  0  0
    5.2159   -1.8982   -0.7116 H   0  0  0  0  0  0  0  0  0  0  0  0
    3.9813   -5.3118    1.5343 H   0  0  0  0  0  0  0  0  0  0  0  0
    1.7808   -4.3610    1.8656 H   0  0  0  0  0  0  0  0  0  0  0  0
  1  2  1  0
  2  3  1  0
  2  4  1  0
  2  5  1  0
  5  6  2  0
  6  7  1  0
  7  8  2  0
  8  9  1  0
  9 10  1  0
 10 11  1  0
 10 12  1  0
 10 13  1  0
  9 14  2  0
  8 15  1  0
 15 16  1  0
 16 17  1  0
 16 18  1  0
 16 19  1  0
 19 20  2  0
 20 21  1  0
 21 22  2  0
 22 23  1  0
 23 24  2  0
 24 25  1  0
 25 26  2  0
 26 27  1  0
 27 28  2  0
 22 29  1  0
 29 30  2  0
 30 31  1  0
 31 32  1  0
 31 33  2  0
 33 34  1  0
 34 35  2  0
 14  5  1  0
 35 19  1  0
 20  7  1  0
 28 23  1  0
 35 29  1  0
  1 36  1  0
  1 37  1  0
  1 38  1  0
  3 39  1  0
  3 40  1  0
  3 41  1  0
  4 42  1  0
  4 43  1  0
  4 44  1  0
  6 45  1  0
 11 46  1  0
 11 47  1  0
 11 48  1  0
 12 49  1  0
 12 50  1  0
 12 51  1  0
 13 52  1  0
 13 53  1  0
 13 54  1  0
 14 55  1  0
 24 56  1  0
 25 57  1  0
 26 58  1  0
 27 59  1  0
 28 60  1  0
 30 61  1  0
 33 62  1  0
 34 63  1  0
M  CHG  2  16  -1  19   1
M  END
