
     RDKit          3D

 88 94  0  0  0  0  0  0  0  0999 V2000
   10.7007    2.4665    0.8585 O   0  0  0  0  0  0  0  0  0  0  0  0
   10.0582    2.7549   -0.1735 C   0  0  0  0  0  0  0  0  0  0  0  0
    9.8071    4.1215   -0.3924 O   0  0  0  0  0  0  0  0  0  0  0  0
    9.5915    1.7399   -1.1047 C   0  0  0  0  0  0  0  0  0  0  0  0
    9.8626    0.3482   -0.6066 C   0  0  0  0  0  0  0  0  0  0  0  0
    9.1321    0.0434    0.6634 C   0  0  0  0  0  0  0  0  0  0  0  0
    7.7584    0.1217    0.6116 O   0  0  0  0  0  0  0  0  0  0  0  0
    6.8683   -0.6282   -0.0831 C   0  0  0  0  0  0  0  0  0  0  0  0
    7.2536   -1.6802   -0.8746 C   0  0  0  0  0  0  0  0  0  0  0  0
    6.2596   -2.3965   -1.5575 C   0  0  0  0  0  0  0  0  0  0  0  0
    4.9234   -2.0277   -1.4170 C   0  0  0  0  0  0  0  0  0  0  0  0
    4.5653   -0.9668   -0.6147 C   0  0  0  0  0  0  0  0  0  0  0  0
    3.1021   -0.6706   -0.5357 C   0  0  0  0  0  0  0  0  0  0  0  0
    2.6428   -0.0388   -1.6715 C   0  0  0  0  0  0  0  0  0  0  0  0
    1.3704    0.4672   -1.6250 N   0  0  0  0  0  0  0  0  0  0  0  0
    0.8753    0.5686   -2.8695 C   0  0  0  0  0  0  0  0  0  0  0  0
   -0.4566    0.3239   -3.0631 C   0  0  0  0  0  0  0  0  0  0  0  0
   -1.5010    0.2130   -2.1307 C   0  0  0  0  0  0  0  0  0  0  0  0
   -2.7289    0.8580   -2.4185 C   0  0  0  0  0  0  0  0  0  0  0  0
   -3.5596    0.5977   -1.3687 C   0  0  0  0  0  0  0  0  0  0  0  0
   -2.8076   -0.1990   -0.4734 C   0  0  0  0  0  0  0  0  0  0  0  0
   -1.5746   -0.4197   -0.9502 N   0  0  0  0  0  0  0  0  0  0  0  0
   -3.4295   -0.6118    0.7229 C   0  0  0  0  0  0  0  0  0  0  0  0
   -4.8382   -1.1103    0.6750 C   0  0  0  0  0  0  0  0  0  0  0  0
   -5.0278   -2.4351    0.3484 C   0  0  0  0  0  0  0  0  0  0  0  0
   -6.3211   -2.9409    0.2782 C   0  0  0  0  0  0  0  0  0  0  0  0
   -7.4016   -2.1399    0.5280 C   0  0  0  0  0  0  0  0  0  0  0  0
   -7.1785   -0.7839    0.8609 C   0  0  0  0  0  0  0  0  0  0  0  0
   -8.2726   -0.0094    1.1073 O   0  0  0  0  0  0  0  0  0  0  0  0
   -8.3729    1.3189    1.4124 C   0  0  0  0  0  0  0  0  0  0  0  0
   -7.9147    2.2228    0.3038 C   0  0  0  0  0  0  0  0  0  0  0  0
   -8.7451    2.0028   -0.9464 C   0  0  0  0  0  0  0  0  0  0  0  0
  -10.1494    2.3258   -0.7396 C   0  0  0  0  0  0  0  0  0  0  0  0
  -10.9995    2.0242   -1.6192 O   0  0  0  0  0  0  0  0  0  0  0  0
  -10.6264    2.9630    0.3928 O   0  0  0  0  0  0  0  0  0  0  0  0
   -5.9114   -0.2808    0.9331 C   0  0  0  0  0  0  0  0  0  0  0  0
   -2.9141   -0.6047    2.0032 C   0  0  0  0  0  0  0  0  0  0  0  0
   -1.6117   -0.1820    2.1200 N   0  0  0  0  0  0  0  0  0  0  0  0
   -1.1313   -0.6098    3.3052 C   0  0  0  0  0  0  0  0  0  0  0  0
    0.1400   -1.0908    3.3505 C   0  0  0  0  0  0  0  0  0  0  0  0
    1.0822   -1.2408    2.3145 C   0  0  0  0  0  0  0  0  0  0  0  0
    1.8204   -2.4400    2.2494 C   0  0  0  0  0  0  0  0  0  0  0  0
    2.6472   -2.3320    1.1700 C   0  0  0  0  0  0  0  0  0  0  0  0
    2.3793   -1.0561    0.6113 C   0  0  0  0  0  0  0  0  0  0  0  0
    1.4347   -0.4153    1.3163 N   0  0  0  0  0  0  0  0  0  0  0  0
   -2.2605   -0.3831    4.2326 C   0  0  0  0  0  0  0  0  0  0  0  0
   -3.3988   -0.9471    3.3650 C   0  0  0  0  0  0  0  0  0  0  0  0
    2.0281    0.9485   -3.7207 C   0  0  0  0  0  0  0  0  0  0  0  0
    3.1772    0.2697   -3.0230 C   0  0  0  0  0  0  0  0  0  0  0  0
    5.5168   -0.2796    0.0399 C   0  0  0  0  0  0  0  0  0  0  0  0
    9.8921    4.7929    0.3509 H   0  0  0  0  0  0  0  0  0  0  0  0
    8.4984    1.8068   -1.3201 H   0  0  0  0  0  0  0  0  0  0  0  0
   10.1027    1.8305   -2.1103 H   0  0  0  0  0  0  0  0  0  0  0  0
   10.9644    0.2612   -0.3567 H   0  0  0  0  0  0  0  0  0  0  0  0
    9.7077   -0.3644   -1.4134 H   0  0  0  0  0  0  0  0  0  0  0  0
    9.4287   -1.0010    1.0287 H   0  0  0  0  0  0  0  0  0  0  0  0
    9.5259    0.6951    1.4850 H   0  0  0  0  0  0  0  0  0  0  0  0
    8.2853   -2.0166   -0.9945 H   0  0  0  0  0  0  0  0  0  0  0  0
    6.5693   -3.2304   -2.1845 H   0  0  0  0  0  0  0  0  0  0  0  0
    4.2158   -2.6299   -1.9751 H   0  0  0  0  0  0  0  0  0  0  0  0
   -0.6999    0.2167   -4.1597 H   0  0  0  0  0  0  0  0  0  0  0  0
   -2.9976    1.4570   -3.3085 H   0  0  0  0  0  0  0  0  0  0  0  0
   -4.6040    0.9466   -1.2683 H   0  0  0  0  0  0  0  0  0  0  0  0
   -0.7690   -1.0237   -0.4688 H   0  0  0  0  0  0  0  0  0  0  0  0
   -4.2268   -3.1286    0.1368 H   0  0  0  0  0  0  0  0  0  0  0  0
   -6.4649   -3.9805    0.0221 H   0  0  0  0  0  0  0  0  0  0  0  0
   -8.4083   -2.5368    0.4732 H   0  0  0  0  0  0  0  0  0  0  0  0
   -9.4001    1.6117    1.7313 H   0  0  0  0  0  0  0  0  0  0  0  0
   -7.7072    1.4909    2.3228 H   0  0  0  0  0  0  0  0  0  0  0  0
   -8.0751    3.3056    0.6344 H   0  0  0  0  0  0  0  0  0  0  0  0
   -6.8761    2.1406    0.0098 H   0  0  0  0  0  0  0  0  0  0  0  0
   -8.6019    0.9397   -1.2503 H   0  0  0  0  0  0  0  0  0  0  0  0
   -8.2753    2.6527   -1.7404 H   0  0  0  0  0  0  0  0  0  0  0  0
  -11.3039    3.7301    0.3179 H   0  0  0  0  0  0  0  0  0  0  0  0
   -5.6728    0.7155    1.2030 H   0  0  0  0  0  0  0  0  0  0  0  0
    0.4324   -1.4202    4.3903 H   0  0  0  0  0  0  0  0  0  0  0  0
    1.7762   -3.3202    2.9218 H   0  0  0  0  0  0  0  0  0  0  0  0
    3.3711   -3.0919    0.8269 H   0  0  0  0  0  0  0  0  0  0  0  0
    1.0315    0.6060    1.1217 H   0  0  0  0  0  0  0  0  0  0  0  0
   -2.1922   -0.9320    5.1769 H   0  0  0  0  0  0  0  0  0  0  0  0
   -2.4623    0.7073    4.3717 H   0  0  0  0  0  0  0  0  0  0  0  0
   -4.3567   -0.4879    3.6288 H   0  0  0  0  0  0  0  0  0  0  0  0
   -3.3672   -2.0471    3.5402 H   0  0  0  0  0  0  0  0  0  0  0  0
    2.1541    2.0654   -3.6903 H   0  0  0  0  0  0  0  0  0  0  0  0
    1.9039    0.5971   -4.7673 H   0  0  0  0  0  0  0  0  0  0  0  0
    4.0481    0.9531   -2.9139 H   0  0  0  0  0  0  0  0  0  0  0  0
    3.4848   -0.6497   -3.5637 H   0  0  0  0  0  0  0  0  0  0  0  0
    5.2050    0.5589    0.6722 H   0  0  0  0  0  0  0  0  0  0  0  0
  1  2  2  0
  2  3  1  0
  2  4  1  0
  4  5  1  0
  5  6  1  0
  6  7  1  0
  7  8  1  0
  8  9  2  0
  9 10  1  0
 10 11  2  0
 11 12  1  0
 12 13  1  0
 13 14  1  0
 14 15  2  0
 15 16  1  0
 16 17  2  0
 17 18  1  0
 18 19  2  0
 19 20  1  0
 20 21  2  0
 21 22  1  0
 21 23  1  0
 23 24  1  0
 24 25  2  0
 25 26  1  0
 26 27  2  0
 27 28  1  0
 28 29  1  0
 29 30  1  0
 30 31  1  0
 31 32  1  0
 32 33  1  0
 33 34  2  0
 33 35  1  0
 28 36  2  0
 23 37  2  0
 37 38  1  0
 38 39  2  0
 39 40  1  0
 40 41  2  0
 41 42  1  0
 42 43  2  0
 43 44  1  0
 44 45  1  0
 39 46  1  0
 46 47  1  0
 16 48  1  0
 48 49  1  0
 12 50  2  0
 50  8  1  0
 44 13  2  0
 49 14  1  0
 22 18  1  0
 36 24  1  0
 47 37  1  0
 45 41  1  0
  3 51  1  0
  4 52  1  0
  4 53  1  0
  5 54  1  0
  5 55  1  0
  6 56  1  0
  6 57  1  0
  9 58  1  0
 10 59  1  0
 11 60  1  0
 17 61  1  0
 19 62  1  0
 20 63  1  0
 22 64  1  0
 25 65  1  0
 26 66  1  0
 27 67  1  0
 30 68  1  0
 30 69  1  0
 31 70  1  0
 31 71  1  0
 32 72  1  0
 32 73  1  0
 35 74  1  0
 36 75  1  0
 40 76  1  0
 42 77  1  0
 43 78  1  0
 45 79  1  0
 46 80  1  0
 46 81  1  0
 47 82  1  0
 47 83  1  0
 48 84  1  0
 48 85  1  0
 49 86  1  0
 49 87  1  0
 50 88  1  0
M  END
