38

C         -5.52220       -2.84330       -1.86340
O         -5.50960       -1.73470       -0.99920
C         -4.30990       -1.20650       -0.64150
C         -3.07340       -1.66550       -1.06430
C         -1.90670       -1.05400       -0.63660
C         -1.95810        0.03160        0.22760
C         -0.74460        0.66730        0.68320
C         -0.49830        1.69910        1.56180
N          0.83460        1.90620        1.65070
C          1.37300        1.02580        0.84770
C          2.73800        0.85420        0.60170
C          3.91790        0.70290        0.38500
C          5.29640        0.54130        0.14710
C          6.22640        1.20540        0.95080
C          7.57760        1.04500        0.71570
C          8.01590        0.22910       -0.31620
C          7.09630       -0.43090       -1.11660
C          5.74220       -0.28060       -0.89060
O          0.46040        0.24100        0.22910
C         -3.20410        0.50470        0.65920
C         -4.37160       -0.09660        0.23650
O         -5.62530        0.28940        0.59670
C         -5.76350        1.38890        1.46150
H         -5.07420       -2.60420       -2.83360
H         -6.57270       -3.09250       -2.00460
H         -5.00280       -3.70230       -1.42560
H         -3.00370       -2.50800       -1.73350
H         -0.95140       -1.42380       -0.97440
H         -1.18320        2.29470        2.12860
H          5.87500        1.83890        1.75160
H          8.29500        1.55820        1.33920
H          9.07370        0.10770       -0.49660
H          7.43860       -1.06570       -1.92090
H          5.01960       -0.79140       -1.51010
H         -3.23380        1.34910        1.32670
H         -5.28880        1.20250        2.43060
H         -5.34750        2.30210        1.02290
H         -6.83540        1.51510        1.60480
