41

N          7.60890       -5.19200        0.01640
C          6.66890       -4.53810        0.10210
C          5.51530       -3.73680        0.20650
C          4.57000       -3.73160       -0.82510
C          3.44320       -2.95340       -0.72010
C          3.23220       -2.15270        0.41630
N          2.20390       -1.26090        0.49940
N          1.08160       -1.55870       -0.02260
C          0.13130       -0.58160       -0.07940
C         -1.12430       -0.95350       -0.57830
C         -2.14520       -0.04340       -0.70520
C         -1.94420        1.30430       -0.32650
C         -0.68280        1.68240        0.19380
C          0.32140        0.75510        0.30810
C         -0.43260        3.10620        0.61360
C         -1.74390        3.78350        0.98170
C         -2.71500        3.61530       -0.17800
N         -2.95270        2.21460       -0.43380
C         -4.18820        1.87110       -1.09650
C         -4.57990        0.43630       -0.77300
C         -3.47290       -0.48660       -1.25930
C          4.19450       -2.15180        1.43900
C          5.31380       -2.94110        1.34150
H          4.73290       -4.34930       -1.69690
H          2.70380       -2.92900       -1.50690
H         -1.27560       -1.98210       -0.86880
H          1.28610        1.04140        0.70060
H          0.04150        3.64920       -0.21060
H          0.25990        3.12370        1.45660
H         -1.59230        4.84330        1.18820
H         -2.16400        3.31370        1.87310
H         -3.67380        4.08590        0.05970
H         -2.31140        4.10910       -1.07500
H         -4.08910        1.99230       -2.18580
H         -4.96350        2.56210       -0.75230
H         -4.69940        0.33150        0.30690
H         -5.52930        0.19390       -1.25130
H         -3.67040       -1.51650       -0.95830
H         -3.43390       -0.46710       -2.35330
H          4.02480       -1.53690        2.30970
H          6.05000       -2.95170        2.13240
