33

N         -4.64770       -1.08690       -1.83160
C         -3.54390       -0.88440       -1.57870
C         -2.20650       -0.66050       -1.27790
C         -1.20940       -1.59200       -1.29920
N         -1.23670       -2.88950       -1.62960
N         -0.00290       -0.99270       -0.92130
C          1.22010       -1.59590       -0.80100
O          1.36200       -2.79060       -1.02820
C          2.29540       -0.68920       -0.38950
C          3.58600       -1.19860       -0.24090
C          4.61980       -0.36980        0.14210
C          4.38140        0.97890        0.38340
C          3.10900        1.49450        0.24130
C          2.05590        0.66910       -0.14610
C          0.70850        1.24890       -0.28070
O          0.41810        2.41050       -0.07680
N         -0.23610        0.34940       -0.67390
C         -1.65560        0.66770       -0.81230
C         -2.23630        1.11220        0.49400
C         -2.15680        0.47170        1.69430
C         -2.81990        1.16930        2.72580
C         -3.39190        2.32020        2.28900
S         -3.12650        2.58420        0.61520
H         -2.11150       -3.32460       -1.85800
H         -0.37180       -3.41090       -1.54870
H          3.74500       -2.24860       -0.43410
H          5.61610       -0.76960        0.25470
H          5.19340        1.62400        0.68280
H          2.89530        2.53670        0.42340
H         -1.78250        1.46920       -1.55290
H         -1.64410       -0.46350        1.84070
H         -2.86820        0.82520        3.74310
H         -3.95770        3.03590        2.85140
