41

C         -3.97940       -1.65140       -1.75510
C         -3.78620       -0.22370       -1.23850
N         -3.02470       -0.17540       -0.01110
C         -3.79550       -0.22590        1.21050
C         -4.17500        1.16500        1.72430
C         -1.65770       -0.08750       -0.00590
C         -0.94630        0.14030        1.18190
C          0.44000        0.22520        1.20690
C          1.16190        0.45190        2.41880
C          2.51130        0.53900        2.42960
C          3.27300        0.40970        1.22890
C          4.66140        0.49650        1.21720
C          5.36350        0.36540        0.01980
C          6.77340        0.45670        0.02480
N          7.91820        0.53070        0.02860
C          4.69280        0.14550       -1.18260
C          3.30490        0.05270       -1.20440
C          2.57500       -0.17300       -2.41040
C          1.22550       -0.26000       -2.40950
C          0.47170       -0.12820       -1.20300
C         -0.91420       -0.22170       -1.18830
C          1.17580        0.09490        0.00460
C          2.58240        0.18560        0.00970
H         -4.50700       -2.25230       -1.01800
H         -4.55980       -1.64180       -2.67400
H         -3.01940       -2.12200       -1.95040
H         -4.76530        0.22410       -1.04560
H         -3.29690        0.38990       -1.99900
H         -4.70720       -0.79620        1.01050
H         -3.23710       -0.77130        1.97520
H         -4.76950        1.69310        0.98230
H         -4.75710        1.08050        2.63830
H         -3.28530        1.75520        1.92710
H         -1.46480        0.26650        2.11850
H          0.59830        0.55190        3.33610
H          3.04650        0.70950        3.35310
H          5.20120        0.66640        2.13800
H          5.25660        0.04700       -2.09940
H          3.13430       -0.27300       -3.32990
H          0.68610       -0.43120       -3.33090
H         -1.40540       -0.41280       -2.12870
