27

C         -4.99480        0.29390        0.04020
N         -3.71370        0.89830        0.29330
C         -2.50870        0.35030       -0.01460
C         -2.42920       -0.89920       -0.70050
C         -1.23250       -1.45180       -1.02340
C         -0.01910       -0.79880       -0.68630
N          1.14070       -1.35330       -1.00910
C          2.25190       -0.69850       -0.66910
C          3.51260       -1.25010       -0.99230
C          4.65640       -0.59070       -0.65060
Cl         6.19420       -1.25970       -1.04300
C          4.59700        0.65400        0.03190
Cl         6.06590        1.45190        0.44360
C          3.39820        1.21410        0.35910
C          2.18900        0.55870        0.02060
N          1.02750        1.11730        0.34620
C         -0.08840        0.46340        0.00630
C         -1.34080        1.00560        0.32560
H         -5.77560        0.96070        0.39720
H         -5.09620       -0.66530        0.55800
H         -5.14660        0.13020       -1.03050
H         -3.69500        1.76020        0.81160
H         -3.34200       -1.40970       -0.96380
H         -1.16750       -2.39600       -1.54100
H          3.54180       -2.19510       -1.51020
H          3.34120        2.15790        0.87680
H         -1.36650        1.95140        0.84500
