36

C         -5.77930       -0.20890       -0.06660
N         -4.64040        0.64690        0.15680
C         -4.86990        2.03810        0.46120
C         -3.37270        0.15220        0.08700
C         -2.24830        0.99200        0.19460
C         -0.97060        0.49750        0.12410
C         -0.72560       -0.87260       -0.05790
C          0.56790       -1.46840       -0.14060
C          1.82250       -0.94960       -0.07690
O          2.86070       -1.87270       -0.19980
C          4.03470       -1.20700       -0.11550
C          5.31470       -1.72280       -0.18570
C          6.36180       -0.81620       -0.06970
C          6.16740        0.54630        0.10840
C          4.87810        1.06800        0.17940
O          4.64320        2.37820        0.35070
C          3.82300        0.16200        0.06370
C          2.39470        0.39400        0.09670
O          1.84830        1.48860        0.23960
C         -1.84960       -1.71050       -0.16460
C         -3.12910       -1.22240       -0.09600
H         -5.67910       -0.75030       -1.01060
H         -5.90010       -0.93650        0.74310
H         -6.68230        0.39440       -0.12020
H         -5.93270        2.20530        0.61830
H         -4.53660        2.68700       -0.35530
H         -4.34340        2.32770        1.37400
H         -2.37590        2.05360        0.32590
H         -0.13890        1.17660        0.20750
H          0.56070       -2.54510       -0.28150
H          5.49070       -2.77640       -0.32370
H          7.37420       -1.18850       -0.12060
H          7.00820        1.21520        0.19380
H          3.67660        2.51230        0.36990
H         -1.70240       -2.77270       -0.30190
H         -3.95040       -1.91570       -0.17480
