41

C         -0.52140       -1.79850        1.84060
C         -1.09020       -1.18940        0.77110
C         -2.49660       -0.97400        0.50790
C         -3.43450       -1.05140        1.54280
C         -4.77690       -0.84240        1.30120
C         -5.22010       -0.54830        0.02160
C         -4.30430       -0.46540       -1.01380
C         -2.96040       -0.67520       -0.77610
C          0.01250       -0.71440       -0.14780
C         -0.05180        0.77440       -0.37680
C          0.04650        1.63200        0.71190
C         -0.01390        3.00110        0.53450
C         -0.17470        3.53170       -0.73460
C         -0.27370        2.68450       -1.82340
C         -0.21230        1.31340       -1.64510
C          1.26800       -1.13220        0.58360
C          2.60270       -0.85450        0.09950
C          3.71070       -0.98190        0.94430
C          4.98580       -0.71610        0.48900
C          5.19160       -0.31240       -0.82060
C          4.10560       -0.17690       -1.66910
C          2.82840       -0.44450       -1.21790
C          0.90390       -1.76580        1.72640
H         -1.03750       -2.26650        2.66010
H         -3.10000       -1.26180        2.54720
H         -5.48430       -0.90470        2.11550
H         -6.27070       -0.38410       -0.16610
H         -4.64140       -0.23750       -2.01490
H         -2.26510       -0.61770       -1.59850
H         -0.04960       -1.24180       -1.10450
H          0.17140        1.21700        1.70140
H          0.06450        3.65740        1.38890
H         -0.22230        4.60170       -0.87380
H         -0.39910        3.09080       -2.81660
H         -0.28950        0.66340       -2.50680
H          3.56510       -1.28000        1.97120
H          5.82700       -0.81970        1.15940
H          6.19000       -0.10380       -1.17560
H          4.25630        0.13810       -2.69180
H          1.99810       -0.33900       -1.89780
H          1.56240       -2.20600        2.45390
