36

C         -4.98680        0.42230        0.09360
C         -3.68750       -0.31790        0.03620
C         -3.56350       -1.56260        0.64160
C         -2.37410       -2.25870        0.60450
C         -1.26680       -1.70850       -0.03670
C         -0.00460       -2.46970       -0.04510
O          0.06200       -3.65370        0.21060
C          1.22790       -1.72000       -0.42280
C          1.74970       -0.71550        0.29030
C          1.16670       -0.16210        1.55530
O          0.17480       -0.50610        2.15270
N          2.00840        0.85220        1.94180
C          3.07930        0.99540        1.07620
C          4.13270        1.88430        1.12510
C          5.08420        1.81210        0.11500
C          4.98070        0.88130       -0.90720
C          3.91890       -0.01150       -0.95380
C          2.96360        0.04700        0.04370
C         -1.38970       -0.46550       -0.65420
C         -2.58380        0.23350       -0.62650
C         -2.68950        1.56970       -1.29680
H         -5.35830        0.62560       -0.91050
H         -5.73570       -0.15350        0.63080
H         -4.85840        1.37990        0.59740
H         -4.41570       -1.98800        1.15240
H         -2.27360       -3.22240        1.07910
H          1.75250       -2.10020       -1.29070
H          1.87130        1.39530        2.77900
H          4.21800        2.61010        1.91920
H          5.92040        2.49480        0.13000
H          5.73770        0.84940       -1.67580
H          3.84420       -0.73670       -1.74950
H         -0.54120       -0.03940       -1.17200
H         -2.95600        2.34020       -0.57400
H         -1.74560        1.84360       -1.76130
H         -3.46240        1.55500       -2.06480
