35

C          6.74490       -1.07570        0.15880
C          5.71680        0.02410        0.35510
O          4.41770       -0.49000        0.03860
C          3.57590        0.29820       -0.61500
O          3.80780        1.41780       -0.98150
C          2.24910       -0.40630       -0.82970
S          1.33710       -0.26070        0.75670
C         -0.34110       -0.04970        0.26970
N         -1.03410        0.65900        1.14250
C         -2.31160        0.93450        0.95640
C         -2.96200        1.73510        2.03550
C         -3.00090        0.52220       -0.19690
C         -4.44550        0.84090       -0.43920
C         -5.34220       -0.28520        0.08420
C         -2.29240       -0.26830       -1.10180
C         -2.92320       -0.77430       -2.26610
N         -3.43980       -1.18140       -3.20370
C         -0.93950       -0.59660       -0.87660
C         -0.30490       -1.49730       -1.75390
N          0.18010       -2.26500       -2.45510
H          7.72780       -0.70700        0.43720
H          6.49710       -1.93250        0.77940
H          6.76680       -1.39260       -0.88070
H          5.91970        0.88550       -0.28920
H          5.69440        0.35680        1.39800
H          1.68940        0.10640       -1.60840
H          2.39900       -1.45770       -1.06760
H         -3.85870        1.24010        2.40140
H         -3.24400        2.71790        1.65980
H         -2.25680        1.85970        2.85160
H         -4.70820        1.77700        0.05430
H         -4.61880        0.95770       -1.51160
H         -5.13730       -1.21100       -0.44900
H         -6.38710       -0.02720       -0.06560
H         -5.17510       -0.45430        1.14580
