48

C         -6.70870       -0.07630       -1.74210
C         -6.27140       -1.05990       -0.65370
N         -5.34730       -0.49860        0.30510
C         -5.91510        0.20380        1.43620
C         -5.85730        1.72640        1.29670
C         -3.99960       -0.46950        0.06320
C         -3.45020       -0.91230       -1.15330
C         -2.09440       -0.91310       -1.37830
C         -1.19100       -0.46850       -0.40740
C          0.22980       -0.46430       -0.63650
C          0.93180       -0.84940       -1.75770
C          2.31570       -0.71510       -1.63320
C          2.70720       -0.22390       -0.41070
C          4.05290        0.02520        0.02520
N          5.02640       -0.21630       -0.79200
C          6.30230        0.02200       -0.36940
C          7.36230       -0.23610       -1.24930
C          8.65940       -0.00770       -0.85420
C          8.94120        0.48160        0.42130
C          7.91470        0.74230        1.30060
C          6.59220        0.51740        0.91810
C          5.49240        0.78990        1.83870
O          5.58650        1.21610        2.97100
N          4.24770        0.50970        1.29420
S          1.32450        0.07750        0.60170
C         -1.73260       -0.02410        0.80270
C         -3.08610       -0.01860        1.03330
H         -7.32090       -0.58920       -2.47950
H         -7.29400        0.73350       -1.31450
H         -5.84290        0.35130       -2.24110
H         -7.15450       -1.40460       -0.10740
H         -5.81450       -1.94150       -1.11010
H         -6.95770       -0.10680        1.53210
H         -5.40240       -0.10280        2.35370
H         -4.83230        2.06080        1.16130
H         -6.26250        2.19370        2.19070
H         -6.43840        2.05620        0.43990
H         -4.08790       -1.25640       -1.95050
H         -1.72930       -1.26140       -2.33210
H          0.45880       -1.21920       -2.64900
H          3.02940       -0.96250       -2.39690
H          7.12890       -0.61420       -2.23200
H          9.47150       -0.20890       -1.53790
H          9.96540        0.65490        0.71570
H          8.10090        1.12160        2.29420
H          3.44620        0.68050        1.89130
H         -1.06630        0.32550        1.57910
H         -3.43050        0.33140        1.99180
