32

O          2.02650       -0.80630        3.04530
C          1.91280       -0.50050        1.86950
C          0.61900       -0.43660        1.21430
C          0.46730       -0.13060       -0.09600
N         -0.69170       -0.05790       -0.80870
C         -2.01140       -0.01820       -0.42760
C         -2.97510       -0.37710       -1.38250
C         -4.31350       -0.35280       -1.07190
C         -4.71400        0.04860        0.20030
N         -6.10910        0.07320        0.53070
O         -6.41750        0.41220        1.65510
O         -6.89950       -0.24620       -0.33430
C         -3.77330        0.44450        1.14600
C         -2.43210        0.41290        0.83650
C          1.65340        0.09190       -0.98250
O          1.48700        0.24780       -2.18010
C          2.96600        0.10350       -0.33380
C          4.10070        0.38750       -1.09240
C          5.35050        0.40450       -0.50040
C          5.47930        0.13150        0.85310
C          4.35840       -0.15810        1.61380
C          3.09670       -0.17260        1.03330
H         -0.22480       -0.68500        1.83930
H         -0.50790       -0.02350       -1.81260
H         -2.65360       -0.68330       -2.36670
H         -5.06340       -0.64000       -1.79270
H         -4.11270        0.78120        2.11360
H         -1.71260        0.76260        1.55710
H          3.97770        0.59470       -2.14500
H          6.22420        0.62910       -1.09330
H          6.45470        0.14240        1.31580
H          4.43840       -0.37930        2.66780
