39

C         -5.50500        0.75790        1.21550
C         -4.94610        0.90990       -0.20180
C         -3.46960        0.71230       -0.20660
C         -2.73790       -0.41200       -0.37370
C         -3.20030       -1.79870       -0.64440
C         -1.33520       -0.06570       -0.24240
C         -0.23070       -0.84070       -0.33020
C          1.05280       -0.24500       -0.15440
C          2.24440       -1.00050       -0.23300
O          2.08510       -2.32570       -0.48740
C          3.22430       -3.14580       -0.58580
C          3.47300       -0.38560       -0.05480
C          3.54850        0.98570        0.20320
O          4.70650        1.66290        0.38920
C          5.92990        0.97050        0.32590
C          2.38120        1.73840        0.28150
C          1.14730        1.13380        0.10570
C         -0.05980        1.98670        0.20190
O         -0.01930        3.17190        0.42350
N         -1.25430        1.29710        0.01450
C         -2.56300        1.84640        0.04880
O         -2.84040        2.99920        0.24150
H         -5.04760        1.49120        1.87460
H         -5.29700       -0.23690        1.60400
H         -6.58070        0.91520        1.21440
H         -5.42750        0.19190       -0.86870
H         -5.15790        1.91950       -0.55850
H         -4.27950       -1.82850       -0.76170
H         -2.73310       -2.18140       -1.55060
H         -2.91910       -2.45410        0.17920
H         -0.30060       -1.89600       -0.52920
H          3.79010       -3.16370        0.35100
H          2.84780       -4.14580       -0.79540
H          3.87900       -2.82930       -1.40390
H          4.37680       -0.96830       -0.11520
H          5.99640        0.19730        1.09840
H          6.69940        1.71980        0.50340
H          6.08820        0.51950       -0.65920
H          2.43410        2.79630        0.47990
