42

C         -7.80070       -0.05470        0.00390
C         -7.09840       -0.70620       -0.99620
C         -5.71610       -0.69970       -0.99290
C         -5.01200       -0.04560        0.01550
C         -3.54240       -0.03960        0.02190
C         -2.82380        0.14440       -1.15750
C         -1.44380        0.15350       -1.15080
C         -0.73410       -0.02170        0.03550
C          0.73430       -0.00760        0.04340
C          1.43620        0.63270        1.06290
C          2.81600        0.64890        1.06970
C          3.54250        0.02610        0.05700
C          5.01200        0.04650        0.06320
C          5.72050       -0.14570        1.24710
C          7.10270       -0.12720        1.25160
C          7.80030        0.08940        0.07510
C          7.10640        0.28420       -1.10740
C          5.72430        0.26010       -1.11480
C          2.84100       -0.61490       -0.96200
C          1.46110       -0.63170       -0.96860
C         -1.45310       -0.20790        1.21460
C         -2.83300       -0.21640        1.20790
C         -5.72890        0.60390        1.01800
C         -7.11120        0.60130        1.00990
H         -8.88070       -0.05830       -0.00060
H         -7.63120       -1.22310       -1.78140
H         -5.17370       -1.22340       -1.76690
H         -3.35530        0.30590       -2.08440
H         -0.90600        0.32260       -2.07260
H          0.89190        1.14290        1.84440
H          3.34100        1.17120        1.85660
H          5.18190       -0.33130        2.16520
H          7.63890       -0.28400        2.17640
H          8.88030        0.10630        0.07970
H          7.64550        0.45770       -2.02770
H          5.18810        0.42920       -2.03750
H          3.38600       -1.12430       -1.74370
H          0.93670       -1.15470       -1.75530
H         -0.92210       -0.37040        2.14160
H         -3.37140       -0.38500        2.12950
H         -5.19640        1.13140        1.79630
H         -7.65380        1.11480        1.79050
