38

C         -4.91800        1.17070       -0.50620
C         -3.84250        0.35820        0.20370
C         -3.63830       -1.00020       -0.46300
C         -2.65380       -1.88830        0.29750
N         -1.32870       -1.28430        0.38390
C         -0.97320       -0.68750        1.58130
O         -1.72590       -0.69440        2.53540
C          0.35800       -0.05790        1.63160
C          0.77020        0.57530        2.78660
C          2.02930        1.17350        2.85170
C          2.87300        1.13770        1.76960
C          2.48430        0.50050        0.57680
C          3.33640        0.43970       -0.56830
O          4.53940        1.03740       -0.42810
C          5.44110        1.02250       -1.51100
C          2.90150       -0.20240       -1.71140
C          1.63890       -0.78980       -1.75970
C          0.78980       -0.74990       -0.67350
C          1.20680       -0.10400        0.50800
C         -0.53600       -1.37300       -0.75120
O         -0.93980       -1.94640       -1.74400
H         -5.87180        0.64840       -0.47670
H         -5.04270        2.14000       -0.02930
H         -4.64890        1.33180       -1.54810
H         -4.12260        0.20940        1.24840
H         -2.90340        0.91730        0.19240
H         -4.59270       -1.52810       -0.51260
H         -3.27720       -0.86250       -1.48400
H         -2.54820       -2.84490       -0.21950
H         -2.99830       -2.04990        1.32020
H          0.09970        0.59570        3.63260
H          2.33740        1.66540        3.76190
H          3.84870        1.59590        1.81260
H          6.32430        1.55650       -1.16420
H          5.02650        1.53580       -2.38350
H          5.71980        0.00080       -1.78540
H          3.53000       -0.26040       -2.58560
H          1.30680       -1.28870       -2.65770
