34

C          6.54170        0.18490       -0.78850
O          5.54480        0.56770        0.12770
C          4.26150        0.18660       -0.10770
C          3.31700        0.60710        0.83160
C          1.98520        0.29070        0.68900
C          1.55330       -0.45480       -0.40970
N          0.22640       -0.81970       -0.59920
C         -0.92490       -0.19830       -0.24920
C         -1.06510        1.06180        0.24300
C         -2.33930        1.64130        0.58410
O         -2.45210        2.78960        0.99410
C         -3.53250        0.76800        0.41080
C         -4.78460        1.24340        0.77840
C         -5.91250        0.45730        0.61450
C         -5.80130       -0.81510        0.07390
C         -4.56170       -1.29900       -0.30070
C         -3.41970       -0.51710       -0.13330
C         -2.11540       -1.05460       -0.53160
O         -1.96960       -2.14160       -1.06710
C          2.50170       -0.90400       -1.32580
C          3.83930       -0.58690       -1.18500
H          6.64160       -0.90400       -0.84300
H          6.34280        0.58330       -1.78860
H          7.46880        0.61170       -0.40960
H          3.65890        1.18110        1.67770
H          1.28350        0.59180        1.44910
H          0.05920       -1.68440       -1.11120
H         -0.20860        1.70590        0.36990
H         -4.84980        2.23910        1.19180
H         -6.88040        0.83700        0.90680
H         -6.68100       -1.42780       -0.05510
H         -4.45160       -2.28600       -0.72500
H          2.18440       -1.50600       -2.16510
H          4.54040       -0.94890       -1.91990
