23

N          4.69560        2.04350        2.66310
C          3.80250        1.48140        2.21760
C          2.70150        0.77370        1.67620
C          2.44600       -0.54370        2.13290
C          1.39570       -1.25950        1.63710
C          0.55310       -0.68800        0.66080
N         -0.48290       -1.39500        0.17220
C         -1.23390       -0.81400       -0.73430
N         -2.28960       -1.51150       -1.24390
C         -3.15900       -1.02810       -2.19770
O         -4.07960       -1.67200       -2.62430
N         -2.88240        0.25710       -2.62070
C         -1.86410        1.11250       -2.22120
O         -1.75700        2.21370       -2.68950
C         -0.97760        0.51460       -1.19570
N          0.02480        1.20990       -0.72850
C          0.81100        0.63950        0.20110
C          1.89920        1.36150        0.72460
H          3.09940       -0.96840        2.88060
H          1.18370       -2.26280        1.97060
H         -2.44820       -2.45070       -0.89920
H         -3.51670        0.62380       -3.32360
H          2.07830        2.36280        0.36530
