26

N          3.87150        1.26790       -1.07670
C          2.70670        0.70030       -0.59670
C          1.47450        1.18790       -0.93730
C          0.29180        0.58470       -0.46010
N         -0.89030        1.08650       -0.79870
C         -1.97770        0.49270       -0.30240
C         -3.25630        0.99550       -0.63740
C         -4.36740        0.39050       -0.13470
F         -5.59030        0.85610       -0.44420
C         -4.26490       -0.73400        0.71900
F         -5.39440       -1.29320        1.18770
C         -3.05190       -1.24650        1.06430
C         -1.87380       -0.64590        0.56300
N         -0.68610       -1.14930        0.90530
C          0.39640       -0.55740        0.41350
C          1.67650       -1.06260        0.72400
C          2.80920       -0.48090        0.22340
N          4.06920       -0.95190        0.53930
H          3.74570        2.16310       -1.52430
H          4.66200        1.23980       -0.45130
H          1.37900        2.05920       -1.56710
H         -3.33290        1.85140       -1.28770
H         -2.97240       -2.10230        1.71440
H          1.73580       -1.93530        1.35620
H          4.07600       -1.85190        0.99480
H          4.76380       -0.86440       -0.18640
