49

C          3.57140        1.12030        1.35690
C          3.82900        0.82830       -0.12290
C          5.33560        0.85710       -0.38760
C          3.12680        1.87500       -0.99110
C          1.61530        1.85170       -0.85830
O          0.95280        2.86450       -0.95100
C          1.01420        0.53550       -0.65450
C          1.77470       -0.56320       -0.50730
C          3.27070       -0.54770       -0.50480
O          1.26980       -1.80730       -0.36140
C         -0.08170       -1.99100       -0.55820
C         -0.48870       -3.33640       -0.63890
C         -1.80040       -3.63380       -0.85480
C         -2.75510       -2.60640       -0.99880
C         -4.11450       -2.89800       -1.22310
C         -5.03810       -1.90060       -1.34900
C         -4.63720       -0.55520       -1.24900
O         -5.53950        0.45470       -1.36180
C         -3.31690       -0.23680       -1.03280
C         -2.34520       -1.24670       -0.90760
C         -0.97290       -0.95290       -0.68760
C         -0.49210        0.47130       -0.54910
C         -0.93130        1.02680        0.79140
C         -0.37690        0.55560        1.97780
C         -0.79920        1.10990        3.17290
C         -1.76130        2.10750        3.14440
C         -2.26520        2.49040        1.91130
N         -1.86380        1.96510        0.76920
H          2.50590        1.13160        1.57230
H          3.97860        2.09290        1.62310
H          4.04640        0.36800        1.98330
H          5.84150        0.10220        0.21030
H          5.74680        1.82970       -0.12900
H          5.54940        0.66420       -1.43660
H          3.47560        2.88090       -0.75130
H          3.35500        1.68880       -2.04530
H          3.62040       -0.82020       -1.50640
H          3.62460       -1.32060        0.18140
H          0.26220       -4.10260       -0.52840
H         -2.12510       -4.66180       -0.91850
H         -4.41800       -3.93250       -1.29440
H         -6.08120       -2.13320       -1.52160
H         -6.42180        0.09380       -1.51030
H         -3.05260        0.80330       -0.94040
H         -0.92950        1.11300       -1.32030
H          0.36490       -0.22960        1.96470
H         -0.38410        0.77000        4.11150
H         -2.11260        2.57020        4.05360
H         -3.02740        3.25430        1.82840
