44

C          5.31890        0.61420        1.56490
C          4.56080        1.11260        0.34200
O          3.17140        0.81210        0.42970
C          2.78960       -0.41360        0.02960
O          3.55580       -1.26030       -0.40200
C          1.37510       -0.61960        0.15730
C          0.75000       -1.78050       -0.21430
N          1.28910       -2.88930       -0.71210
N         -0.62290       -1.66300        0.00950
C         -1.58250       -2.61080       -0.22820
O         -1.28830       -3.70220       -0.69560
C         -2.93940       -2.18490        0.12710
C         -4.00040       -3.06770       -0.07840
C         -5.28720       -2.69580        0.24990
C         -5.53440       -1.43750        0.78830
C         -4.49350       -0.55580        0.99640
C         -3.18860       -0.91790        0.66960
C         -2.10140        0.05070        0.90130
O         -2.24350        1.16160        1.37470
N         -0.87360       -0.40800        0.53880
C          0.35250        0.38100        0.62220
C          0.28450        1.59800       -0.27220
C          0.59330        2.85580        0.22010
C          0.54690        3.95890       -0.61370
C          0.18630        3.81250       -1.94200
C         -0.12460        2.55750       -2.43710
C         -0.07220        1.45340       -1.60630
H          6.36110        0.91260        1.49550
H          4.88750        1.03270        2.47100
H          5.26490       -0.47050        1.61530
H          4.96750        0.65410       -0.56560
H          4.60970        2.20090        0.26340
H          2.29150       -2.87230       -0.84350
H          0.68830       -3.67160       -0.93260
H         -3.78180       -4.03830       -0.49710
H         -6.10400       -3.38300        0.08880
H         -6.54310       -1.15030        1.04420
H         -4.65630        0.42700        1.41200
H          0.50730        0.70410        1.65930
H          0.86890        2.96980        1.25720
H          0.78780        4.93680       -0.22390
H          0.14590        4.67460       -2.59130
H         -0.40700        2.43740       -3.47270
H         -0.31010        0.47410       -1.99930
