37

O         -4.34720       -2.81410        0.18560
C         -3.18370       -2.41710       -0.39940
C         -2.58500       -3.27410       -1.32060
C         -1.40150       -2.90280       -1.92870
C         -0.81230       -1.68460       -1.64940
C         -1.40710       -0.82250       -0.72630
N         -0.80040        0.33970       -0.31940
C         -0.23970        1.17410       -1.08910
C          0.49630        2.31480       -0.57560
C          0.72150        3.39540       -1.43350
C          1.33880        4.54950       -1.00110
C          1.75250        4.64920        0.31940
C          1.57560        3.58360        1.17880
C          0.96770        2.40560        0.74930
O          0.83020        1.43040        1.69090
C          1.09500        0.11880        1.39630
C          0.44260       -0.84900        2.15330
C          0.70590       -2.18640        1.93470
C          1.62740       -2.57110        0.97480
C          2.29930       -1.60600        0.24540
C          2.04460       -0.26350        0.45530
C         -2.58990       -1.20470       -0.09350
H         -4.64430       -2.13790        0.80640
H         -3.05710       -4.21890       -1.53520
H         -0.93390       -3.57250       -2.63520
H          0.12530       -1.40540       -2.10670
H         -0.31720        1.11600       -2.18410
H          0.37730        3.31910       -2.45530
H          1.49240        5.37110       -1.68380
H          2.22710        5.55160        0.67380
H          1.90920        3.63570        2.20390
H         -0.27820       -0.53200        2.88970
H          0.18360       -2.93490        2.51160
H          1.82290       -3.61770        0.79790
H          3.03120       -1.89740       -0.49390
H          2.57190        0.48990       -0.11360
H         -3.04040       -0.53170        0.62290
