
  xtb     03012221273D
 energy: -6.910112662361 gnorm: 0.000369318992 xtb: 6.4.1 (afa7bdf)
 32 36  0     0  0            999 V2000
    1.4922   -2.4448   -0.9460 F   0  0  0  0  0  0  0  0  0  0  0  0
    1.5264   -1.6346    0.1797 B   0  0  0  0  0  4  0  0  0  0  0  0
    1.5389   -2.3694    1.3566 F   0  0  0  0  0  0  0  0  0  0  0  0
    0.3381   -0.6782    0.1727 N   0  0  0  0  0  0  0  0  0  0  0  0
    0.7919    0.5956    0.1225 C   0  0  0  0  0  0  0  0  0  0  0  0
    0.0324    1.6851    0.1036 N   0  0  0  0  0  0  0  0  0  0  0  0
   -1.3083    1.4543    0.1389 C   0  0  0  0  0  0  0  0  0  0  0  0
   -2.1993    2.5310    0.1232 C   0  0  0  0  0  0  0  0  0  0  0  0
   -3.5684    2.3341    0.1582 C   0  0  0  0  0  0  0  0  0  0  0  0
   -4.1018    1.0687    0.2099 C   0  0  0  0  0  0  0  0  0  0  0  0
   -3.2610   -0.0595    0.2283 C   0  0  0  0  0  0  0  0  0  0  0  0
   -3.7441   -1.3835    0.2809 C   0  0  0  0  0  0  0  0  0  0  0  0
   -2.8772   -2.4524    0.2970 C   0  0  0  0  0  0  0  0  0  0  0  0
   -1.5090   -2.2525    0.2619 C   0  0  0  0  0  0  0  0  0  0  0  0
   -0.9971   -0.9621    0.2097 C   0  0  0  0  0  0  0  0  0  0  0  0
   -1.8616    0.1463    0.1923 C   0  0  0  0  0  0  0  0  0  0  0  0
    2.2461    0.5842    0.0930 C   0  0  0  0  0  0  0  0  0  0  0  0
    3.1200    1.6556    0.0398 C   0  0  0  0  0  0  0  0  0  0  0  0
    4.4709    1.3964    0.0198 C   0  0  0  0  0  0  0  0  0  0  0  0
    4.9326    0.0891    0.0525 C   0  0  0  0  0  0  0  0  0  0  0  0
    4.0388   -0.9528    0.1052 C   0  0  0  0  0  0  0  0  0  0  0  0
    2.7244   -0.6884    0.1244 N   0  0  0  0  0  4  0  0  0  0  0  0
   -1.7924    3.5258    0.0829 H   0  0  0  0  0  0  0  0  0  0  0  0
   -4.2261    3.1872    0.1448 H   0  0  0  0  0  0  0  0  0  0  0  0
   -5.1680    0.9275    0.2369 H   0  0  0  0  0  0  0  0  0  0  0  0
   -4.8067   -1.5486    0.3086 H   0  0  0  0  0  0  0  0  0  0  0  0
   -3.2660   -3.4561    0.3374 H   0  0  0  0  0  0  0  0  0  0  0  0
   -0.8193   -3.0787    0.2739 H   0  0  0  0  0  0  0  0  0  0  0  0
    2.7345    2.6593    0.0151 H   0  0  0  0  0  0  0  0  0  0  0  0
    5.1730    2.2125   -0.0214 H   0  0  0  0  0  0  0  0  0  0  0  0
    5.9911   -0.1102    0.0367 H   0  0  0  0  0  0  0  0  0  0  0  0
    4.3550   -1.9808    0.1318 H   0  0  0  0  0  0  0  0  0  0  0  0
  1  2  1  0  0  0  0
  2  3  1  0  0  0  0
  2  4  1  0  0  0  0
  4  5  1  0  0  0  0
  5  6  2  0  0  0  0
  6  7  1  0  0  0  0
  7  8  2  0  0  0  0
  8  9  1  0  0  0  0
  9 10  2  0  0  0  0
 10 11  1  0  0  0  0
 11 12  2  0  0  0  0
 12 13  1  0  0  0  0
 13 14  2  0  0  0  0
 14 15  1  0  0  0  0
 15 16  2  0  0  0  0
  5 17  1  0  0  0  0
 17 18  2  0  0  0  0
 18 19  1  0  0  0  0
 19 20  2  0  0  0  0
 20 21  1  0  0  0  0
 21 22  2  0  0  0  0
 22  2  1  0  0  0  0
 15  4  1  0  0  0  0
 22 17  1  0  0  0  0
 16  7  1  0  0  0  0
 16 11  1  0  0  0  0
  8 23  1  0  0  0  0
  9 24  1  0  0  0  0
 10 25  1  0  0  0  0
 12 26  1  0  0  0  0
 13 27  1  0  0  0  0
 14 28  1  0  0  0  0
 18 29  1  0  0  0  0
 19 30  1  0  0  0  0
 20 31  1  0  0  0  0
 21 32  1  0  0  0  0
M  CHG  1   2  -1
M  CHG  1  22   1
M  END
