
  xtb     03012221293D
 energy: -5.642523554281 gnorm: 0.000337152144 xtb: 6.4.1 (afa7bdf)
 26 28  0     0  0            999 V2000
   -2.6937   -2.1335    0.2425 N   0  0  0  0  0  0  0  0  0  0  0  0
   -2.4172   -0.7962    0.3579 C   0  0  0  0  0  0  0  0  0  0  0  0
   -3.4450    0.0992    0.6728 C   0  0  0  0  0  0  0  0  0  0  0  0
   -3.1983    1.4424    0.7987 C   0  0  0  0  0  0  0  0  0  0  0  0
   -1.9204    1.9282    0.6144 C   0  0  0  0  0  0  0  0  0  0  0  0
   -0.8743    1.0779    0.3013 C   0  0  0  0  0  0  0  0  0  0  0  0
   -1.1055   -0.3008    0.1661 C   0  0  0  0  0  0  0  0  0  0  0  0
    0.0022   -1.2047   -0.1697 C   0  0  0  0  0  0  0  0  0  0  0  0
   -0.1536   -2.4030   -0.3094 O   0  0  0  0  0  0  0  0  0  0  0  0
    1.3495   -0.6321   -0.3426 C   0  0  0  0  0  0  0  0  0  0  0  0
    2.4157   -1.4636   -0.6488 C   0  0  0  0  0  0  0  0  0  0  0  0
    3.6826   -0.9529   -0.8134 C   0  0  0  0  0  0  0  0  0  0  0  0
    3.9040    0.4042   -0.6741 C   0  0  0  0  0  0  0  0  0  0  0  0
    2.8566    1.2431   -0.3713 C   0  0  0  0  0  0  0  0  0  0  0  0
    1.5750    0.7420   -0.2028 C   0  0  0  0  0  0  0  0  0  0  0  0
    0.4682    1.6514    0.1177 C   0  0  0  0  0  0  0  0  0  0  0  0
    0.6564    2.8470    0.2287 O   0  0  0  0  0  0  0  0  0  0  0  0
   -3.6135   -2.5429    0.3341 H   0  0  0  0  0  0  0  0  0  0  0  0
   -1.9710   -2.7976   -0.0049 H   0  0  0  0  0  0  0  0  0  0  0  0
   -4.4387   -0.2860    0.8174 H   0  0  0  0  0  0  0  0  0  0  0  0
   -4.0008    2.1188    1.0420 H   0  0  0  0  0  0  0  0  0  0  0  0
   -1.7105    2.9802    0.7106 H   0  0  0  0  0  0  0  0  0  0  0  0
    2.2258   -2.5184   -0.7539 H   0  0  0  0  0  0  0  0  0  0  0  0
    4.5018   -1.6110   -1.0508 H   0  0  0  0  0  0  0  0  0  0  0  0
    4.8953    0.8049   -0.8023 H   0  0  0  0  0  0  0  0  0  0  0  0
    3.0094    2.3033   -0.2600 H   0  0  0  0  0  0  0  0  0  0  0  0
  1  2  1  0  0  0  0
  2  3  2  0  0  0  0
  3  4  1  0  0  0  0
  4  5  2  0  0  0  0
  5  6  1  0  0  0  0
  6  7  2  0  0  0  0
  7  8  1  0  0  0  0
  8  9  2  0  0  0  0
  8 10  1  0  0  0  0
 10 11  2  0  0  0  0
 11 12  1  0  0  0  0
 12 13  2  0  0  0  0
 13 14  1  0  0  0  0
 14 15  2  0  0  0  0
 15 16  1  0  0  0  0
 16 17  2  0  0  0  0
  7  2  1  0  0  0  0
 15 10  1  0  0  0  0
 16  6  1  0  0  0  0
  1 18  1  0  0  0  0
  1 19  1  0  0  0  0
  3 20  1  0  0  0  0
  4 21  1  0  0  0  0
  5 22  1  0  0  0  0
 11 23  1  0  0  0  0
 12 24  1  0  0  0  0
 13 25  1  0  0  0  0
 14 26  1  0  0  0  0
M  END
