
  xtb     03012221313D
 energy: -7.501810637663 gnorm: 0.000395272868 xtb: 6.4.1 (afa7bdf)
 37 40  0     0  0            999 V2000
   -1.9981   -2.5142    1.1112 C   0  0  0  0  0  0  0  0  0  0  0  0
   -1.6790   -1.1823    0.5345 C   0  0  0  0  0  0  0  0  0  0  0  0
   -0.4211   -0.8005    0.5886 N   0  0  0  0  0  0  0  0  0  0  0  0
   -0.0768    0.3821    0.1044 N   0  0  0  0  0  0  0  0  0  0  0  0
    1.2461    0.8185    0.0847 C   0  0  0  0  0  0  0  0  0  0  0  0
    1.5207    2.1709   -0.0603 C   0  0  0  0  0  0  0  0  0  0  0  0
    2.8156    2.6606   -0.0853 C   0  0  0  0  0  0  0  0  0  0  0  0
    3.8801    1.8105    0.0342 C   0  0  0  0  0  0  0  0  0  0  0  0
    3.6766    0.4229    0.1814 C   0  0  0  0  0  0  0  0  0  0  0  0
    4.7644   -0.4708    0.2885 C   0  0  0  0  0  0  0  0  0  0  0  0
    4.5554   -1.8130    0.4098 C   0  0  0  0  0  0  0  0  0  0  0  0
    3.2580   -2.3217    0.4309 C   0  0  0  0  0  0  0  0  0  0  0  0
    2.1881   -1.4783    0.3348 C   0  0  0  0  0  0  0  0  0  0  0  0
    2.3536   -0.0895    0.2107 C   0  0  0  0  0  0  0  0  0  0  0  0
   -1.0813    1.4483   -0.3456 B   0  0  0  0  0  4  0  0  0  0  0  0
   -1.1691    2.4292    0.6398 F   0  0  0  0  0  0  0  0  0  0  0  0
   -0.6769    1.9789   -1.5710 F   0  0  0  0  0  0  0  0  0  0  0  0
   -2.4491    0.8360   -0.5336 N   0  0  0  0  0  4  0  0  0  0  0  0
   -3.3759    1.6132   -1.1106 C   0  0  0  0  0  0  0  0  0  0  0  0
   -4.6591    1.1566   -1.2670 C   0  0  0  0  0  0  0  0  0  0  0  0
   -4.9807   -0.1116   -0.8142 C   0  0  0  0  0  0  0  0  0  0  0  0
   -4.0241   -0.8932   -0.2204 C   0  0  0  0  0  0  0  0  0  0  0  0
   -2.7145   -0.4170   -0.0719 C   0  0  0  0  0  0  0  0  0  0  0  0
   -2.7899   -2.4388    1.8566 H   0  0  0  0  0  0  0  0  0  0  0  0
   -2.3129   -3.2119    0.3353 H   0  0  0  0  0  0  0  0  0  0  0  0
   -1.1199   -2.9336    1.6016 H   0  0  0  0  0  0  0  0  0  0  0  0
    0.6919    2.8508   -0.1461 H   0  0  0  0  0  0  0  0  0  0  0  0
    2.9830    3.7189   -0.1993 H   0  0  0  0  0  0  0  0  0  0  0  0
    4.8856    2.1923    0.0128 H   0  0  0  0  0  0  0  0  0  0  0  0
    5.7655   -0.0775    0.2682 H   0  0  0  0  0  0  0  0  0  0  0  0
    5.3946   -2.4848    0.4881 H   0  0  0  0  0  0  0  0  0  0  0  0
    3.1016   -3.3833    0.5248 H   0  0  0  0  0  0  0  0  0  0  0  0
    1.1944   -1.8783    0.3541 H   0  0  0  0  0  0  0  0  0  0  0  0
   -3.0770    2.5944   -1.4373 H   0  0  0  0  0  0  0  0  0  0  0  0
   -5.4064    1.7776   -1.7316 H   0  0  0  0  0  0  0  0  0  0  0  0
   -5.9858   -0.4830   -0.9290 H   0  0  0  0  0  0  0  0  0  0  0  0
   -4.2773   -1.8787    0.1281 H   0  0  0  0  0  0  0  0  0  0  0  0
  1  2  1  0  0  0  0
  2  3  2  0  0  0  0
  3  4  1  0  0  0  0
  4  5  1  0  0  0  0
  5  6  2  0  0  0  0
  6  7  1  0  0  0  0
  7  8  2  0  0  0  0
  8  9  1  0  0  0  0
  9 10  2  0  0  0  0
 10 11  1  0  0  0  0
 11 12  2  0  0  0  0
 12 13  1  0  0  0  0
 13 14  2  0  0  0  0
  4 15  1  0  0  0  0
 15 16  1  0  0  0  0
 15 17  1  0  0  0  0
 15 18  1  0  0  0  0
 18 19  2  0  0  0  0
 19 20  1  0  0  0  0
 20 21  2  0  0  0  0
 21 22  1  0  0  0  0
 22 23  2  0  0  0  0
 23  2  1  0  0  0  0
 14  5  1  0  0  0  0
 23 18  1  0  0  0  0
 14  9  1  0  0  0  0
  1 24  1  0  0  0  0
  1 25  1  0  0  0  0
  1 26  1  0  0  0  0
  6 27  1  0  0  0  0
  7 28  1  0  0  0  0
  8 29  1  0  0  0  0
 10 30  1  0  0  0  0
 11 31  1  0  0  0  0
 12 32  1  0  0  0  0
 13 33  1  0  0  0  0
 19 34  1  0  0  0  0
 20 35  1  0  0  0  0
 21 36  1  0  0  0  0
 22 37  1  0  0  0  0
M  CHG  1  15  -1
M  CHG  1  18   1
M  END
