
  xtb     03012221323D
 energy: -10.196154362286 gnorm: 0.000352479642 xtb: 6.4.1 (afa7bdf)
 52 55  0     0  0            999 V2000
   -1.8185    0.9937   -3.6774 C   0  0  0  0  0  0  0  0  0  0  0  0
   -1.7080    0.6112   -2.2373 C   0  0  0  0  0  0  0  0  0  0  0  0
   -2.3269   -0.5514   -1.7744 C   0  0  0  0  0  0  0  0  0  0  0  0
   -3.1278   -1.3889   -2.7189 C   0  0  0  0  0  0  0  0  0  0  0  0
   -2.1671   -0.9424   -0.4424 C   0  0  0  0  0  0  0  0  0  0  0  0
   -2.9074   -2.1421    0.0506 C   0  0  0  0  0  0  0  0  0  0  0  0
   -1.3631   -0.1860    0.4170 C   0  0  0  0  0  0  0  0  0  0  0  0
   -0.8583    1.0490   -0.0140 C   0  0  0  0  0  0  0  0  0  0  0  0
   -1.0349    1.4452   -1.3412 C   0  0  0  0  0  0  0  0  0  0  0  0
   -0.4897    2.7482   -1.8254 C   0  0  0  0  0  0  0  0  0  0  0  0
   -0.2165    2.0175    0.9448 C   0  0  0  0  0  0  0  0  0  0  0  0
    0.9952    2.6097    0.4556 O   0  0  0  0  0  0  0  0  0  0  0  0
    2.0437    2.6632    1.4025 C   0  0  0  0  0  0  0  0  0  0  0  0
    2.5402    3.9035    1.8116 C   0  0  0  0  0  0  0  0  0  0  0  0
    3.5494    3.9899    2.7393 C   0  0  0  0  0  0  0  0  0  0  0  0
    4.0960    2.8411    3.2786 C   0  0  0  0  0  0  0  0  0  0  0  0
    3.6340    1.6057    2.8797 C   0  0  0  0  0  0  0  0  0  0  0  0
    2.6155    1.4911    1.9435 C   0  0  0  0  0  0  0  0  0  0  0  0
    2.1737    0.2330    1.5107 C   0  0  0  0  0  0  0  0  0  0  0  0
    1.7572   -0.8389    1.0972 C   0  0  0  0  0  0  0  0  0  0  0  0
    1.3052   -2.0693    0.5991 C   0  0  0  0  0  0  0  0  0  0  0  0
    2.1152   -2.7347   -0.3134 C   0  0  0  0  0  0  0  0  0  0  0  0
    1.7806   -3.9792   -0.7986 C   0  0  0  0  0  0  0  0  0  0  0  0
    0.6261   -4.5958   -0.3621 C   0  0  0  0  0  0  0  0  0  0  0  0
   -0.1933   -3.9589    0.5362 C   0  0  0  0  0  0  0  0  0  0  0  0
    0.0987   -2.6774    1.0185 C   0  0  0  0  0  0  0  0  0  0  0  0
   -0.8467   -2.1130    1.8974 O   0  0  0  0  0  0  0  0  0  0  0  0
   -1.0681   -0.7016    1.8019 C   0  0  0  0  0  0  0  0  0  0  0  0
   -2.7190    1.5826   -3.8565 H   0  0  0  0  0  0  0  0  0  0  0  0
   -0.9593    1.5803   -4.0034 H   0  0  0  0  0  0  0  0  0  0  0  0
   -1.8527    0.1149   -4.3221 H   0  0  0  0  0  0  0  0  0  0  0  0
   -3.6818   -0.7694   -3.4253 H   0  0  0  0  0  0  0  0  0  0  0  0
   -2.4797   -2.0581   -3.2866 H   0  0  0  0  0  0  0  0  0  0  0  0
   -3.8654   -2.0014   -2.2014 H   0  0  0  0  0  0  0  0  0  0  0  0
   -2.6465   -3.0277   -0.5294 H   0  0  0  0  0  0  0  0  0  0  0  0
   -2.6858   -2.3562    1.0945 H   0  0  0  0  0  0  0  0  0  0  0  0
   -3.9850   -1.9897   -0.0186 H   0  0  0  0  0  0  0  0  0  0  0  0
    0.4554    2.5996   -2.3486 H   0  0  0  0  0  0  0  0  0  0  0  0
   -1.1862    3.2456   -2.5011 H   0  0  0  0  0  0  0  0  0  0  0  0
   -0.2998    3.4359   -1.0025 H   0  0  0  0  0  0  0  0  0  0  0  0
   -0.0039    1.5682    1.9155 H   0  0  0  0  0  0  0  0  0  0  0  0
   -0.9119    2.8385    1.1498 H   0  0  0  0  0  0  0  0  0  0  0  0
    2.1065    4.7912    1.3876 H   0  0  0  0  0  0  0  0  0  0  0  0
    3.9153    4.9561    3.0482 H   0  0  0  0  0  0  0  0  0  0  0  0
    4.8879    2.9112    4.0060 H   0  0  0  0  0  0  0  0  0  0  0  0
    4.0662    0.7081    3.2878 H   0  0  0  0  0  0  0  0  0  0  0  0
    3.0290   -2.2620   -0.6319 H   0  0  0  0  0  0  0  0  0  0  0  0
    2.4249   -4.4760   -1.5051 H   0  0  0  0  0  0  0  0  0  0  0  0
    0.3680   -5.5773   -0.7268 H   0  0  0  0  0  0  0  0  0  0  0  0
   -1.0916   -4.4368    0.8835 H   0  0  0  0  0  0  0  0  0  0  0  0
   -1.9038   -0.4639    2.4677 H   0  0  0  0  0  0  0  0  0  0  0  0
   -0.1851   -0.2359    2.2391 H   0  0  0  0  0  0  0  0  0  0  0  0
  1  2  1  0  0  0  0
  2  3  2  0  0  0  0
  3  4  1  0  0  0  0
  3  5  1  0  0  0  0
  5  6  1  0  0  0  0
  5  7  2  0  0  0  0
  7  8  1  0  0  0  0
  8  9  2  0  0  0  0
  9 10  1  0  0  0  0
  8 11  1  0  0  0  0
 11 12  1  0  0  0  0
 12 13  1  0  0  0  0
 13 14  2  0  0  0  0
 14 15  1  0  0  0  0
 15 16  2  0  0  0  0
 16 17  1  0  0  0  0
 17 18  2  0  0  0  0
 18 19  1  0  0  0  0
 19 20  3  0  0  0  0
 20 21  1  0  0  0  0
 21 22  2  0  0  0  0
 22 23  1  0  0  0  0
 23 24  2  0  0  0  0
 24 25  1  0  0  0  0
 25 26  2  0  0  0  0
 26 27  1  0  0  0  0
 27 28  1  0  0  0  0
  9  2  1  0  0  0  0
 18 13  1  0  0  0  0
 26 21  1  0  0  0  0
 28  7  1  0  0  0  0
  1 29  1  0  0  0  0
  1 30  1  0  0  0  0
  1 31  1  0  0  0  0
  4 32  1  0  0  0  0
  4 33  1  0  0  0  0
  4 34  1  0  0  0  0
  6 35  1  0  0  0  0
  6 36  1  0  0  0  0
  6 37  1  0  0  0  0
 10 38  1  0  0  0  0
 10 39  1  0  0  0  0
 10 40  1  0  0  0  0
 11 41  1  0  0  0  0
 11 42  1  0  0  0  0
 14 43  1  0  0  0  0
 15 44  1  0  0  0  0
 16 45  1  0  0  0  0
 17 46  1  0  0  0  0
 22 47  1  0  0  0  0
 23 48  1  0  0  0  0
 24 49  1  0  0  0  0
 25 50  1  0  0  0  0
 28 51  1  0  0  0  0
 28 52  1  0  0  0  0
M  END
