
  xtb     03012221313D
 energy: -6.859772812480 gnorm: 0.000191623600 xtb: 6.4.1 (afa7bdf)
 34 36  0     0  0            999 V2000
   -5.2267    1.1825    0.3030 C   0  0  0  0  0  0  0  0  0  0  0  0
   -4.3478    0.0660   -0.0405 N   0  0  0  0  0  0  0  0  0  0  0  0
   -4.9928   -1.1867   -0.4306 C   0  0  0  0  0  0  0  0  0  0  0  0
   -2.9511    0.1937   -0.0098 C   0  0  0  0  0  0  0  0  0  0  0  0
   -2.3368    1.3702    0.4551 C   0  0  0  0  0  0  0  0  0  0  0  0
   -0.9766    1.4893    0.4828 C   0  0  0  0  0  0  0  0  0  0  0  0
   -0.1439    0.4491    0.0495 C   0  0  0  0  0  0  0  0  0  0  0  0
    1.2080    0.6086    0.0918 N   0  0  0  0  0  0  0  0  0  0  0  0
    1.9490   -0.3841   -0.3262 C   0  0  0  0  0  0  0  0  0  0  0  0
    3.3995   -0.1855   -0.2709 C   0  0  0  0  0  0  0  0  0  0  0  0
    3.8951    1.0254    0.2102 C   0  0  0  0  0  0  0  0  0  0  0  0
    5.2479    1.2640    0.2854 C   0  0  0  0  0  0  0  0  0  0  0  0
    6.1431    0.2952   -0.1197 C   0  0  0  0  0  0  0  0  0  0  0  0
    5.6775   -0.9118   -0.5994 C   0  0  0  0  0  0  0  0  0  0  0  0
    4.3247   -1.1477   -0.6735 C   0  0  0  0  0  0  0  0  0  0  0  0
    1.3779   -1.6388   -0.8273 C   0  0  0  0  0  0  0  0  0  0  0  0
    2.1233   -2.5320   -1.2074 O   0  0  0  0  0  0  0  0  0  0  0  0
    0.0159   -1.7901   -0.8612 O   0  0  0  0  0  0  0  0  0  0  0  0
   -0.7430   -0.7355   -0.4197 C   0  0  0  0  0  0  0  0  0  0  0  0
   -2.1295   -0.8401   -0.4391 C   0  0  0  0  0  0  0  0  0  0  0  0
   -6.2664    0.9410    0.0936 H   0  0  0  0  0  0  0  0  0  0  0  0
   -4.9611    2.0600   -0.2826 H   0  0  0  0  0  0  0  0  0  0  0  0
   -5.1346    1.4170    1.3614 H   0  0  0  0  0  0  0  0  0  0  0  0
   -6.0658   -1.1453   -0.2581 H   0  0  0  0  0  0  0  0  0  0  0  0
   -4.8205   -1.3802   -1.4873 H   0  0  0  0  0  0  0  0  0  0  0  0
   -4.5905   -2.0113    0.1542 H   0  0  0  0  0  0  0  0  0  0  0  0
   -2.9495    2.1831    0.8001 H   0  0  0  0  0  0  0  0  0  0  0  0
   -0.5141    2.3920    0.8416 H   0  0  0  0  0  0  0  0  0  0  0  0
    3.1918    1.7766    0.5254 H   0  0  0  0  0  0  0  0  0  0  0  0
    5.6086    2.2071    0.6607 H   0  0  0  0  0  0  0  0  0  0  0  0
    7.2031    0.4804   -0.0612 H   0  0  0  0  0  0  0  0  0  0  0  0
    6.3739   -1.6704   -0.9158 H   0  0  0  0  0  0  0  0  0  0  0  0
    3.9654   -2.0891   -1.0478 H   0  0  0  0  0  0  0  0  0  0  0  0
   -2.5541   -1.7528   -0.8094 H   0  0  0  0  0  0  0  0  0  0  0  0
  1  2  1  0  0  0  0
  2  3  1  0  0  0  0
  2  4  1  0  0  0  0
  4  5  2  0  0  0  0
  5  6  1  0  0  0  0
  6  7  2  0  0  0  0
  7  8  1  0  0  0  0
  8  9  2  0  0  0  0
  9 10  1  0  0  0  0
 10 11  2  0  0  0  0
 11 12  1  0  0  0  0
 12 13  2  0  0  0  0
 13 14  1  0  0  0  0
 14 15  2  0  0  0  0
  9 16  1  0  0  0  0
 16 17  2  0  0  0  0
 16 18  1  0  0  0  0
 18 19  1  0  0  0  0
 19 20  2  0  0  0  0
 20  4  1  0  0  0  0
 19  7  1  0  0  0  0
 15 10  1  0  0  0  0
  1 21  1  0  0  0  0
  1 22  1  0  0  0  0
  1 23  1  0  0  0  0
  3 24  1  0  0  0  0
  3 25  1  0  0  0  0
  3 26  1  0  0  0  0
  5 27  1  0  0  0  0
  6 28  1  0  0  0  0
 11 29  1  0  0  0  0
 12 30  1  0  0  0  0
 13 31  1  0  0  0  0
 14 32  1  0  0  0  0
 15 33  1  0  0  0  0
 20 34  1  0  0  0  0
M  END
