
  xtb     03012221233D
 energy: -11.324896323890 gnorm: 0.000095159647 xtb: 6.4.1 (afa7bdf)
 62 64  0     0  0            999 V2000
   -4.8563   -0.3000   -5.9291 C   0  0  0  0  0  0  0  0  0  0  0  0
   -4.3124    0.3097   -4.8042 O   0  0  0  0  0  0  0  0  0  0  0  0
   -4.0469   -0.6362   -3.8618 C   0  0  0  0  0  0  0  0  0  0  0  0
   -4.2343   -1.8245   -3.9984 O   0  0  0  0  0  0  0  0  0  0  0  0
   -3.4561   -0.1318   -2.5617 C   0  0  0  0  0  0  0  0  0  0  0  0
   -4.2866   -0.5570   -1.4501 N   0  0  0  0  0  0  0  0  0  0  0  0
   -4.2895    0.1234   -0.2460 C   0  0  0  0  0  0  0  0  0  0  0  0
   -3.6691    1.1675   -0.1328 O   0  0  0  0  0  0  0  0  0  0  0  0
   -5.0078   -0.4662    0.7593 O   0  0  0  0  0  0  0  0  0  0  0  0
   -4.9798    0.2590    2.0165 C   0  0  0  0  0  0  0  0  0  0  0  0
   -5.5859    1.6559    1.8240 C   0  0  0  0  0  0  0  0  0  0  0  0
   -5.8314   -0.5368    3.0174 C   0  0  0  0  0  0  0  0  0  0  0  0
   -3.5363    0.3523    2.5307 C   0  0  0  0  0  0  0  0  0  0  0  0
   -2.0215   -0.5497   -2.3683 C   0  0  0  0  0  0  0  0  0  0  0  0
   -1.4578   -1.5817   -3.1425 C   0  0  0  0  0  0  0  0  0  0  0  0
   -0.1583   -1.9728   -2.9898 C   0  0  0  0  0  0  0  0  0  0  0  0
    0.6337   -1.3322   -2.0275 C   0  0  0  0  0  0  0  0  0  0  0  0
    1.9345   -1.4629   -1.6337 O   0  0  0  0  0  0  0  0  0  0  0  0
    2.0999   -0.5303   -0.6296 C   0  0  0  0  0  0  0  0  0  0  0  0
    3.3816   -0.3569    0.0405 C   0  0  0  0  0  0  0  0  0  0  0  0
    4.4473   -1.1485   -0.3698 C   0  0  0  0  0  0  0  0  0  0  0  0
    5.6882   -1.0293    0.2017 C   0  0  0  0  0  0  0  0  0  0  0  0
    5.9164   -0.0991    1.2204 C   0  0  0  0  0  0  0  0  0  0  0  0
    7.1918    0.0368    1.8066 N   0  0  0  0  0  0  0  0  0  0  0  0
    7.4834    1.0997    2.7678 C   0  0  0  0  0  0  0  0  0  0  0  0
    8.2912   -0.8634    1.4614 C   0  0  0  0  0  0  0  0  0  0  0  0
    4.8493    0.6924    1.6373 C   0  0  0  0  0  0  0  0  0  0  0  0
    3.5794    0.5911    1.0752 C   0  0  0  0  0  0  0  0  0  0  0  0
    2.4996    1.3754    1.4843 O   0  0  0  0  0  0  0  0  0  0  0  0
    2.7858    2.3370    2.4704 C   0  0  0  0  0  0  0  0  0  0  0  0
    1.0032    0.1598   -0.3712 N   0  0  0  0  0  0  0  0  0  0  0  0
    0.0677   -0.3108   -1.2243 C   0  0  0  0  0  0  0  0  0  0  0  0
   -1.2696    0.0645   -1.3987 C   0  0  0  0  0  0  0  0  0  0  0  0
   -5.0882    0.4637   -6.6748 H   0  0  0  0  0  0  0  0  0  0  0  0
   -4.1327   -1.0118   -6.3339 H   0  0  0  0  0  0  0  0  0  0  0  0
   -5.7673   -0.8298   -5.6389 H   0  0  0  0  0  0  0  0  0  0  0  0
   -3.4984    0.9675   -2.5800 H   0  0  0  0  0  0  0  0  0  0  0  0
   -4.6999   -1.4831   -1.5372 H   0  0  0  0  0  0  0  0  0  0  0  0
   -5.6104    2.2087    2.7615 H   0  0  0  0  0  0  0  0  0  0  0  0
   -5.0001    2.2236    1.1033 H   0  0  0  0  0  0  0  0  0  0  0  0
   -6.6009    1.5774    1.4397 H   0  0  0  0  0  0  0  0  0  0  0  0
   -5.8583   -0.0489    3.9903 H   0  0  0  0  0  0  0  0  0  0  0  0
   -5.4266   -1.5391    3.1427 H   0  0  0  0  0  0  0  0  0  0  0  0
   -6.8510   -0.6343    2.6498 H   0  0  0  0  0  0  0  0  0  0  0  0
   -3.4927    0.8532    3.4962 H   0  0  0  0  0  0  0  0  0  0  0  0
   -2.9201    0.9083    1.8265 H   0  0  0  0  0  0  0  0  0  0  0  0
   -3.1071   -0.6422    2.6350 H   0  0  0  0  0  0  0  0  0  0  0  0
   -2.0873   -2.0790   -3.8579 H   0  0  0  0  0  0  0  0  0  0  0  0
    0.2695   -2.7605   -3.5854 H   0  0  0  0  0  0  0  0  0  0  0  0
    4.2760   -1.8611   -1.1584 H   0  0  0  0  0  0  0  0  0  0  0  0
    6.4965   -1.6480   -0.1436 H   0  0  0  0  0  0  0  0  0  0  0  0
    8.5475    1.1472    2.9868 H   0  0  0  0  0  0  0  0  0  0  0  0
    7.1808    2.0628    2.3627 H   0  0  0  0  0  0  0  0  0  0  0  0
    6.9486    0.9184    3.6974 H   0  0  0  0  0  0  0  0  0  0  0  0
    7.9738   -1.8983    1.5678 H   0  0  0  0  0  0  0  0  0  0  0  0
    9.1457   -0.7054    2.1151 H   0  0  0  0  0  0  0  0  0  0  0  0
    8.6061   -0.6898    0.4348 H   0  0  0  0  0  0  0  0  0  0  0  0
    5.0156    1.3966    2.4274 H   0  0  0  0  0  0  0  0  0  0  0  0
    3.5534    3.0225    2.1094 H   0  0  0  0  0  0  0  0  0  0  0  0
    1.8745    2.9011    2.6714 H   0  0  0  0  0  0  0  0  0  0  0  0
    3.1065    1.8441    3.3889 H   0  0  0  0  0  0  0  0  0  0  0  0
   -1.7070    0.8018   -0.7524 H   0  0  0  0  0  0  0  0  0  0  0  0
  1  2  1  0  0  0  0
  2  3  1  0  0  0  0
  3  4  2  0  0  0  0
  3  5  1  0  0  0  0
  5  6  1  0  0  0  0
  6  7  1  0  0  0  0
  7  8  2  0  0  0  0
  7  9  1  0  0  0  0
  9 10  1  0  0  0  0
 10 11  1  0  0  0  0
 10 12  1  0  0  0  0
 10 13  1  0  0  0  0
  5 14  1  0  0  0  0
 14 15  2  0  0  0  0
 15 16  1  0  0  0  0
 16 17  2  0  0  0  0
 17 18  1  0  0  0  0
 18 19  1  0  0  0  0
 19 20  1  0  0  0  0
 20 21  2  0  0  0  0
 21 22  1  0  0  0  0
 22 23  2  0  0  0  0
 23 24  1  0  0  0  0
 24 25  1  0  0  0  0
 24 26  1  0  0  0  0
 23 27  1  0  0  0  0
 27 28  2  0  0  0  0
 28 29  1  0  0  0  0
 29 30  1  0  0  0  0
 19 31  2  0  0  0  0
 31 32  1  0  0  0  0
 32 33  2  0  0  0  0
 33 14  1  0  0  0  0
 32 17  1  0  0  0  0
 28 20  1  0  0  0  0
  1 34  1  0  0  0  0
  1 35  1  0  0  0  0
  1 36  1  0  0  0  0
  5 37  1  0  0  0  0
  6 38  1  0  0  0  0
 11 39  1  0  0  0  0
 11 40  1  0  0  0  0
 11 41  1  0  0  0  0
 12 42  1  0  0  0  0
 12 43  1  0  0  0  0
 12 44  1  0  0  0  0
 13 45  1  0  0  0  0
 13 46  1  0  0  0  0
 13 47  1  0  0  0  0
 15 48  1  0  0  0  0
 16 49  1  0  0  0  0
 21 50  1  0  0  0  0
 22 51  1  0  0  0  0
 25 52  1  0  0  0  0
 25 53  1  0  0  0  0
 25 54  1  0  0  0  0
 26 55  1  0  0  0  0
 26 56  1  0  0  0  0
 26 57  1  0  0  0  0
 27 58  1  0  0  0  0
 30 59  1  0  0  0  0
 30 60  1  0  0  0  0
 30 61  1  0  0  0  0
 33 62  1  0  0  0  0
M  END
