
  xtb     03012221213D
 energy: -7.726455423615 gnorm: 0.000229028710 xtb: 6.4.1 (afa7bdf)
 36 40  0     0  0            999 V2000
    5.2999    1.5224   -0.1147 O   0  0  0  0  0  0  0  0  0  0  0  0
    4.5674    0.3130   -0.1351 C   0  0  0  0  0  0  0  0  0  0  0  0
    3.0800    0.4992   -0.1986 C   0  0  0  0  0  0  0  0  0  0  0  0
    2.5756    1.6895   -0.6412 C   0  0  0  0  0  0  0  0  0  0  0  0
    1.2067    1.9156   -0.7237 C   0  0  0  0  0  0  0  0  0  0  0  0
    0.2897    0.9447   -0.3699 C   0  0  0  0  0  0  0  0  0  0  0  0
   -1.1545    1.1807   -0.4452 C   0  0  0  0  0  0  0  0  0  0  0  0
   -1.6826    2.3918   -0.8577 C   0  0  0  0  0  0  0  0  0  0  0  0
   -3.0558    2.6049   -0.9260 C   0  0  0  0  0  0  0  0  0  0  0  0
   -3.9285    1.6159   -0.5851 C   0  0  0  0  0  0  0  0  0  0  0  0
   -3.4518    0.3610   -0.1568 C   0  0  0  0  0  0  0  0  0  0  0  0
   -4.3404   -0.6730    0.1984 C   0  0  0  0  0  0  0  0  0  0  0  0
   -3.8629   -1.8804    0.6109 C   0  0  0  0  0  0  0  0  0  0  0  0
   -2.4930   -2.1109    0.6889 C   0  0  0  0  0  0  0  0  0  0  0  0
   -1.5710   -1.1343    0.3540 C   0  0  0  0  0  0  0  0  0  0  0  0
   -0.1259   -1.3657    0.4340 C   0  0  0  0  0  0  0  0  0  0  0  0
    0.3952   -2.5780    0.8482 C   0  0  0  0  0  0  0  0  0  0  0  0
    1.7661   -2.7973    0.9136 C   0  0  0  0  0  0  0  0  0  0  0  0
    2.6414   -1.8106    0.5734 C   0  0  0  0  0  0  0  0  0  0  0  0
    2.1790   -0.5450    0.1525 C   0  0  0  0  0  0  0  0  0  0  0  0
    0.7775   -0.3201    0.0738 C   0  0  0  0  0  0  0  0  0  0  0  0
   -2.0532    0.1348   -0.0822 C   0  0  0  0  0  0  0  0  0  0  0  0
    5.0365    2.0613    0.6655 H   0  0  0  0  0  0  0  0  0  0  0  0
    4.8513   -0.2664    0.7509 H   0  0  0  0  0  0  0  0  0  0  0  0
    4.9070   -0.2526   -1.0099 H   0  0  0  0  0  0  0  0  0  0  0  0
    3.2638    2.4641   -0.9331 H   0  0  0  0  0  0  0  0  0  0  0  0
    0.8681    2.8731   -1.0740 H   0  0  0  0  0  0  0  0  0  0  0  0
   -1.0279    3.1970   -1.1334 H   0  0  0  0  0  0  0  0  0  0  0  0
   -3.4307    3.5624   -1.2518 H   0  0  0  0  0  0  0  0  0  0  0  0
   -4.9902    1.7825   -0.6389 H   0  0  0  0  0  0  0  0  0  0  0  0
   -5.4003   -0.4966    0.1393 H   0  0  0  0  0  0  0  0  0  0  0  0
   -4.5514   -2.6660    0.8800 H   0  0  0  0  0  0  0  0  0  0  0  0
   -2.1572   -3.0760    1.0189 H   0  0  0  0  0  0  0  0  0  0  0  0
   -0.2635   -3.3801    1.1254 H   0  0  0  0  0  0  0  0  0  0  0  0
    2.1374   -3.7572    1.2340 H   0  0  0  0  0  0  0  0  0  0  0  0
    3.6985   -2.0032    0.6154 H   0  0  0  0  0  0  0  0  0  0  0  0
  1  2  1  0  0  0  0
  2  3  1  0  0  0  0
  3  4  2  0  0  0  0
  4  5  1  0  0  0  0
  5  6  2  0  0  0  0
  6  7  1  0  0  0  0
  7  8  2  0  0  0  0
  8  9  1  0  0  0  0
  9 10  2  0  0  0  0
 10 11  1  0  0  0  0
 11 12  1  0  0  0  0
 12 13  2  0  0  0  0
 13 14  1  0  0  0  0
 14 15  2  0  0  0  0
 15 16  1  0  0  0  0
 16 17  1  0  0  0  0
 17 18  2  0  0  0  0
 18 19  1  0  0  0  0
 19 20  2  0  0  0  0
 20 21  1  0  0  0  0
 15 22  1  0  0  0  0
 20  3  1  0  0  0  0
 21  6  1  0  0  0  0
 22  7  1  0  0  0  0
 22 11  2  0  0  0  0
 21 16  2  0  0  0  0
  1 23  1  0  0  0  0
  2 24  1  0  0  0  0
  2 25  1  0  0  0  0
  4 26  1  0  0  0  0
  5 27  1  0  0  0  0
  8 28  1  0  0  0  0
  9 29  1  0  0  0  0
 10 30  1  0  0  0  0
 12 31  1  0  0  0  0
 13 32  1  0  0  0  0
 14 33  1  0  0  0  0
 17 34  1  0  0  0  0
 18 35  1  0  0  0  0
 19 36  1  0  0  0  0
M  END
