
  xtb     03012221223D
 energy: -4.509975047097 gnorm: 0.000750423362 xtb: 6.4.1 (afa7bdf)
 23 24  0     0  0            999 V2000
   -4.1501    0.1952    0.0220 C   0  0  0  0  0  0  0  0  0  0  0  0
   -3.0163    0.7889    0.6070 O   0  0  0  0  0  0  0  0  0  0  0  0
   -1.7896    0.2963    0.1514 C   0  0  0  0  0  0  0  0  0  0  0  0
   -1.6525   -0.7389   -0.8061 C   0  0  0  0  0  0  0  0  0  0  0  0
   -0.4269   -1.1685   -1.2092 C   0  0  0  0  0  0  0  0  0  0  0  0
    0.7525   -0.5963   -0.6852 C   0  0  0  0  0  0  0  0  0  0  0  0
    2.0399   -1.0194   -1.0844 C   0  0  0  0  0  0  0  0  0  0  0  0
    3.1556   -0.4459   -0.5605 C   0  0  0  0  0  0  0  0  0  0  0  0
    3.0621    0.5879    0.4030 C   0  0  0  0  0  0  0  0  0  0  0  0
    4.1903    1.1713    0.9455 O   0  0  0  0  0  0  0  0  0  0  0  0
    1.8114    1.0110    0.8030 C   0  0  0  0  0  0  0  0  0  0  0  0
    0.6390    0.4387    0.2754 C   0  0  0  0  0  0  0  0  0  0  0  0
   -0.6430    0.8613    0.6723 C   0  0  0  0  0  0  0  0  0  0  0  0
   -5.0400    0.6720    0.4330 H   0  0  0  0  0  0  0  0  0  0  0  0
   -4.1755   -0.8683    0.2604 H   0  0  0  0  0  0  0  0  0  0  0  0
   -4.1344    0.3480   -1.0573 H   0  0  0  0  0  0  0  0  0  0  0  0
   -2.5331   -1.1955   -1.2195 H   0  0  0  0  0  0  0  0  0  0  0  0
   -0.3410   -1.9576   -1.9362 H   0  0  0  0  0  0  0  0  0  0  0  0
    2.1259   -1.8068   -1.8129 H   0  0  0  0  0  0  0  0  0  0  0  0
    4.1303   -0.7764   -0.8713 H   0  0  0  0  0  0  0  0  0  0  0  0
    4.9961    0.7622    0.5609 H   0  0  0  0  0  0  0  0  0  0  0  0
    1.7430    1.7949    1.5336 H   0  0  0  0  0  0  0  0  0  0  0  0
   -0.7438    1.6456    1.3989 H   0  0  0  0  0  0  0  0  0  0  0  0
  1  2  1  0  0  0  0
  2  3  1  0  0  0  0
  3  4  2  0  0  0  0
  4  5  1  0  0  0  0
  5  6  2  0  0  0  0
  6  7  1  0  0  0  0
  7  8  2  0  0  0  0
  8  9  1  0  0  0  0
  9 10  1  0  0  0  0
  9 11  2  0  0  0  0
 11 12  1  0  0  0  0
 12 13  2  0  0  0  0
 13  3  1  0  0  0  0
 12  6  1  0  0  0  0
  1 14  1  0  0  0  0
  1 15  1  0  0  0  0
  1 16  1  0  0  0  0
  4 17  1  0  0  0  0
  5 18  1  0  0  0  0
  7 19  1  0  0  0  0
  8 20  1  0  0  0  0
 10 21  1  0  0  0  0
 11 22  1  0  0  0  0
 13 23  1  0  0  0  0
M  END
