
  xtb     03012221323D
 energy: -13.716737432190 gnorm: 0.000278455428 xtb: 6.4.1 (afa7bdf)
 67 72  0     0  0            999 V2000
    9.1834    1.6839    0.2330 C   0  0  0  0  0  0  0  0  0  0  0  0
    8.7208    0.2260    0.4060 C   0  0  0  0  0  0  0  0  0  0  0  0
    9.2839   -0.6354   -0.7379 C   0  0  0  0  0  0  0  0  0  0  0  0
    9.2831   -0.3048    1.7379 C   0  0  0  0  0  0  0  0  0  0  0  0
    7.1862    0.1703    0.3725 C   0  0  0  0  0  0  0  0  0  0  0  0
    6.5037    0.6412   -0.7403 C   0  0  0  0  0  0  0  0  0  0  0  0
    5.1306    0.5977   -0.8046 C   0  0  0  0  0  0  0  0  0  0  0  0
    4.3647    0.0884    0.2422 C   0  0  0  0  0  0  0  0  0  0  0  0
    2.8961    0.0716    0.1694 C   0  0  0  0  0  0  0  0  0  0  0  0
    2.1129   -0.1437    1.2842 C   0  0  0  0  0  0  0  0  0  0  0  0
    0.7144   -0.1639    1.2414 C   0  0  0  0  0  0  0  0  0  0  0  0
   -0.0122    0.0374    0.0844 C   0  0  0  0  0  0  0  0  0  0  0  0
   -1.4783    0.0034    0.0738 C   0  0  0  0  0  0  0  0  0  0  0  0
   -2.2292   -0.0575    1.2550 C   0  0  0  0  0  0  0  0  0  0  0  0
   -3.6005   -0.1110    1.2265 C   0  0  0  0  0  0  0  0  0  0  0  0
   -4.2965   -0.1043    0.0189 C   0  0  0  0  0  0  0  0  0  0  0  0
   -5.7234   -0.1680   -0.0094 N   0  0  0  0  0  0  0  0  0  0  0  0
   -6.4006   -0.7931   -1.1110 C   0  0  0  0  0  0  0  0  0  0  0  0
   -5.9001   -1.9571   -1.6884 C   0  0  0  0  0  0  0  0  0  0  0  0
   -6.5557   -2.5559   -2.7409 C   0  0  0  0  0  0  0  0  0  0  0  0
   -7.7228   -2.0051   -3.2340 C   0  0  0  0  0  0  0  0  0  0  0  0
   -8.2330   -0.8523   -2.6691 C   0  0  0  0  0  0  0  0  0  0  0  0
   -7.5792   -0.2514   -1.6167 C   0  0  0  0  0  0  0  0  0  0  0  0
   -6.4976    0.3898    1.0640 C   0  0  0  0  0  0  0  0  0  0  0  0
   -7.6379   -0.2609    1.5273 C   0  0  0  0  0  0  0  0  0  0  0  0
   -8.3838    0.2750    2.5532 C   0  0  0  0  0  0  0  0  0  0  0  0
   -8.0057    1.4705    3.1331 C   0  0  0  0  0  0  0  0  0  0  0  0
   -6.8783    2.1293    2.6819 C   0  0  0  0  0  0  0  0  0  0  0  0
   -6.1307    1.5955    1.6561 C   0  0  0  0  0  0  0  0  0  0  0  0
   -3.5595   -0.0329   -1.1611 C   0  0  0  0  0  0  0  0  0  0  0  0
   -2.1905    0.0220   -1.1293 C   0  0  0  0  0  0  0  0  0  0  0  0
    0.7475    0.2732   -1.1204 C   0  0  0  0  0  0  0  0  0  0  0  0
    0.2765    0.4903   -2.3307 N   0  0  0  0  0  0  0  0  0  0  0  0
    1.5372    0.7051   -3.3553 S   0  0  0  0  0  0  0  0  0  0  0  0
    2.7402    0.5219   -2.2553 N   0  0  0  0  0  0  0  0  0  0  0  0
    2.2032    0.2923   -1.0764 C   0  0  0  0  0  0  0  0  0  0  0  0
    5.0563   -0.3951    1.3545 C   0  0  0  0  0  0  0  0  0  0  0  0
    6.4319   -0.3532    1.4151 C   0  0  0  0  0  0  0  0  0  0  0  0
    8.7729    2.3138    1.0218 H   0  0  0  0  0  0  0  0  0  0  0  0
    8.8607    2.0924   -0.7236 H   0  0  0  0  0  0  0  0  0  0  0  0
   10.2701    1.7557    0.2749 H   0  0  0  0  0  0  0  0  0  0  0  0
    8.9546   -0.2677   -1.7090 H   0  0  0  0  0  0  0  0  0  0  0  0
   10.3737   -0.6297   -0.7311 H   0  0  0  0  0  0  0  0  0  0  0  0
    8.9510   -1.6686   -0.6412 H   0  0  0  0  0  0  0  0  0  0  0  0
    8.9134    0.2798    2.5801 H   0  0  0  0  0  0  0  0  0  0  0  0
    9.0089   -1.3481    1.8925 H   0  0  0  0  0  0  0  0  0  0  0  0
   10.3714   -0.2464    1.7486 H   0  0  0  0  0  0  0  0  0  0  0  0
    7.0596    1.0417   -1.5704 H   0  0  0  0  0  0  0  0  0  0  0  0
    4.6305    0.9561   -1.6839 H   0  0  0  0  0  0  0  0  0  0  0  0
    2.5909   -0.2857    2.2359 H   0  0  0  0  0  0  0  0  0  0  0  0
    0.1896   -0.3606    2.1590 H   0  0  0  0  0  0  0  0  0  0  0  0
   -1.7312   -0.0504    2.2070 H   0  0  0  0  0  0  0  0  0  0  0  0
   -4.1593   -0.1725    2.1440 H   0  0  0  0  0  0  0  0  0  0  0  0
   -4.9972   -2.3874   -1.2921 H   0  0  0  0  0  0  0  0  0  0  0  0
   -6.1584   -3.4566   -3.1798 H   0  0  0  0  0  0  0  0  0  0  0  0
   -8.2351   -2.4748   -4.0574 H   0  0  0  0  0  0  0  0  0  0  0  0
   -9.1437   -0.4221   -3.0528 H   0  0  0  0  0  0  0  0  0  0  0  0
   -7.9668    0.6502   -1.1758 H   0  0  0  0  0  0  0  0  0  0  0  0
   -7.9226   -1.1946    1.0749 H   0  0  0  0  0  0  0  0  0  0  0  0
   -9.2634   -0.2392    2.9047 H   0  0  0  0  0  0  0  0  0  0  0  0
   -8.5901    1.8895    3.9357 H   0  0  0  0  0  0  0  0  0  0  0  0
   -6.5843    3.0635    3.1317 H   0  0  0  0  0  0  0  0  0  0  0  0
   -5.2586    2.1091    1.2910 H   0  0  0  0  0  0  0  0  0  0  0  0
   -4.0833   -0.0060   -2.1006 H   0  0  0  0  0  0  0  0  0  0  0  0
   -1.6465    0.0851   -2.0511 H   0  0  0  0  0  0  0  0  0  0  0  0
    4.5107   -0.8278    2.1736 H   0  0  0  0  0  0  0  0  0  0  0  0
    6.9251   -0.7381    2.2900 H   0  0  0  0  0  0  0  0  0  0  0  0
  1  2  1  0  0  0  0
  2  3  1  0  0  0  0
  2  4  1  0  0  0  0
  2  5  1  0  0  0  0
  5  6  2  0  0  0  0
  6  7  1  0  0  0  0
  7  8  2  0  0  0  0
  8  9  1  0  0  0  0
  9 10  2  0  0  0  0
 10 11  1  0  0  0  0
 11 12  2  0  0  0  0
 12 13  1  0  0  0  0
 13 14  2  0  0  0  0
 14 15  1  0  0  0  0
 15 16  2  0  0  0  0
 16 17  1  0  0  0  0
 17 18  1  0  0  0  0
 18 19  2  0  0  0  0
 19 20  1  0  0  0  0
 20 21  2  0  0  0  0
 21 22  1  0  0  0  0
 22 23  2  0  0  0  0
 17 24  1  0  0  0  0
 24 25  2  0  0  0  0
 25 26  1  0  0  0  0
 26 27  2  0  0  0  0
 27 28  1  0  0  0  0
 28 29  2  0  0  0  0
 16 30  1  0  0  0  0
 30 31  2  0  0  0  0
 12 32  1  0  0  0  0
 32 33  2  0  0  0  0
 33 34  1  0  0  0  0
 34 35  1  0  0  0  0
 35 36  2  0  0  0  0
  8 37  1  0  0  0  0
 37 38  2  0  0  0  0
 38  5  1  0  0  0  0
 36  9  1  0  0  0  0
 31 13  1  0  0  0  0
 36 32  1  0  0  0  0
 23 18  1  0  0  0  0
 29 24  1  0  0  0  0
  1 39  1  0  0  0  0
  1 40  1  0  0  0  0
  1 41  1  0  0  0  0
  3 42  1  0  0  0  0
  3 43  1  0  0  0  0
  3 44  1  0  0  0  0
  4 45  1  0  0  0  0
  4 46  1  0  0  0  0
  4 47  1  0  0  0  0
  6 48  1  0  0  0  0
  7 49  1  0  0  0  0
 10 50  1  0  0  0  0
 11 51  1  0  0  0  0
 14 52  1  0  0  0  0
 15 53  1  0  0  0  0
 19 54  1  0  0  0  0
 20 55  1  0  0  0  0
 21 56  1  0  0  0  0
 22 57  1  0  0  0  0
 23 58  1  0  0  0  0
 25 59  1  0  0  0  0
 26 60  1  0  0  0  0
 27 61  1  0  0  0  0
 28 62  1  0  0  0  0
 29 63  1  0  0  0  0
 30 64  1  0  0  0  0
 31 65  1  0  0  0  0
 37 66  1  0  0  0  0
 38 67  1  0  0  0  0
M  END
