
  xtb     03012221263D
 energy: -15.680911699562 gnorm: 0.000369912293 xtb: 6.4.1 (afa7bdf)
 73 82  0     0  0            999 V2000
   -2.8976    3.7607   -0.7522 C   0  0  0  0  0  0  0  0  0  0  0  0
   -2.5661    2.3526   -0.4683 C   0  0  0  0  0  0  0  0  0  0  0  0
   -1.3158    1.8983   -0.3362 N   0  0  0  0  0  4  0  0  0  0  0  0
   -1.2258    0.5375   -0.0489 C   0  0  0  0  0  0  0  0  0  0  0  0
    0.0056   -0.1570   -0.1315 C   0  0  0  0  0  0  0  0  0  0  0  0
    0.0702   -1.6270   -0.0286 C   0  0  0  0  0  0  0  0  0  0  0  0
    0.8637   -2.2430    0.9438 C   0  0  0  0  0  0  0  0  0  0  0  0
    0.9217   -3.6148    1.0362 C   0  0  0  0  0  0  0  0  0  0  0  0
    0.1943   -4.3987    0.1636 C   0  0  0  0  0  0  0  0  0  0  0  0
   -0.5949   -3.8102   -0.8038 C   0  0  0  0  0  0  0  0  0  0  0  0
   -0.6600   -2.4391   -0.9014 C   0  0  0  0  0  0  0  0  0  0  0  0
    1.1732    0.6227   -0.3162 C   0  0  0  0  0  0  0  0  0  0  0  0
    2.5792    0.3162   -0.4569 C   0  0  0  0  0  0  0  0  0  0  0  0
    3.2992   -0.8709   -0.8515 C   0  0  0  0  0  0  0  0  0  0  0  0
    2.6603   -1.9820   -1.4202 C   0  0  0  0  0  0  0  0  0  0  0  0
    3.3561   -3.0991   -1.7903 C   0  0  0  0  0  0  0  0  0  0  0  0
    4.7313   -3.1369   -1.6325 C   0  0  0  0  0  0  0  0  0  0  0  0
    5.3975   -2.0436   -1.1419 C   0  0  0  0  0  0  0  0  0  0  0  0
    4.7174   -0.8776   -0.7642 C   0  0  0  0  0  0  0  0  0  0  0  0
    5.4373    0.3276   -0.3550 C   0  0  0  0  0  0  0  0  0  0  0  0
    6.8304    0.3403   -0.2034 C   0  0  0  0  0  0  0  0  0  0  0  0
    7.5040    1.4848    0.1381 C   0  0  0  0  0  0  0  0  0  0  0  0
    6.8100    2.6655    0.3441 C   0  0  0  0  0  0  0  0  0  0  0  0
    5.4482    2.6906    0.2108 C   0  0  0  0  0  0  0  0  0  0  0  0
    4.7319    1.5379   -0.1401 C   0  0  0  0  0  0  0  0  0  0  0  0
    3.2932    1.5245   -0.2385 C   0  0  0  0  0  0  0  0  0  0  0  0
    2.3499    2.5863   -0.1548 C   0  0  0  0  0  0  0  0  0  0  0  0
    2.5578    4.0433   -0.0713 C   0  0  0  0  0  0  0  0  0  0  0  0
    1.1442    2.0130   -0.2245 N   0  0  0  0  0  0  0  0  0  0  0  0
   -0.1244    2.8493   -0.3462 B   0  0  0  0  0  4  0  0  0  0  0  0
   -0.0933    3.5499   -1.5499 F   0  0  0  0  0  0  0  0  0  0  0  0
   -0.2235    3.7126    0.7427 F   0  0  0  0  0  0  0  0  0  0  0  0
   -2.6003    0.1366    0.1534 C   0  0  0  0  0  0  0  0  0  0  0  0
   -3.4152    1.2384   -0.2201 C   0  0  0  0  0  0  0  0  0  0  0  0
   -4.8510    1.1208   -0.2867 C   0  0  0  0  0  0  0  0  0  0  0  0
   -5.6651    2.1508   -0.7781 C   0  0  0  0  0  0  0  0  0  0  0  0
   -7.0216    1.9968   -0.8755 C   0  0  0  0  0  0  0  0  0  0  0  0
   -7.6121    0.8047   -0.4908 C   0  0  0  0  0  0  0  0  0  0  0  0
   -6.8414   -0.2217   -0.0081 C   0  0  0  0  0  0  0  0  0  0  0  0
   -5.4505   -0.0999    0.1118 C   0  0  0  0  0  0  0  0  0  0  0  0
   -4.6280   -1.1729    0.6688 C   0  0  0  0  0  0  0  0  0  0  0  0
   -5.2044   -2.3259    1.2196 C   0  0  0  0  0  0  0  0  0  0  0  0
   -4.4444   -3.2810    1.8442 C   0  0  0  0  0  0  0  0  0  0  0  0
   -3.0759   -3.1088    1.9665 C   0  0  0  0  0  0  0  0  0  0  0  0
   -2.4798   -2.0020    1.4294 C   0  0  0  0  0  0  0  0  0  0  0  0
   -3.2146   -1.0379    0.7247 C   0  0  0  0  0  0  0  0  0  0  0  0
   -3.2965    3.8757   -1.7600 H   0  0  0  0  0  0  0  0  0  0  0  0
   -3.6175    4.1500   -0.0322 H   0  0  0  0  0  0  0  0  0  0  0  0
   -1.9975    4.3727   -0.6830 H   0  0  0  0  0  0  0  0  0  0  0  0
    1.4330   -1.6265    1.6174 H   0  0  0  0  0  0  0  0  0  0  0  0
    1.5395   -4.0772    1.7876 H   0  0  0  0  0  0  0  0  0  0  0  0
    0.2432   -5.4739    0.2376 H   0  0  0  0  0  0  0  0  0  0  0  0
   -1.1636   -4.4248   -1.4812 H   0  0  0  0  0  0  0  0  0  0  0  0
   -1.2768   -1.9744   -1.6507 H   0  0  0  0  0  0  0  0  0  0  0  0
    1.6032   -1.9389   -1.5946 H   0  0  0  0  0  0  0  0  0  0  0  0
    2.8372   -3.9459   -2.2084 H   0  0  0  0  0  0  0  0  0  0  0  0
    5.2800   -4.0200   -1.9207 H   0  0  0  0  0  0  0  0  0  0  0  0
    6.4684   -2.0847   -1.0707 H   0  0  0  0  0  0  0  0  0  0  0  0
    7.3927   -0.5637   -0.3489 H   0  0  0  0  0  0  0  0  0  0  0  0
    8.5769    1.4674    0.2488 H   0  0  0  0  0  0  0  0  0  0  0  0
    7.3429    3.5618    0.6173 H   0  0  0  0  0  0  0  0  0  0  0  0
    4.9203    3.6060    0.3997 H   0  0  0  0  0  0  0  0  0  0  0  0
    1.6124    4.5609   -0.2393 H   0  0  0  0  0  0  0  0  0  0  0  0
    3.2613    4.3866   -0.8298 H   0  0  0  0  0  0  0  0  0  0  0  0
    2.9203    4.3329    0.9149 H   0  0  0  0  0  0  0  0  0  0  0  0
   -5.2180    3.0704   -1.1045 H   0  0  0  0  0  0  0  0  0  0  0  0
   -7.6306    2.7995   -1.2587 H   0  0  0  0  0  0  0  0  0  0  0  0
   -8.6811    0.6849   -0.5734 H   0  0  0  0  0  0  0  0  0  0  0  0
   -7.3248   -1.1383    0.2759 H   0  0  0  0  0  0  0  0  0  0  0  0
   -6.2686   -2.4645    1.1763 H   0  0  0  0  0  0  0  0  0  0  0  0
   -4.9144   -4.1565    2.2643 H   0  0  0  0  0  0  0  0  0  0  0  0
   -2.4840   -3.8426    2.4882 H   0  0  0  0  0  0  0  0  0  0  0  0
   -1.4289   -1.8482    1.5748 H   0  0  0  0  0  0  0  0  0  0  0  0
  1  2  1  0  0  0  0
  2  3  2  0  0  0  0
  3  4  1  0  0  0  0
  4  5  2  0  0  0  0
  5  6  1  0  0  0  0
  6  7  2  0  0  0  0
  7  8  1  0  0  0  0
  8  9  2  0  0  0  0
  9 10  1  0  0  0  0
 10 11  2  0  0  0  0
  5 12  1  0  0  0  0
 12 13  2  0  0  0  0
 13 14  1  0  0  0  0
 14 15  2  0  0  0  0
 15 16  1  0  0  0  0
 16 17  2  0  0  0  0
 17 18  1  0  0  0  0
 18 19  2  0  0  0  0
 19 20  1  0  0  0  0
 20 21  2  0  0  0  0
 21 22  1  0  0  0  0
 22 23  2  0  0  0  0
 23 24  1  0  0  0  0
 24 25  2  0  0  0  0
 25 26  1  0  0  0  0
 26 27  2  0  0  0  0
 27 28  1  0  0  0  0
 27 29  1  0  0  0  0
 29 30  1  0  0  0  0
 30 31  1  0  0  0  0
 30 32  1  0  0  0  0
  4 33  1  0  0  0  0
 33 34  2  0  0  0  0
 34 35  1  0  0  0  0
 35 36  2  0  0  0  0
 36 37  1  0  0  0  0
 37 38  2  0  0  0  0
 38 39  1  0  0  0  0
 39 40  2  0  0  0  0
 40 41  1  0  0  0  0
 41 42  2  0  0  0  0
 42 43  1  0  0  0  0
 43 44  2  0  0  0  0
 44 45  1  0  0  0  0
 45 46  2  0  0  0  0
 34  2  1  0  0  0  0
 40 35  1  0  0  0  0
 46 41  1  0  0  0  0
 30  3  1  0  0  0  0
 46 33  1  0  0  0  0
 11  6  1  0  0  0  0
 29 12  1  0  0  0  0
 26 13  1  0  0  0  0
 19 14  1  0  0  0  0
 25 20  1  0  0  0  0
  1 47  1  0  0  0  0
  1 48  1  0  0  0  0
  1 49  1  0  0  0  0
  7 50  1  0  0  0  0
  8 51  1  0  0  0  0
  9 52  1  0  0  0  0
 10 53  1  0  0  0  0
 11 54  1  0  0  0  0
 15 55  1  0  0  0  0
 16 56  1  0  0  0  0
 17 57  1  0  0  0  0
 18 58  1  0  0  0  0
 21 59  1  0  0  0  0
 22 60  1  0  0  0  0
 23 61  1  0  0  0  0
 24 62  1  0  0  0  0
 28 63  1  0  0  0  0
 28 64  1  0  0  0  0
 28 65  1  0  0  0  0
 36 66  1  0  0  0  0
 37 67  1  0  0  0  0
 38 68  1  0  0  0  0
 39 69  1  0  0  0  0
 42 70  1  0  0  0  0
 43 71  1  0  0  0  0
 44 72  1  0  0  0  0
 45 73  1  0  0  0  0
M  CHG  1   3   1
M  CHG  1  30  -1
M  END
