
  xtb     03012221243D
 energy: -12.243489001346 gnorm: 0.000202612173 xtb: 6.4.1 (afa7bdf)
 67 71  0     0  0            999 V2000
   -1.6730    5.2782    0.9164 C   0  0  0  0  0  0  0  0  0  0  0  0
   -0.6453    4.9906   -0.1643 C   0  0  0  0  0  0  0  0  0  0  0  0
   -0.0675    3.6160   -0.0474 C   0  0  0  0  0  0  0  0  0  0  0  0
   -0.6636    2.4278   -0.4875 C   0  0  0  0  0  0  0  0  0  0  0  0
   -1.9700    2.2967   -1.1796 C   0  0  0  0  0  0  0  0  0  0  0  0
    0.1859    1.3576   -0.0995 C   0  0  0  0  0  0  0  0  0  0  0  0
    0.0533   -0.0349   -0.2660 C   0  0  0  0  0  0  0  0  0  0  0  0
   -1.0483   -0.6252   -1.0676 C   0  0  0  0  0  0  0  0  0  0  0  0
   -0.8621   -0.8182   -2.4416 C   0  0  0  0  0  0  0  0  0  0  0  0
    0.4092   -0.4241   -3.1153 C   0  0  0  0  0  0  0  0  0  0  0  0
   -1.9105   -1.3449   -3.1636 C   0  0  0  0  0  0  0  0  0  0  0  0
   -3.0944   -1.6820   -2.5407 C   0  0  0  0  0  0  0  0  0  0  0  0
   -4.2010   -2.2512   -3.3550 C   0  0  0  0  0  0  0  0  0  0  0  0
   -3.2947   -1.5197   -1.2361 N   0  0  0  0  0  0  0  0  0  0  0  0
   -2.2953   -0.9993   -0.4991 C   0  0  0  0  0  0  0  0  0  0  0  0
   -2.5638   -0.8402    0.9122 C   0  0  0  0  0  0  0  0  0  0  0  0
   -3.7657   -1.1845    1.4898 C   0  0  0  0  0  0  0  0  0  0  0  0
   -3.8292   -0.9555    2.8776 C   0  0  0  0  0  0  0  0  0  0  0  0
   -2.6818   -0.4337    3.3876 C   0  0  0  0  0  0  0  0  0  0  0  0
   -1.5059   -0.2163    2.1563 S   0  0  0  0  0  0  0  0  0  0  0  0
    1.0813   -0.8280    0.2798 C   0  0  0  0  0  0  0  0  0  0  0  0
    1.2625   -2.2366    0.2985 C   0  0  0  0  0  0  0  0  0  0  0  0
    0.3436   -3.2414   -0.2920 C   0  0  0  0  0  0  0  0  0  0  0  0
    2.4628   -2.4955    0.9715 C   0  0  0  0  0  0  0  0  0  0  0  0
    3.0862   -3.8387    1.1831 C   0  0  0  0  0  0  0  0  0  0  0  0
    3.8259   -4.3337   -0.0474 C   0  0  0  0  0  0  0  0  0  0  0  0
    3.0328   -1.2609    1.3628 C   0  0  0  0  0  0  0  0  0  0  0  0
    4.2923   -1.0216    2.0900 C   0  0  0  0  0  0  0  0  0  0  0  0
    2.1890   -0.3062    0.9441 N   0  0  0  0  0  0  0  0  0  0  0  0
    2.4280    1.1872    1.1682 B   0  0  0  0  0  4  0  0  0  0  0  0
    3.6083    1.5648    0.5245 F   0  0  0  0  0  0  0  0  0  0  0  0
    2.4899    1.4444    2.5394 F   0  0  0  0  0  0  0  0  0  0  0  0
    1.2554    1.9581    0.5609 N   0  0  0  0  0  4  0  0  0  0  0  0
    1.1395    3.2931    0.6170 C   0  0  0  0  0  0  0  0  0  0  0  0
    2.1022    4.2031    1.2630 C   0  0  0  0  0  0  0  0  0  0  0  0
   -2.0921    6.2841    0.8305 H   0  0  0  0  0  0  0  0  0  0  0  0
   -2.5030    4.5694    0.8707 H   0  0  0  0  0  0  0  0  0  0  0  0
   -1.2319    5.1873    1.9116 H   0  0  0  0  0  0  0  0  0  0  0  0
    0.1678    5.7240   -0.1203 H   0  0  0  0  0  0  0  0  0  0  0  0
   -1.0871    5.1122   -1.1595 H   0  0  0  0  0  0  0  0  0  0  0  0
   -1.8569    1.7680   -2.1261 H   0  0  0  0  0  0  0  0  0  0  0  0
   -2.6772    1.7389   -0.5654 H   0  0  0  0  0  0  0  0  0  0  0  0
   -2.4106    3.2698   -1.3939 H   0  0  0  0  0  0  0  0  0  0  0  0
    1.2684   -0.6008   -2.4681 H   0  0  0  0  0  0  0  0  0  0  0  0
    0.5633   -0.9936   -4.0319 H   0  0  0  0  0  0  0  0  0  0  0  0
    0.3976    0.6350   -3.3731 H   0  0  0  0  0  0  0  0  0  0  0  0
   -1.8079   -1.4936   -4.2229 H   0  0  0  0  0  0  0  0  0  0  0  0
   -3.8959   -3.1847   -3.8281 H   0  0  0  0  0  0  0  0  0  0  0  0
   -5.0667   -2.4580   -2.7263 H   0  0  0  0  0  0  0  0  0  0  0  0
   -4.5084   -1.5548   -4.1352 H   0  0  0  0  0  0  0  0  0  0  0  0
   -4.5822   -1.5955    0.9142 H   0  0  0  0  0  0  0  0  0  0  0  0
   -4.7027   -1.1735    3.4749 H   0  0  0  0  0  0  0  0  0  0  0  0
   -2.5147   -0.1841    4.4191 H   0  0  0  0  0  0  0  0  0  0  0  0
   -0.6675   -3.1147    0.0956 H   0  0  0  0  0  0  0  0  0  0  0  0
    0.3035   -3.1403   -1.3766 H   0  0  0  0  0  0  0  0  0  0  0  0
    0.6605   -4.2584   -0.0635 H   0  0  0  0  0  0  0  0  0  0  0  0
    2.3102   -4.5528    1.4804 H   0  0  0  0  0  0  0  0  0  0  0  0
    3.7679   -3.7844    2.0394 H   0  0  0  0  0  0  0  0  0  0  0  0
    4.2830   -5.3138    0.1122 H   0  0  0  0  0  0  0  0  0  0  0  0
    4.6207   -3.6407   -0.3328 H   0  0  0  0  0  0  0  0  0  0  0  0
    3.1541   -4.4185   -0.9046 H   0  0  0  0  0  0  0  0  0  0  0  0
    5.1392   -1.4573    1.5603 H   0  0  0  0  0  0  0  0  0  0  0  0
    4.4679    0.0504    2.1876 H   0  0  0  0  0  0  0  0  0  0  0  0
    4.2516   -1.4491    3.0916 H   0  0  0  0  0  0  0  0  0  0  0  0
    2.8937    3.6274    1.7440 H   0  0  0  0  0  0  0  0  0  0  0  0
    1.6151    4.8116    2.0247 H   0  0  0  0  0  0  0  0  0  0  0  0
    2.5638    4.8661    0.5315 H   0  0  0  0  0  0  0  0  0  0  0  0
  1  2  1  0  0  0  0
  2  3  1  0  0  0  0
  3  4  2  0  0  0  0
  4  5  1  0  0  0  0
  4  6  1  0  0  0  0
  6  7  2  0  0  0  0
  7  8  1  0  0  0  0
  8  9  2  0  0  0  0
  9 10  1  0  0  0  0
  9 11  1  0  0  0  0
 11 12  2  0  0  0  0
 12 13  1  0  0  0  0
 12 14  1  0  0  0  0
 14 15  2  0  0  0  0
 15 16  1  0  0  0  0
 16 17  2  0  0  0  0
 17 18  1  0  0  0  0
 18 19  2  0  0  0  0
 19 20  1  0  0  0  0
  7 21  1  0  0  0  0
 21 22  2  0  0  0  0
 22 23  1  0  0  0  0
 22 24  1  0  0  0  0
 24 25  1  0  0  0  0
 25 26  1  0  0  0  0
 24 27  2  0  0  0  0
 27 28  1  0  0  0  0
 27 29  1  0  0  0  0
 29 30  1  0  0  0  0
 30 31  1  0  0  0  0
 30 32  1  0  0  0  0
 30 33  1  0  0  0  0
 33 34  2  0  0  0  0
 34 35  1  0  0  0  0
 34  3  1  0  0  0  0
 33  6  1  0  0  0  0
 15  8  1  0  0  0  0
 20 16  1  0  0  0  0
 29 21  1  0  0  0  0
  1 36  1  0  0  0  0
  1 37  1  0  0  0  0
  1 38  1  0  0  0  0
  2 39  1  0  0  0  0
  2 40  1  0  0  0  0
  5 41  1  0  0  0  0
  5 42  1  0  0  0  0
  5 43  1  0  0  0  0
 10 44  1  0  0  0  0
 10 45  1  0  0  0  0
 10 46  1  0  0  0  0
 11 47  1  0  0  0  0
 13 48  1  0  0  0  0
 13 49  1  0  0  0  0
 13 50  1  0  0  0  0
 17 51  1  0  0  0  0
 18 52  1  0  0  0  0
 19 53  1  0  0  0  0
 23 54  1  0  0  0  0
 23 55  1  0  0  0  0
 23 56  1  0  0  0  0
 25 57  1  0  0  0  0
 25 58  1  0  0  0  0
 26 59  1  0  0  0  0
 26 60  1  0  0  0  0
 26 61  1  0  0  0  0
 28 62  1  0  0  0  0
 28 63  1  0  0  0  0
 28 64  1  0  0  0  0
 35 65  1  0  0  0  0
 35 66  1  0  0  0  0
 35 67  1  0  0  0  0
M  CHG  1  30  -1
M  CHG  1  33   1
M  END
