
  xtb     03012221213D
 energy: -11.169661598705 gnorm: 0.000198366746 xtb: 6.4.1 (afa7bdf)
 62 64  0     0  0            999 V2000
    7.4864    2.1602    0.4253 C   0  0  0  0  0  0  0  0  0  0  0  0
    7.9340    0.9806   -0.4229 C   0  0  0  0  0  0  0  0  0  0  0  0
    7.3487   -0.3882    0.0303 C   0  0  0  0  0  0  0  0  0  0  0  0
    7.7876   -1.4796   -0.9647 C   0  0  0  0  0  0  0  0  0  0  0  0
    7.9236   -0.7452    1.4148 C   0  0  0  0  0  0  0  0  0  0  0  0
    5.8138   -0.3189    0.0476 C   0  0  0  0  0  0  0  0  0  0  0  0
    5.1276    0.0386   -1.1056 C   0  0  0  0  0  0  0  0  0  0  0  0
    3.7519    0.1098   -1.1276 C   0  0  0  0  0  0  0  0  0  0  0  0
    3.0035   -0.1790    0.0098 C   0  0  0  0  0  0  0  0  0  0  0  0
    1.5236   -0.1131   -0.0136 C   0  0  0  0  0  0  0  0  0  0  0  0
    0.7531   -1.0886    0.6172 C   0  0  0  0  0  0  0  0  0  0  0  0
   -0.6210   -1.0354    0.5838 C   0  0  0  0  0  0  0  0  0  0  0  0
   -1.2824   -0.0035   -0.0806 C   0  0  0  0  0  0  0  0  0  0  0  0
   -2.7623    0.0474   -0.1273 C   0  0  0  0  0  0  0  0  0  0  0  0
   -3.5140   -1.1080   -0.3202 C   0  0  0  0  0  0  0  0  0  0  0  0
   -4.8899   -1.0563   -0.3713 C   0  0  0  0  0  0  0  0  0  0  0  0
   -5.5739    0.1452   -0.2369 C   0  0  0  0  0  0  0  0  0  0  0  0
   -7.1118    0.1595   -0.2845 C   0  0  0  0  0  0  0  0  0  0  0  0
   -7.6575    1.6006   -0.2975 C   0  0  0  0  0  0  0  0  0  0  0  0
   -7.5854   -0.5440   -1.5712 C   0  0  0  0  0  0  0  0  0  0  0  0
   -7.6434   -0.5873    0.9708 C   0  0  0  0  0  0  0  0  0  0  0  0
   -9.1574   -0.6744    1.0804 C   0  0  0  0  0  0  0  0  0  0  0  0
   -4.8223    1.2964   -0.0329 C   0  0  0  0  0  0  0  0  0  0  0  0
   -3.4456    1.2514    0.0179 C   0  0  0  0  0  0  0  0  0  0  0  0
   -0.5117    0.9749   -0.7069 C   0  0  0  0  0  0  0  0  0  0  0  0
    0.8623    0.9207   -0.6748 C   0  0  0  0  0  0  0  0  0  0  0  0
    3.6892   -0.5396    1.1663 C   0  0  0  0  0  0  0  0  0  0  0  0
    5.0657   -0.6077    1.1825 C   0  0  0  0  0  0  0  0  0  0  0  0
    6.3979    2.2428    0.4442 H   0  0  0  0  0  0  0  0  0  0  0  0
    7.8198    2.0625    1.4598 H   0  0  0  0  0  0  0  0  0  0  0  0
    7.8790    3.1075    0.0476 H   0  0  0  0  0  0  0  0  0  0  0  0
    9.0281    0.9093   -0.4242 H   0  0  0  0  0  0  0  0  0  0  0  0
    7.6585    1.1505   -1.4698 H   0  0  0  0  0  0  0  0  0  0  0  0
    7.4438   -1.2568   -1.9742 H   0  0  0  0  0  0  0  0  0  0  0  0
    8.8735   -1.5684   -0.9935 H   0  0  0  0  0  0  0  0  0  0  0  0
    7.3773   -2.4480   -0.6790 H   0  0  0  0  0  0  0  0  0  0  0  0
    7.6138   -0.0277    2.1734 H   0  0  0  0  0  0  0  0  0  0  0  0
    9.0133   -0.7520    1.3907 H   0  0  0  0  0  0  0  0  0  0  0  0
    7.5965   -1.7360    1.7296 H   0  0  0  0  0  0  0  0  0  0  0  0
    5.6819    0.2616   -2.0009 H   0  0  0  0  0  0  0  0  0  0  0  0
    3.2402    0.3772   -2.0363 H   0  0  0  0  0  0  0  0  0  0  0  0
    1.2484   -1.8990    1.1239 H   0  0  0  0  0  0  0  0  0  0  0  0
   -1.2013   -1.7927    1.0822 H   0  0  0  0  0  0  0  0  0  0  0  0
   -3.0052   -2.0488   -0.4425 H   0  0  0  0  0  0  0  0  0  0  0  0
   -5.4459   -1.9665   -0.5158 H   0  0  0  0  0  0  0  0  0  0  0  0
   -7.2306    2.1701   -1.1230 H   0  0  0  0  0  0  0  0  0  0  0  0
   -8.7394    1.6107   -0.4245 H   0  0  0  0  0  0  0  0  0  0  0  0
   -7.4295    2.1174    0.6344 H   0  0  0  0  0  0  0  0  0  0  0  0
   -8.6647   -0.4596   -1.6940 H   0  0  0  0  0  0  0  0  0  0  0  0
   -7.3341   -1.6037   -1.5632 H   0  0  0  0  0  0  0  0  0  0  0  0
   -7.1175   -0.0943   -2.4469 H   0  0  0  0  0  0  0  0  0  0  0  0
   -7.2143   -1.5958    0.9808 H   0  0  0  0  0  0  0  0  0  0  0  0
   -7.2317   -0.0929    1.8588 H   0  0  0  0  0  0  0  0  0  0  0  0
   -9.5935   -1.1890    0.2225 H   0  0  0  0  0  0  0  0  0  0  0  0
   -9.6157    0.3145    1.1349 H   0  0  0  0  0  0  0  0  0  0  0  0
   -9.4684   -1.2207    1.9745 H   0  0  0  0  0  0  0  0  0  0  0  0
   -5.3164    2.2435    0.0933 H   0  0  0  0  0  0  0  0  0  0  0  0
   -2.8830    2.1541    0.1847 H   0  0  0  0  0  0  0  0  0  0  0  0
   -1.0068    1.7732   -1.2327 H   0  0  0  0  0  0  0  0  0  0  0  0
    1.4430    1.6877   -1.1578 H   0  0  0  0  0  0  0  0  0  0  0  0
    3.1284   -0.7565    2.0594 H   0  0  0  0  0  0  0  0  0  0  0  0
    5.5622   -0.8910    2.0937 H   0  0  0  0  0  0  0  0  0  0  0  0
  1  2  1  0  0  0  0
  2  3  1  0  0  0  0
  3  4  1  0  0  0  0
  3  5  1  0  0  0  0
  3  6  1  0  0  0  0
  6  7  2  0  0  0  0
  7  8  1  0  0  0  0
  8  9  2  0  0  0  0
  9 10  1  0  0  0  0
 10 11  2  0  0  0  0
 11 12  1  0  0  0  0
 12 13  2  0  0  0  0
 13 14  1  0  0  0  0
 14 15  2  0  0  0  0
 15 16  1  0  0  0  0
 16 17  2  0  0  0  0
 17 18  1  0  0  0  0
 18 19  1  0  0  0  0
 18 20  1  0  0  0  0
 18 21  1  0  0  0  0
 21 22  1  0  0  0  0
 17 23  1  0  0  0  0
 23 24  2  0  0  0  0
 13 25  1  0  0  0  0
 25 26  2  0  0  0  0
  9 27  1  0  0  0  0
 27 28  2  0  0  0  0
 28  6  1  0  0  0  0
 26 10  1  0  0  0  0
 24 14  1  0  0  0  0
  1 29  1  0  0  0  0
  1 30  1  0  0  0  0
  1 31  1  0  0  0  0
  2 32  1  0  0  0  0
  2 33  1  0  0  0  0
  4 34  1  0  0  0  0
  4 35  1  0  0  0  0
  4 36  1  0  0  0  0
  5 37  1  0  0  0  0
  5 38  1  0  0  0  0
  5 39  1  0  0  0  0
  7 40  1  0  0  0  0
  8 41  1  0  0  0  0
 11 42  1  0  0  0  0
 12 43  1  0  0  0  0
 15 44  1  0  0  0  0
 16 45  1  0  0  0  0
 19 46  1  0  0  0  0
 19 47  1  0  0  0  0
 19 48  1  0  0  0  0
 20 49  1  0  0  0  0
 20 50  1  0  0  0  0
 20 51  1  0  0  0  0
 21 52  1  0  0  0  0
 21 53  1  0  0  0  0
 22 54  1  0  0  0  0
 22 55  1  0  0  0  0
 22 56  1  0  0  0  0
 23 57  1  0  0  0  0
 24 58  1  0  0  0  0
 25 59  1  0  0  0  0
 26 60  1  0  0  0  0
 27 61  1  0  0  0  0
 28 62  1  0  0  0  0
M  END
