
  xtb     03012221223D
 energy: -11.339069513825 gnorm: 0.000410986610 xtb: 6.4.1 (afa7bdf)
 60 65  0     0  0            999 V2000
    2.0669   -4.7656   -1.2735 N   0  0  0  0  0  0  0  0  0  0  0  0
    1.1759   -4.0212   -1.2333 C   0  0  0  0  0  0  0  0  0  0  0  0
    0.0710   -3.1858   -1.0773 C   0  0  0  0  0  0  0  0  0  0  0  0
   -0.1664   -1.9424   -1.6400 C   0  0  0  0  0  0  0  0  0  0  0  0
    0.7341   -1.1720   -2.4467 N   0  0  0  0  0  0  0  0  0  0  0  0
    0.3885   -0.6173   -3.6151 N   0  0  0  0  0  0  0  0  0  0  0  0
    1.1811    0.3358   -3.8906 N   0  0  0  0  0  0  0  0  0  0  0  0
    2.0876    0.4616   -2.8920 C   0  0  0  0  0  0  0  0  0  0  0  0
    1.8339   -0.5039   -1.9502 C   0  0  0  0  0  0  0  0  0  0  0  0
    2.3817   -0.6454   -0.5767 C   0  0  0  0  0  0  0  0  0  0  0  0
    1.7928    0.3961    0.3968 C   0  0  0  0  0  0  0  0  0  0  0  0
    2.7423    1.5641    0.6702 C   0  0  0  0  0  0  0  0  0  0  0  0
    3.0229    2.6567   -0.3586 C   0  0  0  0  0  0  0  0  0  0  0  0
    2.3707    2.6760   -1.7435 C   0  0  0  0  0  0  0  0  0  0  0  0
    2.9737    1.6473   -2.7246 C   0  0  0  0  0  0  0  0  0  0  0  0
    2.1800    2.9609    0.8763 C   0  0  0  0  0  0  0  0  0  0  0  0
    2.7396    3.8185    2.0072 C   0  0  0  0  0  0  0  0  0  0  0  0
    2.1597    3.5257    3.2585 O   0  0  0  0  0  0  0  0  0  0  0  0
   -1.3402   -1.4235   -1.1258 N   0  0  0  0  0  0  0  0  0  0  0  0
   -1.7308   -0.0147   -1.2917 C   0  0  0  0  0  0  0  0  0  0  0  0
   -3.2585    0.1741   -1.3612 C   0  0  0  0  0  0  0  0  0  0  0  0
   -3.6199    0.5379    0.0822 C   0  0  0  0  0  0  0  0  0  0  0  0
   -4.7394    1.3949    0.2472 O   0  0  0  0  0  0  0  0  0  0  0  0
   -2.3240    1.1958    0.6303 C   0  0  0  0  0  0  0  0  0  0  0  0
   -2.1273    0.8645    2.1058 C   0  0  0  0  0  0  0  0  0  0  0  0
   -3.2262    1.3179    2.8737 O   0  0  0  0  0  0  0  0  0  0  0  0
   -1.2195    0.7799   -0.2021 O   0  0  0  0  0  0  0  0  0  0  0  0
   -1.8531   -2.3169   -0.1875 C   0  0  0  0  0  0  0  0  0  0  0  0
   -2.9077   -2.2174    0.6282 N   0  0  0  0  0  0  0  0  0  0  0  0
   -3.0470   -3.2582    1.4090 C   0  0  0  0  0  0  0  0  0  0  0  0
   -2.3199   -4.3708    1.5303 N   0  0  0  0  0  0  0  0  0  0  0  0
   -1.2681   -4.4705    0.7330 C   0  0  0  0  0  0  0  0  0  0  0  0
   -0.4262   -5.5611    0.7851 N   0  0  0  0  0  0  0  0  0  0  0  0
   -1.0012   -3.4195   -0.1703 C   0  0  0  0  0  0  0  0  0  0  0  0
    2.1742   -1.6635   -0.2282 H   0  0  0  0  0  0  0  0  0  0  0  0
    3.4729   -0.5637   -0.6048 H   0  0  0  0  0  0  0  0  0  0  0  0
    1.5192   -0.0714    1.3511 H   0  0  0  0  0  0  0  0  0  0  0  0
    0.8492    0.7739   -0.0097 H   0  0  0  0  0  0  0  0  0  0  0  0
    3.5907    1.2764    1.3019 H   0  0  0  0  0  0  0  0  0  0  0  0
    4.0424    3.0535   -0.3675 H   0  0  0  0  0  0  0  0  0  0  0  0
    1.2936    2.4907   -1.6457 H   0  0  0  0  0  0  0  0  0  0  0  0
    2.4431    3.6929   -2.1535 H   0  0  0  0  0  0  0  0  0  0  0  0
    3.9625    1.3266   -2.3807 H   0  0  0  0  0  0  0  0  0  0  0  0
    3.1313    2.0948   -3.7130 H   0  0  0  0  0  0  0  0  0  0  0  0
    1.1013    3.0717    0.7396 H   0  0  0  0  0  0  0  0  0  0  0  0
    2.5602    4.8819    1.8093 H   0  0  0  0  0  0  0  0  0  0  0  0
    3.8263    3.6952    2.0885 H   0  0  0  0  0  0  0  0  0  0  0  0
    2.2310    2.5646    3.4536 H   0  0  0  0  0  0  0  0  0  0  0  0
   -1.2460    0.3592   -2.2052 H   0  0  0  0  0  0  0  0  0  0  0  0
   -3.5409    0.9876   -2.0343 H   0  0  0  0  0  0  0  0  0  0  0  0
   -3.7538   -0.7416   -1.6975 H   0  0  0  0  0  0  0  0  0  0  0  0
   -3.8319   -0.3742    0.6550 H   0  0  0  0  0  0  0  0  0  0  0  0
   -5.5120    1.0392   -0.2419 H   0  0  0  0  0  0  0  0  0  0  0  0
   -2.4137    2.2839    0.5062 H   0  0  0  0  0  0  0  0  0  0  0  0
   -1.2138    1.3243    2.5001 H   0  0  0  0  0  0  0  0  0  0  0  0
   -2.0298   -0.2201    2.2377 H   0  0  0  0  0  0  0  0  0  0  0  0
   -3.9984    1.4162    2.2677 H   0  0  0  0  0  0  0  0  0  0  0  0
   -3.8953   -3.2076    2.0782 H   0  0  0  0  0  0  0  0  0  0  0  0
   -0.5283   -6.2825    1.4807 H   0  0  0  0  0  0  0  0  0  0  0  0
    0.4389   -5.6092    0.2578 H   0  0  0  0  0  0  0  0  0  0  0  0
  1  2  3  0  0  0  0
  2  3  1  0  0  0  0
  3  4  2  0  0  0  0
  4  5  1  0  0  0  0
  5  6  1  0  0  0  0
  6  7  2  0  0  0  0
  7  8  1  0  0  0  0
  8  9  2  0  0  0  0
  9 10  1  0  0  0  0
 10 11  1  0  0  0  0
 11 12  1  0  0  0  0
 12 13  1  0  0  0  0
 13 14  1  0  0  0  0
 14 15  1  0  0  0  0
 13 16  1  0  0  0  0
 16 17  1  0  0  0  0
 17 18  1  0  0  0  0
  4 19  1  0  0  0  0
 19 20  1  0  0  0  0
 20 21  1  0  0  0  0
 21 22  1  0  0  0  0
 22 23  1  0  0  0  0
 22 24  1  0  0  0  0
 24 25  1  0  0  0  0
 25 26  1  0  0  0  0
 24 27  1  0  0  0  0
 19 28  1  0  0  0  0
 28 29  2  0  0  0  0
 29 30  1  0  0  0  0
 30 31  2  0  0  0  0
 31 32  1  0  0  0  0
 32 33  1  0  0  0  0
 32 34  2  0  0  0  0
 34  3  1  0  0  0  0
  9  5  1  0  0  0  0
 16 12  1  0  0  0  0
 27 20  1  0  0  0  0
 34 28  1  0  0  0  0
 15  8  1  0  0  0  0
 10 35  1  0  0  0  0
 10 36  1  0  0  0  0
 11 37  1  0  0  0  0
 11 38  1  0  0  0  0
 12 39  1  0  0  0  0
 13 40  1  0  0  0  0
 14 41  1  0  0  0  0
 14 42  1  0  0  0  0
 15 43  1  0  0  0  0
 15 44  1  0  0  0  0
 16 45  1  0  0  0  0
 17 46  1  0  0  0  0
 17 47  1  0  0  0  0
 18 48  1  0  0  0  0
 20 49  1  0  0  0  0
 21 50  1  0  0  0  0
 21 51  1  0  0  0  0
 22 52  1  0  0  0  0
 23 53  1  0  0  0  0
 24 54  1  0  0  0  0
 25 55  1  0  0  0  0
 25 56  1  0  0  0  0
 26 57  1  0  0  0  0
 30 58  1  0  0  0  0
 33 59  1  0  0  0  0
 33 60  1  0  0  0  0
M  END
