
  xtb     03012221213D
 energy: -15.979115791907 gnorm: 0.000322568195 xtb: 6.4.1 (afa7bdf)
 83 88  0     0  0            999 V2000
    5.2521    6.6468    1.9146 C   0  0  0  0  0  0  0  0  0  0  0  0
    5.7993    5.8000    0.9346 O   0  0  0  0  0  0  0  0  0  0  0  0
    4.9458    4.7208    0.5812 C   0  0  0  0  0  0  0  0  0  0  0  0
    4.7594    3.6984    1.6927 C   0  0  0  0  0  0  0  0  0  0  0  0
    3.9347    2.5268    1.2635 C   0  0  0  0  0  0  0  0  0  0  0  0
    4.4026    1.3285    0.8197 C   0  0  0  0  0  0  0  0  0  0  0  0
    3.2594    0.5525    0.4797 C   0  0  0  0  0  0  0  0  0  0  0  0
    2.1416    1.2462    0.6944 N   0  0  0  0  0  0  0  0  0  0  0  0
    2.4979    2.4595    1.1645 C   0  0  0  0  0  0  0  0  0  0  0  0
    1.6238    3.5161    1.5173 C   0  0  0  0  0  0  0  0  0  0  0  0
    0.2499    3.6074    1.4474 C   0  0  0  0  0  0  0  0  0  0  0  0
   -0.7123    2.7015    0.9753 C   0  0  0  0  0  0  0  0  0  0  0  0
   -0.5390    1.4537    0.4401 N   0  0  0  0  0  0  0  0  0  0  0  0
   -1.7038    0.8396    0.0881 C   0  0  0  0  0  0  0  0  0  0  0  0
   -1.7268   -0.5300   -0.3027 C   0  0  0  0  0  0  0  0  0  0  0  0
   -0.5997   -1.2213   -0.5546 N   0  0  0  0  0  0  0  0  0  0  0  0
   -0.9378   -2.4919   -0.7969 C   0  0  0  0  0  0  0  0  0  0  0  0
   -0.0645   -3.5688   -1.1514 C   0  0  0  0  0  0  0  0  0  0  0  0
    1.3007   -3.6489   -1.1773 C   0  0  0  0  0  0  0  0  0  0  0  0
    2.2802   -2.6929   -0.7877 C   0  0  0  0  0  0  0  0  0  0  0  0
    2.0551   -1.4304   -0.3078 N   0  0  0  0  0  0  0  0  0  0  0  0
    3.2241   -0.7897   -0.0276 C   0  0  0  0  0  0  0  0  0  0  0  0
    4.2623   -1.6823   -0.3380 C   0  0  0  0  0  0  0  0  0  0  0  0
    3.6923   -2.8566   -0.7992 C   0  0  0  0  0  0  0  0  0  0  0  0
    4.4391   -4.0542   -1.2858 C   0  0  0  0  0  0  0  0  0  0  0  0
    4.5421   -4.0995   -2.8031 C   0  0  0  0  0  0  0  0  0  0  0  0
    5.1284   -5.2934   -3.3011 O   0  0  0  0  0  0  0  0  0  0  0  0
    6.4904   -5.4232   -2.9783 C   0  0  0  0  0  0  0  0  0  0  0  0
   -2.3671   -2.6348   -0.6710 C   0  0  0  0  0  0  0  0  0  0  0  0
   -3.1636   -3.8902   -0.8090 C   0  0  0  0  0  0  0  0  0  0  0  0
   -4.5145   -3.8010   -0.1070 C   0  0  0  0  0  0  0  0  0  0  0  0
   -4.3652   -3.5057    1.2794 O   0  0  0  0  0  0  0  0  0  0  0  0
   -5.4965   -2.8814    1.8413 C   0  0  0  0  0  0  0  0  0  0  0  0
   -2.8449   -1.4033   -0.3682 C   0  0  0  0  0  0  0  0  0  0  0  0
   -2.7596    1.7938    0.3646 C   0  0  0  0  0  0  0  0  0  0  0  0
   -4.1530    1.8024    0.1394 C   0  0  0  0  0  0  0  0  0  0  0  0
   -4.8132    0.7377   -0.6671 C   0  0  0  0  0  0  0  0  0  0  0  0
   -4.5274    0.6093   -1.8433 O   0  0  0  0  0  0  0  0  0  0  0  0
   -5.7251   -0.0690   -0.0269 O   0  0  0  0  0  0  0  0  0  0  0  0
   -6.5650   -0.6412   -0.9792 C   0  0  0  0  0  0  0  0  0  0  0  0
   -4.8935    2.9052    0.5878 C   0  0  0  0  0  0  0  0  0  0  0  0
   -6.3641    3.0228    0.3999 C   0  0  0  0  0  0  0  0  0  0  0  0
   -6.9566    2.4609   -0.5009 O   0  0  0  0  0  0  0  0  0  0  0  0
   -7.0188    3.8198    1.2816 O   0  0  0  0  0  0  0  0  0  0  0  0
   -4.2501    3.9725    1.2216 C   0  0  0  0  0  0  0  0  0  0  0  0
   -2.8925    4.0052    1.3928 C   0  0  0  0  0  0  0  0  0  0  0  0
   -2.1391    2.9206    0.9521 C   0  0  0  0  0  0  0  0  0  0  0  0
    4.2562    6.9745    1.6141 H   0  0  0  0  0  0  0  0  0  0  0  0
    5.8989    7.5190    2.0175 H   0  0  0  0  0  0  0  0  0  0  0  0
    5.2027    6.1298    2.8730 H   0  0  0  0  0  0  0  0  0  0  0  0
    5.3934    4.2441   -0.2987 H   0  0  0  0  0  0  0  0  0  0  0  0
    3.9850    5.1324    0.2520 H   0  0  0  0  0  0  0  0  0  0  0  0
    5.7405    3.3504    2.0304 H   0  0  0  0  0  0  0  0  0  0  0  0
    4.2988    4.1651    2.5675 H   0  0  0  0  0  0  0  0  0  0  0  0
    5.4330    1.0284    0.7378 H   0  0  0  0  0  0  0  0  0  0  0  0
    2.1277    4.3887    1.9038 H   0  0  0  0  0  0  0  0  0  0  0  0
   -0.1674    4.5349    1.8019 H   0  0  0  0  0  0  0  0  0  0  0  0
    0.3814    1.0275    0.3848 H   0  0  0  0  0  0  0  0  0  0  0  0
   -0.5875   -4.4638   -1.4490 H   0  0  0  0  0  0  0  0  0  0  0  0
    1.7129   -4.5853   -1.5142 H   0  0  0  0  0  0  0  0  0  0  0  0
    1.1261   -1.0251   -0.2378 H   0  0  0  0  0  0  0  0  0  0  0  0
    5.3154   -1.4846   -0.2425 H   0  0  0  0  0  0  0  0  0  0  0  0
    5.4376   -4.0603   -0.8399 H   0  0  0  0  0  0  0  0  0  0  0  0
    3.9509   -4.9643   -0.9252 H   0  0  0  0  0  0  0  0  0  0  0  0
    3.5448   -4.0325   -3.2535 H   0  0  0  0  0  0  0  0  0  0  0  0
    5.1107   -3.2456   -3.1888 H   0  0  0  0  0  0  0  0  0  0  0  0
    7.0348   -4.5275   -3.2801 H   0  0  0  0  0  0  0  0  0  0  0  0
    6.8922   -6.2833   -3.5154 H   0  0  0  0  0  0  0  0  0  0  0  0
    6.6081   -5.5898   -1.9075 H   0  0  0  0  0  0  0  0  0  0  0  0
   -2.5954   -4.7167   -0.3709 H   0  0  0  0  0  0  0  0  0  0  0  0
   -3.2906   -4.1252   -1.8713 H   0  0  0  0  0  0  0  0  0  0  0  0
   -5.0784   -4.7379   -0.1873 H   0  0  0  0  0  0  0  0  0  0  0  0
   -5.1280   -3.0175   -0.5629 H   0  0  0  0  0  0  0  0  0  0  0  0
   -5.6082   -1.8797    1.4235 H   0  0  0  0  0  0  0  0  0  0  0  0
   -6.3888   -3.4752    1.6400 H   0  0  0  0  0  0  0  0  0  0  0  0
   -5.3494   -2.8026    2.9189 H   0  0  0  0  0  0  0  0  0  0  0  0
   -3.8685   -1.1442   -0.1760 H   0  0  0  0  0  0  0  0  0  0  0  0
   -7.2363   -1.3543   -0.4981 H   0  0  0  0  0  0  0  0  0  0  0  0
   -7.1427    0.1707   -1.4308 H   0  0  0  0  0  0  0  0  0  0  0  0
   -5.9657   -1.1325   -1.7486 H   0  0  0  0  0  0  0  0  0  0  0  0
   -7.9618    3.8016    1.0262 H   0  0  0  0  0  0  0  0  0  0  0  0
   -4.8574    4.7963    1.5592 H   0  0  0  0  0  0  0  0  0  0  0  0
   -2.4120    4.8459    1.8583 H   0  0  0  0  0  0  0  0  0  0  0  0
  1  2  1  0  0  0  0
  2  3  1  0  0  0  0
  3  4  1  0  0  0  0
  4  5  1  0  0  0  0
  5  6  2  0  0  0  0
  6  7  1  0  0  0  0
  7  8  2  0  0  0  0
  8  9  1  0  0  0  0
  9 10  2  0  0  0  0
 10 11  1  0  0  0  0
 11 12  2  0  0  0  0
 12 13  1  0  0  0  0
 13 14  1  0  0  0  0
 14 15  2  0  0  0  0
 15 16  1  0  0  0  0
 16 17  2  0  0  0  0
 17 18  1  0  0  0  0
 18 19  2  0  0  0  0
 19 20  1  0  0  0  0
 20 21  1  0  0  0  0
 21 22  1  0  0  0  0
 22 23  2  0  0  0  0
 23 24  1  0  0  0  0
 24 25  1  0  0  0  0
 25 26  1  0  0  0  0
 26 27  1  0  0  0  0
 27 28  1  0  0  0  0
 17 29  1  0  0  0  0
 29 30  1  0  0  0  0
 30 31  1  0  0  0  0
 31 32  1  0  0  0  0
 32 33  1  0  0  0  0
 29 34  2  0  0  0  0
 14 35  1  0  0  0  0
 35 36  2  0  0  0  0
 36 37  1  0  0  0  0
 37 38  2  0  0  0  0
 37 39  1  0  0  0  0
 39 40  1  0  0  0  0
 36 41  1  0  0  0  0
 41 42  1  0  0  0  0
 42 43  2  0  0  0  0
 42 44  1  0  0  0  0
 41 45  2  0  0  0  0
 45 46  1  0  0  0  0
 46 47  2  0  0  0  0
  9  5  1  0  0  0  0
 47 12  1  0  0  0  0
 22  7  1  0  0  0  0
 47 35  1  0  0  0  0
 34 15  1  0  0  0  0
 24 20  2  0  0  0  0
  1 48  1  0  0  0  0
  1 49  1  0  0  0  0
  1 50  1  0  0  0  0
  3 51  1  0  0  0  0
  3 52  1  0  0  0  0
  4 53  1  0  0  0  0
  4 54  1  0  0  0  0
  6 55  1  0  0  0  0
 10 56  1  0  0  0  0
 11 57  1  0  0  0  0
 13 58  1  0  0  0  0
 18 59  1  0  0  0  0
 19 60  1  0  0  0  0
 21 61  1  0  0  0  0
 23 62  1  0  0  0  0
 25 63  1  0  0  0  0
 25 64  1  0  0  0  0
 26 65  1  0  0  0  0
 26 66  1  0  0  0  0
 28 67  1  0  0  0  0
 28 68  1  0  0  0  0
 28 69  1  0  0  0  0
 30 70  1  0  0  0  0
 30 71  1  0  0  0  0
 31 72  1  0  0  0  0
 31 73  1  0  0  0  0
 33 74  1  0  0  0  0
 33 75  1  0  0  0  0
 33 76  1  0  0  0  0
 34 77  1  0  0  0  0
 40 78  1  0  0  0  0
 40 79  1  0  0  0  0
 40 80  1  0  0  0  0
 44 81  1  0  0  0  0
 45 82  1  0  0  0  0
 46 83  1  0  0  0  0
M  END
