
  xtb     03012221263D
 energy: -10.539160748064 gnorm: 0.000178168819 xtb: 6.4.1 (afa7bdf)
 49 53  0     0  0            999 V2000
    6.3884   -3.4821    0.5381 C   0  0  0  0  0  0  0  0  0  0  0  0
    5.0104   -3.7497    0.6330 O   0  0  0  0  0  0  0  0  0  0  0  0
    4.1830   -2.6424    0.4304 C   0  0  0  0  0  0  0  0  0  0  0  0
    4.6374   -1.3466    0.1661 C   0  0  0  0  0  0  0  0  0  0  0  0
    3.7513   -0.3150   -0.0273 C   0  0  0  0  0  0  0  0  0  0  0  0
    2.3780   -0.5294    0.0350 C   0  0  0  0  0  0  0  0  0  0  0  0
    1.4595    0.5143   -0.1684 C   0  0  0  0  0  0  0  0  0  0  0  0
    0.5788    1.3476   -0.3289 C   0  0  0  0  0  0  0  0  0  0  0  0
   -0.5130    2.2232   -0.4710 C   0  0  0  0  0  0  0  0  0  0  0  0
   -0.3006    3.4196   -0.9641 N   0  0  0  0  0  0  0  0  0  0  0  0
   -1.3904    4.2148   -1.0212 C   0  0  0  0  0  0  0  0  0  0  0  0
   -1.2646    5.5175   -1.5423 C   0  0  0  0  0  0  0  0  0  0  0  0
   -2.3348    6.3603   -1.6072 C   0  0  0  0  0  0  0  0  0  0  0  0
   -3.5842    5.9408   -1.1522 C   0  0  0  0  0  0  0  0  0  0  0  0
   -3.7422    4.6864   -0.6413 C   0  0  0  0  0  0  0  0  0  0  0  0
   -2.6587    3.7881   -0.5604 C   0  0  0  0  0  0  0  0  0  0  0  0
   -2.8630    2.5537   -0.0579 N   0  0  0  0  0  0  0  0  0  0  0  0
   -1.7993    1.7787   -0.0388 C   0  0  0  0  0  0  0  0  0  0  0  0
   -1.9629    0.4034    0.4756 C   0  0  0  0  0  0  0  0  0  0  0  0
   -2.4723    0.0546    1.7106 C   0  0  0  0  0  0  0  0  0  0  0  0
   -2.4417   -1.3124    1.8508 N   0  0  0  0  0  0  0  0  0  0  0  0
   -2.8791   -2.0701    3.0179 C   0  0  0  0  0  0  0  0  0  0  0  0
   -1.9251   -1.8756    0.6817 C   0  0  0  0  0  0  0  0  0  0  0  0
   -1.6921   -3.2016    0.3028 C   0  0  0  0  0  0  0  0  0  0  0  0
   -1.1864   -3.4471   -0.9463 C   0  0  0  0  0  0  0  0  0  0  0  0
   -0.9091   -2.3979   -1.8348 C   0  0  0  0  0  0  0  0  0  0  0  0
   -1.1277   -1.0942   -1.4783 C   0  0  0  0  0  0  0  0  0  0  0  0
   -1.6327   -0.8209   -0.1986 C   0  0  0  0  0  0  0  0  0  0  0  0
    1.9216   -1.8160    0.3025 C   0  0  0  0  0  0  0  0  0  0  0  0
    2.8023   -2.8493    0.4955 C   0  0  0  0  0  0  0  0  0  0  0  0
    6.6256   -3.1025   -0.4564 H   0  0  0  0  0  0  0  0  0  0  0  0
    6.9334   -4.4124    0.7005 H   0  0  0  0  0  0  0  0  0  0  0  0
    6.6806   -2.7626    1.3037 H   0  0  0  0  0  0  0  0  0  0  0  0
    5.6928   -1.1525    0.1123 H   0  0  0  0  0  0  0  0  0  0  0  0
    4.1113    0.6790   -0.2322 H   0  0  0  0  0  0  0  0  0  0  0  0
   -0.2960    5.8335   -1.8888 H   0  0  0  0  0  0  0  0  0  0  0  0
   -2.2167    7.3530   -2.0097 H   0  0  0  0  0  0  0  0  0  0  0  0
   -4.4260    6.6115   -1.2060 H   0  0  0  0  0  0  0  0  0  0  0  0
   -4.7031    4.3541   -0.2904 H   0  0  0  0  0  0  0  0  0  0  0  0
   -2.8212    0.7427    2.4605 H   0  0  0  0  0  0  0  0  0  0  0  0
   -3.2092   -1.3945    3.8042 H   0  0  0  0  0  0  0  0  0  0  0  0
   -2.0581   -2.6749    3.3973 H   0  0  0  0  0  0  0  0  0  0  0  0
   -3.7056   -2.7240    2.7474 H   0  0  0  0  0  0  0  0  0  0  0  0
   -1.9138   -4.0008    0.9872 H   0  0  0  0  0  0  0  0  0  0  0  0
   -1.0007   -4.4627   -1.2547 H   0  0  0  0  0  0  0  0  0  0  0  0
   -0.5147   -2.6230   -2.8118 H   0  0  0  0  0  0  0  0  0  0  0  0
   -0.9164   -0.2832   -2.1524 H   0  0  0  0  0  0  0  0  0  0  0  0
    0.8606   -1.9902    0.3467 H   0  0  0  0  0  0  0  0  0  0  0  0
    2.4461   -3.8435    0.6975 H   0  0  0  0  0  0  0  0  0  0  0  0
  1  2  1  0  0  0  0
  2  3  1  0  0  0  0
  3  4  2  0  0  0  0
  4  5  1  0  0  0  0
  5  6  2  0  0  0  0
  6  7  1  0  0  0  0
  7  8  3  0  0  0  0
  8  9  1  0  0  0  0
  9 10  2  0  0  0  0
 10 11  1  0  0  0  0
 11 12  2  0  0  0  0
 12 13  1  0  0  0  0
 13 14  2  0  0  0  0
 14 15  1  0  0  0  0
 15 16  2  0  0  0  0
 16 17  1  0  0  0  0
 17 18  2  0  0  0  0
 18 19  1  0  0  0  0
 19 20  2  0  0  0  0
 20 21  1  0  0  0  0
 21 22  1  0  0  0  0
 21 23  1  0  0  0  0
 23 24  2  0  0  0  0
 24 25  1  0  0  0  0
 25 26  2  0  0  0  0
 26 27  1  0  0  0  0
 27 28  2  0  0  0  0
  6 29  1  0  0  0  0
 29 30  2  0  0  0  0
 30  3  1  0  0  0  0
 18  9  1  0  0  0  0
 28 19  1  0  0  0  0
 16 11  1  0  0  0  0
 28 23  1  0  0  0  0
  1 31  1  0  0  0  0
  1 32  1  0  0  0  0
  1 33  1  0  0  0  0
  4 34  1  0  0  0  0
  5 35  1  0  0  0  0
 12 36  1  0  0  0  0
 13 37  1  0  0  0  0
 14 38  1  0  0  0  0
 15 39  1  0  0  0  0
 20 40  1  0  0  0  0
 22 41  1  0  0  0  0
 22 42  1  0  0  0  0
 22 43  1  0  0  0  0
 24 44  1  0  0  0  0
 25 45  1  0  0  0  0
 26 46  1  0  0  0  0
 27 47  1  0  0  0  0
 29 48  1  0  0  0  0
 30 49  1  0  0  0  0
M  END
