
  xtb     03012221313D
 energy: -10.230321101472 gnorm: 0.000230679710 xtb: 6.4.1 (afa7bdf)
 49 53  0     0  0            999 V2000
    7.8821    0.9624   -0.8691 C   0  0  0  0  0  0  0  0  0  0  0  0
    7.1584   -0.2009   -0.3547 N   0  0  0  0  0  0  0  0  0  0  0  0
    7.9626   -1.3447    0.0771 C   0  0  0  0  0  0  0  0  0  0  0  0
    5.7538   -0.2263   -0.2968 C   0  0  0  0  0  0  0  0  0  0  0  0
    5.0705   -1.3403    0.2030 C   0  0  0  0  0  0  0  0  0  0  0  0
    3.7002   -1.3640    0.2596 C   0  0  0  0  0  0  0  0  0  0  0  0
    2.9392   -0.2762   -0.1802 C   0  0  0  0  0  0  0  0  0  0  0  0
    1.4960   -0.3352   -0.1008 C   0  0  0  0  0  0  0  0  0  0  0  0
    0.6437    0.6379   -0.4672 C   0  0  0  0  0  0  0  0  0  0  0  0
   -0.7757    0.4862   -0.3419 C   0  0  0  0  0  0  0  0  0  0  0  0
   -1.3775   -0.6043    0.1344 N   0  0  0  0  0  0  0  0  0  0  0  0
   -2.7015   -0.3453    0.0920 C   0  0  0  0  0  0  0  0  0  0  0  0
   -3.8074   -1.1818    0.4882 C   0  0  0  0  0  0  0  0  0  0  0  0
   -3.5856   -2.4603    1.0014 C   0  0  0  0  0  0  0  0  0  0  0  0
   -4.6383   -3.2521    1.3774 C   0  0  0  0  0  0  0  0  0  0  0  0
   -5.9364   -2.7808    1.2477 C   0  0  0  0  0  0  0  0  0  0  0  0
   -6.1757   -1.5256    0.7448 C   0  0  0  0  0  0  0  0  0  0  0  0
   -5.1252   -0.6864    0.3494 C   0  0  0  0  0  0  0  0  0  0  0  0
   -5.3546    0.6602   -0.1910 C   0  0  0  0  0  0  0  0  0  0  0  0
   -6.6401    1.1957   -0.3471 C   0  0  0  0  0  0  0  0  0  0  0  0
   -6.8313    2.4572   -0.8539 C   0  0  0  0  0  0  0  0  0  0  0  0
   -5.7468    3.2379   -1.2267 C   0  0  0  0  0  0  0  0  0  0  0  0
   -4.4748    2.7492   -1.0893 C   0  0  0  0  0  0  0  0  0  0  0  0
   -4.2572    1.4680   -0.5756 C   0  0  0  0  0  0  0  0  0  0  0  0
   -2.9291    0.9396   -0.4238 C   0  0  0  0  0  0  0  0  0  0  0  0
   -1.6976    1.4632   -0.6987 N   0  0  0  0  0  0  0  0  0  0  0  0
    3.6209    0.8376   -0.6816 C   0  0  0  0  0  0  0  0  0  0  0  0
    4.9916    0.8611   -0.7379 C   0  0  0  0  0  0  0  0  0  0  0  0
    7.6115    1.1401   -1.9079 H   0  0  0  0  0  0  0  0  0  0  0  0
    7.6370    1.8441   -0.2806 H   0  0  0  0  0  0  0  0  0  0  0  0
    8.9580    0.8106   -0.8192 H   0  0  0  0  0  0  0  0  0  0  0  0
    9.0251   -1.1498   -0.0504 H   0  0  0  0  0  0  0  0  0  0  0  0
    7.7797   -1.5530    1.1293 H   0  0  0  0  0  0  0  0  0  0  0  0
    7.7057   -2.2237   -0.5105 H   0  0  0  0  0  0  0  0  0  0  0  0
    5.6304   -2.1905    0.5495 H   0  0  0  0  0  0  0  0  0  0  0  0
    3.1932   -2.2303    0.6491 H   0  0  0  0  0  0  0  0  0  0  0  0
    1.0672   -1.2399    0.2918 H   0  0  0  0  0  0  0  0  0  0  0  0
    1.0114    1.5645   -0.8630 H   0  0  0  0  0  0  0  0  0  0  0  0
   -2.5721   -2.8103    1.0955 H   0  0  0  0  0  0  0  0  0  0  0  0
   -4.4593   -4.2383    1.7731 H   0  0  0  0  0  0  0  0  0  0  0  0
   -6.7624   -3.4064    1.5446 H   0  0  0  0  0  0  0  0  0  0  0  0
   -7.1914   -1.1869    0.6557 H   0  0  0  0  0  0  0  0  0  0  0  0
   -7.4983    0.6133   -0.0664 H   0  0  0  0  0  0  0  0  0  0  0  0
   -7.8306    2.8460   -0.9637 H   0  0  0  0  0  0  0  0  0  0  0  0
   -5.9062    4.2270   -1.6236 H   0  0  0  0  0  0  0  0  0  0  0  0
   -3.6279    3.3478   -1.3757 H   0  0  0  0  0  0  0  0  0  0  0  0
   -1.4897    2.3850   -1.0863 H   0  0  0  0  0  0  0  0  0  0  0  0
    3.0632    1.6887   -1.0292 H   0  0  0  0  0  0  0  0  0  0  0  0
    5.4911    1.7297   -1.1284 H   0  0  0  0  0  0  0  0  0  0  0  0
  1  2  1  0  0  0  0
  2  3  1  0  0  0  0
  2  4  1  0  0  0  0
  4  5  2  0  0  0  0
  5  6  1  0  0  0  0
  6  7  2  0  0  0  0
  7  8  1  0  0  0  0
  8  9  2  0  0  0  0
  9 10  1  0  0  0  0
 10 11  2  0  0  0  0
 11 12  1  0  0  0  0
 12 13  2  0  0  0  0
 13 14  1  0  0  0  0
 14 15  2  0  0  0  0
 15 16  1  0  0  0  0
 16 17  2  0  0  0  0
 17 18  1  0  0  0  0
 18 19  2  0  0  0  0
 19 20  1  0  0  0  0
 20 21  2  0  0  0  0
 21 22  1  0  0  0  0
 22 23  2  0  0  0  0
 23 24  1  0  0  0  0
 24 25  2  0  0  0  0
 25 26  1  0  0  0  0
  7 27  1  0  0  0  0
 27 28  2  0  0  0  0
 28  4  1  0  0  0  0
 26 10  1  0  0  0  0
 25 12  1  0  0  0  0
 18 13  1  0  0  0  0
 24 19  1  0  0  0  0
  1 29  1  0  0  0  0
  1 30  1  0  0  0  0
  1 31  1  0  0  0  0
  3 32  1  0  0  0  0
  3 33  1  0  0  0  0
  3 34  1  0  0  0  0
  5 35  1  0  0  0  0
  6 36  1  0  0  0  0
  8 37  1  0  0  0  0
  9 38  1  0  0  0  0
 14 39  1  0  0  0  0
 15 40  1  0  0  0  0
 16 41  1  0  0  0  0
 17 42  1  0  0  0  0
 20 43  1  0  0  0  0
 21 44  1  0  0  0  0
 22 45  1  0  0  0  0
 23 46  1  0  0  0  0
 26 47  1  0  0  0  0
 27 48  1  0  0  0  0
 28 49  1  0  0  0  0
M  END
