
  xtb     03012221213D
 energy: -10.108273429836 gnorm: 0.000353105811 xtb: 6.4.1 (afa7bdf)
 48 51  0     0  0            999 V2000
   -0.4676    5.4152   -3.3900 C   0  0  0  0  0  0  0  0  0  0  0  0
    0.2816    4.2954   -3.7796 O   0  0  0  0  0  0  0  0  0  0  0  0
    0.0525    3.2251   -2.9236 C   0  0  0  0  0  0  0  0  0  0  0  0
    0.8366    3.0484   -1.7827 C   0  0  0  0  0  0  0  0  0  0  0  0
    0.6068    1.9930   -0.9366 C   0  0  0  0  0  0  0  0  0  0  0  0
   -0.4040    1.0687   -1.2026 C   0  0  0  0  0  0  0  0  0  0  0  0
   -0.6790   -0.0588   -0.3035 C   0  0  0  0  0  0  0  0  0  0  0  0
   -1.9180   -0.5469   -0.0980 N   0  0  0  0  0  0  0  0  0  0  0  0
   -1.8065   -1.5089    0.8101 C   0  0  0  0  0  0  0  0  0  0  0  0
   -2.9338   -2.2917    1.3014 C   0  0  0  0  0  0  0  0  0  0  0  0
   -2.7705   -3.2785    2.2708 C   0  0  0  0  0  0  0  0  0  0  0  0
   -3.8501   -4.0023    2.7184 C   0  0  0  0  0  0  0  0  0  0  0  0
   -5.1249   -3.7650    2.2146 C   0  0  0  0  0  0  0  0  0  0  0  0
   -6.2237   -4.5035    2.6744 C   0  0  0  0  0  0  0  0  0  0  0  0
   -7.1355   -5.1150    3.0551 N   0  0  0  0  0  0  0  0  0  0  0  0
   -5.2875   -2.7790    1.2470 C   0  0  0  0  0  0  0  0  0  0  0  0
   -4.2099   -2.0541    0.7980 C   0  0  0  0  0  0  0  0  0  0  0  0
   -0.4919   -1.6647    1.2086 N   0  0  0  0  0  0  0  0  0  0  0  0
    0.2470   -0.7653    0.4979 C   0  0  0  0  0  0  0  0  0  0  0  0
    1.7062   -0.6596    0.5401 C   0  0  0  0  0  0  0  0  0  0  0  0
    2.4525   -0.4181   -0.6159 C   0  0  0  0  0  0  0  0  0  0  0  0
    3.8205   -0.3344   -0.5676 C   0  0  0  0  0  0  0  0  0  0  0  0
    4.4973   -0.4947    0.6429 C   0  0  0  0  0  0  0  0  0  0  0  0
    5.8812   -0.3979    0.6980 O   0  0  0  0  0  0  0  0  0  0  0  0
    6.2824    0.9304    0.9038 C   0  0  0  0  0  0  0  0  0  0  0  0
    3.7570   -0.7556    1.7977 C   0  0  0  0  0  0  0  0  0  0  0  0
    2.3888   -0.8394    1.7439 C   0  0  0  0  0  0  0  0  0  0  0  0
   -1.1937    1.2569   -2.3354 C   0  0  0  0  0  0  0  0  0  0  0  0
   -0.9683    2.3102   -3.1859 C   0  0  0  0  0  0  0  0  0  0  0  0
   -0.2742    6.2283   -4.0915 H   0  0  0  0  0  0  0  0  0  0  0  0
   -1.5308    5.1693   -3.4038 H   0  0  0  0  0  0  0  0  0  0  0  0
   -0.1722    5.7237   -2.3857 H   0  0  0  0  0  0  0  0  0  0  0  0
    1.6205    3.7557   -1.5825 H   0  0  0  0  0  0  0  0  0  0  0  0
    1.2021    1.8745   -0.0477 H   0  0  0  0  0  0  0  0  0  0  0  0
   -1.7917   -3.4696    2.6700 H   0  0  0  0  0  0  0  0  0  0  0  0
   -3.7228   -4.7648    3.4683 H   0  0  0  0  0  0  0  0  0  0  0  0
   -6.2733   -2.5924    0.8554 H   0  0  0  0  0  0  0  0  0  0  0  0
   -4.3355   -1.2915    0.0503 H   0  0  0  0  0  0  0  0  0  0  0  0
   -0.1222   -2.3729    1.8438 H   0  0  0  0  0  0  0  0  0  0  0  0
    1.9375   -0.3082   -1.5550 H   0  0  0  0  0  0  0  0  0  0  0  0
    4.3942   -0.1508   -1.4576 H   0  0  0  0  0  0  0  0  0  0  0  0
    5.8077    1.3247    1.8037 H   0  0  0  0  0  0  0  0  0  0  0  0
    7.3664    0.9542    1.0256 H   0  0  0  0  0  0  0  0  0  0  0  0
    6.0000    1.5357    0.0410 H   0  0  0  0  0  0  0  0  0  0  0  0
    4.2825   -0.8923    2.7251 H   0  0  0  0  0  0  0  0  0  0  0  0
    1.8220   -1.0369    2.6377 H   0  0  0  0  0  0  0  0  0  0  0  0
   -1.9867    0.5555   -2.5323 H   0  0  0  0  0  0  0  0  0  0  0  0
   -1.5694    2.4478   -4.0661 H   0  0  0  0  0  0  0  0  0  0  0  0
  1  2  1  0  0  0  0
  2  3  1  0  0  0  0
  3  4  2  0  0  0  0
  4  5  1  0  0  0  0
  5  6  2  0  0  0  0
  6  7  1  0  0  0  0
  7  8  1  0  0  0  0
  8  9  2  0  0  0  0
  9 10  1  0  0  0  0
 10 11  2  0  0  0  0
 11 12  1  0  0  0  0
 12 13  2  0  0  0  0
 13 14  1  0  0  0  0
 14 15  3  0  0  0  0
 13 16  1  0  0  0  0
 16 17  2  0  0  0  0
  9 18  1  0  0  0  0
 18 19  1  0  0  0  0
 19 20  1  0  0  0  0
 20 21  2  0  0  0  0
 21 22  1  0  0  0  0
 22 23  2  0  0  0  0
 23 24  1  0  0  0  0
 24 25  1  0  0  0  0
 23 26  1  0  0  0  0
 26 27  2  0  0  0  0
  6 28  1  0  0  0  0
 28 29  2  0  0  0  0
 29  3  1  0  0  0  0
 19  7  2  0  0  0  0
 27 20  1  0  0  0  0
 17 10  1  0  0  0  0
  1 30  1  0  0  0  0
  1 31  1  0  0  0  0
  1 32  1  0  0  0  0
  4 33  1  0  0  0  0
  5 34  1  0  0  0  0
 11 35  1  0  0  0  0
 12 36  1  0  0  0  0
 16 37  1  0  0  0  0
 17 38  1  0  0  0  0
 18 39  1  0  0  0  0
 21 40  1  0  0  0  0
 22 41  1  0  0  0  0
 25 42  1  0  0  0  0
 25 43  1  0  0  0  0
 25 44  1  0  0  0  0
 26 45  1  0  0  0  0
 27 46  1  0  0  0  0
 28 47  1  0  0  0  0
 29 48  1  0  0  0  0
M  END
