
  xtb     03022211543D
 energy: -21.629993821649 gnorm: 0.000383231771 xtb: 6.4.1 (afa7bdf)
116121  0     0  0            999 V2000
   -0.4997    0.3675   -0.7767 C   0  0  0  0  0  0  0  0  0  0  0  0
    0.2760    0.1567    0.5150 C   0  0  0  0  0  0  0  0  0  0  0  0
    1.1486    1.3549    0.9132 C   0  0  0  0  0  0  0  0  0  0  0  0
    0.3724    2.6626    1.0986 C   0  0  0  0  0  0  0  0  0  0  0  0
   -0.7112    2.5885    2.1776 C   0  0  0  0  0  0  0  0  0  0  0  0
   -0.1812    2.5848    3.6161 C   0  0  0  0  0  0  0  0  0  0  0  0
    0.3089    3.9545    4.1055 C   0  0  0  0  0  0  0  0  0  0  0  0
   -0.7227    5.0825    3.9538 C   0  0  0  0  0  0  0  0  0  0  0  0
   -2.1084    4.7340    4.5055 C   0  0  0  0  0  0  0  0  0  0  0  0
   -2.1980    4.6688    6.0374 C   0  0  0  0  0  0  0  0  0  0  0  0
   -2.4356    6.0287    6.7028 C   0  0  0  0  0  0  0  0  0  0  0  0
   -3.7123    6.7424    6.2353 C   0  0  0  0  0  0  0  0  0  0  0  0
   -5.0047    5.9105    6.3706 C   0  0  0  0  0  0  0  0  0  0  0  0
   -5.3875    5.6094    7.8447 C   0  0  0  0  0  0  0  0  0  0  0  0
   -5.2204    6.7608    8.8499 C   0  0  0  0  0  0  0  0  0  0  0  0
   -6.0064    8.0349    8.5374 C   0  0  0  0  0  0  0  0  0  0  0  0
   -7.5301    7.8694    8.5867 C   0  0  0  0  0  0  0  0  0  0  0  0
   -8.1026    7.7553   10.0016 C   0  0  0  0  0  0  0  0  0  0  0  0
   -7.8020    8.9628   10.8981 C   0  0  0  0  0  0  0  0  0  0  0  0
   -8.2062   10.3147   10.2992 C   0  0  0  0  0  0  0  0  0  0  0  0
   -9.6930   10.4336    9.9524 C   0  0  0  0  0  0  0  0  0  0  0  0
  -10.6332   10.2827   11.1523 C   0  0  0  0  0  0  0  0  0  0  0  0
  -10.4427   11.3622   12.2062 C   0  0  0  0  0  0  0  0  0  0  0  0
   -6.1696    6.5200    5.5759 C   0  0  0  0  0  0  0  0  0  0  0  0
   -5.7633    6.9557    4.2414 N   0  0  0  0  0  0  0  0  0  0  0  0
   -5.4708    8.3039    3.9349 C   0  0  0  0  0  0  0  0  0  0  0  0
   -5.6090    9.5602    4.5472 C   0  0  0  0  0  0  0  0  0  0  0  0
   -5.0278   10.7011    3.9973 C   0  0  0  0  0  0  0  0  0  0  0  0
   -5.1853   11.9928    4.6320 C   0  0  0  0  0  0  0  0  0  0  0  0
   -5.8352   12.2980    5.7810 C   0  0  0  0  0  0  0  0  0  0  0  0
   -5.8368   13.6295    6.1961 C   0  0  0  0  0  0  0  0  0  0  0  0
   -5.8232   14.7443    6.5300 N   0  0  0  0  0  0  0  0  0  0  0  0
   -6.4981   11.3798    6.5925 C   0  0  0  0  0  0  0  0  0  0  0  0
   -7.0371   10.5815    7.2433 N   0  0  0  0  0  0  0  0  0  0  0  0
   -4.2148   10.6056    2.7744 C   0  0  0  0  0  0  0  0  0  0  0  0
   -3.5170   11.6542    2.1616 C   0  0  0  0  0  0  0  0  0  0  0  0
   -2.7220   11.4259    1.0560 C   0  0  0  0  0  0  0  0  0  0  0  0
   -2.5535   10.1590    0.5125 C   0  0  0  0  0  0  0  0  0  0  0  0
   -3.2106    9.0652    1.0563 C   0  0  0  0  0  0  0  0  0  0  0  0
   -3.0202    7.6562    0.6236 C   0  0  0  0  0  0  0  0  0  0  0  0
   -2.1124    7.2456   -0.3415 C   0  0  0  0  0  0  0  0  0  0  0  0
   -1.9082    5.8952   -0.5884 C   0  0  0  0  0  0  0  0  0  0  0  0
   -2.5809    4.9137    0.1092 C   0  0  0  0  0  0  0  0  0  0  0  0
   -3.5333    5.2363    1.0816 C   0  0  0  0  0  0  0  0  0  0  0  0
   -4.2431    4.2850    1.9520 C   0  0  0  0  0  0  0  0  0  0  0  0
   -4.0115    2.8468    1.8710 C   0  0  0  0  0  0  0  0  0  0  0  0
   -3.8914    2.0682    0.7678 C   0  0  0  0  0  0  0  0  0  0  0  0
   -3.5016    0.7413    0.9495 C   0  0  0  0  0  0  0  0  0  0  0  0
   -3.1118   -0.3403    1.1286 N   0  0  0  0  0  0  0  0  0  0  0  0
   -4.1048    2.5080   -0.5379 C   0  0  0  0  0  0  0  0  0  0  0  0
   -4.2469    2.8856   -1.6289 N   0  0  0  0  0  0  0  0  0  0  0  0
   -5.0350    4.7403    3.0075 C   0  0  0  0  0  0  0  0  0  0  0  0
   -5.2231    6.1170    3.2356 C   0  0  0  0  0  0  0  0  0  0  0  0
   -4.5927    6.9708    2.3302 C   0  0  0  0  0  0  0  0  0  0  0  0
   -3.7289    6.6166    1.2913 C   0  0  0  0  0  0  0  0  0  0  0  0
   -4.7397    8.2779    2.7520 C   0  0  0  0  0  0  0  0  0  0  0  0
   -4.0622    9.3448    2.1609 C   0  0  0  0  0  0  0  0  0  0  0  0
   -1.2001    1.1997   -0.6937 H   0  0  0  0  0  0  0  0  0  0  0  0
   -1.0880   -0.5127   -1.0453 H   0  0  0  0  0  0  0  0  0  0  0  0
    0.1688    0.5872   -1.6106 H   0  0  0  0  0  0  0  0  0  0  0  0
   -0.4220   -0.0820    1.3276 H   0  0  0  0  0  0  0  0  0  0  0  0
    0.9054   -0.7394    0.4217 H   0  0  0  0  0  0  0  0  0  0  0  0
    1.6955    1.1233    1.8355 H   0  0  0  0  0  0  0  0  0  0  0  0
    1.9247    1.4969    0.1500 H   0  0  0  0  0  0  0  0  0  0  0  0
    1.0618    3.4828    1.3343 H   0  0  0  0  0  0  0  0  0  0  0  0
   -0.0785    2.9441    0.1387 H   0  0  0  0  0  0  0  0  0  0  0  0
   -1.4072    3.4262    2.0595 H   0  0  0  0  0  0  0  0  0  0  0  0
   -1.3250    1.6969    2.0049 H   0  0  0  0  0  0  0  0  0  0  0  0
   -0.9668    2.2278    4.2946 H   0  0  0  0  0  0  0  0  0  0  0  0
    0.6193    1.8410    3.7091 H   0  0  0  0  0  0  0  0  0  0  0  0
    0.6104    3.8764    5.1583 H   0  0  0  0  0  0  0  0  0  0  0  0
    1.2285    4.2255    3.5709 H   0  0  0  0  0  0  0  0  0  0  0  0
   -0.3581    5.9975    4.4360 H   0  0  0  0  0  0  0  0  0  0  0  0
   -0.8101    5.3439    2.8913 H   0  0  0  0  0  0  0  0  0  0  0  0
   -2.8425    5.4567    4.1339 H   0  0  0  0  0  0  0  0  0  0  0  0
   -2.4318    3.7787    4.0764 H   0  0  0  0  0  0  0  0  0  0  0  0
   -3.0032    3.9849    6.3335 H   0  0  0  0  0  0  0  0  0  0  0  0
   -1.2872    4.2050    6.4349 H   0  0  0  0  0  0  0  0  0  0  0  0
   -2.4709    5.8985    7.7914 H   0  0  0  0  0  0  0  0  0  0  0  0
   -1.5677    6.6751    6.5214 H   0  0  0  0  0  0  0  0  0  0  0  0
   -3.8328    7.6912    6.7679 H   0  0  0  0  0  0  0  0  0  0  0  0
   -3.5933    7.0407    5.1885 H   0  0  0  0  0  0  0  0  0  0  0  0
   -4.8028    4.9465    5.8772 H   0  0  0  0  0  0  0  0  0  0  0  0
   -6.4215    5.2478    7.8708 H   0  0  0  0  0  0  0  0  0  0  0  0
   -4.7885    4.7586    8.1957 H   0  0  0  0  0  0  0  0  0  0  0  0
   -5.5000    6.4117    9.8520 H   0  0  0  0  0  0  0  0  0  0  0  0
   -4.1544    7.0066    8.9339 H   0  0  0  0  0  0  0  0  0  0  0  0
   -5.7129    8.8330    9.2296 H   0  0  0  0  0  0  0  0  0  0  0  0
   -5.7020    8.4202    7.5588 H   0  0  0  0  0  0  0  0  0  0  0  0
   -8.0037    8.7197    8.0796 H   0  0  0  0  0  0  0  0  0  0  0  0
   -7.8244    6.9949    7.9939 H   0  0  0  0  0  0  0  0  0  0  0  0
   -9.1889    7.6111    9.9441 H   0  0  0  0  0  0  0  0  0  0  0  0
   -7.7232    6.8409   10.4742 H   0  0  0  0  0  0  0  0  0  0  0  0
   -8.2980    8.8325   11.8686 H   0  0  0  0  0  0  0  0  0  0  0  0
   -6.7311    8.9769   11.1391 H   0  0  0  0  0  0  0  0  0  0  0  0
   -7.9302   11.1216   10.9892 H   0  0  0  0  0  0  0  0  0  0  0  0
   -7.6064   10.5061    9.4007 H   0  0  0  0  0  0  0  0  0  0  0  0
   -9.8802   11.4039    9.4740 H   0  0  0  0  0  0  0  0  0  0  0  0
   -9.9464    9.6897    9.1869 H   0  0  0  0  0  0  0  0  0  0  0  0
  -11.6756   10.2914   10.8041 H   0  0  0  0  0  0  0  0  0  0  0  0
  -10.4978    9.2916   11.6032 H   0  0  0  0  0  0  0  0  0  0  0  0
  -10.5689   12.3579   11.7776 H   0  0  0  0  0  0  0  0  0  0  0  0
  -11.1585   11.2652   13.0254 H   0  0  0  0  0  0  0  0  0  0  0  0
   -9.4445   11.3238   12.6446 H   0  0  0  0  0  0  0  0  0  0  0  0
   -6.9924    5.8067    5.4732 H   0  0  0  0  0  0  0  0  0  0  0  0
   -6.5857    7.3857    6.0891 H   0  0  0  0  0  0  0  0  0  0  0  0
   -6.1793    9.6114    5.4510 H   0  0  0  0  0  0  0  0  0  0  0  0
   -4.7283   12.8270    4.1324 H   0  0  0  0  0  0  0  0  0  0  0  0
   -3.5892   12.6509    2.5565 H   0  0  0  0  0  0  0  0  0  0  0  0
   -2.2005   12.2562    0.6091 H   0  0  0  0  0  0  0  0  0  0  0  0
   -1.9020   10.0220   -0.3325 H   0  0  0  0  0  0  0  0  0  0  0  0
   -1.5458    7.9801   -0.8862 H   0  0  0  0  0  0  0  0  0  0  0  0
   -1.1936    5.6040   -1.3405 H   0  0  0  0  0  0  0  0  0  0  0  0
   -2.3646    3.8821   -0.0948 H   0  0  0  0  0  0  0  0  0  0  0  0
   -3.9170    2.3362    2.8168 H   0  0  0  0  0  0  0  0  0  0  0  0
   -5.4949    4.0339    3.6722 H   0  0  0  0  0  0  0  0  0  0  0  0
  1  2  1  0  0  0  0
  1 58  1  0  0  0  0
  1 59  1  0  0  0  0
  1 60  1  0  0  0  0
  2  3  1  0  0  0  0
  2 61  1  0  0  0  0
  2 62  1  0  0  0  0
  3  4  1  0  0  0  0
  3 63  1  0  0  0  0
  3 64  1  0  0  0  0
  4  5  1  0  0  0  0
  4 65  1  0  0  0  0
  4 66  1  0  0  0  0
  5  6  1  0  0  0  0
  5 67  1  0  0  0  0
  5 68  1  0  0  0  0
  6  7  1  0  0  0  0
  6 69  1  0  0  0  0
  6 70  1  0  0  0  0
  7  8  1  0  0  0  0
  7 71  1  0  0  0  0
  7 72  1  0  0  0  0
  8  9  1  0  0  0  0
  8 73  1  0  0  0  0
  8 74  1  0  0  0  0
  9 10  1  0  0  0  0
  9 75  1  0  0  0  0
  9 76  1  0  0  0  0
 10 11  1  0  0  0  0
 10 77  1  0  0  0  0
 10 78  1  0  0  0  0
 11 12  1  0  0  0  0
 11 79  1  0  0  0  0
 11 80  1  0  0  0  0
 12 13  1  0  0  0  0
 12 81  1  0  0  0  0
 12 82  1  0  0  0  0
 13 14  1  0  0  0  0
 13 24  1  0  0  0  0
 13 83  1  0  0  0  0
 14 15  1  0  0  0  0
 14 84  1  0  0  0  0
 14 85  1  0  0  0  0
 15 16  1  0  0  0  0
 15 86  1  0  0  0  0
 15 87  1  0  0  0  0
 16 17  1  0  0  0  0
 16 88  1  0  0  0  0
 16 89  1  0  0  0  0
 17 18  1  0  0  0  0
 17 90  1  0  0  0  0
 17 91  1  0  0  0  0
 18 19  1  0  0  0  0
 18 92  1  0  0  0  0
 18 93  1  0  0  0  0
 19 20  1  0  0  0  0
 19 94  1  0  0  0  0
 19 95  1  0  0  0  0
 20 21  1  0  0  0  0
 20 96  1  0  0  0  0
 20 97  1  0  0  0  0
 21 22  1  0  0  0  0
 21 98  1  0  0  0  0
 21 99  1  0  0  0  0
 22 23  1  0  0  0  0
 22100  1  0  0  0  0
 22101  1  0  0  0  0
 23102  1  0  0  0  0
 23103  1  0  0  0  0
 23104  1  0  0  0  0
 24 25  1  0  0  0  0
 24105  1  0  0  0  0
 24106  1  0  0  0  0
 25 26  1  0  0  0  0
 26 27  2  0  0  0  0
 27 28  1  0  0  0  0
 27107  1  0  0  0  0
 28 29  1  0  0  0  0
 28 35  2  0  0  0  0
 29 30  2  0  0  0  0
 29108  1  0  0  0  0
 30 31  1  0  0  0  0
 30 33  1  0  0  0  0
 31 32  3  0  0  0  0
 33 34  3  0  0  0  0
 35 36  1  0  0  0  0
 36 37  2  0  0  0  0
 36109  1  0  0  0  0
 37 38  1  0  0  0  0
 37110  1  0  0  0  0
 38 39  2  0  0  0  0
 38111  1  0  0  0  0
 39 40  1  0  0  0  0
 40 41  2  0  0  0  0
 41 42  1  0  0  0  0
 41112  1  0  0  0  0
 42 43  2  0  0  0  0
 42113  1  0  0  0  0
 43 44  1  0  0  0  0
 43114  1  0  0  0  0
 44 45  2  0  0  0  0
 45 46  1  0  0  0  0
 45 52  1  0  0  0  0
 46 47  2  0  0  0  0
 46115  1  0  0  0  0
 47 48  1  0  0  0  0
 47 50  1  0  0  0  0
 48 49  3  0  0  0  0
 50 51  3  0  0  0  0
 52 53  2  0  0  0  0
 52116  1  0  0  0  0
 53 54  1  0  0  0  0
 53 25  1  0  0  0  0
 54 55  2  0  0  0  0
 54 56  1  0  0  0  0
 55 40  1  0  0  0  0
 55 44  1  0  0  0  0
 56 57  2  0  0  0  0
 56 26  1  0  0  0  0
 57 35  1  0  0  0  0
 57 39  1  0  0  0  0
M  END
