
  xtb     03012221323D
 energy: -20.877100993706 gnorm: 0.000151412254 xtb: 6.4.1 (afa7bdf)
110117  0     0  0            999 V2000
    9.8384   -2.7463   -3.1538 C   0  0  0  0  0  0  0  0  0  0  0  0
   10.5728   -1.4422   -2.8879 C   0  0  0  0  0  0  0  0  0  0  0  0
    9.6948   -0.1877   -2.9923 C   0  0  0  0  0  0  0  0  0  0  0  0
    8.5412   -0.1328   -1.9695 C   0  0  0  0  0  0  0  0  0  0  0  0
    7.2248   -0.7217   -2.4875 C   0  0  0  0  0  0  0  0  0  0  0  0
    6.1401   -0.8295   -1.4114 C   0  0  0  0  0  0  0  0  0  0  0  0
    5.6706    0.5234   -0.8814 C   0  0  0  0  0  0  0  0  0  0  0  0
    4.5454    0.4182    0.1478 C   0  0  0  0  0  0  0  0  0  0  0  0
    4.9288   -0.3553    1.4126 C   0  0  0  0  0  0  0  0  0  0  0  0
    6.0941    0.2501    2.1985 C   0  0  0  0  0  0  0  0  0  0  0  0
    5.8359    1.6576    2.7436 C   0  0  0  0  0  0  0  0  0  0  0  0
    4.7463    1.7122    3.8075 C   0  0  0  0  0  0  0  0  0  0  0  0
    3.4216    1.4654    3.2627 N   0  0  0  0  0  0  0  0  0  0  0  0
    2.5905    0.4128    3.6608 C   0  0  0  0  0  0  0  0  0  0  0  0
    2.8484   -0.4556    4.4707 O   0  0  0  0  0  0  0  0  0  0  0  0
    1.3673    0.5556    2.8646 C   0  0  0  0  0  0  0  0  0  0  0  0
    1.5008    1.6507    2.0456 C   0  0  0  0  0  0  0  0  0  0  0  0
    0.4466    2.0696    1.1997 C   0  0  0  0  0  0  0  0  0  0  0  0
    0.5764    3.2351    0.4039 C   0  0  0  0  0  0  0  0  0  0  0  0
   -0.4699    3.7150   -0.3037 C   0  0  0  0  0  0  0  0  0  0  0  0
   -1.7543    3.1183   -0.1891 C   0  0  0  0  0  0  0  0  0  0  0  0
   -2.8774    3.6983   -0.7970 C   0  0  0  0  0  0  0  0  0  0  0  0
   -4.1531    3.2277   -0.5862 C   0  0  0  0  0  0  0  0  0  0  0  0
   -5.3054    3.8611   -1.2584 C   0  0  0  0  0  0  0  0  0  0  0  0
   -6.3917    3.1033   -1.6904 C   0  0  0  0  0  0  0  0  0  0  0  0
   -7.4617    3.6912   -2.3279 C   0  0  0  0  0  0  0  0  0  0  0  0
   -7.4848    5.0584   -2.5625 C   0  0  0  0  0  0  0  0  0  0  0  0
   -8.6560    5.6976   -3.2237 C   0  0  0  0  0  0  0  0  0  0  0  0
   -6.4128    5.8223   -2.1239 C   0  0  0  0  0  0  0  0  0  0  0  0
   -5.3408    5.2369   -1.4863 C   0  0  0  0  0  0  0  0  0  0  0  0
   -4.3446    2.1355    0.3134 C   0  0  0  0  0  0  0  0  0  0  0  0
   -5.6455    1.7006    0.5547 O   0  0  0  0  0  0  0  0  0  0  0  0
   -5.7614    0.5981    1.4245 C   0  0  0  0  0  0  0  0  0  0  0  0
   -3.2312    1.5585    0.9036 C   0  0  0  0  0  0  0  0  0  0  0  0
   -1.9248    1.9673    0.6184 C   0  0  0  0  0  0  0  0  0  0  0  0
   -0.7580    1.3255    1.2012 C   0  0  0  0  0  0  0  0  0  0  0  0
   -0.7766    0.0234    1.8435 C   0  0  0  0  0  0  0  0  0  0  0  0
    0.2346   -0.2888    2.7842 C   0  0  0  0  0  0  0  0  0  0  0  0
    0.1421   -1.4530    3.5872 C   0  0  0  0  0  0  0  0  0  0  0  0
   -0.8652   -2.3374    3.4176 C   0  0  0  0  0  0  0  0  0  0  0  0
   -1.8001   -2.1734    2.3605 C   0  0  0  0  0  0  0  0  0  0  0  0
   -2.7508   -3.1649    2.0774 C   0  0  0  0  0  0  0  0  0  0  0  0
   -3.5687   -3.1059    0.9726 C   0  0  0  0  0  0  0  0  0  0  0  0
   -4.5648   -4.1668    0.7216 C   0  0  0  0  0  0  0  0  0  0  0  0
   -4.3009   -5.4966    1.0505 C   0  0  0  0  0  0  0  0  0  0  0  0
   -5.2385   -6.4813    0.8279 C   0  0  0  0  0  0  0  0  0  0  0  0
   -6.4743   -6.1766    0.2754 C   0  0  0  0  0  0  0  0  0  0  0  0
   -7.4748   -7.2469    0.0092 C   0  0  0  0  0  0  0  0  0  0  0  0
   -6.7382   -4.8581   -0.0663 C   0  0  0  0  0  0  0  0  0  0  0  0
   -5.8027   -3.8717    0.1549 C   0  0  0  0  0  0  0  0  0  0  0  0
   -3.4186   -2.0161    0.0621 C   0  0  0  0  0  0  0  0  0  0  0  0
   -4.2171   -1.9950   -1.0789 O   0  0  0  0  0  0  0  0  0  0  0  0
   -4.0563   -0.8664   -1.9071 C   0  0  0  0  0  0  0  0  0  0  0  0
   -2.4874   -1.0315    0.3527 C   0  0  0  0  0  0  0  0  0  0  0  0
   -1.7206   -1.0345    1.5221 C   0  0  0  0  0  0  0  0  0  0  0  0
    2.8218    2.2470    2.2699 C   0  0  0  0  0  0  0  0  0  0  0  0
    3.3127    3.1926    1.6852 O   0  0  0  0  0  0  0  0  0  0  0  0
   10.5168   -3.6026   -3.1578 H   0  0  0  0  0  0  0  0  0  0  0  0
    9.3339   -2.7263   -4.1214 H   0  0  0  0  0  0  0  0  0  0  0  0
    9.0835   -2.9438   -2.3914 H   0  0  0  0  0  0  0  0  0  0  0  0
   11.4182   -1.3526   -3.5848 H   0  0  0  0  0  0  0  0  0  0  0  0
   11.0329   -1.4753   -1.8913 H   0  0  0  0  0  0  0  0  0  0  0  0
   10.3313    0.7009   -2.8769 H   0  0  0  0  0  0  0  0  0  0  0  0
    9.2826   -0.1084   -4.0054 H   0  0  0  0  0  0  0  0  0  0  0  0
    8.8438   -0.6505   -1.0514 H   0  0  0  0  0  0  0  0  0  0  0  0
    8.3642    0.9054   -1.6601 H   0  0  0  0  0  0  0  0  0  0  0  0
    6.8565   -0.1118   -3.3218 H   0  0  0  0  0  0  0  0  0  0  0  0
    7.4105   -1.7093   -2.9252 H   0  0  0  0  0  0  0  0  0  0  0  0
    5.2744   -1.3787   -1.8021 H   0  0  0  0  0  0  0  0  0  0  0  0
    6.5177   -1.4397   -0.5836 H   0  0  0  0  0  0  0  0  0  0  0  0
    6.5172    1.0661   -0.4436 H   0  0  0  0  0  0  0  0  0  0  0  0
    5.3468    1.1467   -1.7270 H   0  0  0  0  0  0  0  0  0  0  0  0
    3.6742   -0.0550   -0.3223 H   0  0  0  0  0  0  0  0  0  0  0  0
    4.2056    1.4230    0.4241 H   0  0  0  0  0  0  0  0  0  0  0  0
    4.0590   -0.4364    2.0740 H   0  0  0  0  0  0  0  0  0  0  0  0
    5.1645   -1.3925    1.1436 H   0  0  0  0  0  0  0  0  0  0  0  0
    6.3486   -0.4079    3.0388 H   0  0  0  0  0  0  0  0  0  0  0  0
    6.9888    0.2568    1.5645 H   0  0  0  0  0  0  0  0  0  0  0  0
    5.5595    2.3303    1.9238 H   0  0  0  0  0  0  0  0  0  0  0  0
    6.7684    2.0684    3.1539 H   0  0  0  0  0  0  0  0  0  0  0  0
    4.9299    0.9730    4.5915 H   0  0  0  0  0  0  0  0  0  0  0  0
    4.7162    2.6918    4.2931 H   0  0  0  0  0  0  0  0  0  0  0  0
    1.5300    3.7332    0.3912 H   0  0  0  0  0  0  0  0  0  0  0  0
   -0.3587    4.6001   -0.9069 H   0  0  0  0  0  0  0  0  0  0  0  0
   -2.7294    4.5417   -1.4487 H   0  0  0  0  0  0  0  0  0  0  0  0
   -6.3893    2.0435   -1.5027 H   0  0  0  0  0  0  0  0  0  0  0  0
   -8.2966    3.0904   -2.6454 H   0  0  0  0  0  0  0  0  0  0  0  0
   -9.4052    5.9879   -2.4865 H   0  0  0  0  0  0  0  0  0  0  0  0
   -9.1277    5.0165   -3.9329 H   0  0  0  0  0  0  0  0  0  0  0  0
   -8.3588    6.5923   -3.7720 H   0  0  0  0  0  0  0  0  0  0  0  0
   -6.4292    6.8869   -2.2831 H   0  0  0  0  0  0  0  0  0  0  0  0
   -4.5262    5.8479   -1.1380 H   0  0  0  0  0  0  0  0  0  0  0  0
   -6.8163    0.3384    1.5158 H   0  0  0  0  0  0  0  0  0  0  0  0
   -5.2242   -0.2586    1.0169 H   0  0  0  0  0  0  0  0  0  0  0  0
   -5.3771    0.8594    2.4110 H   0  0  0  0  0  0  0  0  0  0  0  0
   -3.3697    0.7749    1.6216 H   0  0  0  0  0  0  0  0  0  0  0  0
    0.9056   -1.6165    4.3276 H   0  0  0  0  0  0  0  0  0  0  0  0
   -0.9275   -3.2163    4.0367 H   0  0  0  0  0  0  0  0  0  0  0  0
   -2.8368   -3.9995    2.7511 H   0  0  0  0  0  0  0  0  0  0  0  0
   -3.3418   -5.7549    1.4649 H   0  0  0  0  0  0  0  0  0  0  0  0
   -5.0156   -7.5042    1.0790 H   0  0  0  0  0  0  0  0  0  0  0  0
   -7.3777   -8.0635    0.7254 H   0  0  0  0  0  0  0  0  0  0  0  0
   -7.3429   -7.6593   -0.9916 H   0  0  0  0  0  0  0  0  0  0  0  0
   -8.4923   -6.8614    0.0831 H   0  0  0  0  0  0  0  0  0  0  0  0
   -7.6857   -4.6120   -0.5141 H   0  0  0  0  0  0  0  0  0  0  0  0
   -6.0136   -2.8538   -0.1240 H   0  0  0  0  0  0  0  0  0  0  0  0
   -4.7505   -0.9488   -2.7438 H   0  0  0  0  0  0  0  0  0  0  0  0
   -3.0387   -0.8311   -2.2971 H   0  0  0  0  0  0  0  0  0  0  0  0
   -4.2864    0.0421   -1.3501 H   0  0  0  0  0  0  0  0  0  0  0  0
   -2.3300   -0.2401   -0.3525 H   0  0  0  0  0  0  0  0  0  0  0  0
  1  2  1  0  0  0  0
  2  3  1  0  0  0  0
  3  4  1  0  0  0  0
  4  5  1  0  0  0  0
  5  6  1  0  0  0  0
  6  7  1  0  0  0  0
  7  8  1  0  0  0  0
  8  9  1  0  0  0  0
  9 10  1  0  0  0  0
 10 11  1  0  0  0  0
 11 12  1  0  0  0  0
 12 13  1  0  0  0  0
 13 14  1  0  0  0  0
 14 15  2  0  0  0  0
 14 16  1  0  0  0  0
 16 17  2  0  0  0  0
 17 18  1  0  0  0  0
 18 19  2  0  0  0  0
 19 20  1  0  0  0  0
 20 21  2  0  0  0  0
 21 22  1  0  0  0  0
 22 23  2  0  0  0  0
 23 24  1  0  0  0  0
 24 25  2  0  0  0  0
 25 26  1  0  0  0  0
 26 27  2  0  0  0  0
 27 28  1  0  0  0  0
 27 29  1  0  0  0  0
 29 30  2  0  0  0  0
 23 31  1  0  0  0  0
 31 32  1  0  0  0  0
 32 33  1  0  0  0  0
 31 34  2  0  0  0  0
 34 35  1  0  0  0  0
 35 36  2  0  0  0  0
 36 37  1  0  0  0  0
 37 38  2  0  0  0  0
 38 39  1  0  0  0  0
 39 40  2  0  0  0  0
 40 41  1  0  0  0  0
 41 42  2  0  0  0  0
 42 43  1  0  0  0  0
 43 44  1  0  0  0  0
 44 45  2  0  0  0  0
 45 46  1  0  0  0  0
 46 47  2  0  0  0  0
 47 48  1  0  0  0  0
 47 49  1  0  0  0  0
 49 50  2  0  0  0  0
 43 51  2  0  0  0  0
 51 52  1  0  0  0  0
 52 53  1  0  0  0  0
 51 54  1  0  0  0  0
 54 55  2  0  0  0  0
 17 56  1  0  0  0  0
 56 57  2  0  0  0  0
 56 13  1  0  0  0  0
 38 16  1  0  0  0  0
 55 41  1  0  0  0  0
 36 18  1  0  0  0  0
 55 37  1  0  0  0  0
 35 21  1  0  0  0  0
 50 44  1  0  0  0  0
 30 24  1  0  0  0  0
  1 58  1  0  0  0  0
  1 59  1  0  0  0  0
  1 60  1  0  0  0  0
  2 61  1  0  0  0  0
  2 62  1  0  0  0  0
  3 63  1  0  0  0  0
  3 64  1  0  0  0  0
  4 65  1  0  0  0  0
  4 66  1  0  0  0  0
  5 67  1  0  0  0  0
  5 68  1  0  0  0  0
  6 69  1  0  0  0  0
  6 70  1  0  0  0  0
  7 71  1  0  0  0  0
  7 72  1  0  0  0  0
  8 73  1  0  0  0  0
  8 74  1  0  0  0  0
  9 75  1  0  0  0  0
  9 76  1  0  0  0  0
 10 77  1  0  0  0  0
 10 78  1  0  0  0  0
 11 79  1  0  0  0  0
 11 80  1  0  0  0  0
 12 81  1  0  0  0  0
 12 82  1  0  0  0  0
 19 83  1  0  0  0  0
 20 84  1  0  0  0  0
 22 85  1  0  0  0  0
 25 86  1  0  0  0  0
 26 87  1  0  0  0  0
 28 88  1  0  0  0  0
 28 89  1  0  0  0  0
 28 90  1  0  0  0  0
 29 91  1  0  0  0  0
 30 92  1  0  0  0  0
 33 93  1  0  0  0  0
 33 94  1  0  0  0  0
 33 95  1  0  0  0  0
 34 96  1  0  0  0  0
 39 97  1  0  0  0  0
 40 98  1  0  0  0  0
 42 99  1  0  0  0  0
 45100  1  0  0  0  0
 46101  1  0  0  0  0
 48102  1  0  0  0  0
 48103  1  0  0  0  0
 48104  1  0  0  0  0
 49105  1  0  0  0  0
 50106  1  0  0  0  0
 53107  1  0  0  0  0
 53108  1  0  0  0  0
 53109  1  0  0  0  0
 54110  1  0  0  0  0
M  END
