
  xtb     03012221303D
 energy: -8.933073613285 gnorm: 0.000242170724 xtb: 6.4.1 (afa7bdf)
 38 42  0     0  0            999 V2000
    5.7902    0.2078   -2.2108 N   0  0  0  0  0  0  0  0  0  0  0  0
    4.6968    0.3449   -1.8415 C   0  0  0  0  0  0  0  0  0  0  0  0
    3.3876    0.4817   -1.3705 C   0  0  0  0  0  0  0  0  0  0  0  0
    2.5799    1.4561   -1.8707 C   0  0  0  0  0  0  0  0  0  0  0  0
    1.2392    1.6177   -1.4340 C   0  0  0  0  0  0  0  0  0  0  0  0
    0.4763    2.7263   -1.8704 C   0  0  0  0  0  0  0  0  0  0  0  0
   -0.7946    2.9080   -1.4386 C   0  0  0  0  0  0  0  0  0  0  0  0
   -1.4393    1.9275   -0.6485 C   0  0  0  0  0  0  0  0  0  0  0  0
   -2.7804    2.1186   -0.2251 C   0  0  0  0  0  0  0  0  0  0  0  0
   -3.4773    1.1443    0.4209 C   0  0  0  0  0  0  0  0  0  0  0  0
   -4.7902    1.3804    0.8394 C   0  0  0  0  0  0  0  0  0  0  0  0
   -5.8842    1.5456    1.1951 N   0  0  0  0  0  0  0  0  0  0  0  0
   -2.8853   -0.1561    0.5834 C   0  0  0  0  0  0  0  0  0  0  0  0
   -3.6437   -1.2329    1.0736 C   0  0  0  0  0  0  0  0  0  0  0  0
   -3.1377   -2.5006    1.0867 C   0  0  0  0  0  0  0  0  0  0  0  0
   -1.8630   -2.7442    0.5870 C   0  0  0  0  0  0  0  0  0  0  0  0
   -1.0970   -1.7111    0.1253 C   0  0  0  0  0  0  0  0  0  0  0  0
   -1.5524   -0.3800    0.1671 C   0  0  0  0  0  0  0  0  0  0  0  0
   -0.7538    0.7397   -0.3070 C   0  0  0  0  0  0  0  0  0  0  0  0
    0.6728    0.6869   -0.5340 C   0  0  0  0  0  0  0  0  0  0  0  0
    1.5843   -0.2015    0.1705 C   0  0  0  0  0  0  0  0  0  0  0  0
    1.2386   -0.8507    1.3706 C   0  0  0  0  0  0  0  0  0  0  0  0
    2.1102   -1.6882    2.0079 C   0  0  0  0  0  0  0  0  0  0  0  0
    3.3850   -1.8949    1.4922 C   0  0  0  0  0  0  0  0  0  0  0  0
    3.7833   -1.2246    0.3718 C   0  0  0  0  0  0  0  0  0  0  0  0
    2.9140   -0.3409   -0.2902 C   0  0  0  0  0  0  0  0  0  0  0  0
    2.9683    2.1199   -2.6232 H   0  0  0  0  0  0  0  0  0  0  0  0
    0.9395    3.4539   -2.5141 H   0  0  0  0  0  0  0  0  0  0  0  0
   -1.3480    3.7824   -1.7344 H   0  0  0  0  0  0  0  0  0  0  0  0
   -3.2589    3.0636   -0.4145 H   0  0  0  0  0  0  0  0  0  0  0  0
   -4.6480   -1.0461    1.4111 H   0  0  0  0  0  0  0  0  0  0  0  0
   -3.7359   -3.3179    1.4552 H   0  0  0  0  0  0  0  0  0  0  0  0
   -1.4834   -3.7519    0.5583 H   0  0  0  0  0  0  0  0  0  0  0  0
   -0.1325   -1.9179   -0.3047 H   0  0  0  0  0  0  0  0  0  0  0  0
    0.2736   -0.6595    1.8066 H   0  0  0  0  0  0  0  0  0  0  0  0
    1.8138   -2.1847    2.9168 H   0  0  0  0  0  0  0  0  0  0  0  0
    4.0672   -2.5603    1.9955 H   0  0  0  0  0  0  0  0  0  0  0  0
    4.7851   -1.3413   -0.0027 H   0  0  0  0  0  0  0  0  0  0  0  0
  1  2  3  0  0  0  0
  2  3  1  0  0  0  0
  3  4  2  0  0  0  0
  4  5  1  0  0  0  0
  5  6  2  0  0  0  0
  6  7  1  0  0  0  0
  7  8  2  0  0  0  0
  8  9  1  0  0  0  0
  9 10  2  0  0  0  0
 10 11  1  0  0  0  0
 11 12  3  0  0  0  0
 10 13  1  0  0  0  0
 13 14  2  0  0  0  0
 14 15  1  0  0  0  0
 15 16  2  0  0  0  0
 16 17  1  0  0  0  0
 17 18  2  0  0  0  0
 18 19  1  0  0  0  0
 19 20  2  0  0  0  0
 20 21  1  0  0  0  0
 21 22  2  0  0  0  0
 22 23  1  0  0  0  0
 23 24  2  0  0  0  0
 24 25  1  0  0  0  0
 25 26  2  0  0  0  0
 26  3  1  0  0  0  0
 20  5  1  0  0  0  0
 26 21  1  0  0  0  0
 19  8  1  0  0  0  0
 18 13  1  0  0  0  0
  4 27  1  0  0  0  0
  6 28  1  0  0  0  0
  7 29  1  0  0  0  0
  9 30  1  0  0  0  0
 14 31  1  0  0  0  0
 15 32  1  0  0  0  0
 16 33  1  0  0  0  0
 17 34  1  0  0  0  0
 22 35  1  0  0  0  0
 23 36  1  0  0  0  0
 24 37  1  0  0  0  0
 25 38  1  0  0  0  0
M  END
