
  xtb     03012221223D
 energy: -14.383158473433 gnorm: 0.000217897357 xtb: 6.4.1 (afa7bdf)
 74 78  0     0  0            999 V2000
   -4.7833   -4.7414   -0.9524 C   0  0  0  0  0  0  0  0  0  0  0  0
   -3.7492   -3.7336   -0.5879 C   0  0  0  0  0  0  0  0  0  0  0  0
   -2.4009   -4.0081   -0.7584 C   0  0  0  0  0  0  0  0  0  0  0  0
   -1.4277   -3.0747   -0.4527 C   0  0  0  0  0  0  0  0  0  0  0  0
    0.0039   -3.4279   -0.6437 C   0  0  0  0  0  0  0  0  0  0  0  0
   -1.8164   -1.8214    0.0284 C   0  0  0  0  0  0  0  0  0  0  0  0
   -0.7250   -0.7331    0.3492 B   0  0  0  0  0  0  0  0  0  0  0  0
    0.3014   -1.0031    1.4733 C   0  0  0  0  0  0  0  0  0  0  0  0
   -0.1569   -1.9254    2.4113 C   0  0  0  0  0  0  0  0  0  0  0  0
    0.5609   -2.2047    3.5446 C   0  0  0  0  0  0  0  0  0  0  0  0
    1.7679   -1.5568    3.7764 C   0  0  0  0  0  0  0  0  0  0  0  0
    2.2410   -0.6468    2.8687 C   0  0  0  0  0  0  0  0  0  0  0  0
    1.5364   -0.3473    1.6921 C   0  0  0  0  0  0  0  0  0  0  0  0
    2.1020    0.5778    0.7662 N   0  0  0  0  0  0  0  0  0  0  0  0
    2.2369    0.2306   -0.6221 C   0  0  0  0  0  0  0  0  0  0  0  0
    2.1088    1.1932   -1.6225 C   0  0  0  0  0  0  0  0  0  0  0  0
    2.2869    0.8605   -2.9459 C   0  0  0  0  0  0  0  0  0  0  0  0
    2.6000   -0.4389   -3.2968 C   0  0  0  0  0  0  0  0  0  0  0  0
    2.7414   -1.4032   -2.3168 C   0  0  0  0  0  0  0  0  0  0  0  0
    2.5663   -1.0715   -0.9927 C   0  0  0  0  0  0  0  0  0  0  0  0
    2.7773    1.7487    1.2491 C   0  0  0  0  0  0  0  0  0  0  0  0
    2.3933    2.3471    2.4486 C   0  0  0  0  0  0  0  0  0  0  0  0
    3.0296    3.4751    2.9138 C   0  0  0  0  0  0  0  0  0  0  0  0
    4.0710    4.0288    2.1947 C   0  0  0  0  0  0  0  0  0  0  0  0
    4.4766    3.4430    1.0112 C   0  0  0  0  0  0  0  0  0  0  0  0
    3.8398    2.3153    0.5451 C   0  0  0  0  0  0  0  0  0  0  0  0
   -0.8589    0.6749   -0.3305 C   0  0  0  0  0  0  0  0  0  0  0  0
   -0.9495    1.8544    0.4156 C   0  0  0  0  0  0  0  0  0  0  0  0
   -1.0288    1.8550    1.9019 C   0  0  0  0  0  0  0  0  0  0  0  0
   -1.0533    3.0614   -0.2525 C   0  0  0  0  0  0  0  0  0  0  0  0
   -1.0820    3.1291   -1.6366 C   0  0  0  0  0  0  0  0  0  0  0  0
   -1.2107    4.4389   -2.3328 C   0  0  0  0  0  0  0  0  0  0  0  0
   -1.0384    1.9456   -2.3563 C   0  0  0  0  0  0  0  0  0  0  0  0
   -0.9219    0.7193   -1.7261 C   0  0  0  0  0  0  0  0  0  0  0  0
   -0.8724   -0.5250   -2.5397 C   0  0  0  0  0  0  0  0  0  0  0  0
   -3.1682   -1.5289    0.2188 C   0  0  0  0  0  0  0  0  0  0  0  0
   -3.5975   -0.2152    0.7675 C   0  0  0  0  0  0  0  0  0  0  0  0
   -4.1139   -2.4868   -0.1028 C   0  0  0  0  0  0  0  0  0  0  0  0
   -5.6769   -4.6295   -0.3365 H   0  0  0  0  0  0  0  0  0  0  0  0
   -5.0787   -4.6328   -1.9970 H   0  0  0  0  0  0  0  0  0  0  0  0
   -4.4101   -5.7570   -0.8119 H   0  0  0  0  0  0  0  0  0  0  0  0
   -2.1041   -4.9695   -1.1392 H   0  0  0  0  0  0  0  0  0  0  0  0
    0.6517   -2.6067   -0.3453 H   0  0  0  0  0  0  0  0  0  0  0  0
    0.2146   -3.6598   -1.6886 H   0  0  0  0  0  0  0  0  0  0  0  0
    0.2738   -4.2976   -0.0431 H   0  0  0  0  0  0  0  0  0  0  0  0
   -1.1031   -2.4087    2.2450 H   0  0  0  0  0  0  0  0  0  0  0  0
    0.1874   -2.9198    4.2594 H   0  0  0  0  0  0  0  0  0  0  0  0
    2.3317   -1.7740    4.6680 H   0  0  0  0  0  0  0  0  0  0  0  0
    3.1866   -0.1611    3.0360 H   0  0  0  0  0  0  0  0  0  0  0  0
    1.8434    2.1980   -1.3427 H   0  0  0  0  0  0  0  0  0  0  0  0
    2.1739    1.6127   -3.7093 H   0  0  0  0  0  0  0  0  0  0  0  0
    2.7352   -0.6999   -4.3336 H   0  0  0  0  0  0  0  0  0  0  0  0
    2.9943   -2.4148   -2.5892 H   0  0  0  0  0  0  0  0  0  0  0  0
    2.7135   -1.8061   -0.2203 H   0  0  0  0  0  0  0  0  0  0  0  0
    1.5943    1.9060    3.0174 H   0  0  0  0  0  0  0  0  0  0  0  0
    2.7171    3.9252    3.8420 H   0  0  0  0  0  0  0  0  0  0  0  0
    4.5698    4.9119    2.5591 H   0  0  0  0  0  0  0  0  0  0  0  0
    5.2947    3.8684    0.4532 H   0  0  0  0  0  0  0  0  0  0  0  0
    4.1720    1.8483   -0.3651 H   0  0  0  0  0  0  0  0  0  0  0  0
   -0.7271    0.8994    2.3265 H   0  0  0  0  0  0  0  0  0  0  0  0
   -2.0473    2.0607    2.2338 H   0  0  0  0  0  0  0  0  0  0  0  0
   -0.3867    2.6290    2.3228 H   0  0  0  0  0  0  0  0  0  0  0  0
   -1.1276    3.9706    0.3179 H   0  0  0  0  0  0  0  0  0  0  0  0
   -0.7265    4.4139   -3.3102 H   0  0  0  0  0  0  0  0  0  0  0  0
   -2.2600    4.6968   -2.4828 H   0  0  0  0  0  0  0  0  0  0  0  0
   -0.7461    5.2389   -1.7544 H   0  0  0  0  0  0  0  0  0  0  0  0
   -1.0873    1.9835   -3.4301 H   0  0  0  0  0  0  0  0  0  0  0  0
   -0.1037   -1.1994   -2.1649 H   0  0  0  0  0  0  0  0  0  0  0  0
   -1.8292   -1.0477   -2.5115 H   0  0  0  0  0  0  0  0  0  0  0  0
   -0.6384   -0.3096   -3.5831 H   0  0  0  0  0  0  0  0  0  0  0  0
   -3.4122    0.5864    0.0517 H   0  0  0  0  0  0  0  0  0  0  0  0
   -4.6625   -0.2096    1.0038 H   0  0  0  0  0  0  0  0  0  0  0  0
   -3.0557    0.0111    1.6857 H   0  0  0  0  0  0  0  0  0  0  0  0
   -5.1575   -2.2621    0.0293 H   0  0  0  0  0  0  0  0  0  0  0  0
  1  2  1  0  0  0  0
  2  3  2  0  0  0  0
  3  4  1  0  0  0  0
  4  5  1  0  0  0  0
  4  6  2  0  0  0  0
  6  7  1  0  0  0  0
  7  8  1  0  0  0  0
  8  9  2  0  0  0  0
  9 10  1  0  0  0  0
 10 11  2  0  0  0  0
 11 12  1  0  0  0  0
 12 13  2  0  0  0  0
 13 14  1  0  0  0  0
 14 15  1  0  0  0  0
 15 16  2  0  0  0  0
 16 17  1  0  0  0  0
 17 18  2  0  0  0  0
 18 19  1  0  0  0  0
 19 20  2  0  0  0  0
 14 21  1  0  0  0  0
 21 22  2  0  0  0  0
 22 23  1  0  0  0  0
 23 24  2  0  0  0  0
 24 25  1  0  0  0  0
 25 26  2  0  0  0  0
  7 27  1  0  0  0  0
 27 28  2  0  0  0  0
 28 29  1  0  0  0  0
 28 30  1  0  0  0  0
 30 31  2  0  0  0  0
 31 32  1  0  0  0  0
 31 33  1  0  0  0  0
 33 34  2  0  0  0  0
 34 35  1  0  0  0  0
  6 36  1  0  0  0  0
 36 37  1  0  0  0  0
 36 38  2  0  0  0  0
 38  2  1  0  0  0  0
 13  8  1  0  0  0  0
 20 15  1  0  0  0  0
 26 21  1  0  0  0  0
 34 27  1  0  0  0  0
  1 39  1  0  0  0  0
  1 40  1  0  0  0  0
  1 41  1  0  0  0  0
  3 42  1  0  0  0  0
  5 43  1  0  0  0  0
  5 44  1  0  0  0  0
  5 45  1  0  0  0  0
  9 46  1  0  0  0  0
 10 47  1  0  0  0  0
 11 48  1  0  0  0  0
 12 49  1  0  0  0  0
 16 50  1  0  0  0  0
 17 51  1  0  0  0  0
 18 52  1  0  0  0  0
 19 53  1  0  0  0  0
 20 54  1  0  0  0  0
 22 55  1  0  0  0  0
 23 56  1  0  0  0  0
 24 57  1  0  0  0  0
 25 58  1  0  0  0  0
 26 59  1  0  0  0  0
 29 60  1  0  0  0  0
 29 61  1  0  0  0  0
 29 62  1  0  0  0  0
 30 63  1  0  0  0  0
 32 64  1  0  0  0  0
 32 65  1  0  0  0  0
 32 66  1  0  0  0  0
 33 67  1  0  0  0  0
 35 68  1  0  0  0  0
 35 69  1  0  0  0  0
 35 70  1  0  0  0  0
 37 71  1  0  0  0  0
 37 72  1  0  0  0  0
 37 73  1  0  0  0  0
 38 74  1  0  0  0  0
M  END
