
  xtb     03012221283D
 energy: -3.532423684216 gnorm: 0.000246890628 xtb: 6.4.1 (afa7bdf)
 19 19  0     0  0            999 V2000
   -2.6542   -1.2148   -0.0301 C   0  0  0  0  0  0  0  0  0  0  0  0
   -2.2168    0.1219   -0.0681 O   0  0  0  0  0  0  0  0  0  0  0  0
   -0.8305    0.2956   -0.0365 C   0  0  0  0  0  0  0  0  0  0  0  0
    0.0819   -0.7370    0.0781 C   0  0  0  0  0  0  0  0  0  0  0  0
    1.4515   -0.5017    0.1024 C   0  0  0  0  0  0  0  0  0  0  0  0
    2.3556   -1.6333    0.2234 C   0  0  0  0  0  0  0  0  0  0  0  0
    2.0012   -2.7789    0.3042 O   0  0  0  0  0  0  0  0  0  0  0  0
    1.9173    0.8026    0.0101 C   0  0  0  0  0  0  0  0  0  0  0  0
    1.0326    1.8495   -0.1034 C   0  0  0  0  0  0  0  0  0  0  0  0
   -0.3401    1.6274   -0.1289 C   0  0  0  0  0  0  0  0  0  0  0  0
   -1.2389    2.6621   -0.2420 O   0  0  0  0  0  0  0  0  0  0  0  0
   -2.3472   -1.6765    0.9095 H   0  0  0  0  0  0  0  0  0  0  0  0
   -3.7436   -1.2159   -0.0901 H   0  0  0  0  0  0  0  0  0  0  0  0
   -2.2486   -1.7603   -0.8835 H   0  0  0  0  0  0  0  0  0  0  0  0
   -0.2487   -1.7560    0.1534 H   0  0  0  0  0  0  0  0  0  0  0  0
    3.4212   -1.4520    0.2433 H   0  0  0  0  0  0  0  0  0  0  0  0
    2.9776    0.9869    0.0282 H   0  0  0  0  0  0  0  0  0  0  0  0
    1.3983    2.8582   -0.1744 H   0  0  0  0  0  0  0  0  0  0  0  0
   -0.7686    3.5221   -0.2957 H   0  0  0  0  0  0  0  0  0  0  0  0
  1  2  1  0  0  0  0
  2  3  1  0  0  0  0
  3  4  2  0  0  0  0
  4  5  1  0  0  0  0
  5  6  1  0  0  0  0
  6  7  2  0  0  0  0
  5  8  2  0  0  0  0
  8  9  1  0  0  0  0
  9 10  2  0  0  0  0
 10 11  1  0  0  0  0
 10  3  1  0  0  0  0
  1 12  1  0  0  0  0
  1 13  1  0  0  0  0
  1 14  1  0  0  0  0
  4 15  1  0  0  0  0
  6 16  1  0  0  0  0
  8 17  1  0  0  0  0
  9 18  1  0  0  0  0
 11 19  1  0  0  0  0
M  END
