
  xtb     03012221243D
 energy: -4.339246111992 gnorm: 0.000416900293 xtb: 6.4.1 (afa7bdf)
 21 22  0     0  0            999 V2000
    2.8320    2.1960   -0.0905 O   0  0  0  0  0  0  0  0  0  0  0  0
    1.9941    1.3360    0.0839 C   0  0  0  0  0  0  0  0  0  0  0  0
    2.3737    0.0366    0.7057 C   0  0  0  0  0  0  0  0  0  0  0  0
    2.1168   -1.1169   -0.2014 C   0  0  0  0  0  0  0  0  0  0  0  0
    3.0336   -1.8280   -0.5561 O   0  0  0  0  0  0  0  0  0  0  0  0
    0.8217   -1.3706   -0.6087 N   0  0  0  0  0  0  0  0  0  0  0  0
   -0.3825   -0.6969   -0.2889 C   0  0  0  0  0  0  0  0  0  0  0  0
   -1.5525   -1.4407   -0.2019 C   0  0  0  0  0  0  0  0  0  0  0  0
   -2.7655   -0.8383    0.0479 C   0  0  0  0  0  0  0  0  0  0  0  0
   -2.8348    0.5286    0.2029 C   0  0  0  0  0  0  0  0  0  0  0  0
   -1.6907    1.2893    0.1088 C   0  0  0  0  0  0  0  0  0  0  0  0
   -0.4533    0.7044   -0.1282 C   0  0  0  0  0  0  0  0  0  0  0  0
    0.6754    1.5485   -0.2672 N   0  0  0  0  0  0  0  0  0  0  0  0
    3.4414    0.0623    0.9430 H   0  0  0  0  0  0  0  0  0  0  0  0
    1.8354   -0.0997    1.6470 H   0  0  0  0  0  0  0  0  0  0  0  0
    0.7356   -2.2075   -1.1743 H   0  0  0  0  0  0  0  0  0  0  0  0
   -1.4964   -2.5078   -0.3290 H   0  0  0  0  0  0  0  0  0  0  0  0
   -3.6599   -1.4353    0.1174 H   0  0  0  0  0  0  0  0  0  0  0  0
   -3.7835    1.0028    0.3935 H   0  0  0  0  0  0  0  0  0  0  0  0
   -1.7427    2.3578    0.2252 H   0  0  0  0  0  0  0  0  0  0  0  0
    0.5021    2.4794   -0.6290 H   0  0  0  0  0  0  0  0  0  0  0  0
  1  2  2  0  0  0  0
  2  3  1  0  0  0  0
  3  4  1  0  0  0  0
  4  5  2  0  0  0  0
  4  6  1  0  0  0  0
  6  7  1  0  0  0  0
  7  8  2  0  0  0  0
  8  9  1  0  0  0  0
  9 10  2  0  0  0  0
 10 11  1  0  0  0  0
 11 12  2  0  0  0  0
 12 13  1  0  0  0  0
 13  2  1  0  0  0  0
 12  7  1  0  0  0  0
  3 14  1  0  0  0  0
  3 15  1  0  0  0  0
  6 16  1  0  0  0  0
  8 17  1  0  0  0  0
  9 18  1  0  0  0  0
 10 19  1  0  0  0  0
 11 20  1  0  0  0  0
 13 21  1  0  0  0  0
M  END
