
  xtb     03012221313D
 energy: -16.659670131346 gnorm: 0.000398374780 xtb: 6.4.1 (afa7bdf)
 74 83  0     0  0            999 V2000
   10.1306   -3.4474    1.2403 C   0  0  0  0  0  0  0  0  0  0  0  0
    9.2794   -3.4630    0.1526 C   0  0  0  0  0  0  0  0  0  0  0  0
    8.5131   -2.3563   -0.1394 C   0  0  0  0  0  0  0  0  0  0  0  0
    8.5875   -1.2167    0.6533 C   0  0  0  0  0  0  0  0  0  0  0  0
    7.7937   -0.0581    0.3437 N   0  0  0  0  0  0  0  0  0  0  0  0
    8.2723    1.2621    0.2063 C   0  0  0  0  0  0  0  0  0  0  0  0
    9.5605    1.7837    0.3148 C   0  0  0  0  0  0  0  0  0  0  0  0
    9.7467    3.1297    0.1128 C   0  0  0  0  0  0  0  0  0  0  0  0
    8.6725    3.9683   -0.1986 C   0  0  0  0  0  0  0  0  0  0  0  0
    7.3977    3.4689   -0.3157 C   0  0  0  0  0  0  0  0  0  0  0  0
    7.1931    2.1032   -0.1139 C   0  0  0  0  0  0  0  0  0  0  0  0
    6.0105    1.2782   -0.1761 C   0  0  0  0  0  0  0  0  0  0  0  0
    4.6784    1.5754   -0.4466 C   0  0  0  0  0  0  0  0  0  0  0  0
    3.7311    0.5583   -0.4320 C   0  0  0  0  0  0  0  0  0  0  0  0
    2.3158    0.8486   -0.7257 C   0  0  0  0  0  0  0  0  0  0  0  0
    1.9633    1.8904   -1.6420 C   0  0  0  0  0  0  0  0  0  0  0  0
    0.6777    2.1808   -1.9311 C   0  0  0  0  0  0  0  0  0  0  0  0
   -0.3537    1.4574   -1.3332 N   0  0  0  0  0  0  0  0  0  0  0  0
   -1.6703    1.5414   -1.4455 N   0  0  0  0  0  0  0  0  0  0  0  0
   -2.1313    0.5848   -0.6333 C   0  0  0  0  0  0  0  0  0  0  0  0
   -3.5565    0.3168   -0.4459 C   0  0  0  0  0  0  0  0  0  0  0  0
   -3.9815   -0.6942    0.4110 C   0  0  0  0  0  0  0  0  0  0  0  0
   -5.3210   -0.9459    0.5855 C   0  0  0  0  0  0  0  0  0  0  0  0
   -6.2754   -0.1933   -0.0915 C   0  0  0  0  0  0  0  0  0  0  0  0
   -7.6764   -0.4543    0.0900 N   0  0  0  0  0  0  0  0  0  0  0  0
   -8.6643    0.5031    0.3967 C   0  0  0  0  0  0  0  0  0  0  0  0
   -8.5674    1.8751    0.6271 C   0  0  0  0  0  0  0  0  0  0  0  0
   -9.7087    2.5786    0.9224 C   0  0  0  0  0  0  0  0  0  0  0  0
  -10.9497    1.9383    0.9962 C   0  0  0  0  0  0  0  0  0  0  0  0
  -11.0630    0.5858    0.7796 C   0  0  0  0  0  0  0  0  0  0  0  0
   -9.9101   -0.1415    0.4794 C   0  0  0  0  0  0  0  0  0  0  0  0
   -9.6863   -1.5420    0.2144 C   0  0  0  0  0  0  0  0  0  0  0  0
  -10.5500   -2.6371    0.1568 C   0  0  0  0  0  0  0  0  0  0  0  0
  -10.0259   -3.8733   -0.1365 C   0  0  0  0  0  0  0  0  0  0  0  0
   -8.6581   -4.0377   -0.3766 C   0  0  0  0  0  0  0  0  0  0  0  0
   -7.7979   -2.9691   -0.3230 C   0  0  0  0  0  0  0  0  0  0  0  0
   -8.3108   -1.7081   -0.0201 C   0  0  0  0  0  0  0  0  0  0  0  0
   -5.8517    0.8175   -0.9482 C   0  0  0  0  0  0  0  0  0  0  0  0
   -4.5124    1.0684   -1.1228 C   0  0  0  0  0  0  0  0  0  0  0  0
   -1.1596   -0.1122   -0.0011 N   0  0  0  0  0  0  0  0  0  0  0  0
   -0.0281    0.4278   -0.4348 C   0  0  0  0  0  0  0  0  0  0  0  0
    1.3081    0.1257   -0.1322 C   0  0  0  0  0  0  0  0  0  0  0  0
    4.1491   -0.7598   -0.1345 C   0  0  0  0  0  0  0  0  0  0  0  0
    5.4578   -1.0630    0.1341 C   0  0  0  0  0  0  0  0  0  0  0  0
    6.4054   -0.0397    0.1095 C   0  0  0  0  0  0  0  0  0  0  0  0
    9.4473   -1.2141    1.7457 C   0  0  0  0  0  0  0  0  0  0  0  0
   10.2130   -2.3215    2.0362 C   0  0  0  0  0  0  0  0  0  0  0  0
   10.7303   -4.3133    1.4677 H   0  0  0  0  0  0  0  0  0  0  0  0
    9.2163   -4.3406   -0.4695 H   0  0  0  0  0  0  0  0  0  0  0  0
    7.8574   -2.3537   -0.9927 H   0  0  0  0  0  0  0  0  0  0  0  0
   10.3837    1.1316    0.5438 H   0  0  0  0  0  0  0  0  0  0  0  0
   10.7373    3.5467    0.1934 H   0  0  0  0  0  0  0  0  0  0  0  0
    8.8482    5.0200   -0.3519 H   0  0  0  0  0  0  0  0  0  0  0  0
    6.5653    4.1055   -0.5597 H   0  0  0  0  0  0  0  0  0  0  0  0
    4.3897    2.5907   -0.6437 H   0  0  0  0  0  0  0  0  0  0  0  0
    2.7525    2.4368   -2.1269 H   0  0  0  0  0  0  0  0  0  0  0  0
    0.4111    2.9583   -2.6230 H   0  0  0  0  0  0  0  0  0  0  0  0
   -3.2409   -1.2727    0.9350 H   0  0  0  0  0  0  0  0  0  0  0  0
   -5.6494   -1.7183    1.2583 H   0  0  0  0  0  0  0  0  0  0  0  0
   -7.6070    2.3580    0.5800 H   0  0  0  0  0  0  0  0  0  0  0  0
   -9.6481    3.6391    1.1022 H   0  0  0  0  0  0  0  0  0  0  0  0
  -11.8296    2.5149    1.2294 H   0  0  0  0  0  0  0  0  0  0  0  0
  -12.0131    0.0854    0.8386 H   0  0  0  0  0  0  0  0  0  0  0  0
  -11.6013   -2.5014    0.3382 H   0  0  0  0  0  0  0  0  0  0  0  0
  -10.6785   -4.7294   -0.1853 H   0  0  0  0  0  0  0  0  0  0  0  0
   -8.2751   -5.0175   -0.6091 H   0  0  0  0  0  0  0  0  0  0  0  0
   -6.7462   -3.0851   -0.5179 H   0  0  0  0  0  0  0  0  0  0  0  0
   -6.5896    1.3897   -1.4823 H   0  0  0  0  0  0  0  0  0  0  0  0
   -4.1820    1.8480   -1.7868 H   0  0  0  0  0  0  0  0  0  0  0  0
    1.5232   -0.6514    0.5764 H   0  0  0  0  0  0  0  0  0  0  0  0
    3.4161   -1.5473   -0.1406 H   0  0  0  0  0  0  0  0  0  0  0  0
    5.7641   -2.0675    0.3642 H   0  0  0  0  0  0  0  0  0  0  0  0
    9.4955   -0.3366    2.3670 H   0  0  0  0  0  0  0  0  0  0  0  0
   10.8758   -2.3099    2.8858 H   0  0  0  0  0  0  0  0  0  0  0  0
  1  2  2  0  0  0  0
  2  3  1  0  0  0  0
  3  4  2  0  0  0  0
  4  5  1  0  0  0  0
  5  6  1  0  0  0  0
  6  7  2  0  0  0  0
  7  8  1  0  0  0  0
  8  9  2  0  0  0  0
  9 10  1  0  0  0  0
 10 11  2  0  0  0  0
 11 12  1  0  0  0  0
 12 13  2  0  0  0  0
 13 14  1  0  0  0  0
 14 15  1  0  0  0  0
 15 16  1  0  0  0  0
 16 17  2  0  0  0  0
 17 18  1  0  0  0  0
 18 19  1  0  0  0  0
 19 20  2  0  0  0  0
 20 21  1  0  0  0  0
 21 22  2  0  0  0  0
 22 23  1  0  0  0  0
 23 24  2  0  0  0  0
 24 25  1  0  0  0  0
 25 26  1  0  0  0  0
 26 27  2  0  0  0  0
 27 28  1  0  0  0  0
 28 29  2  0  0  0  0
 29 30  1  0  0  0  0
 30 31  2  0  0  0  0
 31 32  1  0  0  0  0
 32 33  2  0  0  0  0
 33 34  1  0  0  0  0
 34 35  2  0  0  0  0
 35 36  1  0  0  0  0
 36 37  2  0  0  0  0
 24 38  1  0  0  0  0
 38 39  2  0  0  0  0
 20 40  1  0  0  0  0
 40 41  2  0  0  0  0
 41 42  1  0  0  0  0
 14 43  2  0  0  0  0
 43 44  1  0  0  0  0
 44 45  2  0  0  0  0
  4 46  1  0  0  0  0
 46 47  2  0  0  0  0
 47  1  1  0  0  0  0
 45  5  1  0  0  0  0
 11  6  1  0  0  0  0
 45 12  1  0  0  0  0
 42 15  2  0  0  0  0
 41 18  1  0  0  0  0
 39 21  1  0  0  0  0
 37 25  1  0  0  0  0
 31 26  1  0  0  0  0
 37 32  1  0  0  0  0
  1 48  1  0  0  0  0
  2 49  1  0  0  0  0
  3 50  1  0  0  0  0
  7 51  1  0  0  0  0
  8 52  1  0  0  0  0
  9 53  1  0  0  0  0
 10 54  1  0  0  0  0
 13 55  1  0  0  0  0
 16 56  1  0  0  0  0
 17 57  1  0  0  0  0
 22 58  1  0  0  0  0
 23 59  1  0  0  0  0
 27 60  1  0  0  0  0
 28 61  1  0  0  0  0
 29 62  1  0  0  0  0
 30 63  1  0  0  0  0
 33 64  1  0  0  0  0
 34 65  1  0  0  0  0
 35 66  1  0  0  0  0
 36 67  1  0  0  0  0
 38 68  1  0  0  0  0
 39 69  1  0  0  0  0
 42 70  1  0  0  0  0
 43 71  1  0  0  0  0
 44 72  1  0  0  0  0
 46 73  1  0  0  0  0
 47 74  1  0  0  0  0
M  END
