
  xtb     03012221283D
 energy: -17.465855552449 gnorm: 0.000245359018 xtb: 6.4.1 (afa7bdf)
 98103  0     0  0            999 V2000
    9.0843   -1.8396    1.1125 C   0  0  0  0  0  0  0  0  0  0  0  0
    9.7463   -0.8368    0.1807 C   0  0  0  0  0  0  0  0  0  0  0  0
    8.9765    0.5094    0.0454 C   0  0  0  0  0  0  0  0  0  0  0  0
    9.0147    1.2505    1.3974 C   0  0  0  0  0  0  0  0  0  0  0  0
    9.6811    1.3952   -1.0019 C   0  0  0  0  0  0  0  0  0  0  0  0
    7.5367    0.2350   -0.4164 C   0  0  0  0  0  0  0  0  0  0  0  0
    7.3170   -0.4262   -1.6241 C   0  0  0  0  0  0  0  0  0  0  0  0
    6.0457   -0.7300   -2.0667 C   0  0  0  0  0  0  0  0  0  0  0  0
    4.9585   -0.3534   -1.2929 C   0  0  0  0  0  0  0  0  0  0  0  0
    5.1561    0.3308   -0.0922 C   0  0  0  0  0  0  0  0  0  0  0  0
    6.4349    0.6066    0.3493 C   0  0  0  0  0  0  0  0  0  0  0  0
    3.7986    0.5973    0.5697 C   0  0  0  0  0  0  0  0  0  0  0  0
    3.7281   -0.0531    1.9755 C   0  0  0  0  0  0  0  0  0  0  0  0
    3.9654   -1.5549    1.9588 C   0  0  0  0  0  0  0  0  0  0  0  0
    3.4703    2.1147    0.6229 C   0  0  0  0  0  0  0  0  0  0  0  0
    4.4301    2.9665    1.4378 C   0  0  0  0  0  0  0  0  0  0  0  0
    2.8198   -0.0833   -0.3951 C   0  0  0  0  0  0  0  0  0  0  0  0
    1.4509   -0.2168   -0.3191 C   0  0  0  0  0  0  0  0  0  0  0  0
    0.7610   -0.8866   -1.3333 C   0  0  0  0  0  0  0  0  0  0  0  0
   -0.7091   -1.0379   -1.2625 C   0  0  0  0  0  0  0  0  0  0  0  0
   -1.3243   -2.2364   -1.6451 C   0  0  0  0  0  0  0  0  0  0  0  0
   -2.6904   -2.3991   -1.5720 C   0  0  0  0  0  0  0  0  0  0  0  0
   -3.4695   -1.3462   -1.1120 C   0  0  0  0  0  0  0  0  0  0  0  0
   -2.8720   -0.1435   -0.7286 C   0  0  0  0  0  0  0  0  0  0  0  0
   -1.5056    0.0138   -0.8015 C   0  0  0  0  0  0  0  0  0  0  0  0
   -3.9545    0.8431   -0.2738 C   0  0  0  0  0  0  0  0  0  0  0  0
   -3.7096    1.2935    1.1895 C   0  0  0  0  0  0  0  0  0  0  0  0
   -3.6069    0.1350    2.1690 C   0  0  0  0  0  0  0  0  0  0  0  0
   -3.9695    2.0508   -1.2507 C   0  0  0  0  0  0  0  0  0  0  0  0
   -5.0764    3.0671   -1.0210 C   0  0  0  0  0  0  0  0  0  0  0  0
   -5.2344    0.0059   -0.3857 C   0  0  0  0  0  0  0  0  0  0  0  0
   -6.5300    0.3006   -0.0107 C   0  0  0  0  0  0  0  0  0  0  0  0
   -7.5389   -0.6454   -0.1700 C   0  0  0  0  0  0  0  0  0  0  0  0
   -8.9878   -0.3670    0.2598 C   0  0  0  0  0  0  0  0  0  0  0  0
   -9.9214   -0.5564   -0.9532 C   0  0  0  0  0  0  0  0  0  0  0  0
   -9.1673    1.0761    0.7738 C   0  0  0  0  0  0  0  0  0  0  0  0
   -9.3958   -1.3642    1.3829 C   0  0  0  0  0  0  0  0  0  0  0  0
   -8.4798   -1.3410    2.5965 C   0  0  0  0  0  0  0  0  0  0  0  0
   -7.2070   -1.8913   -0.7010 C   0  0  0  0  0  0  0  0  0  0  0  0
   -5.9127   -2.2078   -1.0601 C   0  0  0  0  0  0  0  0  0  0  0  0
   -4.9192   -1.2545   -0.8968 C   0  0  0  0  0  0  0  0  0  0  0  0
    1.4834   -1.4091   -2.4133 C   0  0  0  0  0  0  0  0  0  0  0  0
    2.8524   -1.2772   -2.4943 C   0  0  0  0  0  0  0  0  0  0  0  0
    3.5247   -0.6084   -1.4803 C   0  0  0  0  0  0  0  0  0  0  0  0
    9.0297   -1.4648    2.1362 H   0  0  0  0  0  0  0  0  0  0  0  0
    8.0624   -2.0593    0.7955 H   0  0  0  0  0  0  0  0  0  0  0  0
    9.6269   -2.7879    1.1447 H   0  0  0  0  0  0  0  0  0  0  0  0
   10.7672   -0.6236    0.5171 H   0  0  0  0  0  0  0  0  0  0  0  0
    9.8593   -1.2764   -0.8164 H   0  0  0  0  0  0  0  0  0  0  0  0
    8.5176    0.6810    2.1810 H   0  0  0  0  0  0  0  0  0  0  0  0
    8.5280    2.2226    1.3222 H   0  0  0  0  0  0  0  0  0  0  0  0
   10.0429    1.4211    1.7154 H   0  0  0  0  0  0  0  0  0  0  0  0
    9.1468    2.3360   -1.1315 H   0  0  0  0  0  0  0  0  0  0  0  0
   10.7007    1.6264   -0.6947 H   0  0  0  0  0  0  0  0  0  0  0  0
    9.7292    0.9026   -1.9719 H   0  0  0  0  0  0  0  0  0  0  0  0
    8.1631   -0.7212   -2.2206 H   0  0  0  0  0  0  0  0  0  0  0  0
    5.8888   -1.2603   -2.9898 H   0  0  0  0  0  0  0  0  0  0  0  0
    6.5650    1.0853    1.3012 H   0  0  0  0  0  0  0  0  0  0  0  0
    2.7490    0.1710    2.4146 H   0  0  0  0  0  0  0  0  0  0  0  0
    4.4630    0.4321    2.6268 H   0  0  0  0  0  0  0  0  0  0  0  0
    3.2268   -2.0643    1.3375 H   0  0  0  0  0  0  0  0  0  0  0  0
    3.9111   -1.9910    2.9586 H   0  0  0  0  0  0  0  0  0  0  0  0
    4.9479   -1.7944    1.5484 H   0  0  0  0  0  0  0  0  0  0  0  0
    2.4503    2.2274    1.0090 H   0  0  0  0  0  0  0  0  0  0  0  0
    3.4300    2.4849   -0.4086 H   0  0  0  0  0  0  0  0  0  0  0  0
    4.4990    2.6221    2.4704 H   0  0  0  0  0  0  0  0  0  0  0  0
    5.4359    2.9483    1.0171 H   0  0  0  0  0  0  0  0  0  0  0  0
    4.1172    4.0126    1.4680 H   0  0  0  0  0  0  0  0  0  0  0  0
    0.9192    0.1797    0.5257 H   0  0  0  0  0  0  0  0  0  0  0  0
   -0.7079   -3.0506   -1.9852 H   0  0  0  0  0  0  0  0  0  0  0  0
   -3.1568   -3.3256   -1.8577 H   0  0  0  0  0  0  0  0  0  0  0  0
   -1.0567    0.9463   -0.5143 H   0  0  0  0  0  0  0  0  0  0  0  0
   -2.7955    1.8976    1.2201 H   0  0  0  0  0  0  0  0  0  0  0  0
   -4.5194    1.9660    1.4927 H   0  0  0  0  0  0  0  0  0  0  0  0
   -2.7866   -0.5342    1.9041 H   0  0  0  0  0  0  0  0  0  0  0  0
   -4.5197   -0.4631    2.1694 H   0  0  0  0  0  0  0  0  0  0  0  0
   -3.4360    0.4756    3.1925 H   0  0  0  0  0  0  0  0  0  0  0  0
   -4.0354    1.6549   -2.2713 H   0  0  0  0  0  0  0  0  0  0  0  0
   -2.9917    2.5437   -1.1958 H   0  0  0  0  0  0  0  0  0  0  0  0
   -5.0420    3.4810   -0.0125 H   0  0  0  0  0  0  0  0  0  0  0  0
   -5.0054    3.9069   -1.7161 H   0  0  0  0  0  0  0  0  0  0  0  0
   -6.0621    2.6222   -1.1606 H   0  0  0  0  0  0  0  0  0  0  0  0
   -6.7391    1.2566    0.4304 H   0  0  0  0  0  0  0  0  0  0  0  0
   -9.6375    0.1128   -1.7648 H   0  0  0  0  0  0  0  0  0  0  0  0
   -9.8813   -1.5765   -1.3320 H   0  0  0  0  0  0  0  0  0  0  0  0
  -10.9558   -0.3417   -0.6861 H   0  0  0  0  0  0  0  0  0  0  0  0
   -8.9266    1.7989   -0.0053 H   0  0  0  0  0  0  0  0  0  0  0  0
   -8.5306    1.2786    1.6334 H   0  0  0  0  0  0  0  0  0  0  0  0
  -10.1983    1.2515    1.0796 H   0  0  0  0  0  0  0  0  0  0  0  0
  -10.4279   -1.1506    1.6828 H   0  0  0  0  0  0  0  0  0  0  0  0
   -9.4230   -2.3742    0.9592 H   0  0  0  0  0  0  0  0  0  0  0  0
   -8.7688   -2.0870    3.3414 H   0  0  0  0  0  0  0  0  0  0  0  0
   -8.4912   -0.3689    3.0928 H   0  0  0  0  0  0  0  0  0  0  0  0
   -7.4447   -1.5463    2.3147 H   0  0  0  0  0  0  0  0  0  0  0  0
   -7.9786   -2.6328   -0.8168 H   0  0  0  0  0  0  0  0  0  0  0  0
   -5.6639   -3.1803   -1.4478 H   0  0  0  0  0  0  0  0  0  0  0  0
    0.9487   -1.9130   -3.1999 H   0  0  0  0  0  0  0  0  0  0  0  0
    3.4027   -1.6833   -3.3247 H   0  0  0  0  0  0  0  0  0  0  0  0
  1  2  1  0  0  0  0
  2  3  1  0  0  0  0
  3  4  1  0  0  0  0
  3  5  1  0  0  0  0
  3  6  1  0  0  0  0
  6  7  2  0  0  0  0
  7  8  1  0  0  0  0
  8  9  2  0  0  0  0
  9 10  1  0  0  0  0
 10 11  2  0  0  0  0
 10 12  1  0  0  0  0
 12 13  1  0  0  0  0
 13 14  1  0  0  0  0
 12 15  1  0  0  0  0
 15 16  1  0  0  0  0
 12 17  1  0  0  0  0
 17 18  2  0  0  0  0
 18 19  1  0  0  0  0
 19 20  1  0  0  0  0
 20 21  2  0  0  0  0
 21 22  1  0  0  0  0
 22 23  2  0  0  0  0
 23 24  1  0  0  0  0
 24 25  2  0  0  0  0
 24 26  1  0  0  0  0
 26 27  1  0  0  0  0
 27 28  1  0  0  0  0
 26 29  1  0  0  0  0
 29 30  1  0  0  0  0
 26 31  1  0  0  0  0
 31 32  2  0  0  0  0
 32 33  1  0  0  0  0
 33 34  1  0  0  0  0
 34 35  1  0  0  0  0
 34 36  1  0  0  0  0
 34 37  1  0  0  0  0
 37 38  1  0  0  0  0
 33 39  2  0  0  0  0
 39 40  1  0  0  0  0
 40 41  2  0  0  0  0
 19 42  2  0  0  0  0
 42 43  1  0  0  0  0
 43 44  2  0  0  0  0
 11  6  1  0  0  0  0
 44 17  1  0  0  0  0
 44  9  1  0  0  0  0
 25 20  1  0  0  0  0
 41 31  1  0  0  0  0
 41 23  1  0  0  0  0
  1 45  1  0  0  0  0
  1 46  1  0  0  0  0
  1 47  1  0  0  0  0
  2 48  1  0  0  0  0
  2 49  1  0  0  0  0
  4 50  1  0  0  0  0
  4 51  1  0  0  0  0
  4 52  1  0  0  0  0
  5 53  1  0  0  0  0
  5 54  1  0  0  0  0
  5 55  1  0  0  0  0
  7 56  1  0  0  0  0
  8 57  1  0  0  0  0
 11 58  1  0  0  0  0
 13 59  1  0  0  0  0
 13 60  1  0  0  0  0
 14 61  1  0  0  0  0
 14 62  1  0  0  0  0
 14 63  1  0  0  0  0
 15 64  1  0  0  0  0
 15 65  1  0  0  0  0
 16 66  1  0  0  0  0
 16 67  1  0  0  0  0
 16 68  1  0  0  0  0
 18 69  1  0  0  0  0
 21 70  1  0  0  0  0
 22 71  1  0  0  0  0
 25 72  1  0  0  0  0
 27 73  1  0  0  0  0
 27 74  1  0  0  0  0
 28 75  1  0  0  0  0
 28 76  1  0  0  0  0
 28 77  1  0  0  0  0
 29 78  1  0  0  0  0
 29 79  1  0  0  0  0
 30 80  1  0  0  0  0
 30 81  1  0  0  0  0
 30 82  1  0  0  0  0
 32 83  1  0  0  0  0
 35 84  1  0  0  0  0
 35 85  1  0  0  0  0
 35 86  1  0  0  0  0
 36 87  1  0  0  0  0
 36 88  1  0  0  0  0
 36 89  1  0  0  0  0
 37 90  1  0  0  0  0
 37 91  1  0  0  0  0
 38 92  1  0  0  0  0
 38 93  1  0  0  0  0
 38 94  1  0  0  0  0
 39 95  1  0  0  0  0
 40 96  1  0  0  0  0
 42 97  1  0  0  0  0
 43 98  1  0  0  0  0
M  END
