
  xtb     03012221293D
 energy: -7.346120391357 gnorm: 0.000135676363 xtb: 6.4.1 (afa7bdf)
 37 40  0     0  0            999 V2000
   -5.8275    2.0477    1.1496 C   0  0  0  0  0  0  0  0  0  0  0  0
   -5.2747    0.9584    0.4865 O   0  0  0  0  0  0  0  0  0  0  0  0
   -3.9112    1.0292    0.5464 C   0  0  0  0  0  0  0  0  0  0  0  0
   -3.3137    1.9286    1.1073 O   0  0  0  0  0  0  0  0  0  0  0  0
   -3.1775   -0.0712   -0.1219 C   0  0  0  0  0  0  0  0  0  0  0  0
   -3.8475   -1.0806   -0.7455 C   0  0  0  0  0  0  0  0  0  0  0  0
   -3.1595   -2.1535   -1.3976 C   0  0  0  0  0  0  0  0  0  0  0  0
   -3.7776   -3.0585   -1.9576 O   0  0  0  0  0  0  0  0  0  0  0  0
   -1.7634   -2.1526   -1.3860 N   0  0  0  0  0  0  0  0  0  0  0  0
   -1.0736   -3.2408   -2.0479 C   0  0  0  0  0  0  0  0  0  0  0  0
   -1.0612   -1.1184   -0.7466 C   0  0  0  0  0  0  0  0  0  0  0  0
    0.3536   -0.9683   -0.6427 C   0  0  0  0  0  0  0  0  0  0  0  0
    0.7538    0.1443    0.0436 C   0  0  0  0  0  0  0  0  0  0  0  0
    2.1164    0.5650    0.3132 C   0  0  0  0  0  0  0  0  0  0  0  0
    2.3542    1.7362    1.0397 C   0  0  0  0  0  0  0  0  0  0  0  0
    3.6293    2.1765    1.3204 C   0  0  0  0  0  0  0  0  0  0  0  0
    4.7093    1.4400    0.8713 C   0  0  0  0  0  0  0  0  0  0  0  0
    4.4943    0.2461    0.1311 C   0  0  0  0  0  0  0  0  0  0  0  0
    3.2106   -0.1795   -0.1404 C   0  0  0  0  0  0  0  0  0  0  0  0
    5.7176   -0.3140   -0.2080 O   0  0  0  0  0  0  0  0  0  0  0  0
    6.6867    0.5663    0.3432 C   0  0  0  0  0  0  0  0  0  0  0  0
    6.0694    1.6562    1.0133 O   0  0  0  0  0  0  0  0  0  0  0  0
   -0.6567    1.0243    0.5721 S   0  0  0  0  0  0  0  0  0  0  0  0
   -1.7665   -0.1039   -0.1301 C   0  0  0  0  0  0  0  0  0  0  0  0
   -5.4940    2.0316    2.1899 H   0  0  0  0  0  0  0  0  0  0  0  0
   -6.9161    1.9809    1.0993 H   0  0  0  0  0  0  0  0  0  0  0  0
   -5.4809    2.9648    0.6675 H   0  0  0  0  0  0  0  0  0  0  0  0
   -4.9215   -1.0804   -0.7540 H   0  0  0  0  0  0  0  0  0  0  0  0
   -0.4517   -2.8546   -2.8522 H   0  0  0  0  0  0  0  0  0  0  0  0
   -0.4553   -3.7806   -1.3343 H   0  0  0  0  0  0  0  0  0  0  0  0
   -1.8089   -3.9258   -2.4675 H   0  0  0  0  0  0  0  0  0  0  0  0
    1.0379   -1.6792   -1.0731 H   0  0  0  0  0  0  0  0  0  0  0  0
    1.5072    2.3050    1.3863 H   0  0  0  0  0  0  0  0  0  0  0  0
    3.8032    3.0778    1.8793 H   0  0  0  0  0  0  0  0  0  0  0  0
    3.0726   -1.0849   -0.7019 H   0  0  0  0  0  0  0  0  0  0  0  0
    7.3060    0.0111    1.0608 H   0  0  0  0  0  0  0  0  0  0  0  0
    7.3167    0.9566   -0.4677 H   0  0  0  0  0  0  0  0  0  0  0  0
  1  2  1  0  0  0  0
  2  3  1  0  0  0  0
  3  4  2  0  0  0  0
  3  5  1  0  0  0  0
  5  6  2  0  0  0  0
  6  7  1  0  0  0  0
  7  8  2  0  0  0  0
  7  9  1  0  0  0  0
  9 10  1  0  0  0  0
  9 11  1  0  0  0  0
 11 12  1  0  0  0  0
 12 13  2  0  0  0  0
 13 14  1  0  0  0  0
 14 15  2  0  0  0  0
 15 16  1  0  0  0  0
 16 17  2  0  0  0  0
 17 18  1  0  0  0  0
 18 19  2  0  0  0  0
 18 20  1  0  0  0  0
 20 21  1  0  0  0  0
 21 22  1  0  0  0  0
 13 23  1  0  0  0  0
 23 24  1  0  0  0  0
 24  5  1  0  0  0  0
 24 11  2  0  0  0  0
 19 14  1  0  0  0  0
 22 17  1  0  0  0  0
  1 25  1  0  0  0  0
  1 26  1  0  0  0  0
  1 27  1  0  0  0  0
  6 28  1  0  0  0  0
 10 29  1  0  0  0  0
 10 30  1  0  0  0  0
 10 31  1  0  0  0  0
 12 32  1  0  0  0  0
 15 33  1  0  0  0  0
 16 34  1  0  0  0  0
 19 35  1  0  0  0  0
 21 36  1  0  0  0  0
 21 37  1  0  0  0  0
M  END
