
  xtb     03012221223D
 energy: -10.687405584270 gnorm: 0.000353038951 xtb: 6.4.1 (afa7bdf)
 49 53  0     0  0            999 V2000
    9.1967    0.6129   -1.7663 F   0  0  0  0  0  0  0  0  0  0  0  0
    7.8661    0.5226   -1.5256 C   0  0  0  0  0  0  0  0  0  0  0  0
    7.1839   -0.6510   -1.7857 C   0  0  0  0  0  0  0  0  0  0  0  0
    5.8332   -0.7401   -1.5419 C   0  0  0  0  0  0  0  0  0  0  0  0
    5.1213    0.3439   -1.0310 C   0  0  0  0  0  0  0  0  0  0  0  0
    3.6740    0.2498   -0.7659 C   0  0  0  0  0  0  0  0  0  0  0  0
    2.8492   -0.5632   -1.5410 C   0  0  0  0  0  0  0  0  0  0  0  0
    1.5025   -0.6563   -1.2837 C   0  0  0  0  0  0  0  0  0  0  0  0
    0.9198    0.0617   -0.2407 C   0  0  0  0  0  0  0  0  0  0  0  0
   -0.5298   -0.0345    0.0334 C   0  0  0  0  0  0  0  0  0  0  0  0
   -1.1781   -1.2770   -0.0690 C   0  0  0  0  0  0  0  0  0  0  0  0
   -2.5429   -1.3620    0.1795 C   0  0  0  0  0  0  0  0  0  0  0  0
   -3.3301   -2.6005    0.1710 C   0  0  0  0  0  0  0  0  0  0  0  0
   -2.7795   -3.7675    0.6871 C   0  0  0  0  0  0  0  0  0  0  0  0
   -3.5154   -4.9218    0.6872 C   0  0  0  0  0  0  0  0  0  0  0  0
   -4.7864   -4.8732    0.1703 C   0  0  0  0  0  0  0  0  0  0  0  0
   -5.2557   -3.6780   -0.3180 C   0  0  0  0  0  0  0  0  0  0  0  0
   -4.5675   -2.5506   -0.3321 N   0  0  0  0  0  0  0  0  0  0  0  0
   -3.0516   -0.1979    0.5080 N   0  0  0  0  0  0  0  0  0  0  0  0
   -2.6132    1.0306    0.6547 C   0  0  0  0  0  0  0  0  0  0  0  0
   -3.4972    2.1363    1.0400 C   0  0  0  0  0  0  0  0  0  0  0  0
   -2.9841    3.4064    1.2795 C   0  0  0  0  0  0  0  0  0  0  0  0
   -3.8267    4.4241    1.6396 C   0  0  0  0  0  0  0  0  0  0  0  0
   -5.1655    4.1433    1.7516 C   0  0  0  0  0  0  0  0  0  0  0  0
   -5.5926    2.8629    1.5001 C   0  0  0  0  0  0  0  0  0  0  0  0
   -4.8014    1.8636    1.1523 N   0  0  0  0  0  0  0  0  0  0  0  0
   -1.2489    1.1182    0.3957 C   0  0  0  0  0  0  0  0  0  0  0  0
    1.7430    0.8795    0.5312 C   0  0  0  0  0  0  0  0  0  0  0  0
    3.0887    0.9704    0.2711 C   0  0  0  0  0  0  0  0  0  0  0  0
    5.8188    1.5290   -0.7629 C   0  0  0  0  0  0  0  0  0  0  0  0
    5.1774    2.6088   -0.2591 F   0  0  0  0  0  0  0  0  0  0  0  0
    7.1737    1.6024   -1.0147 C   0  0  0  0  0  0  0  0  0  0  0  0
    7.7328   -1.4888   -2.1781 H   0  0  0  0  0  0  0  0  0  0  0  0
    5.3188   -1.6657   -1.7295 H   0  0  0  0  0  0  0  0  0  0  0  0
    3.2741   -1.1077   -2.3657 H   0  0  0  0  0  0  0  0  0  0  0  0
    0.8786   -1.2746   -1.9047 H   0  0  0  0  0  0  0  0  0  0  0  0
   -0.6232   -2.1596   -0.3314 H   0  0  0  0  0  0  0  0  0  0  0  0
   -1.7840   -3.7513    1.0944 H   0  0  0  0  0  0  0  0  0  0  0  0
   -3.1117   -5.8385    1.0842 H   0  0  0  0  0  0  0  0  0  0  0  0
   -5.4053   -5.7558    0.1506 H   0  0  0  0  0  0  0  0  0  0  0  0
   -6.2547   -3.6290   -0.7239 H   0  0  0  0  0  0  0  0  0  0  0  0
   -1.9293    3.5904    1.1885 H   0  0  0  0  0  0  0  0  0  0  0  0
   -3.4502    5.4156    1.8302 H   0  0  0  0  0  0  0  0  0  0  0  0
   -5.8670    4.9123    2.0324 H   0  0  0  0  0  0  0  0  0  0  0  0
   -6.6429    2.6295    1.5851 H   0  0  0  0  0  0  0  0  0  0  0  0
   -0.7416    2.0634    0.4501 H   0  0  0  0  0  0  0  0  0  0  0  0
    1.3145    1.4353    1.3463 H   0  0  0  0  0  0  0  0  0  0  0  0
    3.7105    1.6153    0.8668 H   0  0  0  0  0  0  0  0  0  0  0  0
    7.6991    2.5162   -0.8102 H   0  0  0  0  0  0  0  0  0  0  0  0
  1  2  1  0  0  0  0
  2  3  2  0  0  0  0
  3  4  1  0  0  0  0
  4  5  2  0  0  0  0
  5  6  1  0  0  0  0
  6  7  2  0  0  0  0
  7  8  1  0  0  0  0
  8  9  2  0  0  0  0
  9 10  1  0  0  0  0
 10 11  2  0  0  0  0
 11 12  1  0  0  0  0
 12 13  1  0  0  0  0
 13 14  2  0  0  0  0
 14 15  1  0  0  0  0
 15 16  2  0  0  0  0
 16 17  1  0  0  0  0
 17 18  2  0  0  0  0
 12 19  2  0  0  0  0
 19 20  1  0  0  0  0
 20 21  1  0  0  0  0
 21 22  2  0  0  0  0
 22 23  1  0  0  0  0
 23 24  2  0  0  0  0
 24 25  1  0  0  0  0
 25 26  2  0  0  0  0
 20 27  2  0  0  0  0
  9 28  1  0  0  0  0
 28 29  2  0  0  0  0
  5 30  1  0  0  0  0
 30 31  1  0  0  0  0
 30 32  2  0  0  0  0
 32  2  1  0  0  0  0
 29  6  1  0  0  0  0
 27 10  1  0  0  0  0
 18 13  1  0  0  0  0
 26 21  1  0  0  0  0
  3 33  1  0  0  0  0
  4 34  1  0  0  0  0
  7 35  1  0  0  0  0
  8 36  1  0  0  0  0
 11 37  1  0  0  0  0
 14 38  1  0  0  0  0
 15 39  1  0  0  0  0
 16 40  1  0  0  0  0
 17 41  1  0  0  0  0
 22 42  1  0  0  0  0
 23 43  1  0  0  0  0
 24 44  1  0  0  0  0
 25 45  1  0  0  0  0
 27 46  1  0  0  0  0
 28 47  1  0  0  0  0
 29 48  1  0  0  0  0
 32 49  1  0  0  0  0
M  END
