
  xtb     03012221293D
 energy: -4.473245489809 gnorm: 0.000622063256 xtb: 6.4.1 (afa7bdf)
 22 23  0     0  0            999 V2000
   -2.8611    1.4217    0.0746 N   0  0  0  0  0  0  0  0  0  0  0  0
   -1.6678    0.7165    0.0644 C   0  0  0  0  0  0  0  0  0  0  0  0
   -0.4684    1.3908   -0.0045 C   0  0  0  0  0  0  0  0  0  0  0  0
    0.7679    0.7118   -0.0251 C   0  0  0  0  0  0  0  0  0  0  0  0
    1.9987    1.3964   -0.0984 C   0  0  0  0  0  0  0  0  0  0  0  0
    3.1784    0.7072   -0.1160 C   0  0  0  0  0  0  0  0  0  0  0  0
    3.1839   -0.6891   -0.0615 C   0  0  0  0  0  0  0  0  0  0  0  0
    2.0096   -1.3839    0.0100 C   0  0  0  0  0  0  0  0  0  0  0  0
    0.7735   -0.7053    0.0302 C   0  0  0  0  0  0  0  0  0  0  0  0
   -0.4574   -1.3902    0.1067 C   0  0  0  0  0  0  0  0  0  0  0  0
   -1.6616   -0.7217    0.1261 C   0  0  0  0  0  0  0  0  0  0  0  0
   -2.8460   -1.4321    0.2210 N   0  0  0  0  0  0  0  0  0  0  0  0
   -3.7449    0.9818   -0.1395 H   0  0  0  0  0  0  0  0  0  0  0  0
   -2.8840    2.4053   -0.1582 H   0  0  0  0  0  0  0  0  0  0  0  0
   -0.4756    2.4643   -0.0443 H   0  0  0  0  0  0  0  0  0  0  0  0
    1.9957    2.4719   -0.1405 H   0  0  0  0  0  0  0  0  0  0  0  0
    4.1125    1.2417   -0.1720 H   0  0  0  0  0  0  0  0  0  0  0  0
    4.1222   -1.2190   -0.0754 H   0  0  0  0  0  0  0  0  0  0  0  0
    2.0151   -2.4594    0.0527 H   0  0  0  0  0  0  0  0  0  0  0  0
   -0.4563   -2.4632    0.1565 H   0  0  0  0  0  0  0  0  0  0  0  0
   -2.8797   -2.4357    0.1002 H   0  0  0  0  0  0  0  0  0  0  0  0
   -3.7543   -1.0096    0.0929 H   0  0  0  0  0  0  0  0  0  0  0  0
  1  2  1  0  0  0  0
  2  3  2  0  0  0  0
  3  4  1  0  0  0  0
  4  5  2  0  0  0  0
  5  6  1  0  0  0  0
  6  7  2  0  0  0  0
  7  8  1  0  0  0  0
  8  9  2  0  0  0  0
  9 10  1  0  0  0  0
 10 11  2  0  0  0  0
 11 12  1  0  0  0  0
 11  2  1  0  0  0  0
  9  4  1  0  0  0  0
  1 13  1  0  0  0  0
  1 14  1  0  0  0  0
  3 15  1  0  0  0  0
  5 16  1  0  0  0  0
  6 17  1  0  0  0  0
  7 18  1  0  0  0  0
  8 19  1  0  0  0  0
 10 20  1  0  0  0  0
 12 21  1  0  0  0  0
 12 22  1  0  0  0  0
M  END
