
  xtb     03012221263D
 energy: -14.427764218574 gnorm: 0.000181998220 xtb: 6.4.1 (afa7bdf)
 66 72  0     0  0            999 V2000
    8.0906   -2.3710    2.5434 C   0  0  0  0  0  0  0  0  0  0  0  0
    8.2690   -1.8510    1.2768 C   0  0  0  0  0  0  0  0  0  0  0  0
    7.2358   -1.1911    0.6491 C   0  0  0  0  0  0  0  0  0  0  0  0
    6.0041   -1.0308    1.2835 C   0  0  0  0  0  0  0  0  0  0  0  0
    4.8775   -0.3484    0.6345 C   0  0  0  0  0  0  0  0  0  0  0  0
    3.5917   -0.6835    0.8569 N   0  0  0  0  0  0  0  0  0  0  0  0
    2.8525    0.0987    0.0759 C   0  0  0  0  0  0  0  0  0  0  0  0
    1.3985    0.0470    0.0211 C   0  0  0  0  0  0  0  0  0  0  0  0
    0.7120   -0.9357    0.7328 C   0  0  0  0  0  0  0  0  0  0  0  0
   -0.6588   -1.0069    0.6940 C   0  0  0  0  0  0  0  0  0  0  0  0
   -1.3953   -0.0907   -0.0566 C   0  0  0  0  0  0  0  0  0  0  0  0
   -2.8493   -0.1409   -0.1133 C   0  0  0  0  0  0  0  0  0  0  0  0
   -3.5959    0.7690   -0.7320 N   0  0  0  0  0  0  0  0  0  0  0  0
   -4.8789    0.3902   -0.5731 C   0  0  0  0  0  0  0  0  0  0  0  0
   -6.0061    1.1235   -1.1630 C   0  0  0  0  0  0  0  0  0  0  0  0
   -5.9070    2.5001   -1.3512 C   0  0  0  0  0  0  0  0  0  0  0  0
   -6.9432    3.2106   -1.9162 C   0  0  0  0  0  0  0  0  0  0  0  0
   -8.0934    2.5578   -2.3128 C   0  0  0  0  0  0  0  0  0  0  0  0
   -8.2025    1.1910   -2.1496 C   0  0  0  0  0  0  0  0  0  0  0  0
   -7.1683    0.4781   -1.5847 C   0  0  0  0  0  0  0  0  0  0  0  0
   -4.9305   -0.7994    0.1922 C   0  0  0  0  0  0  0  0  0  0  0  0
   -6.0969   -1.5379    0.6848 C   0  0  0  0  0  0  0  0  0  0  0  0
   -6.0794   -2.9316    0.7205 C   0  0  0  0  0  0  0  0  0  0  0  0
   -7.1635   -3.6365    1.1952 C   0  0  0  0  0  0  0  0  0  0  0  0
   -8.2809   -2.9648    1.6505 C   0  0  0  0  0  0  0  0  0  0  0  0
   -8.3108   -1.5843    1.6350 C   0  0  0  0  0  0  0  0  0  0  0  0
   -7.2293   -0.8756    1.1612 C   0  0  0  0  0  0  0  0  0  0  0  0
   -3.6344   -1.1244    0.4588 N   0  0  0  0  0  0  0  0  0  0  0  0
   -0.7091    0.8955   -0.7637 C   0  0  0  0  0  0  0  0  0  0  0  0
    0.6618    0.9633   -0.7291 C   0  0  0  0  0  0  0  0  0  0  0  0
    3.6451    0.9548   -0.6655 N   0  0  0  0  0  0  0  0  0  0  0  0
    4.9369    0.6988   -0.3160 C   0  0  0  0  0  0  0  0  0  0  0  0
    6.0996    1.4422   -0.8101 C   0  0  0  0  0  0  0  0  0  0  0  0
    7.1443    1.8087    0.0398 C   0  0  0  0  0  0  0  0  0  0  0  0
    8.2225    2.5198   -0.4380 C   0  0  0  0  0  0  0  0  0  0  0  0
    8.2759    2.8857   -1.7685 C   0  0  0  0  0  0  0  0  0  0  0  0
    7.2448    2.5432   -2.6208 C   0  0  0  0  0  0  0  0  0  0  0  0
    6.1642    1.8322   -2.1471 C   0  0  0  0  0  0  0  0  0  0  0  0
    5.8373   -1.5766    2.5541 C   0  0  0  0  0  0  0  0  0  0  0  0
    6.8725   -2.2359    3.1796 C   0  0  0  0  0  0  0  0  0  0  0  0
    8.9002   -2.8871    3.0333 H   0  0  0  0  0  0  0  0  0  0  0  0
    9.2171   -1.9642    0.7773 H   0  0  0  0  0  0  0  0  0  0  0  0
    7.3678   -0.8017   -0.3450 H   0  0  0  0  0  0  0  0  0  0  0  0
    1.2800   -1.6408    1.3139 H   0  0  0  0  0  0  0  0  0  0  0  0
   -1.1742   -1.7698    1.2486 H   0  0  0  0  0  0  0  0  0  0  0  0
   -5.0034    2.9989   -1.0465 H   0  0  0  0  0  0  0  0  0  0  0  0
   -6.8549    4.2761   -2.0505 H   0  0  0  0  0  0  0  0  0  0  0  0
   -8.9039    3.1143   -2.7548 H   0  0  0  0  0  0  0  0  0  0  0  0
   -9.0969    0.6809   -2.4671 H   0  0  0  0  0  0  0  0  0  0  0  0
   -7.2445   -0.5892   -1.4738 H   0  0  0  0  0  0  0  0  0  0  0  0
   -5.2076   -3.4507    0.3619 H   0  0  0  0  0  0  0  0  0  0  0  0
   -7.1397   -4.7136    1.2113 H   0  0  0  0  0  0  0  0  0  0  0  0
   -9.1284   -3.5181    2.0213 H   0  0  0  0  0  0  0  0  0  0  0  0
   -9.1807   -1.0608    1.9960 H   0  0  0  0  0  0  0  0  0  0  0  0
   -7.2441    0.2004    1.1595 H   0  0  0  0  0  0  0  0  0  0  0  0
   -3.3187   -1.9186    1.0172 H   0  0  0  0  0  0  0  0  0  0  0  0
   -1.2775    1.6042   -1.3400 H   0  0  0  0  0  0  0  0  0  0  0  0
    1.1766    1.7307   -1.2782 H   0  0  0  0  0  0  0  0  0  0  0  0
    3.3328    1.6774   -1.3154 H   0  0  0  0  0  0  0  0  0  0  0  0
    7.0934    1.5326    1.0787 H   0  0  0  0  0  0  0  0  0  0  0  0
    9.0247    2.7925    0.2277 H   0  0  0  0  0  0  0  0  0  0  0  0
    9.1209    3.4415   -2.1411 H   0  0  0  0  0  0  0  0  0  0  0  0
    7.2854    2.8327   -3.6579 H   0  0  0  0  0  0  0  0  0  0  0  0
    5.3595    1.5607   -2.8081 H   0  0  0  0  0  0  0  0  0  0  0  0
    4.8819   -1.4734    3.0386 H   0  0  0  0  0  0  0  0  0  0  0  0
    6.7308   -2.6485    4.1648 H   0  0  0  0  0  0  0  0  0  0  0  0
  1  2  2  0  0  0  0
  2  3  1  0  0  0  0
  3  4  2  0  0  0  0
  4  5  1  0  0  0  0
  5  6  1  0  0  0  0
  6  7  2  0  0  0  0
  7  8  1  0  0  0  0
  8  9  2  0  0  0  0
  9 10  1  0  0  0  0
 10 11  2  0  0  0  0
 11 12  1  0  0  0  0
 12 13  2  0  0  0  0
 13 14  1  0  0  0  0
 14 15  1  0  0  0  0
 15 16  2  0  0  0  0
 16 17  1  0  0  0  0
 17 18  2  0  0  0  0
 18 19  1  0  0  0  0
 19 20  2  0  0  0  0
 14 21  2  0  0  0  0
 21 22  1  0  0  0  0
 22 23  2  0  0  0  0
 23 24  1  0  0  0  0
 24 25  2  0  0  0  0
 25 26  1  0  0  0  0
 26 27  2  0  0  0  0
 21 28  1  0  0  0  0
 11 29  1  0  0  0  0
 29 30  2  0  0  0  0
  7 31  1  0  0  0  0
 31 32  1  0  0  0  0
 32 33  1  0  0  0  0
 33 34  2  0  0  0  0
 34 35  1  0  0  0  0
 35 36  2  0  0  0  0
 36 37  1  0  0  0  0
 37 38  2  0  0  0  0
  4 39  1  0  0  0  0
 39 40  2  0  0  0  0
 40  1  1  0  0  0  0
 32  5  2  0  0  0  0
 38 33  1  0  0  0  0
 30  8  1  0  0  0  0
 28 12  1  0  0  0  0
 20 15  1  0  0  0  0
 27 22  1  0  0  0  0
  1 41  1  0  0  0  0
  2 42  1  0  0  0  0
  3 43  1  0  0  0  0
  9 44  1  0  0  0  0
 10 45  1  0  0  0  0
 16 46  1  0  0  0  0
 17 47  1  0  0  0  0
 18 48  1  0  0  0  0
 19 49  1  0  0  0  0
 20 50  1  0  0  0  0
 23 51  1  0  0  0  0
 24 52  1  0  0  0  0
 25 53  1  0  0  0  0
 26 54  1  0  0  0  0
 27 55  1  0  0  0  0
 28 56  1  0  0  0  0
 29 57  1  0  0  0  0
 30 58  1  0  0  0  0
 31 59  1  0  0  0  0
 34 60  1  0  0  0  0
 35 61  1  0  0  0  0
 36 62  1  0  0  0  0
 37 63  1  0  0  0  0
 38 64  1  0  0  0  0
 39 65  1  0  0  0  0
 40 66  1  0  0  0  0
M  END
