
  xtb     03012221213D
 energy: -4.889108660438 gnorm: 0.000412133632 xtb: 6.4.1 (afa7bdf)
 23 25  0     0  0            999 V2000
   -0.0264   -2.4249   -0.4271 O   0  0  0  0  0  0  0  0  0  0  0  0
   -0.0132   -1.2156   -0.2830 C   0  0  0  0  0  0  0  0  0  0  0  0
    1.2743   -0.5074   -0.2308 C   0  0  0  0  0  0  0  0  0  0  0  0
    2.4333   -1.2667   -0.3507 C   0  0  0  0  0  0  0  0  0  0  0  0
    3.6768   -0.6826   -0.3123 C   0  0  0  0  0  0  0  0  0  0  0  0
    3.7865    0.6849   -0.1517 C   0  0  0  0  0  0  0  0  0  0  0  0
    2.6499    1.4528   -0.0314 C   0  0  0  0  0  0  0  0  0  0  0  0
    1.3887    0.8757   -0.0685 C   0  0  0  0  0  0  0  0  0  0  0  0
    0.0214    1.9727    0.0969 S   0  0  0  0  0  0  0  0  0  0  0  0
   -1.3696    0.8971    0.0035 C   0  0  0  0  0  0  0  0  0  0  0  0
   -2.6181    1.4936    0.1063 C   0  0  0  0  0  0  0  0  0  0  0  0
   -3.7711    0.7434    0.0457 C   0  0  0  0  0  0  0  0  0  0  0  0
   -3.6909   -0.6256   -0.1198 C   0  0  0  0  0  0  0  0  0  0  0  0
   -2.4603   -1.2289   -0.2229 C   0  0  0  0  0  0  0  0  0  0  0  0
   -1.2851   -0.4876   -0.1640 C   0  0  0  0  0  0  0  0  0  0  0  0
    2.3302   -2.3315   -0.4753 H   0  0  0  0  0  0  0  0  0  0  0  0
    4.5622   -1.2891   -0.4071 H   0  0  0  0  0  0  0  0  0  0  0  0
    4.7584    1.1486   -0.1209 H   0  0  0  0  0  0  0  0  0  0  0  0
    2.7269    2.5204    0.0942 H   0  0  0  0  0  0  0  0  0  0  0  0
   -2.6720    2.5622    0.2352 H   0  0  0  0  0  0  0  0  0  0  0  0
   -4.7329    1.2219    0.1271 H   0  0  0  0  0  0  0  0  0  0  0  0
   -4.5892   -1.2185   -0.1680 H   0  0  0  0  0  0  0  0  0  0  0  0
   -2.3799   -2.2951   -0.3522 H   0  0  0  0  0  0  0  0  0  0  0  0
  1  2  2  0  0  0  0
  2  3  1  0  0  0  0
  3  4  2  0  0  0  0
  4  5  1  0  0  0  0
  5  6  2  0  0  0  0
  6  7  1  0  0  0  0
  7  8  2  0  0  0  0
  8  9  1  0  0  0  0
  9 10  1  0  0  0  0
 10 11  2  0  0  0  0
 11 12  1  0  0  0  0
 12 13  2  0  0  0  0
 13 14  1  0  0  0  0
 14 15  2  0  0  0  0
 15  2  1  0  0  0  0
  8  3  1  0  0  0  0
 15 10  1  0  0  0  0
  4 16  1  0  0  0  0
  5 17  1  0  0  0  0
  6 18  1  0  0  0  0
  7 19  1  0  0  0  0
 11 20  1  0  0  0  0
 12 21  1  0  0  0  0
 13 22  1  0  0  0  0
 14 23  1  0  0  0  0
M  END
