
  xtb     03012221323D
 energy: -6.019646289279 gnorm: 0.000266554443 xtb: 6.4.1 (afa7bdf)
 33 35  0     0  0            999 V2000
   -3.9264    0.6407   -0.5721 C   0  0  0  0  0  0  0  0  0  0  0  0
   -3.2305   -0.6191   -0.0830 C   0  0  0  0  0  0  0  0  0  0  0  0
   -1.7520   -0.4416    0.0546 C   0  0  0  0  0  0  0  0  0  0  0  0
   -1.0902    0.1705    1.1263 C   0  0  0  0  0  0  0  0  0  0  0  0
   -1.7075    0.7627    2.3363 C   0  0  0  0  0  0  0  0  0  0  0  0
    0.2965    0.1966    0.8099 C   0  0  0  0  0  0  0  0  0  0  0  0
    1.3876    0.6996    1.4971 C   0  0  0  0  0  0  0  0  0  0  0  0
    2.6355    0.5833    0.9096 C   0  0  0  0  0  0  0  0  0  0  0  0
    3.9186    0.9878    1.3497 C   0  0  0  0  0  0  0  0  0  0  0  0
    4.8334    0.6290    0.3712 C   0  0  0  0  0  0  0  0  0  0  0  0
    4.1507    0.0039   -0.6820 C   0  0  0  0  0  0  0  0  0  0  0  0
    2.8543   -0.0120   -0.3426 N   0  0  0  0  0  0  0  0  0  0  0  0
    1.7213   -0.5906   -1.1952 B   0  0  0  0  0  4  0  0  0  0  0  0
    1.9429   -1.9496   -1.3966 F   0  0  0  0  0  0  0  0  0  0  0  0
    1.6513    0.1031   -2.3996 F   0  0  0  0  0  0  0  0  0  0  0  0
    0.3987   -0.4108   -0.4456 N   0  0  0  0  0  4  0  0  0  0  0  0
   -0.7940   -0.7966   -0.9246 C   0  0  0  0  0  0  0  0  0  0  0  0
   -1.0050   -1.4495   -2.2282 C   0  0  0  0  0  0  0  0  0  0  0  0
   -3.7638    1.4716    0.1158 H   0  0  0  0  0  0  0  0  0  0  0  0
   -5.0044    0.5019   -0.6743 H   0  0  0  0  0  0  0  0  0  0  0  0
   -3.5386    0.9498   -1.5438 H   0  0  0  0  0  0  0  0  0  0  0  0
   -3.6453   -0.9390    0.8801 H   0  0  0  0  0  0  0  0  0  0  0  0
   -3.4265   -1.4520   -0.7687 H   0  0  0  0  0  0  0  0  0  0  0  0
   -1.0741    0.6095    3.2105 H   0  0  0  0  0  0  0  0  0  0  0  0
   -2.6774    0.3130    2.5483 H   0  0  0  0  0  0  0  0  0  0  0  0
   -1.8538    1.8357    2.2095 H   0  0  0  0  0  0  0  0  0  0  0  0
    1.2719    1.1691    2.4555 H   0  0  0  0  0  0  0  0  0  0  0  0
    4.1352    1.4854    2.2793 H   0  0  0  0  0  0  0  0  0  0  0  0
    5.8968    0.8024    0.4111 H   0  0  0  0  0  0  0  0  0  0  0  0
    4.5525   -0.3951   -1.5982 H   0  0  0  0  0  0  0  0  0  0  0  0
   -1.4179   -2.4503   -2.1019 H   0  0  0  0  0  0  0  0  0  0  0  0
   -1.6847   -0.8687   -2.8518 H   0  0  0  0  0  0  0  0  0  0  0  0
   -0.0546   -1.5406   -2.7563 H   0  0  0  0  0  0  0  0  0  0  0  0
  1  2  1  0  0  0  0
  2  3  1  0  0  0  0
  3  4  2  0  0  0  0
  4  5  1  0  0  0  0
  4  6  1  0  0  0  0
  6  7  2  0  0  0  0
  7  8  1  0  0  0  0
  8  9  2  0  0  0  0
  9 10  1  0  0  0  0
 10 11  2  0  0  0  0
 11 12  1  0  0  0  0
 12 13  1  0  0  0  0
 13 14  1  0  0  0  0
 13 15  1  0  0  0  0
 13 16  1  0  0  0  0
 16 17  2  0  0  0  0
 17 18  1  0  0  0  0
 17  3  1  0  0  0  0
 16  6  1  0  0  0  0
 12  8  1  0  0  0  0
  1 19  1  0  0  0  0
  1 20  1  0  0  0  0
  1 21  1  0  0  0  0
  2 22  1  0  0  0  0
  2 23  1  0  0  0  0
  5 24  1  0  0  0  0
  5 25  1  0  0  0  0
  5 26  1  0  0  0  0
  7 27  1  0  0  0  0
  9 28  1  0  0  0  0
 10 29  1  0  0  0  0
 11 30  1  0  0  0  0
 18 31  1  0  0  0  0
 18 32  1  0  0  0  0
 18 33  1  0  0  0  0
M  CHG  1  13  -1
M  CHG  1  16   1
M  END
