
  xtb     03012221273D
 energy: -6.065542862266 gnorm: 0.000273074312 xtb: 6.4.1 (afa7bdf)
 30 32  0     0  0            999 V2000
   -2.1711    2.4519   -0.1458 C   0  0  0  0  0  0  0  0  0  0  0  0
   -3.0360    1.8532    1.2688 S   0  0  0  0  0  0  0  0  0  0  0  0
   -3.4379    0.2376    0.6684 C   0  0  0  0  0  0  0  0  0  0  0  0
   -4.7607   -0.1617    0.6050 C   0  0  0  0  0  0  0  0  0  0  0  0
   -5.0948   -1.4159    0.1370 C   0  0  0  0  0  0  0  0  0  0  0  0
   -4.1036   -2.2875   -0.2729 C   0  0  0  0  0  0  0  0  0  0  0  0
   -2.7831   -1.9053   -0.2134 C   0  0  0  0  0  0  0  0  0  0  0  0
   -2.4302   -0.6455    0.2568 C   0  0  0  0  0  0  0  0  0  0  0  0
   -1.1039   -0.2701    0.3123 N   0  0  0  0  0  0  0  0  0  0  0  0
   -0.1954   -1.0058   -0.1066 N   0  0  0  0  0  0  0  0  0  0  0  0
    1.0947   -0.5693   -0.0352 C   0  0  0  0  0  0  0  0  0  0  0  0
    2.1360   -1.2485   -0.4262 N   0  0  0  0  0  0  0  0  0  0  0  0
    3.3077   -0.5434   -0.2279 C   0  0  0  0  0  0  0  0  0  0  0  0
    4.5942   -1.0022   -0.5428 C   0  0  0  0  0  0  0  0  0  0  0  0
    5.6781   -0.2000   -0.2919 C   0  0  0  0  0  0  0  0  0  0  0  0
    5.5147    1.0644    0.2714 C   0  0  0  0  0  0  0  0  0  0  0  0
    4.2616    1.5317    0.5873 C   0  0  0  0  0  0  0  0  0  0  0  0
    3.1584    0.7290    0.3383 C   0  0  0  0  0  0  0  0  0  0  0  0
    1.4726    1.0242    0.6198 S   0  0  0  0  0  0  0  0  0  0  0  0
   -1.2637    1.8743   -0.3037 H   0  0  0  0  0  0  0  0  0  0  0  0
   -1.8983    3.4945   -0.0019 H   0  0  0  0  0  0  0  0  0  0  0  0
   -2.7967    2.3710   -1.0314 H   0  0  0  0  0  0  0  0  0  0  0  0
   -5.5272    0.5235    0.9263 H   0  0  0  0  0  0  0  0  0  0  0  0
   -6.1285   -1.7159    0.0916 H   0  0  0  0  0  0  0  0  0  0  0  0
   -4.3642   -3.2672   -0.6382 H   0  0  0  0  0  0  0  0  0  0  0  0
   -1.9997   -2.5720   -0.5274 H   0  0  0  0  0  0  0  0  0  0  0  0
    4.7085   -1.9797   -0.9763 H   0  0  0  0  0  0  0  0  0  0  0  0
    6.6682   -0.5503   -0.5328 H   0  0  0  0  0  0  0  0  0  0  0  0
    6.3787    1.6795    0.4608 H   0  0  0  0  0  0  0  0  0  0  0  0
    4.1216    2.5054    1.0233 H   0  0  0  0  0  0  0  0  0  0  0  0
  1  2  1  0  0  0  0
  2  3  1  0  0  0  0
  3  4  2  0  0  0  0
  4  5  1  0  0  0  0
  5  6  2  0  0  0  0
  6  7  1  0  0  0  0
  7  8  2  0  0  0  0
  8  9  1  0  0  0  0
  9 10  2  0  0  0  0
 10 11  1  0  0  0  0
 11 12  2  0  0  0  0
 12 13  1  0  0  0  0
 13 14  2  0  0  0  0
 14 15  1  0  0  0  0
 15 16  2  0  0  0  0
 16 17  1  0  0  0  0
 17 18  2  0  0  0  0
 18 19  1  0  0  0  0
  8  3  1  0  0  0  0
 19 11  1  0  0  0  0
 18 13  1  0  0  0  0
  1 20  1  0  0  0  0
  1 21  1  0  0  0  0
  1 22  1  0  0  0  0
  4 23  1  0  0  0  0
  5 24  1  0  0  0  0
  6 25  1  0  0  0  0
  7 26  1  0  0  0  0
 14 27  1  0  0  0  0
 15 28  1  0  0  0  0
 16 29  1  0  0  0  0
 17 30  1  0  0  0  0
M  END
