
  xtb     03012221293D
 energy: -6.374546988886 gnorm: 0.000339315696 xtb: 6.4.1 (afa7bdf)
 30 32  0     0  0            999 V2000
   -3.6734   -2.8189    0.2456 O   0  0  0  0  0  0  0  0  0  0  0  0
   -2.4979   -2.5059    0.2010 C   0  0  0  0  0  0  0  0  0  0  0  0
   -1.5250   -3.4473    0.1972 O   0  0  0  0  0  0  0  0  0  0  0  0
   -2.1376   -1.0690    0.1505 C   0  0  0  0  0  0  0  0  0  0  0  0
   -3.1623   -0.1662    0.1579 C   0  0  0  0  0  0  0  0  0  0  0  0
   -2.9310    1.2092    0.1134 C   0  0  0  0  0  0  0  0  0  0  0  0
   -1.6659    1.7188    0.0596 C   0  0  0  0  0  0  0  0  0  0  0  0
   -1.5037    3.1903    0.0138 C   0  0  0  0  0  0  0  0  0  0  0  0
   -0.4062    3.7094   -0.0431 O   0  0  0  0  0  0  0  0  0  0  0  0
   -2.6386    3.9316    0.0378 O   0  0  0  0  0  0  0  0  0  0  0  0
   -0.5486    0.8196    0.0484 C   0  0  0  0  0  0  0  0  0  0  0  0
    0.7611    1.2806   -0.0074 C   0  0  0  0  0  0  0  0  0  0  0  0
    1.8501    0.4165   -0.0165 C   0  0  0  0  0  0  0  0  0  0  0  0
    3.1874    0.8868   -0.0739 C   0  0  0  0  0  0  0  0  0  0  0  0
    4.2248    0.0137   -0.0799 C   0  0  0  0  0  0  0  0  0  0  0  0
    3.9949   -1.3731   -0.0294 C   0  0  0  0  0  0  0  0  0  0  0  0
    2.7317   -1.8631    0.0256 C   0  0  0  0  0  0  0  0  0  0  0  0
    1.6171   -0.9852    0.0332 C   0  0  0  0  0  0  0  0  0  0  0  0
    0.3075   -1.4508    0.0872 C   0  0  0  0  0  0  0  0  0  0  0  0
   -0.7850   -0.5916    0.0958 C   0  0  0  0  0  0  0  0  0  0  0  0
   -1.9792   -4.3107    0.2348 H   0  0  0  0  0  0  0  0  0  0  0  0
   -4.1706   -0.5440    0.1997 H   0  0  0  0  0  0  0  0  0  0  0  0
   -3.7599    1.8969    0.1210 H   0  0  0  0  0  0  0  0  0  0  0  0
   -2.3642    4.8678    0.0016 H   0  0  0  0  0  0  0  0  0  0  0  0
    0.9379    2.3391   -0.0442 H   0  0  0  0  0  0  0  0  0  0  0  0
    3.3653    1.9469   -0.1127 H   0  0  0  0  0  0  0  0  0  0  0  0
    5.2375    0.3814   -0.1237 H   0  0  0  0  0  0  0  0  0  0  0  0
    4.8346   -2.0495   -0.0346 H   0  0  0  0  0  0  0  0  0  0  0  0
    2.5591   -2.9240    0.0639 H   0  0  0  0  0  0  0  0  0  0  0  0
    0.1399   -2.5095    0.1229 H   0  0  0  0  0  0  0  0  0  0  0  0
  1  2  2  0  0  0  0
  2  3  1  0  0  0  0
  2  4  1  0  0  0  0
  4  5  2  0  0  0  0
  5  6  1  0  0  0  0
  6  7  2  0  0  0  0
  7  8  1  0  0  0  0
  8  9  2  0  0  0  0
  8 10  1  0  0  0  0
  7 11  1  0  0  0  0
 11 12  2  0  0  0  0
 12 13  1  0  0  0  0
 13 14  2  0  0  0  0
 14 15  1  0  0  0  0
 15 16  2  0  0  0  0
 16 17  1  0  0  0  0
 17 18  2  0  0  0  0
 18 19  1  0  0  0  0
 19 20  2  0  0  0  0
 20  4  1  0  0  0  0
 20 11  1  0  0  0  0
 18 13  1  0  0  0  0
  3 21  1  0  0  0  0
  5 22  1  0  0  0  0
  6 23  1  0  0  0  0
 10 24  1  0  0  0  0
 12 25  1  0  0  0  0
 14 26  1  0  0  0  0
 15 27  1  0  0  0  0
 16 28  1  0  0  0  0
 17 29  1  0  0  0  0
 19 30  1  0  0  0  0
M  END
