
  xtb     03012221223D
 energy: -12.030726125944 gnorm: 0.000231110421 xtb: 6.4.1 (afa7bdf)
 63 66  0     0  0            999 V2000
   -1.2475    5.5827    2.4893 C   0  0  0  0  0  0  0  0  0  0  0  0
   -1.1420    4.2022    2.3539 O   0  0  0  0  0  0  0  0  0  0  0  0
   -0.6356    3.9002    1.1191 C   0  0  0  0  0  0  0  0  0  0  0  0
   -0.3428    4.7418    0.2883 O   0  0  0  0  0  0  0  0  0  0  0  0
   -0.4533    2.4715    0.8105 C   0  0  0  0  0  0  0  0  0  0  0  0
    0.0580    2.0861   -0.4230 C   0  0  0  0  0  0  0  0  0  0  0  0
    0.2159    0.7607   -0.7304 C   0  0  0  0  0  0  0  0  0  0  0  0
   -0.1423   -0.2342    0.1911 C   0  0  0  0  0  0  0  0  0  0  0  0
   -0.0312   -1.6691   -0.1496 C   0  0  0  0  0  0  0  0  0  0  0  0
    1.2452   -2.2594   -0.3402 C   0  0  0  0  0  0  0  0  0  0  0  0
    2.4327   -1.4905   -0.2903 C   0  0  0  0  0  0  0  0  0  0  0  0
    3.6480   -2.0682   -0.4509 C   0  0  0  0  0  0  0  0  0  0  0  0
    4.9118   -1.3945   -0.4005 C   0  0  0  0  0  0  0  0  0  0  0  0
    6.0956   -2.1278   -0.5663 C   0  0  0  0  0  0  0  0  0  0  0  0
    7.3205   -1.5189   -0.5182 C   0  0  0  0  0  0  0  0  0  0  0  0
    7.4322   -0.1384   -0.3011 C   0  0  0  0  0  0  0  0  0  0  0  0
    8.6333    0.5638   -0.2345 O   0  0  0  0  0  0  0  0  0  0  0  0
    9.7918   -0.2201   -0.3883 C   0  0  0  0  0  0  0  0  0  0  0  0
    6.2476    0.5925   -0.1381 C   0  0  0  0  0  0  0  0  0  0  0  0
    5.0219   -0.0131   -0.1853 C   0  0  0  0  0  0  0  0  0  0  0  0
    1.3645   -3.5908   -0.5679 O   0  0  0  0  0  0  0  0  0  0  0  0
    0.2837   -4.3861    0.0078 B   0  0  0  0  0  4  0  0  0  0  0  0
    0.4128   -5.7152   -0.3560 F   0  0  0  0  0  0  0  0  0  0  0  0
    0.3461   -4.2495    1.3859 F   0  0  0  0  0  0  0  0  0  0  0  0
   -0.9968   -3.8495   -0.4394 O   0  0  0  0  0  3  0  0  0  0  0  0
   -1.1692   -2.5093   -0.3085 C   0  0  0  0  0  0  0  0  0  0  0  0
   -2.5193   -2.0599   -0.3740 C   0  0  0  0  0  0  0  0  0  0  0  0
   -2.9556   -0.7738   -0.4411 C   0  0  0  0  0  0  0  0  0  0  0  0
   -4.3229   -0.3519   -0.4951 C   0  0  0  0  0  0  0  0  0  0  0  0
   -4.6163    1.0183   -0.5471 C   0  0  0  0  0  0  0  0  0  0  0  0
   -5.9098    1.4593   -0.5960 C   0  0  0  0  0  0  0  0  0  0  0  0
   -6.9864    0.5622   -0.5950 C   0  0  0  0  0  0  0  0  0  0  0  0
   -8.2700    1.1006   -0.6483 O   0  0  0  0  0  0  0  0  0  0  0  0
   -9.3136    0.1566   -0.6388 C   0  0  0  0  0  0  0  0  0  0  0  0
   -6.6923   -0.8075   -0.5403 C   0  0  0  0  0  0  0  0  0  0  0  0
   -5.3984   -1.2523   -0.4910 C   0  0  0  0  0  0  0  0  0  0  0  0
   -0.6432    0.1662    1.4388 C   0  0  0  0  0  0  0  0  0  0  0  0
   -0.7950    1.4943    1.7384 C   0  0  0  0  0  0  0  0  0  0  0  0
   -1.9112    5.9634    1.7101 H   0  0  0  0  0  0  0  0  0  0  0  0
   -1.6506    5.8166    3.4762 H   0  0  0  0  0  0  0  0  0  0  0  0
   -0.2556    6.0242    2.3721 H   0  0  0  0  0  0  0  0  0  0  0  0
    0.3198    2.8547   -1.1314 H   0  0  0  0  0  0  0  0  0  0  0  0
    0.5930    0.4675   -1.6941 H   0  0  0  0  0  0  0  0  0  0  0  0
    2.3564   -0.4376   -0.0978 H   0  0  0  0  0  0  0  0  0  0  0  0
    3.6571   -3.1306   -0.6209 H   0  0  0  0  0  0  0  0  0  0  0  0
    6.0305   -3.1890   -0.7320 H   0  0  0  0  0  0  0  0  0  0  0  0
    8.2098   -2.1108   -0.6486 H   0  0  0  0  0  0  0  0  0  0  0  0
    9.8382   -0.9699    0.4021 H   0  0  0  0  0  0  0  0  0  0  0  0
   10.6604    0.4342   -0.3093 H   0  0  0  0  0  0  0  0  0  0  0  0
    9.7906   -0.6926   -1.3710 H   0  0  0  0  0  0  0  0  0  0  0  0
    6.3295    1.6538    0.0282 H   0  0  0  0  0  0  0  0  0  0  0  0
    4.1347    0.5793   -0.0561 H   0  0  0  0  0  0  0  0  0  0  0  0
   -3.2463   -2.8505   -0.4079 H   0  0  0  0  0  0  0  0  0  0  0  0
   -2.2259    0.0104   -0.4714 H   0  0  0  0  0  0  0  0  0  0  0  0
   -3.8063    1.7268   -0.5428 H   0  0  0  0  0  0  0  0  0  0  0  0
   -6.1300    2.5131   -0.6359 H   0  0  0  0  0  0  0  0  0  0  0  0
   -9.2745   -0.4290    0.2801 H   0  0  0  0  0  0  0  0  0  0  0  0
  -10.2613    0.6944   -0.6775 H   0  0  0  0  0  0  0  0  0  0  0  0
   -9.2353   -0.4895   -1.5136 H   0  0  0  0  0  0  0  0  0  0  0  0
   -7.4961   -1.5233   -0.5364 H   0  0  0  0  0  0  0  0  0  0  0  0
   -5.2071   -2.3089   -0.4476 H   0  0  0  0  0  0  0  0  0  0  0  0
   -0.9128   -0.5892    2.1556 H   0  0  0  0  0  0  0  0  0  0  0  0
   -1.1851    1.8037    2.6935 H   0  0  0  0  0  0  0  0  0  0  0  0
  1  2  1  0  0  0  0
  2  3  1  0  0  0  0
  3  4  2  0  0  0  0
  3  5  1  0  0  0  0
  5  6  2  0  0  0  0
  6  7  1  0  0  0  0
  7  8  2  0  0  0  0
  8  9  1  0  0  0  0
  9 10  2  0  0  0  0
 10 11  1  0  0  0  0
 11 12  2  0  0  0  0
 12 13  1  0  0  0  0
 13 14  2  0  0  0  0
 14 15  1  0  0  0  0
 15 16  2  0  0  0  0
 16 17  1  0  0  0  0
 17 18  1  0  0  0  0
 16 19  1  0  0  0  0
 19 20  2  0  0  0  0
 10 21  1  0  0  0  0
 21 22  1  0  0  0  0
 22 23  1  0  0  0  0
 22 24  1  0  0  0  0
 22 25  1  0  0  0  0
 25 26  2  0  0  0  0
 26 27  1  0  0  0  0
 27 28  2  0  0  0  0
 28 29  1  0  0  0  0
 29 30  2  0  0  0  0
 30 31  1  0  0  0  0
 31 32  2  0  0  0  0
 32 33  1  0  0  0  0
 33 34  1  0  0  0  0
 32 35  1  0  0  0  0
 35 36  2  0  0  0  0
  8 37  1  0  0  0  0
 37 38  2  0  0  0  0
 38  5  1  0  0  0  0
 26  9  1  0  0  0  0
 36 29  1  0  0  0  0
 20 13  1  0  0  0  0
  1 39  1  0  0  0  0
  1 40  1  0  0  0  0
  1 41  1  0  0  0  0
  6 42  1  0  0  0  0
  7 43  1  0  0  0  0
 11 44  1  0  0  0  0
 12 45  1  0  0  0  0
 14 46  1  0  0  0  0
 15 47  1  0  0  0  0
 18 48  1  0  0  0  0
 18 49  1  0  0  0  0
 18 50  1  0  0  0  0
 19 51  1  0  0  0  0
 20 52  1  0  0  0  0
 27 53  1  0  0  0  0
 28 54  1  0  0  0  0
 30 55  1  0  0  0  0
 31 56  1  0  0  0  0
 34 57  1  0  0  0  0
 34 58  1  0  0  0  0
 34 59  1  0  0  0  0
 35 60  1  0  0  0  0
 36 61  1  0  0  0  0
 37 62  1  0  0  0  0
 38 63  1  0  0  0  0
M  CHG  1  22  -1
M  CHG  1  25   1
M  END
