
  xtb     03012221273D
 energy: -9.014709082936 gnorm: 0.000222273499 xtb: 6.4.1 (afa7bdf)
 41 47  0     0  0            999 V2000
    0.1530   -1.9537   -1.7509 F   0  0  0  0  0  0  0  0  0  0  0  0
    0.1362   -0.5890   -1.4565 B   0  0  0  0  0  4  0  0  0  0  0  0
    0.2460    0.1901   -2.6098 F   0  0  0  0  0  0  0  0  0  0  0  0
   -1.2318   -0.2283   -0.7042 C   0  0  0  0  0  0  0  0  0  0  0  0
   -1.2431    0.2884    0.5872 C   0  0  0  0  0  0  0  0  0  0  0  0
   -0.0762    0.5337    1.3277 C   0  0  0  0  0  0  0  0  0  0  0  0
    1.1471    0.2525    0.7567 C   0  0  0  0  0  0  0  0  0  0  0  0
    2.5044    0.4076    1.2922 C   0  0  0  0  0  0  0  0  0  0  0  0
    3.0811    0.8518    2.4665 C   0  0  0  0  0  0  0  0  0  0  0  0
    4.4781    0.8371    2.5816 C   0  0  0  0  0  0  0  0  0  0  0  0
    5.3007    0.3955    1.5660 C   0  0  0  0  0  0  0  0  0  0  0  0
    4.7523   -0.0673    0.3485 C   0  0  0  0  0  0  0  0  0  0  0  0
    5.4200   -0.5552   -0.7996 C   0  0  0  0  0  0  0  0  0  0  0  0
    4.7071   -0.9686   -1.9114 C   0  0  0  0  0  0  0  0  0  0  0  0
    3.3120   -0.9291   -1.9644 C   0  0  0  0  0  0  0  0  0  0  0  0
    2.6247   -0.4577   -0.8600 C   0  0  0  0  0  0  0  0  0  0  0  0
    3.3607   -0.0382    0.2697 C   0  0  0  0  0  0  0  0  0  0  0  0
    1.2987   -0.2616   -0.5133 N   0  0  0  0  0  0  0  0  0  0  0  0
   -2.6337    0.4979    0.9595 C   0  0  0  0  0  0  0  0  0  0  0  0
   -3.3182    0.9721    2.0714 C   0  0  0  0  0  0  0  0  0  0  0  0
   -4.7116    1.0178    2.0334 C   0  0  0  0  0  0  0  0  0  0  0  0
   -5.4298    0.6069    0.9266 C   0  0  0  0  0  0  0  0  0  0  0  0
   -4.7652    0.1200   -0.2192 C   0  0  0  0  0  0  0  0  0  0  0  0
   -5.3286   -0.3371   -1.4250 C   0  0  0  0  0  0  0  0  0  0  0  0
   -4.5056   -0.7817   -2.4477 C   0  0  0  0  0  0  0  0  0  0  0  0
   -3.1322   -0.7925   -2.3242 C   0  0  0  0  0  0  0  0  0  0  0  0
   -2.5311   -0.3575   -1.1697 N   0  0  0  0  0  4  0  0  0  0  0  0
   -3.3704    0.0856   -0.1526 C   0  0  0  0  0  0  0  0  0  0  0  0
   -0.1361    0.9336    2.3220 H   0  0  0  0  0  0  0  0  0  0  0  0
    2.4591    1.2004    3.2714 H   0  0  0  0  0  0  0  0  0  0  0  0
    4.9233    1.1844    3.4990 H   0  0  0  0  0  0  0  0  0  0  0  0
    6.3695    0.3977    1.6878 H   0  0  0  0  0  0  0  0  0  0  0  0
    6.4946   -0.5999   -0.7944 H   0  0  0  0  0  0  0  0  0  0  0  0
    5.2457   -1.3350   -2.7694 H   0  0  0  0  0  0  0  0  0  0  0  0
    2.7625   -1.2514   -2.8307 H   0  0  0  0  0  0  0  0  0  0  0  0
   -2.7721    1.2951    2.9395 H   0  0  0  0  0  0  0  0  0  0  0  0
   -5.2431    1.3854    2.8953 H   0  0  0  0  0  0  0  0  0  0  0  0
   -6.5045    0.6532    0.9250 H   0  0  0  0  0  0  0  0  0  0  0  0
   -6.3980   -0.3364   -1.5402 H   0  0  0  0  0  0  0  0  0  0  0  0
   -4.9508   -1.1288   -3.3653 H   0  0  0  0  0  0  0  0  0  0  0  0
   -2.4944   -1.1376   -3.1184 H   0  0  0  0  0  0  0  0  0  0  0  0
  1  2  1  0  0  0  0
  2  3  1  0  0  0  0
  2  4  1  0  0  0  0
  4  5  2  0  0  0  0
  5  6  1  0  0  0  0
  6  7  2  0  0  0  0
  7  8  1  0  0  0  0
  8  9  1  0  0  0  0
  9 10  2  0  0  0  0
 10 11  1  0  0  0  0
 11 12  2  0  0  0  0
 12 13  1  0  0  0  0
 13 14  2  0  0  0  0
 14 15  1  0  0  0  0
 15 16  2  0  0  0  0
 16 17  1  0  0  0  0
 16 18  1  0  0  0  0
  5 19  1  0  0  0  0
 19 20  2  0  0  0  0
 20 21  1  0  0  0  0
 21 22  2  0  0  0  0
 22 23  1  0  0  0  0
 23 24  2  0  0  0  0
 24 25  1  0  0  0  0
 25 26  2  0  0  0  0
 26 27  1  0  0  0  0
 27 28  2  0  0  0  0
 18  2  1  0  0  0  0
 28 19  1  0  0  0  0
 27  4  1  0  0  0  0
 18  7  1  0  0  0  0
 28 23  1  0  0  0  0
 17  8  2  0  0  0  0
 17 12  1  0  0  0  0
  6 29  1  0  0  0  0
  9 30  1  0  0  0  0
 10 31  1  0  0  0  0
 11 32  1  0  0  0  0
 13 33  1  0  0  0  0
 14 34  1  0  0  0  0
 15 35  1  0  0  0  0
 20 36  1  0  0  0  0
 21 37  1  0  0  0  0
 22 38  1  0  0  0  0
 24 39  1  0  0  0  0
 25 40  1  0  0  0  0
 26 41  1  0  0  0  0
M  CHG  1   2  -1
M  CHG  1  27   1
M  END
