
  xtb     03012221293D
 energy: -5.785110071857 gnorm: 0.000586016370 xtb: 6.4.1 (afa7bdf)
 30 32  0     0  0            999 V2000
    4.8976    0.9694   -0.1824 C   0  0  0  0  0  0  0  0  0  0  0  0
    4.4087   -0.2107    0.4052 O   0  0  0  0  0  0  0  0  0  0  0  0
    3.0124   -0.3413    0.3870 C   0  0  0  0  0  0  0  0  0  0  0  0
    2.4743   -1.5075    0.9940 C   0  0  0  0  0  0  0  0  0  0  0  0
    1.1325   -1.7504    1.0438 C   0  0  0  0  0  0  0  0  0  0  0  0
    0.2566   -0.8110    0.4716 C   0  0  0  0  0  0  0  0  0  0  0  0
   -1.1597   -0.7471    0.3546 C   0  0  0  0  0  0  0  0  0  0  0  0
   -1.4693    0.4178   -0.3094 C   0  0  0  0  0  0  0  0  0  0  0  0
   -0.2957    1.0989   -0.6078 N   0  0  0  0  0  0  0  0  0  0  0  0
    0.7735    0.3530   -0.1376 C   0  0  0  0  0  0  0  0  0  0  0  0
    2.1505    0.5847   -0.1776 C   0  0  0  0  0  0  0  0  0  0  0  0
   -2.8497    0.7843   -0.5538 C   0  0  0  0  0  0  0  0  0  0  0  0
   -3.1497    2.1639   -1.0033 C   0  0  0  0  0  0  0  0  0  0  0  0
   -3.8158   -0.0441   -0.3455 N   0  0  0  0  0  0  0  0  0  0  0  0
   -3.5181   -1.3925   -0.0358 C   0  0  0  0  0  0  0  0  0  0  0  0
   -2.2481   -1.6534    0.8022 C   0  0  0  0  0  0  0  0  0  0  0  0
    5.9852    0.9723   -0.1000 H   0  0  0  0  0  0  0  0  0  0  0  0
    4.6226    1.0007   -1.2375 H   0  0  0  0  0  0  0  0  0  0  0  0
    4.5007    1.8387    0.3437 H   0  0  0  0  0  0  0  0  0  0  0  0
    3.1688   -2.2075    1.4231 H   0  0  0  0  0  0  0  0  0  0  0  0
    0.7382   -2.6365    1.5088 H   0  0  0  0  0  0  0  0  0  0  0  0
   -0.2281    1.9930   -1.0953 H   0  0  0  0  0  0  0  0  0  0  0  0
    2.5164    1.4770   -0.6461 H   0  0  0  0  0  0  0  0  0  0  0  0
   -4.2273    2.3260   -1.0385 H   0  0  0  0  0  0  0  0  0  0  0  0
   -2.7180    2.8976   -0.3217 H   0  0  0  0  0  0  0  0  0  0  0  0
   -2.7471    2.3427   -2.0010 H   0  0  0  0  0  0  0  0  0  0  0  0
   -3.4405   -1.9301   -0.9892 H   0  0  0  0  0  0  0  0  0  0  0  0
   -4.3979   -1.8132    0.4693 H   0  0  0  0  0  0  0  0  0  0  0  0
   -2.4517   -1.4782    1.8641 H   0  0  0  0  0  0  0  0  0  0  0  0
   -1.9215   -2.6964    0.7152 H   0  0  0  0  0  0  0  0  0  0  0  0
  1  2  1  0  0  0  0
  2  3  1  0  0  0  0
  3  4  2  0  0  0  0
  4  5  1  0  0  0  0
  5  6  2  0  0  0  0
  6  7  1  0  0  0  0
  7  8  2  0  0  0  0
  8  9  1  0  0  0  0
  9 10  1  0  0  0  0
 10 11  2  0  0  0  0
  8 12  1  0  0  0  0
 12 13  1  0  0  0  0
 12 14  2  0  0  0  0
 14 15  1  0  0  0  0
 15 16  1  0  0  0  0
 11  3  1  0  0  0  0
 10  6  1  0  0  0  0
 16  7  1  0  0  0  0
  1 17  1  0  0  0  0
  1 18  1  0  0  0  0
  1 19  1  0  0  0  0
  4 20  1  0  0  0  0
  5 21  1  0  0  0  0
  9 22  1  0  0  0  0
 11 23  1  0  0  0  0
 13 24  1  0  0  0  0
 13 25  1  0  0  0  0
 13 26  1  0  0  0  0
 15 27  1  0  0  0  0
 15 28  1  0  0  0  0
 16 29  1  0  0  0  0
 16 30  1  0  0  0  0
M  END
