
  xtb     03012221323D
 energy: -19.869383569503 gnorm: 0.000110993612 xtb: 6.4.1 (afa7bdf)
 95103  0     0  0            999 V2000
   -9.6883   -5.1269    1.7495 C   0  0  0  0  0  0  0  0  0  0  0  0
   -9.0312   -3.8659    1.3069 C   0  0  0  0  0  0  0  0  0  0  0  0
   -9.6268   -2.6331    1.5405 C   0  0  0  0  0  0  0  0  0  0  0  0
   -9.0109   -1.4654    1.1487 C   0  0  0  0  0  0  0  0  0  0  0  0
   -7.7733   -1.4949    0.5140 C   0  0  0  0  0  0  0  0  0  0  0  0
   -7.1332   -0.2826    0.0876 N   0  0  0  0  0  0  0  0  0  0  0  0
   -7.9210    0.8018   -0.4267 C   0  0  0  0  0  0  0  0  0  0  0  0
   -9.0508    0.5610   -1.2021 C   0  0  0  0  0  0  0  0  0  0  0  0
   -9.8096    1.6058   -1.6805 C   0  0  0  0  0  0  0  0  0  0  0  0
   -9.4695    2.9220   -1.3962 C   0  0  0  0  0  0  0  0  0  0  0  0
  -10.2791    4.0518   -1.9313 C   0  0  0  0  0  0  0  0  0  0  0  0
   -8.3345    3.1626   -0.6332 C   0  0  0  0  0  0  0  0  0  0  0  0
   -7.5728    2.1209   -0.1532 C   0  0  0  0  0  0  0  0  0  0  0  0
   -5.7109   -0.1562    0.1692 C   0  0  0  0  0  0  0  0  0  0  0  0
   -4.9930    0.4924   -0.8362 C   0  0  0  0  0  0  0  0  0  0  0  0
   -3.6305    0.6136   -0.7608 C   0  0  0  0  0  0  0  0  0  0  0  0
   -2.9126    0.1192    0.3411 C   0  0  0  0  0  0  0  0  0  0  0  0
   -1.4599    0.2514    0.4433 C   0  0  0  0  0  0  0  0  0  0  0  0
   -0.7345    1.3646   -0.0827 C   0  0  0  0  0  0  0  0  0  0  0  0
   -1.4037    2.5397   -0.4993 C   0  0  0  0  0  0  0  0  0  0  0  0
   -0.7304    3.6172   -0.9929 C   0  0  0  0  0  0  0  0  0  0  0  0
    0.6618    3.5971   -1.0756 C   0  0  0  0  0  0  0  0  0  0  0  0
    1.3560    2.5053   -0.6479 C   0  0  0  0  0  0  0  0  0  0  0  0
    0.7034    1.3589   -0.1389 C   0  0  0  0  0  0  0  0  0  0  0  0
    1.4598    0.2670    0.3786 C   0  0  0  0  0  0  0  0  0  0  0  0
    2.9174    0.1699    0.2565 C   0  0  0  0  0  0  0  0  0  0  0  0
    3.5808    0.4672   -0.9451 C   0  0  0  0  0  0  0  0  0  0  0  0
    4.9421    0.3568   -1.0484 C   0  0  0  0  0  0  0  0  0  0  0  0
    5.7118   -0.0510    0.0423 C   0  0  0  0  0  0  0  0  0  0  0  0
    7.1345   -0.1555   -0.0640 N   0  0  0  0  0  0  0  0  0  0  0  0
    7.7293   -0.6585   -1.2701 C   0  0  0  0  0  0  0  0  0  0  0  0
    8.9276   -0.1380   -1.7482 C   0  0  0  0  0  0  0  0  0  0  0  0
    9.5006   -0.6366   -2.8968 C   0  0  0  0  0  0  0  0  0  0  0  0
    8.9003   -1.6726   -3.6007 C   0  0  0  0  0  0  0  0  0  0  0  0
    9.5103   -2.1976   -4.8539 C   0  0  0  0  0  0  0  0  0  0  0  0
    7.6976   -2.1831   -3.1304 C   0  0  0  0  0  0  0  0  0  0  0  0
    7.1211   -1.6872   -1.9826 C   0  0  0  0  0  0  0  0  0  0  0  0
    7.9677    0.2332    1.0384 C   0  0  0  0  0  0  0  0  0  0  0  0
    7.6256    1.3221    1.8342 C   0  0  0  0  0  0  0  0  0  0  0  0
    8.4307    1.7063    2.8830 C   0  0  0  0  0  0  0  0  0  0  0  0
    9.6039    1.0204    3.1682 C   0  0  0  0  0  0  0  0  0  0  0  0
   10.4612    1.4258    4.3166 C   0  0  0  0  0  0  0  0  0  0  0  0
    9.9385   -0.0748    2.3823 C   0  0  0  0  0  0  0  0  0  0  0  0
    9.1363   -0.4622    1.3323 C   0  0  0  0  0  0  0  0  0  0  0  0
    5.0601   -0.3674    1.2352 C   0  0  0  0  0  0  0  0  0  0  0  0
    3.6975   -0.2747    1.3344 C   0  0  0  0  0  0  0  0  0  0  0  0
    0.7490   -0.7666    1.0665 C   0  0  0  0  0  0  0  0  0  0  0  0
    1.2815   -1.8100    1.6726 N   0  0  0  0  0  0  0  0  0  0  0  0
    0.0670   -2.7495    2.2555 S   0  0  0  0  0  0  0  0  0  0  0  0
   -1.1883   -1.8376    1.7168 N   0  0  0  0  0  0  0  0  0  0  0  0
   -0.7057   -0.7807    1.0923 C   0  0  0  0  0  0  0  0  0  0  0  0
   -3.6443   -0.5616    1.3257 C   0  0  0  0  0  0  0  0  0  0  0  0
   -5.0051   -0.6927    1.2463 C   0  0  0  0  0  0  0  0  0  0  0  0
   -7.1706   -2.7292    0.2919 C   0  0  0  0  0  0  0  0  0  0  0  0
   -7.7898   -3.8942    0.6851 C   0  0  0  0  0  0  0  0  0  0  0  0
  -10.7739   -5.0227    1.7608 H   0  0  0  0  0  0  0  0  0  0  0  0
   -9.4428   -5.9535    1.0815 H   0  0  0  0  0  0  0  0  0  0  0  0
   -9.3656   -5.3995    2.7550 H   0  0  0  0  0  0  0  0  0  0  0  0
  -10.5824   -2.5986    2.0358 H   0  0  0  0  0  0  0  0  0  0  0  0
   -9.4763   -0.5139    1.3363 H   0  0  0  0  0  0  0  0  0  0  0  0
   -9.3178   -0.4559   -1.4297 H   0  0  0  0  0  0  0  0  0  0  0  0
  -10.6792    1.4082   -2.2842 H   0  0  0  0  0  0  0  0  0  0  0  0
  -11.3214    3.7604   -2.0664 H   0  0  0  0  0  0  0  0  0  0  0  0
  -10.2602    4.9051   -1.2521 H   0  0  0  0  0  0  0  0  0  0  0  0
   -9.8936    4.3814   -2.8968 H   0  0  0  0  0  0  0  0  0  0  0  0
   -8.0543    4.1797   -0.4170 H   0  0  0  0  0  0  0  0  0  0  0  0
   -6.7028    2.3141    0.4491 H   0  0  0  0  0  0  0  0  0  0  0  0
   -5.5275    0.8749   -1.6875 H   0  0  0  0  0  0  0  0  0  0  0  0
   -3.0915    1.0506   -1.5839 H   0  0  0  0  0  0  0  0  0  0  0  0
   -2.4685    2.6088   -0.3681 H   0  0  0  0  0  0  0  0  0  0  0  0
   -1.2708    4.4973   -1.3015 H   0  0  0  0  0  0  0  0  0  0  0  0
    1.1875    4.4587   -1.4537 H   0  0  0  0  0  0  0  0  0  0  0  0
    2.4306    2.5338   -0.6539 H   0  0  0  0  0  0  0  0  0  0  0  0
    2.9984    0.7479   -1.8061 H   0  0  0  0  0  0  0  0  0  0  0  0
    5.4389    0.5907   -1.9732 H   0  0  0  0  0  0  0  0  0  0  0  0
    9.3963    0.6667   -1.2098 H   0  0  0  0  0  0  0  0  0  0  0  0
   10.4259   -0.2231   -3.2610 H   0  0  0  0  0  0  0  0  0  0  0  0
    9.1243   -1.6664   -5.7247 H   0  0  0  0  0  0  0  0  0  0  0  0
   10.5948   -2.0825   -4.8426 H   0  0  0  0  0  0  0  0  0  0  0  0
    9.2922   -3.2585   -4.9827 H   0  0  0  0  0  0  0  0  0  0  0  0
    7.2170   -2.9782   -3.6750 H   0  0  0  0  0  0  0  0  0  0  0  0
    6.1968   -2.0973   -1.6155 H   0  0  0  0  0  0  0  0  0  0  0  0
    6.7252    1.8665    1.6104 H   0  0  0  0  0  0  0  0  0  0  0  0
    8.1548    2.5492    3.4938 H   0  0  0  0  0  0  0  0  0  0  0  0
   11.5044    1.1589    4.1431 H   0  0  0  0  0  0  0  0  0  0  0  0
   10.1362    0.9351    5.2347 H   0  0  0  0  0  0  0  0  0  0  0  0
   10.4185    2.5037    4.4777 H   0  0  0  0  0  0  0  0  0  0  0  0
   10.8381   -0.6235    2.6043 H   0  0  0  0  0  0  0  0  0  0  0  0
    9.3994   -1.3141    0.7305 H   0  0  0  0  0  0  0  0  0  0  0  0
    5.6458   -0.7066    2.0710 H   0  0  0  0  0  0  0  0  0  0  0  0
    3.2018   -0.5445    2.2510 H   0  0  0  0  0  0  0  0  0  0  0  0
   -3.1136   -0.9920    2.1559 H   0  0  0  0  0  0  0  0  0  0  0  0
   -5.5497   -1.2052    2.0193 H   0  0  0  0  0  0  0  0  0  0  0  0
   -6.2153   -2.7594   -0.2017 H   0  0  0  0  0  0  0  0  0  0  0  0
   -7.3127   -4.8438    0.5106 H   0  0  0  0  0  0  0  0  0  0  0  0
  1  2  1  0  0  0  0
  2  3  2  0  0  0  0
  3  4  1  0  0  0  0
  4  5  2  0  0  0  0
  5  6  1  0  0  0  0
  6  7  1  0  0  0  0
  7  8  2  0  0  0  0
  8  9  1  0  0  0  0
  9 10  2  0  0  0  0
 10 11  1  0  0  0  0
 10 12  1  0  0  0  0
 12 13  2  0  0  0  0
  6 14  1  0  0  0  0
 14 15  2  0  0  0  0
 15 16  1  0  0  0  0
 16 17  2  0  0  0  0
 17 18  1  0  0  0  0
 18 19  2  0  0  0  0
 19 20  1  0  0  0  0
 20 21  2  0  0  0  0
 21 22  1  0  0  0  0
 22 23  2  0  0  0  0
 23 24  1  0  0  0  0
 24 25  2  0  0  0  0
 25 26  1  0  0  0  0
 26 27  2  0  0  0  0
 27 28  1  0  0  0  0
 28 29  2  0  0  0  0
 29 30  1  0  0  0  0
 30 31  1  0  0  0  0
 31 32  2  0  0  0  0
 32 33  1  0  0  0  0
 33 34  2  0  0  0  0
 34 35  1  0  0  0  0
 34 36  1  0  0  0  0
 36 37  2  0  0  0  0
 30 38  1  0  0  0  0
 38 39  2  0  0  0  0
 39 40  1  0  0  0  0
 40 41  2  0  0  0  0
 41 42  1  0  0  0  0
 41 43  1  0  0  0  0
 43 44  2  0  0  0  0
 29 45  1  0  0  0  0
 45 46  2  0  0  0  0
 25 47  1  0  0  0  0
 47 48  2  0  0  0  0
 48 49  1  0  0  0  0
 49 50  1  0  0  0  0
 50 51  2  0  0  0  0
 17 52  1  0  0  0  0
 52 53  2  0  0  0  0
  5 54  1  0  0  0  0
 54 55  2  0  0  0  0
 55  2  1  0  0  0  0
 13  7  1  0  0  0  0
 53 14  1  0  0  0  0
 51 18  1  0  0  0  0
 24 19  1  0  0  0  0
 46 26  1  0  0  0  0
 51 47  1  0  0  0  0
 37 31  1  0  0  0  0
 44 38  1  0  0  0  0
  1 56  1  0  0  0  0
  1 57  1  0  0  0  0
  1 58  1  0  0  0  0
  3 59  1  0  0  0  0
  4 60  1  0  0  0  0
  8 61  1  0  0  0  0
  9 62  1  0  0  0  0
 11 63  1  0  0  0  0
 11 64  1  0  0  0  0
 11 65  1  0  0  0  0
 12 66  1  0  0  0  0
 13 67  1  0  0  0  0
 15 68  1  0  0  0  0
 16 69  1  0  0  0  0
 20 70  1  0  0  0  0
 21 71  1  0  0  0  0
 22 72  1  0  0  0  0
 23 73  1  0  0  0  0
 27 74  1  0  0  0  0
 28 75  1  0  0  0  0
 32 76  1  0  0  0  0
 33 77  1  0  0  0  0
 35 78  1  0  0  0  0
 35 79  1  0  0  0  0
 35 80  1  0  0  0  0
 36 81  1  0  0  0  0
 37 82  1  0  0  0  0
 39 83  1  0  0  0  0
 40 84  1  0  0  0  0
 42 85  1  0  0  0  0
 42 86  1  0  0  0  0
 42 87  1  0  0  0  0
 43 88  1  0  0  0  0
 44 89  1  0  0  0  0
 45 90  1  0  0  0  0
 46 91  1  0  0  0  0
 52 92  1  0  0  0  0
 53 93  1  0  0  0  0
 54 94  1  0  0  0  0
 55 95  1  0  0  0  0
M  END
