
  xtb     03012221203D
 energy: -12.802828959430 gnorm: 0.000442033572 xtb: 6.4.1 (afa7bdf)
 66 70  0     0  0            999 V2000
    4.0391   -3.1196   -0.9429 C   0  0  0  0  0  0  0  0  0  0  0  0
    4.8317   -2.0206   -0.5647 O   0  0  0  0  0  0  0  0  0  0  0  0
    4.1119   -0.9109   -0.1027 C   0  0  0  0  0  0  0  0  0  0  0  0
    2.7390   -0.7745   -0.2401 C   0  0  0  0  0  0  0  0  0  0  0  0
    2.0629    0.3390    0.2477 C   0  0  0  0  0  0  0  0  0  0  0  0
    0.5992    0.4655    0.0783 C   0  0  0  0  0  0  0  0  0  0  0  0
    0.1005    1.5839   -0.5495 C   0  0  0  0  0  0  0  0  0  0  0  0
   -1.2569    1.7111   -0.8495 C   0  0  0  0  0  0  0  0  0  0  0  0
   -1.7886    2.9081   -1.5159 C   0  0  0  0  0  0  0  0  0  0  0  0
   -1.0254    4.0428   -1.7835 C   0  0  0  0  0  0  0  0  0  0  0  0
   -1.5849    5.1332   -2.4102 C   0  0  0  0  0  0  0  0  0  0  0  0
   -2.9204    5.1370   -2.7854 C   0  0  0  0  0  0  0  0  0  0  0  0
   -3.5073    6.3152   -3.4825 C   0  0  0  0  0  0  0  0  0  0  0  0
   -3.6823    4.0079   -2.5230 C   0  0  0  0  0  0  0  0  0  0  0  0
   -3.1267    2.9167   -1.8968 C   0  0  0  0  0  0  0  0  0  0  0  0
   -2.1250    0.7438   -0.5835 N   0  0  0  0  0  0  0  0  0  0  0  0
   -1.6736   -0.3670    0.0422 C   0  0  0  0  0  0  0  0  0  0  0  0
   -2.5883   -1.4102    0.3075 C   0  0  0  0  0  0  0  0  0  0  0  0
   -3.9067   -1.2423   -0.1073 C   0  0  0  0  0  0  0  0  0  0  0  0
   -5.0098   -1.1158   -0.4555 N   0  0  0  0  0  0  0  0  0  0  0  0
   -2.1438   -2.5632    0.9642 C   0  0  0  0  0  0  0  0  0  0  0  0
   -3.0028   -3.6496    1.1963 N   0  0  0  0  0  0  0  0  0  0  0  0
   -2.5220   -4.8643    1.8841 C   0  0  0  0  0  0  0  0  0  0  0  0
   -3.7137   -5.8297    1.9683 C   0  0  0  0  0  0  0  0  0  0  0  0
   -4.6880   -5.3740    0.8645 C   0  0  0  0  0  0  0  0  0  0  0  0
   -4.3204   -3.9108    0.5626 C   0  0  0  0  0  0  0  0  0  0  0  0
   -0.8870   -2.6890    1.4329 N   0  0  0  0  0  0  0  0  0  0  0  0
   -0.0186   -1.7036    1.2225 C   0  0  0  0  0  0  0  0  0  0  0  0
    1.1994   -1.8176    1.8595 N   0  0  0  0  0  0  0  0  0  0  0  0
   -0.3367   -0.5414    0.4492 C   0  0  0  0  0  0  0  0  0  0  0  0
    2.7950    1.3495    0.8624 C   0  0  0  0  0  0  0  0  0  0  0  0
    4.1714    1.2640    1.0185 C   0  0  0  0  0  0  0  0  0  0  0  0
    4.9396    2.2516    1.6495 O   0  0  0  0  0  0  0  0  0  0  0  0
    4.2000    3.2951    2.2351 C   0  0  0  0  0  0  0  0  0  0  0  0
    4.8416    0.1205    0.5290 C   0  0  0  0  0  0  0  0  0  0  0  0
    6.2283   -0.0455    0.6645 O   0  0  0  0  0  0  0  0  0  0  0  0
    6.9741    1.1182    0.4137 C   0  0  0  0  0  0  0  0  0  0  0  0
    4.6991   -3.9627   -1.1522 H   0  0  0  0  0  0  0  0  0  0  0  0
    3.3642   -3.3888   -0.1285 H   0  0  0  0  0  0  0  0  0  0  0  0
    3.4758   -2.8783   -1.8455 H   0  0  0  0  0  0  0  0  0  0  0  0
    2.1671   -1.5416   -0.7257 H   0  0  0  0  0  0  0  0  0  0  0  0
    0.7897    2.3498   -0.8493 H   0  0  0  0  0  0  0  0  0  0  0  0
    0.0092    4.0758   -1.4922 H   0  0  0  0  0  0  0  0  0  0  0  0
   -0.9829    6.0029   -2.6163 H   0  0  0  0  0  0  0  0  0  0  0  0
   -3.2110    6.3316   -4.5319 H   0  0  0  0  0  0  0  0  0  0  0  0
   -3.1740    7.2469   -3.0236 H   0  0  0  0  0  0  0  0  0  0  0  0
   -4.5969    6.2979   -3.4418 H   0  0  0  0  0  0  0  0  0  0  0  0
   -4.7193    3.9912   -2.8151 H   0  0  0  0  0  0  0  0  0  0  0  0
   -3.7229    2.0439   -1.6887 H   0  0  0  0  0  0  0  0  0  0  0  0
   -1.6955   -5.2828    1.3013 H   0  0  0  0  0  0  0  0  0  0  0  0
   -2.1267   -4.5893    2.8674 H   0  0  0  0  0  0  0  0  0  0  0  0
   -4.1912   -5.7586    2.9523 H   0  0  0  0  0  0  0  0  0  0  0  0
   -3.4046   -6.8746    1.8428 H   0  0  0  0  0  0  0  0  0  0  0  0
   -4.5617   -5.9910   -0.0328 H   0  0  0  0  0  0  0  0  0  0  0  0
   -5.7365   -5.4781    1.1692 H   0  0  0  0  0  0  0  0  0  0  0  0
   -4.2551   -3.7090   -0.5115 H   0  0  0  0  0  0  0  0  0  0  0  0
   -5.0502   -3.2133    0.9863 H   0  0  0  0  0  0  0  0  0  0  0  0
    1.7767   -1.0197    2.0824 H   0  0  0  0  0  0  0  0  0  0  0  0
    1.3154   -2.5599    2.5329 H   0  0  0  0  0  0  0  0  0  0  0  0
    2.2654    2.2081    1.2280 H   0  0  0  0  0  0  0  0  0  0  0  0
    4.8924    3.9666    2.7445 H   0  0  0  0  0  0  0  0  0  0  0  0
    3.6695    3.8550    1.4636 H   0  0  0  0  0  0  0  0  0  0  0  0
    3.5001    2.8885    2.9666 H   0  0  0  0  0  0  0  0  0  0  0  0
    8.0132    0.8392    0.2397 H   0  0  0  0  0  0  0  0  0  0  0  0
    6.9103    1.7712    1.2841 H   0  0  0  0  0  0  0  0  0  0  0  0
    6.5753    1.6254   -0.4650 H   0  0  0  0  0  0  0  0  0  0  0  0
  1  2  1  0  0  0  0
  2  3  1  0  0  0  0
  3  4  2  0  0  0  0
  4  5  1  0  0  0  0
  5  6  1  0  0  0  0
  6  7  2  0  0  0  0
  7  8  1  0  0  0  0
  8  9  1  0  0  0  0
  9 10  2  0  0  0  0
 10 11  1  0  0  0  0
 11 12  2  0  0  0  0
 12 13  1  0  0  0  0
 12 14  1  0  0  0  0
 14 15  2  0  0  0  0
  8 16  2  0  0  0  0
 16 17  1  0  0  0  0
 17 18  2  0  0  0  0
 18 19  1  0  0  0  0
 19 20  3  0  0  0  0
 18 21  1  0  0  0  0
 21 22  1  0  0  0  0
 22 23  1  0  0  0  0
 23 24  1  0  0  0  0
 24 25  1  0  0  0  0
 25 26  1  0  0  0  0
 21 27  2  0  0  0  0
 27 28  1  0  0  0  0
 28 29  1  0  0  0  0
 28 30  2  0  0  0  0
  5 31  2  0  0  0  0
 31 32  1  0  0  0  0
 32 33  1  0  0  0  0
 33 34  1  0  0  0  0
 32 35  2  0  0  0  0
 35 36  1  0  0  0  0
 36 37  1  0  0  0  0
 35  3  1  0  0  0  0
 30  6  1  0  0  0  0
 15  9  1  0  0  0  0
 30 17  1  0  0  0  0
 26 22  1  0  0  0  0
  1 38  1  0  0  0  0
  1 39  1  0  0  0  0
  1 40  1  0  0  0  0
  4 41  1  0  0  0  0
  7 42  1  0  0  0  0
 10 43  1  0  0  0  0
 11 44  1  0  0  0  0
 13 45  1  0  0  0  0
 13 46  1  0  0  0  0
 13 47  1  0  0  0  0
 14 48  1  0  0  0  0
 15 49  1  0  0  0  0
 23 50  1  0  0  0  0
 23 51  1  0  0  0  0
 24 52  1  0  0  0  0
 24 53  1  0  0  0  0
 25 54  1  0  0  0  0
 25 55  1  0  0  0  0
 26 56  1  0  0  0  0
 26 57  1  0  0  0  0
 29 58  1  0  0  0  0
 29 59  1  0  0  0  0
 31 60  1  0  0  0  0
 34 61  1  0  0  0  0
 34 62  1  0  0  0  0
 34 63  1  0  0  0  0
 37 64  1  0  0  0  0
 37 65  1  0  0  0  0
 37 66  1  0  0  0  0
M  END
