
  xtb     03012221223D
 energy: -7.243947966195 gnorm: 0.000434412757 xtb: 6.4.1 (afa7bdf)
 35 37  0     0  0            999 V2000
   -5.0159   -1.0733    1.5165 C   0  0  0  0  0  0  0  0  0  0  0  0
   -3.6812   -0.7986    0.9955 N   0  0  0  0  0  0  0  0  0  0  0  0
   -2.5287   -1.4603    1.3233 C   0  0  0  0  0  0  0  0  0  0  0  0
   -1.4607   -0.9151    0.6294 C   0  0  0  0  0  0  0  0  0  0  0  0
   -0.0945   -1.3626    0.7560 C   0  0  0  0  0  0  0  0  0  0  0  0
    0.9920   -0.6730    0.3855 C   0  0  0  0  0  0  0  0  0  0  0  0
    2.3239   -1.2182    0.5697 C   0  0  0  0  0  0  0  0  0  0  0  0
    2.4758   -2.3000    1.1086 O   0  0  0  0  0  0  0  0  0  0  0  0
    3.5056   -0.4473    0.1156 C   0  0  0  0  0  0  0  0  0  0  0  0
    3.4292    0.5413   -0.8608 C   0  0  0  0  0  0  0  0  0  0  0  0
    4.5590    1.2246   -1.2535 C   0  0  0  0  0  0  0  0  0  0  0  0
    5.7811    0.9301   -0.6846 C   0  0  0  0  0  0  0  0  0  0  0  0
    5.8728   -0.0556    0.2763 C   0  0  0  0  0  0  0  0  0  0  0  0
    4.7439   -0.7391    0.6699 C   0  0  0  0  0  0  0  0  0  0  0  0
   -1.9980    0.1344   -0.1985 C   0  0  0  0  0  0  0  0  0  0  0  0
   -1.4380    0.9981   -1.1532 C   0  0  0  0  0  0  0  0  0  0  0  0
   -2.2494    1.8986   -1.7918 C   0  0  0  0  0  0  0  0  0  0  0  0
   -3.6199    1.9640   -1.5130 C   0  0  0  0  0  0  0  0  0  0  0  0
   -4.1935    1.1197   -0.6002 C   0  0  0  0  0  0  0  0  0  0  0  0
   -3.3800    0.1929    0.0573 C   0  0  0  0  0  0  0  0  0  0  0  0
   -5.4111   -0.1882    2.0111 H   0  0  0  0  0  0  0  0  0  0  0  0
   -5.6821   -1.3519    0.7024 H   0  0  0  0  0  0  0  0  0  0  0  0
   -4.9804   -1.8897    2.2351 H   0  0  0  0  0  0  0  0  0  0  0  0
   -2.4710   -2.2703    2.0291 H   0  0  0  0  0  0  0  0  0  0  0  0
    0.0677   -2.3234    1.2139 H   0  0  0  0  0  0  0  0  0  0  0  0
    0.8915    0.3254    0.0090 H   0  0  0  0  0  0  0  0  0  0  0  0
    2.4842    0.7592   -1.3262 H   0  0  0  0  0  0  0  0  0  0  0  0
    4.4889    1.9887   -2.0105 H   0  0  0  0  0  0  0  0  0  0  0  0
    6.6636    1.4655   -0.9940 H   0  0  0  0  0  0  0  0  0  0  0  0
    6.8271   -0.2929    0.7174 H   0  0  0  0  0  0  0  0  0  0  0  0
    4.8015   -1.5183    1.4112 H   0  0  0  0  0  0  0  0  0  0  0  0
   -0.3954    0.9321   -1.4018 H   0  0  0  0  0  0  0  0  0  0  0  0
   -1.8287    2.5649   -2.5270 H   0  0  0  0  0  0  0  0  0  0  0  0
   -4.2322    2.6843   -2.0314 H   0  0  0  0  0  0  0  0  0  0  0  0
   -5.2469    1.1541   -0.3866 H   0  0  0  0  0  0  0  0  0  0  0  0
  1  2  1  0  0  0  0
  2  3  1  0  0  0  0
  3  4  2  0  0  0  0
  4  5  1  0  0  0  0
  5  6  2  0  0  0  0
  6  7  1  0  0  0  0
  7  8  2  0  0  0  0
  7  9  1  0  0  0  0
  9 10  2  0  0  0  0
 10 11  1  0  0  0  0
 11 12  2  0  0  0  0
 12 13  1  0  0  0  0
 13 14  2  0  0  0  0
  4 15  1  0  0  0  0
 15 16  2  0  0  0  0
 16 17  1  0  0  0  0
 17 18  2  0  0  0  0
 18 19  1  0  0  0  0
 19 20  2  0  0  0  0
 20  2  1  0  0  0  0
 14  9  1  0  0  0  0
 20 15  1  0  0  0  0
  1 21  1  0  0  0  0
  1 22  1  0  0  0  0
  1 23  1  0  0  0  0
  3 24  1  0  0  0  0
  5 25  1  0  0  0  0
  6 26  1  0  0  0  0
 10 27  1  0  0  0  0
 11 28  1  0  0  0  0
 12 29  1  0  0  0  0
 13 30  1  0  0  0  0
 14 31  1  0  0  0  0
 16 32  1  0  0  0  0
 17 33  1  0  0  0  0
 18 34  1  0  0  0  0
 19 35  1  0  0  0  0
M  END
