
  xtb     03012221293D
 energy: -10.529535937479 gnorm: 0.000238286018 xtb: 6.4.1 (afa7bdf)
 51 55  0     0  0            999 V2000
    6.5835    2.5696    0.2052 C   0  0  0  0  0  0  0  0  0  0  0  0
    6.1953    1.2204    0.3224 O   0  0  0  0  0  0  0  0  0  0  0  0
    4.8328    0.9968    0.2433 C   0  0  0  0  0  0  0  0  0  0  0  0
    3.8783    1.9880    0.0640 C   0  0  0  0  0  0  0  0  0  0  0  0
    2.5362    1.6854   -0.0062 C   0  0  0  0  0  0  0  0  0  0  0  0
    2.0376    0.3882    0.0935 C   0  0  0  0  0  0  0  0  0  0  0  0
    0.5933    0.2066   -0.0021 C   0  0  0  0  0  0  0  0  0  0  0  0
   -0.3088    1.2022   -0.2200 C   0  0  0  0  0  0  0  0  0  0  0  0
   -1.6626    0.7008   -0.2521 C   0  0  0  0  0  0  0  0  0  0  0  0
   -2.8394    1.5537   -0.5261 C   0  0  0  0  0  0  0  0  0  0  0  0
   -3.6443    1.3209   -1.6404 C   0  0  0  0  0  0  0  0  0  0  0  0
   -4.7463    2.1098   -1.8872 C   0  0  0  0  0  0  0  0  0  0  0  0
   -5.0620    3.1459   -1.0309 C   0  0  0  0  0  0  0  0  0  0  0  0
   -4.2698    3.3945    0.0725 C   0  0  0  0  0  0  0  0  0  0  0  0
   -3.1662    2.6089    0.3234 C   0  0  0  0  0  0  0  0  0  0  0  0
   -1.6485   -0.6538   -0.0347 C   0  0  0  0  0  0  0  0  0  0  0  0
   -2.7790   -1.5664    0.0914 C   0  0  0  0  0  0  0  0  0  0  0  0
   -4.0748   -1.1070    0.3453 C   0  0  0  0  0  0  0  0  0  0  0  0
   -5.1260   -1.9850    0.4804 C   0  0  0  0  0  0  0  0  0  0  0  0
   -4.9125   -3.3446    0.3706 C   0  0  0  0  0  0  0  0  0  0  0  0
   -3.6397   -3.8227    0.1300 C   0  0  0  0  0  0  0  0  0  0  0  0
   -2.5848   -2.9481   -0.0043 C   0  0  0  0  0  0  0  0  0  0  0  0
   -0.2096   -1.0622    0.1103 C   0  0  0  0  0  0  0  0  0  0  0  0
    2.9951   -0.6769    0.2843 C   0  0  0  0  0  0  0  0  0  0  0  0
    2.6537   -2.0424    0.4073 C   0  0  0  0  0  0  0  0  0  0  0  0
    3.5990   -3.0113    0.5861 C   0  0  0  0  0  0  0  0  0  0  0  0
    4.9487   -2.6789    0.6534 C   0  0  0  0  0  0  0  0  0  0  0  0
    5.3257   -1.3744    0.5394 C   0  0  0  0  0  0  0  0  0  0  0  0
    4.3770   -0.3571    0.3554 C   0  0  0  0  0  0  0  0  0  0  0  0
    7.6698    2.6260    0.2813 H   0  0  0  0  0  0  0  0  0  0  0  0
    6.1433    3.1555    1.0129 H   0  0  0  0  0  0  0  0  0  0  0  0
    6.2773    2.9626   -0.7649 H   0  0  0  0  0  0  0  0  0  0  0  0
    4.1888    3.0132   -0.0223 H   0  0  0  0  0  0  0  0  0  0  0  0
    1.8468    2.4986   -0.1416 H   0  0  0  0  0  0  0  0  0  0  0  0
   -0.0792    2.2417   -0.3625 H   0  0  0  0  0  0  0  0  0  0  0  0
   -3.3943    0.5103   -2.3028 H   0  0  0  0  0  0  0  0  0  0  0  0
   -5.3637    1.9172   -2.7495 H   0  0  0  0  0  0  0  0  0  0  0  0
   -5.9252    3.7617   -1.2249 H   0  0  0  0  0  0  0  0  0  0  0  0
   -4.5157    4.2052    0.7390 H   0  0  0  0  0  0  0  0  0  0  0  0
   -2.5477    2.7957    1.1840 H   0  0  0  0  0  0  0  0  0  0  0  0
   -4.2466   -0.0520    0.4523 H   0  0  0  0  0  0  0  0  0  0  0  0
   -6.1179   -1.6106    0.6748 H   0  0  0  0  0  0  0  0  0  0  0  0
   -5.7367   -4.0313    0.4760 H   0  0  0  0  0  0  0  0  0  0  0  0
   -3.4717   -4.8843    0.0475 H   0  0  0  0  0  0  0  0  0  0  0  0
   -1.5957   -3.3279   -0.1908 H   0  0  0  0  0  0  0  0  0  0  0  0
   -0.0562   -1.5417    1.0845 H   0  0  0  0  0  0  0  0  0  0  0  0
    0.0581   -1.7628   -0.6895 H   0  0  0  0  0  0  0  0  0  0  0  0
    1.6293   -2.3476    0.3617 H   0  0  0  0  0  0  0  0  0  0  0  0
    3.3012   -4.0439    0.6765 H   0  0  0  0  0  0  0  0  0  0  0  0
    5.6889   -3.4491    0.7952 H   0  0  0  0  0  0  0  0  0  0  0  0
    6.3652   -1.0977    0.5893 H   0  0  0  0  0  0  0  0  0  0  0  0
  1  2  1  0  0  0  0
  2  3  1  0  0  0  0
  3  4  2  0  0  0  0
  4  5  1  0  0  0  0
  5  6  2  0  0  0  0
  6  7  1  0  0  0  0
  7  8  2  0  0  0  0
  8  9  1  0  0  0  0
  9 10  1  0  0  0  0
 10 11  2  0  0  0  0
 11 12  1  0  0  0  0
 12 13  2  0  0  0  0
 13 14  1  0  0  0  0
 14 15  2  0  0  0  0
  9 16  2  0  0  0  0
 16 17  1  0  0  0  0
 17 18  2  0  0  0  0
 18 19  1  0  0  0  0
 19 20  2  0  0  0  0
 20 21  1  0  0  0  0
 21 22  2  0  0  0  0
 16 23  1  0  0  0  0
  6 24  1  0  0  0  0
 24 25  2  0  0  0  0
 25 26  1  0  0  0  0
 26 27  2  0  0  0  0
 27 28  1  0  0  0  0
 28 29  2  0  0  0  0
 29  3  1  0  0  0  0
 23  7  1  0  0  0  0
 29 24  1  0  0  0  0
 15 10  1  0  0  0  0
 22 17  1  0  0  0  0
  1 30  1  0  0  0  0
  1 31  1  0  0  0  0
  1 32  1  0  0  0  0
  4 33  1  0  0  0  0
  5 34  1  0  0  0  0
  8 35  1  0  0  0  0
 11 36  1  0  0  0  0
 12 37  1  0  0  0  0
 13 38  1  0  0  0  0
 14 39  1  0  0  0  0
 15 40  1  0  0  0  0
 18 41  1  0  0  0  0
 19 42  1  0  0  0  0
 20 43  1  0  0  0  0
 21 44  1  0  0  0  0
 22 45  1  0  0  0  0
 23 46  1  0  0  0  0
 23 47  1  0  0  0  0
 25 48  1  0  0  0  0
 26 49  1  0  0  0  0
 27 50  1  0  0  0  0
 28 51  1  0  0  0  0
M  END
