
  xtb     03012221253D
 energy: -16.281628990772 gnorm: 0.000110531358 xtb: 6.4.1 (afa7bdf)
 77 84  0     0  0            999 V2000
   -0.4456    3.5983    1.1674 C   0  0  0  0  0  0  0  0  0  0  0  0
    0.0038    3.6590   -0.3009 C   0  0  0  0  0  0  0  0  0  0  0  0
   -0.5379    4.9186   -0.9822 C   0  0  0  0  0  0  0  0  0  0  0  0
   -0.4669    2.4540   -1.1236 C   0  0  0  0  0  0  0  0  0  0  0  0
    0.1503    2.1522   -2.1227 O   0  0  0  0  0  0  0  0  0  0  0  0
   -1.6525    1.6542   -0.7359 C   0  0  0  0  0  0  0  0  0  0  0  0
   -2.8445    2.2302   -0.2902 C   0  0  0  0  0  0  0  0  0  0  0  0
   -3.9252    1.4475    0.0226 C   0  0  0  0  0  0  0  0  0  0  0  0
   -3.8673    0.0574   -0.1095 C   0  0  0  0  0  0  0  0  0  0  0  0
   -5.0090   -0.7598    0.2088 N   0  0  0  0  0  0  0  0  0  0  0  0
   -4.9527   -1.7223    1.2574 C   0  0  0  0  0  0  0  0  0  0  0  0
   -3.7993   -1.9119    2.0023 C   0  0  0  0  0  0  0  0  0  0  0  0
   -3.7541   -2.8363    3.0268 C   0  0  0  0  0  0  0  0  0  0  0  0
   -4.8718   -3.5841    3.3257 C   0  0  0  0  0  0  0  0  0  0  0  0
   -6.0354   -3.4027    2.6065 C   0  0  0  0  0  0  0  0  0  0  0  0
   -6.1006   -2.4751    1.5743 C   0  0  0  0  0  0  0  0  0  0  0  0
   -7.3041   -2.3152    0.8925 O   0  0  0  0  0  0  0  0  0  0  0  0
   -7.3499   -1.3889   -0.1459 C   0  0  0  0  0  0  0  0  0  0  0  0
   -8.5352   -1.2353   -0.8541 C   0  0  0  0  0  0  0  0  0  0  0  0
   -8.6235   -0.3472   -1.9066 C   0  0  0  0  0  0  0  0  0  0  0  0
   -7.5248    0.3996   -2.2713 C   0  0  0  0  0  0  0  0  0  0  0  0
   -6.3400    0.2638   -1.5758 C   0  0  0  0  0  0  0  0  0  0  0  0
   -6.2322   -0.6109   -0.5060 C   0  0  0  0  0  0  0  0  0  0  0  0
   -2.6833   -0.5147   -0.5829 C   0  0  0  0  0  0  0  0  0  0  0  0
   -1.6041    0.2699   -0.8955 C   0  0  0  0  0  0  0  0  0  0  0  0
    1.5335    3.7583   -0.2939 C   0  0  0  0  0  0  0  0  0  0  0  0
    2.0333    4.8627   -0.3123 O   0  0  0  0  0  0  0  0  0  0  0  0
    2.4057    2.5738   -0.2238 C   0  0  0  0  0  0  0  0  0  0  0  0
    3.7646    2.7482   -0.4744 C   0  0  0  0  0  0  0  0  0  0  0  0
    4.6351    1.6907   -0.4278 C   0  0  0  0  0  0  0  0  0  0  0  0
    4.1782    0.4066   -0.1202 C   0  0  0  0  0  0  0  0  0  0  0  0
    5.0797   -0.7151   -0.1062 N   0  0  0  0  0  0  0  0  0  0  0  0
    6.1749   -0.7669    0.8030 C   0  0  0  0  0  0  0  0  0  0  0  0
    6.3956    0.2434    1.7259 C   0  0  0  0  0  0  0  0  0  0  0  0
    7.4529    0.1835    2.6116 C   0  0  0  0  0  0  0  0  0  0  0  0
    8.3054   -0.8985    2.5898 C   0  0  0  0  0  0  0  0  0  0  0  0
    8.0963   -1.9232    1.6896 C   0  0  0  0  0  0  0  0  0  0  0  0
    7.0359   -1.8818    0.7929 C   0  0  0  0  0  0  0  0  0  0  0  0
    6.8553   -2.9502   -0.0816 O   0  0  0  0  0  0  0  0  0  0  0  0
    5.7952   -2.8873   -0.9823 C   0  0  0  0  0  0  0  0  0  0  0  0
    5.6163   -3.9322   -1.8801 C   0  0  0  0  0  0  0  0  0  0  0  0
    4.5953   -3.9043   -2.8081 C   0  0  0  0  0  0  0  0  0  0  0  0
    3.7383   -2.8267   -2.8567 C   0  0  0  0  0  0  0  0  0  0  0  0
    3.8977   -1.7813   -1.9694 C   0  0  0  0  0  0  0  0  0  0  0  0
    4.9063   -1.7952   -1.0184 C   0  0  0  0  0  0  0  0  0  0  0  0
    2.8175    0.2336    0.1477 C   0  0  0  0  0  0  0  0  0  0  0  0
    1.9510    1.2937    0.0993 C   0  0  0  0  0  0  0  0  0  0  0  0
   -0.0117    4.4268    1.7259 H   0  0  0  0  0  0  0  0  0  0  0  0
   -0.1175    2.6738    1.6394 H   0  0  0  0  0  0  0  0  0  0  0  0
   -1.5258    3.6649    1.2695 H   0  0  0  0  0  0  0  0  0  0  0  0
   -0.1688    5.8108   -0.4779 H   0  0  0  0  0  0  0  0  0  0  0  0
   -1.6260    4.9428   -0.9833 H   0  0  0  0  0  0  0  0  0  0  0  0
   -0.1925    4.9540   -2.0150 H   0  0  0  0  0  0  0  0  0  0  0  0
   -2.9281    3.2999   -0.2325 H   0  0  0  0  0  0  0  0  0  0  0  0
   -4.8387    1.8931    0.3755 H   0  0  0  0  0  0  0  0  0  0  0  0
   -2.9302   -1.3182    1.7801 H   0  0  0  0  0  0  0  0  0  0  0  0
   -2.8472   -2.9710    3.5920 H   0  0  0  0  0  0  0  0  0  0  0  0
   -4.8400   -4.3071    4.1240 H   0  0  0  0  0  0  0  0  0  0  0  0
   -6.9177   -3.9730    2.8348 H   0  0  0  0  0  0  0  0  0  0  0  0
   -9.3818   -1.8317   -0.5655 H   0  0  0  0  0  0  0  0  0  0  0  0
   -9.5502   -0.2432   -2.4465 H   0  0  0  0  0  0  0  0  0  0  0  0
   -7.5888    1.0865   -3.0985 H   0  0  0  0  0  0  0  0  0  0  0  0
   -5.4780    0.8357   -1.8717 H   0  0  0  0  0  0  0  0  0  0  0  0
   -2.6427   -1.5811   -0.7185 H   0  0  0  0  0  0  0  0  0  0  0  0
   -0.7029   -0.1701   -1.2854 H   0  0  0  0  0  0  0  0  0  0  0  0
    4.1122    3.7374   -0.7173 H   0  0  0  0  0  0  0  0  0  0  0  0
    5.6786    1.8301   -0.6494 H   0  0  0  0  0  0  0  0  0  0  0  0
    5.7219    1.0816    1.7544 H   0  0  0  0  0  0  0  0  0  0  0  0
    7.6098    0.9808    3.3186 H   0  0  0  0  0  0  0  0  0  0  0  0
    9.1326   -0.9478    3.2785 H   0  0  0  0  0  0  0  0  0  0  0  0
    8.7487   -2.7774    1.6675 H   0  0  0  0  0  0  0  0  0  0  0  0
    6.2992   -4.7615   -1.8388 H   0  0  0  0  0  0  0  0  0  0  0  0
    4.4735   -4.7222   -3.4988 H   0  0  0  0  0  0  0  0  0  0  0  0
    2.9470   -2.7977   -3.5870 H   0  0  0  0  0  0  0  0  0  0  0  0
    3.2384   -0.9324   -2.0208 H   0  0  0  0  0  0  0  0  0  0  0  0
    2.4622   -0.7515    0.3945 H   0  0  0  0  0  0  0  0  0  0  0  0
    0.9064    1.1355    0.2922 H   0  0  0  0  0  0  0  0  0  0  0  0
  1  2  1  0  0  0  0
  2  3  1  0  0  0  0
  2  4  1  0  0  0  0
  4  5  2  0  0  0  0
  4  6  1  0  0  0  0
  6  7  2  0  0  0  0
  7  8  1  0  0  0  0
  8  9  2  0  0  0  0
  9 10  1  0  0  0  0
 10 11  1  0  0  0  0
 11 12  2  0  0  0  0
 12 13  1  0  0  0  0
 13 14  2  0  0  0  0
 14 15  1  0  0  0  0
 15 16  2  0  0  0  0
 16 17  1  0  0  0  0
 17 18  1  0  0  0  0
 18 19  2  0  0  0  0
 19 20  1  0  0  0  0
 20 21  2  0  0  0  0
 21 22  1  0  0  0  0
 22 23  2  0  0  0  0
  9 24  1  0  0  0  0
 24 25  2  0  0  0  0
  2 26  1  0  0  0  0
 26 27  2  0  0  0  0
 26 28  1  0  0  0  0
 28 29  2  0  0  0  0
 29 30  1  0  0  0  0
 30 31  2  0  0  0  0
 31 32  1  0  0  0  0
 32 33  1  0  0  0  0
 33 34  2  0  0  0  0
 34 35  1  0  0  0  0
 35 36  2  0  0  0  0
 36 37  1  0  0  0  0
 37 38  2  0  0  0  0
 38 39  1  0  0  0  0
 39 40  1  0  0  0  0
 40 41  2  0  0  0  0
 41 42  1  0  0  0  0
 42 43  2  0  0  0  0
 43 44  1  0  0  0  0
 44 45  2  0  0  0  0
 31 46  1  0  0  0  0
 46 47  2  0  0  0  0
 25  6  1  0  0  0  0
 47 28  1  0  0  0  0
 23 10  1  0  0  0  0
 45 32  1  0  0  0  0
 16 11  1  0  0  0  0
 23 18  1  0  0  0  0
 38 33  1  0  0  0  0
 45 40  1  0  0  0  0
  1 48  1  0  0  0  0
  1 49  1  0  0  0  0
  1 50  1  0  0  0  0
  3 51  1  0  0  0  0
  3 52  1  0  0  0  0
  3 53  1  0  0  0  0
  7 54  1  0  0  0  0
  8 55  1  0  0  0  0
 12 56  1  0  0  0  0
 13 57  1  0  0  0  0
 14 58  1  0  0  0  0
 15 59  1  0  0  0  0
 19 60  1  0  0  0  0
 20 61  1  0  0  0  0
 21 62  1  0  0  0  0
 22 63  1  0  0  0  0
 24 64  1  0  0  0  0
 25 65  1  0  0  0  0
 29 66  1  0  0  0  0
 30 67  1  0  0  0  0
 34 68  1  0  0  0  0
 35 69  1  0  0  0  0
 36 70  1  0  0  0  0
 37 71  1  0  0  0  0
 41 72  1  0  0  0  0
 42 73  1  0  0  0  0
 43 74  1  0  0  0  0
 44 75  1  0  0  0  0
 46 76  1  0  0  0  0
 47 77  1  0  0  0  0
M  END
