
  xtb     03012221213D
 energy: -21.171180192713 gnorm: 0.000203261633 xtb: 6.4.1 (afa7bdf)
112119  0     0  0            999 V2000
   12.8884    3.9394    0.6261 C   0  0  0  0  0  0  0  0  0  0  0  0
   12.0795    2.9933    1.4995 C   0  0  0  0  0  0  0  0  0  0  0  0
   12.2285    1.5212    1.1013 C   0  0  0  0  0  0  0  0  0  0  0  0
   11.7576    1.2023   -0.3215 C   0  0  0  0  0  0  0  0  0  0  0  0
   10.2879    1.5398   -0.5927 C   0  0  0  0  0  0  0  0  0  0  0  0
    9.3061    0.7425    0.2672 C   0  0  0  0  0  0  0  0  0  0  0  0
    7.8398    1.0766   -0.0126 C   0  0  0  0  0  0  0  0  0  0  0  0
    7.3851    0.7806   -1.4432 C   0  0  0  0  0  0  0  0  0  0  0  0
    7.5746   -0.6764   -1.8742 C   0  0  0  0  0  0  0  0  0  0  0  0
    6.8547   -1.6935   -0.9862 C   0  0  0  0  0  0  0  0  0  0  0  0
    5.3417   -1.4965   -0.9446 C   0  0  0  0  0  0  0  0  0  0  0  0
    4.6199   -2.5242   -0.0887 C   0  0  0  0  0  0  0  0  0  0  0  0
    3.1978   -2.2326   -0.0128 N   0  0  0  0  0  0  0  0  0  0  0  0
    2.6743   -1.0280    0.4676 C   0  0  0  0  0  0  0  0  0  0  0  0
    3.3002   -0.0858    0.9125 O   0  0  0  0  0  0  0  0  0  0  0  0
    1.2225   -1.1363    0.2954 C   0  0  0  0  0  0  0  0  0  0  0  0
    0.9383   -2.3471   -0.2899 C   0  0  0  0  0  0  0  0  0  0  0  0
   -0.3954   -2.7529   -0.5337 C   0  0  0  0  0  0  0  0  0  0  0  0
   -0.6700   -4.0222   -1.1000 C   0  0  0  0  0  0  0  0  0  0  0  0
   -1.9392   -4.4662   -1.2284 C   0  0  0  0  0  0  0  0  0  0  0  0
   -3.0240   -3.7141   -0.7045 C   0  0  0  0  0  0  0  0  0  0  0  0
   -4.3278   -4.2299   -0.7093 C   0  0  0  0  0  0  0  0  0  0  0  0
   -5.3757   -3.5911   -0.0849 C   0  0  0  0  0  0  0  0  0  0  0  0
   -6.7378   -4.1505   -0.1519 C   0  0  0  0  0  0  0  0  0  0  0  0
   -7.8601   -3.3203   -0.1564 C   0  0  0  0  0  0  0  0  0  0  0  0
   -9.1304   -3.8294   -0.2541 C   0  0  0  0  0  0  0  0  0  0  0  0
   -9.3440   -5.2079   -0.3509 C   0  0  0  0  0  0  0  0  0  0  0  0
  -10.5959   -5.8137   -0.4607 O   0  0  0  0  0  0  0  0  0  0  0  0
  -11.6826   -4.9212   -0.4692 C   0  0  0  0  0  0  0  0  0  0  0  0
   -8.2217   -6.0417   -0.3363 C   0  0  0  0  0  0  0  0  0  0  0  0
   -6.9532   -5.5286   -0.2395 C   0  0  0  0  0  0  0  0  0  0  0  0
   -5.1116   -2.3848    0.6347 C   0  0  0  0  0  0  0  0  0  0  0  0
   -6.1653   -1.7789    1.3153 O   0  0  0  0  0  0  0  0  0  0  0  0
   -5.8512   -0.5707    1.9676 C   0  0  0  0  0  0  0  0  0  0  0  0
   -3.8257   -1.8711    0.6236 C   0  0  0  0  0  0  0  0  0  0  0  0
   -2.7804   -2.4571   -0.0992 C   0  0  0  0  0  0  0  0  0  0  0  0
   -1.4482   -1.8811   -0.1627 C   0  0  0  0  0  0  0  0  0  0  0  0
   -1.1291   -0.5100    0.1980 C   0  0  0  0  0  0  0  0  0  0  0  0
    0.2037   -0.1886    0.5551 C   0  0  0  0  0  0  0  0  0  0  0  0
    0.5189    1.0724    1.1188 C   0  0  0  0  0  0  0  0  0  0  0  0
   -0.4264    2.0271    1.2597 C   0  0  0  0  0  0  0  0  0  0  0  0
   -1.7366    1.8272    0.7493 C   0  0  0  0  0  0  0  0  0  0  0  0
   -2.6799    2.8642    0.7579 C   0  0  0  0  0  0  0  0  0  0  0  0
   -3.9039    2.7539    0.1364 C   0  0  0  0  0  0  0  0  0  0  0  0
   -4.8669    3.8683    0.1957 C   0  0  0  0  0  0  0  0  0  0  0  0
   -5.7405    4.1348   -0.8593 C   0  0  0  0  0  0  0  0  0  0  0  0
   -6.6185    5.1868   -0.8085 C   0  0  0  0  0  0  0  0  0  0  0  0
   -6.6735    6.0308    0.3046 C   0  0  0  0  0  0  0  0  0  0  0  0
   -7.5931    7.0795    0.2737 O   0  0  0  0  0  0  0  0  0  0  0  0
   -7.6024    7.8885    1.4240 C   0  0  0  0  0  0  0  0  0  0  0  0
   -5.8047    5.7621    1.3672 C   0  0  0  0  0  0  0  0  0  0  0  0
   -4.9264    4.7087    1.3114 C   0  0  0  0  0  0  0  0  0  0  0  0
   -4.1999    1.5564   -0.5860 C   0  0  0  0  0  0  0  0  0  0  0  0
   -5.4200    1.4691   -1.2528 O   0  0  0  0  0  0  0  0  0  0  0  0
   -5.6694    0.2449   -1.9035 C   0  0  0  0  0  0  0  0  0  0  0  0
   -3.2704    0.5297   -0.5800 C   0  0  0  0  0  0  0  0  0  0  0  0
   -2.0732    0.5928    0.1422 C   0  0  0  0  0  0  0  0  0  0  0  0
    2.1944   -3.0697   -0.5100 C   0  0  0  0  0  0  0  0  0  0  0  0
    2.3385   -4.1610   -1.0248 O   0  0  0  0  0  0  0  0  0  0  0  0
   12.8068    4.9758    0.9610 H   0  0  0  0  0  0  0  0  0  0  0  0
   13.9471    3.6752    0.6343 H   0  0  0  0  0  0  0  0  0  0  0  0
   12.5561    3.9093   -0.4125 H   0  0  0  0  0  0  0  0  0  0  0  0
   12.3767    3.1205    2.5500 H   0  0  0  0  0  0  0  0  0  0  0  0
   11.0194    3.2757    1.4748 H   0  0  0  0  0  0  0  0  0  0  0  0
   13.2811    1.2299    1.2118 H   0  0  0  0  0  0  0  0  0  0  0  0
   11.6858    0.8881    1.8141 H   0  0  0  0  0  0  0  0  0  0  0  0
   12.3960    1.7322   -1.0395 H   0  0  0  0  0  0  0  0  0  0  0  0
   11.9207    0.1373   -0.5321 H   0  0  0  0  0  0  0  0  0  0  0  0
   10.1167    2.6121   -0.4430 H   0  0  0  0  0  0  0  0  0  0  0  0
   10.0639    1.3661   -1.6527 H   0  0  0  0  0  0  0  0  0  0  0  0
    9.4794   -0.3288    0.1173 H   0  0  0  0  0  0  0  0  0  0  0  0
    9.5264    0.9179    1.3268 H   0  0  0  0  0  0  0  0  0  0  0  0
    7.1950    0.5323    0.6913 H   0  0  0  0  0  0  0  0  0  0  0  0
    7.6667    2.1381    0.2149 H   0  0  0  0  0  0  0  0  0  0  0  0
    7.9183    1.4412   -2.1374 H   0  0  0  0  0  0  0  0  0  0  0  0
    6.3299    1.0574   -1.5567 H   0  0  0  0  0  0  0  0  0  0  0  0
    8.6464   -0.9092   -1.9076 H   0  0  0  0  0  0  0  0  0  0  0  0
    7.2272   -0.8001   -2.9083 H   0  0  0  0  0  0  0  0  0  0  0  0
    7.0730   -2.7123   -1.3294 H   0  0  0  0  0  0  0  0  0  0  0  0
    7.2538   -1.6477    0.0330 H   0  0  0  0  0  0  0  0  0  0  0  0
    5.1007   -0.4985   -0.5599 H   0  0  0  0  0  0  0  0  0  0  0  0
    4.9308   -1.5177   -1.9607 H   0  0  0  0  0  0  0  0  0  0  0  0
    4.7423   -3.5332   -0.4911 H   0  0  0  0  0  0  0  0  0  0  0  0
    5.0175   -2.5325    0.9289 H   0  0  0  0  0  0  0  0  0  0  0  0
    0.1638   -4.6237   -1.4171 H   0  0  0  0  0  0  0  0  0  0  0  0
   -2.1370   -5.4298   -1.6675 H   0  0  0  0  0  0  0  0  0  0  0  0
   -4.5082   -5.1542   -1.2293 H   0  0  0  0  0  0  0  0  0  0  0  0
   -7.7128   -2.2577   -0.0719 H   0  0  0  0  0  0  0  0  0  0  0  0
   -9.9696   -3.1584   -0.2530 H   0  0  0  0  0  0  0  0  0  0  0  0
  -12.6034   -5.4986   -0.5612 H   0  0  0  0  0  0  0  0  0  0  0  0
  -11.7093   -4.3595    0.4657 H   0  0  0  0  0  0  0  0  0  0  0  0
  -11.6024   -4.2453   -1.3217 H   0  0  0  0  0  0  0  0  0  0  0  0
   -8.3804   -7.1033   -0.4019 H   0  0  0  0  0  0  0  0  0  0  0  0
   -6.1100   -6.1962   -0.2101 H   0  0  0  0  0  0  0  0  0  0  0  0
   -6.7556   -0.1917    2.4448 H   0  0  0  0  0  0  0  0  0  0  0  0
   -5.0958   -0.7455    2.7345 H   0  0  0  0  0  0  0  0  0  0  0  0
   -5.5035    0.1664    1.2432 H   0  0  0  0  0  0  0  0  0  0  0  0
   -3.6101   -0.9947    1.2017 H   0  0  0  0  0  0  0  0  0  0  0  0
    1.5356    1.2487    1.4230 H   0  0  0  0  0  0  0  0  0  0  0  0
   -0.1775    2.9795    1.6974 H   0  0  0  0  0  0  0  0  0  0  0  0
   -2.4150    3.7910    1.2358 H   0  0  0  0  0  0  0  0  0  0  0  0
   -5.7206    3.4908   -1.7208 H   0  0  0  0  0  0  0  0  0  0  0  0
   -7.2881    5.3830   -1.6267 H   0  0  0  0  0  0  0  0  0  0  0  0
   -6.6269    8.3587    1.5557 H   0  0  0  0  0  0  0  0  0  0  0  0
   -7.8618    7.2896    2.2980 H   0  0  0  0  0  0  0  0  0  0  0  0
   -8.3552    8.6669    1.2932 H   0  0  0  0  0  0  0  0  0  0  0  0
   -5.8243    6.3869    2.2411 H   0  0  0  0  0  0  0  0  0  0  0  0
   -4.2812    4.5102    2.1494 H   0  0  0  0  0  0  0  0  0  0  0  0
   -5.6616   -0.5713   -1.1808 H   0  0  0  0  0  0  0  0  0  0  0  0
   -4.9251    0.0768   -2.6827 H   0  0  0  0  0  0  0  0  0  0  0  0
   -6.6564    0.2936   -2.3644 H   0  0  0  0  0  0  0  0  0  0  0  0
   -3.4636   -0.3511   -1.1593 H   0  0  0  0  0  0  0  0  0  0  0  0
  1  2  1  0  0  0  0
  2  3  1  0  0  0  0
  3  4  1  0  0  0  0
  4  5  1  0  0  0  0
  5  6  1  0  0  0  0
  6  7  1  0  0  0  0
  7  8  1  0  0  0  0
  8  9  1  0  0  0  0
  9 10  1  0  0  0  0
 10 11  1  0  0  0  0
 11 12  1  0  0  0  0
 12 13  1  0  0  0  0
 13 14  1  0  0  0  0
 14 15  2  0  0  0  0
 14 16  1  0  0  0  0
 16 17  2  0  0  0  0
 17 18  1  0  0  0  0
 18 19  2  0  0  0  0
 19 20  1  0  0  0  0
 20 21  2  0  0  0  0
 21 22  1  0  0  0  0
 22 23  2  0  0  0  0
 23 24  1  0  0  0  0
 24 25  2  0  0  0  0
 25 26  1  0  0  0  0
 26 27  2  0  0  0  0
 27 28  1  0  0  0  0
 28 29  1  0  0  0  0
 27 30  1  0  0  0  0
 30 31  2  0  0  0  0
 23 32  1  0  0  0  0
 32 33  1  0  0  0  0
 33 34  1  0  0  0  0
 32 35  2  0  0  0  0
 35 36  1  0  0  0  0
 36 37  2  0  0  0  0
 37 38  1  0  0  0  0
 38 39  2  0  0  0  0
 39 40  1  0  0  0  0
 40 41  2  0  0  0  0
 41 42  1  0  0  0  0
 42 43  2  0  0  0  0
 43 44  1  0  0  0  0
 44 45  1  0  0  0  0
 45 46  2  0  0  0  0
 46 47  1  0  0  0  0
 47 48  2  0  0  0  0
 48 49  1  0  0  0  0
 49 50  1  0  0  0  0
 48 51  1  0  0  0  0
 51 52  2  0  0  0  0
 44 53  2  0  0  0  0
 53 54  1  0  0  0  0
 54 55  1  0  0  0  0
 53 56  1  0  0  0  0
 56 57  2  0  0  0  0
 17 58  1  0  0  0  0
 58 59  2  0  0  0  0
 58 13  1  0  0  0  0
 39 16  1  0  0  0  0
 57 42  1  0  0  0  0
 37 18  1  0  0  0  0
 57 38  1  0  0  0  0
 36 21  1  0  0  0  0
 52 45  1  0  0  0  0
 31 24  1  0  0  0  0
  1 60  1  0  0  0  0
  1 61  1  0  0  0  0
  1 62  1  0  0  0  0
  2 63  1  0  0  0  0
  2 64  1  0  0  0  0
  3 65  1  0  0  0  0
  3 66  1  0  0  0  0
  4 67  1  0  0  0  0
  4 68  1  0  0  0  0
  5 69  1  0  0  0  0
  5 70  1  0  0  0  0
  6 71  1  0  0  0  0
  6 72  1  0  0  0  0
  7 73  1  0  0  0  0
  7 74  1  0  0  0  0
  8 75  1  0  0  0  0
  8 76  1  0  0  0  0
  9 77  1  0  0  0  0
  9 78  1  0  0  0  0
 10 79  1  0  0  0  0
 10 80  1  0  0  0  0
 11 81  1  0  0  0  0
 11 82  1  0  0  0  0
 12 83  1  0  0  0  0
 12 84  1  0  0  0  0
 19 85  1  0  0  0  0
 20 86  1  0  0  0  0
 22 87  1  0  0  0  0
 25 88  1  0  0  0  0
 26 89  1  0  0  0  0
 29 90  1  0  0  0  0
 29 91  1  0  0  0  0
 29 92  1  0  0  0  0
 30 93  1  0  0  0  0
 31 94  1  0  0  0  0
 34 95  1  0  0  0  0
 34 96  1  0  0  0  0
 34 97  1  0  0  0  0
 35 98  1  0  0  0  0
 40 99  1  0  0  0  0
 41100  1  0  0  0  0
 43101  1  0  0  0  0
 46102  1  0  0  0  0
 47103  1  0  0  0  0
 50104  1  0  0  0  0
 50105  1  0  0  0  0
 50106  1  0  0  0  0
 51107  1  0  0  0  0
 52108  1  0  0  0  0
 55109  1  0  0  0  0
 55110  1  0  0  0  0
 55111  1  0  0  0  0
 56112  1  0  0  0  0
M  END
