
  xtb     03012221303D
 energy: -10.989606035720 gnorm: 0.000262378835 xtb: 6.4.1 (afa7bdf)
 64 65  0     0  0            999 V2000
    8.5374   -1.9399   -1.7986 C   0  0  0  0  0  0  0  0  0  0  0  0
    8.1304   -0.9196   -0.7472 C   0  0  0  0  0  0  0  0  0  0  0  0
    7.1153    0.0972   -1.2716 C   0  0  0  0  0  0  0  0  0  0  0  0
    6.7018    1.1267   -0.2166 C   0  0  0  0  0  0  0  0  0  0  0  0
    5.6577    2.1471   -0.7117 C   0  0  0  0  0  0  0  0  0  0  0  0
    4.2011    1.7357   -0.4660 C   0  0  0  0  0  0  0  0  0  0  0  0
    3.7662    0.4693   -1.2053 C   0  0  0  0  0  0  0  0  0  0  0  0
    2.2619    0.1906   -1.1107 C   0  0  0  0  0  0  0  0  0  0  0  0
    1.7991   -0.1858    0.2965 C   0  0  0  0  0  0  0  0  0  0  0  0
    0.2783   -0.2647    0.4702 C   0  0  0  0  0  0  0  0  0  0  0  0
   -0.4170   -1.3458   -0.3696 C   0  0  0  0  0  0  0  0  0  0  0  0
   -0.8265   -0.8496   -1.7506 C   0  0  0  0  0  0  0  0  0  0  0  0
   -1.6109    0.3299   -1.6914 O   0  0  0  0  0  0  0  0  0  0  0  0
   -2.9131    0.0595   -1.2964 C   0  0  0  0  0  0  0  0  0  0  0  0
   -3.3271    0.3968   -0.0255 C   0  0  0  0  0  0  0  0  0  0  0  0
   -4.6381    0.1378    0.4153 C   0  0  0  0  0  0  0  0  0  0  0  0
   -5.0666    0.4732    1.7125 C   0  0  0  0  0  0  0  0  0  0  0  0
   -6.3543    0.2141    2.1402 C   0  0  0  0  0  0  0  0  0  0  0  0
   -6.7668    0.5552    3.4434 N   0  0  0  0  0  0  0  0  0  0  0  0
   -8.0844    0.1767    3.9531 C   0  0  0  0  0  0  0  0  0  0  0  0
   -5.8994    1.3097    4.3482 C   0  0  0  0  0  0  0  0  0  0  0  0
   -7.2509   -0.4037    1.2341 C   0  0  0  0  0  0  0  0  0  0  0  0
   -6.8661   -0.7385   -0.0264 C   0  0  0  0  0  0  0  0  0  0  0  0
   -5.5517   -0.4802   -0.4750 C   0  0  0  0  0  0  0  0  0  0  0  0
   -5.1194   -0.8153   -1.7734 C   0  0  0  0  0  0  0  0  0  0  0  0
   -3.8398   -0.5597   -2.1931 C   0  0  0  0  0  0  0  0  0  0  0  0
   -3.4399   -0.9201   -3.4829 C   0  0  0  0  0  0  0  0  0  0  0  0
   -3.0949   -1.2456   -4.5438 N   0  0  0  0  0  0  0  0  0  0  0  0
    7.6739   -2.5032   -2.1570 H   0  0  0  0  0  0  0  0  0  0  0  0
    8.9870   -1.4543   -2.6666 H   0  0  0  0  0  0  0  0  0  0  0  0
    9.2625   -2.6601   -1.4131 H   0  0  0  0  0  0  0  0  0  0  0  0
    7.7122   -1.4287    0.1315 H   0  0  0  0  0  0  0  0  0  0  0  0
    9.0156   -0.3886   -0.3724 H   0  0  0  0  0  0  0  0  0  0  0  0
    7.5322    0.6142   -2.1448 H   0  0  0  0  0  0  0  0  0  0  0  0
    6.2374   -0.4326   -1.6551 H   0  0  0  0  0  0  0  0  0  0  0  0
    7.6050    1.6484    0.1267 H   0  0  0  0  0  0  0  0  0  0  0  0
    6.3193    0.6148    0.6743 H   0  0  0  0  0  0  0  0  0  0  0  0
    5.8367    3.1188   -0.2281 H   0  0  0  0  0  0  0  0  0  0  0  0
    5.8135    2.3341   -1.7818 H   0  0  0  0  0  0  0  0  0  0  0  0
    3.5333    2.5576   -0.7549 H   0  0  0  0  0  0  0  0  0  0  0  0
    4.0425    1.6069    0.6108 H   0  0  0  0  0  0  0  0  0  0  0  0
    4.0630    0.5546   -2.2590 H   0  0  0  0  0  0  0  0  0  0  0  0
    4.3139   -0.3953   -0.8131 H   0  0  0  0  0  0  0  0  0  0  0  0
    1.9976   -0.6164   -1.8036 H   0  0  0  0  0  0  0  0  0  0  0  0
    1.7053    1.0698   -1.4553 H   0  0  0  0  0  0  0  0  0  0  0  0
    2.2523   -1.1436    0.5833 H   0  0  0  0  0  0  0  0  0  0  0  0
    2.2037    0.5416    1.0122 H   0  0  0  0  0  0  0  0  0  0  0  0
    0.0513   -0.4247    1.5335 H   0  0  0  0  0  0  0  0  0  0  0  0
   -0.1662    0.7076    0.2269 H   0  0  0  0  0  0  0  0  0  0  0  0
   -1.3241   -1.6849    0.1477 H   0  0  0  0  0  0  0  0  0  0  0  0
    0.2230   -2.2331   -0.4466 H   0  0  0  0  0  0  0  0  0  0  0  0
    0.0418   -0.6080   -2.3703 H   0  0  0  0  0  0  0  0  0  0  0  0
   -1.3909   -1.6104   -2.3034 H   0  0  0  0  0  0  0  0  0  0  0  0
   -2.6296    0.8727    0.6374 H   0  0  0  0  0  0  0  0  0  0  0  0
   -4.3645    0.9334    2.3815 H   0  0  0  0  0  0  0  0  0  0  0  0
   -8.8600    0.7324    3.4301 H   0  0  0  0  0  0  0  0  0  0  0  0
   -8.1682    0.3877    5.0170 H   0  0  0  0  0  0  0  0  0  0  0  0
   -8.2490   -0.8890    3.8083 H   0  0  0  0  0  0  0  0  0  0  0  0
   -6.4375    1.6143    5.2431 H   0  0  0  0  0  0  0  0  0  0  0  0
   -5.0511    0.6980    4.6483 H   0  0  0  0  0  0  0  0  0  0  0  0
   -5.5344    2.2075    3.8537 H   0  0  0  0  0  0  0  0  0  0  0  0
   -8.2590   -0.6019    1.5510 H   0  0  0  0  0  0  0  0  0  0  0  0
   -7.5622   -1.2050   -0.7018 H   0  0  0  0  0  0  0  0  0  0  0  0
   -5.8085   -1.2854   -2.4521 H   0  0  0  0  0  0  0  0  0  0  0  0
  1  2  1  0  0  0  0
  2  3  1  0  0  0  0
  3  4  1  0  0  0  0
  4  5  1  0  0  0  0
  5  6  1  0  0  0  0
  6  7  1  0  0  0  0
  7  8  1  0  0  0  0
  8  9  1  0  0  0  0
  9 10  1  0  0  0  0
 10 11  1  0  0  0  0
 11 12  1  0  0  0  0
 12 13  1  0  0  0  0
 13 14  1  0  0  0  0
 14 15  2  0  0  0  0
 15 16  1  0  0  0  0
 16 17  2  0  0  0  0
 17 18  1  0  0  0  0
 18 19  1  0  0  0  0
 19 20  1  0  0  0  0
 19 21  1  0  0  0  0
 18 22  2  0  0  0  0
 22 23  1  0  0  0  0
 23 24  2  0  0  0  0
 24 25  1  0  0  0  0
 25 26  2  0  0  0  0
 26 27  1  0  0  0  0
 27 28  3  0  0  0  0
 26 14  1  0  0  0  0
 24 16  1  0  0  0  0
  1 29  1  0  0  0  0
  1 30  1  0  0  0  0
  1 31  1  0  0  0  0
  2 32  1  0  0  0  0
  2 33  1  0  0  0  0
  3 34  1  0  0  0  0
  3 35  1  0  0  0  0
  4 36  1  0  0  0  0
  4 37  1  0  0  0  0
  5 38  1  0  0  0  0
  5 39  1  0  0  0  0
  6 40  1  0  0  0  0
  6 41  1  0  0  0  0
  7 42  1  0  0  0  0
  7 43  1  0  0  0  0
  8 44  1  0  0  0  0
  8 45  1  0  0  0  0
  9 46  1  0  0  0  0
  9 47  1  0  0  0  0
 10 48  1  0  0  0  0
 10 49  1  0  0  0  0
 11 50  1  0  0  0  0
 11 51  1  0  0  0  0
 12 52  1  0  0  0  0
 12 53  1  0  0  0  0
 15 54  1  0  0  0  0
 17 55  1  0  0  0  0
 20 56  1  0  0  0  0
 20 57  1  0  0  0  0
 20 58  1  0  0  0  0
 21 59  1  0  0  0  0
 21 60  1  0  0  0  0
 21 61  1  0  0  0  0
 22 62  1  0  0  0  0
 23 63  1  0  0  0  0
 25 64  1  0  0  0  0
M  END
