
  xtb     03012221233D
 energy: -8.954356058235 gnorm: 0.000247692406 xtb: 6.4.1 (afa7bdf)
 43 46  0     0  0            999 V2000
    5.3209    3.3760   -3.4492 C   0  0  0  0  0  0  0  0  0  0  0  0
    4.4205    3.7024   -2.4192 O   0  0  0  0  0  0  0  0  0  0  0  0
    3.5420    2.6781   -2.0603 C   0  0  0  0  0  0  0  0  0  0  0  0
    2.6288    2.9423   -1.0357 C   0  0  0  0  0  0  0  0  0  0  0  0
    1.7316    1.9907   -0.6214 C   0  0  0  0  0  0  0  0  0  0  0  0
    1.7043    0.7321   -1.2147 C   0  0  0  0  0  0  0  0  0  0  0  0
    0.7825   -0.2372   -0.7829 C   0  0  0  0  0  0  0  0  0  0  0  0
   -0.0376   -1.0225   -0.3289 C   0  0  0  0  0  0  0  0  0  0  0  0
   -0.9867   -1.8458    0.3046 C   0  0  0  0  0  0  0  0  0  0  0  0
   -1.2491   -3.0225   -0.2108 N   0  0  0  0  0  0  0  0  0  0  0  0
   -2.1363   -3.7623    0.4872 C   0  0  0  0  0  0  0  0  0  0  0  0
   -2.4881   -5.0416    0.0125 C   0  0  0  0  0  0  0  0  0  0  0  0
   -3.3688   -5.8309    0.6910 C   0  0  0  0  0  0  0  0  0  0  0  0
   -3.9405   -5.3785    1.8791 C   0  0  0  0  0  0  0  0  0  0  0  0
   -3.6235   -4.1457    2.3674 C   0  0  0  0  0  0  0  0  0  0  0  0
   -2.7184   -3.3028    1.6918 C   0  0  0  0  0  0  0  0  0  0  0  0
   -2.4403   -2.0880    2.2079 N   0  0  0  0  0  0  0  0  0  0  0  0
   -1.5959   -1.3707    1.5029 C   0  0  0  0  0  0  0  0  0  0  0  0
   -1.2525   -0.0162    2.0031 C   0  0  0  0  0  0  0  0  0  0  0  0
   -0.7720    0.2264    3.2499 C   0  0  0  0  0  0  0  0  0  0  0  0
   -0.4031    1.9031    3.4514 S   0  0  0  0  0  0  0  0  0  0  0  0
   -0.9248    2.3063    1.8332 C   0  0  0  0  0  0  0  0  0  0  0  0
   -0.8579    3.5984    1.3331 O   0  0  0  0  0  0  0  0  0  0  0  0
   -1.5050    3.7612    0.0928 C   0  0  0  0  0  0  0  0  0  0  0  0
   -1.3641    1.1760    1.2107 C   0  0  0  0  0  0  0  0  0  0  0  0
    2.6103    0.4611   -2.2353 C   0  0  0  0  0  0  0  0  0  0  0  0
    3.5110    1.4112   -2.6514 C   0  0  0  0  0  0  0  0  0  0  0  0
    5.9560    4.2419   -3.6390 H   0  0  0  0  0  0  0  0  0  0  0  0
    4.7714    3.1336   -4.3594 H   0  0  0  0  0  0  0  0  0  0  0  0
    5.9475    2.5378   -3.1426 H   0  0  0  0  0  0  0  0  0  0  0  0
    2.6470    3.9152   -0.5772 H   0  0  0  0  0  0  0  0  0  0  0  0
    1.0333    2.2133    0.1659 H   0  0  0  0  0  0  0  0  0  0  0  0
   -2.0391   -5.3828   -0.9047 H   0  0  0  0  0  0  0  0  0  0  0  0
   -3.6237   -6.8059    0.3110 H   0  0  0  0  0  0  0  0  0  0  0  0
   -4.6357   -6.0070    2.4121 H   0  0  0  0  0  0  0  0  0  0  0  0
   -4.0616   -3.7886    3.2830 H   0  0  0  0  0  0  0  0  0  0  0  0
   -0.6233   -0.5240    4.0010 H   0  0  0  0  0  0  0  0  0  0  0  0
   -2.5503    3.4629    0.1828 H   0  0  0  0  0  0  0  0  0  0  0  0
   -1.0069    3.1653   -0.6726 H   0  0  0  0  0  0  0  0  0  0  0  0
   -1.4558    4.8140   -0.1875 H   0  0  0  0  0  0  0  0  0  0  0  0
   -1.7406    1.1596    0.2019 H   0  0  0  0  0  0  0  0  0  0  0  0
    2.5953   -0.5113   -2.6962 H   0  0  0  0  0  0  0  0  0  0  0  0
    4.1996    1.1752   -3.4419 H   0  0  0  0  0  0  0  0  0  0  0  0
  1  2  1  0  0  0  0
  2  3  1  0  0  0  0
  3  4  2  0  0  0  0
  4  5  1  0  0  0  0
  5  6  2  0  0  0  0
  6  7  1  0  0  0  0
  7  8  3  0  0  0  0
  8  9  1  0  0  0  0
  9 10  2  0  0  0  0
 10 11  1  0  0  0  0
 11 12  2  0  0  0  0
 12 13  1  0  0  0  0
 13 14  2  0  0  0  0
 14 15  1  0  0  0  0
 15 16  2  0  0  0  0
 16 17  1  0  0  0  0
 17 18  2  0  0  0  0
 18 19  1  0  0  0  0
 19 20  2  0  0  0  0
 20 21  1  0  0  0  0
 21 22  1  0  0  0  0
 22 23  1  0  0  0  0
 23 24  1  0  0  0  0
 22 25  2  0  0  0  0
  6 26  1  0  0  0  0
 26 27  2  0  0  0  0
 27  3  1  0  0  0  0
 18  9  1  0  0  0  0
 25 19  1  0  0  0  0
 16 11  1  0  0  0  0
  1 28  1  0  0  0  0
  1 29  1  0  0  0  0
  1 30  1  0  0  0  0
  4 31  1  0  0  0  0
  5 32  1  0  0  0  0
 12 33  1  0  0  0  0
 13 34  1  0  0  0  0
 14 35  1  0  0  0  0
 15 36  1  0  0  0  0
 20 37  1  0  0  0  0
 24 38  1  0  0  0  0
 24 39  1  0  0  0  0
 24 40  1  0  0  0  0
 25 41  1  0  0  0  0
 26 42  1  0  0  0  0
 27 43  1  0  0  0  0
M  END
