
  xtb     03012221233D
 energy: -8.774211550473 gnorm: 0.000475448063 xtb: 6.4.1 (afa7bdf)
 41 45  0     0  0            999 V2000
    5.8370    0.7606   -1.3926 C   0  0  0  0  0  0  0  0  0  0  0  0
    4.7408    0.4392   -0.4491 C   0  0  0  0  0  0  0  0  0  0  0  0
    3.4540    0.4699   -0.8635 C   0  0  0  0  0  0  0  0  0  0  0  0
    2.4008    0.1601    0.0392 C   0  0  0  0  0  0  0  0  0  0  0  0
    1.0592    0.1756   -0.3407 C   0  0  0  0  0  0  0  0  0  0  0  0
    0.0531   -0.1366    0.5638 C   0  0  0  0  0  0  0  0  0  0  0  0
   -1.3292   -0.1223    0.1583 N   0  0  0  0  0  0  0  0  0  0  0  0
   -2.0994   -1.3194    0.1523 C   0  0  0  0  0  0  0  0  0  0  0  0
   -1.5454   -2.5361    0.5193 C   0  0  0  0  0  0  0  0  0  0  0  0
   -2.2928   -3.6957    0.5050 C   0  0  0  0  0  0  0  0  0  0  0  0
   -3.6127   -3.6532    0.1145 C   0  0  0  0  0  0  0  0  0  0  0  0
   -4.1838   -2.4565   -0.2685 C   0  0  0  0  0  0  0  0  0  0  0  0
   -3.4452   -1.2801   -0.2624 C   0  0  0  0  0  0  0  0  0  0  0  0
   -4.0591   -0.0996   -0.6741 O   0  0  0  0  0  0  0  0  0  0  0  0
   -3.3040    1.0708   -0.6613 C   0  0  0  0  0  0  0  0  0  0  0  0
   -3.9046    2.2598   -1.0548 C   0  0  0  0  0  0  0  0  0  0  0  0
   -3.2012    3.4472   -1.0404 C   0  0  0  0  0  0  0  0  0  0  0  0
   -1.8874    3.4674   -0.6282 C   0  0  0  0  0  0  0  0  0  0  0  0
   -1.2745    2.2949   -0.2367 C   0  0  0  0  0  0  0  0  0  0  0  0
   -1.9554    1.0876   -0.2542 C   0  0  0  0  0  0  0  0  0  0  0  0
    0.4095   -0.4683    1.8805 C   0  0  0  0  0  0  0  0  0  0  0  0
    1.7215   -0.4870    2.2655 C   0  0  0  0  0  0  0  0  0  0  0  0
    2.7329   -0.1761    1.3587 C   0  0  0  0  0  0  0  0  0  0  0  0
    4.1348   -0.1973    1.7700 C   0  0  0  0  0  0  0  0  0  0  0  0
    4.3954   -0.4909    2.9283 O   0  0  0  0  0  0  0  0  0  0  0  0
    5.1077    0.1134    0.8408 O   0  0  0  0  0  0  0  0  0  0  0  0
    5.8682    0.0432   -2.2126 H   0  0  0  0  0  0  0  0  0  0  0  0
    5.7138    1.7602   -1.8094 H   0  0  0  0  0  0  0  0  0  0  0  0
    6.7947    0.7247   -0.8736 H   0  0  0  0  0  0  0  0  0  0  0  0
    3.2226    0.7290   -1.8797 H   0  0  0  0  0  0  0  0  0  0  0  0
    0.7941    0.4207   -1.3524 H   0  0  0  0  0  0  0  0  0  0  0  0
   -0.5098   -2.5715    0.8109 H   0  0  0  0  0  0  0  0  0  0  0  0
   -1.8445   -4.6301    0.7968 H   0  0  0  0  0  0  0  0  0  0  0  0
   -4.2005   -4.5568    0.1029 H   0  0  0  0  0  0  0  0  0  0  0  0
   -5.2102   -2.4122   -0.5835 H   0  0  0  0  0  0  0  0  0  0  0  0
   -4.9329    2.2328   -1.3658 H   0  0  0  0  0  0  0  0  0  0  0  0
   -3.6838    4.3610   -1.3475 H   0  0  0  0  0  0  0  0  0  0  0  0
   -1.3407    4.3947   -0.6092 H   0  0  0  0  0  0  0  0  0  0  0  0
   -0.2520    2.3124    0.0996 H   0  0  0  0  0  0  0  0  0  0  0  0
   -0.3710   -0.6972    2.5847 H   0  0  0  0  0  0  0  0  0  0  0  0
    2.0000   -0.7387    3.2744 H   0  0  0  0  0  0  0  0  0  0  0  0
  1  2  1  0  0  0  0
  2  3  2  0  0  0  0
  3  4  1  0  0  0  0
  4  5  2  0  0  0  0
  5  6  1  0  0  0  0
  6  7  1  0  0  0  0
  7  8  1  0  0  0  0
  8  9  2  0  0  0  0
  9 10  1  0  0  0  0
 10 11  2  0  0  0  0
 11 12  1  0  0  0  0
 12 13  2  0  0  0  0
 13 14  1  0  0  0  0
 14 15  1  0  0  0  0
 15 16  2  0  0  0  0
 16 17  1  0  0  0  0
 17 18  2  0  0  0  0
 18 19  1  0  0  0  0
 19 20  2  0  0  0  0
  6 21  2  0  0  0  0
 21 22  1  0  0  0  0
 22 23  2  0  0  0  0
 23 24  1  0  0  0  0
 24 25  2  0  0  0  0
 24 26  1  0  0  0  0
 26  2  1  0  0  0  0
 23  4  1  0  0  0  0
 20  7  1  0  0  0  0
 13  8  1  0  0  0  0
 20 15  1  0  0  0  0
  1 27  1  0  0  0  0
  1 28  1  0  0  0  0
  1 29  1  0  0  0  0
  3 30  1  0  0  0  0
  5 31  1  0  0  0  0
  9 32  1  0  0  0  0
 10 33  1  0  0  0  0
 11 34  1  0  0  0  0
 12 35  1  0  0  0  0
 16 36  1  0  0  0  0
 17 37  1  0  0  0  0
 18 38  1  0  0  0  0
 19 39  1  0  0  0  0
 21 40  1  0  0  0  0
 22 41  1  0  0  0  0
M  END
