
  xtb     03012221273D
 energy: -11.724127384978 gnorm: 0.000190962721 xtb: 6.4.1 (afa7bdf)
 54 60  0     0  0            999 V2000
    1.8089    2.3749   -1.5257 O   0  0  0  0  0  0  0  0  0  0  0  0
    1.5911    1.2579   -1.0904 C   0  0  0  0  0  0  0  0  0  0  0  0
    0.2263    0.8878   -0.6645 C   0  0  0  0  0  0  0  0  0  0  0  0
   -0.0153   -0.0943    0.2960 C   0  0  0  0  0  0  0  0  0  0  0  0
   -1.2967   -0.3966    0.6795 C   0  0  0  0  0  0  0  0  0  0  0  0
   -2.3850    0.2797    0.1253 C   0  0  0  0  0  0  0  0  0  0  0  0
   -3.7340   -0.0608    0.5185 N   0  0  0  0  0  0  0  0  0  0  0  0
   -4.4354    0.7706    1.4493 C   0  0  0  0  0  0  0  0  0  0  0  0
   -3.9991    2.0706    1.6885 C   0  0  0  0  0  0  0  0  0  0  0  0
   -4.6707    2.9026    2.5578 C   0  0  0  0  0  0  0  0  0  0  0  0
   -5.7949    2.4474    3.2128 C   0  0  0  0  0  0  0  0  0  0  0  0
   -6.2340    1.1534    3.0028 C   0  0  0  0  0  0  0  0  0  0  0  0
   -5.5627    0.3102    2.1390 C   0  0  0  0  0  0  0  0  0  0  0  0
   -6.1543   -1.3465    1.9794 S   0  0  0  0  0  0  0  0  0  0  0  0
   -5.5220   -1.7644    0.3849 C   0  0  0  0  0  0  0  0  0  0  0  0
   -6.1545   -2.7700   -0.3196 C   0  0  0  0  0  0  0  0  0  0  0  0
   -5.6849   -3.1703   -1.5570 C   0  0  0  0  0  0  0  0  0  0  0  0
   -4.5708   -2.5625   -2.0956 C   0  0  0  0  0  0  0  0  0  0  0  0
   -3.9368   -1.5546   -1.4021 C   0  0  0  0  0  0  0  0  0  0  0  0
   -4.4005   -1.1304   -0.1602 C   0  0  0  0  0  0  0  0  0  0  0  0
   -2.1403    1.2709   -0.8281 C   0  0  0  0  0  0  0  0  0  0  0  0
   -0.8573    1.5707   -1.2078 C   0  0  0  0  0  0  0  0  0  0  0  0
    2.7001    0.2820   -0.9887 C   0  0  0  0  0  0  0  0  0  0  0  0
    2.4992   -1.0937   -1.1788 C   0  0  0  0  0  0  0  0  0  0  0  0
    3.5457   -1.9790   -1.1014 C   0  0  0  0  0  0  0  0  0  0  0  0
    4.8228   -1.5038   -0.8418 C   0  0  0  0  0  0  0  0  0  0  0  0
    6.3191   -2.4098   -0.6920 S   0  0  0  0  0  0  0  0  0  0  0  0
    7.2647   -0.9569   -0.3993 C   0  0  0  0  0  0  0  0  0  0  0  0
    8.6278   -0.8464   -0.1749 C   0  0  0  0  0  0  0  0  0  0  0  0
    9.1767    0.3975    0.0352 C   0  0  0  0  0  0  0  0  0  0  0  0
    8.3763    1.5347    0.0234 C   0  0  0  0  0  0  0  0  0  0  0  0
    7.0236    1.4371   -0.1985 C   0  0  0  0  0  0  0  0  0  0  0  0
    6.4534    0.1791   -0.4135 C   0  0  0  0  0  0  0  0  0  0  0  0
    5.0481   -0.1361   -0.6664 C   0  0  0  0  0  0  0  0  0  0  0  0
    3.9778    0.7537   -0.7480 C   0  0  0  0  0  0  0  0  0  0  0  0
    0.8175   -0.6018    0.7501 H   0  0  0  0  0  0  0  0  0  0  0  0
   -1.4846   -1.1560    1.4181 H   0  0  0  0  0  0  0  0  0  0  0  0
   -3.1216    2.4276    1.1791 H   0  0  0  0  0  0  0  0  0  0  0  0
   -4.3187    3.9071    2.7237 H   0  0  0  0  0  0  0  0  0  0  0  0
   -6.3252    3.0944    3.8918 H   0  0  0  0  0  0  0  0  0  0  0  0
   -7.1018    0.7820    3.5218 H   0  0  0  0  0  0  0  0  0  0  0  0
   -7.0174   -3.2458    0.1153 H   0  0  0  0  0  0  0  0  0  0  0  0
   -6.1857   -3.9576   -2.0958 H   0  0  0  0  0  0  0  0  0  0  0  0
   -4.1984   -2.8726   -3.0576 H   0  0  0  0  0  0  0  0  0  0  0  0
   -3.0721   -1.0736   -1.8248 H   0  0  0  0  0  0  0  0  0  0  0  0
   -2.9762    1.7913   -1.2619 H   0  0  0  0  0  0  0  0  0  0  0  0
   -0.6631    2.3433   -1.9318 H   0  0  0  0  0  0  0  0  0  0  0  0
    1.5096   -1.4497   -1.4062 H   0  0  0  0  0  0  0  0  0  0  0  0
    3.3934   -3.0348   -1.2454 H   0  0  0  0  0  0  0  0  0  0  0  0
    9.2372   -1.7334   -0.1686 H   0  0  0  0  0  0  0  0  0  0  0  0
   10.2363    0.4919    0.2100 H   0  0  0  0  0  0  0  0  0  0  0  0
    8.8219    2.5017    0.1896 H   0  0  0  0  0  0  0  0  0  0  0  0
    6.4015    2.3143   -0.2098 H   0  0  0  0  0  0  0  0  0  0  0  0
    4.1348    1.8105   -0.6358 H   0  0  0  0  0  0  0  0  0  0  0  0
  1  2  2  0  0  0  0
  2  3  1  0  0  0  0
  3  4  2  0  0  0  0
  4  5  1  0  0  0  0
  5  6  2  0  0  0  0
  6  7  1  0  0  0  0
  7  8  1  0  0  0  0
  8  9  2  0  0  0  0
  9 10  1  0  0  0  0
 10 11  2  0  0  0  0
 11 12  1  0  0  0  0
 12 13  2  0  0  0  0
 13 14  1  0  0  0  0
 14 15  1  0  0  0  0
 15 16  2  0  0  0  0
 16 17  1  0  0  0  0
 17 18  2  0  0  0  0
 18 19  1  0  0  0  0
 19 20  2  0  0  0  0
  6 21  1  0  0  0  0
 21 22  2  0  0  0  0
  2 23  1  0  0  0  0
 23 24  2  0  0  0  0
 24 25  1  0  0  0  0
 25 26  2  0  0  0  0
 26 27  1  0  0  0  0
 27 28  1  0  0  0  0
 28 29  2  0  0  0  0
 29 30  1  0  0  0  0
 30 31  2  0  0  0  0
 31 32  1  0  0  0  0
 32 33  2  0  0  0  0
 33 34  1  0  0  0  0
 34 35  2  0  0  0  0
 22  3  1  0  0  0  0
 35 23  1  0  0  0  0
 20  7  1  0  0  0  0
 34 26  1  0  0  0  0
 13  8  1  0  0  0  0
 20 15  1  0  0  0  0
 33 28  1  0  0  0  0
  4 36  1  0  0  0  0
  5 37  1  0  0  0  0
  9 38  1  0  0  0  0
 10 39  1  0  0  0  0
 11 40  1  0  0  0  0
 12 41  1  0  0  0  0
 16 42  1  0  0  0  0
 17 43  1  0  0  0  0
 18 44  1  0  0  0  0
 19 45  1  0  0  0  0
 21 46  1  0  0  0  0
 22 47  1  0  0  0  0
 24 48  1  0  0  0  0
 25 49  1  0  0  0  0
 29 50  1  0  0  0  0
 30 51  1  0  0  0  0
 31 52  1  0  0  0  0
 32 53  1  0  0  0  0
 35 54  1  0  0  0  0
M  END
