
  xtb     03012221293D
 energy: -19.776771734729 gnorm: 0.000313048326 xtb: 6.4.1 (afa7bdf)
113116  0     0  0            999 V2000
  -12.8165   -0.3223    0.8600 C   0  0  0  0  0  0  0  0  0  0  0  0
  -11.9569   -1.1294    1.8191 C   0  0  0  0  0  0  0  0  0  0  0  0
  -10.6962   -1.7331    1.1894 C   0  0  0  0  0  0  0  0  0  0  0  0
  -10.9664   -2.7271    0.0438 C   0  0  0  0  0  0  0  0  0  0  0  0
  -11.0417   -2.0947   -1.3486 C   0  0  0  0  0  0  0  0  0  0  0  0
   -9.6985   -1.5432   -1.8043 C   0  0  0  0  0  0  0  0  0  0  0  0
   -9.2510   -0.4762   -0.9703 O   0  0  0  0  0  0  0  0  0  0  0  0
   -7.8577   -0.4071   -0.8212 C   0  0  0  0  0  0  0  0  0  0  0  0
   -6.9740   -0.7068   -1.8508 C   0  0  0  0  0  0  0  0  0  0  0  0
   -5.6119   -0.6326   -1.6626 C   0  0  0  0  0  0  0  0  0  0  0  0
   -5.0857   -0.2572   -0.4343 C   0  0  0  0  0  0  0  0  0  0  0  0
   -3.6979   -0.1846   -0.2384 C   0  0  0  0  0  0  0  0  0  0  0  0
   -2.4878   -0.1188   -0.0695 C   0  0  0  0  0  0  0  0  0  0  0  0
   -1.1055   -0.0389    0.1065 C   0  0  0  0  0  0  0  0  0  0  0  0
   -0.5132   -0.2946    1.3200 C   0  0  0  0  0  0  0  0  0  0  0  0
    0.8755   -0.2190    1.5105 C   0  0  0  0  0  0  0  0  0  0  0  0
    1.7400    0.1165    0.4965 C   0  0  0  0  0  0  0  0  0  0  0  0
    3.1200    0.1843    0.6930 C   0  0  0  0  0  0  0  0  0  0  0  0
    4.3354    0.2494    0.8194 C   0  0  0  0  0  0  0  0  0  0  0  0
    5.7333    0.3255    0.9150 C   0  0  0  0  0  0  0  0  0  0  0  0
    6.4489   -0.5724    1.6920 C   0  0  0  0  0  0  0  0  0  0  0  0
    7.8229   -0.5082    1.7545 C   0  0  0  0  0  0  0  0  0  0  0  0
    8.5380    0.4453    1.0370 C   0  0  0  0  0  0  0  0  0  0  0  0
    9.9404    0.4961    0.9687 O   0  0  0  0  0  0  0  0  0  0  0  0
   10.6576   -0.0651    2.0734 C   0  0  0  0  0  0  0  0  0  0  0  0
   11.4652   -1.3106    1.7144 C   0  0  0  0  0  0  0  0  0  0  0  0
   10.6137   -2.5018    1.2712 C   0  0  0  0  0  0  0  0  0  0  0  0
    9.9526   -2.3048   -0.0936 C   0  0  0  0  0  0  0  0  0  0  0  0
    8.8706   -3.3367   -0.4048 C   0  0  0  0  0  0  0  0  0  0  0  0
    8.1503   -3.0455   -1.7113 C   0  0  0  0  0  0  0  0  0  0  0  0
    7.8131    1.3983    0.2663 C   0  0  0  0  0  0  0  0  0  0  0  0
    8.5512    2.3937   -0.3953 O   0  0  0  0  0  0  0  0  0  0  0  0
    7.9295    2.9558   -1.5467 C   0  0  0  0  0  0  0  0  0  0  0  0
    7.8618    1.9776   -2.7126 C   0  0  0  0  0  0  0  0  0  0  0  0
    9.2461    1.6727   -3.2820 C   0  0  0  0  0  0  0  0  0  0  0  0
   10.1770    0.9727   -2.2928 C   0  0  0  0  0  0  0  0  0  0  0  0
   11.6095    0.8508   -2.8100 C   0  0  0  0  0  0  0  0  0  0  0  0
   12.5506    0.2176   -1.7994 C   0  0  0  0  0  0  0  0  0  0  0  0
    6.4312    1.3075    0.2185 C   0  0  0  0  0  0  0  0  0  0  0  0
    1.1832    0.3976   -0.7976 C   0  0  0  0  0  0  0  0  0  0  0  0
    1.8346    0.7345   -1.8910 N   0  0  0  0  0  0  0  0  0  0  0  0
    0.7337    0.9437   -3.0940 S   0  0  0  0  0  0  0  0  0  0  0  0
   -0.6210    0.5998   -2.2281 N   0  0  0  0  0  0  0  0  0  0  0  0
   -0.2555    0.3187   -0.9950 C   0  0  0  0  0  0  0  0  0  0  0  0
   -5.9618    0.0514    0.6034 C   0  0  0  0  0  0  0  0  0  0  0  0
   -7.3359   -0.0064    0.4398 C   0  0  0  0  0  0  0  0  0  0  0  0
   -8.2642    0.2993    1.4450 O   0  0  0  0  0  0  0  0  0  0  0  0
   -7.7087    0.8591    2.6302 C   0  0  0  0  0  0  0  0  0  0  0  0
   -8.7851    1.3933    3.5650 C   0  0  0  0  0  0  0  0  0  0  0  0
   -9.4894    2.6486    3.0421 C   0  0  0  0  0  0  0  0  0  0  0  0
  -10.1862    2.4654    1.6789 C   0  0  0  0  0  0  0  0  0  0  0  0
   -9.3241    2.8768    0.4840 C   0  0  0  0  0  0  0  0  0  0  0  0
   -9.9887    2.5816   -0.8501 C   0  0  0  0  0  0  0  0  0  0  0  0
  -13.2788   -0.9594    0.1049 H   0  0  0  0  0  0  0  0  0  0  0  0
  -12.2276    0.4321    0.3365 H   0  0  0  0  0  0  0  0  0  0  0  0
  -13.6272    0.1966    1.3766 H   0  0  0  0  0  0  0  0  0  0  0  0
  -11.6686   -0.4966    2.6715 H   0  0  0  0  0  0  0  0  0  0  0  0
  -12.5582   -1.9357    2.2623 H   0  0  0  0  0  0  0  0  0  0  0  0
  -10.1103   -2.2286    1.9756 H   0  0  0  0  0  0  0  0  0  0  0  0
  -10.0456   -0.9306    0.8261 H   0  0  0  0  0  0  0  0  0  0  0  0
  -11.8890   -3.2796    0.2633 H   0  0  0  0  0  0  0  0  0  0  0  0
  -10.1776   -3.4911    0.0247 H   0  0  0  0  0  0  0  0  0  0  0  0
  -11.4066   -2.8307   -2.0772 H   0  0  0  0  0  0  0  0  0  0  0  0
  -11.7751   -1.2837   -1.3565 H   0  0  0  0  0  0  0  0  0  0  0  0
   -9.7446   -1.1614   -2.8310 H   0  0  0  0  0  0  0  0  0  0  0  0
   -8.9430   -2.3365   -1.7822 H   0  0  0  0  0  0  0  0  0  0  0  0
   -7.3670   -0.9804   -2.8139 H   0  0  0  0  0  0  0  0  0  0  0  0
   -4.9374   -0.8632   -2.4692 H   0  0  0  0  0  0  0  0  0  0  0  0
   -1.1451   -0.5629    2.1502 H   0  0  0  0  0  0  0  0  0  0  0  0
    1.2866   -0.4312    2.4834 H   0  0  0  0  0  0  0  0  0  0  0  0
    5.9145   -1.3311    2.2374 H   0  0  0  0  0  0  0  0  0  0  0  0
    8.3471   -1.2387    2.3414 H   0  0  0  0  0  0  0  0  0  0  0  0
   11.3235    0.7321    2.4268 H   0  0  0  0  0  0  0  0  0  0  0  0
    9.9700   -0.2565    2.9018 H   0  0  0  0  0  0  0  0  0  0  0  0
   12.0876   -1.5985    2.5720 H   0  0  0  0  0  0  0  0  0  0  0  0
   12.1694   -1.0586    0.9145 H   0  0  0  0  0  0  0  0  0  0  0  0
   11.2205   -3.4166    1.2436 H   0  0  0  0  0  0  0  0  0  0  0  0
    9.8484   -2.7009    2.0296 H   0  0  0  0  0  0  0  0  0  0  0  0
    9.5140   -1.3049   -0.1429 H   0  0  0  0  0  0  0  0  0  0  0  0
   10.7126   -2.3158   -0.8826 H   0  0  0  0  0  0  0  0  0  0  0  0
    8.1477   -3.3648    0.4225 H   0  0  0  0  0  0  0  0  0  0  0  0
    9.3169   -4.3405   -0.4264 H   0  0  0  0  0  0  0  0  0  0  0  0
    8.8462   -3.0362   -2.5519 H   0  0  0  0  0  0  0  0  0  0  0  0
    7.3787   -3.7869   -1.9294 H   0  0  0  0  0  0  0  0  0  0  0  0
    7.6666   -2.0672   -1.6838 H   0  0  0  0  0  0  0  0  0  0  0  0
    8.5283    3.8304   -1.8253 H   0  0  0  0  0  0  0  0  0  0  0  0
    6.9480    3.3483   -1.2632 H   0  0  0  0  0  0  0  0  0  0  0  0
    7.2100    2.3779   -3.5002 H   0  0  0  0  0  0  0  0  0  0  0  0
    7.3891    1.0479   -2.3775 H   0  0  0  0  0  0  0  0  0  0  0  0
    9.1607    1.0642   -4.1914 H   0  0  0  0  0  0  0  0  0  0  0  0
    9.7115    2.6107   -3.6082 H   0  0  0  0  0  0  0  0  0  0  0  0
    9.7796   -0.0187   -2.0494 H   0  0  0  0  0  0  0  0  0  0  0  0
   10.1806    1.5150   -1.3397 H   0  0  0  0  0  0  0  0  0  0  0  0
   11.9764    1.8487   -3.0881 H   0  0  0  0  0  0  0  0  0  0  0  0
   11.6123    0.2767   -3.7468 H   0  0  0  0  0  0  0  0  0  0  0  0
   13.5801    0.1817   -2.1622 H   0  0  0  0  0  0  0  0  0  0  0  0
   12.5504    0.7749   -0.8610 H   0  0  0  0  0  0  0  0  0  0  0  0
   12.2508   -0.8048   -1.5680 H   0  0  0  0  0  0  0  0  0  0  0  0
    5.8623    2.0088   -0.3605 H   0  0  0  0  0  0  0  0  0  0  0  0
   -5.5435    0.3314    1.5514 H   0  0  0  0  0  0  0  0  0  0  0  0
   -7.1200    0.0710    3.1144 H   0  0  0  0  0  0  0  0  0  0  0  0
   -7.0220    1.6646    2.3495 H   0  0  0  0  0  0  0  0  0  0  0  0
   -8.3518    1.5963    4.5534 H   0  0  0  0  0  0  0  0  0  0  0  0
   -9.5261    0.6021    3.7254 H   0  0  0  0  0  0  0  0  0  0  0  0
   -8.7681    3.4713    2.9679 H   0  0  0  0  0  0  0  0  0  0  0  0
  -10.2217    2.9827    3.7902 H   0  0  0  0  0  0  0  0  0  0  0  0
  -10.4798    1.4163    1.5678 H   0  0  0  0  0  0  0  0  0  0  0  0
  -11.1265    3.0311    1.6456 H   0  0  0  0  0  0  0  0  0  0  0  0
   -8.3582    2.3593    0.5377 H   0  0  0  0  0  0  0  0  0  0  0  0
   -9.0787    3.9450    0.5609 H   0  0  0  0  0  0  0  0  0  0  0  0
   -9.3691    2.8911   -1.6944 H   0  0  0  0  0  0  0  0  0  0  0  0
  -10.1789    1.5131   -0.9618 H   0  0  0  0  0  0  0  0  0  0  0  0
  -10.9483    3.0938   -0.9377 H   0  0  0  0  0  0  0  0  0  0  0  0
  1  2  1  0  0  0  0
  2  3  1  0  0  0  0
  3  4  1  0  0  0  0
  4  5  1  0  0  0  0
  5  6  1  0  0  0  0
  6  7  1  0  0  0  0
  7  8  1  0  0  0  0
  8  9  2  0  0  0  0
  9 10  1  0  0  0  0
 10 11  2  0  0  0  0
 11 12  1  0  0  0  0
 12 13  3  0  0  0  0
 13 14  1  0  0  0  0
 14 15  2  0  0  0  0
 15 16  1  0  0  0  0
 16 17  2  0  0  0  0
 17 18  1  0  0  0  0
 18 19  3  0  0  0  0
 19 20  1  0  0  0  0
 20 21  2  0  0  0  0
 21 22  1  0  0  0  0
 22 23  2  0  0  0  0
 23 24  1  0  0  0  0
 24 25  1  0  0  0  0
 25 26  1  0  0  0  0
 26 27  1  0  0  0  0
 27 28  1  0  0  0  0
 28 29  1  0  0  0  0
 29 30  1  0  0  0  0
 23 31  1  0  0  0  0
 31 32  1  0  0  0  0
 32 33  1  0  0  0  0
 33 34  1  0  0  0  0
 34 35  1  0  0  0  0
 35 36  1  0  0  0  0
 36 37  1  0  0  0  0
 37 38  1  0  0  0  0
 31 39  2  0  0  0  0
 17 40  1  0  0  0  0
 40 41  2  0  0  0  0
 41 42  1  0  0  0  0
 42 43  1  0  0  0  0
 43 44  2  0  0  0  0
 11 45  1  0  0  0  0
 45 46  2  0  0  0  0
 46 47  1  0  0  0  0
 47 48  1  0  0  0  0
 48 49  1  0  0  0  0
 49 50  1  0  0  0  0
 50 51  1  0  0  0  0
 51 52  1  0  0  0  0
 52 53  1  0  0  0  0
 46  8  1  0  0  0  0
 44 14  1  0  0  0  0
 39 20  1  0  0  0  0
 44 40  1  0  0  0  0
  1 54  1  0  0  0  0
  1 55  1  0  0  0  0
  1 56  1  0  0  0  0
  2 57  1  0  0  0  0
  2 58  1  0  0  0  0
  3 59  1  0  0  0  0
  3 60  1  0  0  0  0
  4 61  1  0  0  0  0
  4 62  1  0  0  0  0
  5 63  1  0  0  0  0
  5 64  1  0  0  0  0
  6 65  1  0  0  0  0
  6 66  1  0  0  0  0
  9 67  1  0  0  0  0
 10 68  1  0  0  0  0
 15 69  1  0  0  0  0
 16 70  1  0  0  0  0
 21 71  1  0  0  0  0
 22 72  1  0  0  0  0
 25 73  1  0  0  0  0
 25 74  1  0  0  0  0
 26 75  1  0  0  0  0
 26 76  1  0  0  0  0
 27 77  1  0  0  0  0
 27 78  1  0  0  0  0
 28 79  1  0  0  0  0
 28 80  1  0  0  0  0
 29 81  1  0  0  0  0
 29 82  1  0  0  0  0
 30 83  1  0  0  0  0
 30 84  1  0  0  0  0
 30 85  1  0  0  0  0
 33 86  1  0  0  0  0
 33 87  1  0  0  0  0
 34 88  1  0  0  0  0
 34 89  1  0  0  0  0
 35 90  1  0  0  0  0
 35 91  1  0  0  0  0
 36 92  1  0  0  0  0
 36 93  1  0  0  0  0
 37 94  1  0  0  0  0
 37 95  1  0  0  0  0
 38 96  1  0  0  0  0
 38 97  1  0  0  0  0
 38 98  1  0  0  0  0
 39 99  1  0  0  0  0
 45100  1  0  0  0  0
 48101  1  0  0  0  0
 48102  1  0  0  0  0
 49103  1  0  0  0  0
 49104  1  0  0  0  0
 50105  1  0  0  0  0
 50106  1  0  0  0  0
 51107  1  0  0  0  0
 51108  1  0  0  0  0
 52109  1  0  0  0  0
 52110  1  0  0  0  0
 53111  1  0  0  0  0
 53112  1  0  0  0  0
 53113  1  0  0  0  0
M  END
