
  xtb     03012221283D
 energy: -6.378416550220 gnorm: 0.000447541476 xtb: 6.4.1 (afa7bdf)
 32 35  0     0  0            999 V2000
   -0.7423   -0.6816    2.0271 C   0  0  0  0  0  0  0  0  0  0  0  0
   -0.7395   -0.7024    0.4935 C   0  0  0  0  0  0  0  0  0  0  0  0
   -0.7608   -2.1385   -0.0447 C   0  0  0  0  0  0  0  0  0  0  0  0
   -1.9186    0.1070   -0.0645 C   0  0  0  0  0  0  0  0  0  0  0  0
   -3.2798   -0.0750    0.0728 C   0  0  0  0  0  0  0  0  0  0  0  0
   -4.1405    0.8154   -0.5452 C   0  0  0  0  0  0  0  0  0  0  0  0
   -3.6499    1.8756   -1.2920 C   0  0  0  0  0  0  0  0  0  0  0  0
   -2.2907    2.0665   -1.4360 C   0  0  0  0  0  0  0  0  0  0  0  0
   -1.4232    1.1763   -0.8185 C   0  0  0  0  0  0  0  0  0  0  0  0
    0.0353    1.1356   -0.8024 C   0  0  0  0  0  0  0  0  0  0  0  0
    1.3748    2.0515   -1.4543 S   0  0  0  0  0  0  0  0  0  0  0  0
    2.5445    0.9762   -0.7018 C   0  0  0  0  0  0  0  0  0  0  0  0
    3.9323    1.0340   -0.7445 C   0  0  0  0  0  0  0  0  0  0  0  0
    4.6662    0.0830   -0.0783 C   0  0  0  0  0  0  0  0  0  0  0  0
    4.0326   -0.9348    0.6369 C   0  0  0  0  0  0  0  0  0  0  0  0
    2.6644   -1.0066    0.6896 C   0  0  0  0  0  0  0  0  0  0  0  0
    1.9009   -0.0417    0.0139 C   0  0  0  0  0  0  0  0  0  0  0  0
    0.4635    0.0731   -0.0627 C   0  0  0  0  0  0  0  0  0  0  0  0
   -1.6347   -1.1673    2.4207 H   0  0  0  0  0  0  0  0  0  0  0  0
   -0.7247    0.3436    2.3952 H   0  0  0  0  0  0  0  0  0  0  0  0
    0.1290   -1.1984    2.4271 H   0  0  0  0  0  0  0  0  0  0  0  0
   -1.6515   -2.6671    0.2932 H   0  0  0  0  0  0  0  0  0  0  0  0
    0.1126   -2.6954    0.2922 H   0  0  0  0  0  0  0  0  0  0  0  0
   -0.7607   -2.1382   -1.1343 H   0  0  0  0  0  0  0  0  0  0  0  0
   -3.6549   -0.8993    0.6536 H   0  0  0  0  0  0  0  0  0  0  0  0
   -5.2051    0.6823   -0.4443 H   0  0  0  0  0  0  0  0  0  0  0  0
   -4.3367    2.5581   -1.7654 H   0  0  0  0  0  0  0  0  0  0  0  0
   -1.8960    2.8844   -2.0127 H   0  0  0  0  0  0  0  0  0  0  0  0
    4.4119    1.8222   -1.2984 H   0  0  0  0  0  0  0  0  0  0  0  0
    5.7429    0.1220   -0.1074 H   0  0  0  0  0  0  0  0  0  0  0  0
    4.6268   -1.6712    1.1524 H   0  0  0  0  0  0  0  0  0  0  0  0
    2.1719   -1.7888    1.2394 H   0  0  0  0  0  0  0  0  0  0  0  0
  1  2  1  0  0  0  0
  2  3  1  0  0  0  0
  2  4  1  0  0  0  0
  4  5  2  0  0  0  0
  5  6  1  0  0  0  0
  6  7  2  0  0  0  0
  7  8  1  0  0  0  0
  8  9  2  0  0  0  0
  9 10  1  0  0  0  0
 10 11  1  0  0  0  0
 11 12  1  0  0  0  0
 12 13  2  0  0  0  0
 13 14  1  0  0  0  0
 14 15  2  0  0  0  0
 15 16  1  0  0  0  0
 16 17  2  0  0  0  0
 17 18  1  0  0  0  0
 18  2  1  0  0  0  0
  9  4  1  0  0  0  0
 18 10  2  0  0  0  0
 17 12  1  0  0  0  0
  1 19  1  0  0  0  0
  1 20  1  0  0  0  0
  1 21  1  0  0  0  0
  3 22  1  0  0  0  0
  3 23  1  0  0  0  0
  3 24  1  0  0  0  0
  5 25  1  0  0  0  0
  6 26  1  0  0  0  0
  7 27  1  0  0  0  0
  8 28  1  0  0  0  0
 13 29  1  0  0  0  0
 14 30  1  0  0  0  0
 15 31  1  0  0  0  0
 16 32  1  0  0  0  0
M  END
