
  xtb     03012221283D
 energy: -10.256883219387 gnorm: 0.000280548401 xtb: 6.4.1 (afa7bdf)
 51 54  0     0  0            999 V2000
    7.6896   -0.1763    2.2606 O   0  0  0  0  0  0  0  0  0  0  0  0
    6.5094    0.1406    2.4617 N   0  0  0  0  0  4  0  0  0  0  0  0
    6.0601    0.3928    3.5883 O   0  0  0  0  0  1  0  0  0  0  0  0
    5.6068    0.2167    1.3217 C   0  0  0  0  0  0  0  0  0  0  0  0
    4.2768    0.5526    1.5138 C   0  0  0  0  0  0  0  0  0  0  0  0
    3.4180    0.6201    0.4490 C   0  0  0  0  0  0  0  0  0  0  0  0
    3.8638    0.3501   -0.8503 C   0  0  0  0  0  0  0  0  0  0  0  0
    3.0108    0.4368   -1.9392 N   0  0  0  0  0  0  0  0  0  0  0  0
    1.5550    0.5188   -1.8696 C   0  0  0  0  0  0  0  0  0  0  0  0
    0.9346   -0.8178   -1.5007 C   0  0  0  0  0  0  0  0  0  0  0  0
   -0.5025   -0.7461   -1.2382 N   0  0  0  0  0  0  0  0  0  0  0  0
   -0.9037   -0.1626    0.0392 C   0  0  0  0  0  0  0  0  0  0  0  0
   -2.3901   -0.0774    0.1948 C   0  0  0  0  0  0  0  0  0  0  0  0
   -3.0678    1.1552    0.1245 C   0  0  0  0  0  0  0  0  0  0  0  0
   -2.4147    2.3849   -0.1841 C   0  0  0  0  0  0  0  0  0  0  0  0
   -3.0972    3.5564   -0.2202 C   0  0  0  0  0  0  0  0  0  0  0  0
   -4.4778    3.5924    0.0412 C   0  0  0  0  0  0  0  0  0  0  0  0
   -5.1498    2.4500    0.3211 C   0  0  0  0  0  0  0  0  0  0  0  0
   -4.4764    1.1986    0.3639 C   0  0  0  0  0  0  0  0  0  0  0  0
   -5.1673    0.0234    0.6356 C   0  0  0  0  0  0  0  0  0  0  0  0
   -4.5197   -1.2054    0.6578 C   0  0  0  0  0  0  0  0  0  0  0  0
   -5.2249   -2.4127    0.9160 C   0  0  0  0  0  0  0  0  0  0  0  0
   -4.5830   -3.6066    0.9160 C   0  0  0  0  0  0  0  0  0  0  0  0
   -3.2036   -3.6725    0.6494 C   0  0  0  0  0  0  0  0  0  0  0  0
   -2.4943   -2.5434    0.4028 C   0  0  0  0  0  0  0  0  0  0  0  0
   -3.1148   -1.2617    0.4156 C   0  0  0  0  0  0  0  0  0  0  0  0
    5.2144   -0.0024   -1.0319 C   0  0  0  0  0  0  0  0  0  0  0  0
    5.7453   -0.3271   -2.3515 N   0  0  0  0  0  4  0  0  0  0  0  0
    4.9884   -0.8108   -3.2035 O   0  0  0  0  0  0  0  0  0  0  0  0
    6.9464   -0.1132   -2.5666 O   0  0  0  0  0  1  0  0  0  0  0  0
    6.0656   -0.0557    0.0497 C   0  0  0  0  0  0  0  0  0  0  0  0
    3.9384    0.7608    2.5147 H   0  0  0  0  0  0  0  0  0  0  0  0
    2.3896    0.8863    0.6114 H   0  0  0  0  0  0  0  0  0  0  0  0
    3.3488    0.0943   -2.8407 H   0  0  0  0  0  0  0  0  0  0  0  0
    1.1584    0.8736   -2.8262 H   0  0  0  0  0  0  0  0  0  0  0  0
    1.2854    1.2874   -1.1426 H   0  0  0  0  0  0  0  0  0  0  0  0
    1.1169   -1.5483   -2.2981 H   0  0  0  0  0  0  0  0  0  0  0  0
    1.4276   -1.2289   -0.6130 H   0  0  0  0  0  0  0  0  0  0  0  0
   -0.9839   -0.2655   -2.0033 H   0  0  0  0  0  0  0  0  0  0  0  0
   -0.4342    0.8151    0.1704 H   0  0  0  0  0  0  0  0  0  0  0  0
   -0.4888   -0.7784    0.8446 H   0  0  0  0  0  0  0  0  0  0  0  0
   -1.3669    2.3874   -0.4194 H   0  0  0  0  0  0  0  0  0  0  0  0
   -2.5810    4.4726   -0.4563 H   0  0  0  0  0  0  0  0  0  0  0  0
   -5.0003    4.5340    0.0120 H   0  0  0  0  0  0  0  0  0  0  0  0
   -6.2083    2.4764    0.5145 H   0  0  0  0  0  0  0  0  0  0  0  0
   -6.2257    0.0644    0.8192 H   0  0  0  0  0  0  0  0  0  0  0  0
   -6.2824   -2.3646    1.1107 H   0  0  0  0  0  0  0  0  0  0  0  0
   -5.1299   -4.5139    1.1117 H   0  0  0  0  0  0  0  0  0  0  0  0
   -2.7126   -4.6316    0.6333 H   0  0  0  0  0  0  0  0  0  0  0  0
   -1.4507   -2.6120    0.1569 H   0  0  0  0  0  0  0  0  0  0  0  0
    7.1026   -0.3073   -0.0993 H   0  0  0  0  0  0  0  0  0  0  0  0
  1  2  2  0  0  0  0
  2  3  1  0  0  0  0
  2  4  1  0  0  0  0
  4  5  2  0  0  0  0
  5  6  1  0  0  0  0
  6  7  2  0  0  0  0
  7  8  1  0  0  0  0
  8  9  1  0  0  0  0
  9 10  1  0  0  0  0
 10 11  1  0  0  0  0
 11 12  1  0  0  0  0
 12 13  1  0  0  0  0
 13 14  1  0  0  0  0
 14 15  2  0  0  0  0
 15 16  1  0  0  0  0
 16 17  2  0  0  0  0
 17 18  1  0  0  0  0
 18 19  2  0  0  0  0
 19 20  1  0  0  0  0
 20 21  2  0  0  0  0
 21 22  1  0  0  0  0
 22 23  2  0  0  0  0
 23 24  1  0  0  0  0
 24 25  2  0  0  0  0
 25 26  1  0  0  0  0
  7 27  1  0  0  0  0
 27 28  1  0  0  0  0
 28 29  2  0  0  0  0
 28 30  1  0  0  0  0
 27 31  2  0  0  0  0
 31  4  1  0  0  0  0
 26 13  2  0  0  0  0
 19 14  1  0  0  0  0
 26 21  1  0  0  0  0
  5 32  1  0  0  0  0
  6 33  1  0  0  0  0
  8 34  1  0  0  0  0
  9 35  1  0  0  0  0
  9 36  1  0  0  0  0
 10 37  1  0  0  0  0
 10 38  1  0  0  0  0
 11 39  1  0  0  0  0
 12 40  1  0  0  0  0
 12 41  1  0  0  0  0
 15 42  1  0  0  0  0
 16 43  1  0  0  0  0
 17 44  1  0  0  0  0
 18 45  1  0  0  0  0
 20 46  1  0  0  0  0
 22 47  1  0  0  0  0
 23 48  1  0  0  0  0
 24 49  1  0  0  0  0
 25 50  1  0  0  0  0
 31 51  1  0  0  0  0
M  CHG  1   2   1
M  CHG  1   3  -1
M  CHG  1  28   1
M  CHG  1  30  -1
M  END
