
  xtb     03012221213D
 energy: -8.928024140031 gnorm: 0.000083098460 xtb: 6.4.1 (afa7bdf)
 48 50  0     0  0            999 V2000
    6.0734   -1.2938    0.7554 C   0  0  0  0  0  0  0  0  0  0  0  0
    5.6078   -0.8810   -0.6245 C   0  0  0  0  0  0  0  0  0  0  0  0
    4.6951    0.2793   -0.5901 N   0  0  0  0  0  0  0  0  0  0  0  0
    5.3420    1.6066   -0.6236 C   0  0  0  0  0  0  0  0  0  0  0  0
    5.2527    2.3259    0.7064 C   0  0  0  0  0  0  0  0  0  0  0  0
    3.3015    0.1299   -0.4544 C   0  0  0  0  0  0  0  0  0  0  0  0
    2.7320   -1.1074   -0.1327 C   0  0  0  0  0  0  0  0  0  0  0  0
    1.3751   -1.2515   -0.0002 C   0  0  0  0  0  0  0  0  0  0  0  0
    0.5130   -0.1689   -0.1876 C   0  0  0  0  0  0  0  0  0  0  0  0
   -0.9267   -0.3019   -0.0645 C   0  0  0  0  0  0  0  0  0  0  0  0
   -1.6225   -1.4055    0.3481 C   0  0  0  0  0  0  0  0  0  0  0  0
   -3.0386   -1.2374    0.3597 C   0  0  0  0  0  0  0  0  0  0  0  0
   -3.4461    0.0170   -0.0540 C   0  0  0  0  0  0  0  0  0  0  0  0
   -2.0552    0.9755   -0.4414 S   0  0  0  0  0  0  0  0  0  0  0  0
   -4.8099    0.3743   -0.1207 C   0  0  0  0  0  0  0  0  0  0  0  0
   -5.2295    1.7212   -0.5773 C   0  0  0  0  0  0  0  0  0  0  0  0
   -4.4066    2.5681   -0.8732 O   0  0  0  0  0  0  0  0  0  0  0  0
   -6.5800    1.9310   -0.6404 O   0  0  0  0  0  0  0  0  0  0  0  0
   -6.8310    3.2227   -1.0885 C   0  0  0  0  0  0  0  0  0  0  0  0
   -5.7368   -0.5579    0.2406 C   0  0  0  0  0  0  0  0  0  0  0  0
   -5.3623   -1.8694    0.6812 C   0  0  0  0  0  0  0  0  0  0  0  0
   -6.2132   -2.6980    1.0069 O   0  0  0  0  0  0  0  0  0  0  0  0
   -4.0034   -2.1876    0.7322 N   0  0  0  0  0  0  0  0  0  0  0  0
   -3.6255   -3.5133    1.1786 C   0  0  0  0  0  0  0  0  0  0  0  0
    1.0803    1.0642   -0.5120 C   0  0  0  0  0  0  0  0  0  0  0  0
    2.4363    1.2139   -0.6400 C   0  0  0  0  0  0  0  0  0  0  0  0
    5.2274   -1.5125    1.4079 H   0  0  0  0  0  0  0  0  0  0  0  0
    6.6446   -0.4959    1.2314 H   0  0  0  0  0  0  0  0  0  0  0  0
    6.7088   -2.1813    0.7258 H   0  0  0  0  0  0  0  0  0  0  0  0
    6.4606   -0.6333   -1.2646 H   0  0  0  0  0  0  0  0  0  0  0  0
    5.1005   -1.7038   -1.1375 H   0  0  0  0  0  0  0  0  0  0  0  0
    4.8868    2.1924   -1.4277 H   0  0  0  0  0  0  0  0  0  0  0  0
    6.3886    1.4790   -0.9174 H   0  0  0  0  0  0  0  0  0  0  0  0
    5.7401    1.7519    1.4953 H   0  0  0  0  0  0  0  0  0  0  0  0
    5.7240    3.3103    0.6737 H   0  0  0  0  0  0  0  0  0  0  0  0
    4.2156    2.4657    1.0128 H   0  0  0  0  0  0  0  0  0  0  0  0
    3.3686   -1.9582    0.0266 H   0  0  0  0  0  0  0  0  0  0  0  0
    0.9633   -2.2156    0.2454 H   0  0  0  0  0  0  0  0  0  0  0  0
   -1.1527   -2.3273    0.6453 H   0  0  0  0  0  0  0  0  0  0  0  0
   -7.9099    3.3814   -1.1394 H   0  0  0  0  0  0  0  0  0  0  0  0
   -6.3780    3.9322   -0.3924 H   0  0  0  0  0  0  0  0  0  0  0  0
   -6.3851    3.3458   -2.0781 H   0  0  0  0  0  0  0  0  0  0  0  0
   -6.7819   -0.3125    0.1961 H   0  0  0  0  0  0  0  0  0  0  0  0
   -3.0064   -3.4455    2.0701 H   0  0  0  0  0  0  0  0  0  0  0  0
   -3.0784   -4.0306    0.3939 H   0  0  0  0  0  0  0  0  0  0  0  0
   -4.5238   -4.0808    1.4153 H   0  0  0  0  0  0  0  0  0  0  0  0
    0.4273    1.9075   -0.6642 H   0  0  0  0  0  0  0  0  0  0  0  0
    2.8383    2.1751   -0.9028 H   0  0  0  0  0  0  0  0  0  0  0  0
  1  2  1  0  0  0  0
  2  3  1  0  0  0  0
  3  4  1  0  0  0  0
  4  5  1  0  0  0  0
  3  6  1  0  0  0  0
  6  7  2  0  0  0  0
  7  8  1  0  0  0  0
  8  9  2  0  0  0  0
  9 10  1  0  0  0  0
 10 11  2  0  0  0  0
 11 12  1  0  0  0  0
 12 13  2  0  0  0  0
 13 14  1  0  0  0  0
 13 15  1  0  0  0  0
 15 16  1  0  0  0  0
 16 17  2  0  0  0  0
 16 18  1  0  0  0  0
 18 19  1  0  0  0  0
 15 20  2  0  0  0  0
 20 21  1  0  0  0  0
 21 22  2  0  0  0  0
 21 23  1  0  0  0  0
 23 24  1  0  0  0  0
  9 25  1  0  0  0  0
 25 26  2  0  0  0  0
 26  6  1  0  0  0  0
 14 10  1  0  0  0  0
 23 12  1  0  0  0  0
  1 27  1  0  0  0  0
  1 28  1  0  0  0  0
  1 29  1  0  0  0  0
  2 30  1  0  0  0  0
  2 31  1  0  0  0  0
  4 32  1  0  0  0  0
  4 33  1  0  0  0  0
  5 34  1  0  0  0  0
  5 35  1  0  0  0  0
  5 36  1  0  0  0  0
  7 37  1  0  0  0  0
  8 38  1  0  0  0  0
 11 39  1  0  0  0  0
 19 40  1  0  0  0  0
 19 41  1  0  0  0  0
 19 42  1  0  0  0  0
 20 43  1  0  0  0  0
 24 44  1  0  0  0  0
 24 45  1  0  0  0  0
 24 46  1  0  0  0  0
 25 47  1  0  0  0  0
 26 48  1  0  0  0  0
M  END
