
  xtb     03012221263D
 energy: -6.314037534759 gnorm: 0.000249573841 xtb: 6.4.1 (afa7bdf)
 31 33  0     0  0            999 V2000
   -6.3454    0.1858   -0.1071 C   0  0  0  0  0  0  0  0  0  0  0  0
   -4.8587    0.1739   -0.1756 C   0  0  0  0  0  0  0  0  0  0  0  0
   -4.1023    0.0228    0.9772 C   0  0  0  0  0  0  0  0  0  0  0  0
   -2.7266   -0.0091    0.9232 C   0  0  0  0  0  0  0  0  0  0  0  0
   -2.0562    0.1050   -0.2954 C   0  0  0  0  0  0  0  0  0  0  0  0
   -0.6085    0.0767   -0.3964 C   0  0  0  0  0  0  0  0  0  0  0  0
    0.2522   -0.0595    0.6272 C   0  0  0  0  0  0  0  0  0  0  0  0
    1.6699   -0.0795    0.4575 C   0  0  0  0  0  0  0  0  0  0  0  0
    2.5064   -0.2133    1.4503 N   0  0  0  0  0  0  0  0  0  0  0  0
    3.8210   -0.2015    1.0203 C   0  0  0  0  0  0  0  0  0  0  0  0
    4.9485   -0.3245    1.8447 C   0  0  0  0  0  0  0  0  0  0  0  0
    6.2011   -0.2963    1.2858 C   0  0  0  0  0  0  0  0  0  0  0  0
    6.3655   -0.1470   -0.0906 C   0  0  0  0  0  0  0  0  0  0  0  0
    5.2732   -0.0250   -0.9150 C   0  0  0  0  0  0  0  0  0  0  0  0
    4.0009   -0.0521   -0.3614 C   0  0  0  0  0  0  0  0  0  0  0  0
    2.4467    0.0755   -1.1236 S   0  0  0  0  0  0  0  0  0  0  0  0
   -2.8232    0.2489   -1.4519 C   0  0  0  0  0  0  0  0  0  0  0  0
   -4.1983    0.2799   -1.3911 C   0  0  0  0  0  0  0  0  0  0  0  0
   -6.7811    0.6084   -1.0140 H   0  0  0  0  0  0  0  0  0  0  0  0
   -6.6930    0.7837    0.7370 H   0  0  0  0  0  0  0  0  0  0  0  0
   -6.7358   -0.8261    0.0129 H   0  0  0  0  0  0  0  0  0  0  0  0
   -4.6070   -0.0710    1.9237 H   0  0  0  0  0  0  0  0  0  0  0  0
   -2.1646   -0.1247    1.8324 H   0  0  0  0  0  0  0  0  0  0  0  0
   -0.1929    0.1738   -1.3833 H   0  0  0  0  0  0  0  0  0  0  0  0
   -0.1158   -0.1603    1.6309 H   0  0  0  0  0  0  0  0  0  0  0  0
    4.8109   -0.4392    2.9050 H   0  0  0  0  0  0  0  0  0  0  0  0
    7.0692   -0.3907    1.9175 H   0  0  0  0  0  0  0  0  0  0  0  0
    7.3577   -0.1272   -0.5104 H   0  0  0  0  0  0  0  0  0  0  0  0
    5.3860    0.0909   -1.9791 H   0  0  0  0  0  0  0  0  0  0  0  0
   -2.3250    0.3352   -2.4023 H   0  0  0  0  0  0  0  0  0  0  0  0
   -4.7750    0.3867   -2.2939 H   0  0  0  0  0  0  0  0  0  0  0  0
  1  2  1  0  0  0  0
  2  3  2  0  0  0  0
  3  4  1  0  0  0  0
  4  5  2  0  0  0  0
  5  6  1  0  0  0  0
  6  7  2  0  0  0  0
  7  8  1  0  0  0  0
  8  9  2  0  0  0  0
  9 10  1  0  0  0  0
 10 11  2  0  0  0  0
 11 12  1  0  0  0  0
 12 13  2  0  0  0  0
 13 14  1  0  0  0  0
 14 15  2  0  0  0  0
 15 16  1  0  0  0  0
  5 17  1  0  0  0  0
 17 18  2  0  0  0  0
 18  2  1  0  0  0  0
 16  8  1  0  0  0  0
 15 10  1  0  0  0  0
  1 19  1  0  0  0  0
  1 20  1  0  0  0  0
  1 21  1  0  0  0  0
  3 22  1  0  0  0  0
  4 23  1  0  0  0  0
  6 24  1  0  0  0  0
  7 25  1  0  0  0  0
 11 26  1  0  0  0  0
 12 27  1  0  0  0  0
 13 28  1  0  0  0  0
 14 29  1  0  0  0  0
 17 30  1  0  0  0  0
 18 31  1  0  0  0  0
M  END
