
  xtb     03012221273D
 energy: -8.046193728640 gnorm: 0.000359275637 xtb: 6.4.1 (afa7bdf)
 36 37  0     0  0            999 V2000
   -1.9364   -4.6001    2.4702 N   0  0  0  0  0  0  0  0  0  0  0  0
   -1.5187   -3.8220    1.7125 C   0  0  0  0  0  0  0  0  0  0  0  0
   -1.0419   -2.8772    0.8037 C   0  0  0  0  0  0  0  0  0  0  0  0
   -1.8723   -1.8790    0.4067 N   0  0  0  0  0  0  0  0  0  0  0  0
   -2.7571   -1.0780   -0.0015 C   0  0  0  0  0  0  0  0  0  0  0  0
   -2.7259    0.3626    0.0568 C   0  0  0  0  0  0  0  0  0  0  0  0
   -3.8556    1.0738   -0.3474 C   0  0  0  0  0  0  0  0  0  0  0  0
   -3.8917    2.4469   -0.3078 C   0  0  0  0  0  0  0  0  0  0  0  0
   -2.7937    3.1586    0.1383 C   0  0  0  0  0  0  0  0  0  0  0  0
   -1.6645    2.4931    0.5399 C   0  0  0  0  0  0  0  0  0  0  0  0
   -1.5996    1.0985    0.5082 C   0  0  0  0  0  0  0  0  0  0  0  0
   -0.4437    0.4866    0.9102 O   0  0  0  0  0  0  0  0  0  0  0  0
    0.2260   -2.9284    0.3046 C   0  0  0  0  0  0  0  0  0  0  0  0
    1.1314   -3.9216    0.6818 C   0  0  0  0  0  0  0  0  0  0  0  0
    1.8935   -4.7471    0.9847 N   0  0  0  0  0  0  0  0  0  0  0  0
    0.6341   -1.9573   -0.5653 N   0  0  0  0  0  0  0  0  0  0  0  0
    1.0383   -1.0524   -1.3374 C   0  0  0  0  0  0  0  0  0  0  0  0
    2.0592   -0.0999   -1.0029 C   0  0  0  0  0  0  0  0  0  0  0  0
    2.4595    0.8470   -1.9435 C   0  0  0  0  0  0  0  0  0  0  0  0
    3.4268    1.7763   -1.6475 C   0  0  0  0  0  0  0  0  0  0  0  0
    4.0203    1.7859   -0.3988 C   0  0  0  0  0  0  0  0  0  0  0  0
    3.6453    0.8692    0.5501 C   0  0  0  0  0  0  0  0  0  0  0  0
    2.6634   -0.0887    0.2790 C   0  0  0  0  0  0  0  0  0  0  0  0
    2.2918   -0.9955    1.2380 O   0  0  0  0  0  0  0  0  0  0  0  0
   -3.6495   -1.5341   -0.3958 H   0  0  0  0  0  0  0  0  0  0  0  0
   -4.7174    0.5282   -0.6916 H   0  0  0  0  0  0  0  0  0  0  0  0
   -4.7794    2.9712   -0.6224 H   0  0  0  0  0  0  0  0  0  0  0  0
   -2.8261    4.2354    0.1709 H   0  0  0  0  0  0  0  0  0  0  0  0
   -0.8009    3.0311    0.8893 H   0  0  0  0  0  0  0  0  0  0  0  0
   -0.5897   -0.4805    0.8074 H   0  0  0  0  0  0  0  0  0  0  0  0
    0.5645   -0.9818   -2.3013 H   0  0  0  0  0  0  0  0  0  0  0  0
    1.9987    0.8430   -2.9162 H   0  0  0  0  0  0  0  0  0  0  0  0
    3.7246    2.4990   -2.3896 H   0  0  0  0  0  0  0  0  0  0  0  0
    4.7797    2.5162   -0.1709 H   0  0  0  0  0  0  0  0  0  0  0  0
    4.1063    0.8795    1.5220 H   0  0  0  0  0  0  0  0  0  0  0  0
    2.8004   -0.8592    2.0654 H   0  0  0  0  0  0  0  0  0  0  0  0
  1  2  3  0  0  0  0
  2  3  1  0  0  0  0
  3  4  1  0  0  0  0
  4  5  2  0  0  0  0
  5  6  1  0  0  0  0
  6  7  2  0  0  0  0
  7  8  1  0  0  0  0
  8  9  2  0  0  0  0
  9 10  1  0  0  0  0
 10 11  2  0  0  0  0
 11 12  1  0  0  0  0
  3 13  2  0  0  0  0
 13 14  1  0  0  0  0
 14 15  3  0  0  0  0
 13 16  1  0  0  0  0
 16 17  2  0  0  0  0
 17 18  1  0  0  0  0
 18 19  2  0  0  0  0
 19 20  1  0  0  0  0
 20 21  2  0  0  0  0
 21 22  1  0  0  0  0
 22 23  2  0  0  0  0
 23 24  1  0  0  0  0
 11  6  1  0  0  0  0
 23 18  1  0  0  0  0
  5 25  1  0  0  0  0
  7 26  1  0  0  0  0
  8 27  1  0  0  0  0
  9 28  1  0  0  0  0
 10 29  1  0  0  0  0
 12 30  1  0  0  0  0
 17 31  1  0  0  0  0
 19 32  1  0  0  0  0
 20 33  1  0  0  0  0
 21 34  1  0  0  0  0
 22 35  1  0  0  0  0
 24 36  1  0  0  0  0
M  END
