
  xtb     03012221313D
 energy: -6.022696648372 gnorm: 0.000431044641 xtb: 6.4.1 (afa7bdf)
 28 30  0     0  0            999 V2000
   -5.0202   -0.5706   -0.3060 N   0  0  0  0  0  0  0  0  0  0  0  0
   -3.7403   -0.1413   -0.0327 C   0  0  0  0  0  0  0  0  0  0  0  0
   -3.5121    1.0065    0.7396 C   0  0  0  0  0  0  0  0  0  0  0  0
   -2.2352    1.4255    1.0049 C   0  0  0  0  0  0  0  0  0  0  0  0
   -1.1369    0.7258    0.5156 C   0  0  0  0  0  0  0  0  0  0  0  0
   -1.3496   -0.4275   -0.2598 C   0  0  0  0  0  0  0  0  0  0  0  0
   -2.6378   -0.8424   -0.5211 C   0  0  0  0  0  0  0  0  0  0  0  0
   -0.2185   -1.1991   -0.7972 C   0  0  0  0  0  0  0  0  0  0  0  0
   -0.4130   -2.2000   -1.4634 O   0  0  0  0  0  0  0  0  0  0  0  0
    1.1370   -0.7306   -0.5091 C   0  0  0  0  0  0  0  0  0  0  0  0
    2.2355   -1.4272   -1.0026 C   0  0  0  0  0  0  0  0  0  0  0  0
    3.5121   -1.0030   -0.7449 C   0  0  0  0  0  0  0  0  0  0  0  0
    3.7402    0.1470    0.0243 C   0  0  0  0  0  0  0  0  0  0  0  0
    5.0197    0.5824    0.2893 N   0  0  0  0  0  0  0  0  0  0  0  0
    2.6376    0.8437    0.5190 C   0  0  0  0  0  0  0  0  0  0  0  0
    1.3496    0.4238    0.2649 C   0  0  0  0  0  0  0  0  0  0  0  0
    0.2188    1.1911    0.8086 C   0  0  0  0  0  0  0  0  0  0  0  0
    0.4135    2.1865    1.4830 O   0  0  0  0  0  0  0  0  0  0  0  0
   -5.8507   -0.0979    0.0225 H   0  0  0  0  0  0  0  0  0  0  0  0
   -5.2260   -1.3934   -0.8553 H   0  0  0  0  0  0  0  0  0  0  0  0
   -4.3559    1.5521    1.1213 H   0  0  0  0  0  0  0  0  0  0  0  0
   -2.0537    2.3058    1.5981 H   0  0  0  0  0  0  0  0  0  0  0  0
   -2.7835   -1.7255   -1.1145 H   0  0  0  0  0  0  0  0  0  0  0  0
    2.0542   -2.3096   -1.5929 H   0  0  0  0  0  0  0  0  0  0  0  0
    4.3560   -1.5461   -1.1301 H   0  0  0  0  0  0  0  0  0  0  0  0
    5.2255    1.3947    0.8540 H   0  0  0  0  0  0  0  0  0  0  0  0
    5.8504    0.1020   -0.0273 H   0  0  0  0  0  0  0  0  0  0  0  0
    2.7831    1.7271    1.1120 H   0  0  0  0  0  0  0  0  0  0  0  0
  1  2  1  0  0  0  0
  2  3  2  0  0  0  0
  3  4  1  0  0  0  0
  4  5  2  0  0  0  0
  5  6  1  0  0  0  0
  6  7  2  0  0  0  0
  6  8  1  0  0  0  0
  8  9  2  0  0  0  0
  8 10  1  0  0  0  0
 10 11  2  0  0  0  0
 11 12  1  0  0  0  0
 12 13  2  0  0  0  0
 13 14  1  0  0  0  0
 13 15  1  0  0  0  0
 15 16  2  0  0  0  0
 16 17  1  0  0  0  0
 17 18  2  0  0  0  0
  7  2  1  0  0  0  0
 16 10  1  0  0  0  0
 17  5  1  0  0  0  0
  1 19  1  0  0  0  0
  1 20  1  0  0  0  0
  3 21  1  0  0  0  0
  4 22  1  0  0  0  0
  7 23  1  0  0  0  0
 11 24  1  0  0  0  0
 12 25  1  0  0  0  0
 14 26  1  0  0  0  0
 14 27  1  0  0  0  0
 15 28  1  0  0  0  0
M  END
