
  xtb     03012221253D
 energy: -5.942948638798 gnorm: 0.000401258656 xtb: 6.4.1 (afa7bdf)
 31 33  0     0  0            999 V2000
   -7.4927    1.2063   -0.5830 C   0  0  0  0  0  0  0  0  0  0  0  0
   -6.1938    1.6985   -0.8101 O   0  0  0  0  0  0  0  0  0  0  0  0
   -5.1931    0.8590   -0.3598 C   0  0  0  0  0  0  0  0  0  0  0  0
   -5.3032   -0.3555    0.2703 C   0  0  0  0  0  0  0  0  0  0  0  0
   -4.0671   -0.9542    0.5975 C   0  0  0  0  0  0  0  0  0  0  0  0
   -2.9753   -0.2190    0.2293 C   0  0  0  0  0  0  0  0  0  0  0  0
   -1.6009   -0.5752    0.4310 C   0  0  0  0  0  0  0  0  0  0  0  0
   -1.1352   -1.7129    1.0406 C   0  0  0  0  0  0  0  0  0  0  0  0
    0.2701   -1.8031    1.0970 C   0  0  0  0  0  0  0  0  0  0  0  0
    0.9107   -0.7361    0.5322 C   0  0  0  0  0  0  0  0  0  0  0  0
    2.2612   -0.5747    0.4521 N   0  0  0  0  0  0  0  0  0  0  0  0
    2.7418    0.4420   -0.0800 N   0  0  0  0  0  0  0  0  0  0  0  0
    4.0932    0.5943   -0.1621 C   0  0  0  0  0  0  0  0  0  0  0  0
    4.6984    1.6222   -0.6993 N   0  0  0  0  0  0  0  0  0  0  0  0
    6.0537    1.4990   -0.6380 C   0  0  0  0  0  0  0  0  0  0  0  0
    6.5374    0.3728   -0.0540 C   0  0  0  0  0  0  0  0  0  0  0  0
    7.9608    0.0342    0.1183 C   0  0  0  0  0  0  0  0  0  0  0  0
    5.2081   -0.6068    0.4611 S   0  0  0  0  0  0  0  0  0  0  0  0
   -0.2515    0.4048   -0.0802 S   0  0  0  0  0  0  0  0  0  0  0  0
   -3.5063    1.2594   -0.5455 S   0  0  0  0  0  0  0  0  0  0  0  0
   -7.6238    0.2578   -1.1052 H   0  0  0  0  0  0  0  0  0  0  0  0
   -7.6568    1.0783    0.4876 H   0  0  0  0  0  0  0  0  0  0  0  0
   -8.2093    1.9309   -0.9712 H   0  0  0  0  0  0  0  0  0  0  0  0
   -6.2516   -0.8155    0.4970 H   0  0  0  0  0  0  0  0  0  0  0  0
   -3.9912   -1.9085    1.0940 H   0  0  0  0  0  0  0  0  0  0  0  0
   -1.7875   -2.4726    1.4412 H   0  0  0  0  0  0  0  0  0  0  0  0
    0.8029   -2.6287    1.5406 H   0  0  0  0  0  0  0  0  0  0  0  0
    6.6943    2.2723   -1.0399 H   0  0  0  0  0  0  0  0  0  0  0  0
    8.0715   -0.9463    0.5825 H   0  0  0  0  0  0  0  0  0  0  0  0
    8.4604    0.7663    0.7539 H   0  0  0  0  0  0  0  0  0  0  0  0
    8.4748    0.0115   -0.8433 H   0  0  0  0  0  0  0  0  0  0  0  0
  1  2  1  0  0  0  0
  2  3  1  0  0  0  0
  3  4  2  0  0  0  0
  4  5  1  0  0  0  0
  5  6  2  0  0  0  0
  6  7  1  0  0  0  0
  7  8  2  0  0  0  0
  8  9  1  0  0  0  0
  9 10  2  0  0  0  0
 10 11  1  0  0  0  0
 11 12  2  0  0  0  0
 12 13  1  0  0  0  0
 13 14  2  0  0  0  0
 14 15  1  0  0  0  0
 15 16  2  0  0  0  0
 16 17  1  0  0  0  0
 16 18  1  0  0  0  0
 10 19  1  0  0  0  0
  6 20  1  0  0  0  0
 20  3  1  0  0  0  0
 19  7  1  0  0  0  0
 18 13  1  0  0  0  0
  1 21  1  0  0  0  0
  1 22  1  0  0  0  0
  1 23  1  0  0  0  0
  4 24  1  0  0  0  0
  5 25  1  0  0  0  0
  8 26  1  0  0  0  0
  9 27  1  0  0  0  0
 15 28  1  0  0  0  0
 17 29  1  0  0  0  0
 17 30  1  0  0  0  0
 17 31  1  0  0  0  0
M  END
