
  xtb     03012221323D
 energy: -21.573144153371 gnorm: 0.000252827088 xtb: 6.4.1 (afa7bdf)
122125  0     0  0            999 V2000
   10.0908    4.9665   -0.1351 C   0  0  0  0  0  0  0  0  0  0  0  0
    9.9982    3.6092    0.5435 C   0  0  0  0  0  0  0  0  0  0  0  0
   11.3584    3.0526    0.9759 C   0  0  0  0  0  0  0  0  0  0  0  0
   12.2924    2.7522   -0.1982 C   0  0  0  0  0  0  0  0  0  0  0  0
   13.5630    1.9990    0.2009 C   0  0  0  0  0  0  0  0  0  0  0  0
   13.2907    0.5776    0.6828 C   0  0  0  0  0  0  0  0  0  0  0  0
   12.5167   -0.2048   -0.3050 N   0  0  0  0  0  0  0  0  0  0  0  0
   13.2776   -0.6477   -1.4864 C   0  0  0  0  0  0  0  0  0  0  0  0
   13.0224   -2.1047   -1.8607 C   0  0  0  0  0  0  0  0  0  0  0  0
   13.4885   -3.1005   -0.7954 C   0  0  0  0  0  0  0  0  0  0  0  0
   12.6601   -3.0560    0.4876 C   0  0  0  0  0  0  0  0  0  0  0  0
   13.0930   -4.0896    1.5267 C   0  0  0  0  0  0  0  0  0  0  0  0
   12.2722   -4.0084    2.8041 C   0  0  0  0  0  0  0  0  0  0  0  0
   11.1007   -0.2456   -0.2735 C   0  0  0  0  0  0  0  0  0  0  0  0
   10.3495   -0.2247   -1.4533 C   0  0  0  0  0  0  0  0  0  0  0  0
    8.9762   -0.2232   -1.4187 C   0  0  0  0  0  0  0  0  0  0  0  0
    8.2902   -0.2499   -0.2064 C   0  0  0  0  0  0  0  0  0  0  0  0
    6.8836   -0.2465   -0.1734 C   0  0  0  0  0  0  0  0  0  0  0  0
    5.6610   -0.2536   -0.1448 C   0  0  0  0  0  0  0  0  0  0  0  0
    4.2532   -0.2780   -0.1145 C   0  0  0  0  0  0  0  0  0  0  0  0
    3.5182    0.8967    0.0194 C   0  0  0  0  0  0  0  0  0  0  0  0
    2.1425    0.8699    0.0498 C   0  0  0  0  0  0  0  0  0  0  0  0
    1.4471   -0.3352   -0.0538 C   0  0  0  0  0  0  0  0  0  0  0  0
   -0.0314   -0.3686   -0.0203 C   0  0  0  0  0  0  0  0  0  0  0  0
   -0.7459   -1.2570   -0.8244 C   0  0  0  0  0  0  0  0  0  0  0  0
   -2.1208   -1.2961   -0.7856 C   0  0  0  0  0  0  0  0  0  0  0  0
   -2.8363   -0.4503    0.0572 C   0  0  0  0  0  0  0  0  0  0  0  0
   -4.2430   -0.5020    0.1017 C   0  0  0  0  0  0  0  0  0  0  0  0
   -5.4636   -0.5660    0.1427 C   0  0  0  0  0  0  0  0  0  0  0  0
   -6.8667   -0.6596    0.1926 C   0  0  0  0  0  0  0  0  0  0  0  0
   -7.6648    0.0330   -0.7142 C   0  0  0  0  0  0  0  0  0  0  0  0
   -9.0348   -0.0641   -0.6679 C   0  0  0  0  0  0  0  0  0  0  0  0
   -9.6754   -0.8595    0.2896 C   0  0  0  0  0  0  0  0  0  0  0  0
  -11.0834   -0.9571    0.3457 N   0  0  0  0  0  0  0  0  0  0  0  0
  -11.9192    0.0224   -0.3741 C   0  0  0  0  0  0  0  0  0  0  0  0
  -11.8942    1.3911    0.2949 C   0  0  0  0  0  0  0  0  0  0  0  0
  -12.8006    2.4239   -0.3797 C   0  0  0  0  0  0  0  0  0  0  0  0
  -12.4033    2.7595   -1.8202 C   0  0  0  0  0  0  0  0  0  0  0  0
  -11.0396    3.4431   -1.9367 C   0  0  0  0  0  0  0  0  0  0  0  0
  -10.6777    3.7882   -3.3725 C   0  0  0  0  0  0  0  0  0  0  0  0
  -11.7119   -1.9271    1.2766 C   0  0  0  0  0  0  0  0  0  0  0  0
  -13.2165   -2.1868    1.1322 C   0  0  0  0  0  0  0  0  0  0  0  0
  -14.0993   -1.1396    1.8170 C   0  0  0  0  0  0  0  0  0  0  0  0
  -15.5869   -1.5062    1.8217 C   0  0  0  0  0  0  0  0  0  0  0  0
  -16.2209   -1.6005    0.4296 C   0  0  0  0  0  0  0  0  0  0  0  0
  -16.2422   -0.2757   -0.3165 C   0  0  0  0  0  0  0  0  0  0  0  0
   -8.8650   -1.5519    1.1972 C   0  0  0  0  0  0  0  0  0  0  0  0
   -7.4951   -1.4534    1.1488 C   0  0  0  0  0  0  0  0  0  0  0  0
   -2.1261    0.4397    0.8582 C   0  0  0  0  0  0  0  0  0  0  0  0
   -0.7510    0.4809    0.8207 C   0  0  0  0  0  0  0  0  0  0  0  0
    2.1861   -1.5109   -0.1881 C   0  0  0  0  0  0  0  0  0  0  0  0
    3.5614   -1.4815   -0.2175 C   0  0  0  0  0  0  0  0  0  0  0  0
    9.0327   -0.2867    0.9716 C   0  0  0  0  0  0  0  0  0  0  0  0
   10.4061   -0.2863    0.9406 C   0  0  0  0  0  0  0  0  0  0  0  0
   10.6718    4.9150   -1.0576 H   0  0  0  0  0  0  0  0  0  0  0  0
    9.1059    5.3622   -0.3953 H   0  0  0  0  0  0  0  0  0  0  0  0
   10.5774    5.6988    0.5124 H   0  0  0  0  0  0  0  0  0  0  0  0
    9.3330    3.6782    1.4160 H   0  0  0  0  0  0  0  0  0  0  0  0
    9.5113    2.8883   -0.1273 H   0  0  0  0  0  0  0  0  0  0  0  0
   11.2087    2.1400    1.5641 H   0  0  0  0  0  0  0  0  0  0  0  0
   11.8469    3.7548    1.6624 H   0  0  0  0  0  0  0  0  0  0  0  0
   11.7500    2.1666   -0.9498 H   0  0  0  0  0  0  0  0  0  0  0  0
   12.5545    3.6905   -0.7039 H   0  0  0  0  0  0  0  0  0  0  0  0
   14.2462    1.9560   -0.6575 H   0  0  0  0  0  0  0  0  0  0  0  0
   14.0997    2.5657    0.9726 H   0  0  0  0  0  0  0  0  0  0  0  0
   14.2244    0.0458    0.8925 H   0  0  0  0  0  0  0  0  0  0  0  0
   12.7484    0.5943    1.6298 H   0  0  0  0  0  0  0  0  0  0  0  0
   13.0389    0.0252   -2.3159 H   0  0  0  0  0  0  0  0  0  0  0  0
   14.3434   -0.5042   -1.2868 H   0  0  0  0  0  0  0  0  0  0  0  0
   13.5147   -2.3279   -2.8175 H   0  0  0  0  0  0  0  0  0  0  0  0
   11.9522   -2.2538   -2.0443 H   0  0  0  0  0  0  0  0  0  0  0  0
   13.4599   -4.1216   -1.1989 H   0  0  0  0  0  0  0  0  0  0  0  0
   14.5434   -2.9163   -0.5576 H   0  0  0  0  0  0  0  0  0  0  0  0
   11.5994   -3.1971    0.2464 H   0  0  0  0  0  0  0  0  0  0  0  0
   12.7194   -2.0561    0.9298 H   0  0  0  0  0  0  0  0  0  0  0  0
   13.0209   -5.0956    1.0920 H   0  0  0  0  0  0  0  0  0  0  0  0
   14.1592   -3.9532    1.7522 H   0  0  0  0  0  0  0  0  0  0  0  0
   12.5857   -4.7499    3.5428 H   0  0  0  0  0  0  0  0  0  0  0  0
   11.2116   -4.1728    2.6028 H   0  0  0  0  0  0  0  0  0  0  0  0
   12.3612   -3.0240    3.2683 H   0  0  0  0  0  0  0  0  0  0  0  0
   10.8577   -0.1797   -2.3999 H   0  0  0  0  0  0  0  0  0  0  0  0
    8.4101   -0.1967   -2.3343 H   0  0  0  0  0  0  0  0  0  0  0  0
    4.0448    1.8331    0.0978 H   0  0  0  0  0  0  0  0  0  0  0  0
    1.5887    1.7882    0.1392 H   0  0  0  0  0  0  0  0  0  0  0  0
   -0.2087   -1.9087   -1.4912 H   0  0  0  0  0  0  0  0  0  0  0  0
   -2.6624   -1.9866   -1.4103 H   0  0  0  0  0  0  0  0  0  0  0  0
   -7.1890    0.6472   -1.4598 H   0  0  0  0  0  0  0  0  0  0  0  0
   -9.6191    0.4724   -1.3923 H   0  0  0  0  0  0  0  0  0  0  0  0
  -12.9412   -0.3479   -0.4530 H   0  0  0  0  0  0  0  0  0  0  0  0
  -11.5740    0.0809   -1.4088 H   0  0  0  0  0  0  0  0  0  0  0  0
  -12.1743    1.2734    1.3496 H   0  0  0  0  0  0  0  0  0  0  0  0
  -10.8631    1.7605    0.3284 H   0  0  0  0  0  0  0  0  0  0  0  0
  -13.8351    2.0580   -0.3565 H   0  0  0  0  0  0  0  0  0  0  0  0
  -12.8111    3.3495    0.2109 H   0  0  0  0  0  0  0  0  0  0  0  0
  -12.4090    1.8491   -2.4306 H   0  0  0  0  0  0  0  0  0  0  0  0
  -13.1643    3.4067   -2.2761 H   0  0  0  0  0  0  0  0  0  0  0  0
  -11.0347    4.3495   -1.3165 H   0  0  0  0  0  0  0  0  0  0  0  0
  -10.2639    2.8002   -1.5025 H   0  0  0  0  0  0  0  0  0  0  0  0
  -10.6418    2.8928   -3.9965 H   0  0  0  0  0  0  0  0  0  0  0  0
   -9.7034    4.2777   -3.4447 H   0  0  0  0  0  0  0  0  0  0  0  0
  -11.4159    4.4597   -3.8160 H   0  0  0  0  0  0  0  0  0  0  0  0
  -11.4948   -1.5980    2.2967 H   0  0  0  0  0  0  0  0  0  0  0  0
  -11.1733   -2.8709    1.1391 H   0  0  0  0  0  0  0  0  0  0  0  0
  -13.4595   -3.1670    1.5652 H   0  0  0  0  0  0  0  0  0  0  0  0
  -13.4747   -2.2842    0.0720 H   0  0  0  0  0  0  0  0  0  0  0  0
  -13.7498   -1.0058    2.8496 H   0  0  0  0  0  0  0  0  0  0  0  0
  -13.9636   -0.1587    1.3519 H   0  0  0  0  0  0  0  0  0  0  0  0
  -15.7140   -2.4601    2.3503 H   0  0  0  0  0  0  0  0  0  0  0  0
  -16.1466   -0.7723    2.4164 H   0  0  0  0  0  0  0  0  0  0  0  0
  -17.2475   -1.9836    0.5206 H   0  0  0  0  0  0  0  0  0  0  0  0
  -15.6933   -2.3573   -0.1650 H   0  0  0  0  0  0  0  0  0  0  0  0
  -15.2343    0.0889   -0.5169 H   0  0  0  0  0  0  0  0  0  0  0  0
  -16.7519   -0.3561   -1.2798 H   0  0  0  0  0  0  0  0  0  0  0  0
  -16.7549    0.4954    0.2621 H   0  0  0  0  0  0  0  0  0  0  0  0
   -9.3193   -2.1608    1.9578 H   0  0  0  0  0  0  0  0  0  0  0  0
   -6.8868   -1.9919    1.8557 H   0  0  0  0  0  0  0  0  0  0  0  0
   -2.6715    1.0962    1.5152 H   0  0  0  0  0  0  0  0  0  0  0  0
   -0.2162    1.1621    1.4594 H   0  0  0  0  0  0  0  0  0  0  0  0
    1.6673   -2.4514   -0.2528 H   0  0  0  0  0  0  0  0  0  0  0  0
    4.1219   -2.3958   -0.3186 H   0  0  0  0  0  0  0  0  0  0  0  0
    8.5111   -0.3184    1.9130 H   0  0  0  0  0  0  0  0  0  0  0  0
   10.9565   -0.3489    1.8622 H   0  0  0  0  0  0  0  0  0  0  0  0
  1  2  1  0  0  0  0
  2  3  1  0  0  0  0
  3  4  1  0  0  0  0
  4  5  1  0  0  0  0
  5  6  1  0  0  0  0
  6  7  1  0  0  0  0
  7  8  1  0  0  0  0
  8  9  1  0  0  0  0
  9 10  1  0  0  0  0
 10 11  1  0  0  0  0
 11 12  1  0  0  0  0
 12 13  1  0  0  0  0
  7 14  1  0  0  0  0
 14 15  2  0  0  0  0
 15 16  1  0  0  0  0
 16 17  2  0  0  0  0
 17 18  1  0  0  0  0
 18 19  3  0  0  0  0
 19 20  1  0  0  0  0
 20 21  2  0  0  0  0
 21 22  1  0  0  0  0
 22 23  2  0  0  0  0
 23 24  1  0  0  0  0
 24 25  2  0  0  0  0
 25 26  1  0  0  0  0
 26 27  2  0  0  0  0
 27 28  1  0  0  0  0
 28 29  3  0  0  0  0
 29 30  1  0  0  0  0
 30 31  2  0  0  0  0
 31 32  1  0  0  0  0
 32 33  2  0  0  0  0
 33 34  1  0  0  0  0
 34 35  1  0  0  0  0
 35 36  1  0  0  0  0
 36 37  1  0  0  0  0
 37 38  1  0  0  0  0
 38 39  1  0  0  0  0
 39 40  1  0  0  0  0
 34 41  1  0  0  0  0
 41 42  1  0  0  0  0
 42 43  1  0  0  0  0
 43 44  1  0  0  0  0
 44 45  1  0  0  0  0
 45 46  1  0  0  0  0
 33 47  1  0  0  0  0
 47 48  2  0  0  0  0
 27 49  1  0  0  0  0
 49 50  2  0  0  0  0
 23 51  1  0  0  0  0
 51 52  2  0  0  0  0
 17 53  1  0  0  0  0
 53 54  2  0  0  0  0
 54 14  1  0  0  0  0
 52 20  1  0  0  0  0
 50 24  1  0  0  0  0
 48 30  1  0  0  0  0
  1 55  1  0  0  0  0
  1 56  1  0  0  0  0
  1 57  1  0  0  0  0
  2 58  1  0  0  0  0
  2 59  1  0  0  0  0
  3 60  1  0  0  0  0
  3 61  1  0  0  0  0
  4 62  1  0  0  0  0
  4 63  1  0  0  0  0
  5 64  1  0  0  0  0
  5 65  1  0  0  0  0
  6 66  1  0  0  0  0
  6 67  1  0  0  0  0
  8 68  1  0  0  0  0
  8 69  1  0  0  0  0
  9 70  1  0  0  0  0
  9 71  1  0  0  0  0
 10 72  1  0  0  0  0
 10 73  1  0  0  0  0
 11 74  1  0  0  0  0
 11 75  1  0  0  0  0
 12 76  1  0  0  0  0
 12 77  1  0  0  0  0
 13 78  1  0  0  0  0
 13 79  1  0  0  0  0
 13 80  1  0  0  0  0
 15 81  1  0  0  0  0
 16 82  1  0  0  0  0
 21 83  1  0  0  0  0
 22 84  1  0  0  0  0
 25 85  1  0  0  0  0
 26 86  1  0  0  0  0
 31 87  1  0  0  0  0
 32 88  1  0  0  0  0
 35 89  1  0  0  0  0
 35 90  1  0  0  0  0
 36 91  1  0  0  0  0
 36 92  1  0  0  0  0
 37 93  1  0  0  0  0
 37 94  1  0  0  0  0
 38 95  1  0  0  0  0
 38 96  1  0  0  0  0
 39 97  1  0  0  0  0
 39 98  1  0  0  0  0
 40 99  1  0  0  0  0
 40100  1  0  0  0  0
 40101  1  0  0  0  0
 41102  1  0  0  0  0
 41103  1  0  0  0  0
 42104  1  0  0  0  0
 42105  1  0  0  0  0
 43106  1  0  0  0  0
 43107  1  0  0  0  0
 44108  1  0  0  0  0
 44109  1  0  0  0  0
 45110  1  0  0  0  0
 45111  1  0  0  0  0
 46112  1  0  0  0  0
 46113  1  0  0  0  0
 46114  1  0  0  0  0
 47115  1  0  0  0  0
 48116  1  0  0  0  0
 49117  1  0  0  0  0
 50118  1  0  0  0  0
 51119  1  0  0  0  0
 52120  1  0  0  0  0
 53121  1  0  0  0  0
 54122  1  0  0  0  0
M  END
