
  xtb     03012221253D
 energy: -4.214970385317 gnorm: 0.000286834358 xtb: 6.4.1 (afa7bdf)
 20 21  0     0  0            999 V2000
   -1.9695   -2.3664   -0.4753 O   0  0  0  0  0  0  0  0  0  0  0  0
   -2.2647   -1.2543   -0.0873 C   0  0  0  0  0  0  0  0  0  0  0  0
   -3.5517   -0.9277    0.1883 O   0  0  0  0  0  0  0  0  0  0  0  0
   -1.2571   -0.1857    0.1117 C   0  0  0  0  0  0  0  0  0  0  0  0
   -1.6934    1.0361    0.5540 C   0  0  0  0  0  0  0  0  0  0  0  0
   -0.8124    2.0934    0.7666 C   0  0  0  0  0  0  0  0  0  0  0  0
    0.5178    1.9295    0.5354 C   0  0  0  0  0  0  0  0  0  0  0  0
    1.0178    0.6923    0.0796 C   0  0  0  0  0  0  0  0  0  0  0  0
    2.3850    0.4943   -0.1673 C   0  0  0  0  0  0  0  0  0  0  0  0
    2.7946   -0.7208   -0.6039 C   0  0  0  0  0  0  0  0  0  0  0  0
    1.8519   -1.7248   -0.7915 C   0  0  0  0  0  0  0  0  0  0  0  0
    0.5724   -1.5954   -0.5779 N   0  0  0  0  0  0  0  0  0  0  0  0
    0.1314   -0.3894   -0.1399 C   0  0  0  0  0  0  0  0  0  0  0  0
   -4.0872   -1.7246    0.0108 H   0  0  0  0  0  0  0  0  0  0  0  0
   -2.7469    1.1650    0.7368 H   0  0  0  0  0  0  0  0  0  0  0  0
   -1.1886    3.0411    1.1148 H   0  0  0  0  0  0  0  0  0  0  0  0
    1.2036    2.7427    0.6978 H   0  0  0  0  0  0  0  0  0  0  0  0
    3.0836    1.2975   -0.0097 H   0  0  0  0  0  0  0  0  0  0  0  0
    3.8364   -0.9094   -0.8039 H   0  0  0  0  0  0  0  0  0  0  0  0
    2.1771   -2.6934   -1.1393 H   0  0  0  0  0  0  0  0  0  0  0  0
  1  2  2  0  0  0  0
  2  3  1  0  0  0  0
  2  4  1  0  0  0  0
  4  5  2  0  0  0  0
  5  6  1  0  0  0  0
  6  7  2  0  0  0  0
  7  8  1  0  0  0  0
  8  9  2  0  0  0  0
  9 10  1  0  0  0  0
 10 11  2  0  0  0  0
 11 12  1  0  0  0  0
 12 13  2  0  0  0  0
 13  4  1  0  0  0  0
 13  8  1  0  0  0  0
  3 14  1  0  0  0  0
  5 15  1  0  0  0  0
  6 16  1  0  0  0  0
  7 17  1  0  0  0  0
  9 18  1  0  0  0  0
 10 19  1  0  0  0  0
 11 20  1  0  0  0  0
M  END
