
  xtb     03012221313D
 energy: -11.672936541612 gnorm: 0.000303394909 xtb: 6.4.1 (afa7bdf)
 58 62  0     0  0            999 V2000
   -6.8768   -2.3414    2.3549 C   0  0  0  0  0  0  0  0  0  0  0  0
   -6.1749   -2.7120    1.1923 O   0  0  0  0  0  0  0  0  0  0  0  0
   -4.9893   -2.0079    0.9706 C   0  0  0  0  0  0  0  0  0  0  0  0
   -4.4927   -1.0017    1.8061 C   0  0  0  0  0  0  0  0  0  0  0  0
   -3.3158   -0.3610    1.5148 C   0  0  0  0  0  0  0  0  0  0  0  0
   -2.5722   -0.7027    0.3830 C   0  0  0  0  0  0  0  0  0  0  0  0
   -1.2838   -0.0290    0.0881 C   0  0  0  0  0  0  0  0  0  0  0  0
   -1.3071    1.2766   -0.3461 C   0  0  0  0  0  0  0  0  0  0  0  0
   -0.1381    1.9480   -0.7077 C   0  0  0  0  0  0  0  0  0  0  0  0
   -0.1630    3.3405   -1.1828 C   0  0  0  0  0  0  0  0  0  0  0  0
    1.0317    3.9182   -1.6017 C   0  0  0  0  0  0  0  0  0  0  0  0
    1.0711    5.2137   -2.0606 C   0  0  0  0  0  0  0  0  0  0  0  0
   -0.0799    5.9840   -2.1115 C   0  0  0  0  0  0  0  0  0  0  0  0
   -0.0445    7.3772   -2.6360 C   0  0  0  0  0  0  0  0  0  0  0  0
   -1.2732    5.4104   -1.7005 C   0  0  0  0  0  0  0  0  0  0  0  0
   -1.3207    4.1144   -1.2398 C   0  0  0  0  0  0  0  0  0  0  0  0
    1.0475    1.3555   -0.6667 N   0  0  0  0  0  0  0  0  0  0  0  0
    1.1108    0.0738   -0.2372 C   0  0  0  0  0  0  0  0  0  0  0  0
    2.3739   -0.5609   -0.2066 C   0  0  0  0  0  0  0  0  0  0  0  0
    3.4755    0.1696   -0.6450 C   0  0  0  0  0  0  0  0  0  0  0  0
    4.4022    0.7718   -1.0090 N   0  0  0  0  0  0  0  0  0  0  0  0
    2.4668   -1.8832    0.2408 C   0  0  0  0  0  0  0  0  0  0  0  0
    3.6941   -2.5644    0.2661 N   0  0  0  0  0  0  0  0  0  0  0  0
    5.0502   -2.0232   -0.0035 C   0  0  0  0  0  0  0  0  0  0  0  0
    6.0577   -3.1300    0.3522 C   0  0  0  0  0  0  0  0  0  0  0  0
    5.2549   -4.1921    1.1291 C   0  0  0  0  0  0  0  0  0  0  0  0
    3.7884   -3.9592    0.7393 C   0  0  0  0  0  0  0  0  0  0  0  0
    1.3975   -2.5732    0.6834 N   0  0  0  0  0  0  0  0  0  0  0  0
    0.2024   -1.9877    0.6845 C   0  0  0  0  0  0  0  0  0  0  0  0
   -0.8252   -2.7111    1.2485 N   0  0  0  0  0  0  0  0  0  0  0  0
   -0.0128   -0.6634    0.1833 C   0  0  0  0  0  0  0  0  0  0  0  0
   -3.0692   -1.7004   -0.4580 C   0  0  0  0  0  0  0  0  0  0  0  0
   -4.2484   -2.3362   -0.1692 C   0  0  0  0  0  0  0  0  0  0  0  0
   -7.1674   -1.2927    2.2939 H   0  0  0  0  0  0  0  0  0  0  0  0
   -6.2573   -2.5181    3.2341 H   0  0  0  0  0  0  0  0  0  0  0  0
   -7.7750   -2.9544    2.4258 H   0  0  0  0  0  0  0  0  0  0  0  0
   -5.0408   -0.7229    2.6880 H   0  0  0  0  0  0  0  0  0  0  0  0
   -2.9413    0.4099    2.1661 H   0  0  0  0  0  0  0  0  0  0  0  0
   -2.2576    1.7677   -0.4280 H   0  0  0  0  0  0  0  0  0  0  0  0
    1.9285    3.3251   -1.5603 H   0  0  0  0  0  0  0  0  0  0  0  0
    2.0051    5.6410   -2.3880 H   0  0  0  0  0  0  0  0  0  0  0  0
   -0.2493    7.3931   -3.7072 H   0  0  0  0  0  0  0  0  0  0  0  0
   -0.7887    8.0029   -2.1417 H   0  0  0  0  0  0  0  0  0  0  0  0
    0.9321    7.8352   -2.4738 H   0  0  0  0  0  0  0  0  0  0  0  0
   -2.1765    5.9972   -1.7469 H   0  0  0  0  0  0  0  0  0  0  0  0
   -2.2597    3.7028   -0.9202 H   0  0  0  0  0  0  0  0  0  0  0  0
    5.1168   -1.7140   -1.0517 H   0  0  0  0  0  0  0  0  0  0  0  0
    5.1947   -1.1318    0.6150 H   0  0  0  0  0  0  0  0  0  0  0  0
    6.4825   -3.5659   -0.5597 H   0  0  0  0  0  0  0  0  0  0  0  0
    6.9025   -2.7426    0.9349 H   0  0  0  0  0  0  0  0  0  0  0  0
    5.5842   -5.2125    0.8976 H   0  0  0  0  0  0  0  0  0  0  0  0
    5.3864   -4.0558    2.2087 H   0  0  0  0  0  0  0  0  0  0  0  0
    3.4687   -4.6203   -0.0721 H   0  0  0  0  0  0  0  0  0  0  0  0
    3.0979   -4.1034    1.5768 H   0  0  0  0  0  0  0  0  0  0  0  0
   -1.6845   -2.2981    1.5765 H   0  0  0  0  0  0  0  0  0  0  0  0
   -0.6088   -3.5741    1.7238 H   0  0  0  0  0  0  0  0  0  0  0  0
   -2.5024   -1.9720   -1.3317 H   0  0  0  0  0  0  0  0  0  0  0  0
   -4.6272   -3.1092   -0.8148 H   0  0  0  0  0  0  0  0  0  0  0  0
  1  2  1  0  0  0  0
  2  3  1  0  0  0  0
  3  4  2  0  0  0  0
  4  5  1  0  0  0  0
  5  6  2  0  0  0  0
  6  7  1  0  0  0  0
  7  8  2  0  0  0  0
  8  9  1  0  0  0  0
  9 10  1  0  0  0  0
 10 11  2  0  0  0  0
 11 12  1  0  0  0  0
 12 13  2  0  0  0  0
 13 14  1  0  0  0  0
 13 15  1  0  0  0  0
 15 16  2  0  0  0  0
  9 17  2  0  0  0  0
 17 18  1  0  0  0  0
 18 19  2  0  0  0  0
 19 20  1  0  0  0  0
 20 21  3  0  0  0  0
 19 22  1  0  0  0  0
 22 23  1  0  0  0  0
 23 24  1  0  0  0  0
 24 25  1  0  0  0  0
 25 26  1  0  0  0  0
 26 27  1  0  0  0  0
 22 28  2  0  0  0  0
 28 29  1  0  0  0  0
 29 30  1  0  0  0  0
 29 31  2  0  0  0  0
  6 32  1  0  0  0  0
 32 33  2  0  0  0  0
 33  3  1  0  0  0  0
 31  7  1  0  0  0  0
 16 10  1  0  0  0  0
 31 18  1  0  0  0  0
 27 23  1  0  0  0  0
  1 34  1  0  0  0  0
  1 35  1  0  0  0  0
  1 36  1  0  0  0  0
  4 37  1  0  0  0  0
  5 38  1  0  0  0  0
  8 39  1  0  0  0  0
 11 40  1  0  0  0  0
 12 41  1  0  0  0  0
 14 42  1  0  0  0  0
 14 43  1  0  0  0  0
 14 44  1  0  0  0  0
 15 45  1  0  0  0  0
 16 46  1  0  0  0  0
 24 47  1  0  0  0  0
 24 48  1  0  0  0  0
 25 49  1  0  0  0  0
 25 50  1  0  0  0  0
 26 51  1  0  0  0  0
 26 52  1  0  0  0  0
 27 53  1  0  0  0  0
 27 54  1  0  0  0  0
 30 55  1  0  0  0  0
 30 56  1  0  0  0  0
 32 57  1  0  0  0  0
 33 58  1  0  0  0  0
M  END
