
  xtb     03012221273D
 energy: -17.342300221714 gnorm: 0.000196741481 xtb: 6.4.1 (afa7bdf)
 81 89  0     0  0            999 V2000
    0.1232   -2.3755    1.1693 F   0  0  0  0  0  0  0  0  0  0  0  0
    0.0644   -1.6009    0.0135 B   0  0  0  0  0  4  0  0  0  0  0  0
    0.0758   -2.3694   -1.1513 F   0  0  0  0  0  0  0  0  0  0  0  0
    1.3082   -0.6920   -0.0209 N   0  0  0  0  0  0  0  0  0  0  0  0
    1.1655    0.6585   -0.2806 C   0  0  0  0  0  0  0  0  0  0  0  0
    2.4896    1.2019   -0.3249 C   0  0  0  0  0  0  0  0  0  0  0  0
    2.8417    2.5943   -0.6191 C   0  0  0  0  0  0  0  0  0  0  0  0
    3.9322    2.9025   -1.4387 C   0  0  0  0  0  0  0  0  0  0  0  0
    4.2562    4.2080   -1.7238 C   0  0  0  0  0  0  0  0  0  0  0  0
    3.5027    5.2387   -1.1987 C   0  0  0  0  0  0  0  0  0  0  0  0
    2.4246    4.9592   -0.3829 C   0  0  0  0  0  0  0  0  0  0  0  0
    2.0964    3.6551   -0.0945 C   0  0  0  0  0  0  0  0  0  0  0  0
    3.3793    0.1314   -0.0902 C   0  0  0  0  0  0  0  0  0  0  0  0
    4.8483    0.2270   -0.0745 C   0  0  0  0  0  0  0  0  0  0  0  0
    5.4951    1.2188    0.6669 C   0  0  0  0  0  0  0  0  0  0  0  0
    6.8679    1.3074    0.6766 C   0  0  0  0  0  0  0  0  0  0  0  0
    7.6254    0.4120   -0.0524 C   0  0  0  0  0  0  0  0  0  0  0  0
    7.0051   -0.5741   -0.7939 C   0  0  0  0  0  0  0  0  0  0  0  0
    5.6326   -0.6674   -0.8073 C   0  0  0  0  0  0  0  0  0  0  0  0
    2.6078   -1.0587    0.1165 C   0  0  0  0  0  0  0  0  0  0  0  0
    3.1098   -2.3793    0.4872 C   0  0  0  0  0  0  0  0  0  0  0  0
    2.4216   -3.5363    0.1236 C   0  0  0  0  0  0  0  0  0  0  0  0
    2.8871   -4.7826    0.4709 C   0  0  0  0  0  0  0  0  0  0  0  0
    4.0551   -4.9057    1.1962 C   0  0  0  0  0  0  0  0  0  0  0  0
    4.7496   -3.7749    1.5774 C   0  0  0  0  0  0  0  0  0  0  0  0
    4.2831   -2.5276    1.2312 C   0  0  0  0  0  0  0  0  0  0  0  0
   -0.0535    1.2823   -0.4567 C   0  0  0  0  0  0  0  0  0  0  0  0
   -1.2169    0.5536   -0.2943 C   0  0  0  0  0  0  0  0  0  0  0  0
   -2.5755    1.0045   -0.2885 C   0  0  0  0  0  0  0  0  0  0  0  0
   -3.0402    2.3459   -0.6478 C   0  0  0  0  0  0  0  0  0  0  0  0
   -2.3759    3.0981   -1.6226 C   0  0  0  0  0  0  0  0  0  0  0  0
   -2.8038    4.3616   -1.9577 C   0  0  0  0  0  0  0  0  0  0  0  0
   -3.9083    4.9070   -1.3351 C   0  0  0  0  0  0  0  0  0  0  0  0
   -4.5898    4.1791   -0.3809 C   0  0  0  0  0  0  0  0  0  0  0  0
   -4.1655    2.9153   -0.0444 C   0  0  0  0  0  0  0  0  0  0  0  0
   -3.3665   -0.0956    0.1097 C   0  0  0  0  0  0  0  0  0  0  0  0
   -4.8415   -0.0756    0.2525 C   0  0  0  0  0  0  0  0  0  0  0  0
   -5.6695   -0.2897   -0.8520 C   0  0  0  0  0  0  0  0  0  0  0  0
   -7.0384   -0.2639   -0.7175 C   0  0  0  0  0  0  0  0  0  0  0  0
   -7.6098   -0.0234    0.5168 C   0  0  0  0  0  0  0  0  0  0  0  0
   -6.8081    0.1941    1.6201 C   0  0  0  0  0  0  0  0  0  0  0  0
   -5.4387    0.1711    1.4932 C   0  0  0  0  0  0  0  0  0  0  0  0
   -2.5111   -1.2368    0.2719 C   0  0  0  0  0  0  0  0  0  0  0  0
   -2.9163   -2.6041    0.5881 C   0  0  0  0  0  0  0  0  0  0  0  0
   -2.0927   -3.6844    0.2716 C   0  0  0  0  0  0  0  0  0  0  0  0
   -2.4594   -4.9781    0.5593 C   0  0  0  0  0  0  0  0  0  0  0  0
   -3.6703   -5.2321    1.1699 C   0  0  0  0  0  0  0  0  0  0  0  0
   -4.5093   -4.1835    1.4878 C   0  0  0  0  0  0  0  0  0  0  0  0
   -4.1394   -2.8900    1.1998 C   0  0  0  0  0  0  0  0  0  0  0  0
   -1.2506   -0.7931    0.0278 N   0  0  0  0  0  4  0  0  0  0  0  0
    4.5142    2.0984   -1.8537 H   0  0  0  0  0  0  0  0  0  0  0  0
    5.0989    4.4268   -2.3584 H   0  0  0  0  0  0  0  0  0  0  0  0
    3.7583    6.2626   -1.4233 H   0  0  0  0  0  0  0  0  0  0  0  0
    1.8421    5.7648    0.0324 H   0  0  0  0  0  0  0  0  0  0  0  0
    1.2791    3.4414    0.5716 H   0  0  0  0  0  0  0  0  0  0  0  0
    4.9012    1.9141    1.2344 H   0  0  0  0  0  0  0  0  0  0  0  0
    7.3528    2.0772    1.2538 H   0  0  0  0  0  0  0  0  0  0  0  0
    8.7016    0.4831   -0.0433 H   0  0  0  0  0  0  0  0  0  0  0  0
    7.5968   -1.2718   -1.3631 H   0  0  0  0  0  0  0  0  0  0  0  0
    5.1445   -1.4321   -1.3865 H   0  0  0  0  0  0  0  0  0  0  0  0
    1.5026   -3.4324   -0.4217 H   0  0  0  0  0  0  0  0  0  0  0  0
    2.3361   -5.6625    0.1823 H   0  0  0  0  0  0  0  0  0  0  0  0
    4.4203   -5.8819    1.4698 H   0  0  0  0  0  0  0  0  0  0  0  0
    5.6572   -3.8693    2.1504 H   0  0  0  0  0  0  0  0  0  0  0  0
    4.8177   -1.6486    1.5442 H   0  0  0  0  0  0  0  0  0  0  0  0
   -0.0958    2.3349   -0.6529 H   0  0  0  0  0  0  0  0  0  0  0  0
   -1.5437    2.6602   -2.1447 H   0  0  0  0  0  0  0  0  0  0  0  0
   -2.2798    4.9243   -2.7124 H   0  0  0  0  0  0  0  0  0  0  0  0
   -4.2427    5.8983   -1.5991 H   0  0  0  0  0  0  0  0  0  0  0  0
   -5.4566    4.6013    0.0997 H   0  0  0  0  0  0  0  0  0  0  0  0
   -4.7004    2.3525    0.6978 H   0  0  0  0  0  0  0  0  0  0  0  0
   -5.2176   -0.4757   -1.8108 H   0  0  0  0  0  0  0  0  0  0  0  0
   -7.6661   -0.4316   -1.5770 H   0  0  0  0  0  0  0  0  0  0  0  0
   -8.6834   -0.0045    0.6189 H   0  0  0  0  0  0  0  0  0  0  0  0
   -7.2560    0.3828    2.5816 H   0  0  0  0  0  0  0  0  0  0  0  0
   -4.8084    0.3411    2.3493 H   0  0  0  0  0  0  0  0  0  0  0  0
   -1.1535   -3.4863   -0.2078 H   0  0  0  0  0  0  0  0  0  0  0  0
   -1.8000   -5.7927    0.3087 H   0  0  0  0  0  0  0  0  0  0  0  0
   -3.9597   -6.2450    1.3970 H   0  0  0  0  0  0  0  0  0  0  0  0
   -5.4566   -4.3785    1.9629 H   0  0  0  0  0  0  0  0  0  0  0  0
   -4.8003   -2.0840    1.4531 H   0  0  0  0  0  0  0  0  0  0  0  0
  1  2  1  0  0  0  0
  2  3  1  0  0  0  0
  2  4  1  0  0  0  0
  4  5  1  0  0  0  0
  5  6  2  0  0  0  0
  6  7  1  0  0  0  0
  7  8  2  0  0  0  0
  8  9  1  0  0  0  0
  9 10  2  0  0  0  0
 10 11  1  0  0  0  0
 11 12  2  0  0  0  0
  6 13  1  0  0  0  0
 13 14  1  0  0  0  0
 14 15  2  0  0  0  0
 15 16  1  0  0  0  0
 16 17  2  0  0  0  0
 17 18  1  0  0  0  0
 18 19  2  0  0  0  0
 13 20  2  0  0  0  0
 20 21  1  0  0  0  0
 21 22  2  0  0  0  0
 22 23  1  0  0  0  0
 23 24  2  0  0  0  0
 24 25  1  0  0  0  0
 25 26  2  0  0  0  0
  5 27  1  0  0  0  0
 27 28  2  0  0  0  0
 28 29  1  0  0  0  0
 29 30  1  0  0  0  0
 30 31  2  0  0  0  0
 31 32  1  0  0  0  0
 32 33  2  0  0  0  0
 33 34  1  0  0  0  0
 34 35  2  0  0  0  0
 29 36  2  0  0  0  0
 36 37  1  0  0  0  0
 37 38  2  0  0  0  0
 38 39  1  0  0  0  0
 39 40  2  0  0  0  0
 40 41  1  0  0  0  0
 41 42  2  0  0  0  0
 36 43  1  0  0  0  0
 43 44  1  0  0  0  0
 44 45  2  0  0  0  0
 45 46  1  0  0  0  0
 46 47  2  0  0  0  0
 47 48  1  0  0  0  0
 48 49  2  0  0  0  0
 43 50  2  0  0  0  0
 50  2  1  0  0  0  0
 20  4  1  0  0  0  0
 26 21  1  0  0  0  0
 50 28  1  0  0  0  0
 12  7  1  0  0  0  0
 19 14  1  0  0  0  0
 35 30  1  0  0  0  0
 42 37  1  0  0  0  0
 49 44  1  0  0  0  0
  8 51  1  0  0  0  0
  9 52  1  0  0  0  0
 10 53  1  0  0  0  0
 11 54  1  0  0  0  0
 12 55  1  0  0  0  0
 15 56  1  0  0  0  0
 16 57  1  0  0  0  0
 17 58  1  0  0  0  0
 18 59  1  0  0  0  0
 19 60  1  0  0  0  0
 22 61  1  0  0  0  0
 23 62  1  0  0  0  0
 24 63  1  0  0  0  0
 25 64  1  0  0  0  0
 26 65  1  0  0  0  0
 27 66  1  0  0  0  0
 31 67  1  0  0  0  0
 32 68  1  0  0  0  0
 33 69  1  0  0  0  0
 34 70  1  0  0  0  0
 35 71  1  0  0  0  0
 38 72  1  0  0  0  0
 39 73  1  0  0  0  0
 40 74  1  0  0  0  0
 41 75  1  0  0  0  0
 42 76  1  0  0  0  0
 45 77  1  0  0  0  0
 46 78  1  0  0  0  0
 47 79  1  0  0  0  0
 48 80  1  0  0  0  0
 49 81  1  0  0  0  0
M  CHG  1   2  -1
M  CHG  1  50   1
M  END
