
  xtb     03012221273D
 energy: -16.287001082568 gnorm: 0.000179417632 xtb: 6.4.1 (afa7bdf)
 84 90  0     0  0            999 V2000
    0.6061   -5.0442   -2.1977 C   0  0  0  0  0  0  0  0  0  0  0  0
    1.9304   -4.3065   -2.3021 C   0  0  0  0  0  0  0  0  0  0  0  0
    1.8784   -2.8811   -1.7459 C   0  0  0  0  0  0  0  0  0  0  0  0
    1.5403   -2.8121   -0.2622 C   0  0  0  0  0  0  0  0  0  0  0  0
    1.7243   -1.4535    0.2761 N   0  0  0  0  0  0  0  0  0  0  0  0
    2.9900   -0.8466    0.2464 C   0  0  0  0  0  0  0  0  0  0  0  0
    4.2741   -1.4029    0.2231 C   0  0  0  0  0  0  0  0  0  0  0  0
    5.3559   -0.5703    0.1246 C   0  0  0  0  0  0  0  0  0  0  0  0
    5.2140    0.8353    0.0371 C   0  0  0  0  0  0  0  0  0  0  0  0
    6.4047    1.7032   -0.0756 C   0  0  0  0  0  0  0  0  0  0  0  0
    6.4540    2.9421    0.5651 C   0  0  0  0  0  0  0  0  0  0  0  0
    7.5563    3.7544    0.4610 C   0  0  0  0  0  0  0  0  0  0  0  0
    8.6666    3.3645   -0.2940 C   0  0  0  0  0  0  0  0  0  0  0  0
    9.8277    4.1275   -0.4550 O   0  0  0  0  0  0  0  0  0  0  0  0
    9.8162    5.3670    0.2114 C   0  0  0  0  0  0  0  0  0  0  0  0
    8.6143    2.1235   -0.9351 C   0  0  0  0  0  0  0  0  0  0  0  0
    7.5122    1.3127   -0.8289 C   0  0  0  0  0  0  0  0  0  0  0  0
    3.9415    1.3854    0.0509 C   0  0  0  0  0  0  0  0  0  0  0  0
    2.8310    0.5469    0.1554 C   0  0  0  0  0  0  0  0  0  0  0  0
    1.4212    0.8082    0.1320 C   0  0  0  0  0  0  0  0  0  0  0  0
    0.7274    2.0251   -0.0618 C   0  0  0  0  0  0  0  0  0  0  0  0
   -0.6351    2.0201   -0.1049 C   0  0  0  0  0  0  0  0  0  0  0  0
   -1.3327    0.8041    0.0856 C   0  0  0  0  0  0  0  0  0  0  0  0
   -2.7403    0.5695    0.2376 C   0  0  0  0  0  0  0  0  0  0  0  0
   -3.8428    1.4203    0.1464 C   0  0  0  0  0  0  0  0  0  0  0  0
   -5.1089    0.9302    0.4254 C   0  0  0  0  0  0  0  0  0  0  0  0
   -6.2928    1.8100    0.3334 C   0  0  0  0  0  0  0  0  0  0  0  0
   -6.2271    3.1476    0.7260 C   0  0  0  0  0  0  0  0  0  0  0  0
   -7.3248    3.9687    0.6440 C   0  0  0  0  0  0  0  0  0  0  0  0
   -8.5461    3.4884    0.1618 C   0  0  0  0  0  0  0  0  0  0  0  0
   -9.7119    4.2524    0.0450 O   0  0  0  0  0  0  0  0  0  0  0  0
   -9.5827    5.5922    0.4554 C   0  0  0  0  0  0  0  0  0  0  0  0
   -8.6087    2.1487   -0.2321 C   0  0  0  0  0  0  0  0  0  0  0  0
   -7.5109    1.3296   -0.1483 C   0  0  0  0  0  0  0  0  0  0  0  0
   -5.2498   -0.4229    0.8152 C   0  0  0  0  0  0  0  0  0  0  0  0
   -4.1750   -1.2645    0.9163 C   0  0  0  0  0  0  0  0  0  0  0  0
   -2.8987   -0.7763    0.6126 C   0  0  0  0  0  0  0  0  0  0  0  0
   -1.6348   -1.3801    0.6645 N   0  0  0  0  0  0  0  0  0  0  0  0
   -1.3899   -2.6245    1.4087 C   0  0  0  0  0  0  0  0  0  0  0  0
   -1.8623   -3.8627    0.6566 C   0  0  0  0  0  0  0  0  0  0  0  0
   -1.4719   -5.1685    1.3488 C   0  0  0  0  0  0  0  0  0  0  0  0
   -2.0004   -6.3987    0.6280 C   0  0  0  0  0  0  0  0  0  0  0  0
   -0.6704   -0.4194    0.3048 C   0  0  0  0  0  0  0  0  0  0  0  0
    0.7569   -0.4272    0.2638 C   0  0  0  0  0  0  0  0  0  0  0  0
   -0.1967   -4.4860   -2.6820 H   0  0  0  0  0  0  0  0  0  0  0  0
    0.6483   -6.0311   -2.6637 H   0  0  0  0  0  0  0  0  0  0  0  0
    0.3186   -5.1925   -1.1565 H   0  0  0  0  0  0  0  0  0  0  0  0
    2.2564   -4.2800   -3.3515 H   0  0  0  0  0  0  0  0  0  0  0  0
    2.7121   -4.8705   -1.7757 H   0  0  0  0  0  0  0  0  0  0  0  0
    1.1485   -2.2860   -2.3077 H   0  0  0  0  0  0  0  0  0  0  0  0
    2.8398   -2.3802   -1.9138 H   0  0  0  0  0  0  0  0  0  0  0  0
    2.1705   -3.4970    0.3121 H   0  0  0  0  0  0  0  0  0  0  0  0
    0.5119   -3.1272   -0.1006 H   0  0  0  0  0  0  0  0  0  0  0  0
    4.3948   -2.4693    0.2895 H   0  0  0  0  0  0  0  0  0  0  0  0
    6.3477   -0.9871    0.1264 H   0  0  0  0  0  0  0  0  0  0  0  0
    5.6143    3.2528    1.1629 H   0  0  0  0  0  0  0  0  0  0  0  0
    7.5643    4.7010    0.9697 H   0  0  0  0  0  0  0  0  0  0  0  0
    8.9982    5.9834   -0.1632 H   0  0  0  0  0  0  0  0  0  0  0  0
   10.7603    5.8757    0.0142 H   0  0  0  0  0  0  0  0  0  0  0  0
    9.7171    5.2106    1.2861 H   0  0  0  0  0  0  0  0  0  0  0  0
    9.4643    1.8196   -1.5199 H   0  0  0  0  0  0  0  0  0  0  0  0
    7.4881    0.3688   -1.3457 H   0  0  0  0  0  0  0  0  0  0  0  0
    3.8040    2.4460   -0.0420 H   0  0  0  0  0  0  0  0  0  0  0  0
    1.2838    2.9366   -0.1872 H   0  0  0  0  0  0  0  0  0  0  0  0
   -1.1892    2.9308   -0.2457 H   0  0  0  0  0  0  0  0  0  0  0  0
   -3.7057    2.4435   -0.1481 H   0  0  0  0  0  0  0  0  0  0  0  0
   -5.2994    3.5312    1.1150 H   0  0  0  0  0  0  0  0  0  0  0  0
   -7.2422    4.9930    0.9581 H   0  0  0  0  0  0  0  0  0  0  0  0
   -8.8328    6.0977   -0.1541 H   0  0  0  0  0  0  0  0  0  0  0  0
  -10.5428    6.0910    0.3191 H   0  0  0  0  0  0  0  0  0  0  0  0
   -9.3102    5.6335    1.5106 H   0  0  0  0  0  0  0  0  0  0  0  0
   -9.5448    1.7745   -0.6069 H   0  0  0  0  0  0  0  0  0  0  0  0
   -7.5789    0.3053   -0.4723 H   0  0  0  0  0  0  0  0  0  0  0  0
   -6.2325   -0.7865    1.0593 H   0  0  0  0  0  0  0  0  0  0  0  0
   -4.2989   -2.2818    1.2390 H   0  0  0  0  0  0  0  0  0  0  0  0
   -0.3266   -2.6846    1.6539 H   0  0  0  0  0  0  0  0  0  0  0  0
   -1.9013   -2.5484    2.3732 H   0  0  0  0  0  0  0  0  0  0  0  0
   -1.4714   -3.8456   -0.3663 H   0  0  0  0  0  0  0  0  0  0  0  0
   -2.9496   -3.8266    0.5292 H   0  0  0  0  0  0  0  0  0  0  0  0
   -1.8393   -5.1516    2.3836 H   0  0  0  0  0  0  0  0  0  0  0  0
   -0.3786   -5.2203    1.4383 H   0  0  0  0  0  0  0  0  0  0  0  0
   -1.6284   -6.4495   -0.3964 H   0  0  0  0  0  0  0  0  0  0  0  0
   -1.7095   -7.3244    1.1292 H   0  0  0  0  0  0  0  0  0  0  0  0
   -3.0902   -6.3846    0.5720 H   0  0  0  0  0  0  0  0  0  0  0  0
  1  2  1  0  0  0  0
  2  3  1  0  0  0  0
  3  4  1  0  0  0  0
  4  5  1  0  0  0  0
  5  6  1  0  0  0  0
  6  7  2  0  0  0  0
  7  8  1  0  0  0  0
  8  9  2  0  0  0  0
  9 10  1  0  0  0  0
 10 11  2  0  0  0  0
 11 12  1  0  0  0  0
 12 13  2  0  0  0  0
 13 14  1  0  0  0  0
 14 15  1  0  0  0  0
 13 16  1  0  0  0  0
 16 17  2  0  0  0  0
  9 18  1  0  0  0  0
 18 19  2  0  0  0  0
 19 20  1  0  0  0  0
 20 21  2  0  0  0  0
 21 22  1  0  0  0  0
 22 23  2  0  0  0  0
 23 24  1  0  0  0  0
 24 25  2  0  0  0  0
 25 26  1  0  0  0  0
 26 27  1  0  0  0  0
 27 28  2  0  0  0  0
 28 29  1  0  0  0  0
 29 30  2  0  0  0  0
 30 31  1  0  0  0  0
 31 32  1  0  0  0  0
 30 33  1  0  0  0  0
 33 34  2  0  0  0  0
 26 35  2  0  0  0  0
 35 36  1  0  0  0  0
 36 37  2  0  0  0  0
 37 38  1  0  0  0  0
 38 39  1  0  0  0  0
 39 40  1  0  0  0  0
 40 41  1  0  0  0  0
 41 42  1  0  0  0  0
 38 43  1  0  0  0  0
 43 44  2  0  0  0  0
 44  5  1  0  0  0  0
 19  6  1  0  0  0  0
 44 20  1  0  0  0  0
 17 10  1  0  0  0  0
 43 23  1  0  0  0  0
 37 24  1  0  0  0  0
 34 27  1  0  0  0  0
  1 45  1  0  0  0  0
  1 46  1  0  0  0  0
  1 47  1  0  0  0  0
  2 48  1  0  0  0  0
  2 49  1  0  0  0  0
  3 50  1  0  0  0  0
  3 51  1  0  0  0  0
  4 52  1  0  0  0  0
  4 53  1  0  0  0  0
  7 54  1  0  0  0  0
  8 55  1  0  0  0  0
 11 56  1  0  0  0  0
 12 57  1  0  0  0  0
 15 58  1  0  0  0  0
 15 59  1  0  0  0  0
 15 60  1  0  0  0  0
 16 61  1  0  0  0  0
 17 62  1  0  0  0  0
 18 63  1  0  0  0  0
 21 64  1  0  0  0  0
 22 65  1  0  0  0  0
 25 66  1  0  0  0  0
 28 67  1  0  0  0  0
 29 68  1  0  0  0  0
 32 69  1  0  0  0  0
 32 70  1  0  0  0  0
 32 71  1  0  0  0  0
 33 72  1  0  0  0  0
 34 73  1  0  0  0  0
 35 74  1  0  0  0  0
 36 75  1  0  0  0  0
 39 76  1  0  0  0  0
 39 77  1  0  0  0  0
 40 78  1  0  0  0  0
 40 79  1  0  0  0  0
 41 80  1  0  0  0  0
 41 81  1  0  0  0  0
 42 82  1  0  0  0  0
 42 83  1  0  0  0  0
 42 84  1  0  0  0  0
M  END
