
  xtb     03012221303D
 energy: -12.716638616625 gnorm: 0.000448314503 xtb: 6.4.1 (afa7bdf)
 65 71  0     0  0            999 V2000
    3.6334   -0.8667    1.8073 C   0  0  0  0  0  0  0  0  0  0  0  0
    3.1177   -0.6964    0.4391 C   0  0  0  0  0  0  0  0  0  0  0  0
    3.8567   -0.8019   -0.6539 N   0  0  0  0  0  4  0  0  0  0  0  0
    3.1146   -0.5918   -1.8395 C   0  0  0  0  0  0  0  0  0  0  0  0
    3.6780   -0.6514   -3.1189 C   0  0  0  0  0  0  0  0  0  0  0  0
    5.0167   -0.9273   -3.2197 C   0  0  0  0  0  0  0  0  0  0  0  0
    5.8742   -1.0534   -4.3524 C   0  0  0  0  0  0  0  0  0  0  0  0
    7.1348   -1.3379   -3.8924 C   0  0  0  0  0  0  0  0  0  0  0  0
    7.1083   -1.4010   -2.4722 C   0  0  0  0  0  0  0  0  0  0  0  0
    8.2256   -1.6705   -1.5508 C   0  0  0  0  0  0  0  0  0  0  0  0
    5.8519   -1.1537   -2.1106 N   0  0  0  0  0  0  0  0  0  0  0  0
    5.3564   -1.1147   -0.6612 B   0  0  0  0  0  4  0  0  0  0  0  0
    6.0367   -0.1079    0.0270 F   0  0  0  0  0  0  0  0  0  0  0  0
    5.5669   -2.3630   -0.0723 F   0  0  0  0  0  0  0  0  0  0  0  0
    1.8186   -0.3376   -1.4294 C   0  0  0  0  0  0  0  0  0  0  0  0
    1.7827   -0.3947   -0.0096 C   0  0  0  0  0  0  0  0  0  0  0  0
    0.6244   -0.1852    0.7814 C   0  0  0  0  0  0  0  0  0  0  0  0
   -0.6747    0.1162    0.2789 C   0  0  0  0  0  0  0  0  0  0  0  0
   -1.5283    0.2538    1.3550 C   0  0  0  0  0  0  0  0  0  0  0  0
   -0.7364    0.0260    2.5052 N   0  0  0  0  0  0  0  0  0  0  0  0
    0.5218   -0.2308    2.2065 C   0  0  0  0  0  0  0  0  0  0  0  0
   -1.2981    0.0594    3.9288 B   0  0  0  0  0  4  0  0  0  0  0  0
   -1.1336   -1.1998    4.5102 F   0  0  0  0  0  0  0  0  0  0  0  0
   -0.6410    1.0579    4.6515 F   0  0  0  0  0  0  0  0  0  0  0  0
   -2.7938    0.3891    3.8647 N   0  0  0  0  0  4  0  0  0  0  0  0
   -3.5855    0.5133    4.9257 C   0  0  0  0  0  0  0  0  0  0  0  0
   -4.8712    0.8288    4.4412 C   0  0  0  0  0  0  0  0  0  0  0  0
   -4.8234    0.8888    3.0660 C   0  0  0  0  0  0  0  0  0  0  0  0
   -3.4911    0.6055    2.6654 C   0  0  0  0  0  0  0  0  0  0  0  0
   -2.9145    0.5491    1.3982 C   0  0  0  0  0  0  0  0  0  0  0  0
   -3.6969    0.7836    0.1615 C   0  0  0  0  0  0  0  0  0  0  0  0
   -3.5412    1.9815   -0.5612 C   0  0  0  0  0  0  0  0  0  0  0  0
   -2.5928    3.0325   -0.0995 C   0  0  0  0  0  0  0  0  0  0  0  0
   -4.2655    2.1702   -1.7229 C   0  0  0  0  0  0  0  0  0  0  0  0
   -5.1560    1.2167   -2.1887 C   0  0  0  0  0  0  0  0  0  0  0  0
   -5.9383    1.4613   -3.4316 C   0  0  0  0  0  0  0  0  0  0  0  0
   -5.3160    0.0474   -1.4619 C   0  0  0  0  0  0  0  0  0  0  0  0
   -4.5966   -0.1926   -0.3066 C   0  0  0  0  0  0  0  0  0  0  0  0
   -4.7919   -1.4678    0.4371 C   0  0  0  0  0  0  0  0  0  0  0  0
    4.7001   -1.0923    1.7758 H   0  0  0  0  0  0  0  0  0  0  0  0
    3.5014    0.0436    2.3919 H   0  0  0  0  0  0  0  0  0  0  0  0
    3.1327   -1.6908    2.3151 H   0  0  0  0  0  0  0  0  0  0  0  0
    3.0779   -0.4851   -3.9945 H   0  0  0  0  0  0  0  0  0  0  0  0
    5.5759   -0.9421   -5.3806 H   0  0  0  0  0  0  0  0  0  0  0  0
    8.0106   -1.4912   -4.5006 H   0  0  0  0  0  0  0  0  0  0  0  0
    7.8588   -1.7225   -0.5247 H   0  0  0  0  0  0  0  0  0  0  0  0
    8.9729   -0.8786   -1.6035 H   0  0  0  0  0  0  0  0  0  0  0  0
    8.7080   -2.6189   -1.7881 H   0  0  0  0  0  0  0  0  0  0  0  0
    0.9862   -0.1332   -2.0791 H   0  0  0  0  0  0  0  0  0  0  0  0
   -0.9507    0.2191   -0.7546 H   0  0  0  0  0  0  0  0  0  0  0  0
    1.2865   -0.4350    2.9339 H   0  0  0  0  0  0  0  0  0  0  0  0
   -3.2668    0.3924    5.9484 H   0  0  0  0  0  0  0  0  0  0  0  0
   -5.7450    0.9984    5.0495 H   0  0  0  0  0  0  0  0  0  0  0  0
   -5.6414    1.1148    2.4037 H   0  0  0  0  0  0  0  0  0  0  0  0
   -2.4952    3.0254    0.9865 H   0  0  0  0  0  0  0  0  0  0  0  0
   -2.9333    4.0261   -0.3921 H   0  0  0  0  0  0  0  0  0  0  0  0
   -1.6022    2.8759   -0.5267 H   0  0  0  0  0  0  0  0  0  0  0  0
   -4.1390    3.0822   -2.2784 H   0  0  0  0  0  0  0  0  0  0  0  0
   -6.7154    2.2066   -3.2593 H   0  0  0  0  0  0  0  0  0  0  0  0
   -6.4209    0.5489   -3.7830 H   0  0  0  0  0  0  0  0  0  0  0  0
   -5.2935    1.8253   -4.2321 H   0  0  0  0  0  0  0  0  0  0  0  0
   -6.0125   -0.6947   -1.8087 H   0  0  0  0  0  0  0  0  0  0  0  0
   -5.5861   -1.3674    1.1771 H   0  0  0  0  0  0  0  0  0  0  0  0
   -5.0607   -2.2803   -0.2383 H   0  0  0  0  0  0  0  0  0  0  0  0
   -3.8814   -1.7622    0.9598 H   0  0  0  0  0  0  0  0  0  0  0  0
  1  2  1  0  0  0  0
  2  3  2  0  0  0  0
  3  4  1  0  0  0  0
  4  5  2  0  0  0  0
  5  6  1  0  0  0  0
  6  7  2  0  0  0  0
  7  8  1  0  0  0  0
  8  9  2  0  0  0  0
  9 10  1  0  0  0  0
  9 11  1  0  0  0  0
 11 12  1  0  0  0  0
 12 13  1  0  0  0  0
 12 14  1  0  0  0  0
  4 15  1  0  0  0  0
 15 16  2  0  0  0  0
 16 17  1  0  0  0  0
 17 18  1  0  0  0  0
 18 19  2  0  0  0  0
 19 20  1  0  0  0  0
 20 21  1  0  0  0  0
 20 22  1  0  0  0  0
 22 23  1  0  0  0  0
 22 24  1  0  0  0  0
 22 25  1  0  0  0  0
 25 26  2  0  0  0  0
 26 27  1  0  0  0  0
 27 28  2  0  0  0  0
 28 29  1  0  0  0  0
 29 30  2  0  0  0  0
 30 31  1  0  0  0  0
 31 32  2  0  0  0  0
 32 33  1  0  0  0  0
 32 34  1  0  0  0  0
 34 35  2  0  0  0  0
 35 36  1  0  0  0  0
 35 37  1  0  0  0  0
 37 38  2  0  0  0  0
 38 39  1  0  0  0  0
 16  2  1  0  0  0  0
 21 17  2  0  0  0  0
 29 25  1  0  0  0  0
 38 31  1  0  0  0  0
 12  3  1  0  0  0  0
 30 19  1  0  0  0  0
 11  6  1  0  0  0  0
  1 40  1  0  0  0  0
  1 41  1  0  0  0  0
  1 42  1  0  0  0  0
  5 43  1  0  0  0  0
  7 44  1  0  0  0  0
  8 45  1  0  0  0  0
 10 46  1  0  0  0  0
 10 47  1  0  0  0  0
 10 48  1  0  0  0  0
 15 49  1  0  0  0  0
 18 50  1  0  0  0  0
 21 51  1  0  0  0  0
 26 52  1  0  0  0  0
 27 53  1  0  0  0  0
 28 54  1  0  0  0  0
 33 55  1  0  0  0  0
 33 56  1  0  0  0  0
 33 57  1  0  0  0  0
 34 58  1  0  0  0  0
 36 59  1  0  0  0  0
 36 60  1  0  0  0  0
 36 61  1  0  0  0  0
 37 62  1  0  0  0  0
 39 63  1  0  0  0  0
 39 64  1  0  0  0  0
 39 65  1  0  0  0  0
M  CHG  1   3   1
M  CHG  1  12  -1
M  CHG  1  22  -1
M  CHG  1  25   1
M  END
