
  xtb     03012221273D
 energy: -9.001416544671 gnorm: 0.000282652094 xtb: 6.4.1 (afa7bdf)
 43 46  0     0  0            999 V2000
    6.7405   -1.9297    0.4210 C   0  0  0  0  0  0  0  0  0  0  0  0
    5.3547   -1.9020    0.6594 O   0  0  0  0  0  0  0  0  0  0  0  0
    4.6601   -0.9080   -0.0399 C   0  0  0  0  0  0  0  0  0  0  0  0
    5.2469    0.0123   -0.9133 C   0  0  0  0  0  0  0  0  0  0  0  0
    4.4798    0.9569   -1.5579 C   0  0  0  0  0  0  0  0  0  0  0  0
    3.1187    1.0094   -1.3520 C   0  0  0  0  0  0  0  0  0  0  0  0
    2.5000    0.1085   -0.4895 C   0  0  0  0  0  0  0  0  0  0  0  0
    1.0581    0.1711   -0.2791 C   0  0  0  0  0  0  0  0  0  0  0  0
    0.2576    1.0410   -0.8838 N   0  0  0  0  0  0  0  0  0  0  0  0
   -0.9916    0.7905   -0.4428 C   0  0  0  0  0  0  0  0  0  0  0  0
   -2.1556    1.5884   -0.8496 C   0  0  0  0  0  0  0  0  0  0  0  0
   -2.1654    2.2012   -2.0994 C   0  0  0  0  0  0  0  0  0  0  0  0
   -3.2356    2.9687   -2.5009 C   0  0  0  0  0  0  0  0  0  0  0  0
   -4.3128    3.1456   -1.6554 C   0  0  0  0  0  0  0  0  0  0  0  0
   -4.3140    2.5594   -0.4053 C   0  0  0  0  0  0  0  0  0  0  0  0
   -3.2441    1.7920   -0.0034 C   0  0  0  0  0  0  0  0  0  0  0  0
   -0.9658   -0.2984    0.4589 C   0  0  0  0  0  0  0  0  0  0  0  0
   -2.0787   -0.9904    1.1163 C   0  0  0  0  0  0  0  0  0  0  0  0
   -3.2778   -1.2356    0.4480 C   0  0  0  0  0  0  0  0  0  0  0  0
   -4.3073   -1.9037    1.0714 C   0  0  0  0  0  0  0  0  0  0  0  0
   -4.1562   -2.3468    2.3704 C   0  0  0  0  0  0  0  0  0  0  0  0
   -2.9714   -2.1243    3.0439 C   0  0  0  0  0  0  0  0  0  0  0  0
   -1.9406   -1.4562    2.4220 C   0  0  0  0  0  0  0  0  0  0  0  0
    0.3437   -0.6618    0.5607 N   0  0  0  0  0  0  0  0  0  0  0  0
    3.2825   -0.8386    0.1551 C   0  0  0  0  0  0  0  0  0  0  0  0
    7.1774   -2.7357    1.0114 H   0  0  0  0  0  0  0  0  0  0  0  0
    6.9319   -2.1214   -0.6354 H   0  0  0  0  0  0  0  0  0  0  0  0
    7.1894   -0.9840    0.7269 H   0  0  0  0  0  0  0  0  0  0  0  0
    6.3072   -0.0160   -1.0854 H   0  0  0  0  0  0  0  0  0  0  0  0
    4.9466    1.6601   -2.2284 H   0  0  0  0  0  0  0  0  0  0  0  0
    2.5146    1.7454   -1.8526 H   0  0  0  0  0  0  0  0  0  0  0  0
   -1.3163    2.0636   -2.7474 H   0  0  0  0  0  0  0  0  0  0  0  0
   -3.2312    3.4327   -3.4729 H   0  0  0  0  0  0  0  0  0  0  0  0
   -5.1510    3.7467   -1.9694 H   0  0  0  0  0  0  0  0  0  0  0  0
   -5.1508    2.7050    0.2571 H   0  0  0  0  0  0  0  0  0  0  0  0
   -3.2338    1.3510    0.9786 H   0  0  0  0  0  0  0  0  0  0  0  0
   -3.3856   -0.9009   -0.5699 H   0  0  0  0  0  0  0  0  0  0  0  0
   -5.2295   -2.0833    0.5446 H   0  0  0  0  0  0  0  0  0  0  0  0
   -4.9626   -2.8707    2.8579 H   0  0  0  0  0  0  0  0  0  0  0  0
   -2.8533   -2.4744    4.0557 H   0  0  0  0  0  0  0  0  0  0  0  0
   -1.0150   -1.2781    2.9427 H   0  0  0  0  0  0  0  0  0  0  0  0
    0.7046   -1.4453    1.1068 H   0  0  0  0  0  0  0  0  0  0  0  0
    2.8314   -1.5443    0.8246 H   0  0  0  0  0  0  0  0  0  0  0  0
  1  2  1  0  0  0  0
  2  3  1  0  0  0  0
  3  4  2  0  0  0  0
  4  5  1  0  0  0  0
  5  6  2  0  0  0  0
  6  7  1  0  0  0  0
  7  8  1  0  0  0  0
  8  9  2  0  0  0  0
  9 10  1  0  0  0  0
 10 11  1  0  0  0  0
 11 12  2  0  0  0  0
 12 13  1  0  0  0  0
 13 14  2  0  0  0  0
 14 15  1  0  0  0  0
 15 16  2  0  0  0  0
 10 17  2  0  0  0  0
 17 18  1  0  0  0  0
 18 19  2  0  0  0  0
 19 20  1  0  0  0  0
 20 21  2  0  0  0  0
 21 22  1  0  0  0  0
 22 23  2  0  0  0  0
 17 24  1  0  0  0  0
  7 25  2  0  0  0  0
 25  3  1  0  0  0  0
 24  8  1  0  0  0  0
 16 11  1  0  0  0  0
 23 18  1  0  0  0  0
  1 26  1  0  0  0  0
  1 27  1  0  0  0  0
  1 28  1  0  0  0  0
  4 29  1  0  0  0  0
  5 30  1  0  0  0  0
  6 31  1  0  0  0  0
 12 32  1  0  0  0  0
 13 33  1  0  0  0  0
 14 34  1  0  0  0  0
 15 35  1  0  0  0  0
 16 36  1  0  0  0  0
 19 37  1  0  0  0  0
 20 38  1  0  0  0  0
 21 39  1  0  0  0  0
 22 40  1  0  0  0  0
 23 41  1  0  0  0  0
 24 42  1  0  0  0  0
 25 43  1  0  0  0  0
M  END
