
  xtb     03012221203D
 energy: -9.204682517941 gnorm: 0.000229854736 xtb: 6.4.1 (afa7bdf)
 47 50  0     0  0            999 V2000
   -5.2495   -2.3027    0.9535 C   0  0  0  0  0  0  0  0  0  0  0  0
   -5.2145   -0.8492    1.3740 C   0  0  0  0  0  0  0  0  0  0  0  0
   -4.6593    0.0189    0.3182 N   0  0  0  0  0  0  0  0  0  0  0  0
   -5.6590    0.7099   -0.5176 C   0  0  0  0  0  0  0  0  0  0  0  0
   -5.9232    2.1198   -0.0352 C   0  0  0  0  0  0  0  0  0  0  0  0
   -3.2772    0.1835    0.1308 C   0  0  0  0  0  0  0  0  0  0  0  0
   -2.7730    1.0601   -0.8492 C   0  0  0  0  0  0  0  0  0  0  0  0
   -1.4291    1.2202   -1.0295 C   0  0  0  0  0  0  0  0  0  0  0  0
   -0.5098    0.5132   -0.2396 C   0  0  0  0  0  0  0  0  0  0  0  0
    0.8850    0.6381   -0.4000 C   0  0  0  0  0  0  0  0  0  0  0  0
    1.7598   -0.0619    0.3682 C   0  0  0  0  0  0  0  0  0  0  0  0
    3.1852    0.1267    0.1189 C   0  0  0  0  0  0  0  0  0  0  0  0
    3.6461    1.2280   -0.4572 N   0  0  0  0  0  0  0  0  0  0  0  0
    4.9894    1.0748   -0.5871 C   0  0  0  0  0  0  0  0  0  0  0  0
    5.9510    1.9460   -1.1222 C   0  0  0  0  0  0  0  0  0  0  0  0
    7.2590    1.5433   -1.1573 C   0  0  0  0  0  0  0  0  0  0  0  0
    7.6452    0.2849   -0.6724 C   0  0  0  0  0  0  0  0  0  0  0  0
    6.7257   -0.5838   -0.1470 C   0  0  0  0  0  0  0  0  0  0  0  0
    5.3847   -0.1878   -0.1009 C   0  0  0  0  0  0  0  0  0  0  0  0
    4.2214   -0.7963    0.3350 N   0  0  0  0  0  0  0  0  0  0  0  0
    4.1144   -2.1752    0.7974 C   0  0  0  0  0  0  0  0  0  0  0  0
    1.2364   -0.9212    1.4387 C   0  0  0  0  0  0  0  0  0  0  0  0
    2.0138   -1.4709    2.2045 O   0  0  0  0  0  0  0  0  0  0  0  0
   -0.1305   -1.0836    1.5675 O   0  0  0  0  0  0  0  0  0  0  0  0
   -0.9901   -0.3672    0.7486 C   0  0  0  0  0  0  0  0  0  0  0  0
   -2.3622   -0.5137    0.9113 C   0  0  0  0  0  0  0  0  0  0  0  0
   -4.2518   -2.6650    0.7001 H   0  0  0  0  0  0  0  0  0  0  0  0
   -5.6482   -2.9494    1.7386 H   0  0  0  0  0  0  0  0  0  0  0  0
   -5.8697   -2.4368    0.0654 H   0  0  0  0  0  0  0  0  0  0  0  0
   -6.2195   -0.4931    1.6217 H   0  0  0  0  0  0  0  0  0  0  0  0
   -4.6289   -0.7074    2.2870 H   0  0  0  0  0  0  0  0  0  0  0  0
   -6.5806    0.1193   -0.5133 H   0  0  0  0  0  0  0  0  0  0  0  0
   -5.3170    0.6965   -1.5565 H   0  0  0  0  0  0  0  0  0  0  0  0
   -6.6552    2.6388   -0.6585 H   0  0  0  0  0  0  0  0  0  0  0  0
   -6.3010    2.1172    0.9888 H   0  0  0  0  0  0  0  0  0  0  0  0
   -5.0080    2.7142   -0.0329 H   0  0  0  0  0  0  0  0  0  0  0  0
   -3.4556    1.6182   -1.4630 H   0  0  0  0  0  0  0  0  0  0  0  0
   -1.0582    1.8936   -1.7826 H   0  0  0  0  0  0  0  0  0  0  0  0
    1.2698    1.2986   -1.1549 H   0  0  0  0  0  0  0  0  0  0  0  0
    5.6448    2.9078   -1.4929 H   0  0  0  0  0  0  0  0  0  0  0  0
    8.0065    2.2034   -1.5647 H   0  0  0  0  0  0  0  0  0  0  0  0
    8.6830   -0.0009   -0.7143 H   0  0  0  0  0  0  0  0  0  0  0  0
    7.0161   -1.5478    0.2303 H   0  0  0  0  0  0  0  0  0  0  0  0
    3.2498   -2.6494    0.3388 H   0  0  0  0  0  0  0  0  0  0  0  0
    5.0073   -2.7413    0.5447 H   0  0  0  0  0  0  0  0  0  0  0  0
    3.9749   -2.1790    1.8767 H   0  0  0  0  0  0  0  0  0  0  0  0
   -2.6979   -1.1915    1.6709 H   0  0  0  0  0  0  0  0  0  0  0  0
  1  2  1  0  0  0  0
  2  3  1  0  0  0  0
  3  4  1  0  0  0  0
  4  5  1  0  0  0  0
  3  6  1  0  0  0  0
  6  7  2  0  0  0  0
  7  8  1  0  0  0  0
  8  9  2  0  0  0  0
  9 10  1  0  0  0  0
 10 11  2  0  0  0  0
 11 12  1  0  0  0  0
 12 13  2  0  0  0  0
 13 14  1  0  0  0  0
 14 15  2  0  0  0  0
 15 16  1  0  0  0  0
 16 17  2  0  0  0  0
 17 18  1  0  0  0  0
 18 19  2  0  0  0  0
 19 20  1  0  0  0  0
 20 21  1  0  0  0  0
 11 22  1  0  0  0  0
 22 23  2  0  0  0  0
 22 24  1  0  0  0  0
 24 25  1  0  0  0  0
 25 26  2  0  0  0  0
 26  6  1  0  0  0  0
 25  9  1  0  0  0  0
 20 12  1  0  0  0  0
 19 14  1  0  0  0  0
  1 27  1  0  0  0  0
  1 28  1  0  0  0  0
  1 29  1  0  0  0  0
  2 30  1  0  0  0  0
  2 31  1  0  0  0  0
  4 32  1  0  0  0  0
  4 33  1  0  0  0  0
  5 34  1  0  0  0  0
  5 35  1  0  0  0  0
  5 36  1  0  0  0  0
  7 37  1  0  0  0  0
  8 38  1  0  0  0  0
 10 39  1  0  0  0  0
 15 40  1  0  0  0  0
 16 41  1  0  0  0  0
 17 42  1  0  0  0  0
 18 43  1  0  0  0  0
 21 44  1  0  0  0  0
 21 45  1  0  0  0  0
 21 46  1  0  0  0  0
 26 47  1  0  0  0  0
M  END
