
  xtb     03012221293D
 energy: -18.671664479476 gnorm: 0.000311429487 xtb: 6.4.1 (afa7bdf)
 85 94  0     0  0            999 V2000
   -0.0827   -5.6688    2.0376 O   0  0  0  0  0  0  0  0  0  0  0  0
   -0.0053   -5.1686    0.6121 S   0  0  0  0  0  6  0  0  0  0  0  0
    0.0730   -6.0512   -0.6138 O   0  0  0  0  0  0  0  0  0  0  0  0
    1.3560   -4.0029    0.5248 C   0  0  0  0  0  0  0  0  0  0  0  0
    1.8339   -3.4237    1.6769 C   0  0  0  0  0  0  0  0  0  0  0  0
    2.8941   -2.5454    1.6185 C   0  0  0  0  0  0  0  0  0  0  0  0
    3.4948   -2.2370    0.3985 C   0  0  0  0  0  0  0  0  0  0  0  0
    4.6679   -1.3409    0.3388 C   0  0  0  0  0  0  0  0  0  0  0  0
    5.7451   -1.6330   -0.4971 C   0  0  0  0  0  0  0  0  0  0  0  0
    6.8522   -0.8223   -0.5334 C   0  0  0  0  0  0  0  0  0  0  0  0
    6.9222    0.3128    0.2659 C   0  0  0  0  0  0  0  0  0  0  0  0
    8.0910    1.1479    0.2438 N   0  0  0  0  0  0  0  0  0  0  0  0
    8.1128    2.5510    0.1011 C   0  0  0  0  0  0  0  0  0  0  0  0
    7.0776    3.4686   -0.0729 C   0  0  0  0  0  0  0  0  0  0  0  0
    7.3889    4.7995   -0.2015 C   0  0  0  0  0  0  0  0  0  0  0  0
    8.7157    5.2362   -0.1633 C   0  0  0  0  0  0  0  0  0  0  0  0
    9.7486    4.3452   -0.0005 C   0  0  0  0  0  0  0  0  0  0  0  0
    9.4475    2.9891    0.1301 C   0  0  0  0  0  0  0  0  0  0  0  0
   10.2791    1.8217    0.2986 C   0  0  0  0  0  0  0  0  0  0  0  0
   11.6611    1.6598    0.4021 C   0  0  0  0  0  0  0  0  0  0  0  0
   12.1646    0.3936    0.5770 C   0  0  0  0  0  0  0  0  0  0  0  0
   11.3154   -0.7134    0.6543 C   0  0  0  0  0  0  0  0  0  0  0  0
    9.9539   -0.5693    0.5521 C   0  0  0  0  0  0  0  0  0  0  0  0
    9.4258    0.7076    0.3651 C   0  0  0  0  0  0  0  0  0  0  0  0
    5.8493    0.6162    1.0966 C   0  0  0  0  0  0  0  0  0  0  0  0
    4.7435   -0.1972    1.1328 C   0  0  0  0  0  0  0  0  0  0  0  0
    2.9858   -2.8270   -0.7579 C   0  0  0  0  0  0  0  0  0  0  0  0
    1.9244   -3.7032   -0.6910 C   0  0  0  0  0  0  0  0  0  0  0  0
   -1.3673   -4.0264    0.3689 C   0  0  0  0  0  0  0  0  0  0  0  0
   -1.8839   -3.8411   -0.8919 C   0  0  0  0  0  0  0  0  0  0  0  0
   -2.9441   -2.9819   -1.0833 C   0  0  0  0  0  0  0  0  0  0  0  0
   -3.5051   -2.2946   -0.0075 C   0  0  0  0  0  0  0  0  0  0  0  0
   -4.6726   -1.4105   -0.2009 C   0  0  0  0  0  0  0  0  0  0  0  0
   -4.7844   -0.6007   -1.3305 C   0  0  0  0  0  0  0  0  0  0  0  0
   -5.8839    0.1997   -1.5205 C   0  0  0  0  0  0  0  0  0  0  0  0
   -6.9129    0.2194   -0.5858 C   0  0  0  0  0  0  0  0  0  0  0  0
   -8.0740    1.0402   -0.7914 N   0  0  0  0  0  0  0  0  0  0  0  0
   -8.8599    1.0909   -1.9618 C   0  0  0  0  0  0  0  0  0  0  0  0
   -8.7450    0.4058   -3.1707 C   0  0  0  0  0  0  0  0  0  0  0  0
   -9.6771    0.6358   -4.1522 C   0  0  0  0  0  0  0  0  0  0  0  0
  -10.7275    1.5353   -3.9516 C   0  0  0  0  0  0  0  0  0  0  0  0
  -10.8608    2.2127   -2.7639 C   0  0  0  0  0  0  0  0  0  0  0  0
   -9.9215    1.9883   -1.7569 C   0  0  0  0  0  0  0  0  0  0  0  0
   -9.7891    2.5107   -0.4181 C   0  0  0  0  0  0  0  0  0  0  0  0
  -10.5466    3.4279    0.3113 C   0  0  0  0  0  0  0  0  0  0  0  0
  -10.1538    3.7363    1.5911 C   0  0  0  0  0  0  0  0  0  0  0  0
   -9.0183    3.1493    2.1557 C   0  0  0  0  0  0  0  0  0  0  0  0
   -8.2645    2.2441    1.4506 C   0  0  0  0  0  0  0  0  0  0  0  0
   -8.6528    1.9135    0.1529 C   0  0  0  0  0  0  0  0  0  0  0  0
   -6.8069   -0.5806    0.5460 C   0  0  0  0  0  0  0  0  0  0  0  0
   -5.7073   -1.3807    0.7334 C   0  0  0  0  0  0  0  0  0  0  0  0
   -2.9577   -2.4900    1.2601 C   0  0  0  0  0  0  0  0  0  0  0  0
   -1.8975   -3.3508    1.4430 C   0  0  0  0  0  0  0  0  0  0  0  0
    1.3849   -3.6865    2.6203 H   0  0  0  0  0  0  0  0  0  0  0  0
    3.2871   -2.1140    2.5225 H   0  0  0  0  0  0  0  0  0  0  0  0
    5.7082   -2.5214   -1.1056 H   0  0  0  0  0  0  0  0  0  0  0  0
    7.6761   -1.0499   -1.1863 H   0  0  0  0  0  0  0  0  0  0  0  0
    6.0598    3.1246   -0.1134 H   0  0  0  0  0  0  0  0  0  0  0  0
    6.5985    5.5194   -0.3362 H   0  0  0  0  0  0  0  0  0  0  0  0
    8.9309    6.2869   -0.2663 H   0  0  0  0  0  0  0  0  0  0  0  0
   10.7730    4.6722    0.0254 H   0  0  0  0  0  0  0  0  0  0  0  0
   12.3074    2.5178    0.3471 H   0  0  0  0  0  0  0  0  0  0  0  0
   13.2294    0.2511    0.6598 H   0  0  0  0  0  0  0  0  0  0  0  0
   11.7365   -1.6946    0.7986 H   0  0  0  0  0  0  0  0  0  0  0  0
    9.2945   -1.4154    0.6237 H   0  0  0  0  0  0  0  0  0  0  0  0
    5.9090    1.4870    1.7252 H   0  0  0  0  0  0  0  0  0  0  0  0
    3.9152    0.0471    1.7772 H   0  0  0  0  0  0  0  0  0  0  0  0
    3.4318   -2.5921   -1.7086 H   0  0  0  0  0  0  0  0  0  0  0  0
    1.5430   -4.1785   -1.5794 H   0  0  0  0  0  0  0  0  0  0  0  0
   -1.4635   -4.3936   -1.7158 H   0  0  0  0  0  0  0  0  0  0  0  0
   -3.3666   -2.8586   -2.0652 H   0  0  0  0  0  0  0  0  0  0  0  0
   -3.9866   -0.6003   -2.0546 H   0  0  0  0  0  0  0  0  0  0  0  0
   -5.9578    0.8316   -2.3878 H   0  0  0  0  0  0  0  0  0  0  0  0
   -7.9423   -0.2950   -3.3138 H   0  0  0  0  0  0  0  0  0  0  0  0
   -9.6003    0.1127   -5.0910 H   0  0  0  0  0  0  0  0  0  0  0  0
  -11.4451    1.6959   -4.7391 H   0  0  0  0  0  0  0  0  0  0  0  0
  -11.6700    2.9017   -2.5988 H   0  0  0  0  0  0  0  0  0  0  0  0
  -11.4171    3.8777   -0.1323 H   0  0  0  0  0  0  0  0  0  0  0  0
  -10.7272    4.4430    2.1678 H   0  0  0  0  0  0  0  0  0  0  0  0
   -8.7299    3.4132    3.1598 H   0  0  0  0  0  0  0  0  0  0  0  0
   -7.3835    1.7974    1.8752 H   0  0  0  0  0  0  0  0  0  0  0  0
   -7.6118   -0.5806    1.2596 H   0  0  0  0  0  0  0  0  0  0  0  0
   -5.6463   -2.0161    1.6014 H   0  0  0  0  0  0  0  0  0  0  0  0
   -3.3714   -1.9594    2.0998 H   0  0  0  0  0  0  0  0  0  0  0  0
   -1.4869   -3.5209    2.4243 H   0  0  0  0  0  0  0  0  0  0  0  0
  1  2  2  0  0  0  0
  2  3  2  0  0  0  0
  2  4  1  0  0  0  0
  4  5  2  0  0  0  0
  5  6  1  0  0  0  0
  6  7  2  0  0  0  0
  7  8  1  0  0  0  0
  8  9  2  0  0  0  0
  9 10  1  0  0  0  0
 10 11  2  0  0  0  0
 11 12  1  0  0  0  0
 12 13  1  0  0  0  0
 13 14  2  0  0  0  0
 14 15  1  0  0  0  0
 15 16  2  0  0  0  0
 16 17  1  0  0  0  0
 17 18  2  0  0  0  0
 18 19  1  0  0  0  0
 19 20  2  0  0  0  0
 20 21  1  0  0  0  0
 21 22  2  0  0  0  0
 22 23  1  0  0  0  0
 23 24  2  0  0  0  0
 11 25  1  0  0  0  0
 25 26  2  0  0  0  0
  7 27  1  0  0  0  0
 27 28  2  0  0  0  0
  2 29  1  0  0  0  0
 29 30  2  0  0  0  0
 30 31  1  0  0  0  0
 31 32  2  0  0  0  0
 32 33  1  0  0  0  0
 33 34  2  0  0  0  0
 34 35  1  0  0  0  0
 35 36  2  0  0  0  0
 36 37  1  0  0  0  0
 37 38  1  0  0  0  0
 38 39  2  0  0  0  0
 39 40  1  0  0  0  0
 40 41  2  0  0  0  0
 41 42  1  0  0  0  0
 42 43  2  0  0  0  0
 43 44  1  0  0  0  0
 44 45  2  0  0  0  0
 45 46  1  0  0  0  0
 46 47  2  0  0  0  0
 47 48  1  0  0  0  0
 48 49  2  0  0  0  0
 36 50  1  0  0  0  0
 50 51  2  0  0  0  0
 32 52  1  0  0  0  0
 52 53  2  0  0  0  0
 28  4  1  0  0  0  0
 53 29  1  0  0  0  0
 26  8  1  0  0  0  0
 51 33  1  0  0  0  0
 24 12  1  0  0  0  0
 49 37  1  0  0  0  0
 18 13  1  0  0  0  0
 24 19  1  0  0  0  0
 43 38  1  0  0  0  0
 49 44  1  0  0  0  0
  5 54  1  0  0  0  0
  6 55  1  0  0  0  0
  9 56  1  0  0  0  0
 10 57  1  0  0  0  0
 14 58  1  0  0  0  0
 15 59  1  0  0  0  0
 16 60  1  0  0  0  0
 17 61  1  0  0  0  0
 20 62  1  0  0  0  0
 21 63  1  0  0  0  0
 22 64  1  0  0  0  0
 23 65  1  0  0  0  0
 25 66  1  0  0  0  0
 26 67  1  0  0  0  0
 27 68  1  0  0  0  0
 28 69  1  0  0  0  0
 30 70  1  0  0  0  0
 31 71  1  0  0  0  0
 34 72  1  0  0  0  0
 35 73  1  0  0  0  0
 39 74  1  0  0  0  0
 40 75  1  0  0  0  0
 41 76  1  0  0  0  0
 42 77  1  0  0  0  0
 45 78  1  0  0  0  0
 46 79  1  0  0  0  0
 47 80  1  0  0  0  0
 48 81  1  0  0  0  0
 50 82  1  0  0  0  0
 51 83  1  0  0  0  0
 52 84  1  0  0  0  0
 53 85  1  0  0  0  0
M  END
