
  xtb     03012221283D
 energy: -7.811372530317 gnorm: 0.000762605800 xtb: 6.4.1 (afa7bdf)
 42 43  0     0  0            999 V2000
    6.5204    0.8446   -1.9677 C   0  0  0  0  0  0  0  0  0  0  0  0
    5.9589    0.9690   -0.7020 O   0  0  0  0  0  0  0  0  0  0  0  0
    4.8651    0.1640   -0.6129 C   0  0  0  0  0  0  0  0  0  0  0  0
    4.4564   -0.5588   -1.4939 O   0  0  0  0  0  0  0  0  0  0  0  0
    4.1400    0.1768    0.7141 C   0  0  0  0  0  0  0  0  0  0  0  0
    4.7130   -0.8604    1.6557 C   0  0  0  0  0  0  0  0  0  0  0  0
    2.7255   -0.0434    0.4796 N   0  0  0  0  0  0  0  0  0  0  0  0
    1.8168   -0.0294    1.5152 C   0  0  0  0  0  0  0  0  0  0  0  0
    2.1377    0.2653    2.6493 O   0  0  0  0  0  0  0  0  0  0  0  0
    0.4008   -0.4036    1.2122 C   0  0  0  0  0  0  0  0  0  0  0  0
   -0.5827    0.5897    1.8012 C   0  0  0  0  0  0  0  0  0  0  0  0
   -1.9713    0.2379    1.5090 N   0  0  0  0  0  0  0  0  0  0  0  0
   -2.5976    0.4017    0.2775 C   0  0  0  0  0  0  0  0  0  0  0  0
   -1.9634    1.0698   -0.7566 C   0  0  0  0  0  0  0  0  0  0  0  0
   -2.5617    1.2195   -2.0015 C   0  0  0  0  0  0  0  0  0  0  0  0
   -3.8043    0.7086   -2.2415 C   0  0  0  0  0  0  0  0  0  0  0  0
   -4.5065    0.0259   -1.2278 C   0  0  0  0  0  0  0  0  0  0  0  0
   -5.7957   -0.5031   -1.4565 C   0  0  0  0  0  0  0  0  0  0  0  0
   -6.4700   -1.1499   -0.4662 C   0  0  0  0  0  0  0  0  0  0  0  0
   -5.8912   -1.2940    0.7950 C   0  0  0  0  0  0  0  0  0  0  0  0
   -4.6460   -0.7965    1.0492 C   0  0  0  0  0  0  0  0  0  0  0  0
   -3.9117   -0.1293    0.0489 C   0  0  0  0  0  0  0  0  0  0  0  0
    7.4069    1.4793   -2.0307 H   0  0  0  0  0  0  0  0  0  0  0  0
    5.7846    1.1539   -2.7142 H   0  0  0  0  0  0  0  0  0  0  0  0
    6.7934   -0.2003   -2.1345 H   0  0  0  0  0  0  0  0  0  0  0  0
    4.2381    1.1810    1.1540 H   0  0  0  0  0  0  0  0  0  0  0  0
    5.7710   -0.6821    1.8499 H   0  0  0  0  0  0  0  0  0  0  0  0
    4.6116   -1.8541    1.2205 H   0  0  0  0  0  0  0  0  0  0  0  0
    4.1767   -0.8534    2.6057 H   0  0  0  0  0  0  0  0  0  0  0  0
    2.5167   -0.4670   -0.4316 H   0  0  0  0  0  0  0  0  0  0  0  0
    0.2023   -1.4039    1.6079 H   0  0  0  0  0  0  0  0  0  0  0  0
    0.2604   -0.4716    0.1300 H   0  0  0  0  0  0  0  0  0  0  0  0
   -0.4362    0.6560    2.8852 H   0  0  0  0  0  0  0  0  0  0  0  0
   -0.3830    1.5974    1.4257 H   0  0  0  0  0  0  0  0  0  0  0  0
   -2.3335   -0.4419    2.1734 H   0  0  0  0  0  0  0  0  0  0  0  0
   -0.9821    1.4769   -0.5968 H   0  0  0  0  0  0  0  0  0  0  0  0
   -2.0375    1.7417   -2.7847 H   0  0  0  0  0  0  0  0  0  0  0  0
   -4.2636    0.8255   -3.2088 H   0  0  0  0  0  0  0  0  0  0  0  0
   -6.2413   -0.3855   -2.4305 H   0  0  0  0  0  0  0  0  0  0  0  0
   -7.4531   -1.5485   -0.6522 H   0  0  0  0  0  0  0  0  0  0  0  0
   -6.4363   -1.8017    1.5756 H   0  0  0  0  0  0  0  0  0  0  0  0
   -4.2276   -0.9060    2.0323 H   0  0  0  0  0  0  0  0  0  0  0  0
  1  2  1  0  0  0  0
  2  3  1  0  0  0  0
  3  4  2  0  0  0  0
  3  5  1  0  0  0  0
  5  6  1  0  0  0  0
  5  7  1  0  0  0  0
  7  8  1  0  0  0  0
  8  9  2  0  0  0  0
  8 10  1  0  0  0  0
 10 11  1  0  0  0  0
 11 12  1  0  0  0  0
 12 13  1  0  0  0  0
 13 14  2  0  0  0  0
 14 15  1  0  0  0  0
 15 16  2  0  0  0  0
 16 17  1  0  0  0  0
 17 18  2  0  0  0  0
 18 19  1  0  0  0  0
 19 20  2  0  0  0  0
 20 21  1  0  0  0  0
 21 22  2  0  0  0  0
 22 13  1  0  0  0  0
 22 17  1  0  0  0  0
  1 23  1  0  0  0  0
  1 24  1  0  0  0  0
  1 25  1  0  0  0  0
  5 26  1  0  0  0  0
  6 27  1  0  0  0  0
  6 28  1  0  0  0  0
  6 29  1  0  0  0  0
  7 30  1  0  0  0  0
 10 31  1  0  0  0  0
 10 32  1  0  0  0  0
 11 33  1  0  0  0  0
 11 34  1  0  0  0  0
 12 35  1  0  0  0  0
 14 36  1  0  0  0  0
 15 37  1  0  0  0  0
 16 38  1  0  0  0  0
 18 39  1  0  0  0  0
 19 40  1  0  0  0  0
 20 41  1  0  0  0  0
 21 42  1  0  0  0  0
M  END
