
  xtb     03012221283D
 energy: -15.143968150810 gnorm: 0.000227103925 xtb: 6.4.1 (afa7bdf)
 76 83  0     0  0            999 V2000
   -4.9293    3.7016    1.0193 C   0  0  0  0  0  0  0  0  0  0  0  0
   -3.6854    3.9889    0.1565 C   0  0  0  0  0  0  0  0  0  0  0  0
   -2.7327    4.8889    0.9646 C   0  0  0  0  0  0  0  0  0  0  0  0
   -4.1400    4.7258   -1.1168 C   0  0  0  0  0  0  0  0  0  0  0  0
   -2.9532    2.6964   -0.2360 C   0  0  0  0  0  0  0  0  0  0  0  0
   -1.7956    2.7794   -1.0319 C   0  0  0  0  0  0  0  0  0  0  0  0
   -1.0876    1.6690   -1.4170 C   0  0  0  0  0  0  0  0  0  0  0  0
   -1.5334    0.4171   -1.0034 C   0  0  0  0  0  0  0  0  0  0  0  0
   -2.6869    0.3073   -0.2114 C   0  0  0  0  0  0  0  0  0  0  0  0
   -3.3926    1.4498    0.1709 C   0  0  0  0  0  0  0  0  0  0  0  0
   -2.8909   -1.0966    0.0576 C   0  0  0  0  0  0  0  0  0  0  0  0
   -3.8531   -1.7811    0.8027 C   0  0  0  0  0  0  0  0  0  0  0  0
   -3.7858   -3.1582    0.9110 C   0  0  0  0  0  0  0  0  0  0  0  0
   -4.8080   -3.9647    1.7264 C   0  0  0  0  0  0  0  0  0  0  0  0
   -4.0816   -4.7026    2.8658 C   0  0  0  0  0  0  0  0  0  0  0  0
   -5.8878   -3.0574    2.3469 C   0  0  0  0  0  0  0  0  0  0  0  0
   -5.5040   -4.9858    0.8078 C   0  0  0  0  0  0  0  0  0  0  0  0
   -2.7385   -3.8379    0.2617 C   0  0  0  0  0  0  0  0  0  0  0  0
   -1.7840   -3.1840   -0.4755 C   0  0  0  0  0  0  0  0  0  0  0  0
   -1.8582   -1.7985   -0.5835 C   0  0  0  0  0  0  0  0  0  0  0  0
   -1.0219   -0.8740   -1.2394 N   0  0  0  0  0  0  0  0  0  0  0  0
    0.1889   -1.1887   -1.9530 C   0  0  0  0  0  0  0  0  0  0  0  0
    0.1460   -2.0202   -3.0861 C   0  0  0  0  0  0  0  0  0  0  0  0
    1.2786   -2.3485   -3.7802 C   0  0  0  0  0  0  0  0  0  0  0  0
    2.5112   -1.8476   -3.3505 C   0  0  0  0  0  0  0  0  0  0  0  0
    3.7859   -2.0288   -3.8611 O   0  0  0  0  0  0  0  0  0  0  0  0
    4.6639   -1.3204   -3.0587 C   0  0  0  0  0  0  0  0  0  0  0  0
    5.9879   -1.2366   -3.2061 N   0  0  0  0  0  0  0  0  0  0  0  0
    6.6023   -0.4912   -2.2859 C   0  0  0  0  0  0  0  0  0  0  0  0
    7.9597   -0.2384   -2.1961 O   0  0  0  0  0  0  0  0  0  0  0  0
    8.1648    0.5740   -1.0965 C   0  0  0  0  0  0  0  0  0  0  0  0
    9.3435    1.1107   -0.5706 C   0  0  0  0  0  0  0  0  0  0  0  0
    9.2760    1.8981    0.5490 C   0  0  0  0  0  0  0  0  0  0  0  0
    8.0568    2.1718    1.1744 C   0  0  0  0  0  0  0  0  0  0  0  0
    8.0284    3.0651    2.4034 C   0  0  0  0  0  0  0  0  0  0  0  0
    9.0070    2.6720    3.2468 F   0  0  0  0  0  0  0  0  0  0  0  0
    8.2367    4.3395    2.0089 F   0  0  0  0  0  0  0  0  0  0  0  0
    6.8227    2.9538    3.0023 F   0  0  0  0  0  0  0  0  0  0  0  0
    6.8879    1.6586    0.6738 C   0  0  0  0  0  0  0  0  0  0  0  0
    6.9399    0.8566   -0.4633 C   0  0  0  0  0  0  0  0  0  0  0  0
    5.9340    0.1788   -1.2191 C   0  0  0  0  0  0  0  0  0  0  0  0
    4.5654    0.0968   -1.0686 C   0  0  0  0  0  0  0  0  0  0  0  0
    3.9311   -0.6745   -2.0193 C   0  0  0  0  0  0  0  0  0  0  0  0
    2.5557   -1.0150   -2.2143 C   0  0  0  0  0  0  0  0  0  0  0  0
    1.3974   -0.6838   -1.5180 C   0  0  0  0  0  0  0  0  0  0  0  0
   -5.6433    3.0785    0.4824 H   0  0  0  0  0  0  0  0  0  0  0  0
   -4.6561    3.1976    1.9454 H   0  0  0  0  0  0  0  0  0  0  0  0
   -5.4363    4.6280    1.2863 H   0  0  0  0  0  0  0  0  0  0  0  0
   -2.3840    4.3743    1.8589 H   0  0  0  0  0  0  0  0  0  0  0  0
   -3.2325    5.8052    1.2758 H   0  0  0  0  0  0  0  0  0  0  0  0
   -1.8593    5.1692    0.3783 H   0  0  0  0  0  0  0  0  0  0  0  0
   -4.7980    4.0944   -1.7122 H   0  0  0  0  0  0  0  0  0  0  0  0
   -3.2910    5.0045   -1.7386 H   0  0  0  0  0  0  0  0  0  0  0  0
   -4.6821    5.6369   -0.8669 H   0  0  0  0  0  0  0  0  0  0  0  0
   -1.4528    3.7497   -1.3492 H   0  0  0  0  0  0  0  0  0  0  0  0
   -0.2061    1.7468   -2.0272 H   0  0  0  0  0  0  0  0  0  0  0  0
   -4.2697    1.3358    0.7796 H   0  0  0  0  0  0  0  0  0  0  0  0
   -4.6293   -1.2182    1.2858 H   0  0  0  0  0  0  0  0  0  0  0  0
   -3.5692   -3.9952    3.5166 H   0  0  0  0  0  0  0  0  0  0  0  0
   -4.7849   -5.2712    3.4727 H   0  0  0  0  0  0  0  0  0  0  0  0
   -3.3390   -5.3977    2.4778 H   0  0  0  0  0  0  0  0  0  0  0  0
   -5.4459   -2.3314    3.0281 H   0  0  0  0  0  0  0  0  0  0  0  0
   -6.4382   -2.5199    1.5759 H   0  0  0  0  0  0  0  0  0  0  0  0
   -6.6066   -3.6462    2.9153 H   0  0  0  0  0  0  0  0  0  0  0  0
   -6.2534   -5.5553    1.3559 H   0  0  0  0  0  0  0  0  0  0  0  0
   -6.0017   -4.4818   -0.0195 H   0  0  0  0  0  0  0  0  0  0  0  0
   -4.7909   -5.6933    0.3884 H   0  0  0  0  0  0  0  0  0  0  0  0
   -2.6821   -4.9096    0.3505 H   0  0  0  0  0  0  0  0  0  0  0  0
   -0.9845   -3.7148   -0.9594 H   0  0  0  0  0  0  0  0  0  0  0  0
   -0.8121   -2.3955   -3.4057 H   0  0  0  0  0  0  0  0  0  0  0  0
    1.2444   -2.9827   -4.6472 H   0  0  0  0  0  0  0  0  0  0  0  0
   10.2795    0.8956   -1.0539 H   0  0  0  0  0  0  0  0  0  0  0  0
   10.1707    2.3223    0.9734 H   0  0  0  0  0  0  0  0  0  0  0  0
    5.9525    1.8728    1.1583 H   0  0  0  0  0  0  0  0  0  0  0  0
    4.0384    0.5903   -0.2740 H   0  0  0  0  0  0  0  0  0  0  0  0
    1.4427   -0.0550   -0.6487 H   0  0  0  0  0  0  0  0  0  0  0  0
  1  2  1  0  0  0  0
  2  3  1  0  0  0  0
  2  4  1  0  0  0  0
  2  5  1  0  0  0  0
  5  6  2  0  0  0  0
  6  7  1  0  0  0  0
  7  8  2  0  0  0  0
  8  9  1  0  0  0  0
  9 10  2  0  0  0  0
  9 11  1  0  0  0  0
 11 12  2  0  0  0  0
 12 13  1  0  0  0  0
 13 14  1  0  0  0  0
 14 15  1  0  0  0  0
 14 16  1  0  0  0  0
 14 17  1  0  0  0  0
 13 18  2  0  0  0  0
 18 19  1  0  0  0  0
 19 20  2  0  0  0  0
 20 21  1  0  0  0  0
 21 22  1  0  0  0  0
 22 23  2  0  0  0  0
 23 24  1  0  0  0  0
 24 25  2  0  0  0  0
 25 26  1  0  0  0  0
 26 27  1  0  0  0  0
 27 28  2  0  0  0  0
 28 29  1  0  0  0  0
 29 30  1  0  0  0  0
 30 31  1  0  0  0  0
 31 32  2  0  0  0  0
 32 33  1  0  0  0  0
 33 34  2  0  0  0  0
 34 35  1  0  0  0  0
 35 36  1  0  0  0  0
 35 37  1  0  0  0  0
 35 38  1  0  0  0  0
 34 39  1  0  0  0  0
 39 40  2  0  0  0  0
 40 41  1  0  0  0  0
 41 42  1  0  0  0  0
 42 43  2  0  0  0  0
 43 44  1  0  0  0  0
 44 45  2  0  0  0  0
 10  5  1  0  0  0  0
 20 11  1  0  0  0  0
 45 22  1  0  0  0  0
 21  8  1  0  0  0  0
 44 25  1  0  0  0  0
 43 27  1  0  0  0  0
 41 29  2  0  0  0  0
 40 31  1  0  0  0  0
  1 46  1  0  0  0  0
  1 47  1  0  0  0  0
  1 48  1  0  0  0  0
  3 49  1  0  0  0  0
  3 50  1  0  0  0  0
  3 51  1  0  0  0  0
  4 52  1  0  0  0  0
  4 53  1  0  0  0  0
  4 54  1  0  0  0  0
  6 55  1  0  0  0  0
  7 56  1  0  0  0  0
 10 57  1  0  0  0  0
 12 58  1  0  0  0  0
 15 59  1  0  0  0  0
 15 60  1  0  0  0  0
 15 61  1  0  0  0  0
 16 62  1  0  0  0  0
 16 63  1  0  0  0  0
 16 64  1  0  0  0  0
 17 65  1  0  0  0  0
 17 66  1  0  0  0  0
 17 67  1  0  0  0  0
 18 68  1  0  0  0  0
 19 69  1  0  0  0  0
 23 70  1  0  0  0  0
 24 71  1  0  0  0  0
 32 72  1  0  0  0  0
 33 73  1  0  0  0  0
 39 74  1  0  0  0  0
 42 75  1  0  0  0  0
 45 76  1  0  0  0  0
M  END
