
  xtb     03012221263D
 energy: -8.634759495509 gnorm: 0.000264509705 xtb: 6.4.1 (afa7bdf)
 42 45  0     0  0            999 V2000
    0.6896   -1.9315   -1.8046 O   0  0  0  0  0  0  0  0  0  0  0  0
    0.0346   -1.4203   -0.9061 C   0  0  0  0  0  0  0  0  0  0  0  0
   -1.0436   -2.1649   -0.2556 C   0  0  0  0  0  0  0  0  0  0  0  0
   -1.4341   -3.4016   -0.7467 C   0  0  0  0  0  0  0  0  0  0  0  0
   -2.4426   -4.1130   -0.1377 C   0  0  0  0  0  0  0  0  0  0  0  0
   -3.0769   -3.5966    0.9804 C   0  0  0  0  0  0  0  0  0  0  0  0
   -2.7018   -2.3750    1.4846 C   0  0  0  0  0  0  0  0  0  0  0  0
   -1.6816   -1.6372    0.8789 C   0  0  0  0  0  0  0  0  0  0  0  0
   -1.2993   -0.4020    1.3769 N   0  0  0  0  0  0  0  0  0  0  0  0
   -0.4524    0.5322    0.6194 C   0  0  0  0  0  0  0  0  0  0  0  0
   -1.2630    1.6784    0.0858 C   0  0  0  0  0  0  0  0  0  0  0  0
   -2.2484    1.4346   -0.8534 C   0  0  0  0  0  0  0  0  0  0  0  0
   -3.0017    2.4704   -1.3653 C   0  0  0  0  0  0  0  0  0  0  0  0
   -2.7734    3.7624   -0.9401 C   0  0  0  0  0  0  0  0  0  0  0  0
   -1.7924    4.0164   -0.0041 C   0  0  0  0  0  0  0  0  0  0  0  0
   -1.0398    2.9794    0.5073 C   0  0  0  0  0  0  0  0  0  0  0  0
    0.3020   -0.1232   -0.4804 N   0  0  0  0  0  0  0  0  0  0  0  0
    1.4034    0.6104   -1.0983 C   0  0  0  0  0  0  0  0  0  0  0  0
    2.7015    0.3456   -0.4103 C   0  0  0  0  0  0  0  0  0  0  0  0
    3.2238   -0.9364   -0.4101 C   0  0  0  0  0  0  0  0  0  0  0  0
    4.4086   -1.2156    0.2371 C   0  0  0  0  0  0  0  0  0  0  0  0
    5.0836   -0.2106    0.8976 C   0  0  0  0  0  0  0  0  0  0  0  0
    4.5697    1.0696    0.9116 C   0  0  0  0  0  0  0  0  0  0  0  0
    3.3836    1.3467    0.2632 C   0  0  0  0  0  0  0  0  0  0  0  0
   -0.9287   -3.7914   -1.6135 H   0  0  0  0  0  0  0  0  0  0  0  0
   -2.7376   -5.0723   -0.5296 H   0  0  0  0  0  0  0  0  0  0  0  0
   -3.8652   -4.1563    1.4564 H   0  0  0  0  0  0  0  0  0  0  0  0
   -3.1893   -1.9711    2.3544 H   0  0  0  0  0  0  0  0  0  0  0  0
   -1.9007    0.0706    2.0507 H   0  0  0  0  0  0  0  0  0  0  0  0
    0.3054    0.9175    1.3157 H   0  0  0  0  0  0  0  0  0  0  0  0
   -2.4148    0.4227   -1.1801 H   0  0  0  0  0  0  0  0  0  0  0  0
   -3.7666    2.2697   -2.0971 H   0  0  0  0  0  0  0  0  0  0  0  0
   -3.3606    4.5732   -1.3394 H   0  0  0  0  0  0  0  0  0  0  0  0
   -1.6129    5.0259    0.3274 H   0  0  0  0  0  0  0  0  0  0  0  0
   -0.2722    3.1745    1.2361 H   0  0  0  0  0  0  0  0  0  0  0  0
    1.4665    0.2997   -2.1453 H   0  0  0  0  0  0  0  0  0  0  0  0
    1.1695    1.6782   -1.0965 H   0  0  0  0  0  0  0  0  0  0  0  0
    2.6734   -1.7122   -0.9142 H   0  0  0  0  0  0  0  0  0  0  0  0
    4.8033   -2.2183    0.2296 H   0  0  0  0  0  0  0  0  0  0  0  0
    6.0095   -0.4260    1.4050 H   0  0  0  0  0  0  0  0  0  0  0  0
    5.0943    1.8543    1.4316 H   0  0  0  0  0  0  0  0  0  0  0  0
    2.9771    2.3432    0.2789 H   0  0  0  0  0  0  0  0  0  0  0  0
  1  2  2  0  0  0  0
  2  3  1  0  0  0  0
  3  4  2  0  0  0  0
  4  5  1  0  0  0  0
  5  6  2  0  0  0  0
  6  7  1  0  0  0  0
  7  8  2  0  0  0  0
  8  9  1  0  0  0  0
  9 10  1  0  0  0  0
 10 11  1  0  0  0  0
 11 12  2  0  0  0  0
 12 13  1  0  0  0  0
 13 14  2  0  0  0  0
 14 15  1  0  0  0  0
 15 16  2  0  0  0  0
 10 17  1  0  0  0  0
 17 18  1  0  0  0  0
 18 19  1  0  0  0  0
 19 20  2  0  0  0  0
 20 21  1  0  0  0  0
 21 22  2  0  0  0  0
 22 23  1  0  0  0  0
 23 24  2  0  0  0  0
 17  2  1  0  0  0  0
 24 19  1  0  0  0  0
  8  3  1  0  0  0  0
 16 11  1  0  0  0  0
  4 25  1  0  0  0  0
  5 26  1  0  0  0  0
  6 27  1  0  0  0  0
  7 28  1  0  0  0  0
  9 29  1  0  0  0  0
 10 30  1  0  0  0  0
 12 31  1  0  0  0  0
 13 32  1  0  0  0  0
 14 33  1  0  0  0  0
 15 34  1  0  0  0  0
 16 35  1  0  0  0  0
 18 36  1  0  0  0  0
 18 37  1  0  0  0  0
 20 38  1  0  0  0  0
 21 39  1  0  0  0  0
 22 40  1  0  0  0  0
 23 41  1  0  0  0  0
 24 42  1  0  0  0  0
M  END
