
  xtb     03012221293D
 energy: -7.601411276426 gnorm: 0.000171413192 xtb: 6.4.1 (afa7bdf)
 37 39  0     0  0            999 V2000
   -7.5273    0.4312    0.6211 C   0  0  0  0  0  0  0  0  0  0  0  0
   -6.0731    0.2250    0.3837 C   0  0  0  0  0  0  0  0  0  0  0  0
   -5.6207   -0.6089   -0.6183 C   0  0  0  0  0  0  0  0  0  0  0  0
   -4.2712   -0.7393   -0.8091 C   0  0  0  0  0  0  0  0  0  0  0  0
   -3.3823   -0.0339   -0.0029 C   0  0  0  0  0  0  0  0  0  0  0  0
   -1.9216   -0.1462   -0.1756 C   0  0  0  0  0  0  0  0  0  0  0  0
   -1.3595   -0.9619   -1.1548 C   0  0  0  0  0  0  0  0  0  0  0  0
   -0.0013   -1.0414   -1.2857 C   0  0  0  0  0  0  0  0  0  0  0  0
    0.8023   -0.2997   -0.4305 C   0  0  0  0  0  0  0  0  0  0  0  0
    2.2489   -0.3647   -0.5440 C   0  0  0  0  0  0  0  0  0  0  0  0
    3.1192    0.3041    0.2300 C   0  0  0  0  0  0  0  0  0  0  0  0
    4.5644    0.2416    0.1229 C   0  0  0  0  0  0  0  0  0  0  0  0
    5.3495    0.9965    1.0027 C   0  0  0  0  0  0  0  0  0  0  0  0
    6.7210    0.9631    0.9333 C   0  0  0  0  0  0  0  0  0  0  0  0
    7.3493    0.1738   -0.0182 C   0  0  0  0  0  0  0  0  0  0  0  0
    9.0698    0.1310   -0.1059 Cl  0  0  0  0  0  0  0  0  0  0  0  0
    6.5892   -0.5813   -0.8990 C   0  0  0  0  0  0  0  0  0  0  0  0
    5.2171   -0.5490   -0.8309 C   0  0  0  0  0  0  0  0  0  0  0  0
    0.1483    0.4847    0.5134 C   0  0  0  0  0  0  0  0  0  0  0  0
   -1.1591    0.5756    0.6560 N   0  0  0  0  0  0  0  0  0  0  0  0
   -3.8131    0.7829    0.9651 N   0  0  0  0  0  0  0  0  0  0  0  0
   -5.1201    0.8915    1.1274 C   0  0  0  0  0  0  0  0  0  0  0  0
   -7.7146    0.7945    1.6319 H   0  0  0  0  0  0  0  0  0  0  0  0
   -8.0795   -0.5007    0.4961 H   0  0  0  0  0  0  0  0  0  0  0  0
   -7.9336    1.1611   -0.0796 H   0  0  0  0  0  0  0  0  0  0  0  0
   -6.3244   -1.1412   -1.2354 H   0  0  0  0  0  0  0  0  0  0  0  0
   -3.9092   -1.3875   -1.5853 H   0  0  0  0  0  0  0  0  0  0  0  0
   -1.9860   -1.5337   -1.8137 H   0  0  0  0  0  0  0  0  0  0  0  0
    0.4474   -1.6676   -2.0376 H   0  0  0  0  0  0  0  0  0  0  0  0
    2.6317   -1.0063   -1.3153 H   0  0  0  0  0  0  0  0  0  0  0  0
    2.7333    0.9447    1.0010 H   0  0  0  0  0  0  0  0  0  0  0  0
    4.8641    1.6097    1.7420 H   0  0  0  0  0  0  0  0  0  0  0  0
    7.3241    1.5436    1.6102 H   0  0  0  0  0  0  0  0  0  0  0  0
    7.0927   -1.1887   -1.6315 H   0  0  0  0  0  0  0  0  0  0  0  0
    4.6420   -1.1397   -1.5202 H   0  0  0  0  0  0  0  0  0  0  0  0
    0.7314    1.0766    1.1965 H   0  0  0  0  0  0  0  0  0  0  0  0
   -5.4493    1.5604    1.9059 H   0  0  0  0  0  0  0  0  0  0  0  0
  1  2  1  0  0  0  0
  2  3  2  0  0  0  0
  3  4  1  0  0  0  0
  4  5  2  0  0  0  0
  5  6  1  0  0  0  0
  6  7  2  0  0  0  0
  7  8  1  0  0  0  0
  8  9  2  0  0  0  0
  9 10  1  0  0  0  0
 10 11  2  0  0  0  0
 11 12  1  0  0  0  0
 12 13  2  0  0  0  0
 13 14  1  0  0  0  0
 14 15  2  0  0  0  0
 15 16  1  0  0  0  0
 15 17  1  0  0  0  0
 17 18  2  0  0  0  0
  9 19  1  0  0  0  0
 19 20  2  0  0  0  0
  5 21  1  0  0  0  0
 21 22  2  0  0  0  0
 22  2  1  0  0  0  0
 20  6  1  0  0  0  0
 18 12  1  0  0  0  0
  1 23  1  0  0  0  0
  1 24  1  0  0  0  0
  1 25  1  0  0  0  0
  3 26  1  0  0  0  0
  4 27  1  0  0  0  0
  7 28  1  0  0  0  0
  8 29  1  0  0  0  0
 10 30  1  0  0  0  0
 11 31  1  0  0  0  0
 13 32  1  0  0  0  0
 14 33  1  0  0  0  0
 17 34  1  0  0  0  0
 18 35  1  0  0  0  0
 19 36  1  0  0  0  0
 22 37  1  0  0  0  0
M  END
