
  xtb     03012221213D
 energy: -9.844561612357 gnorm: 0.000088326548 xtb: 6.4.1 (afa7bdf)
 53 56  0     0  0            999 V2000
   -4.9916   -1.2203   -1.4670 C   0  0  0  0  0  0  0  0  0  0  0  0
   -4.0602   -1.5599   -0.2891 C   0  0  0  0  0  0  0  0  0  0  0  0
   -4.8706   -1.5999    1.0184 C   0  0  0  0  0  0  0  0  0  0  0  0
   -3.4621   -2.9581   -0.5353 C   0  0  0  0  0  0  0  0  0  0  0  0
   -2.9677   -0.4862   -0.1739 C   0  0  0  0  0  0  0  0  0  0  0  0
   -3.3390    0.8594   -0.0056 C   0  0  0  0  0  0  0  0  0  0  0  0
   -2.4160    1.8693    0.1113 C   0  0  0  0  0  0  0  0  0  0  0  0
   -1.0568    1.5596    0.0582 C   0  0  0  0  0  0  0  0  0  0  0  0
   -0.6717    0.2153   -0.0835 C   0  0  0  0  0  0  0  0  0  0  0  0
   -1.6229   -0.7997   -0.2029 C   0  0  0  0  0  0  0  0  0  0  0  0
    0.7661    0.1666   -0.0252 C   0  0  0  0  0  0  0  0  0  0  0  0
    1.6658   -0.8999   -0.0705 C   0  0  0  0  0  0  0  0  0  0  0  0
    3.0209   -0.6652    0.0591 C   0  0  0  0  0  0  0  0  0  0  0  0
    3.9966   -1.8505    0.0046 C   0  0  0  0  0  0  0  0  0  0  0  0
    5.4544   -1.4047    0.2251 C   0  0  0  0  0  0  0  0  0  0  0  0
    3.6310   -2.8647    1.1039 C   0  0  0  0  0  0  0  0  0  0  0  0
    3.8966   -2.5242   -1.3754 C   0  0  0  0  0  0  0  0  0  0  0  0
    3.4613    0.6603    0.2326 C   0  0  0  0  0  0  0  0  0  0  0  0
    2.5895    1.7182    0.2764 C   0  0  0  0  0  0  0  0  0  0  0  0
    1.2216    1.4823    0.1437 C   0  0  0  0  0  0  0  0  0  0  0  0
    0.1101    2.3552    0.1646 N   0  0  0  0  0  0  0  0  0  0  0  0
    0.2165    3.7708    0.3047 C   0  0  0  0  0  0  0  0  0  0  0  0
   -0.7563    4.7047    0.1070 C   0  0  0  0  0  0  0  0  0  0  0  0
   -0.3462    6.0406    0.3967 C   0  0  0  0  0  0  0  0  0  0  0  0
    0.9400    6.1334    0.7958 C   0  0  0  0  0  0  0  0  0  0  0  0
    1.6862    4.5718    0.7776 S   0  0  0  0  0  0  0  0  0  0  0  0
   -4.4277   -1.1579   -2.3974 H   0  0  0  0  0  0  0  0  0  0  0  0
   -5.4939   -0.2661   -1.3151 H   0  0  0  0  0  0  0  0  0  0  0  0
   -5.7599   -1.9835   -1.5886 H   0  0  0  0  0  0  0  0  0  0  0  0
   -5.3535   -0.6433    1.2136 H   0  0  0  0  0  0  0  0  0  0  0  0
   -4.2233   -1.8266    1.8651 H   0  0  0  0  0  0  0  0  0  0  0  0
   -5.6472   -2.3630    0.9730 H   0  0  0  0  0  0  0  0  0  0  0  0
   -4.2507   -3.7037   -0.6343 H   0  0  0  0  0  0  0  0  0  0  0  0
   -2.8236   -3.2640    0.2930 H   0  0  0  0  0  0  0  0  0  0  0  0
   -2.8734   -2.9761   -1.4521 H   0  0  0  0  0  0  0  0  0  0  0  0
   -4.3864    1.1039    0.0436 H   0  0  0  0  0  0  0  0  0  0  0  0
   -2.7370    2.8789    0.2802 H   0  0  0  0  0  0  0  0  0  0  0  0
   -1.2869   -1.8139   -0.3073 H   0  0  0  0  0  0  0  0  0  0  0  0
    1.2903   -1.8975   -0.2033 H   0  0  0  0  0  0  0  0  0  0  0  0
    6.1283   -2.2606    0.1960 H   0  0  0  0  0  0  0  0  0  0  0  0
    5.5745   -0.9238    1.1955 H   0  0  0  0  0  0  0  0  0  0  0  0
    5.7743   -0.7088   -0.5499 H   0  0  0  0  0  0  0  0  0  0  0  0
    2.6271   -3.2619    0.9604 H   0  0  0  0  0  0  0  0  0  0  0  0
    4.3237   -3.7059    1.1040 H   0  0  0  0  0  0  0  0  0  0  0  0
    3.6685   -2.3963    2.0870 H   0  0  0  0  0  0  0  0  0  0  0  0
    4.1389   -1.8160   -2.1673 H   0  0  0  0  0  0  0  0  0  0  0  0
    4.5866   -3.3642   -1.4504 H   0  0  0  0  0  0  0  0  0  0  0  0
    2.8911   -2.9003   -1.5595 H   0  0  0  0  0  0  0  0  0  0  0  0
    4.5140    0.8573    0.3348 H   0  0  0  0  0  0  0  0  0  0  0  0
    2.9501    2.7190    0.4097 H   0  0  0  0  0  0  0  0  0  0  0  0
   -1.7418    4.4698   -0.2599 H   0  0  0  0  0  0  0  0  0  0  0  0
   -1.0063    6.8916    0.3100 H   0  0  0  0  0  0  0  0  0  0  0  0
    1.4490    7.0390    1.0678 H   0  0  0  0  0  0  0  0  0  0  0  0
  1  2  1  0  0  0  0
  2  3  1  0  0  0  0
  2  4  1  0  0  0  0
  2  5  1  0  0  0  0
  5  6  2  0  0  0  0
  6  7  1  0  0  0  0
  7  8  2  0  0  0  0
  8  9  1  0  0  0  0
  9 10  2  0  0  0  0
  9 11  1  0  0  0  0
 11 12  2  0  0  0  0
 12 13  1  0  0  0  0
 13 14  1  0  0  0  0
 14 15  1  0  0  0  0
 14 16  1  0  0  0  0
 14 17  1  0  0  0  0
 13 18  2  0  0  0  0
 18 19  1  0  0  0  0
 19 20  2  0  0  0  0
 20 21  1  0  0  0  0
 21 22  1  0  0  0  0
 22 23  2  0  0  0  0
 23 24  1  0  0  0  0
 24 25  2  0  0  0  0
 25 26  1  0  0  0  0
 10  5  1  0  0  0  0
 20 11  1  0  0  0  0
 26 22  1  0  0  0  0
 21  8  1  0  0  0  0
  1 27  1  0  0  0  0
  1 28  1  0  0  0  0
  1 29  1  0  0  0  0
  3 30  1  0  0  0  0
  3 31  1  0  0  0  0
  3 32  1  0  0  0  0
  4 33  1  0  0  0  0
  4 34  1  0  0  0  0
  4 35  1  0  0  0  0
  6 36  1  0  0  0  0
  7 37  1  0  0  0  0
 10 38  1  0  0  0  0
 12 39  1  0  0  0  0
 15 40  1  0  0  0  0
 15 41  1  0  0  0  0
 15 42  1  0  0  0  0
 16 43  1  0  0  0  0
 16 44  1  0  0  0  0
 16 45  1  0  0  0  0
 17 46  1  0  0  0  0
 17 47  1  0  0  0  0
 17 48  1  0  0  0  0
 18 49  1  0  0  0  0
 19 50  1  0  0  0  0
 23 51  1  0  0  0  0
 24 52  1  0  0  0  0
 25 53  1  0  0  0  0
M  END
