
  xtb     03012221333D
 energy: -4.198692629876 gnorm: 0.000345169344 xtb: 6.4.1 (afa7bdf)
 21 22  0     0  0            999 V2000
   -3.3091    0.4984   -0.0961 C   0  0  0  0  0  0  0  0  0  0  0  0
   -1.8841    0.0676   -0.0461 C   0  0  0  0  0  0  0  0  0  0  0  0
   -1.5678   -1.3043   -0.0035 C   0  0  0  0  0  0  0  0  0  0  0  0
   -0.2747   -1.7297    0.0391 C   0  0  0  0  0  0  0  0  0  0  0  0
    0.7896   -0.8006    0.0413 C   0  0  0  0  0  0  0  0  0  0  0  0
    2.1442   -1.2038    0.0844 C   0  0  0  0  0  0  0  0  0  0  0  0
    3.1437   -0.2783    0.0845 C   0  0  0  0  0  0  0  0  0  0  0  0
    2.8444    1.0899    0.0418 C   0  0  0  0  0  0  0  0  0  0  0  0
    1.5502    1.5127   -0.0004 C   0  0  0  0  0  0  0  0  0  0  0  0
    0.4874    0.5800   -0.0019 C   0  0  0  0  0  0  0  0  0  0  0  0
   -0.8668    0.9838   -0.0457 C   0  0  0  0  0  0  0  0  0  0  0  0
   -3.8620    0.1122    0.7615 H   0  0  0  0  0  0  0  0  0  0  0  0
   -3.7936    0.1319   -1.0022 H   0  0  0  0  0  0  0  0  0  0  0  0
   -3.3983    1.5856   -0.0868 H   0  0  0  0  0  0  0  0  0  0  0  0
   -2.3724   -2.0200   -0.0054 H   0  0  0  0  0  0  0  0  0  0  0  0
   -0.0479   -2.7814    0.0716 H   0  0  0  0  0  0  0  0  0  0  0  0
    2.3743   -2.2549    0.1170 H   0  0  0  0  0  0  0  0  0  0  0  0
    4.1727   -0.5971    0.1174 H   0  0  0  0  0  0  0  0  0  0  0  0
    3.6462    1.8103    0.0425 H   0  0  0  0  0  0  0  0  0  0  0  0
    1.3205    2.5638   -0.0332 H   0  0  0  0  0  0  0  0  0  0  0  0
   -1.0965    2.0336   -0.0795 H   0  0  0  0  0  0  0  0  0  0  0  0
  1  2  1  0  0  0  0
  2  3  2  0  0  0  0
  3  4  1  0  0  0  0
  4  5  2  0  0  0  0
  5  6  1  0  0  0  0
  6  7  2  0  0  0  0
  7  8  1  0  0  0  0
  8  9  2  0  0  0  0
  9 10  1  0  0  0  0
 10 11  2  0  0  0  0
 11  2  1  0  0  0  0
 10  5  1  0  0  0  0
  1 12  1  0  0  0  0
  1 13  1  0  0  0  0
  1 14  1  0  0  0  0
  3 15  1  0  0  0  0
  4 16  1  0  0  0  0
  6 17  1  0  0  0  0
  7 18  1  0  0  0  0
  8 19  1  0  0  0  0
  9 20  1  0  0  0  0
 11 21  1  0  0  0  0
M  END
