
  xtb     03012221213D
 energy: -13.009307313344 gnorm: 0.000183196115 xtb: 6.4.1 (afa7bdf)
 60 66  0     0  0            999 V2000
    5.5700    0.5140   -2.0674 C   0  0  0  0  0  0  0  0  0  0  0  0
    5.1802   -0.7156   -1.6782 C   0  0  0  0  0  0  0  0  0  0  0  0
    4.6636   -1.1173   -0.3764 C   0  0  0  0  0  0  0  0  0  0  0  0
    4.9304   -2.4099    0.0831 C   0  0  0  0  0  0  0  0  0  0  0  0
    4.4611   -2.8506    1.2986 C   0  0  0  0  0  0  0  0  0  0  0  0
    3.7030   -2.0114    2.0926 C   0  0  0  0  0  0  0  0  0  0  0  0
    3.4093   -0.7407    1.6584 C   0  0  0  0  0  0  0  0  0  0  0  0
    3.8622   -0.2730    0.4221 C   0  0  0  0  0  0  0  0  0  0  0  0
    3.4840    1.0823   -0.0283 C   0  0  0  0  0  0  0  0  0  0  0  0
    2.1851    1.5094   -0.0761 C   0  0  0  0  0  0  0  0  0  0  0  0
    0.9837    0.7156    0.0735 C   0  0  0  0  0  0  0  0  0  0  0  0
    0.9585   -0.6705   -0.1292 C   0  0  0  0  0  0  0  0  0  0  0  0
   -0.2037   -1.3871   -0.0046 C   0  0  0  0  0  0  0  0  0  0  0  0
   -1.4130   -0.7522    0.3042 C   0  0  0  0  0  0  0  0  0  0  0  0
   -2.6276   -1.5328    0.4744 C   0  0  0  0  0  0  0  0  0  0  0  0
   -3.9014   -1.1552    0.1593 C   0  0  0  0  0  0  0  0  0  0  0  0
   -4.3683   -0.0248   -0.6577 C   0  0  0  0  0  0  0  0  0  0  0  0
   -3.6865    0.9079   -1.4344 C   0  0  0  0  0  0  0  0  0  0  0  0
   -4.4018    1.8486   -2.1456 C   0  0  0  0  0  0  0  0  0  0  0  0
   -5.7903    1.8643   -2.1111 C   0  0  0  0  0  0  0  0  0  0  0  0
   -6.4864    0.9256   -1.3786 C   0  0  0  0  0  0  0  0  0  0  0  0
   -5.7739   -0.0251   -0.6589 C   0  0  0  0  0  0  0  0  0  0  0  0
   -6.2363   -1.1726    0.1185 C   0  0  0  0  0  0  0  0  0  0  0  0
   -7.5170   -1.6289    0.4024 C   0  0  0  0  0  0  0  0  0  0  0  0
   -7.6612   -2.7751    1.1568 C   0  0  0  0  0  0  0  0  0  0  0  0
   -6.5484   -3.4640    1.6248 C   0  0  0  0  0  0  0  0  0  0  0  0
   -5.2720   -3.0200    1.3468 C   0  0  0  0  0  0  0  0  0  0  0  0
   -5.1106   -1.8678    0.5844 C   0  0  0  0  0  0  0  0  0  0  0  0
   -1.3885    0.6320    0.5163 C   0  0  0  0  0  0  0  0  0  0  0  0
   -0.2257    1.3479    0.3905 C   0  0  0  0  0  0  0  0  0  0  0  0
    4.5670    2.0416   -0.3288 C   0  0  0  0  0  0  0  0  0  0  0  0
    4.5982    3.2775    0.3215 C   0  0  0  0  0  0  0  0  0  0  0  0
    5.5727    4.2062    0.0426 C   0  0  0  0  0  0  0  0  0  0  0  0
    6.5394    3.9257   -0.9041 C   0  0  0  0  0  0  0  0  0  0  0  0
    6.5270    2.7188   -1.5635 C   0  0  0  0  0  0  0  0  0  0  0  0
    5.5588    1.7483   -1.2911 C   0  0  0  0  0  0  0  0  0  0  0  0
    6.0019    0.6037   -3.0518 H   0  0  0  0  0  0  0  0  0  0  0  0
    5.3284   -1.5241   -2.3766 H   0  0  0  0  0  0  0  0  0  0  0  0
    5.5261   -3.0648   -0.5295 H   0  0  0  0  0  0  0  0  0  0  0  0
    4.6868   -3.8498    1.6339 H   0  0  0  0  0  0  0  0  0  0  0  0
    3.3374   -2.3546    3.0463 H   0  0  0  0  0  0  0  0  0  0  0  0
    2.8089   -0.0875    2.2685 H   0  0  0  0  0  0  0  0  0  0  0  0
    2.0303    2.5549   -0.2820 H   0  0  0  0  0  0  0  0  0  0  0  0
    1.8666   -1.1759   -0.4023 H   0  0  0  0  0  0  0  0  0  0  0  0
   -0.2009   -2.4523   -0.1580 H   0  0  0  0  0  0  0  0  0  0  0  0
   -2.5060   -2.5010    0.9312 H   0  0  0  0  0  0  0  0  0  0  0  0
   -2.6146    0.8723   -1.5016 H   0  0  0  0  0  0  0  0  0  0  0  0
   -3.8768    2.5766   -2.7421 H   0  0  0  0  0  0  0  0  0  0  0  0
   -6.3297    2.6078   -2.6749 H   0  0  0  0  0  0  0  0  0  0  0  0
   -7.5620    0.9116   -1.3678 H   0  0  0  0  0  0  0  0  0  0  0  0
   -8.3727   -1.0911    0.0341 H   0  0  0  0  0  0  0  0  0  0  0  0
   -8.6488   -3.1410    1.3855 H   0  0  0  0  0  0  0  0  0  0  0  0
   -6.6846   -4.3561    2.2137 H   0  0  0  0  0  0  0  0  0  0  0  0
   -4.4098   -3.5490    1.7128 H   0  0  0  0  0  0  0  0  0  0  0  0
   -2.2984    1.1286    0.8049 H   0  0  0  0  0  0  0  0  0  0  0  0
   -0.2293    2.4122    0.5511 H   0  0  0  0  0  0  0  0  0  0  0  0
    3.8454    3.4935    1.0605 H   0  0  0  0  0  0  0  0  0  0  0  0
    5.5814    5.1521    0.5588 H   0  0  0  0  0  0  0  0  0  0  0  0
    7.3010    4.6548   -1.1277 H   0  0  0  0  0  0  0  0  0  0  0  0
    7.2779    2.5074   -2.3055 H   0  0  0  0  0  0  0  0  0  0  0  0
  1  2  2  0  0  0  0
  2  3  1  0  0  0  0
  3  4  2  0  0  0  0
  4  5  1  0  0  0  0
  5  6  2  0  0  0  0
  6  7  1  0  0  0  0
  7  8  2  0  0  0  0
  8  9  1  0  0  0  0
  9 10  2  0  0  0  0
 10 11  1  0  0  0  0
 11 12  2  0  0  0  0
 12 13  1  0  0  0  0
 13 14  2  0  0  0  0
 14 15  1  0  0  0  0
 15 16  2  0  0  0  0
 16 17  1  0  0  0  0
 17 18  2  0  0  0  0
 18 19  1  0  0  0  0
 19 20  2  0  0  0  0
 20 21  1  0  0  0  0
 21 22  2  0  0  0  0
 22 23  1  0  0  0  0
 23 24  2  0  0  0  0
 24 25  1  0  0  0  0
 25 26  2  0  0  0  0
 26 27  1  0  0  0  0
 27 28  2  0  0  0  0
 14 29  1  0  0  0  0
 29 30  2  0  0  0  0
  9 31  1  0  0  0  0
 31 32  2  0  0  0  0
 32 33  1  0  0  0  0
 33 34  2  0  0  0  0
 34 35  1  0  0  0  0
 35 36  2  0  0  0  0
 36  1  1  0  0  0  0
  8  3  1  0  0  0  0
 30 11  1  0  0  0  0
 36 31  1  0  0  0  0
 28 16  1  0  0  0  0
 22 17  1  0  0  0  0
 28 23  1  0  0  0  0
  1 37  1  0  0  0  0
  2 38  1  0  0  0  0
  4 39  1  0  0  0  0
  5 40  1  0  0  0  0
  6 41  1  0  0  0  0
  7 42  1  0  0  0  0
 10 43  1  0  0  0  0
 12 44  1  0  0  0  0
 13 45  1  0  0  0  0
 15 46  1  0  0  0  0
 18 47  1  0  0  0  0
 19 48  1  0  0  0  0
 20 49  1  0  0  0  0
 21 50  1  0  0  0  0
 24 51  1  0  0  0  0
 25 52  1  0  0  0  0
 26 53  1  0  0  0  0
 27 54  1  0  0  0  0
 29 55  1  0  0  0  0
 30 56  1  0  0  0  0
 32 57  1  0  0  0  0
 33 58  1  0  0  0  0
 34 59  1  0  0  0  0
 35 60  1  0  0  0  0
M  END
