
  xtb     03012221293D
 energy: -18.877793742998 gnorm: 0.000292512490 xtb: 6.4.1 (afa7bdf)
 84 93  0     0  0            999 V2000
   -3.3952    7.2109    5.0802 N   0  0  0  0  0  0  0  0  0  0  0  0
   -2.8038    6.6498    4.2525 C   0  0  0  0  0  0  0  0  0  0  0  0
   -2.1049    5.9356    3.2686 C   0  0  0  0  0  0  0  0  0  0  0  0
   -2.1764    4.5665    3.2731 C   0  0  0  0  0  0  0  0  0  0  0  0
   -1.5068    3.7732    2.3227 C   0  0  0  0  0  0  0  0  0  0  0  0
   -1.6292    2.4306    2.3943 N   0  0  0  0  0  0  0  0  0  0  0  0
   -0.9631    1.8137    1.4601 C   0  0  0  0  0  0  0  0  0  0  0  0
   -0.1931    2.4611    0.4689 C   0  0  0  0  0  0  0  0  0  0  0  0
   -0.0535    3.7524    0.3712 N   0  0  0  0  0  0  0  0  0  0  0  0
   -0.7305    4.4240    1.3266 C   0  0  0  0  0  0  0  0  0  0  0  0
   -0.6693    5.8301    1.3382 C   0  0  0  0  0  0  0  0  0  0  0  0
   -1.3292    6.5863    2.2720 C   0  0  0  0  0  0  0  0  0  0  0  0
   -1.2156    7.9827    2.2102 C   0  0  0  0  0  0  0  0  0  0  0  0
   -1.1015    9.1362    2.1316 N   0  0  0  0  0  0  0  0  0  0  0  0
    0.4677    1.4783   -0.4944 C   0  0  0  0  0  0  0  0  0  0  0  0
   -0.6674    0.6432   -1.0768 C   0  0  0  0  0  0  0  0  0  0  0  0
   -0.9928    0.4969   -2.4124 C   0  0  0  0  0  0  0  0  0  0  0  0
   -2.0758   -0.2785   -2.7636 C   0  0  0  0  0  0  0  0  0  0  0  0
   -2.8508   -0.9182   -1.7952 C   0  0  0  0  0  0  0  0  0  0  0  0
   -3.9930   -1.6991   -2.1737 N   0  0  0  0  0  0  0  0  0  0  0  0
   -3.9589   -2.4845   -3.3733 C   0  0  0  0  0  0  0  0  0  0  0  0
   -2.7914   -3.1351   -3.7636 C   0  0  0  0  0  0  0  0  0  0  0  0
   -2.7571   -3.8860   -4.9169 C   0  0  0  0  0  0  0  0  0  0  0  0
   -3.8881   -4.0004   -5.7015 C   0  0  0  0  0  0  0  0  0  0  0  0
   -5.0541   -3.3607   -5.3285 C   0  0  0  0  0  0  0  0  0  0  0  0
   -5.0900   -2.6096   -4.1754 C   0  0  0  0  0  0  0  0  0  0  0  0
   -5.1727   -1.6762   -1.3581 C   0  0  0  0  0  0  0  0  0  0  0  0
   -5.9501   -2.8200   -1.1972 C   0  0  0  0  0  0  0  0  0  0  0  0
   -7.0781   -2.7976   -0.4083 C   0  0  0  0  0  0  0  0  0  0  0  0
   -7.4498   -1.6331    0.2350 C   0  0  0  0  0  0  0  0  0  0  0  0
   -6.6896   -0.4897    0.0855 C   0  0  0  0  0  0  0  0  0  0  0  0
   -5.5622   -0.5101   -0.7040 C   0  0  0  0  0  0  0  0  0  0  0  0
   -2.5115   -0.7710   -0.4525 C   0  0  0  0  0  0  0  0  0  0  0  0
   -1.4299    0.0039   -0.0958 C   0  0  0  0  0  0  0  0  0  0  0  0
   -0.9406    0.2938    1.3189 C   0  0  0  0  0  0  0  0  0  0  0  0
    0.5305   -0.1058    1.3553 C   0  0  0  0  0  0  0  0  0  0  0  0
    1.1329   -0.9867    2.2341 C   0  0  0  0  0  0  0  0  0  0  0  0
    2.4865   -1.2221    2.1344 C   0  0  0  0  0  0  0  0  0  0  0  0
    3.2608   -0.5858    1.1633 C   0  0  0  0  0  0  0  0  0  0  0  0
    4.6718   -0.8298    1.0795 N   0  0  0  0  0  0  0  0  0  0  0  0
    5.3171   -0.8586   -0.2011 C   0  0  0  0  0  0  0  0  0  0  0  0
    6.5927   -0.3262   -0.3677 C   0  0  0  0  0  0  0  0  0  0  0  0
    7.2064   -0.3444   -1.5998 C   0  0  0  0  0  0  0  0  0  0  0  0
    6.5576   -0.8952   -2.6877 C   0  0  0  0  0  0  0  0  0  0  0  0
    5.2918   -1.4279   -2.5390 C   0  0  0  0  0  0  0  0  0  0  0  0
    4.6766   -1.4099   -1.3077 C   0  0  0  0  0  0  0  0  0  0  0  0
    5.4416   -0.9955    2.2784 C   0  0  0  0  0  0  0  0  0  0  0  0
    5.1421   -0.2607    3.4227 C   0  0  0  0  0  0  0  0  0  0  0  0
    5.8822   -0.4185    4.5726 C   0  0  0  0  0  0  0  0  0  0  0  0
    6.9345   -1.3129    4.6006 C   0  0  0  0  0  0  0  0  0  0  0  0
    7.2445   -2.0490    3.4737 C   0  0  0  0  0  0  0  0  0  0  0  0
    6.5057   -1.8922    2.3227 C   0  0  0  0  0  0  0  0  0  0  0  0
    2.6457    0.2988    0.2810 C   0  0  0  0  0  0  0  0  0  0  0  0
    1.2920    0.5360    0.3753 C   0  0  0  0  0  0  0  0  0  0  0  0
   -2.7628    4.0729    4.0266 H   0  0  0  0  0  0  0  0  0  0  0  0
   -0.0820    6.3206    0.5834 H   0  0  0  0  0  0  0  0  0  0  0  0
    1.0644    1.9879   -1.2618 H   0  0  0  0  0  0  0  0  0  0  0  0
   -0.4049    0.9977   -3.1611 H   0  0  0  0  0  0  0  0  0  0  0  0
   -2.3508   -0.3863   -3.7978 H   0  0  0  0  0  0  0  0  0  0  0  0
   -1.9169   -3.0487   -3.1424 H   0  0  0  0  0  0  0  0  0  0  0  0
   -1.8477   -4.3852   -5.2072 H   0  0  0  0  0  0  0  0  0  0  0  0
   -3.8607   -4.5881   -6.6043 H   0  0  0  0  0  0  0  0  0  0  0  0
   -5.9356   -3.4479   -5.9417 H   0  0  0  0  0  0  0  0  0  0  0  0
   -5.9915   -2.0986   -3.8851 H   0  0  0  0  0  0  0  0  0  0  0  0
   -5.6481   -3.7267   -1.6918 H   0  0  0  0  0  0  0  0  0  0  0  0
   -7.6705   -3.6897   -0.2908 H   0  0  0  0  0  0  0  0  0  0  0  0
   -8.3315   -1.6166    0.8543 H   0  0  0  0  0  0  0  0  0  0  0  0
   -6.9764    0.4177    0.5905 H   0  0  0  0  0  0  0  0  0  0  0  0
   -4.9716    0.3801   -0.8336 H   0  0  0  0  0  0  0  0  0  0  0  0
   -3.0961   -1.2605    0.3037 H   0  0  0  0  0  0  0  0  0  0  0  0
   -1.5405   -0.2034    2.0918 H   0  0  0  0  0  0  0  0  0  0  0  0
    0.5406   -1.4752    2.9875 H   0  0  0  0  0  0  0  0  0  0  0  0
    2.9669   -1.9097    2.8077 H   0  0  0  0  0  0  0  0  0  0  0  0
    7.0867    0.1134    0.4813 H   0  0  0  0  0  0  0  0  0  0  0  0
    8.1923    0.0740   -1.7163 H   0  0  0  0  0  0  0  0  0  0  0  0
    7.0384   -0.9085   -3.6520 H   0  0  0  0  0  0  0  0  0  0  0  0
    4.7860   -1.8581   -3.3873 H   0  0  0  0  0  0  0  0  0  0  0  0
    3.6936   -1.8298   -1.1827 H   0  0  0  0  0  0  0  0  0  0  0  0
    4.3283    0.4426    3.3899 H   0  0  0  0  0  0  0  0  0  0  0  0
    5.6417    0.1575    5.4506 H   0  0  0  0  0  0  0  0  0  0  0  0
    7.5135   -1.4358    5.5010 H   0  0  0  0  0  0  0  0  0  0  0  0
    8.0645   -2.7474    3.4959 H   0  0  0  0  0  0  0  0  0  0  0  0
    6.7352   -2.4690    1.4437 H   0  0  0  0  0  0  0  0  0  0  0  0
    3.2316    0.8079   -0.4610 H   0  0  0  0  0  0  0  0  0  0  0  0
  1  2  3  0  0  0  0
  2  3  1  0  0  0  0
  3  4  2  0  0  0  0
  4  5  1  0  0  0  0
  5  6  2  0  0  0  0
  6  7  1  0  0  0  0
  7  8  2  0  0  0  0
  8  9  1  0  0  0  0
  9 10  2  0  0  0  0
 10 11  1  0  0  0  0
 11 12  2  0  0  0  0
 12 13  1  0  0  0  0
 13 14  3  0  0  0  0
  8 15  1  0  0  0  0
 15 16  1  0  0  0  0
 16 17  2  0  0  0  0
 17 18  1  0  0  0  0
 18 19  2  0  0  0  0
 19 20  1  0  0  0  0
 20 21  1  0  0  0  0
 21 22  2  0  0  0  0
 22 23  1  0  0  0  0
 23 24  2  0  0  0  0
 24 25  1  0  0  0  0
 25 26  2  0  0  0  0
 20 27  1  0  0  0  0
 27 28  2  0  0  0  0
 28 29  1  0  0  0  0
 29 30  2  0  0  0  0
 30 31  1  0  0  0  0
 31 32  2  0  0  0  0
 19 33  1  0  0  0  0
 33 34  2  0  0  0  0
 34 35  1  0  0  0  0
 35 36  1  0  0  0  0
 36 37  2  0  0  0  0
 37 38  1  0  0  0  0
 38 39  2  0  0  0  0
 39 40  1  0  0  0  0
 40 41  1  0  0  0  0
 41 42  2  0  0  0  0
 42 43  1  0  0  0  0
 43 44  2  0  0  0  0
 44 45  1  0  0  0  0
 45 46  2  0  0  0  0
 40 47  1  0  0  0  0
 47 48  2  0  0  0  0
 48 49  1  0  0  0  0
 49 50  2  0  0  0  0
 50 51  1  0  0  0  0
 51 52  2  0  0  0  0
 39 53  1  0  0  0  0
 53 54  2  0  0  0  0
 12  3  1  0  0  0  0
 54 15  1  0  0  0  0
 10  5  1  0  0  0  0
 34 16  1  0  0  0  0
 54 36  1  0  0  0  0
 35  7  1  0  0  0  0
 46 41  1  0  0  0  0
 52 47  1  0  0  0  0
 26 21  1  0  0  0  0
 32 27  1  0  0  0  0
  4 55  1  0  0  0  0
 11 56  1  0  0  0  0
 15 57  1  0  0  0  0
 17 58  1  0  0  0  0
 18 59  1  0  0  0  0
 22 60  1  0  0  0  0
 23 61  1  0  0  0  0
 24 62  1  0  0  0  0
 25 63  1  0  0  0  0
 26 64  1  0  0  0  0
 28 65  1  0  0  0  0
 29 66  1  0  0  0  0
 30 67  1  0  0  0  0
 31 68  1  0  0  0  0
 32 69  1  0  0  0  0
 33 70  1  0  0  0  0
 35 71  1  0  0  0  0
 37 72  1  0  0  0  0
 38 73  1  0  0  0  0
 42 74  1  0  0  0  0
 43 75  1  0  0  0  0
 44 76  1  0  0  0  0
 45 77  1  0  0  0  0
 46 78  1  0  0  0  0
 48 79  1  0  0  0  0
 49 80  1  0  0  0  0
 50 81  1  0  0  0  0
 51 82  1  0  0  0  0
 52 83  1  0  0  0  0
 53 84  1  0  0  0  0
M  END
