
  xtb     03012221233D
 energy: -6.969859881334 gnorm: 0.000184627007 xtb: 6.4.1 (afa7bdf)
 35 38  0     0  0            999 V2000
   -5.0793   -1.8696    0.3055 O   0  0  0  0  0  0  0  0  0  0  0  0
   -4.2795   -0.9885    0.0451 C   0  0  0  0  0  0  0  0  0  0  0  0
   -4.6788    0.2382   -0.4648 N   0  0  0  0  0  0  0  0  0  0  0  0
   -3.8308    1.2905   -0.7835 C   0  0  0  0  0  0  0  0  0  0  0  0
   -4.2543    2.3478   -1.2204 O   0  0  0  0  0  0  0  0  0  0  0  0
   -2.4006    1.0835   -0.5751 C   0  0  0  0  0  0  0  0  0  0  0  0
   -1.5007    2.0933   -0.8514 C   0  0  0  0  0  0  0  0  0  0  0  0
   -0.1471    1.9079   -0.6759 C   0  0  0  0  0  0  0  0  0  0  0  0
    0.3744    0.6943   -0.2255 C   0  0  0  0  0  0  0  0  0  0  0  0
    1.7675    0.5011   -0.1695 N   0  0  0  0  0  0  0  0  0  0  0  0
    2.4445   -0.6558   -0.7971 C   0  0  0  0  0  0  0  0  0  0  0  0
    3.6368   -1.0815    0.0526 C   0  0  0  0  0  0  0  0  0  0  0  0
    4.5340    0.0032    0.2521 O   0  0  0  0  0  0  0  0  0  0  0  0
    3.9056    1.1162    0.8763 C   0  0  0  0  0  0  0  0  0  0  0  0
    2.7043    1.6135    0.0749 C   0  0  0  0  0  0  0  0  0  0  0  0
   -0.5449   -0.3535    0.1303 C   0  0  0  0  0  0  0  0  0  0  0  0
   -0.1255   -1.5521    0.7279 C   0  0  0  0  0  0  0  0  0  0  0  0
   -1.0222   -2.5342    1.0534 C   0  0  0  0  0  0  0  0  0  0  0  0
   -2.3770   -2.3574    0.8114 C   0  0  0  0  0  0  0  0  0  0  0  0
   -2.8434   -1.1859    0.2647 C   0  0  0  0  0  0  0  0  0  0  0  0
   -1.9319   -0.1539   -0.0701 C   0  0  0  0  0  0  0  0  0  0  0  0
   -5.6666    0.3791   -0.6119 H   0  0  0  0  0  0  0  0  0  0  0  0
   -1.8850    3.0285   -1.2227 H   0  0  0  0  0  0  0  0  0  0  0  0
    0.5325    2.6974   -0.9426 H   0  0  0  0  0  0  0  0  0  0  0  0
    2.7893   -0.3397   -1.7850 H   0  0  0  0  0  0  0  0  0  0  0  0
    1.7354   -1.4706   -0.9651 H   0  0  0  0  0  0  0  0  0  0  0  0
    3.3143   -1.4299    1.0406 H   0  0  0  0  0  0  0  0  0  0  0  0
    4.2034   -1.8992   -0.4125 H   0  0  0  0  0  0  0  0  0  0  0  0
    4.6686    1.8970    0.9956 H   0  0  0  0  0  0  0  0  0  0  0  0
    3.6022    0.8033    1.8825 H   0  0  0  0  0  0  0  0  0  0  0  0
    3.0273    2.0140   -0.8890 H   0  0  0  0  0  0  0  0  0  0  0  0
    2.1809    2.4144    0.6054 H   0  0  0  0  0  0  0  0  0  0  0  0
    0.9135   -1.6783    0.9705 H   0  0  0  0  0  0  0  0  0  0  0  0
   -0.6779   -3.4477    1.5093 H   0  0  0  0  0  0  0  0  0  0  0  0
   -3.0893   -3.1255    1.0642 H   0  0  0  0  0  0  0  0  0  0  0  0
  1  2  2  0  0  0  0
  2  3  1  0  0  0  0
  3  4  1  0  0  0  0
  4  5  2  0  0  0  0
  4  6  1  0  0  0  0
  6  7  1  0  0  0  0
  7  8  2  0  0  0  0
  8  9  1  0  0  0  0
  9 10  1  0  0  0  0
 10 11  1  0  0  0  0
 11 12  1  0  0  0  0
 12 13  1  0  0  0  0
 13 14  1  0  0  0  0
 14 15  1  0  0  0  0
  9 16  2  0  0  0  0
 16 17  1  0  0  0  0
 17 18  2  0  0  0  0
 18 19  1  0  0  0  0
 19 20  2  0  0  0  0
 20 21  1  0  0  0  0
 20  2  1  0  0  0  0
 21  6  2  0  0  0  0
 15 10  1  0  0  0  0
 21 16  1  0  0  0  0
  3 22  1  0  0  0  0
  7 23  1  0  0  0  0
  8 24  1  0  0  0  0
 11 25  1  0  0  0  0
 11 26  1  0  0  0  0
 12 27  1  0  0  0  0
 12 28  1  0  0  0  0
 14 29  1  0  0  0  0
 14 30  1  0  0  0  0
 15 31  1  0  0  0  0
 15 32  1  0  0  0  0
 17 33  1  0  0  0  0
 18 34  1  0  0  0  0
 19 35  1  0  0  0  0
M  END
