
  xtb     03012221223D
 energy: -10.422061616615 gnorm: 0.000255336961 xtb: 6.4.1 (afa7bdf)
 50 54  0     0  0            999 V2000
   -0.5764   -0.7969    2.3423 C   0  0  0  0  0  0  0  0  0  0  0  0
   -0.9220    0.5374    1.7228 C   0  0  0  0  0  0  0  0  0  0  0  0
   -1.6261    0.3907    0.4425 N   0  0  0  0  0  0  0  0  0  0  0  0
   -3.0172    0.4774    0.3012 C   0  0  0  0  0  0  0  0  0  0  0  0
   -4.0300    0.7454    1.2276 C   0  0  0  0  0  0  0  0  0  0  0  0
   -5.3323    0.7596    0.7963 C   0  0  0  0  0  0  0  0  0  0  0  0
   -5.6539    0.5100   -0.5430 C   0  0  0  0  0  0  0  0  0  0  0  0
   -4.6747    0.2403   -1.4657 C   0  0  0  0  0  0  0  0  0  0  0  0
   -3.3418    0.2226   -1.0430 C   0  0  0  0  0  0  0  0  0  0  0  0
   -2.1091   -0.0455   -1.7357 C   0  0  0  0  0  0  0  0  0  0  0  0
   -1.8581   -0.3941   -3.0682 C   0  0  0  0  0  0  0  0  0  0  0  0
   -0.5645   -0.6402   -3.4510 C   0  0  0  0  0  0  0  0  0  0  0  0
    0.4816   -0.5466   -2.5335 C   0  0  0  0  0  0  0  0  0  0  0  0
    0.2708   -0.1964   -1.2094 C   0  0  0  0  0  0  0  0  0  0  0  0
    1.3914   -0.1199   -0.3067 N   0  0  0  0  0  0  0  0  0  0  0  0
    1.8235    1.1599    0.1728 C   0  0  0  0  0  0  0  0  0  0  0  0
    2.5208    1.2833    1.3729 C   0  0  0  0  0  0  0  0  0  0  0  0
    2.9041    2.5209    1.8392 C   0  0  0  0  0  0  0  0  0  0  0  0
    2.5952    3.6589    1.1197 C   0  0  0  0  0  0  0  0  0  0  0  0
    1.8962    3.5544   -0.0670 C   0  0  0  0  0  0  0  0  0  0  0  0
    1.5113    2.3181   -0.5349 C   0  0  0  0  0  0  0  0  0  0  0  0
    2.1856   -1.3001   -0.1200 C   0  0  0  0  0  0  0  0  0  0  0  0
    1.5861   -2.5571   -0.1633 C   0  0  0  0  0  0  0  0  0  0  0  0
    2.3348   -3.7015   -0.0053 C   0  0  0  0  0  0  0  0  0  0  0  0
    3.6994   -3.6143    0.1893 C   0  0  0  0  0  0  0  0  0  0  0  0
    4.3125   -2.3769    0.2177 C   0  0  0  0  0  0  0  0  0  0  0  0
    3.5651   -1.2309    0.0608 C   0  0  0  0  0  0  0  0  0  0  0  0
   -1.0623    0.0606   -0.8017 C   0  0  0  0  0  0  0  0  0  0  0  0
    0.0741   -1.3727    1.6844 H   0  0  0  0  0  0  0  0  0  0  0  0
   -1.4746   -1.3937    2.5083 H   0  0  0  0  0  0  0  0  0  0  0  0
   -0.0639   -0.6869    3.3003 H   0  0  0  0  0  0  0  0  0  0  0  0
   -1.5507    1.1296    2.3950 H   0  0  0  0  0  0  0  0  0  0  0  0
   -0.0296    1.1433    1.5535 H   0  0  0  0  0  0  0  0  0  0  0  0
   -3.7830    0.9311    2.2573 H   0  0  0  0  0  0  0  0  0  0  0  0
   -6.1230    0.9648    1.4998 H   0  0  0  0  0  0  0  0  0  0  0  0
   -6.6864    0.5274   -0.8520 H   0  0  0  0  0  0  0  0  0  0  0  0
   -4.9132    0.0421   -2.4956 H   0  0  0  0  0  0  0  0  0  0  0  0
   -2.6739   -0.4715   -3.7650 H   0  0  0  0  0  0  0  0  0  0  0  0
   -0.3525   -0.9127   -4.4718 H   0  0  0  0  0  0  0  0  0  0  0  0
    1.4906   -0.7460   -2.8501 H   0  0  0  0  0  0  0  0  0  0  0  0
    2.7352    0.3980    1.9453 H   0  0  0  0  0  0  0  0  0  0  0  0
    3.4419    2.6023    2.7697 H   0  0  0  0  0  0  0  0  0  0  0  0
    2.8955    4.6270    1.4857 H   0  0  0  0  0  0  0  0  0  0  0  0
    1.6499    4.4420   -0.6268 H   0  0  0  0  0  0  0  0  0  0  0  0
    0.9624    2.2316   -1.4558 H   0  0  0  0  0  0  0  0  0  0  0  0
    0.5245   -2.6202   -0.3256 H   0  0  0  0  0  0  0  0  0  0  0  0
    1.8556   -4.6665   -0.0362 H   0  0  0  0  0  0  0  0  0  0  0  0
    4.2855   -4.5104    0.3120 H   0  0  0  0  0  0  0  0  0  0  0  0
    5.3790   -2.3085    0.3583 H   0  0  0  0  0  0  0  0  0  0  0  0
    4.0464   -0.2692    0.0528 H   0  0  0  0  0  0  0  0  0  0  0  0
  1  2  1  0  0  0  0
  2  3  1  0  0  0  0
  3  4  1  0  0  0  0
  4  5  2  0  0  0  0
  5  6  1  0  0  0  0
  6  7  2  0  0  0  0
  7  8  1  0  0  0  0
  8  9  2  0  0  0  0
  9 10  1  0  0  0  0
 10 11  2  0  0  0  0
 11 12  1  0  0  0  0
 12 13  2  0  0  0  0
 13 14  1  0  0  0  0
 14 15  1  0  0  0  0
 15 16  1  0  0  0  0
 16 17  2  0  0  0  0
 17 18  1  0  0  0  0
 18 19  2  0  0  0  0
 19 20  1  0  0  0  0
 20 21  2  0  0  0  0
 15 22  1  0  0  0  0
 22 23  2  0  0  0  0
 23 24  1  0  0  0  0
 24 25  2  0  0  0  0
 25 26  1  0  0  0  0
 26 27  2  0  0  0  0
 14 28  2  0  0  0  0
 28  3  1  0  0  0  0
  9  4  1  0  0  0  0
 28 10  1  0  0  0  0
 21 16  1  0  0  0  0
 27 22  1  0  0  0  0
  1 29  1  0  0  0  0
  1 30  1  0  0  0  0
  1 31  1  0  0  0  0
  2 32  1  0  0  0  0
  2 33  1  0  0  0  0
  5 34  1  0  0  0  0
  6 35  1  0  0  0  0
  7 36  1  0  0  0  0
  8 37  1  0  0  0  0
 11 38  1  0  0  0  0
 12 39  1  0  0  0  0
 13 40  1  0  0  0  0
 17 41  1  0  0  0  0
 18 42  1  0  0  0  0
 19 43  1  0  0  0  0
 20 44  1  0  0  0  0
 21 45  1  0  0  0  0
 23 46  1  0  0  0  0
 24 47  1  0  0  0  0
 25 48  1  0  0  0  0
 26 49  1  0  0  0  0
 27 50  1  0  0  0  0
M  END
