
  xtb     03012221263D
 energy: -20.560505837028 gnorm: 0.000486331186 xtb: 6.4.1 (afa7bdf)
102110  0     0  0            999 V2000
   14.5747    1.3364   -2.2025 C   0  0  0  0  0  0  0  0  0  0  0  0
   14.4313    0.0560   -1.4091 C   0  0  0  0  0  0  0  0  0  0  0  0
   13.5519    0.2263   -0.2381 N   0  0  0  0  0  0  0  0  0  0  0  0
   14.2499    0.4785    1.0359 C   0  0  0  0  0  0  0  0  0  0  0  0
   14.3985   -0.7808    1.8617 C   0  0  0  0  0  0  0  0  0  0  0  0
   12.1566    0.1598   -0.3283 C   0  0  0  0  0  0  0  0  0  0  0  0
   11.5119   -0.0426   -1.5672 C   0  0  0  0  0  0  0  0  0  0  0  0
   10.1522   -0.1074   -1.6530 C   0  0  0  0  0  0  0  0  0  0  0  0
    9.3504    0.0266   -0.5068 C   0  0  0  0  0  0  0  0  0  0  0  0
    7.9434   -0.0319   -0.5547 C   0  0  0  0  0  0  0  0  0  0  0  0
    7.1775    0.1043    0.5621 C   0  0  0  0  0  0  0  0  0  0  0  0
    5.7133    0.0461    0.4770 C   0  0  0  0  0  0  0  0  0  0  0  0
    4.9273   -0.2206    1.6010 C   0  0  0  0  0  0  0  0  0  0  0  0
    3.5620   -0.3007    1.5247 C   0  0  0  0  0  0  0  0  0  0  0  0
    2.8987   -0.1092    0.3073 C   0  0  0  0  0  0  0  0  0  0  0  0
    1.4210   -0.1832    0.2176 C   0  0  0  0  0  0  0  0  0  0  0  0
    0.7364   -1.3808    0.5621 C   0  0  0  0  0  0  0  0  0  0  0  0
    1.4425   -2.5368    0.9722 C   0  0  0  0  0  0  0  0  0  0  0  0
    0.7898   -3.6803    1.3221 C   0  0  0  0  0  0  0  0  0  0  0  0
   -0.6068   -3.7335    1.2828 C   0  0  0  0  0  0  0  0  0  0  0  0
   -1.3228   -2.6486    0.8753 C   0  0  0  0  0  0  0  0  0  0  0  0
   -0.6840   -1.4482    0.4822 C   0  0  0  0  0  0  0  0  0  0  0  0
   -1.4338   -0.3251    0.0365 C   0  0  0  0  0  0  0  0  0  0  0  0
   -2.9113   -0.3949   -0.0542 C   0  0  0  0  0  0  0  0  0  0  0  0
   -3.7231    0.4795    0.6788 C   0  0  0  0  0  0  0  0  0  0  0  0
   -5.0895    0.4236    0.5867 C   0  0  0  0  0  0  0  0  0  0  0  0
   -5.7253   -0.5088   -0.2407 C   0  0  0  0  0  0  0  0  0  0  0  0
   -7.1866   -0.5431   -0.3705 C   0  0  0  0  0  0  0  0  0  0  0  0
   -7.9357    0.5506   -0.0632 C   0  0  0  0  0  0  0  0  0  0  0  0
   -9.3387    0.5526   -0.1920 C   0  0  0  0  0  0  0  0  0  0  0  0
  -10.1245    1.6759    0.1164 C   0  0  0  0  0  0  0  0  0  0  0  0
  -11.4804    1.6419   -0.0261 C   0  0  0  0  0  0  0  0  0  0  0  0
  -12.1380    0.4808   -0.4860 C   0  0  0  0  0  0  0  0  0  0  0  0
  -13.5305    0.4424   -0.6288 N   0  0  0  0  0  0  0  0  0  0  0  0
  -14.3807    1.6148   -0.3470 C   0  0  0  0  0  0  0  0  0  0  0  0
  -14.6662    1.7801    1.1298 C   0  0  0  0  0  0  0  0  0  0  0  0
  -14.2461   -0.7942   -0.9989 C   0  0  0  0  0  0  0  0  0  0  0  0
  -14.3183   -1.7846    0.1437 C   0  0  0  0  0  0  0  0  0  0  0  0
  -11.3551   -0.6267   -0.7938 C   0  0  0  0  0  0  0  0  0  0  0  0
   -9.9718   -0.6165   -0.6565 C   0  0  0  0  0  0  0  0  0  0  0  0
   -9.2510   -1.7520   -0.9824 O   0  0  0  0  0  0  0  0  0  0  0  0
   -7.8751   -1.7519   -0.8537 C   0  0  0  0  0  0  0  0  0  0  0  0
   -7.2148   -2.7421   -1.1340 O   0  0  0  0  0  0  0  0  0  0  0  0
   -4.9110   -1.3914   -0.9546 C   0  0  0  0  0  0  0  0  0  0  0  0
   -3.5448   -1.3379   -0.8721 C   0  0  0  0  0  0  0  0  0  0  0  0
   -0.7482    0.8693   -0.3179 C   0  0  0  0  0  0  0  0  0  0  0  0
   -1.4475    2.0030   -0.7966 C   0  0  0  0  0  0  0  0  0  0  0  0
   -0.7970    3.1571   -1.1141 C   0  0  0  0  0  0  0  0  0  0  0  0
    0.5910    3.2443   -0.9714 C   0  0  0  0  0  0  0  0  0  0  0  0
    1.3038    2.1686   -0.5349 C   0  0  0  0  0  0  0  0  0  0  0  0
    0.6702    0.9440   -0.2155 C   0  0  0  0  0  0  0  0  0  0  0  0
    3.6793    0.1705   -0.8208 C   0  0  0  0  0  0  0  0  0  0  0  0
    5.0453    0.2468   -0.7366 C   0  0  0  0  0  0  0  0  0  0  0  0
    7.8558    0.3016    1.8549 C   0  0  0  0  0  0  0  0  0  0  0  0
    7.1856    0.4136    2.8713 O   0  0  0  0  0  0  0  0  0  0  0  0
    9.2358    0.3580    1.9052 O   0  0  0  0  0  0  0  0  0  0  0  0
    9.9715    0.2272    0.7408 C   0  0  0  0  0  0  0  0  0  0  0  0
   11.3588    0.2910    0.8029 C   0  0  0  0  0  0  0  0  0  0  0  0
   15.2185    1.2105   -3.0762 H   0  0  0  0  0  0  0  0  0  0  0  0
   13.6052    1.6942   -2.5529 H   0  0  0  0  0  0  0  0  0  0  0  0
   15.0012    2.1305   -1.5870 H   0  0  0  0  0  0  0  0  0  0  0  0
   15.4081   -0.2952   -1.0603 H   0  0  0  0  0  0  0  0  0  0  0  0
   14.0402   -0.7590   -2.0258 H   0  0  0  0  0  0  0  0  0  0  0  0
   13.7099    1.2577    1.5827 H   0  0  0  0  0  0  0  0  0  0  0  0
   15.2298    0.9142    0.8139 H   0  0  0  0  0  0  0  0  0  0  0  0
   14.9716   -1.5360    1.3208 H   0  0  0  0  0  0  0  0  0  0  0  0
   14.9064   -0.5941    2.8107 H   0  0  0  0  0  0  0  0  0  0  0  0
   13.4265   -1.2225    2.0869 H   0  0  0  0  0  0  0  0  0  0  0  0
   12.1014   -0.1428   -2.4597 H   0  0  0  0  0  0  0  0  0  0  0  0
    9.6758   -0.2616   -2.6057 H   0  0  0  0  0  0  0  0  0  0  0  0
    7.4804   -0.2150   -1.5057 H   0  0  0  0  0  0  0  0  0  0  0  0
    5.4164   -0.3477    2.5503 H   0  0  0  0  0  0  0  0  0  0  0  0
    2.9799   -0.4924    2.4091 H   0  0  0  0  0  0  0  0  0  0  0  0
    2.5167   -2.5080    0.9994 H   0  0  0  0  0  0  0  0  0  0  0  0
    1.3478   -4.5476    1.6345 H   0  0  0  0  0  0  0  0  0  0  0  0
   -1.1150   -4.6381    1.5736 H   0  0  0  0  0  0  0  0  0  0  0  0
   -2.3965   -2.6973    0.8579 H   0  0  0  0  0  0  0  0  0  0  0  0
   -3.2544    1.1937    1.3330 H   0  0  0  0  0  0  0  0  0  0  0  0
   -5.6834    1.0923    1.1843 H   0  0  0  0  0  0  0  0  0  0  0  0
   -7.4570    1.4564    0.2579 H   0  0  0  0  0  0  0  0  0  0  0  0
   -9.6379    2.5689    0.4691 H   0  0  0  0  0  0  0  0  0  0  0  0
  -12.0569    2.5141    0.2211 H   0  0  0  0  0  0  0  0  0  0  0  0
  -15.3136    1.5177   -0.9115 H   0  0  0  0  0  0  0  0  0  0  0  0
  -13.8923    2.5021   -0.7618 H   0  0  0  0  0  0  0  0  0  0  0  0
  -15.2209    0.9257    1.5205 H   0  0  0  0  0  0  0  0  0  0  0  0
  -15.2542    2.6773    1.3370 H   0  0  0  0  0  0  0  0  0  0  0  0
  -13.7421    1.8485    1.7059 H   0  0  0  0  0  0  0  0  0  0  0  0
  -15.2521   -0.5316   -1.3410 H   0  0  0  0  0  0  0  0  0  0  0  0
  -13.7526   -1.2281   -1.8743 H   0  0  0  0  0  0  0  0  0  0  0  0
  -14.8646   -1.3677    0.9911 H   0  0  0  0  0  0  0  0  0  0  0  0
  -14.8178   -2.7118   -0.1470 H   0  0  0  0  0  0  0  0  0  0  0  0
  -13.3230   -2.0451    0.5070 H   0  0  0  0  0  0  0  0  0  0  0  0
  -11.8059   -1.5284   -1.1582 H   0  0  0  0  0  0  0  0  0  0  0  0
   -5.3811   -2.1338   -1.5752 H   0  0  0  0  0  0  0  0  0  0  0  0
   -2.9402   -2.0174   -1.4470 H   0  0  0  0  0  0  0  0  0  0  0  0
   -2.5138    1.9434   -0.9185 H   0  0  0  0  0  0  0  0  0  0  0  0
   -1.3509    4.0087   -1.4734 H   0  0  0  0  0  0  0  0  0  0  0  0
    1.0953    4.1658   -1.2112 H   0  0  0  0  0  0  0  0  0  0  0  0
    2.3696    2.2486   -0.4194 H   0  0  0  0  0  0  0  0  0  0  0  0
    3.1865    0.3189   -1.7658 H   0  0  0  0  0  0  0  0  0  0  0  0
    5.6102    0.4914   -1.6184 H   0  0  0  0  0  0  0  0  0  0  0  0
   11.8011    0.4431    1.7675 H   0  0  0  0  0  0  0  0  0  0  0  0
  1  2  1  0  0  0  0
  2  3  1  0  0  0  0
  3  4  1  0  0  0  0
  4  5  1  0  0  0  0
  3  6  1  0  0  0  0
  6  7  2  0  0  0  0
  7  8  1  0  0  0  0
  8  9  2  0  0  0  0
  9 10  1  0  0  0  0
 10 11  2  0  0  0  0
 11 12  1  0  0  0  0
 12 13  2  0  0  0  0
 13 14  1  0  0  0  0
 14 15  2  0  0  0  0
 15 16  1  0  0  0  0
 16 17  1  0  0  0  0
 17 18  2  0  0  0  0
 18 19  1  0  0  0  0
 19 20  2  0  0  0  0
 20 21  1  0  0  0  0
 21 22  2  0  0  0  0
 22 23  1  0  0  0  0
 23 24  1  0  0  0  0
 24 25  2  0  0  0  0
 25 26  1  0  0  0  0
 26 27  2  0  0  0  0
 27 28  1  0  0  0  0
 28 29  2  0  0  0  0
 29 30  1  0  0  0  0
 30 31  2  0  0  0  0
 31 32  1  0  0  0  0
 32 33  2  0  0  0  0
 33 34  1  0  0  0  0
 34 35  1  0  0  0  0
 35 36  1  0  0  0  0
 34 37  1  0  0  0  0
 37 38  1  0  0  0  0
 33 39  1  0  0  0  0
 39 40  2  0  0  0  0
 40 41  1  0  0  0  0
 41 42  1  0  0  0  0
 42 43  2  0  0  0  0
 27 44  1  0  0  0  0
 44 45  2  0  0  0  0
 23 46  2  0  0  0  0
 46 47  1  0  0  0  0
 47 48  2  0  0  0  0
 48 49  1  0  0  0  0
 49 50  2  0  0  0  0
 50 51  1  0  0  0  0
 15 52  1  0  0  0  0
 52 53  2  0  0  0  0
 11 54  1  0  0  0  0
 54 55  2  0  0  0  0
 54 56  1  0  0  0  0
 56 57  1  0  0  0  0
 57 58  2  0  0  0  0
 58  6  1  0  0  0  0
 57  9  1  0  0  0  0
 53 12  1  0  0  0  0
 51 16  2  0  0  0  0
 22 17  1  0  0  0  0
 45 24  1  0  0  0  0
 51 46  1  0  0  0  0
 42 28  1  0  0  0  0
 40 30  1  0  0  0  0
  1 59  1  0  0  0  0
  1 60  1  0  0  0  0
  1 61  1  0  0  0  0
  2 62  1  0  0  0  0
  2 63  1  0  0  0  0
  4 64  1  0  0  0  0
  4 65  1  0  0  0  0
  5 66  1  0  0  0  0
  5 67  1  0  0  0  0
  5 68  1  0  0  0  0
  7 69  1  0  0  0  0
  8 70  1  0  0  0  0
 10 71  1  0  0  0  0
 13 72  1  0  0  0  0
 14 73  1  0  0  0  0
 18 74  1  0  0  0  0
 19 75  1  0  0  0  0
 20 76  1  0  0  0  0
 21 77  1  0  0  0  0
 25 78  1  0  0  0  0
 26 79  1  0  0  0  0
 29 80  1  0  0  0  0
 31 81  1  0  0  0  0
 32 82  1  0  0  0  0
 35 83  1  0  0  0  0
 35 84  1  0  0  0  0
 36 85  1  0  0  0  0
 36 86  1  0  0  0  0
 36 87  1  0  0  0  0
 37 88  1  0  0  0  0
 37 89  1  0  0  0  0
 38 90  1  0  0  0  0
 38 91  1  0  0  0  0
 38 92  1  0  0  0  0
 39 93  1  0  0  0  0
 44 94  1  0  0  0  0
 45 95  1  0  0  0  0
 47 96  1  0  0  0  0
 48 97  1  0  0  0  0
 49 98  1  0  0  0  0
 50 99  1  0  0  0  0
 52100  1  0  0  0  0
 53101  1  0  0  0  0
 58102  1  0  0  0  0
M  END
