
  xtb     03012221313D
 energy: -5.734190184336 gnorm: 0.000422255172 xtb: 6.4.1 (afa7bdf)
 29 30  0     0  0            999 V2000
    3.3775   -1.7457   -0.1227 C   0  0  0  0  0  0  0  0  0  0  0  0
    2.4518   -0.5958   -0.0583 C   0  0  0  0  0  0  0  0  0  0  0  0
    1.1521   -0.6937   -0.0921 N   0  0  0  0  0  0  0  0  0  0  0  0
    0.6330    0.5806   -0.0141 C   0  0  0  0  0  0  0  0  0  0  0  0
   -0.6806    0.9619   -0.0061 C   0  0  0  0  0  0  0  0  0  0  0  0
   -1.8055    0.0902   -0.0765 C   0  0  0  0  0  0  0  0  0  0  0  0
   -1.6369   -1.2995   -0.1360 C   0  0  0  0  0  0  0  0  0  0  0  0
   -2.7059   -2.1545   -0.1892 C   0  0  0  0  0  0  0  0  0  0  0  0
   -3.9972   -1.6470   -0.1846 C   0  0  0  0  0  0  0  0  0  0  0  0
   -4.2062   -0.2936   -0.1304 C   0  0  0  0  0  0  0  0  0  0  0  0
   -3.1341    0.6079   -0.0792 C   0  0  0  0  0  0  0  0  0  0  0  0
   -3.3888    1.9586   -0.0379 N   0  0  0  0  0  0  0  0  0  0  0  0
    1.7385    1.5337    0.0713 C   0  0  0  0  0  0  0  0  0  0  0  0
    1.6663    2.7497    0.1505 O   0  0  0  0  0  0  0  0  0  0  0  0
    2.8702    0.7351    0.0412 N   0  0  0  0  0  0  0  0  0  0  0  0
    4.2237    1.2581    0.1010 C   0  0  0  0  0  0  0  0  0  0  0  0
    4.0121   -1.7815    0.7622 H   0  0  0  0  0  0  0  0  0  0  0  0
    4.0173   -1.6779   -1.0020 H   0  0  0  0  0  0  0  0  0  0  0  0
    2.8208   -2.6806   -0.1795 H   0  0  0  0  0  0  0  0  0  0  0  0
   -0.8603    2.0172    0.0683 H   0  0  0  0  0  0  0  0  0  0  0  0
   -0.6385   -1.6944   -0.1365 H   0  0  0  0  0  0  0  0  0  0  0  0
   -2.5462   -3.2186   -0.2325 H   0  0  0  0  0  0  0  0  0  0  0  0
   -4.8381   -2.3209   -0.2249 H   0  0  0  0  0  0  0  0  0  0  0  0
   -5.2074    0.0984   -0.1291 H   0  0  0  0  0  0  0  0  0  0  0  0
   -2.6882    2.6838   -0.0932 H   0  0  0  0  0  0  0  0  0  0  0  0
   -4.3236    2.3388   -0.0943 H   0  0  0  0  0  0  0  0  0  0  0  0
    4.1842    2.3423    0.1848 H   0  0  0  0  0  0  0  0  0  0  0  0
    4.7429    0.8548    0.9670 H   0  0  0  0  0  0  0  0  0  0  0  0
    4.7675    0.9925   -0.8023 H   0  0  0  0  0  0  0  0  0  0  0  0
  1  2  1  0  0  0  0
  2  3  2  0  0  0  0
  3  4  1  0  0  0  0
  4  5  2  0  0  0  0
  5  6  1  0  0  0  0
  6  7  2  0  0  0  0
  7  8  1  0  0  0  0
  8  9  2  0  0  0  0
  9 10  1  0  0  0  0
 10 11  2  0  0  0  0
 11 12  1  0  0  0  0
  4 13  1  0  0  0  0
 13 14  2  0  0  0  0
 13 15  1  0  0  0  0
 15 16  1  0  0  0  0
 15  2  1  0  0  0  0
 11  6  1  0  0  0  0
  1 17  1  0  0  0  0
  1 18  1  0  0  0  0
  1 19  1  0  0  0  0
  5 20  1  0  0  0  0
  7 21  1  0  0  0  0
  8 22  1  0  0  0  0
  9 23  1  0  0  0  0
 10 24  1  0  0  0  0
 12 25  1  0  0  0  0
 12 26  1  0  0  0  0
 16 27  1  0  0  0  0
 16 28  1  0  0  0  0
 16 29  1  0  0  0  0
M  END
