
  xtb     03012221323D
 energy: -8.725104397626 gnorm: 0.000624696199 xtb: 6.4.1 (afa7bdf)
 46 49  0     0  0            999 V2000
    9.0435   -0.0461    0.3752 C   0  0  0  0  0  0  0  0  0  0  0  0
    7.6622   -0.0799    0.5355 O   0  0  0  0  0  0  0  0  0  0  0  0
    7.0577    0.1826   -0.6637 C   0  0  0  0  0  0  0  0  0  0  0  0
    7.6664    0.4069   -1.6937 O   0  0  0  0  0  0  0  0  0  0  0  0
    5.5783    0.1855   -0.6681 C   0  0  0  0  0  0  0  0  0  0  0  0
    4.8651   -0.0775    0.4936 C   0  0  0  0  0  0  0  0  0  0  0  0
    3.4921   -0.0736    0.4829 C   0  0  0  0  0  0  0  0  0  0  0  0
    2.7937    0.1942   -0.6907 C   0  0  0  0  0  0  0  0  0  0  0  0
    1.4130    0.1979   -0.7001 N   0  0  0  0  0  0  0  0  0  0  0  0
    0.7737   -0.0590    0.3301 N   0  0  0  0  0  0  0  0  0  0  0  0
   -0.6064   -0.0466    0.3255 C   0  0  0  0  0  0  0  0  0  0  0  0
   -1.3049    0.2913   -0.8270 C   0  0  0  0  0  0  0  0  0  0  0  0
   -2.6823    0.3134   -0.8534 C   0  0  0  0  0  0  0  0  0  0  0  0
   -3.4054   -0.0113    0.3140 C   0  0  0  0  0  0  0  0  0  0  0  0
   -2.7002   -0.3620    1.4848 C   0  0  0  0  0  0  0  0  0  0  0  0
   -1.3225   -0.3716    1.4731 C   0  0  0  0  0  0  0  0  0  0  0  0
   -3.4356   -0.7192    2.7448 C   0  0  0  0  0  0  0  0  0  0  0  0
   -4.8611   -1.2204    2.4761 C   0  0  0  0  0  0  0  0  0  0  0  0
   -5.5982   -0.2833    1.5218 C   0  0  0  0  0  0  0  0  0  0  0  0
   -4.8058    0.0115    0.3095 N   0  0  0  0  0  0  0  0  0  0  0  0
   -5.5715    0.4575   -0.8733 C   0  0  0  0  0  0  0  0  0  0  0  0
   -4.8337    0.1546   -2.1754 C   0  0  0  0  0  0  0  0  0  0  0  0
   -3.3937    0.6838   -2.1238 C   0  0  0  0  0  0  0  0  0  0  0  0
    3.5124    0.4584   -1.8548 C   0  0  0  0  0  0  0  0  0  0  0  0
    4.8854    0.4527   -1.8406 C   0  0  0  0  0  0  0  0  0  0  0  0
    9.3335   -0.8090   -0.3513 H   0  0  0  0  0  0  0  0  0  0  0  0
    9.3328    0.9401    0.0038 H   0  0  0  0  0  0  0  0  0  0  0  0
    9.5242   -0.2407    1.3362 H   0  0  0  0  0  0  0  0  0  0  0  0
    5.4091   -0.2834    1.3996 H   0  0  0  0  0  0  0  0  0  0  0  0
    2.9325   -0.2769    1.3787 H   0  0  0  0  0  0  0  0  0  0  0  0
   -0.7456    0.5408   -1.7092 H   0  0  0  0  0  0  0  0  0  0  0  0
   -0.7797   -0.6321    2.3629 H   0  0  0  0  0  0  0  0  0  0  0  0
   -3.4679    0.1630    3.3944 H   0  0  0  0  0  0  0  0  0  0  0  0
   -2.8613   -1.4739    3.2966 H   0  0  0  0  0  0  0  0  0  0  0  0
   -4.8178   -2.2244    2.0366 H   0  0  0  0  0  0  0  0  0  0  0  0
   -5.4181   -1.3312    3.4169 H   0  0  0  0  0  0  0  0  0  0  0  0
   -5.8193    0.6681    2.0149 H   0  0  0  0  0  0  0  0  0  0  0  0
   -6.5613   -0.7087    1.2208 H   0  0  0  0  0  0  0  0  0  0  0  0
   -5.7409    1.5336   -0.7726 H   0  0  0  0  0  0  0  0  0  0  0  0
   -6.5588   -0.0156   -0.8599 H   0  0  0  0  0  0  0  0  0  0  0  0
   -5.3735    0.5775   -3.0341 H   0  0  0  0  0  0  0  0  0  0  0  0
   -4.8180   -0.9299   -2.3388 H   0  0  0  0  0  0  0  0  0  0  0  0
   -3.3953    1.7758   -2.2196 H   0  0  0  0  0  0  0  0  0  0  0  0
   -2.8181    0.3115   -2.9806 H   0  0  0  0  0  0  0  0  0  0  0  0
    2.9721    0.6653   -2.7620 H   0  0  0  0  0  0  0  0  0  0  0  0
    5.4492    0.6544   -2.7358 H   0  0  0  0  0  0  0  0  0  0  0  0
  1  2  1  0  0  0  0
  2  3  1  0  0  0  0
  3  4  2  0  0  0  0
  3  5  1  0  0  0  0
  5  6  2  0  0  0  0
  6  7  1  0  0  0  0
  7  8  2  0  0  0  0
  8  9  1  0  0  0  0
  9 10  2  0  0  0  0
 10 11  1  0  0  0  0
 11 12  2  0  0  0  0
 12 13  1  0  0  0  0
 13 14  2  0  0  0  0
 14 15  1  0  0  0  0
 15 16  2  0  0  0  0
 15 17  1  0  0  0  0
 17 18  1  0  0  0  0
 18 19  1  0  0  0  0
 19 20  1  0  0  0  0
 20 21  1  0  0  0  0
 21 22  1  0  0  0  0
 22 23  1  0  0  0  0
  8 24  1  0  0  0  0
 24 25  2  0  0  0  0
 25  5  1  0  0  0  0
 16 11  1  0  0  0  0
 23 13  1  0  0  0  0
 20 14  1  0  0  0  0
  1 26  1  0  0  0  0
  1 27  1  0  0  0  0
  1 28  1  0  0  0  0
  6 29  1  0  0  0  0
  7 30  1  0  0  0  0
 12 31  1  0  0  0  0
 16 32  1  0  0  0  0
 17 33  1  0  0  0  0
 17 34  1  0  0  0  0
 18 35  1  0  0  0  0
 18 36  1  0  0  0  0
 19 37  1  0  0  0  0
 19 38  1  0  0  0  0
 21 39  1  0  0  0  0
 21 40  1  0  0  0  0
 22 41  1  0  0  0  0
 22 42  1  0  0  0  0
 23 43  1  0  0  0  0
 23 44  1  0  0  0  0
 24 45  1  0  0  0  0
 25 46  1  0  0  0  0
M  END
