
  xtb     03012221293D
 energy: -8.290983560027 gnorm: 0.000322959682 xtb: 6.4.1 (afa7bdf)
 46 48  0     0  0            999 V2000
    4.3028   -0.0805   -1.5805 C   0  0  0  0  0  0  0  0  0  0  0  0
    2.8405   -0.4232   -1.8645 C   0  0  0  0  0  0  0  0  0  0  0  0
    2.6038   -1.9336   -1.7983 C   0  0  0  0  0  0  0  0  0  0  0  0
    1.8789    0.3411   -0.9312 C   0  0  0  0  0  0  0  0  0  0  0  0
    2.0605    0.0443    0.5541 C   0  0  0  0  0  0  0  0  0  0  0  0
    1.0110    0.7334    1.4209 C   0  0  0  0  0  0  0  0  0  0  0  0
   -0.3811    0.4499    1.0116 N   0  0  0  0  0  0  0  0  0  0  0  0
   -1.3309    1.5115    1.1876 C   0  0  0  0  0  0  0  0  0  0  0  0
   -1.4453    2.1811    2.4062 C   0  0  0  0  0  0  0  0  0  0  0  0
   -2.3616    3.1955    2.5659 C   0  0  0  0  0  0  0  0  0  0  0  0
   -3.1773    3.5625    1.5135 C   0  0  0  0  0  0  0  0  0  0  0  0
   -3.0672    2.9152    0.2979 C   0  0  0  0  0  0  0  0  0  0  0  0
   -2.1453    1.8983    0.1204 C   0  0  0  0  0  0  0  0  0  0  0  0
   -1.9869    1.1934   -1.1826 C   0  0  0  0  0  0  0  0  0  0  0  0
   -2.4933   -0.2467   -1.1268 C   0  0  0  0  0  0  0  0  0  0  0  0
   -1.7170   -1.2293   -0.2874 C   0  0  0  0  0  0  0  0  0  0  0  0
   -1.9989   -2.5697   -0.5080 C   0  0  0  0  0  0  0  0  0  0  0  0
   -1.3877   -3.5750    0.2123 C   0  0  0  0  0  0  0  0  0  0  0  0
   -0.4812   -3.2511    1.1965 C   0  0  0  0  0  0  0  0  0  0  0  0
   -0.1876   -1.9316    1.4431 C   0  0  0  0  0  0  0  0  0  0  0  0
   -0.7736   -0.8960    0.7085 C   0  0  0  0  0  0  0  0  0  0  0  0
    4.9711   -0.5520   -2.3033 H   0  0  0  0  0  0  0  0  0  0  0  0
    4.4760    0.9963   -1.6164 H   0  0  0  0  0  0  0  0  0  0  0  0
    4.6002   -0.4296   -0.5916 H   0  0  0  0  0  0  0  0  0  0  0  0
    2.6178   -0.0985   -2.8982 H   0  0  0  0  0  0  0  0  0  0  0  0
    1.5563   -2.1828   -1.9771 H   0  0  0  0  0  0  0  0  0  0  0  0
    3.2057   -2.4651   -2.5376 H   0  0  0  0  0  0  0  0  0  0  0  0
    2.8727   -2.3309   -0.8194 H   0  0  0  0  0  0  0  0  0  0  0  0
    1.9776    1.4202   -1.0980 H   0  0  0  0  0  0  0  0  0  0  0  0
    0.8501    0.0939   -1.2125 H   0  0  0  0  0  0  0  0  0  0  0  0
    2.0160   -1.0380    0.7136 H   0  0  0  0  0  0  0  0  0  0  0  0
    3.0673    0.3390    0.8761 H   0  0  0  0  0  0  0  0  0  0  0  0
    1.1495    1.8178    1.3666 H   0  0  0  0  0  0  0  0  0  0  0  0
    1.1255    0.4667    2.4760 H   0  0  0  0  0  0  0  0  0  0  0  0
   -0.8164    1.8811    3.2258 H   0  0  0  0  0  0  0  0  0  0  0  0
   -2.4454    3.7015    3.5142 H   0  0  0  0  0  0  0  0  0  0  0  0
   -3.8972    4.3545    1.6397 H   0  0  0  0  0  0  0  0  0  0  0  0
   -3.6992    3.2021   -0.5255 H   0  0  0  0  0  0  0  0  0  0  0  0
   -2.5167    1.7564   -1.9620 H   0  0  0  0  0  0  0  0  0  0  0  0
   -0.9330    1.2115   -1.4775 H   0  0  0  0  0  0  0  0  0  0  0  0
   -3.5294   -0.2395   -0.7670 H   0  0  0  0  0  0  0  0  0  0  0  0
   -2.5461   -0.6473   -2.1478 H   0  0  0  0  0  0  0  0  0  0  0  0
   -2.7223   -2.8280   -1.2636 H   0  0  0  0  0  0  0  0  0  0  0  0
   -1.6268   -4.6070    0.0137 H   0  0  0  0  0  0  0  0  0  0  0  0
   -0.0090   -4.0289    1.7750 H   0  0  0  0  0  0  0  0  0  0  0  0
    0.4931   -1.6827    2.2378 H   0  0  0  0  0  0  0  0  0  0  0  0
  1  2  1  0  0  0  0
  2  3  1  0  0  0  0
  2  4  1  0  0  0  0
  4  5  1  0  0  0  0
  5  6  1  0  0  0  0
  6  7  1  0  0  0  0
  7  8  1  0  0  0  0
  8  9  2  0  0  0  0
  9 10  1  0  0  0  0
 10 11  2  0  0  0  0
 11 12  1  0  0  0  0
 12 13  2  0  0  0  0
 13 14  1  0  0  0  0
 14 15  1  0  0  0  0
 15 16  1  0  0  0  0
 16 17  2  0  0  0  0
 17 18  1  0  0  0  0
 18 19  2  0  0  0  0
 19 20  1  0  0  0  0
 20 21  2  0  0  0  0
 21  7  1  0  0  0  0
 13  8  1  0  0  0  0
 21 16  1  0  0  0  0
  1 22  1  0  0  0  0
  1 23  1  0  0  0  0
  1 24  1  0  0  0  0
  2 25  1  0  0  0  0
  3 26  1  0  0  0  0
  3 27  1  0  0  0  0
  3 28  1  0  0  0  0
  4 29  1  0  0  0  0
  4 30  1  0  0  0  0
  5 31  1  0  0  0  0
  5 32  1  0  0  0  0
  6 33  1  0  0  0  0
  6 34  1  0  0  0  0
  9 35  1  0  0  0  0
 10 36  1  0  0  0  0
 11 37  1  0  0  0  0
 12 38  1  0  0  0  0
 14 39  1  0  0  0  0
 14 40  1  0  0  0  0
 15 41  1  0  0  0  0
 15 42  1  0  0  0  0
 17 43  1  0  0  0  0
 18 44  1  0  0  0  0
 19 45  1  0  0  0  0
 20 46  1  0  0  0  0
M  END
