
  xtb     03012221323D
 energy: -15.902333488192 gnorm: 0.000324333257 xtb: 6.4.1 (afa7bdf)
 79 86  0     0  0            999 V2000
   -5.1609   -1.6930    0.7834 C   0  0  0  0  0  0  0  0  0  0  0  0
   -4.6121   -2.9466    0.4680 O   0  0  0  0  0  0  0  0  0  0  0  0
   -3.2567   -2.9408    0.1387 C   0  0  0  0  0  0  0  0  0  0  0  0
   -2.4416   -1.8098    0.2734 C   0  0  0  0  0  0  0  0  0  0  0  0
   -1.0953   -1.8684   -0.0444 C   0  0  0  0  0  0  0  0  0  0  0  0
   -0.5463   -3.0966   -0.4469 C   0  0  0  0  0  0  0  0  0  0  0  0
   -1.3272   -4.2165   -0.5951 C   0  0  0  0  0  0  0  0  0  0  0  0
   -2.6915   -4.1642   -0.3220 C   0  0  0  0  0  0  0  0  0  0  0  0
   -3.5184   -5.3709   -0.4910 C   0  0  0  0  0  0  0  0  0  0  0  0
   -2.9921   -6.6512   -0.3648 C   0  0  0  0  0  0  0  0  0  0  0  0
   -3.8012   -7.7424   -0.5592 C   0  0  0  0  0  0  0  0  0  0  0  0
   -5.0855   -7.6840   -0.8684 N   0  0  0  0  0  0  0  0  0  0  0  0
   -5.5857   -6.4651   -0.9794 C   0  0  0  0  0  0  0  0  0  0  0  0
   -4.8682   -5.3090   -0.8065 C   0  0  0  0  0  0  0  0  0  0  0  0
    0.9420   -2.9695   -0.5458 C   0  0  0  0  0  0  0  0  0  0  0  0
    1.2086   -1.5661   -0.1075 C   0  0  0  0  0  0  0  0  0  0  0  0
    2.4295   -0.9507    0.1224 C   0  0  0  0  0  0  0  0  0  0  0  0
    2.4701    0.3698    0.5652 C   0  0  0  0  0  0  0  0  0  0  0  0
    1.2907    1.0803    0.7292 C   0  0  0  0  0  0  0  0  0  0  0  0
    0.0419    0.4926    0.4573 C   0  0  0  0  0  0  0  0  0  0  0  0
   -0.0029   -0.8823    0.0999 C   0  0  0  0  0  0  0  0  0  0  0  0
   -0.9749    1.5632    0.5360 C   0  0  0  0  0  0  0  0  0  0  0  0
   -2.3018    1.6078    0.1437 C   0  0  0  0  0  0  0  0  0  0  0  0
   -3.0303    2.8013    0.2237 C   0  0  0  0  0  0  0  0  0  0  0  0
   -4.3623    2.9081   -0.1763 O   0  0  0  0  0  0  0  0  0  0  0  0
   -4.9922    1.6961   -0.5025 C   0  0  0  0  0  0  0  0  0  0  0  0
   -2.3957    3.9816    0.7060 C   0  0  0  0  0  0  0  0  0  0  0  0
   -3.1312    5.2526    0.8167 C   0  0  0  0  0  0  0  0  0  0  0  0
   -4.4973    5.3027    1.0545 C   0  0  0  0  0  0  0  0  0  0  0  0
   -5.1283    6.5146    1.1750 C   0  0  0  0  0  0  0  0  0  0  0  0
   -4.5264    7.6881    1.0814 N   0  0  0  0  0  0  0  0  0  0  0  0
   -3.2260    7.6398    0.8461 C   0  0  0  0  0  0  0  0  0  0  0  0
   -2.4975    6.4850    0.7090 C   0  0  0  0  0  0  0  0  0  0  0  0
   -1.0494    3.9281    1.0572 C   0  0  0  0  0  0  0  0  0  0  0  0
   -0.3533    2.7480    0.9620 C   0  0  0  0  0  0  0  0  0  0  0  0
    1.1123    2.5042    1.1458 C   0  0  0  0  0  0  0  0  0  0  0  0
    3.8750    0.7606    0.7326 C   0  0  0  0  0  0  0  0  0  0  0  0
    4.3090    1.8488    1.0491 O   0  0  0  0  0  0  0  0  0  0  0  0
    4.6176   -0.3849    0.4248 N   0  0  0  0  0  0  0  0  0  0  0  0
    6.0693   -0.4109    0.3835 C   0  0  0  0  0  0  0  0  0  0  0  0
    6.5877    0.2213   -0.8968 C   0  0  0  0  0  0  0  0  0  0  0  0
    8.1226    0.2429   -1.0172 C   0  0  0  0  0  0  0  0  0  0  0  0
    8.5492    0.6715   -2.4223 C   0  0  0  0  0  0  0  0  0  0  0  0
    8.7569    1.1465    0.0414 C   0  0  0  0  0  0  0  0  0  0  0  0
    3.8061   -1.4475    0.0117 C   0  0  0  0  0  0  0  0  0  0  0  0
    4.1686   -2.5419   -0.3672 O   0  0  0  0  0  0  0  0  0  0  0  0
   -5.0329   -1.0253   -0.0675 H   0  0  0  0  0  0  0  0  0  0  0  0
   -4.6855   -1.2884    1.6776 H   0  0  0  0  0  0  0  0  0  0  0  0
   -6.2265   -1.8199    0.9773 H   0  0  0  0  0  0  0  0  0  0  0  0
   -2.8378   -0.9154    0.7073 H   0  0  0  0  0  0  0  0  0  0  0  0
   -0.8728   -5.1323   -0.9261 H   0  0  0  0  0  0  0  0  0  0  0  0
   -1.9600   -6.7843   -0.0940 H   0  0  0  0  0  0  0  0  0  0  0  0
   -3.3839   -8.7331   -0.4566 H   0  0  0  0  0  0  0  0  0  0  0  0
   -6.6359   -6.4034   -1.2226 H   0  0  0  0  0  0  0  0  0  0  0  0
   -5.3423   -4.3489   -0.9035 H   0  0  0  0  0  0  0  0  0  0  0  0
    1.2916   -3.1334   -1.5708 H   0  0  0  0  0  0  0  0  0  0  0  0
    1.4515   -3.6863    0.1075 H   0  0  0  0  0  0  0  0  0  0  0  0
   -2.7436    0.7422   -0.3044 H   0  0  0  0  0  0  0  0  0  0  0  0
   -4.9581    1.0346    0.3622 H   0  0  0  0  0  0  0  0  0  0  0  0
   -6.0339    1.9023   -0.7500 H   0  0  0  0  0  0  0  0  0  0  0  0
   -4.5077    1.2411   -1.3670 H   0  0  0  0  0  0  0  0  0  0  0  0
   -5.0517    4.3849    1.1332 H   0  0  0  0  0  0  0  0  0  0  0  0
   -6.1921    6.5401    1.3579 H   0  0  0  0  0  0  0  0  0  0  0  0
   -2.7255    8.5925    0.7578 H   0  0  0  0  0  0  0  0  0  0  0  0
   -1.4444    6.5315    0.4966 H   0  0  0  0  0  0  0  0  0  0  0  0
   -0.5426    4.8088    1.4071 H   0  0  0  0  0  0  0  0  0  0  0  0
    1.7132    3.1726    0.5196 H   0  0  0  0  0  0  0  0  0  0  0  0
    1.4154    2.6488    2.1884 H   0  0  0  0  0  0  0  0  0  0  0  0
    6.4353    0.1186    1.2657 H   0  0  0  0  0  0  0  0  0  0  0  0
    6.3937   -1.4511    0.4694 H   0  0  0  0  0  0  0  0  0  0  0  0
    6.2030    1.2443   -0.9727 H   0  0  0  0  0  0  0  0  0  0  0  0
    6.1559   -0.3126   -1.7515 H   0  0  0  0  0  0  0  0  0  0  0  0
    8.4800   -0.7876   -0.8494 H   0  0  0  0  0  0  0  0  0  0  0  0
    8.1315    0.0141   -3.1858 H   0  0  0  0  0  0  0  0  0  0  0  0
    8.2054    1.6835   -2.6361 H   0  0  0  0  0  0  0  0  0  0  0  0
    9.6343    0.6628   -2.5310 H   0  0  0  0  0  0  0  0  0  0  0  0
    8.5301    0.8110    1.0534 H   0  0  0  0  0  0  0  0  0  0  0  0
    8.3892    2.1679   -0.0558 H   0  0  0  0  0  0  0  0  0  0  0  0
    9.8423    1.1773   -0.0607 H   0  0  0  0  0  0  0  0  0  0  0  0
  1  2  1  0  0  0  0
  2  3  1  0  0  0  0
  3  4  2  0  0  0  0
  4  5  1  0  0  0  0
  5  6  2  0  0  0  0
  6  7  1  0  0  0  0
  7  8  2  0  0  0  0
  8  9  1  0  0  0  0
  9 10  2  0  0  0  0
 10 11  1  0  0  0  0
 11 12  2  0  0  0  0
 12 13  1  0  0  0  0
 13 14  2  0  0  0  0
  6 15  1  0  0  0  0
 15 16  1  0  0  0  0
 16 17  2  0  0  0  0
 17 18  1  0  0  0  0
 18 19  2  0  0  0  0
 19 20  1  0  0  0  0
 20 21  2  0  0  0  0
 20 22  1  0  0  0  0
 22 23  2  0  0  0  0
 23 24  1  0  0  0  0
 24 25  1  0  0  0  0
 25 26  1  0  0  0  0
 24 27  2  0  0  0  0
 27 28  1  0  0  0  0
 28 29  2  0  0  0  0
 29 30  1  0  0  0  0
 30 31  2  0  0  0  0
 31 32  1  0  0  0  0
 32 33  2  0  0  0  0
 27 34  1  0  0  0  0
 34 35  2  0  0  0  0
 35 36  1  0  0  0  0
 18 37  1  0  0  0  0
 37 38  2  0  0  0  0
 37 39  1  0  0  0  0
 39 40  1  0  0  0  0
 40 41  1  0  0  0  0
 41 42  1  0  0  0  0
 42 43  1  0  0  0  0
 42 44  1  0  0  0  0
 39 45  1  0  0  0  0
 45 46  2  0  0  0  0
  8  3  1  0  0  0  0
 14  9  1  0  0  0  0
 21 16  1  0  0  0  0
 35 22  1  0  0  0  0
 21  5  1  0  0  0  0
 33 28  1  0  0  0  0
 45 17  1  0  0  0  0
 36 19  1  0  0  0  0
  1 47  1  0  0  0  0
  1 48  1  0  0  0  0
  1 49  1  0  0  0  0
  4 50  1  0  0  0  0
  7 51  1  0  0  0  0
 10 52  1  0  0  0  0
 11 53  1  0  0  0  0
 13 54  1  0  0  0  0
 14 55  1  0  0  0  0
 15 56  1  0  0  0  0
 15 57  1  0  0  0  0
 23 58  1  0  0  0  0
 26 59  1  0  0  0  0
 26 60  1  0  0  0  0
 26 61  1  0  0  0  0
 29 62  1  0  0  0  0
 30 63  1  0  0  0  0
 32 64  1  0  0  0  0
 33 65  1  0  0  0  0
 34 66  1  0  0  0  0
 36 67  1  0  0  0  0
 36 68  1  0  0  0  0
 40 69  1  0  0  0  0
 40 70  1  0  0  0  0
 41 71  1  0  0  0  0
 41 72  1  0  0  0  0
 42 73  1  0  0  0  0
 43 74  1  0  0  0  0
 43 75  1  0  0  0  0
 43 76  1  0  0  0  0
 44 77  1  0  0  0  0
 44 78  1  0  0  0  0
 44 79  1  0  0  0  0
M  END
