
  xtb     03012221313D
 energy: -6.522181547946 gnorm: 0.000233490670 xtb: 6.4.1 (afa7bdf)
 34 35  0     0  0            999 V2000
   -2.8377   -3.4265   -0.2767 C   0  0  0  0  0  0  0  0  0  0  0  0
   -3.6563   -2.2902   -0.1453 O   0  0  0  0  0  0  0  0  0  0  0  0
   -2.9680   -1.0723   -0.0799 C   0  0  0  0  0  0  0  0  0  0  0  0
   -1.5796   -0.9455   -0.1261 C   0  0  0  0  0  0  0  0  0  0  0  0
   -0.9606    0.2994   -0.0584 C   0  0  0  0  0  0  0  0  0  0  0  0
    0.4886    0.4527   -0.1058 C   0  0  0  0  0  0  0  0  0  0  0  0
    1.3727   -0.5436   -0.2557 C   0  0  0  0  0  0  0  0  0  0  0  0
    2.8211   -0.3878   -0.3052 C   0  0  0  0  0  0  0  0  0  0  0  0
    3.4468    0.8582   -0.2447 C   0  0  0  0  0  0  0  0  0  0  0  0
    4.8191    0.9611   -0.2963 C   0  0  0  0  0  0  0  0  0  0  0  0
    5.5992   -0.1700   -0.4093 C   0  0  0  0  0  0  0  0  0  0  0  0
    4.9996   -1.4097   -0.4714 C   0  0  0  0  0  0  0  0  0  0  0  0
    3.6284   -1.5201   -0.4205 C   0  0  0  0  0  0  0  0  0  0  0  0
   -1.7579    1.4343    0.0592 C   0  0  0  0  0  0  0  0  0  0  0  0
   -3.1491    1.3486    0.1100 C   0  0  0  0  0  0  0  0  0  0  0  0
   -4.0097    2.4470    0.2277 O   0  0  0  0  0  0  0  0  0  0  0  0
   -3.3672    3.6967    0.2857 C   0  0  0  0  0  0  0  0  0  0  0  0
   -3.7285    0.0862    0.0390 C   0  0  0  0  0  0  0  0  0  0  0  0
   -2.2564   -3.3616   -1.1974 H   0  0  0  0  0  0  0  0  0  0  0  0
   -3.4768   -4.3090   -0.3235 H   0  0  0  0  0  0  0  0  0  0  0  0
   -2.1797   -3.5130    0.5889 H   0  0  0  0  0  0  0  0  0  0  0  0
   -0.9782   -1.8278   -0.2127 H   0  0  0  0  0  0  0  0  0  0  0  0
    0.8573    1.4571   -0.0104 H   0  0  0  0  0  0  0  0  0  0  0  0
    1.0059   -1.5488   -0.3502 H   0  0  0  0  0  0  0  0  0  0  0  0
    2.8549    1.7513   -0.1599 H   0  0  0  0  0  0  0  0  0  0  0  0
    5.2863    1.9327   -0.2485 H   0  0  0  0  0  0  0  0  0  0  0  0
    6.6722   -0.0853   -0.4494 H   0  0  0  0  0  0  0  0  0  0  0  0
    5.6070   -2.2972   -0.5602 H   0  0  0  0  0  0  0  0  0  0  0  0
    3.1655   -2.4906   -0.4690 H   0  0  0  0  0  0  0  0  0  0  0  0
   -1.2811    2.3944    0.1112 H   0  0  0  0  0  0  0  0  0  0  0  0
   -4.1283    4.4729    0.3732 H   0  0  0  0  0  0  0  0  0  0  0  0
   -2.7163    3.7395    1.1599 H   0  0  0  0  0  0  0  0  0  0  0  0
   -2.7955    3.8635   -0.6281 H   0  0  0  0  0  0  0  0  0  0  0  0
   -4.7977    0.0033    0.0764 H   0  0  0  0  0  0  0  0  0  0  0  0
  1  2  1  0  0  0  0
  2  3  1  0  0  0  0
  3  4  2  0  0  0  0
  4  5  1  0  0  0  0
  5  6  1  0  0  0  0
  6  7  2  0  0  0  0
  7  8  1  0  0  0  0
  8  9  2  0  0  0  0
  9 10  1  0  0  0  0
 10 11  2  0  0  0  0
 11 12  1  0  0  0  0
 12 13  2  0  0  0  0
  5 14  2  0  0  0  0
 14 15  1  0  0  0  0
 15 16  1  0  0  0  0
 16 17  1  0  0  0  0
 15 18  2  0  0  0  0
 18  3  1  0  0  0  0
 13  8  1  0  0  0  0
  1 19  1  0  0  0  0
  1 20  1  0  0  0  0
  1 21  1  0  0  0  0
  4 22  1  0  0  0  0
  6 23  1  0  0  0  0
  7 24  1  0  0  0  0
  9 25  1  0  0  0  0
 10 26  1  0  0  0  0
 11 27  1  0  0  0  0
 12 28  1  0  0  0  0
 13 29  1  0  0  0  0
 14 30  1  0  0  0  0
 17 31  1  0  0  0  0
 17 32  1  0  0  0  0
 17 33  1  0  0  0  0
 18 34  1  0  0  0  0
M  END
