
  xtb     03012221243D
 energy: -3.087808207277 gnorm: 0.000288042396 xtb: 6.4.1 (afa7bdf)
 16 16  0     0  0            999 V2000
    2.7814    0.2704    0.1960 N   0  0  0  0  0  0  0  0  0  0  0  0
    1.3919    0.1352    0.0979 C   0  0  0  0  0  0  0  0  0  0  0  0
    0.5659    1.2594    0.0611 C   0  0  0  0  0  0  0  0  0  0  0  0
   -0.7998    1.1267   -0.0354 C   0  0  0  0  0  0  0  0  0  0  0  0
   -1.3919   -0.1354   -0.0972 C   0  0  0  0  0  0  0  0  0  0  0  0
   -2.7814   -0.2703   -0.1963 N   0  0  0  0  0  0  0  0  0  0  0  0
   -0.5660   -1.2596   -0.0603 C   0  0  0  0  0  0  0  0  0  0  0  0
    0.7998   -1.1269    0.0361 C   0  0  0  0  0  0  0  0  0  0  0  0
    3.3768   -0.4997   -0.0756 H   0  0  0  0  0  0  0  0  0  0  0  0
    3.2152    1.1476   -0.0569 H   0  0  0  0  0  0  0  0  0  0  0  0
    1.0156    2.2356    0.1108 H   0  0  0  0  0  0  0  0  0  0  0  0
   -1.4302    1.9980   -0.0669 H   0  0  0  0  0  0  0  0  0  0  0  0
   -3.2156   -1.1473    0.0563 H   0  0  0  0  0  0  0  0  0  0  0  0
   -3.3766    0.5001    0.0747 H   0  0  0  0  0  0  0  0  0  0  0  0
   -1.0155   -2.2357   -0.1108 H   0  0  0  0  0  0  0  0  0  0  0  0
    1.4304   -1.9980    0.0664 H   0  0  0  0  0  0  0  0  0  0  0  0
  1  2  1  0  0  0  0
  2  3  2  0  0  0  0
  3  4  1  0  0  0  0
  4  5  2  0  0  0  0
  5  6  1  0  0  0  0
  5  7  1  0  0  0  0
  7  8  2  0  0  0  0
  8  2  1  0  0  0  0
  1  9  1  0  0  0  0
  1 10  1  0  0  0  0
  3 11  1  0  0  0  0
  4 12  1  0  0  0  0
  6 13  1  0  0  0  0
  6 14  1  0  0  0  0
  7 15  1  0  0  0  0
  8 16  1  0  0  0  0
M  END
