
  xtb     03012221253D
 energy: -11.266329805377 gnorm: 0.000297807014 xtb: 6.4.1 (afa7bdf)
 61 64  0     0  0            999 V2000
   -1.5784    5.6704   -0.7196 C   0  0  0  0  0  0  0  0  0  0  0  0
   -1.8412    4.9572    0.5968 C   0  0  0  0  0  0  0  0  0  0  0  0
   -1.7487    3.4691    0.4721 C   0  0  0  0  0  0  0  0  0  0  0  0
   -0.5806    2.7016    0.5302 C   0  0  0  0  0  0  0  0  0  0  0  0
    0.7883    3.2267    0.7682 C   0  0  0  0  0  0  0  0  0  0  0  0
   -0.9484    1.3416    0.3134 C   0  0  0  0  0  0  0  0  0  0  0  0
   -0.1811    0.1528    0.2434 C   0  0  0  0  0  0  0  0  0  0  0  0
    1.2649    0.1904    0.3757 C   0  0  0  0  0  0  0  0  0  0  0  0
    2.1146   -0.4698   -0.4391 C   0  0  0  0  0  0  0  0  0  0  0  0
    3.5572   -0.4623   -0.3402 C   0  0  0  0  0  0  0  0  0  0  0  0
    4.2377    0.2087    0.6797 C   0  0  0  0  0  0  0  0  0  0  0  0
    5.6096    0.1874    0.7423 C   0  0  0  0  0  0  0  0  0  0  0  0
    6.3415   -0.5013   -0.2051 C   0  0  0  0  0  0  0  0  0  0  0  0
    7.8021   -0.5223   -0.1323 N   0  0  0  0  0  4  0  0  0  0  0  0
    8.3554    0.1064    0.7800 O   0  0  0  0  0  0  0  0  0  0  0  0
    8.4253   -1.1681   -0.9855 O   0  0  0  0  0  1  0  0  0  0  0  0
    5.6869   -1.1714   -1.2200 C   0  0  0  0  0  0  0  0  0  0  0  0
    4.3155   -1.1541   -1.2883 C   0  0  0  0  0  0  0  0  0  0  0  0
   -0.8994   -1.0460   -0.0011 C   0  0  0  0  0  0  0  0  0  0  0  0
   -0.5258   -2.4236    0.0350 C   0  0  0  0  0  0  0  0  0  0  0  0
    0.7848   -3.0007    0.4325 C   0  0  0  0  0  0  0  0  0  0  0  0
   -1.6552   -3.1772   -0.2999 C   0  0  0  0  0  0  0  0  0  0  0  0
   -1.7446   -4.6702   -0.3316 C   0  0  0  0  0  0  0  0  0  0  0  0
   -2.1484   -5.2606    1.0098 C   0  0  0  0  0  0  0  0  0  0  0  0
   -2.7429   -2.2941   -0.4920 C   0  0  0  0  0  0  0  0  0  0  0  0
   -4.1478   -2.6164   -0.8012 C   0  0  0  0  0  0  0  0  0  0  0  0
   -2.2619   -1.0617   -0.2908 N   0  0  0  0  0  0  0  0  0  0  0  0
   -3.1662    0.1677   -0.2955 B   0  0  0  0  0  4  0  0  0  0  0  0
   -3.6816    0.3587   -1.5752 F   0  0  0  0  0  0  0  0  0  0  0  0
   -4.1836   -0.0060    0.6403 F   0  0  0  0  0  0  0  0  0  0  0  0
   -2.3225    1.3770    0.0955 N   0  0  0  0  0  4  0  0  0  0  0  0
   -2.8348    2.6104    0.1811 C   0  0  0  0  0  0  0  0  0  0  0  0
   -4.2541    2.9551   -0.0181 C   0  0  0  0  0  0  0  0  0  0  0  0
   -0.5835    5.4381   -1.1021 H   0  0  0  0  0  0  0  0  0  0  0  0
   -2.2934    5.3601   -1.4831 H   0  0  0  0  0  0  0  0  0  0  0  0
   -1.6498    6.7554   -0.6208 H   0  0  0  0  0  0  0  0  0  0  0  0
   -1.1401    5.2980    1.3671 H   0  0  0  0  0  0  0  0  0  0  0  0
   -2.8344    5.2200    0.9790 H   0  0  0  0  0  0  0  0  0  0  0  0
    1.4906    2.8309    0.0344 H   0  0  0  0  0  0  0  0  0  0  0  0
    0.8166    4.3129    0.6892 H   0  0  0  0  0  0  0  0  0  0  0  0
    1.1401    2.9593    1.7646 H   0  0  0  0  0  0  0  0  0  0  0  0
    1.6744    0.8234    1.1420 H   0  0  0  0  0  0  0  0  0  0  0  0
    1.6876   -1.0318   -1.2501 H   0  0  0  0  0  0  0  0  0  0  0  0
    3.6847    0.7456    1.4307 H   0  0  0  0  0  0  0  0  0  0  0  0
    6.1375    0.7029    1.5268 H   0  0  0  0  0  0  0  0  0  0  0  0
    6.2730   -1.7033   -1.9503 H   0  0  0  0  0  0  0  0  0  0  0  0
    3.8106   -1.6789   -2.0826 H   0  0  0  0  0  0  0  0  0  0  0  0
    1.4047   -3.2051   -0.4404 H   0  0  0  0  0  0  0  0  0  0  0  0
    1.3288   -2.3253    1.0921 H   0  0  0  0  0  0  0  0  0  0  0  0
    0.6521   -3.9381    0.9720 H   0  0  0  0  0  0  0  0  0  0  0  0
   -2.4594   -4.9661   -1.1081 H   0  0  0  0  0  0  0  0  0  0  0  0
   -0.7815   -5.0799   -0.6571 H   0  0  0  0  0  0  0  0  0  0  0  0
   -2.2136   -6.3500    0.9765 H   0  0  0  0  0  0  0  0  0  0  0  0
   -1.4322   -4.9964    1.7891 H   0  0  0  0  0  0  0  0  0  0  0  0
   -3.1202   -4.8814    1.3293 H   0  0  0  0  0  0  0  0  0  0  0  0
   -4.2248   -3.1899   -1.7247 H   0  0  0  0  0  0  0  0  0  0  0  0
   -4.6034   -3.1914    0.0046 H   0  0  0  0  0  0  0  0  0  0  0  0
   -4.7219   -1.6972   -0.9244 H   0  0  0  0  0  0  0  0  0  0  0  0
   -4.3715    3.6871   -0.8168 H   0  0  0  0  0  0  0  0  0  0  0  0
   -4.6888    3.3630    0.8943 H   0  0  0  0  0  0  0  0  0  0  0  0
   -4.8189    2.0628   -0.2915 H   0  0  0  0  0  0  0  0  0  0  0  0
  1  2  1  0  0  0  0
  2  3  1  0  0  0  0
  3  4  2  0  0  0  0
  4  5  1  0  0  0  0
  4  6  1  0  0  0  0
  6  7  2  0  0  0  0
  7  8  1  0  0  0  0
  8  9  2  0  0  0  0
  9 10  1  0  0  0  0
 10 11  2  0  0  0  0
 11 12  1  0  0  0  0
 12 13  2  0  0  0  0
 13 14  1  0  0  0  0
 14 15  2  0  0  0  0
 14 16  1  0  0  0  0
 13 17  1  0  0  0  0
 17 18  2  0  0  0  0
  7 19  1  0  0  0  0
 19 20  2  0  0  0  0
 20 21  1  0  0  0  0
 20 22  1  0  0  0  0
 22 23  1  0  0  0  0
 23 24  1  0  0  0  0
 22 25  2  0  0  0  0
 25 26  1  0  0  0  0
 25 27  1  0  0  0  0
 27 28  1  0  0  0  0
 28 29  1  0  0  0  0
 28 30  1  0  0  0  0
 28 31  1  0  0  0  0
 31 32  2  0  0  0  0
 32 33  1  0  0  0  0
 32  3  1  0  0  0  0
 31  6  1  0  0  0  0
 18 10  1  0  0  0  0
 27 19  1  0  0  0  0
  1 34  1  0  0  0  0
  1 35  1  0  0  0  0
  1 36  1  0  0  0  0
  2 37  1  0  0  0  0
  2 38  1  0  0  0  0
  5 39  1  0  0  0  0
  5 40  1  0  0  0  0
  5 41  1  0  0  0  0
  8 42  1  0  0  0  0
  9 43  1  0  0  0  0
 11 44  1  0  0  0  0
 12 45  1  0  0  0  0
 17 46  1  0  0  0  0
 18 47  1  0  0  0  0
 21 48  1  0  0  0  0
 21 49  1  0  0  0  0
 21 50  1  0  0  0  0
 23 51  1  0  0  0  0
 23 52  1  0  0  0  0
 24 53  1  0  0  0  0
 24 54  1  0  0  0  0
 24 55  1  0  0  0  0
 26 56  1  0  0  0  0
 26 57  1  0  0  0  0
 26 58  1  0  0  0  0
 33 59  1  0  0  0  0
 33 60  1  0  0  0  0
 33 61  1  0  0  0  0
M  CHG  1  14   1
M  CHG  1  16  -1
M  CHG  1  28  -1
M  CHG  1  31   1
M  END
