
  xtb     03012221293D
 energy: -13.938753108633 gnorm: 0.000354342428 xtb: 6.4.1 (afa7bdf)
 69 75  0     0  0            999 V2000
    8.3813    0.7769   -1.8102 C   0  0  0  0  0  0  0  0  0  0  0  0
    7.2259    1.4159   -2.2972 O   0  0  0  0  0  0  0  0  0  0  0  0
    6.0499    1.0333   -1.6804 C   0  0  0  0  0  0  0  0  0  0  0  0
    4.8579    1.6404   -2.1150 C   0  0  0  0  0  0  0  0  0  0  0  0
    3.6525    1.3181   -1.5595 C   0  0  0  0  0  0  0  0  0  0  0  0
    3.5582    0.3668   -0.5337 C   0  0  0  0  0  0  0  0  0  0  0  0
    2.2689    0.0210    0.0702 C   0  0  0  0  0  0  0  0  0  0  0  0
    1.0255   -0.1016   -0.5963 C   0  0  0  0  0  0  0  0  0  0  0  0
    0.7827    0.1042   -2.0452 C   0  0  0  0  0  0  0  0  0  0  0  0
    0.0576   -0.4169    0.3733 C   0  0  0  0  0  0  0  0  0  0  0  0
   -1.3567   -0.5974    0.2667 C   0  0  0  0  0  0  0  0  0  0  0  0
   -2.0546   -0.4708   -0.9970 C   0  0  0  0  0  0  0  0  0  0  0  0
   -3.0054    0.5188   -1.4057 C   0  0  0  0  0  0  0  0  0  0  0  0
   -3.3749    1.7258   -0.6657 C   0  0  0  0  0  0  0  0  0  0  0  0
   -2.5814    2.1847    0.3838 C   0  0  0  0  0  0  0  0  0  0  0  0
   -2.9428    3.3066    1.0747 C   0  0  0  0  0  0  0  0  0  0  0  0
   -4.0958    3.9507    0.6953 C   0  0  0  0  0  0  0  0  0  0  0  0
   -4.8233    3.4418   -0.3525 C   0  0  0  0  0  0  0  0  0  0  0  0
   -4.4965    2.3576   -1.0349 N   0  0  0  0  0  0  0  0  0  0  0  0
   -3.5319    0.1977   -2.5847 N   0  0  0  0  0  0  0  0  0  0  0  0
   -2.9580   -0.9759   -2.9672 C   0  0  0  0  0  0  0  0  0  0  0  0
   -3.1971   -1.7243   -4.1205 C   0  0  0  0  0  0  0  0  0  0  0  0
   -2.5299   -2.9098   -4.2861 C   0  0  0  0  0  0  0  0  0  0  0  0
   -1.6343   -3.3637   -3.3162 C   0  0  0  0  0  0  0  0  0  0  0  0
   -1.4044   -2.6273   -2.1903 C   0  0  0  0  0  0  0  0  0  0  0  0
   -2.0526   -1.4305   -2.0280 N   0  0  0  0  0  0  0  0  0  0  0  0
   -2.0497   -0.8342    1.4910 C   0  0  0  0  0  0  0  0  0  0  0  0
   -3.4239   -1.0824    1.7558 C   0  0  0  0  0  0  0  0  0  0  0  0
   -4.5298   -1.1509    0.7698 C   0  0  0  0  0  0  0  0  0  0  0  0
   -3.5575   -1.2270    3.1302 C   0  0  0  0  0  0  0  0  0  0  0  0
   -2.2924   -1.0944    3.7273 C   0  0  0  0  0  0  0  0  0  0  0  0
   -1.9449   -1.1688    5.1574 C   0  0  0  0  0  0  0  0  0  0  0  0
   -1.4311   -0.8666    2.7259 N   0  0  0  0  0  0  0  0  0  0  0  0
    0.0674   -0.6580    2.9436 B   0  0  0  0  0  4  0  0  0  0  0  0
    0.2557    0.4892    3.7149 F   0  0  0  0  0  0  0  0  0  0  0  0
    0.6076   -1.7839    3.5639 F   0  0  0  0  0  0  0  0  0  0  0  0
    0.7366   -0.4584    1.5836 N   0  0  0  0  0  4  0  0  0  0  0  0
    2.0386   -0.2168    1.4599 C   0  0  0  0  0  0  0  0  0  0  0  0
    2.9902   -0.1644    2.5847 C   0  0  0  0  0  0  0  0  0  0  0  0
    4.7460   -0.2357   -0.0946 C   0  0  0  0  0  0  0  0  0  0  0  0
    5.9545    0.0822   -0.6481 C   0  0  0  0  0  0  0  0  0  0  0  0
    9.2432    1.1550   -2.3619 H   0  0  0  0  0  0  0  0  0  0  0  0
    8.3059   -0.3001   -1.9678 H   0  0  0  0  0  0  0  0  0  0  0  0
    8.5133    1.0023   -0.7508 H   0  0  0  0  0  0  0  0  0  0  0  0
    4.9227    2.3756   -2.8974 H   0  0  0  0  0  0  0  0  0  0  0  0
    2.7611    1.8262   -1.8842 H   0  0  0  0  0  0  0  0  0  0  0  0
    0.4547    1.1246   -2.2436 H   0  0  0  0  0  0  0  0  0  0  0  0
    0.0115   -0.5689   -2.4134 H   0  0  0  0  0  0  0  0  0  0  0  0
    1.6836   -0.0891   -2.6270 H   0  0  0  0  0  0  0  0  0  0  0  0
   -1.6822    1.6576    0.6481 H   0  0  0  0  0  0  0  0  0  0  0  0
   -2.3429    3.6732    1.8915 H   0  0  0  0  0  0  0  0  0  0  0  0
   -4.4212    4.8406    1.2098 H   0  0  0  0  0  0  0  0  0  0  0  0
   -5.7276    3.9421   -0.6598 H   0  0  0  0  0  0  0  0  0  0  0  0
   -3.9005   -1.3626   -4.8501 H   0  0  0  0  0  0  0  0  0  0  0  0
   -2.7026   -3.5013   -5.1693 H   0  0  0  0  0  0  0  0  0  0  0  0
   -1.1245   -4.3031   -3.4564 H   0  0  0  0  0  0  0  0  0  0  0  0
   -0.7275   -2.9552   -1.4233 H   0  0  0  0  0  0  0  0  0  0  0  0
   -5.3823   -1.6960    1.1749 H   0  0  0  0  0  0  0  0  0  0  0  0
   -4.2103   -1.6598   -0.1396 H   0  0  0  0  0  0  0  0  0  0  0  0
   -4.8681   -0.1512    0.4972 H   0  0  0  0  0  0  0  0  0  0  0  0
   -4.4785   -1.4152    3.6548 H   0  0  0  0  0  0  0  0  0  0  0  0
   -2.2745   -2.1132    5.5907 H   0  0  0  0  0  0  0  0  0  0  0  0
   -0.8637   -1.0953    5.2826 H   0  0  0  0  0  0  0  0  0  0  0  0
   -2.4066   -0.3524    5.7127 H   0  0  0  0  0  0  0  0  0  0  0  0
    2.4571    0.0420    3.5134 H   0  0  0  0  0  0  0  0  0  0  0  0
    3.7327    0.6200    2.4381 H   0  0  0  0  0  0  0  0  0  0  0  0
    3.5037   -1.1183    2.7032 H   0  0  0  0  0  0  0  0  0  0  0  0
    4.6918   -0.9852    0.6757 H   0  0  0  0  0  0  0  0  0  0  0  0
    6.8433   -0.4053   -0.2913 H   0  0  0  0  0  0  0  0  0  0  0  0
  1  2  1  0  0  0  0
  2  3  1  0  0  0  0
  3  4  2  0  0  0  0
  4  5  1  0  0  0  0
  5  6  2  0  0  0  0
  6  7  1  0  0  0  0
  7  8  2  0  0  0  0
  8  9  1  0  0  0  0
  8 10  1  0  0  0  0
 10 11  2  0  0  0  0
 11 12  1  0  0  0  0
 12 13  2  0  0  0  0
 13 14  1  0  0  0  0
 14 15  2  0  0  0  0
 15 16  1  0  0  0  0
 16 17  2  0  0  0  0
 17 18  1  0  0  0  0
 18 19  2  0  0  0  0
 13 20  1  0  0  0  0
 20 21  2  0  0  0  0
 21 22  1  0  0  0  0
 22 23  2  0  0  0  0
 23 24  1  0  0  0  0
 24 25  2  0  0  0  0
 25 26  1  0  0  0  0
 11 27  1  0  0  0  0
 27 28  2  0  0  0  0
 28 29  1  0  0  0  0
 28 30  1  0  0  0  0
 30 31  2  0  0  0  0
 31 32  1  0  0  0  0
 31 33  1  0  0  0  0
 33 34  1  0  0  0  0
 34 35  1  0  0  0  0
 34 36  1  0  0  0  0
 34 37  1  0  0  0  0
 37 38  2  0  0  0  0
 38 39  1  0  0  0  0
  6 40  1  0  0  0  0
 40 41  2  0  0  0  0
 41  3  1  0  0  0  0
 38  7  1  0  0  0  0
 37 10  1  0  0  0  0
 26 12  1  0  0  0  0
 33 27  1  0  0  0  0
 19 14  1  0  0  0  0
 26 21  1  0  0  0  0
  1 42  1  0  0  0  0
  1 43  1  0  0  0  0
  1 44  1  0  0  0  0
  4 45  1  0  0  0  0
  5 46  1  0  0  0  0
  9 47  1  0  0  0  0
  9 48  1  0  0  0  0
  9 49  1  0  0  0  0
 15 50  1  0  0  0  0
 16 51  1  0  0  0  0
 17 52  1  0  0  0  0
 18 53  1  0  0  0  0
 22 54  1  0  0  0  0
 23 55  1  0  0  0  0
 24 56  1  0  0  0  0
 25 57  1  0  0  0  0
 29 58  1  0  0  0  0
 29 59  1  0  0  0  0
 29 60  1  0  0  0  0
 30 61  1  0  0  0  0
 32 62  1  0  0  0  0
 32 63  1  0  0  0  0
 32 64  1  0  0  0  0
 39 65  1  0  0  0  0
 39 66  1  0  0  0  0
 39 67  1  0  0  0  0
 40 68  1  0  0  0  0
 41 69  1  0  0  0  0
M  CHG  1  34  -1
M  CHG  1  37   1
M  END
