
  xtb     03012221253D
 energy: -11.662439873549 gnorm: 0.000076284901 xtb: 6.4.1 (afa7bdf)
 53 60  0     0  0            999 V2000
    5.6147   -1.7312    3.2493 F   0  0  0  0  0  0  0  0  0  0  0  0
    6.7617   -1.2927    2.6914 C   0  0  0  0  0  0  0  0  0  0  0  0
    7.3948   -0.4479    3.5301 F   0  0  0  0  0  0  0  0  0  0  0  0
    7.5620   -2.3355    2.3908 F   0  0  0  0  0  0  0  0  0  0  0  0
    6.4383   -0.5472    1.4096 C   0  0  0  0  0  0  0  0  0  0  0  0
    7.4808   -0.0544    0.6208 C   0  0  0  0  0  0  0  0  0  0  0  0
    7.2354    0.6215   -0.5459 C   0  0  0  0  0  0  0  0  0  0  0  0
    5.9127    0.8188   -0.9507 C   0  0  0  0  0  0  0  0  0  0  0  0
    5.4017    1.4483   -2.0683 O   0  0  0  0  0  0  0  0  0  0  0  0
    4.0226    1.3629   -2.0058 C   0  0  0  0  0  0  0  0  0  0  0  0
    3.1559    1.8382   -2.9013 N   0  0  0  0  0  0  0  0  0  0  0  0
    1.8745    1.6120   -2.6052 C   0  0  0  0  0  0  0  0  0  0  0  0
    0.7775    1.9798   -3.3622 O   0  0  0  0  0  0  0  0  0  0  0  0
   -0.3559    1.5416   -2.6988 C   0  0  0  0  0  0  0  0  0  0  0  0
   -1.7064    1.6438   -3.0445 C   0  0  0  0  0  0  0  0  0  0  0  0
   -2.6519    1.1100   -2.2115 C   0  0  0  0  0  0  0  0  0  0  0  0
   -2.2994    0.4659   -1.0079 C   0  0  0  0  0  0  0  0  0  0  0  0
   -3.3235   -0.0920   -0.1584 N   0  0  0  0  0  0  0  0  0  0  0  0
   -4.2369    0.7536    0.5261 C   0  0  0  0  0  0  0  0  0  0  0  0
   -4.1689    2.1326    0.4159 C   0  0  0  0  0  0  0  0  0  0  0  0
   -5.0623    2.9449    1.0860 C   0  0  0  0  0  0  0  0  0  0  0  0
   -6.0371    2.3859    1.8812 C   0  0  0  0  0  0  0  0  0  0  0  0
   -6.1160    1.0146    2.0125 C   0  0  0  0  0  0  0  0  0  0  0  0
   -5.2257    0.1810    1.3495 C   0  0  0  0  0  0  0  0  0  0  0  0
   -5.3371   -1.1949    1.5259 O   0  0  0  0  0  0  0  0  0  0  0  0
   -4.4272   -2.0154    0.8661 C   0  0  0  0  0  0  0  0  0  0  0  0
   -4.5162   -3.3896    1.0414 C   0  0  0  0  0  0  0  0  0  0  0  0
   -3.6453   -4.2456    0.3989 C   0  0  0  0  0  0  0  0  0  0  0  0
   -2.6734   -3.7389   -0.4339 C   0  0  0  0  0  0  0  0  0  0  0  0
   -2.5675   -2.3747   -0.6203 C   0  0  0  0  0  0  0  0  0  0  0  0
   -3.4247   -1.4973    0.0234 C   0  0  0  0  0  0  0  0  0  0  0  0
   -0.9667    0.3627   -0.6518 C   0  0  0  0  0  0  0  0  0  0  0  0
    0.0005    0.8945   -1.4987 C   0  0  0  0  0  0  0  0  0  0  0  0
    1.4286    0.9325   -1.4334 C   0  0  0  0  0  0  0  0  0  0  0  0
    2.3264    0.4429   -0.5071 C   0  0  0  0  0  0  0  0  0  0  0  0
    3.6520    0.6701   -0.8176 C   0  0  0  0  0  0  0  0  0  0  0  0
    4.8657    0.3231   -0.1495 C   0  0  0  0  0  0  0  0  0  0  0  0
    5.1326   -0.3615    1.0337 C   0  0  0  0  0  0  0  0  0  0  0  0
    8.4923   -0.2219    0.9533 H   0  0  0  0  0  0  0  0  0  0  0  0
    8.0340    1.0006   -1.1578 H   0  0  0  0  0  0  0  0  0  0  0  0
   -1.9753    2.1335   -3.9627 H   0  0  0  0  0  0  0  0  0  0  0  0
   -3.6946    1.1678   -2.4701 H   0  0  0  0  0  0  0  0  0  0  0  0
   -3.4023    2.5709   -0.1980 H   0  0  0  0  0  0  0  0  0  0  0  0
   -4.9954    4.0158    0.9866 H   0  0  0  0  0  0  0  0  0  0  0  0
   -6.7356    3.0175    2.4039 H   0  0  0  0  0  0  0  0  0  0  0  0
   -6.8679    0.5632    2.6356 H   0  0  0  0  0  0  0  0  0  0  0  0
   -5.2843   -3.7710    1.6910 H   0  0  0  0  0  0  0  0  0  0  0  0
   -3.7282   -5.3091    0.5474 H   0  0  0  0  0  0  0  0  0  0  0  0
   -1.9947   -4.4056   -0.9400 H   0  0  0  0  0  0  0  0  0  0  0  0
   -1.8128   -1.9811   -1.2775 H   0  0  0  0  0  0  0  0  0  0  0  0
   -0.6859   -0.1205    0.2643 H   0  0  0  0  0  0  0  0  0  0  0  0
    2.0194   -0.0784    0.3809 H   0  0  0  0  0  0  0  0  0  0  0  0
    4.3352   -0.7443    1.6453 H   0  0  0  0  0  0  0  0  0  0  0  0
  1  2  1  0  0  0  0
  2  3  1  0  0  0  0
  2  4  1  0  0  0  0
  2  5  1  0  0  0  0
  5  6  2  0  0  0  0
  6  7  1  0  0  0  0
  7  8  2  0  0  0  0
  8  9  1  0  0  0  0
  9 10  1  0  0  0  0
 10 11  2  0  0  0  0
 11 12  1  0  0  0  0
 12 13  1  0  0  0  0
 13 14  1  0  0  0  0
 14 15  2  0  0  0  0
 15 16  1  0  0  0  0
 16 17  2  0  0  0  0
 17 18  1  0  0  0  0
 18 19  1  0  0  0  0
 19 20  2  0  0  0  0
 20 21  1  0  0  0  0
 21 22  2  0  0  0  0
 22 23  1  0  0  0  0
 23 24  2  0  0  0  0
 24 25  1  0  0  0  0
 25 26  1  0  0  0  0
 26 27  2  0  0  0  0
 27 28  1  0  0  0  0
 28 29  2  0  0  0  0
 29 30  1  0  0  0  0
 30 31  2  0  0  0  0
 17 32  1  0  0  0  0
 32 33  2  0  0  0  0
 33 34  1  0  0  0  0
 34 35  1  0  0  0  0
 35 36  2  0  0  0  0
 36 37  1  0  0  0  0
 37 38  2  0  0  0  0
 38  5  1  0  0  0  0
 37  8  1  0  0  0  0
 36 10  1  0  0  0  0
 34 12  2  0  0  0  0
 33 14  1  0  0  0  0
 31 18  1  0  0  0  0
 24 19  1  0  0  0  0
 31 26  1  0  0  0  0
  6 39  1  0  0  0  0
  7 40  1  0  0  0  0
 15 41  1  0  0  0  0
 16 42  1  0  0  0  0
 20 43  1  0  0  0  0
 21 44  1  0  0  0  0
 22 45  1  0  0  0  0
 23 46  1  0  0  0  0
 27 47  1  0  0  0  0
 28 48  1  0  0  0  0
 29 49  1  0  0  0  0
 30 50  1  0  0  0  0
 32 51  1  0  0  0  0
 35 52  1  0  0  0  0
 38 53  1  0  0  0  0
M  END
