
  xtb     03012221273D
 energy: -12.931941655943 gnorm: 0.000255668924 xtb: 6.4.1 (afa7bdf)
 66 71  0     0  0            999 V2000
   -6.8257    0.6132    1.3585 C   0  0  0  0  0  0  0  0  0  0  0  0
   -5.6216    0.9130    0.4800 C   0  0  0  0  0  0  0  0  0  0  0  0
   -4.5176    1.6603    1.2295 C   0  0  0  0  0  0  0  0  0  0  0  0
   -3.3128    2.0171    0.3539 C   0  0  0  0  0  0  0  0  0  0  0  0
   -2.5411    0.8079   -0.2079 C   0  0  0  0  0  0  0  0  0  0  0  0
   -1.4396    1.2421   -1.1929 C   0  0  0  0  0  0  0  0  0  0  0  0
   -1.9662    1.8760   -2.4702 C   0  0  0  0  0  0  0  0  0  0  0  0
   -1.9462   -0.0520    0.9122 C   0  0  0  0  0  0  0  0  0  0  0  0
   -1.2724   -1.2468    0.3957 N   0  0  0  0  0  0  0  0  0  0  0  0
   -1.9180   -2.4112   -0.0418 C   0  0  0  0  0  0  0  0  0  0  0  0
   -3.2644   -2.7816   -0.0255 C   0  0  0  0  0  0  0  0  0  0  0  0
   -3.6177   -4.0050   -0.5383 C   0  0  0  0  0  0  0  0  0  0  0  0
   -2.6548   -4.8714   -1.0688 C   0  0  0  0  0  0  0  0  0  0  0  0
   -1.3261   -4.5248   -1.0920 C   0  0  0  0  0  0  0  0  0  0  0  0
   -0.9485   -3.2835   -0.5731 C   0  0  0  0  0  0  0  0  0  0  0  0
    0.3288   -2.6241   -0.4620 C   0  0  0  0  0  0  0  0  0  0  0  0
    1.6214   -2.9963   -0.8464 C   0  0  0  0  0  0  0  0  0  0  0  0
    2.6501   -2.1157   -0.6356 C   0  0  0  0  0  0  0  0  0  0  0  0
    2.4314   -0.8546   -0.0460 C   0  0  0  0  0  0  0  0  0  0  0  0
    3.5246    0.0618    0.1301 N   0  0  0  0  0  0  0  0  0  0  0  0
    3.5434    1.4086   -0.2851 C   0  0  0  0  0  0  0  0  0  0  0  0
    2.5940    2.1638   -0.9727 C   0  0  0  0  0  0  0  0  0  0  0  0
    2.8775    3.4756   -1.2630 C   0  0  0  0  0  0  0  0  0  0  0  0
    4.0945    4.0504   -0.8839 C   0  0  0  0  0  0  0  0  0  0  0  0
    5.0445    3.3179   -0.2134 C   0  0  0  0  0  0  0  0  0  0  0  0
    4.7705    1.9824    0.0886 C   0  0  0  0  0  0  0  0  0  0  0  0
    5.5360    0.9575    0.7572 C   0  0  0  0  0  0  0  0  0  0  0  0
    6.8045    0.9598    1.3406 C   0  0  0  0  0  0  0  0  0  0  0  0
    7.2627   -0.1961    1.9253 C   0  0  0  0  0  0  0  0  0  0  0  0
    6.4787   -1.3538    1.9424 C   0  0  0  0  0  0  0  0  0  0  0  0
    5.2294   -1.3715    1.3725 C   0  0  0  0  0  0  0  0  0  0  0  0
    4.7515   -0.2090    0.7688 C   0  0  0  0  0  0  0  0  0  0  0  0
    1.1577   -0.4868    0.3426 C   0  0  0  0  0  0  0  0  0  0  0  0
    0.1000   -1.3701    0.1364 C   0  0  0  0  0  0  0  0  0  0  0  0
   -7.6104    0.0826    0.8137 H   0  0  0  0  0  0  0  0  0  0  0  0
   -6.5457   -0.0044    2.2145 H   0  0  0  0  0  0  0  0  0  0  0  0
   -7.2647    1.5313    1.7546 H   0  0  0  0  0  0  0  0  0  0  0  0
   -5.2222   -0.0212    0.0664 H   0  0  0  0  0  0  0  0  0  0  0  0
   -5.9280    1.5021   -0.3948 H   0  0  0  0  0  0  0  0  0  0  0  0
   -4.1947    1.0671    2.0928 H   0  0  0  0  0  0  0  0  0  0  0  0
   -4.9428    2.5745    1.6653 H   0  0  0  0  0  0  0  0  0  0  0  0
   -2.6094    2.6404    0.9182 H   0  0  0  0  0  0  0  0  0  0  0  0
   -3.6564    2.6463   -0.4738 H   0  0  0  0  0  0  0  0  0  0  0  0
   -3.2460    0.1764   -0.7702 H   0  0  0  0  0  0  0  0  0  0  0  0
   -0.7585    1.9294   -0.6776 H   0  0  0  0  0  0  0  0  0  0  0  0
   -0.8293    0.3667   -1.4466 H   0  0  0  0  0  0  0  0  0  0  0  0
   -2.6621    1.2090   -2.9832 H   0  0  0  0  0  0  0  0  0  0  0  0
   -1.1605    2.1092   -3.1709 H   0  0  0  0  0  0  0  0  0  0  0  0
   -2.4977    2.8081   -2.2720 H   0  0  0  0  0  0  0  0  0  0  0  0
   -1.2303    0.5331    1.4935 H   0  0  0  0  0  0  0  0  0  0  0  0
   -2.7174   -0.3792    1.6130 H   0  0  0  0  0  0  0  0  0  0  0  0
   -3.9992   -2.1151    0.3894 H   0  0  0  0  0  0  0  0  0  0  0  0
   -4.6527   -4.3047   -0.5322 H   0  0  0  0  0  0  0  0  0  0  0  0
   -2.9623   -5.8253   -1.4648 H   0  0  0  0  0  0  0  0  0  0  0  0
   -0.5805   -5.1848   -1.4992 H   0  0  0  0  0  0  0  0  0  0  0  0
    1.7884   -3.9538   -1.3066 H   0  0  0  0  0  0  0  0  0  0  0  0
    3.6507   -2.3697   -0.9387 H   0  0  0  0  0  0  0  0  0  0  0  0
    1.6679    1.7092   -1.2746 H   0  0  0  0  0  0  0  0  0  0  0  0
    2.1525    4.0710   -1.7935 H   0  0  0  0  0  0  0  0  0  0  0  0
    4.2907    5.0826   -1.1248 H   0  0  0  0  0  0  0  0  0  0  0  0
    5.9851    3.7514    0.0775 H   0  0  0  0  0  0  0  0  0  0  0  0
    7.3994    1.8561    1.3268 H   0  0  0  0  0  0  0  0  0  0  0  0
    8.2397   -0.2111    2.3805 H   0  0  0  0  0  0  0  0  0  0  0  0
    6.8611   -2.2453    2.4120 H   0  0  0  0  0  0  0  0  0  0  0  0
    4.6165   -2.2548    1.3900 H   0  0  0  0  0  0  0  0  0  0  0  0
    0.9899    0.4697    0.7996 H   0  0  0  0  0  0  0  0  0  0  0  0
  1  2  1  0  0  0  0
  2  3  1  0  0  0  0
  3  4  1  0  0  0  0
  4  5  1  0  0  0  0
  5  6  1  0  0  0  0
  6  7  1  0  0  0  0
  5  8  1  0  0  0  0
  8  9  1  0  0  0  0
  9 10  1  0  0  0  0
 10 11  2  0  0  0  0
 11 12  1  0  0  0  0
 12 13  2  0  0  0  0
 13 14  1  0  0  0  0
 14 15  2  0  0  0  0
 15 16  1  0  0  0  0
 16 17  2  0  0  0  0
 17 18  1  0  0  0  0
 18 19  2  0  0  0  0
 19 20  1  0  0  0  0
 20 21  1  0  0  0  0
 21 22  2  0  0  0  0
 22 23  1  0  0  0  0
 23 24  2  0  0  0  0
 24 25  1  0  0  0  0
 25 26  2  0  0  0  0
 26 27  1  0  0  0  0
 27 28  2  0  0  0  0
 28 29  1  0  0  0  0
 29 30  2  0  0  0  0
 30 31  1  0  0  0  0
 31 32  2  0  0  0  0
 19 33  1  0  0  0  0
 33 34  2  0  0  0  0
 34  9  1  0  0  0  0
 15 10  1  0  0  0  0
 34 16  1  0  0  0  0
 32 20  1  0  0  0  0
 26 21  1  0  0  0  0
 32 27  1  0  0  0  0
  1 35  1  0  0  0  0
  1 36  1  0  0  0  0
  1 37  1  0  0  0  0
  2 38  1  0  0  0  0
  2 39  1  0  0  0  0
  3 40  1  0  0  0  0
  3 41  1  0  0  0  0
  4 42  1  0  0  0  0
  4 43  1  0  0  0  0
  5 44  1  0  0  0  0
  6 45  1  0  0  0  0
  6 46  1  0  0  0  0
  7 47  1  0  0  0  0
  7 48  1  0  0  0  0
  7 49  1  0  0  0  0
  8 50  1  0  0  0  0
  8 51  1  0  0  0  0
 11 52  1  0  0  0  0
 12 53  1  0  0  0  0
 13 54  1  0  0  0  0
 14 55  1  0  0  0  0
 17 56  1  0  0  0  0
 18 57  1  0  0  0  0
 22 58  1  0  0  0  0
 23 59  1  0  0  0  0
 24 60  1  0  0  0  0
 25 61  1  0  0  0  0
 28 62  1  0  0  0  0
 29 63  1  0  0  0  0
 30 64  1  0  0  0  0
 31 65  1  0  0  0  0
 33 66  1  0  0  0  0
M  END
