
  xtb     03012221243D
 energy: -5.558476001704 gnorm: 0.000378111766 xtb: 6.4.1 (afa7bdf)
 28 30  0     0  0            999 V2000
   -2.0077   -3.0112    1.2462 N   0  0  0  0  0  0  0  0  0  0  0  0
   -2.3790   -2.0181    0.7685 C   0  0  0  0  0  0  0  0  0  0  0  0
   -2.7985   -0.8245    0.1966 C   0  0  0  0  0  0  0  0  0  0  0  0
   -2.0026    0.2105   -0.1800 C   0  0  0  0  0  0  0  0  0  0  0  0
   -0.5631    0.2665   -0.0592 C   0  0  0  0  0  0  0  0  0  0  0  0
    0.2106    1.3272   -0.4482 C   0  0  0  0  0  0  0  0  0  0  0  0
    1.5931    1.1473   -0.2331 C   0  0  0  0  0  0  0  0  0  0  0  0
    1.9159   -0.0583    0.3277 C   0  0  0  0  0  0  0  0  0  0  0  0
    3.2407   -0.5205    0.6583 C   0  0  0  0  0  0  0  0  0  0  0  0
    4.4096    0.1601    0.4608 C   0  0  0  0  0  0  0  0  0  0  0  0
    5.5638   -0.5499    0.8862 C   0  0  0  0  0  0  0  0  0  0  0  0
    5.2868   -1.7658    1.4067 C   0  0  0  0  0  0  0  0  0  0  0  0
    3.5876   -2.0704    1.3865 S   0  0  0  0  0  0  0  0  0  0  0  0
    0.4665   -0.9853    0.5942 S   0  0  0  0  0  0  0  0  0  0  0  0
   -2.8262    1.3326   -0.7622 C   0  0  0  0  0  0  0  0  0  0  0  0
   -4.2977    0.8806   -0.7190 C   0  0  0  0  0  0  0  0  0  0  0  0
   -4.2483   -0.5227   -0.0894 C   0  0  0  0  0  0  0  0  0  0  0  0
   -0.2028    2.2234   -0.8841 H   0  0  0  0  0  0  0  0  0  0  0  0
    2.3292    1.8934   -0.4884 H   0  0  0  0  0  0  0  0  0  0  0  0
    4.4519    1.1446    0.0222 H   0  0  0  0  0  0  0  0  0  0  0  0
    6.5652   -0.1531    0.8007 H   0  0  0  0  0  0  0  0  0  0  0  0
    6.0112   -2.4617    1.7860 H   0  0  0  0  0  0  0  0  0  0  0  0
   -2.6683    2.2495   -0.1821 H   0  0  0  0  0  0  0  0  0  0  0  0
   -2.4977    1.5429   -1.7869 H   0  0  0  0  0  0  0  0  0  0  0  0
   -4.7407    0.8559   -1.7226 H   0  0  0  0  0  0  0  0  0  0  0  0
   -4.9128    1.5672   -0.1237 H   0  0  0  0  0  0  0  0  0  0  0  0
   -4.6592   -1.2862   -0.7608 H   0  0  0  0  0  0  0  0  0  0  0  0
   -4.8275   -0.5740    0.8403 H   0  0  0  0  0  0  0  0  0  0  0  0
  1  2  3  0  0  0  0
  2  3  1  0  0  0  0
  3  4  2  0  0  0  0
  4  5  1  0  0  0  0
  5  6  2  0  0  0  0
  6  7  1  0  0  0  0
  7  8  2  0  0  0  0
  8  9  1  0  0  0  0
  9 10  2  0  0  0  0
 10 11  1  0  0  0  0
 11 12  2  0  0  0  0
 12 13  1  0  0  0  0
  8 14  1  0  0  0  0
  4 15  1  0  0  0  0
 15 16  1  0  0  0  0
 16 17  1  0  0  0  0
 17  3  1  0  0  0  0
 14  5  1  0  0  0  0
 13  9  1  0  0  0  0
  6 18  1  0  0  0  0
  7 19  1  0  0  0  0
 10 20  1  0  0  0  0
 11 21  1  0  0  0  0
 12 22  1  0  0  0  0
 15 23  1  0  0  0  0
 15 24  1  0  0  0  0
 16 25  1  0  0  0  0
 16 26  1  0  0  0  0
 17 27  1  0  0  0  0
 17 28  1  0  0  0  0
M  END
