
  xtb     03012221283D
 energy: -10.601867402177 gnorm: 0.000345060388 xtb: 6.4.1 (afa7bdf)
 50 55  0     0  0            999 V2000
   -2.4469    3.1312   -1.9613 C   0  0  0  0  0  0  0  0  0  0  0  0
   -1.2885    3.3371   -1.2430 C   0  0  0  0  0  0  0  0  0  0  0  0
   -0.7115    2.2906   -0.5621 C   0  0  0  0  0  0  0  0  0  0  0  0
   -1.2739    1.0138   -0.5739 C   0  0  0  0  0  0  0  0  0  0  0  0
   -2.4445    0.8127   -1.3114 C   0  0  0  0  0  0  0  0  0  0  0  0
   -3.0199    1.8761   -1.9895 C   0  0  0  0  0  0  0  0  0  0  0  0
   -3.1147   -0.5155   -1.2862 C   0  0  0  0  0  0  0  0  0  0  0  0
   -3.5720   -0.8480    0.1330 C   0  0  0  0  0  0  0  0  0  0  0  0
   -2.4965   -1.4230    1.0066 C   0  0  0  0  0  0  0  0  0  0  0  0
   -2.8998   -2.3767    1.9324 C   0  0  0  0  0  0  0  0  0  0  0  0
   -1.9993   -3.0340    2.7424 C   0  0  0  0  0  0  0  0  0  0  0  0
   -0.6590   -2.7476    2.6317 C   0  0  0  0  0  0  0  0  0  0  0  0
   -0.2411   -1.7950    1.7336 C   0  0  0  0  0  0  0  0  0  0  0  0
   -1.1306   -1.0862    0.9206 C   0  0  0  0  0  0  0  0  0  0  0  0
   -0.5599   -0.0690    0.0636 N   0  0  0  0  0  0  0  0  0  0  0  0
    0.8800    0.0218   -0.0258 C   0  0  0  0  0  0  0  0  0  0  0  0
    1.6398    0.6047    1.0253 C   0  0  0  0  0  0  0  0  0  0  0  0
    1.0156    1.1090    2.1866 C   0  0  0  0  0  0  0  0  0  0  0  0
    1.7465    1.6689    3.1912 C   0  0  0  0  0  0  0  0  0  0  0  0
    3.1421    1.7562    3.0880 C   0  0  0  0  0  0  0  0  0  0  0  0
    3.7843    1.2867    1.9837 C   0  0  0  0  0  0  0  0  0  0  0  0
    3.0570    0.6996    0.9158 C   0  0  0  0  0  0  0  0  0  0  0  0
    3.6932    0.2240   -0.2323 C   0  0  0  0  0  0  0  0  0  0  0  0
    2.9691   -0.3369   -1.2859 C   0  0  0  0  0  0  0  0  0  0  0  0
    3.6057   -0.8141   -2.4612 C   0  0  0  0  0  0  0  0  0  0  0  0
    2.8775   -1.3520   -3.4775 C   0  0  0  0  0  0  0  0  0  0  0  0
    1.4814   -1.4441   -3.3825 C   0  0  0  0  0  0  0  0  0  0  0  0
    0.8368   -0.9969   -2.2681 C   0  0  0  0  0  0  0  0  0  0  0  0
    1.5512   -0.4348   -1.1902 C   0  0  0  0  0  0  0  0  0  0  0  0
   -2.9050    3.9477   -2.4958 H   0  0  0  0  0  0  0  0  0  0  0  0
   -0.8346    4.3140   -1.2183 H   0  0  0  0  0  0  0  0  0  0  0  0
    0.1979    2.4488   -0.0109 H   0  0  0  0  0  0  0  0  0  0  0  0
   -3.9317    1.7166   -2.5390 H   0  0  0  0  0  0  0  0  0  0  0  0
   -3.9648   -0.5058   -1.9796 H   0  0  0  0  0  0  0  0  0  0  0  0
   -2.4356   -1.2910   -1.6556 H   0  0  0  0  0  0  0  0  0  0  0  0
   -3.9823    0.0497    0.6096 H   0  0  0  0  0  0  0  0  0  0  0  0
   -4.4038   -1.5629    0.0916 H   0  0  0  0  0  0  0  0  0  0  0  0
   -3.9468   -2.6168    2.0082 H   0  0  0  0  0  0  0  0  0  0  0  0
   -2.3407   -3.7746    3.4478 H   0  0  0  0  0  0  0  0  0  0  0  0
    0.0580   -3.2636    3.2490 H   0  0  0  0  0  0  0  0  0  0  0  0
    0.8094   -1.5812    1.6591 H   0  0  0  0  0  0  0  0  0  0  0  0
   -0.0551    1.0405    2.2653 H   0  0  0  0  0  0  0  0  0  0  0  0
    1.2525    2.0465    4.0708 H   0  0  0  0  0  0  0  0  0  0  0  0
    3.7073    2.2009    3.8913 H   0  0  0  0  0  0  0  0  0  0  0  0
    4.8551    1.3580    1.9062 H   0  0  0  0  0  0  0  0  0  0  0  0
    4.7623    0.2982   -0.3101 H   0  0  0  0  0  0  0  0  0  0  0  0
    4.6765   -0.7432   -2.5377 H   0  0  0  0  0  0  0  0  0  0  0  0
    3.3740   -1.7102   -4.3650 H   0  0  0  0  0  0  0  0  0  0  0  0
    0.9186   -1.8698   -4.1963 H   0  0  0  0  0  0  0  0  0  0  0  0
   -0.2333   -1.0603   -2.1944 H   0  0  0  0  0  0  0  0  0  0  0  0
  1  2  2  0  0  0  0
  2  3  1  0  0  0  0
  3  4  2  0  0  0  0
  4  5  1  0  0  0  0
  5  6  2  0  0  0  0
  5  7  1  0  0  0  0
  7  8  1  0  0  0  0
  8  9  1  0  0  0  0
  9 10  2  0  0  0  0
 10 11  1  0  0  0  0
 11 12  2  0  0  0  0
 12 13  1  0  0  0  0
 13 14  2  0  0  0  0
 14 15  1  0  0  0  0
 15 16  1  0  0  0  0
 16 17  1  0  0  0  0
 17 18  2  0  0  0  0
 18 19  1  0  0  0  0
 19 20  2  0  0  0  0
 20 21  1  0  0  0  0
 21 22  2  0  0  0  0
 22 23  1  0  0  0  0
 23 24  2  0  0  0  0
 24 25  1  0  0  0  0
 25 26  2  0  0  0  0
 26 27  1  0  0  0  0
 27 28  2  0  0  0  0
 28 29  1  0  0  0  0
  6  1  1  0  0  0  0
 14  9  1  0  0  0  0
 29 16  2  0  0  0  0
 15  4  1  0  0  0  0
 22 17  1  0  0  0  0
 29 24  1  0  0  0  0
  1 30  1  0  0  0  0
  2 31  1  0  0  0  0
  3 32  1  0  0  0  0
  6 33  1  0  0  0  0
  7 34  1  0  0  0  0
  7 35  1  0  0  0  0
  8 36  1  0  0  0  0
  8 37  1  0  0  0  0
 10 38  1  0  0  0  0
 11 39  1  0  0  0  0
 12 40  1  0  0  0  0
 13 41  1  0  0  0  0
 18 42  1  0  0  0  0
 19 43  1  0  0  0  0
 20 44  1  0  0  0  0
 21 45  1  0  0  0  0
 23 46  1  0  0  0  0
 25 47  1  0  0  0  0
 26 48  1  0  0  0  0
 27 49  1  0  0  0  0
 28 50  1  0  0  0  0
M  END
