
  xtb     03012221273D
 energy: -7.591123559595 gnorm: 0.000423291226 xtb: 6.4.1 (afa7bdf)
 38 42  0     0  0            999 V2000
    0.0512    0.9014   -1.2073 F   0  0  0  0  0  0  0  0  0  0  0  0
    0.0984    0.2116   -0.0083 B   0  0  0  0  0  4  0  0  0  0  0  0
   -0.0574    1.0568    1.0792 F   0  0  0  0  0  0  0  0  0  0  0  0
    1.4616   -0.4775    0.0990 N   0  0  0  0  0  0  0  0  0  0  0  0
    1.5697   -1.8478    0.2343 C   0  0  0  0  0  0  0  0  0  0  0  0
    2.9683   -2.1214    0.2922 C   0  0  0  0  0  0  0  0  0  0  0  0
    3.6342   -0.9363    0.1938 C   0  0  0  0  0  0  0  0  0  0  0  0
    2.6823    0.1217    0.0715 C   0  0  0  0  0  0  0  0  0  0  0  0
    2.9685    1.5125   -0.0499 C   0  0  0  0  0  0  0  0  0  0  0  0
    2.0550    2.5344   -0.1413 C   0  0  0  0  0  0  0  0  0  0  0  0
    2.6384    3.8120   -0.2532 C   0  0  0  0  0  0  0  0  0  0  0  0
    3.9952    3.7957   -0.2486 C   0  0  0  0  0  0  0  0  0  0  0  0
    4.5775    2.1848   -0.1041 S   0  0  0  0  0  0  0  0  0  0  0  0
    0.4898   -2.7177    0.2929 C   0  0  0  0  0  0  0  0  0  0  0  0
    0.7017   -4.2163    0.4112 C   0  0  0  0  0  0  0  0  0  0  0  0
    0.8859   -4.7153   -0.8263 F   0  0  0  0  0  0  0  0  0  0  0  0
    1.7914   -4.4491    1.1682 F   0  0  0  0  0  0  0  0  0  0  0  0
   -0.3817   -4.7788    0.9798 F   0  0  0  0  0  0  0  0  0  0  0  0
   -0.7795   -2.1678    0.1744 C   0  0  0  0  0  0  0  0  0  0  0  0
   -2.0588   -2.7967    0.1958 C   0  0  0  0  0  0  0  0  0  0  0  0
   -3.0081   -1.8296    0.0518 C   0  0  0  0  0  0  0  0  0  0  0  0
   -2.3626   -0.5606   -0.0814 C   0  0  0  0  0  0  0  0  0  0  0  0
   -2.9949    0.7115   -0.2303 C   0  0  0  0  0  0  0  0  0  0  0  0
   -4.3355    0.9550   -0.0429 C   0  0  0  0  0  0  0  0  0  0  0  0
   -4.6982    2.3064   -0.2078 C   0  0  0  0  0  0  0  0  0  0  0  0
   -3.6609    3.1157   -0.5350 C   0  0  0  0  0  0  0  0  0  0  0  0
   -2.2088    2.2094   -0.6764 S   0  0  0  0  0  0  0  0  0  0  0  0
   -1.0311   -0.8202    0.0053 N   0  0  0  0  0  4  0  0  0  0  0  0
    3.3971   -3.1032    0.4080 H   0  0  0  0  0  0  0  0  0  0  0  0
    4.7033   -0.8077    0.2089 H   0  0  0  0  0  0  0  0  0  0  0  0
    0.9904    2.3653   -0.1281 H   0  0  0  0  0  0  0  0  0  0  0  0
    2.0544    4.7195   -0.3350 H   0  0  0  0  0  0  0  0  0  0  0  0
    4.6303    4.6567   -0.3235 H   0  0  0  0  0  0  0  0  0  0  0  0
   -2.2210   -3.8539    0.3260 H   0  0  0  0  0  0  0  0  0  0  0  0
   -4.0722   -1.9932    0.0325 H   0  0  0  0  0  0  0  0  0  0  0  0
   -5.0380    0.1860    0.2366 H   0  0  0  0  0  0  0  0  0  0  0  0
   -5.7115    2.6634   -0.0770 H   0  0  0  0  0  0  0  0  0  0  0  0
   -3.7243    4.1733   -0.7008 H   0  0  0  0  0  0  0  0  0  0  0  0
  1  2  1  0  0  0  0
  2  3  1  0  0  0  0
  2  4  1  0  0  0  0
  4  5  1  0  0  0  0
  5  6  2  0  0  0  0
  6  7  1  0  0  0  0
  7  8  2  0  0  0  0
  8  9  1  0  0  0  0
  9 10  2  0  0  0  0
 10 11  1  0  0  0  0
 11 12  2  0  0  0  0
 12 13  1  0  0  0  0
  5 14  1  0  0  0  0
 14 15  1  0  0  0  0
 15 16  1  0  0  0  0
 15 17  1  0  0  0  0
 15 18  1  0  0  0  0
 14 19  2  0  0  0  0
 19 20  1  0  0  0  0
 20 21  2  0  0  0  0
 21 22  1  0  0  0  0
 22 23  1  0  0  0  0
 23 24  2  0  0  0  0
 24 25  1  0  0  0  0
 25 26  2  0  0  0  0
 26 27  1  0  0  0  0
 22 28  2  0  0  0  0
 28  2  1  0  0  0  0
  8  4  1  0  0  0  0
 13  9  1  0  0  0  0
 28 19  1  0  0  0  0
 27 23  1  0  0  0  0
  6 29  1  0  0  0  0
  7 30  1  0  0  0  0
 10 31  1  0  0  0  0
 11 32  1  0  0  0  0
 12 33  1  0  0  0  0
 20 34  1  0  0  0  0
 21 35  1  0  0  0  0
 24 36  1  0  0  0  0
 25 37  1  0  0  0  0
 26 38  1  0  0  0  0
M  CHG  1   2  -1
M  CHG  1  28   1
M  END
