
  xtb     03012221283D
 energy: -8.076306256726 gnorm: 0.000121778254 xtb: 6.4.1 (afa7bdf)
 38 41  0     0  0            999 V2000
    1.4534   -0.5173   -0.4645 C   0  0  0  0  0  0  0  0  0  0  0  0
    0.6767    0.3406    0.2259 C   0  0  0  0  0  0  0  0  0  0  0  0
   -0.7825    0.2800    0.2800 C   0  0  0  0  0  0  0  0  0  0  0  0
   -1.5389    1.4771    0.1409 C   0  0  0  0  0  0  0  0  0  0  0  0
   -0.9224    2.7416   -0.0448 C   0  0  0  0  0  0  0  0  0  0  0  0
   -1.6612    3.8754   -0.1855 C   0  0  0  0  0  0  0  0  0  0  0  0
   -3.0633    3.8220   -0.1576 C   0  0  0  0  0  0  0  0  0  0  0  0
   -3.7000    2.6336    0.0032 C   0  0  0  0  0  0  0  0  0  0  0  0
   -2.9643    1.4274    0.1519 C   0  0  0  0  0  0  0  0  0  0  0  0
   -3.6109    0.2032    0.2971 C   0  0  0  0  0  0  0  0  0  0  0  0
   -2.8964   -0.9813    0.4560 C   0  0  0  0  0  0  0  0  0  0  0  0
   -3.5670   -2.2221    0.6275 C   0  0  0  0  0  0  0  0  0  0  0  0
   -2.8692   -3.3686    0.8324 C   0  0  0  0  0  0  0  0  0  0  0  0
   -1.4675   -3.3418    0.8893 C   0  0  0  0  0  0  0  0  0  0  0  0
   -0.7908   -2.1741    0.7190 C   0  0  0  0  0  0  0  0  0  0  0  0
   -1.4693   -0.9530    0.4688 C   0  0  0  0  0  0  0  0  0  0  0  0
    2.9038   -0.4813   -0.5340 C   0  0  0  0  0  0  0  0  0  0  0  0
    3.6643    0.5038    0.1016 C   0  0  0  0  0  0  0  0  0  0  0  0
    5.0388    0.5028    0.0096 C   0  0  0  0  0  0  0  0  0  0  0  0
    5.6872   -0.4775   -0.7143 C   0  0  0  0  0  0  0  0  0  0  0  0
    4.9548   -1.4603   -1.3488 C   0  0  0  0  0  0  0  0  0  0  0  0
    3.5805   -1.4637   -1.2615 C   0  0  0  0  0  0  0  0  0  0  0  0
    0.9655   -1.2814   -1.0438 H   0  0  0  0  0  0  0  0  0  0  0  0
    1.1519    1.1497    0.7514 H   0  0  0  0  0  0  0  0  0  0  0  0
    0.1503    2.8016   -0.0876 H   0  0  0  0  0  0  0  0  0  0  0  0
   -1.1695    4.8244   -0.3239 H   0  0  0  0  0  0  0  0  0  0  0  0
   -3.6334    4.7299   -0.2697 H   0  0  0  0  0  0  0  0  0  0  0  0
   -4.7755    2.5908    0.0183 H   0  0  0  0  0  0  0  0  0  0  0  0
   -4.6855    0.1730    0.2971 H   0  0  0  0  0  0  0  0  0  0  0  0
   -4.6430   -2.2387    0.5993 H   0  0  0  0  0  0  0  0  0  0  0  0
   -3.3904   -4.3029    0.9641 H   0  0  0  0  0  0  0  0  0  0  0  0
   -0.9270   -4.2552    1.0764 H   0  0  0  0  0  0  0  0  0  0  0  0
    0.2803   -2.1694    0.8083 H   0  0  0  0  0  0  0  0  0  0  0  0
    3.1746    1.2753    0.6678 H   0  0  0  0  0  0  0  0  0  0  0  0
    5.6111    1.2710    0.5044 H   0  0  0  0  0  0  0  0  0  0  0  0
    6.7629   -0.4754   -0.7840 H   0  0  0  0  0  0  0  0  0  0  0  0
    5.4599   -2.2271   -1.9138 H   0  0  0  0  0  0  0  0  0  0  0  0
    3.0120   -2.2321   -1.7567 H   0  0  0  0  0  0  0  0  0  0  0  0
  1  2  2  0  0  0  0
  2  3  1  0  0  0  0
  3  4  1  0  0  0  0
  4  5  2  0  0  0  0
  5  6  1  0  0  0  0
  6  7  2  0  0  0  0
  7  8  1  0  0  0  0
  8  9  2  0  0  0  0
  9 10  1  0  0  0  0
 10 11  2  0  0  0  0
 11 12  1  0  0  0  0
 12 13  2  0  0  0  0
 13 14  1  0  0  0  0
 14 15  2  0  0  0  0
 15 16  1  0  0  0  0
  1 17  1  0  0  0  0
 17 18  2  0  0  0  0
 18 19  1  0  0  0  0
 19 20  2  0  0  0  0
 20 21  1  0  0  0  0
 21 22  2  0  0  0  0
 16  3  2  0  0  0  0
 22 17  1  0  0  0  0
  9  4  1  0  0  0  0
 16 11  1  0  0  0  0
  1 23  1  0  0  0  0
  2 24  1  0  0  0  0
  5 25  1  0  0  0  0
  6 26  1  0  0  0  0
  7 27  1  0  0  0  0
  8 28  1  0  0  0  0
 10 29  1  0  0  0  0
 12 30  1  0  0  0  0
 13 31  1  0  0  0  0
 14 32  1  0  0  0  0
 15 33  1  0  0  0  0
 18 34  1  0  0  0  0
 19 35  1  0  0  0  0
 20 36  1  0  0  0  0
 21 37  1  0  0  0  0
 22 38  1  0  0  0  0
M  END
