
  xtb     03012221313D
 energy: -6.287412797217 gnorm: 0.000333817525 xtb: 6.4.1 (afa7bdf)
 34 36  0     0  0            999 V2000
   -2.4553    0.0858    1.8406 C   0  0  0  0  0  0  0  0  0  0  0  0
   -2.2341    0.5059    0.3815 C   0  0  0  0  0  0  0  0  0  0  0  0
   -2.0309    2.0242    0.2936 C   0  0  0  0  0  0  0  0  0  0  0  0
   -3.5300    0.1790   -0.3832 C   0  0  0  0  0  0  0  0  0  0  0  0
   -4.5643    0.6918   -0.0116 O   0  0  0  0  0  0  0  0  0  0  0  0
   -3.5004   -0.7192   -1.5146 C   0  0  0  0  0  0  0  0  0  0  0  0
   -2.3717   -1.3033   -1.9386 C   0  0  0  0  0  0  0  0  0  0  0  0
   -1.1033   -1.0766   -1.2980 C   0  0  0  0  0  0  0  0  0  0  0  0
    0.0480   -1.7144   -1.7741 C   0  0  0  0  0  0  0  0  0  0  0  0
    1.2655   -1.5098   -1.1823 C   0  0  0  0  0  0  0  0  0  0  0  0
    1.3842   -0.6514   -0.0875 C   0  0  0  0  0  0  0  0  0  0  0  0
    2.6335   -0.4267    0.5240 N   0  0  0  0  0  0  0  0  0  0  0  0
    3.9606   -0.5141   -0.1510 C   0  0  0  0  0  0  0  0  0  0  0  0
    4.4322    0.7273    0.6271 C   0  0  0  0  0  0  0  0  0  0  0  0
    3.0323    0.8067    1.2618 C   0  0  0  0  0  0  0  0  0  0  0  0
    0.2314   -0.0248    0.3947 C   0  0  0  0  0  0  0  0  0  0  0  0
   -1.0035   -0.2166   -0.1871 C   0  0  0  0  0  0  0  0  0  0  0  0
   -3.3561    0.5546    2.2353 H   0  0  0  0  0  0  0  0  0  0  0  0
   -2.5828   -0.9938    1.9103 H   0  0  0  0  0  0  0  0  0  0  0  0
   -1.6157    0.3722    2.4721 H   0  0  0  0  0  0  0  0  0  0  0  0
   -2.9180    2.5448    0.6525 H   0  0  0  0  0  0  0  0  0  0  0  0
   -1.1788    2.3495    0.8884 H   0  0  0  0  0  0  0  0  0  0  0  0
   -1.8611    2.3258   -0.7392 H   0  0  0  0  0  0  0  0  0  0  0  0
   -4.4349   -0.9064   -2.0119 H   0  0  0  0  0  0  0  0  0  0  0  0
   -2.3986   -1.9667   -2.7858 H   0  0  0  0  0  0  0  0  0  0  0  0
   -0.0351   -2.3761   -2.6192 H   0  0  0  0  0  0  0  0  0  0  0  0
    2.1422   -2.0128   -1.5505 H   0  0  0  0  0  0  0  0  0  0  0  0
    4.4813   -1.4473    0.0984 H   0  0  0  0  0  0  0  0  0  0  0  0
    3.8794   -0.3709   -1.2355 H   0  0  0  0  0  0  0  0  0  0  0  0
    5.2365    0.5238    1.3465 H   0  0  0  0  0  0  0  0  0  0  0  0
    4.6858    1.5859   -0.0090 H   0  0  0  0  0  0  0  0  0  0  0  0
    2.4391    1.6771    0.9551 H   0  0  0  0  0  0  0  0  0  0  0  0
    3.0030    0.6563    2.3484 H   0  0  0  0  0  0  0  0  0  0  0  0
    0.3199    0.6201    1.2490 H   0  0  0  0  0  0  0  0  0  0  0  0
  1  2  1  0  0  0  0
  2  3  1  0  0  0  0
  2  4  1  0  0  0  0
  4  5  2  0  0  0  0
  4  6  1  0  0  0  0
  6  7  2  0  0  0  0
  7  8  1  0  0  0  0
  8  9  2  0  0  0  0
  9 10  1  0  0  0  0
 10 11  2  0  0  0  0
 11 12  1  0  0  0  0
 12 13  1  0  0  0  0
 13 14  1  0  0  0  0
 14 15  1  0  0  0  0
 11 16  1  0  0  0  0
 16 17  2  0  0  0  0
 17  2  1  0  0  0  0
 17  8  1  0  0  0  0
 15 12  1  0  0  0  0
  1 18  1  0  0  0  0
  1 19  1  0  0  0  0
  1 20  1  0  0  0  0
  3 21  1  0  0  0  0
  3 22  1  0  0  0  0
  3 23  1  0  0  0  0
  6 24  1  0  0  0  0
  7 25  1  0  0  0  0
  9 26  1  0  0  0  0
 10 27  1  0  0  0  0
 13 28  1  0  0  0  0
 13 29  1  0  0  0  0
 14 30  1  0  0  0  0
 14 31  1  0  0  0  0
 15 32  1  0  0  0  0
 15 33  1  0  0  0  0
 16 34  1  0  0  0  0
M  END
