
  xtb     03012221303D
 energy: -13.342377399297 gnorm: 0.000223323465 xtb: 6.4.1 (afa7bdf)
 65 71  0     0  0            999 V2000
    1.0901   -2.0431   -1.0049 C   0  0  0  0  0  0  0  0  0  0  0  0
    1.4743   -0.7160   -0.4626 C   0  0  0  0  0  0  0  0  0  0  0  0
    2.7823   -0.3174   -0.1094 C   0  0  0  0  0  0  0  0  0  0  0  0
    4.0105   -1.1103   -0.2804 C   0  0  0  0  0  0  0  0  0  0  0  0
    4.9680   -1.1808    0.7328 C   0  0  0  0  0  0  0  0  0  0  0  0
    6.1151   -1.9225    0.5694 C   0  0  0  0  0  0  0  0  0  0  0  0
    6.3344   -2.6095   -0.6077 C   0  0  0  0  0  0  0  0  0  0  0  0
    5.4005   -2.5519   -1.6226 C   0  0  0  0  0  0  0  0  0  0  0  0
    4.2518   -1.8119   -1.4628 C   0  0  0  0  0  0  0  0  0  0  0  0
    2.7017    0.9837    0.4635 C   0  0  0  0  0  0  0  0  0  0  0  0
    3.7765    1.8241    1.0197 C   0  0  0  0  0  0  0  0  0  0  0  0
    1.4128    1.3216    0.4357 N   0  0  0  0  0  4  0  0  0  0  0  0
    0.6079    0.3465   -0.1396 C   0  0  0  0  0  0  0  0  0  0  0  0
   -0.8099    0.4702   -0.2469 C   0  0  0  0  0  0  0  0  0  0  0  0
   -1.6280   -0.5932   -0.7884 C   0  0  0  0  0  0  0  0  0  0  0  0
   -2.6705   -1.3416   -0.1576 C   0  0  0  0  0  0  0  0  0  0  0  0
   -3.0477   -1.2867    1.2546 C   0  0  0  0  0  0  0  0  0  0  0  0
   -2.1843   -0.7311    2.1972 C   0  0  0  0  0  0  0  0  0  0  0  0
   -2.5515   -0.6743    3.5118 C   0  0  0  0  0  0  0  0  0  0  0  0
   -3.7808   -1.1828    3.8578 C   0  0  0  0  0  0  0  0  0  0  0  0
   -4.5739   -1.7215    2.8747 C   0  0  0  0  0  0  0  0  0  0  0  0
   -4.2433   -1.7861    1.5960 N   0  0  0  0  0  0  0  0  0  0  0  0
   -3.2605   -2.1495   -1.0389 N   0  0  0  0  0  0  0  0  0  0  0  0
   -2.6294   -1.9594   -2.2324 C   0  0  0  0  0  0  0  0  0  0  0  0
   -2.8947   -2.5627   -3.4603 C   0  0  0  0  0  0  0  0  0  0  0  0
   -2.1497   -2.1915   -4.5516 C   0  0  0  0  0  0  0  0  0  0  0  0
   -1.1526   -1.2243   -4.4350 C   0  0  0  0  0  0  0  0  0  0  0  0
   -0.8979   -0.6375   -3.2272 C   0  0  0  0  0  0  0  0  0  0  0  0
   -1.6226   -1.0194   -2.1318 N   0  0  0  0  0  0  0  0  0  0  0  0
   -1.3721    1.6784    0.2585 C   0  0  0  0  0  0  0  0  0  0  0  0
   -2.7056    2.1700    0.2579 C   0  0  0  0  0  0  0  0  0  0  0  0
   -3.9104    1.5136   -0.3064 C   0  0  0  0  0  0  0  0  0  0  0  0
   -2.6889    3.4043    0.8956 C   0  0  0  0  0  0  0  0  0  0  0  0
   -1.3700    3.7060    1.2721 C   0  0  0  0  0  0  0  0  0  0  0  0
   -0.8643    4.9095    1.9550 C   0  0  0  0  0  0  0  0  0  0  0  0
   -0.6229    2.6675    0.8718 N   0  0  0  0  0  0  0  0  0  0  0  0
    0.8921    2.6160    1.0580 B   0  0  0  0  0  4  0  0  0  0  0  0
    1.1820    2.6143    2.4194 F   0  0  0  0  0  0  0  0  0  0  0  0
    1.4723    3.7041    0.4134 F   0  0  0  0  0  0  0  0  0  0  0  0
    1.8040   -2.8098   -0.7037 H   0  0  0  0  0  0  0  0  0  0  0  0
    0.1105   -2.3480   -0.6373 H   0  0  0  0  0  0  0  0  0  0  0  0
    1.0508   -2.0254   -2.0936 H   0  0  0  0  0  0  0  0  0  0  0  0
    4.7883   -0.6625    1.6587 H   0  0  0  0  0  0  0  0  0  0  0  0
    6.8426   -1.9696    1.3632 H   0  0  0  0  0  0  0  0  0  0  0  0
    7.2343   -3.1904   -0.7344 H   0  0  0  0  0  0  0  0  0  0  0  0
    5.5729   -3.0851   -2.5433 H   0  0  0  0  0  0  0  0  0  0  0  0
    3.5337   -1.7505   -2.2624 H   0  0  0  0  0  0  0  0  0  0  0  0
    3.9548    1.5809    2.0671 H   0  0  0  0  0  0  0  0  0  0  0  0
    4.7066    1.6950    0.4658 H   0  0  0  0  0  0  0  0  0  0  0  0
    3.4913    2.8756    0.9683 H   0  0  0  0  0  0  0  0  0  0  0  0
   -1.2267   -0.3505    1.8895 H   0  0  0  0  0  0  0  0  0  0  0  0
   -1.8980   -0.2436    4.2526 H   0  0  0  0  0  0  0  0  0  0  0  0
   -4.1140   -1.1612    4.8829 H   0  0  0  0  0  0  0  0  0  0  0  0
   -5.5383   -2.1261    3.1370 H   0  0  0  0  0  0  0  0  0  0  0  0
   -3.6770   -3.2980   -3.5314 H   0  0  0  0  0  0  0  0  0  0  0  0
   -2.3420   -2.6455   -5.5090 H   0  0  0  0  0  0  0  0  0  0  0  0
   -0.5827   -0.9347   -5.3030 H   0  0  0  0  0  0  0  0  0  0  0  0
   -0.1441    0.1187   -3.1088 H   0  0  0  0  0  0  0  0  0  0  0  0
   -4.6707    2.2505   -0.5653 H   0  0  0  0  0  0  0  0  0  0  0  0
   -4.3477    0.8188    0.4107 H   0  0  0  0  0  0  0  0  0  0  0  0
   -3.6656    0.9579   -1.2116 H   0  0  0  0  0  0  0  0  0  0  0  0
   -3.5448    4.0358    1.0620 H   0  0  0  0  0  0  0  0  0  0  0  0
   -1.0515    5.8030    1.3594 H   0  0  0  0  0  0  0  0  0  0  0  0
   -1.3395    5.0351    2.9278 H   0  0  0  0  0  0  0  0  0  0  0  0
    0.2121    4.8248    2.1104 H   0  0  0  0  0  0  0  0  0  0  0  0
  1  2  1  0  0  0  0
  2  3  2  0  0  0  0
  3  4  1  0  0  0  0
  4  5  2  0  0  0  0
  5  6  1  0  0  0  0
  6  7  2  0  0  0  0
  7  8  1  0  0  0  0
  8  9  2  0  0  0  0
  3 10  1  0  0  0  0
 10 11  1  0  0  0  0
 10 12  2  0  0  0  0
 12 13  1  0  0  0  0
 13 14  2  0  0  0  0
 14 15  1  0  0  0  0
 15 16  2  0  0  0  0
 16 17  1  0  0  0  0
 17 18  2  0  0  0  0
 18 19  1  0  0  0  0
 19 20  2  0  0  0  0
 20 21  1  0  0  0  0
 21 22  2  0  0  0  0
 16 23  1  0  0  0  0
 23 24  2  0  0  0  0
 24 25  1  0  0  0  0
 25 26  2  0  0  0  0
 26 27  1  0  0  0  0
 27 28  2  0  0  0  0
 28 29  1  0  0  0  0
 14 30  1  0  0  0  0
 30 31  2  0  0  0  0
 31 32  1  0  0  0  0
 31 33  1  0  0  0  0
 33 34  2  0  0  0  0
 34 35  1  0  0  0  0
 34 36  1  0  0  0  0
 36 37  1  0  0  0  0
 37 38  1  0  0  0  0
 37 39  1  0  0  0  0
 13  2  1  0  0  0  0
 29 15  1  0  0  0  0
 36 30  1  0  0  0  0
  9  4  1  0  0  0  0
 37 12  1  0  0  0  0
 22 17  1  0  0  0  0
 29 24  1  0  0  0  0
  1 40  1  0  0  0  0
  1 41  1  0  0  0  0
  1 42  1  0  0  0  0
  5 43  1  0  0  0  0
  6 44  1  0  0  0  0
  7 45  1  0  0  0  0
  8 46  1  0  0  0  0
  9 47  1  0  0  0  0
 11 48  1  0  0  0  0
 11 49  1  0  0  0  0
 11 50  1  0  0  0  0
 18 51  1  0  0  0  0
 19 52  1  0  0  0  0
 20 53  1  0  0  0  0
 21 54  1  0  0  0  0
 25 55  1  0  0  0  0
 26 56  1  0  0  0  0
 27 57  1  0  0  0  0
 28 58  1  0  0  0  0
 32 59  1  0  0  0  0
 32 60  1  0  0  0  0
 32 61  1  0  0  0  0
 33 62  1  0  0  0  0
 35 63  1  0  0  0  0
 35 64  1  0  0  0  0
 35 65  1  0  0  0  0
M  CHG  1  12   1
M  CHG  1  37  -1
M  END
