
  xtb     03012221283D
 energy: -12.952038051439 gnorm: 0.000400198869 xtb: 6.4.1 (afa7bdf)
 64 68  0     0  0            999 V2000
   -1.7853    4.2913   -0.1837 C   0  0  0  0  0  0  0  0  0  0  0  0
   -2.1664    2.9594    0.4413 C   0  0  0  0  0  0  0  0  0  0  0  0
   -1.1228    2.4340    1.4317 C   0  0  0  0  0  0  0  0  0  0  0  0
    0.2260    2.1137    0.7823 C   0  0  0  0  0  0  0  0  0  0  0  0
    1.1757    1.3290    1.6914 C   0  0  0  0  0  0  0  0  0  0  0  0
    0.7241   -0.1100    1.9051 C   0  0  0  0  0  0  0  0  0  0  0  0
    0.4862   -0.7987    0.6334 N   0  0  0  0  0  0  0  0  0  0  0  0
    1.4833   -1.0974   -0.3005 C   0  0  0  0  0  0  0  0  0  0  0  0
    2.8637   -0.9891   -0.2125 C   0  0  0  0  0  0  0  0  0  0  0  0
    3.6557   -1.3230   -1.3033 C   0  0  0  0  0  0  0  0  0  0  0  0
    5.1021   -1.2283   -1.2774 C   0  0  0  0  0  0  0  0  0  0  0  0
    5.8915   -0.7169   -0.2988 C   0  0  0  0  0  0  0  0  0  0  0  0
    5.3752   -0.1659    0.8779 C   0  0  0  0  0  0  0  0  0  0  0  0
    4.9195    0.2827    1.8487 N   0  0  0  0  0  0  0  0  0  0  0  0
    7.3333   -0.7200   -0.4650 C   0  0  0  0  0  0  0  0  0  0  0  0
    8.2411   -0.2413    0.4358 C   0  0  0  0  0  0  0  0  0  0  0  0
    9.5900   -0.3718    0.0139 C   0  0  0  0  0  0  0  0  0  0  0  0
    9.7204   -0.9466   -1.2029 C   0  0  0  0  0  0  0  0  0  0  0  0
    8.1757   -1.3434   -1.8620 S   0  0  0  0  0  0  0  0  0  0  0  0
    3.0224   -1.7764   -2.4885 C   0  0  0  0  0  0  0  0  0  0  0  0
    1.6605   -1.8795   -2.5931 C   0  0  0  0  0  0  0  0  0  0  0  0
    0.8727   -1.5343   -1.4904 C   0  0  0  0  0  0  0  0  0  0  0  0
   -0.5473   -1.4834   -1.2796 C   0  0  0  0  0  0  0  0  0  0  0  0
   -1.6339   -1.7475   -2.1175 C   0  0  0  0  0  0  0  0  0  0  0  0
   -2.8997   -1.5588   -1.6351 C   0  0  0  0  0  0  0  0  0  0  0  0
   -3.1451   -1.1143   -0.3114 C   0  0  0  0  0  0  0  0  0  0  0  0
   -4.4771   -0.9070    0.2261 C   0  0  0  0  0  0  0  0  0  0  0  0
   -5.6719   -1.0400   -0.4058 C   0  0  0  0  0  0  0  0  0  0  0  0
   -5.7861   -1.4149   -1.7474 C   0  0  0  0  0  0  0  0  0  0  0  0
   -5.8884   -1.7287   -2.8620 N   0  0  0  0  0  0  0  0  0  0  0  0
   -6.9258   -0.7923    0.2848 C   0  0  0  0  0  0  0  0  0  0  0  0
   -7.1233   -0.4127    1.5829 C   0  0  0  0  0  0  0  0  0  0  0  0
   -8.4932   -0.2599    1.9313 C   0  0  0  0  0  0  0  0  0  0  0  0
   -9.3456   -0.5183    0.9136 C   0  0  0  0  0  0  0  0  0  0  0  0
   -8.4706   -0.9574   -0.5051 S   0  0  0  0  0  0  0  0  0  0  0  0
   -2.0582   -0.8632    0.5178 C   0  0  0  0  0  0  0  0  0  0  0  0
   -0.7625   -1.0321    0.0382 C   0  0  0  0  0  0  0  0  0  0  0  0
   -1.6195    5.0525    0.5807 H   0  0  0  0  0  0  0  0  0  0  0  0
   -2.5615    4.6647   -0.8554 H   0  0  0  0  0  0  0  0  0  0  0  0
   -0.8657    4.2121   -0.7654 H   0  0  0  0  0  0  0  0  0  0  0  0
   -3.1387    3.0532    0.9443 H   0  0  0  0  0  0  0  0  0  0  0  0
   -2.3250    2.2100   -0.3453 H   0  0  0  0  0  0  0  0  0  0  0  0
   -1.5085    1.5377    1.9297 H   0  0  0  0  0  0  0  0  0  0  0  0
   -0.9765    3.1621    2.2386 H   0  0  0  0  0  0  0  0  0  0  0  0
    0.0582    1.5385   -0.1356 H   0  0  0  0  0  0  0  0  0  0  0  0
    0.7010    3.0460    0.4530 H   0  0  0  0  0  0  0  0  0  0  0  0
    1.2829    1.8449    2.6530 H   0  0  0  0  0  0  0  0  0  0  0  0
    2.1805    1.3229    1.2513 H   0  0  0  0  0  0  0  0  0  0  0  0
    1.4699   -0.6819    2.4679 H   0  0  0  0  0  0  0  0  0  0  0  0
   -0.1945   -0.1503    2.4962 H   0  0  0  0  0  0  0  0  0  0  0  0
    3.2896   -0.6409    0.7059 H   0  0  0  0  0  0  0  0  0  0  0  0
    5.6075   -1.6066   -2.1477 H   0  0  0  0  0  0  0  0  0  0  0  0
    7.9499    0.1938    1.3792 H   0  0  0  0  0  0  0  0  0  0  0  0
   10.4285   -0.0428    0.6109 H   0  0  0  0  0  0  0  0  0  0  0  0
   10.6492   -1.1383   -1.7058 H   0  0  0  0  0  0  0  0  0  0  0  0
    3.6393   -2.0373   -3.3308 H   0  0  0  0  0  0  0  0  0  0  0  0
    1.1918   -2.2133   -3.5013 H   0  0  0  0  0  0  0  0  0  0  0  0
   -1.4629   -2.0824   -3.1250 H   0  0  0  0  0  0  0  0  0  0  0  0
   -3.7296   -1.7546   -2.2869 H   0  0  0  0  0  0  0  0  0  0  0  0
   -4.5071   -0.6056    1.2573 H   0  0  0  0  0  0  0  0  0  0  0  0
   -6.3212   -0.2441    2.2837 H   0  0  0  0  0  0  0  0  0  0  0  0
   -8.8195    0.0343    2.9187 H   0  0  0  0  0  0  0  0  0  0  0  0
  -10.4164   -0.4634    0.9642 H   0  0  0  0  0  0  0  0  0  0  0  0
   -2.2171   -0.5487    1.5314 H   0  0  0  0  0  0  0  0  0  0  0  0
  1  2  1  0  0  0  0
  2  3  1  0  0  0  0
  3  4  1  0  0  0  0
  4  5  1  0  0  0  0
  5  6  1  0  0  0  0
  6  7  1  0  0  0  0
  7  8  1  0  0  0  0
  8  9  2  0  0  0  0
  9 10  1  0  0  0  0
 10 11  1  0  0  0  0
 11 12  2  0  0  0  0
 12 13  1  0  0  0  0
 13 14  3  0  0  0  0
 12 15  1  0  0  0  0
 15 16  2  0  0  0  0
 16 17  1  0  0  0  0
 17 18  2  0  0  0  0
 18 19  1  0  0  0  0
 10 20  2  0  0  0  0
 20 21  1  0  0  0  0
 21 22  2  0  0  0  0
 22 23  1  0  0  0  0
 23 24  2  0  0  0  0
 24 25  1  0  0  0  0
 25 26  2  0  0  0  0
 26 27  1  0  0  0  0
 27 28  2  0  0  0  0
 28 29  1  0  0  0  0
 29 30  3  0  0  0  0
 28 31  1  0  0  0  0
 31 32  2  0  0  0  0
 32 33  1  0  0  0  0
 33 34  2  0  0  0  0
 34 35  1  0  0  0  0
 26 36  1  0  0  0  0
 36 37  2  0  0  0  0
 37  7  1  0  0  0  0
 22  8  1  0  0  0  0
 37 23  1  0  0  0  0
 19 15  1  0  0  0  0
 35 31  1  0  0  0  0
  1 38  1  0  0  0  0
  1 39  1  0  0  0  0
  1 40  1  0  0  0  0
  2 41  1  0  0  0  0
  2 42  1  0  0  0  0
  3 43  1  0  0  0  0
  3 44  1  0  0  0  0
  4 45  1  0  0  0  0
  4 46  1  0  0  0  0
  5 47  1  0  0  0  0
  5 48  1  0  0  0  0
  6 49  1  0  0  0  0
  6 50  1  0  0  0  0
  9 51  1  0  0  0  0
 11 52  1  0  0  0  0
 16 53  1  0  0  0  0
 17 54  1  0  0  0  0
 18 55  1  0  0  0  0
 20 56  1  0  0  0  0
 21 57  1  0  0  0  0
 24 58  1  0  0  0  0
 25 59  1  0  0  0  0
 27 60  1  0  0  0  0
 32 61  1  0  0  0  0
 33 62  1  0  0  0  0
 34 63  1  0  0  0  0
 36 64  1  0  0  0  0
M  END
