
  xtb     03012221253D
 energy: -14.731603314045 gnorm: 0.000475146394 xtb: 6.4.1 (afa7bdf)
 77 82  0     0  0            999 V2000
   -3.1413    6.2674   -0.5388 C   0  0  0  0  0  0  0  0  0  0  0  0
   -3.2513    5.0779    0.0397 C   0  0  0  0  0  0  0  0  0  0  0  0
   -2.1622    4.1094    0.1385 C   0  0  0  0  0  0  0  0  0  0  0  0
   -0.8170    4.3711    0.3645 C   0  0  0  0  0  0  0  0  0  0  0  0
   -0.1899    5.7025    0.5749 C   0  0  0  0  0  0  0  0  0  0  0  0
   -0.1345    3.1273    0.3595 C   0  0  0  0  0  0  0  0  0  0  0  0
    1.2581    2.9711    0.5485 C   0  0  0  0  0  0  0  0  0  0  0  0
    1.9427    1.7910    0.4583 C   0  0  0  0  0  0  0  0  0  0  0  0
    1.4204    0.5886    0.1455 N   0  0  0  0  0  0  0  0  0  0  0  0
    2.4000   -0.3302    0.0324 C   0  0  0  0  0  0  0  0  0  0  0  0
    2.1449   -1.6895    0.0252 C   0  0  0  0  0  0  0  0  0  0  0  0
    0.8309   -2.2022    0.0072 C   0  0  0  0  0  0  0  0  0  0  0  0
   -0.4511   -1.7551   -0.0922 N   0  0  0  0  0  0  0  0  0  0  0  0
   -1.3133   -2.8435   -0.0309 C   0  0  0  0  0  0  0  0  0  0  0  0
   -2.6991   -2.7284   -0.1263 C   0  0  0  0  0  0  0  0  0  0  0  0
   -3.3422   -1.4927   -0.2164 C   0  0  0  0  0  0  0  0  0  0  0  0
   -2.7325   -0.2872   -0.1442 N   0  0  0  0  0  0  0  0  0  0  0  0
   -3.7013    0.6426   -0.2249 C   0  0  0  0  0  0  0  0  0  0  0  0
   -3.5221    2.0258   -0.1647 C   0  0  0  0  0  0  0  0  0  0  0  0
   -2.3108    2.6841    0.0313 C   0  0  0  0  0  0  0  0  0  0  0  0
   -1.0546    2.1259    0.1610 N   0  0  0  0  0  0  0  0  0  0  0  0
   -4.9996    0.0088   -0.3561 C   0  0  0  0  0  0  0  0  0  0  0  0
   -6.3089    0.7000   -0.4703 C   0  0  0  0  0  0  0  0  0  0  0  0
   -4.7700   -1.3269   -0.3705 C   0  0  0  0  0  0  0  0  0  0  0  0
   -5.7894   -2.4174   -0.4534 C   0  0  0  0  0  0  0  0  0  0  0  0
   -6.2753   -2.8703    0.9125 C   0  0  0  0  0  0  0  0  0  0  0  0
   -0.5240   -4.0240    0.1289 C   0  0  0  0  0  0  0  0  0  0  0  0
   -0.9938   -5.4231    0.2600 C   0  0  0  0  0  0  0  0  0  0  0  0
    0.7992   -3.6048    0.1549 C   0  0  0  0  0  0  0  0  0  0  0  0
    2.1681   -4.1027    0.3166 C   0  0  0  0  0  0  0  0  0  0  0  0
    2.4923   -5.2487    0.5149 O   0  0  0  0  0  0  0  0  0  0  0  0
    3.0656   -2.8808    0.1988 C   0  0  0  0  0  0  0  0  0  0  0  0
    3.7680    0.3225    0.0638 C   0  0  0  0  0  0  0  0  0  0  0  0
    4.3882    0.5081   -1.3337 C   0  0  0  0  0  0  0  0  0  0  0  0
    4.7676   -0.7887   -2.0338 C   0  0  0  0  0  0  0  0  0  0  0  0
    5.7569   -1.5959   -1.2393 C   0  0  0  0  0  0  0  0  0  0  0  0
    5.7199   -2.8060   -1.3087 O   0  0  0  0  0  0  0  0  0  0  0  0
    6.6481   -0.8933   -0.4819 O   0  0  0  0  0  0  0  0  0  0  0  0
    7.4896   -1.7808    0.1810 C   0  0  0  0  0  0  0  0  0  0  0  0
    3.4368    1.6916    0.6985 C   0  0  0  0  0  0  0  0  0  0  0  0
    3.7916    1.7575    2.1812 C   0  0  0  0  0  0  0  0  0  0  0  0
   -2.2252    6.5773   -0.9989 H   0  0  0  0  0  0  0  0  0  0  0  0
   -3.9681    6.9479   -0.5946 H   0  0  0  0  0  0  0  0  0  0  0  0
   -4.2025    4.7838    0.4516 H   0  0  0  0  0  0  0  0  0  0  0  0
    0.2324    6.0859   -0.3545 H   0  0  0  0  0  0  0  0  0  0  0  0
   -0.9166    6.4262    0.9443 H   0  0  0  0  0  0  0  0  0  0  0  0
    0.6111    5.6481    1.3123 H   0  0  0  0  0  0  0  0  0  0  0  0
    1.8292    3.8548    0.7654 H   0  0  0  0  0  0  0  0  0  0  0  0
   -0.7419   -0.7867   -0.2291 H   0  0  0  0  0  0  0  0  0  0  0  0
   -3.2891   -3.6261   -0.1246 H   0  0  0  0  0  0  0  0  0  0  0  0
   -4.3992    2.6366   -0.2608 H   0  0  0  0  0  0  0  0  0  0  0  0
   -0.8466    1.1212    0.1311 H   0  0  0  0  0  0  0  0  0  0  0  0
   -6.3727    1.5338    0.2290 H   0  0  0  0  0  0  0  0  0  0  0  0
   -6.4538    1.0903   -1.4778 H   0  0  0  0  0  0  0  0  0  0  0  0
   -7.1347    0.0245   -0.2482 H   0  0  0  0  0  0  0  0  0  0  0  0
   -6.6326   -2.0743   -1.0676 H   0  0  0  0  0  0  0  0  0  0  0  0
   -5.3640   -3.2630   -1.0100 H   0  0  0  0  0  0  0  0  0  0  0  0
   -6.7275   -2.0434    1.4615 H   0  0  0  0  0  0  0  0  0  0  0  0
   -5.4479   -3.2415    1.5187 H   0  0  0  0  0  0  0  0  0  0  0  0
   -7.0180   -3.6669    0.8414 H   0  0  0  0  0  0  0  0  0  0  0  0
   -1.5551   -5.7304   -0.6223 H   0  0  0  0  0  0  0  0  0  0  0  0
   -0.1457   -6.0998    0.3738 H   0  0  0  0  0  0  0  0  0  0  0  0
   -1.6368   -5.5379    1.1327 H   0  0  0  0  0  0  0  0  0  0  0  0
    3.7374   -3.0013   -0.6542 H   0  0  0  0  0  0  0  0  0  0  0  0
    3.6811   -2.7749    1.0960 H   0  0  0  0  0  0  0  0  0  0  0  0
    4.4446   -0.2559    0.7091 H   0  0  0  0  0  0  0  0  0  0  0  0
    5.2843    1.1308   -1.2383 H   0  0  0  0  0  0  0  0  0  0  0  0
    3.6881    1.0809   -1.9514 H   0  0  0  0  0  0  0  0  0  0  0  0
    5.1948   -0.5901   -3.0221 H   0  0  0  0  0  0  0  0  0  0  0  0
    3.8758   -1.3966   -2.2102 H   0  0  0  0  0  0  0  0  0  0  0  0
    8.0110   -2.3947   -0.5573 H   0  0  0  0  0  0  0  0  0  0  0  0
    6.8915   -2.4249    0.8298 H   0  0  0  0  0  0  0  0  0  0  0  0
    8.2123   -1.2189    0.7764 H   0  0  0  0  0  0  0  0  0  0  0  0
    3.9455    2.4962    0.1470 H   0  0  0  0  0  0  0  0  0  0  0  0
    3.2753    0.9698    2.7294 H   0  0  0  0  0  0  0  0  0  0  0  0
    3.4967    2.7113    2.6191 H   0  0  0  0  0  0  0  0  0  0  0  0
    4.8623    1.6270    2.3408 H   0  0  0  0  0  0  0  0  0  0  0  0
  1  2  2  0  0  0  0
  2  3  1  0  0  0  0
  3  4  2  0  0  0  0
  4  5  1  0  0  0  0
  4  6  1  0  0  0  0
  6  7  2  0  0  0  0
  7  8  1  0  0  0  0
  8  9  2  0  0  0  0
  9 10  1  0  0  0  0
 10 11  2  0  0  0  0
 11 12  1  0  0  0  0
 12 13  1  0  0  0  0
 13 14  1  0  0  0  0
 14 15  1  0  0  0  0
 15 16  2  0  0  0  0
 16 17  1  0  0  0  0
 17 18  2  0  0  0  0
 18 19  1  0  0  0  0
 19 20  2  0  0  0  0
 20 21  1  0  0  0  0
 18 22  1  0  0  0  0
 22 23  1  0  0  0  0
 22 24  2  0  0  0  0
 24 25  1  0  0  0  0
 25 26  1  0  0  0  0
 14 27  2  0  0  0  0
 27 28  1  0  0  0  0
 27 29  1  0  0  0  0
 29 30  1  0  0  0  0
 30 31  2  0  0  0  0
 30 32  1  0  0  0  0
 10 33  1  0  0  0  0
 33 34  1  0  0  0  0
 34 35  1  0  0  0  0
 35 36  1  0  0  0  0
 36 37  2  0  0  0  0
 36 38  1  0  0  0  0
 38 39  1  0  0  0  0
 33 40  1  0  0  0  0
 40 41  1  0  0  0  0
 20  3  1  0  0  0  0
 21  6  1  0  0  0  0
 40  8  1  0  0  0  0
 32 11  1  0  0  0  0
 29 12  2  0  0  0  0
 24 16  1  0  0  0  0
  1 42  1  0  0  0  0
  1 43  1  0  0  0  0
  2 44  1  0  0  0  0
  5 45  1  0  0  0  0
  5 46  1  0  0  0  0
  5 47  1  0  0  0  0
  7 48  1  0  0  0  0
 13 49  1  0  0  0  0
 15 50  1  0  0  0  0
 19 51  1  0  0  0  0
 21 52  1  0  0  0  0
 23 53  1  0  0  0  0
 23 54  1  0  0  0  0
 23 55  1  0  0  0  0
 25 56  1  0  0  0  0
 25 57  1  0  0  0  0
 26 58  1  0  0  0  0
 26 59  1  0  0  0  0
 26 60  1  0  0  0  0
 28 61  1  0  0  0  0
 28 62  1  0  0  0  0
 28 63  1  0  0  0  0
 32 64  1  0  0  0  0
 32 65  1  0  0  0  0
 33 66  1  0  0  0  0
 34 67  1  0  0  0  0
 34 68  1  0  0  0  0
 35 69  1  0  0  0  0
 35 70  1  0  0  0  0
 39 71  1  0  0  0  0
 39 72  1  0  0  0  0
 39 73  1  0  0  0  0
 40 74  1  0  0  0  0
 41 75  1  0  0  0  0
 41 76  1  0  0  0  0
 41 77  1  0  0  0  0
M  END
