
  xtb     03012221263D
 energy: -8.148431387382 gnorm: 0.000374851517 xtb: 6.4.1 (afa7bdf)
 41 44  0     0  0            999 V2000
    2.4629   -3.8375   -0.0076 C   0  0  0  0  0  0  0  0  0  0  0  0
    1.7269   -3.7346    1.1783 O   0  0  0  0  0  0  0  0  0  0  0  0
    0.9679   -2.6035    1.2587 C   0  0  0  0  0  0  0  0  0  0  0  0
    0.7675   -1.5512    0.4083 N   0  0  0  0  0  4  0  0  0  0  0  0
   -0.1020   -0.6200    0.9448 C   0  0  0  0  0  0  0  0  0  0  0  0
   -0.5287    0.5665    0.3248 C   0  0  0  0  0  0  0  0  0  0  0  0
   -1.4609    1.4955    0.9881 C   0  0  0  0  0  0  0  0  0  0  0  0
   -1.2793    1.8667    2.3234 C   0  0  0  0  0  0  0  0  0  0  0  0
   -2.1627    2.7172    2.9446 C   0  0  0  0  0  0  0  0  0  0  0  0
   -3.2442    3.2209    2.2524 C   0  0  0  0  0  0  0  0  0  0  0  0
   -3.4398    2.8707    0.9325 C   0  0  0  0  0  0  0  0  0  0  0  0
   -2.5614    2.0194    0.3047 C   0  0  0  0  0  0  0  0  0  0  0  0
   -0.0218    0.8098   -0.9646 C   0  0  0  0  0  0  0  0  0  0  0  0
   -0.2046    1.9104   -1.8527 C   0  0  0  0  0  0  0  0  0  0  0  0
    0.5321    1.6735   -2.9789 C   0  0  0  0  0  0  0  0  0  0  0  0
    1.2077    0.4222   -2.8355 C   0  0  0  0  0  0  0  0  0  0  0  0
    2.0526   -0.2215   -3.6949 O   0  0  0  0  0  0  0  0  0  0  0  0
    2.2693    0.4775   -4.8939 C   0  0  0  0  0  0  0  0  0  0  0  0
    0.8374   -0.0404   -1.6077 N   0  0  0  0  0  0  0  0  0  0  0  0
    1.3504   -1.3434   -0.9986 B   0  0  0  0  0  4  0  0  0  0  0  0
    2.7312   -1.2573   -0.8993 F   0  0  0  0  0  0  0  0  0  0  0  0
    0.9366   -2.3904   -1.8088 F   0  0  0  0  0  0  0  0  0  0  0  0
   -0.4866   -1.1333    2.2137 C   0  0  0  0  0  0  0  0  0  0  0  0
    0.1541   -2.3203    2.4163 C   0  0  0  0  0  0  0  0  0  0  0  0
    0.0017   -3.3232    3.8550 S   0  0  0  0  0  0  0  0  0  0  0  0
   -1.0055   -2.2843    4.7639 C   0  0  0  0  0  0  0  0  0  0  0  0
   -1.6844   -1.5051    5.2848 N   0  0  0  0  0  0  0  0  0  0  0  0
    1.7754   -3.8660   -0.8538 H   0  0  0  0  0  0  0  0  0  0  0  0
    3.0426   -4.7610    0.0232 H   0  0  0  0  0  0  0  0  0  0  0  0
    3.1381   -2.9842   -0.0837 H   0  0  0  0  0  0  0  0  0  0  0  0
   -0.4250    1.4926    2.8589 H   0  0  0  0  0  0  0  0  0  0  0  0
   -2.0109    2.9897    3.9765 H   0  0  0  0  0  0  0  0  0  0  0  0
   -3.9375    3.8858    2.7436 H   0  0  0  0  0  0  0  0  0  0  0  0
   -4.2885    3.2604    0.3943 H   0  0  0  0  0  0  0  0  0  0  0  0
   -2.7301    1.7247   -0.7156 H   0  0  0  0  0  0  0  0  0  0  0  0
   -0.7995    2.7850   -1.6554 H   0  0  0  0  0  0  0  0  0  0  0  0
    0.6026    2.3274   -3.8306 H   0  0  0  0  0  0  0  0  0  0  0  0
    2.9452   -0.1122   -5.5147 H   0  0  0  0  0  0  0  0  0  0  0  0
    1.3217    0.6109   -5.4177 H   0  0  0  0  0  0  0  0  0  0  0  0
    2.7279    1.4434   -4.6779 H   0  0  0  0  0  0  0  0  0  0  0  0
   -1.1784   -0.6801    2.9009 H   0  0  0  0  0  0  0  0  0  0  0  0
  1  2  1  0  0  0  0
  2  3  1  0  0  0  0
  3  4  2  0  0  0  0
  4  5  1  0  0  0  0
  5  6  2  0  0  0  0
  6  7  1  0  0  0  0
  7  8  2  0  0  0  0
  8  9  1  0  0  0  0
  9 10  2  0  0  0  0
 10 11  1  0  0  0  0
 11 12  2  0  0  0  0
  6 13  1  0  0  0  0
 13 14  2  0  0  0  0
 14 15  1  0  0  0  0
 15 16  2  0  0  0  0
 16 17  1  0  0  0  0
 17 18  1  0  0  0  0
 16 19  1  0  0  0  0
 19 20  1  0  0  0  0
 20 21  1  0  0  0  0
 20 22  1  0  0  0  0
  5 23  1  0  0  0  0
 23 24  2  0  0  0  0
 24 25  1  0  0  0  0
 25 26  1  0  0  0  0
 26 27  3  0  0  0  0
 24  3  1  0  0  0  0
 20  4  1  0  0  0  0
 12  7  1  0  0  0  0
 19 13  1  0  0  0  0
  1 28  1  0  0  0  0
  1 29  1  0  0  0  0
  1 30  1  0  0  0  0
  8 31  1  0  0  0  0
  9 32  1  0  0  0  0
 10 33  1  0  0  0  0
 11 34  1  0  0  0  0
 12 35  1  0  0  0  0
 14 36  1  0  0  0  0
 15 37  1  0  0  0  0
 18 38  1  0  0  0  0
 18 39  1  0  0  0  0
 18 40  1  0  0  0  0
 23 41  1  0  0  0  0
M  CHG  1   4   1
M  CHG  1  20  -1
M  END
