
  xtb     03012221263D
 energy: -7.580281641769 gnorm: 0.000274583300 xtb: 6.4.1 (afa7bdf)
 36 38  0     0  0            999 V2000
    0.3781   -3.8377   -0.9422 C   0  0  0  0  0  0  0  0  0  0  0  0
   -0.3716   -2.6404   -0.6157 N   0  0  0  0  0  0  0  0  0  0  0  0
   -1.7540   -2.6040   -0.5381 C   0  0  0  0  0  0  0  0  0  0  0  0
   -2.5432   -3.5124   -0.7179 O   0  0  0  0  0  0  0  0  0  0  0  0
   -2.0532   -1.2086   -0.1879 C   0  0  0  0  0  0  0  0  0  0  0  0
   -3.3195   -0.7301   -0.0103 C   0  0  0  0  0  0  0  0  0  0  0  0
   -3.6466    0.6207    0.3305 C   0  0  0  0  0  0  0  0  0  0  0  0
   -2.6804    1.6046    0.5155 C   0  0  0  0  0  0  0  0  0  0  0  0
   -3.0563    2.8794    0.8395 C   0  0  0  0  0  0  0  0  0  0  0  0
   -4.3115    3.2716    0.9985 N   0  0  0  0  0  0  0  0  0  0  0  0
   -5.2326    2.3352    0.8227 C   0  0  0  0  0  0  0  0  0  0  0  0
   -4.9674    1.0314    0.4972 C   0  0  0  0  0  0  0  0  0  0  0  0
   -0.8787   -0.5161   -0.0810 N   0  0  0  0  0  0  0  0  0  0  0  0
    0.1090   -1.3560   -0.3323 C   0  0  0  0  0  0  0  0  0  0  0  0
    1.4886   -0.9951   -0.3149 C   0  0  0  0  0  0  0  0  0  0  0  0
    1.8888    0.2588   -0.0368 C   0  0  0  0  0  0  0  0  0  0  0  0
    3.2573    0.7190    0.0088 C   0  0  0  0  0  0  0  0  0  0  0  0
    3.5486    2.0452    0.3050 C   0  0  0  0  0  0  0  0  0  0  0  0
    4.8550    2.4593    0.3448 C   0  0  0  0  0  0  0  0  0  0  0  0
    5.9000    1.6804    0.1182 N   0  0  0  0  0  0  0  0  0  0  0  0
    5.6174    0.4190   -0.1636 C   0  0  0  0  0  0  0  0  0  0  0  0
    4.3516   -0.1042   -0.2306 C   0  0  0  0  0  0  0  0  0  0  0  0
   -0.3175   -4.6601   -1.1041 H   0  0  0  0  0  0  0  0  0  0  0  0
    1.0468   -4.0954   -0.1231 H   0  0  0  0  0  0  0  0  0  0  0  0
    0.9580   -3.6802   -1.8496 H   0  0  0  0  0  0  0  0  0  0  0  0
   -4.1281   -1.4266   -0.1372 H   0  0  0  0  0  0  0  0  0  0  0  0
   -1.6445    1.3498    0.4007 H   0  0  0  0  0  0  0  0  0  0  0  0
   -2.2996    3.6358    0.9815 H   0  0  0  0  0  0  0  0  0  0  0  0
   -6.2574    2.6493    0.9511 H   0  0  0  0  0  0  0  0  0  0  0  0
   -5.7666    0.3221    0.3696 H   0  0  0  0  0  0  0  0  0  0  0  0
    2.2106   -1.7589   -0.5314 H   0  0  0  0  0  0  0  0  0  0  0  0
    1.1237    0.9844    0.1715 H   0  0  0  0  0  0  0  0  0  0  0  0
    2.7477    2.7367    0.5010 H   0  0  0  0  0  0  0  0  0  0  0  0
    5.0746    3.4913    0.5758 H   0  0  0  0  0  0  0  0  0  0  0  0
    6.4645   -0.2248   -0.3496 H   0  0  0  0  0  0  0  0  0  0  0  0
    4.2084   -1.1432   -0.4657 H   0  0  0  0  0  0  0  0  0  0  0  0
  1  2  1  0  0  0  0
  2  3  1  0  0  0  0
  3  4  2  0  0  0  0
  3  5  1  0  0  0  0
  5  6  2  0  0  0  0
  6  7  1  0  0  0  0
  7  8  2  0  0  0  0
  8  9  1  0  0  0  0
  9 10  2  0  0  0  0
 10 11  1  0  0  0  0
 11 12  2  0  0  0  0
  5 13  1  0  0  0  0
 13 14  2  0  0  0  0
 14 15  1  0  0  0  0
 15 16  2  0  0  0  0
 16 17  1  0  0  0  0
 17 18  2  0  0  0  0
 18 19  1  0  0  0  0
 19 20  2  0  0  0  0
 20 21  1  0  0  0  0
 21 22  2  0  0  0  0
 14  2  1  0  0  0  0
 22 17  1  0  0  0  0
 12  7  1  0  0  0  0
  1 23  1  0  0  0  0
  1 24  1  0  0  0  0
  1 25  1  0  0  0  0
  6 26  1  0  0  0  0
  8 27  1  0  0  0  0
  9 28  1  0  0  0  0
 11 29  1  0  0  0  0
 12 30  1  0  0  0  0
 15 31  1  0  0  0  0
 16 32  1  0  0  0  0
 18 33  1  0  0  0  0
 19 34  1  0  0  0  0
 21 35  1  0  0  0  0
 22 36  1  0  0  0  0
M  END
