
  xtb     03012221313D
 energy: -2.227309647453 gnorm: 0.000529090540 xtb: 6.4.1 (afa7bdf)
 11 11  0     0  0            999 V2000
   -0.1125    1.1765    0.0039 C   0  0  0  0  0  0  0  0  0  0  0  0
   -1.2145    0.3576   -0.0110 C   0  0  0  0  0  0  0  0  0  0  0  0
   -1.0278   -1.0051   -0.0150 C   0  0  0  0  0  0  0  0  0  0  0  0
    0.1529   -1.5993   -0.0054 N   0  0  0  0  0  0  0  0  0  0  0  0
    1.1997   -0.7919    0.0089 C   0  0  0  0  0  0  0  0  0  0  0  0
    1.1246    0.5815    0.0141 C   0  0  0  0  0  0  0  0  0  0  0  0
   -0.2148    2.2493    0.0075 H   0  0  0  0  0  0  0  0  0  0  0  0
   -2.2079    0.7750   -0.0194 H   0  0  0  0  0  0  0  0  0  0  0  0
   -1.8891   -1.6558   -0.0267 H   0  0  0  0  0  0  0  0  0  0  0  0
    2.1686   -1.2677    0.0169 H   0  0  0  0  0  0  0  0  0  0  0  0
    2.0208    1.1796    0.0260 H   0  0  0  0  0  0  0  0  0  0  0  0
  1  2  2  0  0  0  0
  2  3  1  0  0  0  0
  3  4  2  0  0  0  0
  4  5  1  0  0  0  0
  5  6  2  0  0  0  0
  6  1  1  0  0  0  0
  1  7  1  0  0  0  0
  2  8  1  0  0  0  0
  3  9  1  0  0  0  0
  5 10  1  0  0  0  0
  6 11  1  0  0  0  0
M  END
