
  xtb     03012221283D
 energy: -17.485404548006 gnorm: 0.000371264670 xtb: 6.4.1 (afa7bdf)
 94100  0     0  0            999 V2000
   13.0300   -1.3450    2.5310 C   0  0  0  0  0  0  0  0  0  0  0  0
   12.6819    0.1057    2.2374 C   0  0  0  0  0  0  0  0  0  0  0  0
   12.8671    0.4907    0.7660 C   0  0  0  0  0  0  0  0  0  0  0  0
   11.9807   -0.2922   -0.2070 C   0  0  0  0  0  0  0  0  0  0  0  0
   10.4834   -0.0689    0.0086 C   0  0  0  0  0  0  0  0  0  0  0  0
    9.6206   -0.8249   -1.0027 C   0  0  0  0  0  0  0  0  0  0  0  0
    8.1148   -0.6679   -0.7674 C   0  0  0  0  0  0  0  0  0  0  0  0
    7.5984    0.7491   -1.0243 C   0  0  0  0  0  0  0  0  0  0  0  0
    6.0941    0.9066   -0.7777 C   0  0  0  0  0  0  0  0  0  0  0  0
    5.2258    0.0984   -1.7442 C   0  0  0  0  0  0  0  0  0  0  0  0
    3.7236    0.3414   -1.5679 C   0  0  0  0  0  0  0  0  0  0  0  0
    3.1842   -0.1124   -0.2101 C   0  0  0  0  0  0  0  0  0  0  0  0
    1.6697    0.0365   -0.0965 C   0  0  0  0  0  0  0  0  0  0  0  0
    1.1289   -0.3866    1.2685 C   0  0  0  0  0  0  0  0  0  0  0  0
   -0.4062   -0.3651    1.3755 C   0  0  0  0  0  0  0  0  0  0  0  0
   -1.0150    0.9782    1.7973 C   0  0  0  0  0  0  0  0  0  0  0  0
   -0.8118    2.1382    0.8228 C   0  0  0  0  0  0  0  0  0  0  0  0
   -1.3772    1.8622   -0.5620 C   0  0  0  0  0  0  0  0  0  0  0  0
   -2.7620    1.4405   -0.5023 N   0  0  0  0  0  0  0  0  0  0  0  0
   -3.0641    0.1145   -0.8421 C   0  0  0  0  0  0  0  0  0  0  0  0
   -2.1851   -0.6679   -1.1643 O   0  0  0  0  0  0  0  0  0  0  0  0
   -4.4642   -0.2972   -0.7812 C   0  0  0  0  0  0  0  0  0  0  0  0
   -4.8245   -1.5820   -1.1121 C   0  0  0  0  0  0  0  0  0  0  0  0
   -6.1410   -1.9924   -1.0575 C   0  0  0  0  0  0  0  0  0  0  0  0
   -7.1580   -1.1279   -0.6675 C   0  0  0  0  0  0  0  0  0  0  0  0
   -8.5480   -1.5499   -0.6044 C   0  0  0  0  0  0  0  0  0  0  0  0
   -8.9421   -2.8445   -0.9253 C   0  0  0  0  0  0  0  0  0  0  0  0
  -10.2643   -3.2355   -0.8634 C   0  0  0  0  0  0  0  0  0  0  0  0
  -11.2483   -2.3550   -0.4807 C   0  0  0  0  0  0  0  0  0  0  0  0
  -10.9007   -1.0264   -0.1440 C   0  0  0  0  0  0  0  0  0  0  0  0
  -11.8983   -0.1056    0.2510 C   0  0  0  0  0  0  0  0  0  0  0  0
  -11.5406    1.1820    0.5743 C   0  0  0  0  0  0  0  0  0  0  0  0
  -10.2234    1.5910    0.5213 C   0  0  0  0  0  0  0  0  0  0  0  0
   -9.2046    0.7244    0.1404 C   0  0  0  0  0  0  0  0  0  0  0  0
   -7.8136    1.1444    0.0842 C   0  0  0  0  0  0  0  0  0  0  0  0
   -7.4177    2.4357    0.4155 C   0  0  0  0  0  0  0  0  0  0  0  0
   -6.0941    2.8229    0.3598 C   0  0  0  0  0  0  0  0  0  0  0  0
   -5.1102    1.9450   -0.0293 C   0  0  0  0  0  0  0  0  0  0  0  0
   -5.4604    0.6208   -0.3780 C   0  0  0  0  0  0  0  0  0  0  0  0
   -6.8181    0.2104   -0.3205 C   0  0  0  0  0  0  0  0  0  0  0  0
   -3.7148    2.3752   -0.0769 C   0  0  0  0  0  0  0  0  0  0  0  0
   -3.3868    3.5032    0.2510 O   0  0  0  0  0  0  0  0  0  0  0  0
   -9.5436   -0.6150   -0.2030 C   0  0  0  0  0  0  0  0  0  0  0  0
  -13.2981   -0.5230    0.3133 C   0  0  0  0  0  0  0  0  0  0  0  0
  -14.1747    0.2540    0.6509 O   0  0  0  0  0  0  0  0  0  0  0  0
  -13.5811   -1.8390   -0.0280 N   0  0  0  0  0  0  0  0  0  0  0  0
  -12.6442   -2.7855   -0.4215 C   0  0  0  0  0  0  0  0  0  0  0  0
  -12.9665   -3.9263   -0.7057 O   0  0  0  0  0  0  0  0  0  0  0  0
   12.9446   -1.5790    3.5942 H   0  0  0  0  0  0  0  0  0  0  0  0
   14.0526   -1.5742    2.2271 H   0  0  0  0  0  0  0  0  0  0  0  0
   12.3722   -2.0316    1.9963 H   0  0  0  0  0  0  0  0  0  0  0  0
   13.2966    0.7635    2.8677 H   0  0  0  0  0  0  0  0  0  0  0  0
   11.6491    0.3117    2.5447 H   0  0  0  0  0  0  0  0  0  0  0  0
   13.9216    0.3534    0.4945 H   0  0  0  0  0  0  0  0  0  0  0  0
   12.6742    1.5633    0.6373 H   0  0  0  0  0  0  0  0  0  0  0  0
   12.2038   -1.3629   -0.1347 H   0  0  0  0  0  0  0  0  0  0  0  0
   12.2344   -0.0228   -1.2406 H   0  0  0  0  0  0  0  0  0  0  0  0
   10.2020   -0.3743    1.0226 H   0  0  0  0  0  0  0  0  0  0  0  0
   10.2663    1.0039   -0.0388 H   0  0  0  0  0  0  0  0  0  0  0  0
    9.8938   -1.8879   -0.9758 H   0  0  0  0  0  0  0  0  0  0  0  0
    9.8695   -0.4919   -2.0175 H   0  0  0  0  0  0  0  0  0  0  0  0
    7.8723   -0.9637    0.2602 H   0  0  0  0  0  0  0  0  0  0  0  0
    7.5681   -1.3729   -1.4051 H   0  0  0  0  0  0  0  0  0  0  0  0
    7.8328    1.0399   -2.0550 H   0  0  0  0  0  0  0  0  0  0  0  0
    8.1508    1.4564   -0.3944 H   0  0  0  0  0  0  0  0  0  0  0  0
    5.8126    1.9651   -0.8480 H   0  0  0  0  0  0  0  0  0  0  0  0
    5.8663    0.6170    0.2545 H   0  0  0  0  0  0  0  0  0  0  0  0
    5.4328   -0.9706   -1.6220 H   0  0  0  0  0  0  0  0  0  0  0  0
    5.5245    0.3335   -2.7735 H   0  0  0  0  0  0  0  0  0  0  0  0
    3.5039    1.4066   -1.7103 H   0  0  0  0  0  0  0  0  0  0  0  0
    3.1672   -0.1730   -2.3623 H   0  0  0  0  0  0  0  0  0  0  0  0
    3.6662    0.4549    0.5935 H   0  0  0  0  0  0  0  0  0  0  0  0
    3.4652   -1.1568   -0.0329 H   0  0  0  0  0  0  0  0  0  0  0  0
    1.3932    1.0739   -0.3141 H   0  0  0  0  0  0  0  0  0  0  0  0
    1.1833   -0.5568   -0.8825 H   0  0  0  0  0  0  0  0  0  0  0  0
    1.5634    0.2412    2.0544 H   0  0  0  0  0  0  0  0  0  0  0  0
    1.4989   -1.3982    1.4793 H   0  0  0  0  0  0  0  0  0  0  0  0
   -0.8387   -0.6863    0.4220 H   0  0  0  0  0  0  0  0  0  0  0  0
   -0.7273   -1.1318    2.0944 H   0  0  0  0  0  0  0  0  0  0  0  0
   -2.0947    0.8465    1.9458 H   0  0  0  0  0  0  0  0  0  0  0  0
   -0.6216    1.2531    2.7836 H   0  0  0  0  0  0  0  0  0  0  0  0
    0.2484    2.4077    0.7645 H   0  0  0  0  0  0  0  0  0  0  0  0
   -1.3131    3.0312    1.2201 H   0  0  0  0  0  0  0  0  0  0  0  0
   -0.8133    1.0775   -1.0749 H   0  0  0  0  0  0  0  0  0  0  0  0
   -1.3263    2.7526   -1.1984 H   0  0  0  0  0  0  0  0  0  0  0  0
   -4.0494   -2.2662   -1.4189 H   0  0  0  0  0  0  0  0  0  0  0  0
   -6.3716   -3.0057   -1.3267 H   0  0  0  0  0  0  0  0  0  0  0  0
   -8.2101   -3.5688   -1.2301 H   0  0  0  0  0  0  0  0  0  0  0  0
  -10.5519   -4.2439   -1.1160 H   0  0  0  0  0  0  0  0  0  0  0  0
  -12.3181    1.8679    0.8716 H   0  0  0  0  0  0  0  0  0  0  0  0
   -9.9937    2.6072    0.7824 H   0  0  0  0  0  0  0  0  0  0  0  0
   -8.1488    3.1584    0.7247 H   0  0  0  0  0  0  0  0  0  0  0  0
   -5.8061    3.8288    0.6214 H   0  0  0  0  0  0  0  0  0  0  0  0
  -14.5454   -2.1310    0.0137 H   0  0  0  0  0  0  0  0  0  0  0  0
  1  2  1  0  0  0  0
  2  3  1  0  0  0  0
  3  4  1  0  0  0  0
  4  5  1  0  0  0  0
  5  6  1  0  0  0  0
  6  7  1  0  0  0  0
  7  8  1  0  0  0  0
  8  9  1  0  0  0  0
  9 10  1  0  0  0  0
 10 11  1  0  0  0  0
 11 12  1  0  0  0  0
 12 13  1  0  0  0  0
 13 14  1  0  0  0  0
 14 15  1  0  0  0  0
 15 16  1  0  0  0  0
 16 17  1  0  0  0  0
 17 18  1  0  0  0  0
 18 19  1  0  0  0  0
 19 20  1  0  0  0  0
 20 21  2  0  0  0  0
 20 22  1  0  0  0  0
 22 23  2  0  0  0  0
 23 24  1  0  0  0  0
 24 25  2  0  0  0  0
 25 26  1  0  0  0  0
 26 27  2  0  0  0  0
 27 28  1  0  0  0  0
 28 29  2  0  0  0  0
 29 30  1  0  0  0  0
 30 31  1  0  0  0  0
 31 32  2  0  0  0  0
 32 33  1  0  0  0  0
 33 34  2  0  0  0  0
 34 35  1  0  0  0  0
 35 36  2  0  0  0  0
 36 37  1  0  0  0  0
 37 38  2  0  0  0  0
 38 39  1  0  0  0  0
 39 40  2  0  0  0  0
 38 41  1  0  0  0  0
 41 42  2  0  0  0  0
 34 43  1  0  0  0  0
 31 44  1  0  0  0  0
 44 45  2  0  0  0  0
 44 46  1  0  0  0  0
 46 47  1  0  0  0  0
 47 48  2  0  0  0  0
 41 19  1  0  0  0  0
 39 22  1  0  0  0  0
 40 25  1  0  0  0  0
 43 26  1  0  0  0  0
 47 29  1  0  0  0  0
 43 30  2  0  0  0  0
 40 35  1  0  0  0  0
  1 49  1  0  0  0  0
  1 50  1  0  0  0  0
  1 51  1  0  0  0  0
  2 52  1  0  0  0  0
  2 53  1  0  0  0  0
  3 54  1  0  0  0  0
  3 55  1  0  0  0  0
  4 56  1  0  0  0  0
  4 57  1  0  0  0  0
  5 58  1  0  0  0  0
  5 59  1  0  0  0  0
  6 60  1  0  0  0  0
  6 61  1  0  0  0  0
  7 62  1  0  0  0  0
  7 63  1  0  0  0  0
  8 64  1  0  0  0  0
  8 65  1  0  0  0  0
  9 66  1  0  0  0  0
  9 67  1  0  0  0  0
 10 68  1  0  0  0  0
 10 69  1  0  0  0  0
 11 70  1  0  0  0  0
 11 71  1  0  0  0  0
 12 72  1  0  0  0  0
 12 73  1  0  0  0  0
 13 74  1  0  0  0  0
 13 75  1  0  0  0  0
 14 76  1  0  0  0  0
 14 77  1  0  0  0  0
 15 78  1  0  0  0  0
 15 79  1  0  0  0  0
 16 80  1  0  0  0  0
 16 81  1  0  0  0  0
 17 82  1  0  0  0  0
 17 83  1  0  0  0  0
 18 84  1  0  0  0  0
 18 85  1  0  0  0  0
 23 86  1  0  0  0  0
 24 87  1  0  0  0  0
 27 88  1  0  0  0  0
 28 89  1  0  0  0  0
 32 90  1  0  0  0  0
 33 91  1  0  0  0  0
 36 92  1  0  0  0  0
 37 93  1  0  0  0  0
 46 94  1  0  0  0  0
M  END
