
  xtb     03012221303D
 energy: -18.398570091911 gnorm: 0.000311920136 xtb: 6.4.1 (afa7bdf)
 82 90  0     0  0            999 V2000
    1.3492    2.5589   -5.5095 N   0  0  0  0  0  0  0  0  0  0  0  0
    0.8502    2.3346   -4.4831 C   0  0  0  0  0  0  0  0  0  0  0  0
    0.2857    2.0827   -3.2287 C   0  0  0  0  0  0  0  0  0  0  0  0
   -1.0718    2.0319   -3.1779 C   0  0  0  0  0  0  0  0  0  0  0  0
   -1.9412    1.9055   -2.0141 C   0  0  0  0  0  0  0  0  0  0  0  0
   -1.6486    2.5252   -0.7962 C   0  0  0  0  0  0  0  0  0  0  0  0
   -2.4697    2.3662    0.2916 C   0  0  0  0  0  0  0  0  0  0  0  0
   -3.6399    1.6098    0.2038 C   0  0  0  0  0  0  0  0  0  0  0  0
   -3.9767    1.0579   -1.0329 C   0  0  0  0  0  0  0  0  0  0  0  0
   -3.1406    1.1939   -2.1142 C   0  0  0  0  0  0  0  0  0  0  0  0
   -4.5471    1.5187    1.3795 C   0  0  0  0  0  0  0  0  0  0  0  0
   -5.3055    2.6390    1.6580 C   0  0  0  0  0  0  0  0  0  0  0  0
   -6.1010    2.7295    2.7949 C   0  0  0  0  0  0  0  0  0  0  0  0
   -6.1298    1.7032    3.6864 C   0  0  0  0  0  0  0  0  0  0  0  0
   -5.3766    0.5305    3.4622 C   0  0  0  0  0  0  0  0  0  0  0  0
   -5.4031   -0.5081    4.4182 C   0  0  0  0  0  0  0  0  0  0  0  0
   -4.6978   -1.6538    4.2208 C   0  0  0  0  0  0  0  0  0  0  0  0
   -3.9582   -1.8210    3.0553 C   0  0  0  0  0  0  0  0  0  0  0  0
   -3.8936   -0.8446    2.0806 C   0  0  0  0  0  0  0  0  0  0  0  0
   -3.1736   -1.2057    0.8295 C   0  0  0  0  0  0  0  0  0  0  0  0
   -1.8079   -0.9681    0.6759 C   0  0  0  0  0  0  0  0  0  0  0  0
   -1.1477   -1.3871   -0.4531 C   0  0  0  0  0  0  0  0  0  0  0  0
   -1.8080   -2.0635   -1.4800 C   0  0  0  0  0  0  0  0  0  0  0  0
   -3.1738   -2.3105   -1.3120 C   0  0  0  0  0  0  0  0  0  0  0  0
   -3.8377   -1.9021   -0.1818 C   0  0  0  0  0  0  0  0  0  0  0  0
   -1.1765   -2.4640   -2.7254 C   0  0  0  0  0  0  0  0  0  0  0  0
    0.1309   -2.4755   -3.0960 C   0  0  0  0  0  0  0  0  0  0  0  0
    0.3888   -2.8156   -4.4287 C   0  0  0  0  0  0  0  0  0  0  0  0
    0.6042   -3.0994   -5.5359 N   0  0  0  0  0  0  0  0  0  0  0  0
    1.2982   -2.1767   -2.2402 C   0  0  0  0  0  0  0  0  0  0  0  0
    1.4389   -2.7290   -0.9668 C   0  0  0  0  0  0  0  0  0  0  0  0
    2.5298   -2.4320   -0.1877 C   0  0  0  0  0  0  0  0  0  0  0  0
    3.5475   -1.6009   -0.6599 C   0  0  0  0  0  0  0  0  0  0  0  0
    3.4479   -1.1147   -1.9638 C   0  0  0  0  0  0  0  0  0  0  0  0
    2.3412   -1.3881   -2.7312 C   0  0  0  0  0  0  0  0  0  0  0  0
    4.7476   -1.3587    0.1865 C   0  0  0  0  0  0  0  0  0  0  0  0
    5.6552   -2.3955    0.2756 C   0  0  0  0  0  0  0  0  0  0  0  0
    6.7337   -2.3625    1.1529 C   0  0  0  0  0  0  0  0  0  0  0  0
    6.9016   -1.2966    1.9804 C   0  0  0  0  0  0  0  0  0  0  0  0
    6.0104   -0.2021    1.9398 C   0  0  0  0  0  0  0  0  0  0  0  0
    6.1880    0.8798    2.8300 C   0  0  0  0  0  0  0  0  0  0  0  0
    5.3576    1.9562    2.7937 C   0  0  0  0  0  0  0  0  0  0  0  0
    4.3383    2.0126    1.8494 C   0  0  0  0  0  0  0  0  0  0  0  0
    4.1138    0.9896    0.9501 C   0  0  0  0  0  0  0  0  0  0  0  0
    3.1080    1.2465   -0.1145 C   0  0  0  0  0  0  0  0  0  0  0  0
    3.4742    1.9561   -1.2591 C   0  0  0  0  0  0  0  0  0  0  0  0
    2.5546    2.2374   -2.2391 C   0  0  0  0  0  0  0  0  0  0  0  0
    1.2224    1.8391   -2.1182 C   0  0  0  0  0  0  0  0  0  0  0  0
    0.8641    1.1405   -0.9669 C   0  0  0  0  0  0  0  0  0  0  0  0
    1.7759    0.8596    0.0216 C   0  0  0  0  0  0  0  0  0  0  0  0
    4.9373   -0.1899    1.0066 C   0  0  0  0  0  0  0  0  0  0  0  0
   -4.5925    0.3978    2.2824 C   0  0  0  0  0  0  0  0  0  0  0  0
   -1.5805    2.1101   -4.1258 H   0  0  0  0  0  0  0  0  0  0  0  0
   -0.7639    3.1332   -0.7198 H   0  0  0  0  0  0  0  0  0  0  0  0
   -2.2252    2.8346    1.2290 H   0  0  0  0  0  0  0  0  0  0  0  0
   -4.8996    0.5124   -1.1238 H   0  0  0  0  0  0  0  0  0  0  0  0
   -3.3967    0.7374   -3.0546 H   0  0  0  0  0  0  0  0  0  0  0  0
   -5.2561    3.4724    0.9781 H   0  0  0  0  0  0  0  0  0  0  0  0
   -6.6787    3.6208    2.9763 H   0  0  0  0  0  0  0  0  0  0  0  0
   -6.7301    1.7756    4.5773 H   0  0  0  0  0  0  0  0  0  0  0  0
   -5.9898   -0.3801    5.3118 H   0  0  0  0  0  0  0  0  0  0  0  0
   -4.7246   -2.4400    4.9571 H   0  0  0  0  0  0  0  0  0  0  0  0
   -3.4346   -2.7468    2.8879 H   0  0  0  0  0  0  0  0  0  0  0  0
   -1.2792   -0.4522    1.4581 H   0  0  0  0  0  0  0  0  0  0  0  0
   -0.1009   -1.1839   -0.5545 H   0  0  0  0  0  0  0  0  0  0  0  0
   -3.7087   -2.8305   -2.0880 H   0  0  0  0  0  0  0  0  0  0  0  0
   -4.8860   -2.1128   -0.0619 H   0  0  0  0  0  0  0  0  0  0  0  0
   -1.8688   -2.7656   -3.4946 H   0  0  0  0  0  0  0  0  0  0  0  0
    0.6762   -3.3941   -0.6002 H   0  0  0  0  0  0  0  0  0  0  0  0
    2.6200   -2.8500    0.7997 H   0  0  0  0  0  0  0  0  0  0  0  0
    4.2471   -0.5114   -2.3571 H   0  0  0  0  0  0  0  0  0  0  0  0
    2.2634   -0.9919   -3.7291 H   0  0  0  0  0  0  0  0  0  0  0  0
    5.4986   -3.2669   -0.3384 H   0  0  0  0  0  0  0  0  0  0  0  0
    7.4199   -3.1923    1.1915 H   0  0  0  0  0  0  0  0  0  0  0  0
    7.7216   -1.2758    2.6779 H   0  0  0  0  0  0  0  0  0  0  0  0
    6.9930    0.8410    3.5440 H   0  0  0  0  0  0  0  0  0  0  0  0
    5.5021    2.7760    3.4776 H   0  0  0  0  0  0  0  0  0  0  0  0
    3.7184    2.8919    1.7904 H   0  0  0  0  0  0  0  0  0  0  0  0
    4.4971    2.2718   -1.3678 H   0  0  0  0  0  0  0  0  0  0  0  0
    2.8605    2.7566   -3.1305 H   0  0  0  0  0  0  0  0  0  0  0  0
   -0.1475    0.7999   -0.8700 H   0  0  0  0  0  0  0  0  0  0  0  0
    1.4772    0.3241    0.9056 H   0  0  0  0  0  0  0  0  0  0  0  0
  1  2  3  0  0  0  0
  2  3  1  0  0  0  0
  3  4  2  0  0  0  0
  4  5  1  0  0  0  0
  5  6  2  0  0  0  0
  6  7  1  0  0  0  0
  7  8  2  0  0  0  0
  8  9  1  0  0  0  0
  9 10  2  0  0  0  0
  8 11  1  0  0  0  0
 11 12  2  0  0  0  0
 12 13  1  0  0  0  0
 13 14  2  0  0  0  0
 14 15  1  0  0  0  0
 15 16  2  0  0  0  0
 16 17  1  0  0  0  0
 17 18  2  0  0  0  0
 18 19  1  0  0  0  0
 19 20  1  0  0  0  0
 20 21  2  0  0  0  0
 21 22  1  0  0  0  0
 22 23  2  0  0  0  0
 23 24  1  0  0  0  0
 24 25  2  0  0  0  0
 23 26  1  0  0  0  0
 26 27  2  0  0  0  0
 27 28  1  0  0  0  0
 28 29  3  0  0  0  0
 27 30  1  0  0  0  0
 30 31  2  0  0  0  0
 31 32  1  0  0  0  0
 32 33  2  0  0  0  0
 33 34  1  0  0  0  0
 34 35  2  0  0  0  0
 33 36  1  0  0  0  0
 36 37  1  0  0  0  0
 37 38  2  0  0  0  0
 38 39  1  0  0  0  0
 39 40  2  0  0  0  0
 40 41  1  0  0  0  0
 41 42  2  0  0  0  0
 42 43  1  0  0  0  0
 43 44  2  0  0  0  0
 44 45  1  0  0  0  0
 45 46  2  0  0  0  0
 46 47  1  0  0  0  0
 47 48  2  0  0  0  0
 48 49  1  0  0  0  0
 49 50  2  0  0  0  0
 44 51  1  0  0  0  0
 19 52  2  0  0  0  0
 48  3  1  0  0  0  0
 10  5  1  0  0  0  0
 52 11  1  0  0  0  0
 52 15  1  0  0  0  0
 25 20  1  0  0  0  0
 35 30  1  0  0  0  0
 51 36  2  0  0  0  0
 51 40  1  0  0  0  0
 50 45  1  0  0  0  0
  4 53  1  0  0  0  0
  6 54  1  0  0  0  0
  7 55  1  0  0  0  0
  9 56  1  0  0  0  0
 10 57  1  0  0  0  0
 12 58  1  0  0  0  0
 13 59  1  0  0  0  0
 14 60  1  0  0  0  0
 16 61  1  0  0  0  0
 17 62  1  0  0  0  0
 18 63  1  0  0  0  0
 21 64  1  0  0  0  0
 22 65  1  0  0  0  0
 24 66  1  0  0  0  0
 25 67  1  0  0  0  0
 26 68  1  0  0  0  0
 31 69  1  0  0  0  0
 32 70  1  0  0  0  0
 34 71  1  0  0  0  0
 35 72  1  0  0  0  0
 37 73  1  0  0  0  0
 38 74  1  0  0  0  0
 39 75  1  0  0  0  0
 41 76  1  0  0  0  0
 42 77  1  0  0  0  0
 43 78  1  0  0  0  0
 46 79  1  0  0  0  0
 47 80  1  0  0  0  0
 49 81  1  0  0  0  0
 50 82  1  0  0  0  0
M  END
