
  xtb     03012221323D
 energy: -6.302570007567 gnorm: 0.000473307999 xtb: 6.4.1 (afa7bdf)
 31 33  0     0  0            999 V2000
   -2.5612    2.3953    1.2819 C   0  0  0  0  0  0  0  0  0  0  0  0
   -2.5840    1.0891    0.5760 C   0  0  0  0  0  0  0  0  0  0  0  0
   -3.7771    0.4863    0.2520 C   0  0  0  0  0  0  0  0  0  0  0  0
   -3.8023   -0.7356   -0.4051 C   0  0  0  0  0  0  0  0  0  0  0  0
   -2.6338   -1.3629   -0.7417 C   0  0  0  0  0  0  0  0  0  0  0  0
   -1.4001   -0.7854   -0.4304 C   0  0  0  0  0  0  0  0  0  0  0  0
   -1.3687    0.4563    0.2370 C   0  0  0  0  0  0  0  0  0  0  0  0
   -0.1998    1.0805    0.5722 N   0  0  0  0  0  0  0  0  0  0  0  0
    0.9238    0.4833    0.2555 C   0  0  0  0  0  0  0  0  0  0  0  0
    2.1651    1.1374    0.6102 C   0  0  0  0  0  0  0  0  0  0  0  0
    2.2006    2.2110    1.1874 O   0  0  0  0  0  0  0  0  0  0  0  0
    3.3238    0.4647    0.2497 N   0  0  0  0  0  0  0  0  0  0  0  0
    4.5914    1.0530    0.5981 C   0  0  0  0  0  0  0  0  0  0  0  0
    3.3094   -0.7687   -0.4096 C   0  0  0  0  0  0  0  0  0  0  0  0
    4.3839   -1.2855   -0.6826 O   0  0  0  0  0  0  0  0  0  0  0  0
    2.1304   -1.3748   -0.7390 N   0  0  0  0  0  0  0  0  0  0  0  0
    1.0014   -0.7701   -0.4179 C   0  0  0  0  0  0  0  0  0  0  0  0
   -0.1910   -1.3912   -0.7553 N   0  0  0  0  0  0  0  0  0  0  0  0
   -0.1348   -2.6722   -1.4469 C   0  0  0  0  0  0  0  0  0  0  0  0
   -3.0934    3.1568    0.7111 H   0  0  0  0  0  0  0  0  0  0  0  0
   -3.0269    2.3150    2.2645 H   0  0  0  0  0  0  0  0  0  0  0  0
   -1.5352    2.7386    1.4240 H   0  0  0  0  0  0  0  0  0  0  0  0
   -4.6993    0.9748    0.5153 H   0  0  0  0  0  0  0  0  0  0  0  0
   -4.7479   -1.1915   -0.6498 H   0  0  0  0  0  0  0  0  0  0  0  0
   -2.6606   -2.3093   -1.2501 H   0  0  0  0  0  0  0  0  0  0  0  0
    4.8031    0.8575    1.6475 H   0  0  0  0  0  0  0  0  0  0  0  0
    4.5461    2.1288    0.4356 H   0  0  0  0  0  0  0  0  0  0  0  0
    5.3763    0.6166   -0.0186 H   0  0  0  0  0  0  0  0  0  0  0  0
   -0.6266   -3.4406   -0.8544 H   0  0  0  0  0  0  0  0  0  0  0  0
    0.9036   -2.9628   -1.5970 H   0  0  0  0  0  0  0  0  0  0  0  0
   -0.6162   -2.5947   -2.4194 H   0  0  0  0  0  0  0  0  0  0  0  0
  1  2  1  0  0  0  0
  2  3  2  0  0  0  0
  3  4  1  0  0  0  0
  4  5  2  0  0  0  0
  5  6  1  0  0  0  0
  6  7  2  0  0  0  0
  7  8  1  0  0  0  0
  8  9  2  0  0  0  0
  9 10  1  0  0  0  0
 10 11  2  0  0  0  0
 10 12  1  0  0  0  0
 12 13  1  0  0  0  0
 12 14  1  0  0  0  0
 14 15  2  0  0  0  0
 14 16  1  0  0  0  0
 16 17  2  0  0  0  0
 17 18  1  0  0  0  0
 18 19  1  0  0  0  0
  7  2  1  0  0  0  0
 17  9  1  0  0  0  0
 18  6  1  0  0  0  0
  1 20  1  0  0  0  0
  1 21  1  0  0  0  0
  1 22  1  0  0  0  0
  3 23  1  0  0  0  0
  4 24  1  0  0  0  0
  5 25  1  0  0  0  0
 13 26  1  0  0  0  0
 13 27  1  0  0  0  0
 13 28  1  0  0  0  0
 19 29  1  0  0  0  0
 19 30  1  0  0  0  0
 19 31  1  0  0  0  0
M  END
