
  xtb     03012221323D
 energy: -16.175999412331 gnorm: 0.000360794045 xtb: 6.4.1 (afa7bdf)
 88 93  0     0  0            999 V2000
    1.1298    1.4648    5.3063 C   0  0  0  0  0  0  0  0  0  0  0  0
    1.8486    0.1721    5.6309 C   0  0  0  0  0  0  0  0  0  0  0  0
    1.6034   -0.8271    4.6703 O   0  0  0  0  0  0  0  0  0  0  0  0
    2.2272   -0.5197    3.4981 C   0  0  0  0  0  0  0  0  0  0  0  0
    2.9769    0.4176    3.3421 O   0  0  0  0  0  0  0  0  0  0  0  0
    1.9359   -1.4336    2.3443 C   0  0  0  0  0  0  0  0  0  0  0  0
    1.2039   -0.7578    1.2786 N   0  0  0  0  0  0  0  0  0  0  0  0
   -0.2001   -0.7907    1.2876 C   0  0  0  0  0  0  0  0  0  0  0  0
   -0.9086   -1.2330    2.1794 O   0  0  0  0  0  0  0  0  0  0  0  0
   -0.6111   -0.2518    0.0058 C   0  0  0  0  0  0  0  0  0  0  0  0
   -1.7359    0.0355   -0.7875 C   0  0  0  0  0  0  0  0  0  0  0  0
   -3.1186   -0.1593   -0.3944 C   0  0  0  0  0  0  0  0  0  0  0  0
   -4.1922    0.3574   -1.1248 C   0  0  0  0  0  0  0  0  0  0  0  0
   -5.4894    0.1406   -0.7493 C   0  0  0  0  0  0  0  0  0  0  0  0
   -5.7942   -0.6044    0.3935 C   0  0  0  0  0  0  0  0  0  0  0  0
   -7.1328   -0.8396    0.7698 N   0  0  0  0  0  0  0  0  0  0  0  0
   -8.2282   -0.9605   -0.2288 C   0  0  0  0  0  0  0  0  0  0  0  0
   -8.9050   -2.3399   -0.1457 C   0  0  0  0  0  0  0  0  0  0  0  0
   -8.0444   -3.3232    0.6645 C   0  0  0  0  0  0  0  0  0  0  0  0
   -7.8317   -2.8160    2.1048 C   0  0  0  0  0  0  0  0  0  0  0  0
   -7.5075   -1.3132    2.1206 C   0  0  0  0  0  0  0  0  0  0  0  0
   -4.7272   -1.1008    1.1474 C   0  0  0  0  0  0  0  0  0  0  0  0
   -3.4343   -0.8787    0.7629 C   0  0  0  0  0  0  0  0  0  0  0  0
   -1.2273    0.4694   -2.0186 N   0  0  0  0  0  0  0  0  0  0  0  0
   -1.9222    0.8194   -3.2501 C   0  0  0  0  0  0  0  0  0  0  0  0
   -2.5478    2.1833   -3.1812 C   0  0  0  0  0  0  0  0  0  0  0  0
   -3.7254    2.3064   -3.4425 O   0  0  0  0  0  0  0  0  0  0  0  0
   -1.7252    3.2006   -2.8129 O   0  0  0  0  0  0  0  0  0  0  0  0
   -2.4465    4.4074   -2.7732 C   0  0  0  0  0  0  0  0  0  0  0  0
   -1.5730    5.5773   -2.3738 C   0  0  0  0  0  0  0  0  0  0  0  0
    0.1753    0.4600   -2.0356 C   0  0  0  0  0  0  0  0  0  0  0  0
    0.8974    0.7123   -2.9885 O   0  0  0  0  0  0  0  0  0  0  0  0
    0.5678    0.0302   -0.7129 C   0  0  0  0  0  0  0  0  0  0  0  0
    1.6955   -0.2462    0.0738 C   0  0  0  0  0  0  0  0  0  0  0  0
    3.0777   -0.0775   -0.3290 C   0  0  0  0  0  0  0  0  0  0  0  0
    3.4312   -0.0051   -1.6801 C   0  0  0  0  0  0  0  0  0  0  0  0
    4.7348    0.1222   -2.0722 C   0  0  0  0  0  0  0  0  0  0  0  0
    5.7641    0.2056   -1.1285 C   0  0  0  0  0  0  0  0  0  0  0  0
    7.1099    0.3189   -1.5344 N   0  0  0  0  0  0  0  0  0  0  0  0
    8.1859    0.7505   -0.6149 C   0  0  0  0  0  0  0  0  0  0  0  0
    9.0161   -0.4529   -0.1391 C   0  0  0  0  0  0  0  0  0  0  0  0
    8.7536   -1.6915   -1.0189 C   0  0  0  0  0  0  0  0  0  0  0  0
    8.7258   -1.3145   -2.5093 C   0  0  0  0  0  0  0  0  0  0  0  0
    7.6132   -0.2904   -2.7940 C   0  0  0  0  0  0  0  0  0  0  0  0
    5.4112    0.1840    0.2248 C   0  0  0  0  0  0  0  0  0  0  0  0
    4.1054    0.0520    0.6082 C   0  0  0  0  0  0  0  0  0  0  0  0
    1.3031    2.2363    6.0578 H   0  0  0  0  0  0  0  0  0  0  0  0
    0.0559    1.2951    5.2281 H   0  0  0  0  0  0  0  0  0  0  0  0
    1.4657    1.8461    4.3412 H   0  0  0  0  0  0  0  0  0  0  0  0
    1.5302   -0.2328    6.6010 H   0  0  0  0  0  0  0  0  0  0  0  0
    2.9374    0.3143    5.6811 H   0  0  0  0  0  0  0  0  0  0  0  0
    2.8566   -1.8655    1.9460 H   0  0  0  0  0  0  0  0  0  0  0  0
    1.3127   -2.2605    2.6983 H   0  0  0  0  0  0  0  0  0  0  0  0
   -4.0012    0.9828   -1.9765 H   0  0  0  0  0  0  0  0  0  0  0  0
   -6.2864    0.5875   -1.3147 H   0  0  0  0  0  0  0  0  0  0  0  0
   -7.8073   -0.8129   -1.2256 H   0  0  0  0  0  0  0  0  0  0  0  0
   -8.9385   -0.1448   -0.0678 H   0  0  0  0  0  0  0  0  0  0  0  0
   -9.1201   -2.7358   -1.1476 H   0  0  0  0  0  0  0  0  0  0  0  0
   -9.8820   -2.2420    0.3445 H   0  0  0  0  0  0  0  0  0  0  0  0
   -7.0707   -3.4337    0.1725 H   0  0  0  0  0  0  0  0  0  0  0  0
   -8.4929   -4.3259    0.6638 H   0  0  0  0  0  0  0  0  0  0  0  0
   -8.7205   -3.0258    2.7133 H   0  0  0  0  0  0  0  0  0  0  0  0
   -7.0158   -3.3776    2.5792 H   0  0  0  0  0  0  0  0  0  0  0  0
   -6.7214   -1.0618    2.8369 H   0  0  0  0  0  0  0  0  0  0  0  0
   -8.3827   -0.7350    2.4314 H   0  0  0  0  0  0  0  0  0  0  0  0
   -4.9253   -1.6865    2.0257 H   0  0  0  0  0  0  0  0  0  0  0  0
   -2.6316   -1.2535    1.3733 H   0  0  0  0  0  0  0  0  0  0  0  0
   -2.6727    0.0579   -3.4757 H   0  0  0  0  0  0  0  0  0  0  0  0
   -1.1875    0.8030   -4.0610 H   0  0  0  0  0  0  0  0  0  0  0  0
   -2.8901    4.5500   -3.7688 H   0  0  0  0  0  0  0  0  0  0  0  0
   -3.2790    4.2618   -2.0704 H   0  0  0  0  0  0  0  0  0  0  0  0
   -2.1282    6.5160   -2.3445 H   0  0  0  0  0  0  0  0  0  0  0  0
   -0.7462    5.6921   -3.0747 H   0  0  0  0  0  0  0  0  0  0  0  0
   -1.1368    5.4087   -1.3893 H   0  0  0  0  0  0  0  0  0  0  0  0
    2.6491   -0.0123   -2.4204 H   0  0  0  0  0  0  0  0  0  0  0  0
    4.9693    0.2086   -3.1172 H   0  0  0  0  0  0  0  0  0  0  0  0
    7.7633    1.3224    0.2148 H   0  0  0  0  0  0  0  0  0  0  0  0
    8.8143    1.4559   -1.1664 H   0  0  0  0  0  0  0  0  0  0  0  0
    8.7724   -0.6826    0.9069 H   0  0  0  0  0  0  0  0  0  0  0  0
   10.0860   -0.2091   -0.1411 H   0  0  0  0  0  0  0  0  0  0  0  0
    7.7876   -2.1320   -0.7446 H   0  0  0  0  0  0  0  0  0  0  0  0
    9.5012   -2.4735   -0.8285 H   0  0  0  0  0  0  0  0  0  0  0  0
    8.6130   -2.2065   -3.1403 H   0  0  0  0  0  0  0  0  0  0  0  0
    9.6990   -0.8866   -2.7816 H   0  0  0  0  0  0  0  0  0  0  0  0
    7.9528    0.5102   -3.4569 H   0  0  0  0  0  0  0  0  0  0  0  0
    6.7788   -0.7795   -3.3011 H   0  0  0  0  0  0  0  0  0  0  0  0
    6.1774    0.2532    0.9744 H   0  0  0  0  0  0  0  0  0  0  0  0
    3.8488    0.1145    1.6515 H   0  0  0  0  0  0  0  0  0  0  0  0
  1  2  1  0  0  0  0
  2  3  1  0  0  0  0
  3  4  1  0  0  0  0
  4  5  2  0  0  0  0
  4  6  1  0  0  0  0
  6  7  1  0  0  0  0
  7  8  1  0  0  0  0
  8  9  2  0  0  0  0
  8 10  1  0  0  0  0
 10 11  2  0  0  0  0
 11 12  1  0  0  0  0
 12 13  2  0  0  0  0
 13 14  1  0  0  0  0
 14 15  2  0  0  0  0
 15 16  1  0  0  0  0
 16 17  1  0  0  0  0
 17 18  1  0  0  0  0
 18 19  1  0  0  0  0
 19 20  1  0  0  0  0
 20 21  1  0  0  0  0
 15 22  1  0  0  0  0
 22 23  2  0  0  0  0
 11 24  1  0  0  0  0
 24 25  1  0  0  0  0
 25 26  1  0  0  0  0
 26 27  2  0  0  0  0
 26 28  1  0  0  0  0
 28 29  1  0  0  0  0
 29 30  1  0  0  0  0
 24 31  1  0  0  0  0
 31 32  2  0  0  0  0
 31 33  1  0  0  0  0
 33 34  2  0  0  0  0
 34 35  1  0  0  0  0
 35 36  2  0  0  0  0
 36 37  1  0  0  0  0
 37 38  2  0  0  0  0
 38 39  1  0  0  0  0
 39 40  1  0  0  0  0
 40 41  1  0  0  0  0
 41 42  1  0  0  0  0
 42 43  1  0  0  0  0
 43 44  1  0  0  0  0
 38 45  1  0  0  0  0
 45 46  2  0  0  0  0
 34  7  1  0  0  0  0
 46 35  1  0  0  0  0
 33 10  1  0  0  0  0
 44 39  1  0  0  0  0
 23 12  1  0  0  0  0
 21 16  1  0  0  0  0
  1 47  1  0  0  0  0
  1 48  1  0  0  0  0
  1 49  1  0  0  0  0
  2 50  1  0  0  0  0
  2 51  1  0  0  0  0
  6 52  1  0  0  0  0
  6 53  1  0  0  0  0
 13 54  1  0  0  0  0
 14 55  1  0  0  0  0
 17 56  1  0  0  0  0
 17 57  1  0  0  0  0
 18 58  1  0  0  0  0
 18 59  1  0  0  0  0
 19 60  1  0  0  0  0
 19 61  1  0  0  0  0
 20 62  1  0  0  0  0
 20 63  1  0  0  0  0
 21 64  1  0  0  0  0
 21 65  1  0  0  0  0
 22 66  1  0  0  0  0
 23 67  1  0  0  0  0
 25 68  1  0  0  0  0
 25 69  1  0  0  0  0
 29 70  1  0  0  0  0
 29 71  1  0  0  0  0
 30 72  1  0  0  0  0
 30 73  1  0  0  0  0
 30 74  1  0  0  0  0
 36 75  1  0  0  0  0
 37 76  1  0  0  0  0
 40 77  1  0  0  0  0
 40 78  1  0  0  0  0
 41 79  1  0  0  0  0
 41 80  1  0  0  0  0
 42 81  1  0  0  0  0
 42 82  1  0  0  0  0
 43 83  1  0  0  0  0
 43 84  1  0  0  0  0
 44 85  1  0  0  0  0
 44 86  1  0  0  0  0
 45 87  1  0  0  0  0
 46 88  1  0  0  0  0
M  END
