
  xtb     03012221223D
 energy: -9.004371276832 gnorm: 0.000222738729 xtb: 6.4.1 (afa7bdf)
 42 46  0     0  0            999 V2000
    8.1126   -0.0470   -0.1776 C   0  0  0  0  0  0  0  0  0  0  0  0
    6.7615    0.2766   -0.2458 O   0  0  0  0  0  0  0  0  0  0  0  0
    6.0128   -0.8109    0.1110 C   0  0  0  0  0  0  0  0  0  0  0  0
    6.4875   -1.8837    0.4347 O   0  0  0  0  0  0  0  0  0  0  0  0
    4.5404   -0.6335    0.0908 C   0  0  0  0  0  0  0  0  0  0  0  0
    3.7078   -1.6807    0.4513 C   0  0  0  0  0  0  0  0  0  0  0  0
    2.3419   -1.5238    0.4386 C   0  0  0  0  0  0  0  0  0  0  0  0
    1.7668   -0.3106    0.0640 C   0  0  0  0  0  0  0  0  0  0  0  0
    0.2974   -0.1358    0.0571 C   0  0  0  0  0  0  0  0  0  0  0  0
   -0.2743    1.0481    0.5161 C   0  0  0  0  0  0  0  0  0  0  0  0
   -1.6528    1.2380    0.5218 C   0  0  0  0  0  0  0  0  0  0  0  0
   -2.2545    2.4487    0.9921 C   0  0  0  0  0  0  0  0  0  0  0  0
   -3.5962    2.6092    0.9905 C   0  0  0  0  0  0  0  0  0  0  0  0
   -4.4682    1.5758    0.5193 C   0  0  0  0  0  0  0  0  0  0  0  0
   -5.8558    1.7150    0.5084 C   0  0  0  0  0  0  0  0  0  0  0  0
   -6.6632    0.6963    0.0472 C   0  0  0  0  0  0  0  0  0  0  0  0
   -6.1174   -0.4835   -0.4141 C   0  0  0  0  0  0  0  0  0  0  0  0
   -4.7359   -0.6741   -0.4249 C   0  0  0  0  0  0  0  0  0  0  0  0
   -4.1305   -1.8836   -0.8953 C   0  0  0  0  0  0  0  0  0  0  0  0
   -2.7888   -2.0438   -0.8934 C   0  0  0  0  0  0  0  0  0  0  0  0
   -1.9197   -1.0095   -0.4201 C   0  0  0  0  0  0  0  0  0  0  0  0
   -0.5352   -1.1514   -0.4062 C   0  0  0  0  0  0  0  0  0  0  0  0
   -2.4871    0.1983    0.0492 C   0  0  0  0  0  0  0  0  0  0  0  0
   -3.9012    0.3673    0.0475 C   0  0  0  0  0  0  0  0  0  0  0  0
    2.6126    0.7364   -0.2989 C   0  0  0  0  0  0  0  0  0  0  0  0
    3.9781    0.5760   -0.2852 C   0  0  0  0  0  0  0  0  0  0  0  0
    8.7067    0.8254   -0.4571 H   0  0  0  0  0  0  0  0  0  0  0  0
    8.3533   -0.3533    0.8432 H   0  0  0  0  0  0  0  0  0  0  0  0
    8.3143   -0.8734   -0.8631 H   0  0  0  0  0  0  0  0  0  0  0  0
    4.1554   -2.6153    0.7431 H   0  0  0  0  0  0  0  0  0  0  0  0
    1.7037   -2.3382    0.7347 H   0  0  0  0  0  0  0  0  0  0  0  0
    0.3622    1.8298    0.8879 H   0  0  0  0  0  0  0  0  0  0  0  0
   -1.6140    3.2354    1.3496 H   0  0  0  0  0  0  0  0  0  0  0  0
   -4.0329    3.5257    1.3471 H   0  0  0  0  0  0  0  0  0  0  0  0
   -6.2921    2.6315    0.8662 H   0  0  0  0  0  0  0  0  0  0  0  0
   -7.7332    0.8236    0.0474 H   0  0  0  0  0  0  0  0  0  0  0  0
   -6.7567   -1.2720   -0.7716 H   0  0  0  0  0  0  0  0  0  0  0  0
   -4.7700   -2.6711   -1.2539 H   0  0  0  0  0  0  0  0  0  0  0  0
   -2.3509   -2.9592   -1.2502 H   0  0  0  0  0  0  0  0  0  0  0  0
   -0.0995   -2.0624   -0.7733 H   0  0  0  0  0  0  0  0  0  0  0  0
    2.1840    1.6751   -0.6045 H   0  0  0  0  0  0  0  0  0  0  0  0
    4.6309    1.3842   -0.5661 H   0  0  0  0  0  0  0  0  0  0  0  0
  1  2  1  0  0  0  0
  2  3  1  0  0  0  0
  3  4  2  0  0  0  0
  3  5  1  0  0  0  0
  5  6  2  0  0  0  0
  6  7  1  0  0  0  0
  7  8  2  0  0  0  0
  8  9  1  0  0  0  0
  9 10  2  0  0  0  0
 10 11  1  0  0  0  0
 11 12  2  0  0  0  0
 12 13  1  0  0  0  0
 13 14  2  0  0  0  0
 14 15  1  0  0  0  0
 15 16  2  0  0  0  0
 16 17  1  0  0  0  0
 17 18  2  0  0  0  0
 18 19  1  0  0  0  0
 19 20  2  0  0  0  0
 20 21  1  0  0  0  0
 21 22  2  0  0  0  0
 21 23  1  0  0  0  0
 23 24  2  0  0  0  0
  8 25  1  0  0  0  0
 25 26  2  0  0  0  0
 26  5  1  0  0  0  0
 22  9  1  0  0  0  0
 23 11  1  0  0  0  0
 24 14  1  0  0  0  0
 24 18  1  0  0  0  0
  1 27  1  0  0  0  0
  1 28  1  0  0  0  0
  1 29  1  0  0  0  0
  6 30  1  0  0  0  0
  7 31  1  0  0  0  0
 10 32  1  0  0  0  0
 12 33  1  0  0  0  0
 13 34  1  0  0  0  0
 15 35  1  0  0  0  0
 16 36  1  0  0  0  0
 17 37  1  0  0  0  0
 19 38  1  0  0  0  0
 20 39  1  0  0  0  0
 22 40  1  0  0  0  0
 25 41  1  0  0  0  0
 26 42  1  0  0  0  0
M  END
