
  xtb     03012221313D
 energy: -7.593828051601 gnorm: 0.000267159094 xtb: 6.4.1 (afa7bdf)
 36 38  0     0  0            999 V2000
   -2.6762   -3.8405   -5.6774 C   0  0  0  0  0  0  0  0  0  0  0  0
   -2.3319   -4.0935   -4.3374 O   0  0  0  0  0  0  0  0  0  0  0  0
   -1.8967   -2.9774   -3.6191 C   0  0  0  0  0  0  0  0  0  0  0  0
   -1.8269   -1.6778   -4.1305 C   0  0  0  0  0  0  0  0  0  0  0  0
   -1.3839   -0.6359   -3.3535 C   0  0  0  0  0  0  0  0  0  0  0  0
   -0.9909   -0.8437   -2.0335 C   0  0  0  0  0  0  0  0  0  0  0  0
   -0.5019    0.2432   -1.1684 C   0  0  0  0  0  0  0  0  0  0  0  0
   -0.4446    1.5596   -1.5214 C   0  0  0  0  0  0  0  0  0  0  0  0
    0.1887    2.4876   -0.2315 S   0  0  0  0  0  0  0  0  0  0  0  0
    0.3482    1.0332    0.7380 C   0  0  0  0  0  0  0  0  0  0  0  0
    0.8682    1.0200    2.0845 C   0  0  0  0  0  0  0  0  0  0  0  0
    0.9352   -0.2158    2.7350 C   0  0  0  0  0  0  0  0  0  0  0  0
    1.0087   -1.2212    3.3134 N   0  0  0  0  0  0  0  0  0  0  0  0
    1.2698    2.1815    2.6656 C   0  0  0  0  0  0  0  0  0  0  0  0
    1.8185    2.3769    3.9890 C   0  0  0  0  0  0  0  0  0  0  0  0
    2.1719    3.6533    4.4135 C   0  0  0  0  0  0  0  0  0  0  0  0
    2.6940    3.8346    5.6682 C   0  0  0  0  0  0  0  0  0  0  0  0
    2.8999    2.8662    6.5455 N   0  0  0  0  0  0  0  0  0  0  0  0
    2.5632    1.6530    6.1416 C   0  0  0  0  0  0  0  0  0  0  0  0
    2.0346    1.3593    4.9126 C   0  0  0  0  0  0  0  0  0  0  0  0
   -0.0551   -0.0345    0.1043 N   0  0  0  0  0  0  0  0  0  0  0  0
   -1.0590   -2.1351   -1.5218 C   0  0  0  0  0  0  0  0  0  0  0  0
   -1.5021   -3.1785   -2.2935 C   0  0  0  0  0  0  0  0  0  0  0  0
   -2.9792   -4.7816   -6.1374 H   0  0  0  0  0  0  0  0  0  0  0  0
   -1.8125   -3.4452   -6.2132 H   0  0  0  0  0  0  0  0  0  0  0  0
   -3.5110   -3.1401   -5.7195 H   0  0  0  0  0  0  0  0  0  0  0  0
   -2.1237   -1.4893   -5.1463 H   0  0  0  0  0  0  0  0  0  0  0  0
   -1.3348    0.3547   -3.7695 H   0  0  0  0  0  0  0  0  0  0  0  0
   -0.7486    1.9731   -2.4610 H   0  0  0  0  0  0  0  0  0  0  0  0
    1.1703    3.0707    2.0699 H   0  0  0  0  0  0  0  0  0  0  0  0
    2.0329    4.4918    3.7530 H   0  0  0  0  0  0  0  0  0  0  0  0
    2.9652    4.8295    5.9888 H   0  0  0  0  0  0  0  0  0  0  0  0
    2.7261    0.8552    6.8513 H   0  0  0  0  0  0  0  0  0  0  0  0
    1.7893    0.3427    4.6701 H   0  0  0  0  0  0  0  0  0  0  0  0
   -0.7528   -2.2999   -0.5027 H   0  0  0  0  0  0  0  0  0  0  0  0
   -1.5527   -4.1761   -1.8937 H   0  0  0  0  0  0  0  0  0  0  0  0
  1  2  1  0  0  0  0
  2  3  1  0  0  0  0
  3  4  2  0  0  0  0
  4  5  1  0  0  0  0
  5  6  2  0  0  0  0
  6  7  1  0  0  0  0
  7  8  2  0  0  0  0
  8  9  1  0  0  0  0
  9 10  1  0  0  0  0
 10 11  1  0  0  0  0
 11 12  1  0  0  0  0
 12 13  3  0  0  0  0
 11 14  2  0  0  0  0
 14 15  1  0  0  0  0
 15 16  2  0  0  0  0
 16 17  1  0  0  0  0
 17 18  2  0  0  0  0
 18 19  1  0  0  0  0
 19 20  2  0  0  0  0
 10 21  2  0  0  0  0
  6 22  1  0  0  0  0
 22 23  2  0  0  0  0
 23  3  1  0  0  0  0
 21  7  1  0  0  0  0
 20 15  1  0  0  0  0
  1 24  1  0  0  0  0
  1 25  1  0  0  0  0
  1 26  1  0  0  0  0
  4 27  1  0  0  0  0
  5 28  1  0  0  0  0
  8 29  1  0  0  0  0
 14 30  1  0  0  0  0
 16 31  1  0  0  0  0
 17 32  1  0  0  0  0
 19 33  1  0  0  0  0
 20 34  1  0  0  0  0
 22 35  1  0  0  0  0
 23 36  1  0  0  0  0
M  END
