
  xtb     03012221253D
 energy: -13.714913085804 gnorm: 0.000299006937 xtb: 6.4.1 (afa7bdf)
 62 70  0     0  0            999 V2000
    1.4002    3.8254   -1.0293 C   0  0  0  0  0  0  0  0  0  0  0  0
    0.1529    4.1749   -0.6788 C   0  0  0  0  0  0  0  0  0  0  0  0
   -0.4368    3.0244   -0.0635 C   0  0  0  0  0  0  0  0  0  0  0  0
    0.4332    1.9906   -0.0854 N   0  0  0  0  0  0  0  0  0  0  0  0
    1.5783    2.4631   -0.6244 C   0  0  0  0  0  0  0  0  0  0  0  0
    2.8179    1.7597   -0.6641 C   0  0  0  0  0  0  0  0  0  0  0  0
    4.0043    2.3802   -1.1992 C   0  0  0  0  0  0  0  0  0  0  0  0
    5.2203    1.7813   -1.4630 C   0  0  0  0  0  0  0  0  0  0  0  0
    6.2126    2.5834   -1.9292 N   0  0  0  0  0  0  0  0  0  0  0  0
    5.8173    3.8098   -2.0639 C   0  0  0  0  0  0  0  0  0  0  0  0
    4.1561    4.0476   -1.6498 S   0  0  0  0  0  0  0  0  0  0  0  0
    2.8924    0.4495   -0.0937 C   0  0  0  0  0  0  0  0  0  0  0  0
    4.0331   -0.1446    0.4937 C   0  0  0  0  0  0  0  0  0  0  0  0
    3.7205   -1.4283    0.8254 C   0  0  0  0  0  0  0  0  0  0  0  0
    2.3836   -1.6795    0.4322 C   0  0  0  0  0  0  0  0  0  0  0  0
    1.8830   -0.4884   -0.0502 N   0  0  0  0  0  0  0  0  0  0  0  0
    1.7110   -2.9369    0.4654 C   0  0  0  0  0  0  0  0  0  0  0  0
    2.4664   -4.1624    0.5941 C   0  0  0  0  0  0  0  0  0  0  0  0
    3.8268   -4.3565    0.4431 C   0  0  0  0  0  0  0  0  0  0  0  0
    4.3060   -5.6026    0.6959 N   0  0  0  0  0  0  0  0  0  0  0  0
    3.3605   -6.4287    1.0146 C   0  0  0  0  0  0  0  0  0  0  0  0
    1.7830   -5.7187    0.9601 S   0  0  0  0  0  0  0  0  0  0  0  0
    0.2888   -2.9914    0.3494 C   0  0  0  0  0  0  0  0  0  0  0  0
   -0.5480   -1.9541    0.1188 N   0  0  0  0  0  0  0  0  0  0  0  0
   -1.7974   -2.4688    0.0640 C   0  0  0  0  0  0  0  0  0  0  0  0
   -3.0216   -1.7502   -0.1297 C   0  0  0  0  0  0  0  0  0  0  0  0
   -4.2129   -2.4478   -0.5557 C   0  0  0  0  0  0  0  0  0  0  0  0
   -4.3078   -3.6942   -1.1442 C   0  0  0  0  0  0  0  0  0  0  0  0
   -5.5575   -4.1495   -1.4202 N   0  0  0  0  0  0  0  0  0  0  0  0
   -6.4676   -3.2883   -1.0908 C   0  0  0  0  0  0  0  0  0  0  0  0
   -5.8254   -1.8214   -0.4417 S   0  0  0  0  0  0  0  0  0  0  0  0
   -3.0917   -0.3538    0.1651 C   0  0  0  0  0  0  0  0  0  0  0  0
   -4.2666    0.3868    0.4406 C   0  0  0  0  0  0  0  0  0  0  0  0
   -3.9190    1.6846    0.6469 C   0  0  0  0  0  0  0  0  0  0  0  0
   -2.5185    1.8036    0.4820 C   0  0  0  0  0  0  0  0  0  0  0  0
   -2.0418    0.5374    0.2180 N   0  0  0  0  0  0  0  0  0  0  0  0
   -1.7654    3.0142    0.4790 C   0  0  0  0  0  0  0  0  0  0  0  0
   -2.3749    4.2449    0.9211 C   0  0  0  0  0  0  0  0  0  0  0  0
   -1.7525    5.4466    1.1962 C   0  0  0  0  0  0  0  0  0  0  0  0
   -2.5512    6.4800    1.5695 N   0  0  0  0  0  0  0  0  0  0  0  0
   -3.7980    6.1314    1.6202 C   0  0  0  0  0  0  0  0  0  0  0  0
   -4.0654    4.4682    1.2326 S   0  0  0  0  0  0  0  0  0  0  0  0
   -1.7572   -3.8777    0.3112 C   0  0  0  0  0  0  0  0  0  0  0  0
   -0.4671   -4.1998    0.4850 C   0  0  0  0  0  0  0  0  0  0  0  0
    2.1133    4.4620   -1.5218 H   0  0  0  0  0  0  0  0  0  0  0  0
   -0.3292    5.1162   -0.8847 H   0  0  0  0  0  0  0  0  0  0  0  0
    5.3963    0.7226   -1.3399 H   0  0  0  0  0  0  0  0  0  0  0  0
    6.4643    4.5929   -2.4159 H   0  0  0  0  0  0  0  0  0  0  0  0
    4.9616    0.3547    0.7152 H   0  0  0  0  0  0  0  0  0  0  0  0
    4.3603   -2.0988    1.3737 H   0  0  0  0  0  0  0  0  0  0  0  0
    0.9252   -0.3341   -0.3901 H   0  0  0  0  0  0  0  0  0  0  0  0
    4.5021   -3.5891    0.0956 H   0  0  0  0  0  0  0  0  0  0  0  0
    3.5468   -7.4593    1.2576 H   0  0  0  0  0  0  0  0  0  0  0  0
   -3.4468   -4.2820   -1.4288 H   0  0  0  0  0  0  0  0  0  0  0  0
   -7.5178   -3.4725   -1.2289 H   0  0  0  0  0  0  0  0  0  0  0  0
   -5.2673    0.0009    0.5079 H   0  0  0  0  0  0  0  0  0  0  0  0
   -4.6106    2.4797    0.8581 H   0  0  0  0  0  0  0  0  0  0  0  0
   -1.0521    0.2962    0.0751 H   0  0  0  0  0  0  0  0  0  0  0  0
   -0.6805    5.5782    1.1623 H   0  0  0  0  0  0  0  0  0  0  0  0
   -4.5815    6.8154    1.8926 H   0  0  0  0  0  0  0  0  0  0  0  0
   -2.5975   -4.5404    0.4333 H   0  0  0  0  0  0  0  0  0  0  0  0
   -0.0904   -5.1868    0.7103 H   0  0  0  0  0  0  0  0  0  0  0  0
  1  2  2  0  0  0  0
  2  3  1  0  0  0  0
  3  4  2  0  0  0  0
  4  5  1  0  0  0  0
  5  6  2  0  0  0  0
  6  7  1  0  0  0  0
  7  8  2  0  0  0  0
  8  9  1  0  0  0  0
  9 10  2  0  0  0  0
 10 11  1  0  0  0  0
  6 12  1  0  0  0  0
 12 13  2  0  0  0  0
 13 14  1  0  0  0  0
 14 15  2  0  0  0  0
 15 16  1  0  0  0  0
 15 17  1  0  0  0  0
 17 18  1  0  0  0  0
 18 19  2  0  0  0  0
 19 20  1  0  0  0  0
 20 21  2  0  0  0  0
 21 22  1  0  0  0  0
 17 23  2  0  0  0  0
 23 24  1  0  0  0  0
 24 25  2  0  0  0  0
 25 26  1  0  0  0  0
 26 27  1  0  0  0  0
 27 28  2  0  0  0  0
 28 29  1  0  0  0  0
 29 30  2  0  0  0  0
 30 31  1  0  0  0  0
 26 32  2  0  0  0  0
 32 33  1  0  0  0  0
 33 34  2  0  0  0  0
 34 35  1  0  0  0  0
 35 36  1  0  0  0  0
 35 37  2  0  0  0  0
 37 38  1  0  0  0  0
 38 39  2  0  0  0  0
 39 40  1  0  0  0  0
 40 41  2  0  0  0  0
 41 42  1  0  0  0  0
 25 43  1  0  0  0  0
 43 44  2  0  0  0  0
  5  1  1  0  0  0  0
 11  7  1  0  0  0  0
 16 12  1  0  0  0  0
 22 18  1  0  0  0  0
 44 23  1  0  0  0  0
 37  3  1  0  0  0  0
 42 38  1  0  0  0  0
 31 27  1  0  0  0  0
 36 32  1  0  0  0  0
  1 45  1  0  0  0  0
  2 46  1  0  0  0  0
  8 47  1  0  0  0  0
 10 48  1  0  0  0  0
 13 49  1  0  0  0  0
 14 50  1  0  0  0  0
 16 51  1  0  0  0  0
 19 52  1  0  0  0  0
 21 53  1  0  0  0  0
 28 54  1  0  0  0  0
 30 55  1  0  0  0  0
 33 56  1  0  0  0  0
 34 57  1  0  0  0  0
 36 58  1  0  0  0  0
 39 59  1  0  0  0  0
 41 60  1  0  0  0  0
 43 61  1  0  0  0  0
 44 62  1  0  0  0  0
M  END
