
  xtb     03012221253D
 energy: -9.201790338063 gnorm: 0.000358081040 xtb: 6.4.1 (afa7bdf)
 41 44  0     0  0            999 V2000
   -5.7430    1.9625    0.3442 C   0  0  0  0  0  0  0  0  0  0  0  0
   -4.4104    1.3046    0.2594 C   0  0  0  0  0  0  0  0  0  0  0  0
   -4.1620    0.3263   -0.6938 C   0  0  0  0  0  0  0  0  0  0  0  0
   -2.9369   -0.2994   -0.7596 C   0  0  0  0  0  0  0  0  0  0  0  0
   -1.9259    0.0335    0.1329 C   0  0  0  0  0  0  0  0  0  0  0  0
   -0.6430   -0.6138    0.0626 N   0  0  0  0  0  0  0  0  0  0  0  0
   -0.4146   -2.0059    0.0558 C   0  0  0  0  0  0  0  0  0  0  0  0
   -1.3023   -3.0769    0.1296 C   0  0  0  0  0  0  0  0  0  0  0  0
   -0.7955   -4.3536    0.1144 C   0  0  0  0  0  0  0  0  0  0  0  0
    0.5800   -4.5842    0.0293 C   0  0  0  0  0  0  0  0  0  0  0  0
    1.4666   -3.5378   -0.0377 C   0  0  0  0  0  0  0  0  0  0  0  0
    0.9686   -2.2355   -0.0223 C   0  0  0  0  0  0  0  0  0  0  0  0
    1.6156   -0.9455   -0.0665 C   0  0  0  0  0  0  0  0  0  0  0  0
    2.9519   -0.5720   -0.1506 C   0  0  0  0  0  0  0  0  0  0  0  0
    3.2927    0.7764   -0.1852 C   0  0  0  0  0  0  0  0  0  0  0  0
    4.6990    1.1307   -0.2726 C   0  0  0  0  0  0  0  0  0  0  0  0
    5.2535    2.3624   -0.3140 C   0  0  0  0  0  0  0  0  0  0  0  0
    4.5210    3.5493   -0.2768 C   0  0  0  0  0  0  0  0  0  0  0  0
    3.8565    4.5027   -0.2418 N   0  0  0  0  0  0  0  0  0  0  0  0
    6.6447    2.4540   -0.3980 C   0  0  0  0  0  0  0  0  0  0  0  0
    7.8049    2.4984   -0.4694 N   0  0  0  0  0  0  0  0  0  0  0  0
    2.2547    1.7364   -0.1367 C   0  0  0  0  0  0  0  0  0  0  0  0
    0.9365    1.3820   -0.0535 C   0  0  0  0  0  0  0  0  0  0  0  0
    0.6050    0.0286   -0.0120 C   0  0  0  0  0  0  0  0  0  0  0  0
   -2.1753    1.0054    1.0937 C   0  0  0  0  0  0  0  0  0  0  0  0
   -3.4018    1.6284    1.1566 C   0  0  0  0  0  0  0  0  0  0  0  0
   -6.4056    1.4098    1.0108 H   0  0  0  0  0  0  0  0  0  0  0  0
   -6.2184    2.0158   -0.6356 H   0  0  0  0  0  0  0  0  0  0  0  0
   -5.6553    2.9806    0.7244 H   0  0  0  0  0  0  0  0  0  0  0  0
   -4.9408    0.0605   -1.3879 H   0  0  0  0  0  0  0  0  0  0  0  0
   -2.7424   -1.0446   -1.5107 H   0  0  0  0  0  0  0  0  0  0  0  0
   -2.3582   -2.8925    0.2043 H   0  0  0  0  0  0  0  0  0  0  0  0
   -1.4696   -5.1929    0.1706 H   0  0  0  0  0  0  0  0  0  0  0  0
    0.9487   -5.5959    0.0190 H   0  0  0  0  0  0  0  0  0  0  0  0
    2.5284   -3.7049   -0.0994 H   0  0  0  0  0  0  0  0  0  0  0  0
    3.7150   -1.3275   -0.1897 H   0  0  0  0  0  0  0  0  0  0  0  0
    5.3854    0.3018   -0.3085 H   0  0  0  0  0  0  0  0  0  0  0  0
    2.5015    2.7809   -0.1671 H   0  0  0  0  0  0  0  0  0  0  0  0
    0.1582    2.1229   -0.0269 H   0  0  0  0  0  0  0  0  0  0  0  0
   -1.3985    1.2540    1.7955 H   0  0  0  0  0  0  0  0  0  0  0  0
   -3.5889    2.3752    1.9090 H   0  0  0  0  0  0  0  0  0  0  0  0
  1  2  1  0  0  0  0
  2  3  2  0  0  0  0
  3  4  1  0  0  0  0
  4  5  2  0  0  0  0
  5  6  1  0  0  0  0
  6  7  1  0  0  0  0
  7  8  2  0  0  0  0
  8  9  1  0  0  0  0
  9 10  2  0  0  0  0
 10 11  1  0  0  0  0
 11 12  2  0  0  0  0
 12 13  1  0  0  0  0
 13 14  2  0  0  0  0
 14 15  1  0  0  0  0
 15 16  1  0  0  0  0
 16 17  2  0  0  0  0
 17 18  1  0  0  0  0
 18 19  3  0  0  0  0
 17 20  1  0  0  0  0
 20 21  3  0  0  0  0
 15 22  2  0  0  0  0
 22 23  1  0  0  0  0
 23 24  2  0  0  0  0
  5 25  1  0  0  0  0
 25 26  2  0  0  0  0
 26  2  1  0  0  0  0
 24  6  1  0  0  0  0
 12  7  1  0  0  0  0
 24 13  1  0  0  0  0
  1 27  1  0  0  0  0
  1 28  1  0  0  0  0
  1 29  1  0  0  0  0
  3 30  1  0  0  0  0
  4 31  1  0  0  0  0
  8 32  1  0  0  0  0
  9 33  1  0  0  0  0
 10 34  1  0  0  0  0
 11 35  1  0  0  0  0
 14 36  1  0  0  0  0
 16 37  1  0  0  0  0
 22 38  1  0  0  0  0
 23 39  1  0  0  0  0
 25 40  1  0  0  0  0
 26 41  1  0  0  0  0
M  END
