
  xtb     03012221293D
 energy: -5.866743130688 gnorm: 0.000289361194 xtb: 6.4.1 (afa7bdf)
 28 30  0     0  0            999 V2000
   -4.1262   -0.2686   -0.2453 C   0  0  0  0  0  0  0  0  0  0  0  0
   -2.7376    0.2222   -0.0389 C   0  0  0  0  0  0  0  0  0  0  0  0
   -2.5266    1.5529    0.3521 C   0  0  0  0  0  0  0  0  0  0  0  0
   -1.2715    2.0424    0.5431 C   0  0  0  0  0  0  0  0  0  0  0  0
   -0.1419    1.2306    0.3531 C   0  0  0  0  0  0  0  0  0  0  0  0
    1.0797    1.7604    0.5574 N   0  0  0  0  0  0  0  0  0  0  0  0
    2.0744    0.9317    0.3565 C   0  0  0  0  0  0  0  0  0  0  0  0
    3.4396    1.4242    0.5547 C   0  0  0  0  0  0  0  0  0  0  0  0
    3.6516    2.5722    0.8980 O   0  0  0  0  0  0  0  0  0  0  0  0
    4.4805    0.5388    0.3379 N   0  0  0  0  0  0  0  0  0  0  0  0
    4.3127   -0.7763   -0.0532 C   0  0  0  0  0  0  0  0  0  0  0  0
    5.2607   -1.5181   -0.2332 O   0  0  0  0  0  0  0  0  0  0  0  0
    3.0129   -1.2097   -0.2307 N   0  0  0  0  0  0  0  0  0  0  0  0
    1.8884   -0.4150   -0.0436 C   0  0  0  0  0  0  0  0  0  0  0  0
    0.7034   -0.9486   -0.2474 N   0  0  0  0  0  0  0  0  0  0  0  0
   -0.3308   -0.1146   -0.0468 C   0  0  0  0  0  0  0  0  0  0  0  0
   -1.6522   -0.6048   -0.2453 C   0  0  0  0  0  0  0  0  0  0  0  0
   -1.8279   -2.0199   -0.6619 C   0  0  0  0  0  0  0  0  0  0  0  0
   -4.2978   -1.2019    0.2941 H   0  0  0  0  0  0  0  0  0  0  0  0
   -4.3237   -0.4447   -1.3044 H   0  0  0  0  0  0  0  0  0  0  0  0
   -4.8608    0.4553    0.1130 H   0  0  0  0  0  0  0  0  0  0  0  0
   -3.3791    2.1937    0.5020 H   0  0  0  0  0  0  0  0  0  0  0  0
   -1.1166    3.0639    0.8448 H   0  0  0  0  0  0  0  0  0  0  0  0
    5.4204    0.8774    0.4733 H   0  0  0  0  0  0  0  0  0  0  0  0
    2.8713   -2.1688   -0.5161 H   0  0  0  0  0  0  0  0  0  0  0  0
   -2.2827   -2.6077    0.1353 H   0  0  0  0  0  0  0  0  0  0  0  0
   -0.8645   -2.4725   -0.8990 H   0  0  0  0  0  0  0  0  0  0  0  0
   -2.4559   -2.0946   -1.5495 H   0  0  0  0  0  0  0  0  0  0  0  0
  1  2  1  0  0  0  0
  2  3  2  0  0  0  0
  3  4  1  0  0  0  0
  4  5  2  0  0  0  0
  5  6  1  0  0  0  0
  6  7  2  0  0  0  0
  7  8  1  0  0  0  0
  8  9  2  0  0  0  0
  8 10  1  0  0  0  0
 10 11  1  0  0  0  0
 11 12  2  0  0  0  0
 11 13  1  0  0  0  0
 13 14  1  0  0  0  0
 14 15  2  0  0  0  0
 15 16  1  0  0  0  0
 16 17  2  0  0  0  0
 17 18  1  0  0  0  0
 17  2  1  0  0  0  0
 16  5  1  0  0  0  0
 14  7  1  0  0  0  0
  1 19  1  0  0  0  0
  1 20  1  0  0  0  0
  1 21  1  0  0  0  0
  3 22  1  0  0  0  0
  4 23  1  0  0  0  0
 10 24  1  0  0  0  0
 13 25  1  0  0  0  0
 18 26  1  0  0  0  0
 18 27  1  0  0  0  0
 18 28  1  0  0  0  0
M  END
