
  xtb     03012221213D
 energy: -9.432227788438 gnorm: 0.000319503897 xtb: 6.4.1 (afa7bdf)
 50 54  0     0  0            999 V2000
    6.8590    3.0103   -1.0298 C   0  0  0  0  0  0  0  0  0  0  0  0
    6.5765    1.7406   -0.5394 O   0  0  0  0  0  0  0  0  0  0  0  0
    5.2214    1.5620   -0.4797 C   0  0  0  0  0  0  0  0  0  0  0  0
    4.4192    2.4137   -0.8159 O   0  0  0  0  0  0  0  0  0  0  0  0
    4.7705    0.2439    0.0282 C   0  0  0  0  0  0  0  0  0  0  0  0
    5.6761   -0.7030    0.4039 C   0  0  0  0  0  0  0  0  0  0  0  0
    5.2727   -1.9851    0.8985 C   0  0  0  0  0  0  0  0  0  0  0  0
    6.1056   -2.8283    1.2328 O   0  0  0  0  0  0  0  0  0  0  0  0
    3.9063   -2.2577    0.9929 N   0  0  0  0  0  0  0  0  0  0  0  0
    3.4987   -3.5549    1.4920 C   0  0  0  0  0  0  0  0  0  0  0  0
    2.9620   -1.2913    0.6102 C   0  0  0  0  0  0  0  0  0  0  0  0
    1.5419   -1.4118    0.6462 C   0  0  0  0  0  0  0  0  0  0  0  0
    0.8715   -0.3021    0.2083 C   0  0  0  0  0  0  0  0  0  0  0  0
   -0.5657   -0.1221    0.1253 C   0  0  0  0  0  0  0  0  0  0  0  0
   -1.0944    1.0692   -0.3684 C   0  0  0  0  0  0  0  0  0  0  0  0
   -2.4509    1.2833   -0.4643 C   0  0  0  0  0  0  0  0  0  0  0  0
   -3.3413    0.2713   -0.0571 C   0  0  0  0  0  0  0  0  0  0  0  0
   -2.8236   -0.9388    0.4446 C   0  0  0  0  0  0  0  0  0  0  0  0
   -1.4598   -1.1136    0.5284 C   0  0  0  0  0  0  0  0  0  0  0  0
   -3.7434   -2.0402    0.8895 C   0  0  0  0  0  0  0  0  0  0  0  0
   -5.1189   -1.9704    0.2113 C   0  0  0  0  0  0  0  0  0  0  0  0
   -5.6963   -0.5584    0.2908 C   0  0  0  0  0  0  0  0  0  0  0  0
   -4.7270    0.4662   -0.1512 N   0  0  0  0  0  0  0  0  0  0  0  0
   -5.3100    1.7098   -0.6974 C   0  0  0  0  0  0  0  0  0  0  0  0
   -4.3838    2.9107   -0.5133 C   0  0  0  0  0  0  0  0  0  0  0  0
   -2.9636    2.5897   -1.0000 C   0  0  0  0  0  0  0  0  0  0  0  0
    2.0289    0.9195   -0.2574 S   0  0  0  0  0  0  0  0  0  0  0  0
    3.3975   -0.0672    0.1378 C   0  0  0  0  0  0  0  0  0  0  0  0
    6.4160    3.7529   -0.3621 H   0  0  0  0  0  0  0  0  0  0  0  0
    6.4234    3.1087   -2.0268 H   0  0  0  0  0  0  0  0  0  0  0  0
    7.9416    3.1440   -1.0766 H   0  0  0  0  0  0  0  0  0  0  0  0
    6.7264   -0.4909    0.3303 H   0  0  0  0  0  0  0  0  0  0  0  0
    2.9148   -4.0788    0.7385 H   0  0  0  0  0  0  0  0  0  0  0  0
    2.9056   -3.4384    2.3964 H   0  0  0  0  0  0  0  0  0  0  0  0
    4.3846   -4.1438    1.7243 H   0  0  0  0  0  0  0  0  0  0  0  0
    1.0514   -2.3062    0.9889 H   0  0  0  0  0  0  0  0  0  0  0  0
   -0.4164    1.8429   -0.6842 H   0  0  0  0  0  0  0  0  0  0  0  0
   -1.0790   -2.0409    0.9182 H   0  0  0  0  0  0  0  0  0  0  0  0
   -3.2686   -3.0098    0.6947 H   0  0  0  0  0  0  0  0  0  0  0  0
   -3.8623   -1.9806    1.9774 H   0  0  0  0  0  0  0  0  0  0  0  0
   -5.8107   -2.6971    0.6599 H   0  0  0  0  0  0  0  0  0  0  0  0
   -5.0216   -2.2636   -0.8413 H   0  0  0  0  0  0  0  0  0  0  0  0
   -5.9871   -0.3214    1.3185 H   0  0  0  0  0  0  0  0  0  0  0  0
   -6.6017   -0.4689   -0.3186 H   0  0  0  0  0  0  0  0  0  0  0  0
   -5.5151    1.5442   -1.7591 H   0  0  0  0  0  0  0  0  0  0  0  0
   -6.2780    1.8825   -0.2155 H   0  0  0  0  0  0  0  0  0  0  0  0
   -4.7837    3.7910   -1.0358 H   0  0  0  0  0  0  0  0  0  0  0  0
   -4.3521    3.1845    0.5485 H   0  0  0  0  0  0  0  0  0  0  0  0
   -2.2711    3.3928   -0.7186 H   0  0  0  0  0  0  0  0  0  0  0  0
   -2.9455    2.5518   -2.0953 H   0  0  0  0  0  0  0  0  0  0  0  0
  1  2  1  0  0  0  0
  2  3  1  0  0  0  0
  3  4  2  0  0  0  0
  3  5  1  0  0  0  0
  5  6  2  0  0  0  0
  6  7  1  0  0  0  0
  7  8  2  0  0  0  0
  7  9  1  0  0  0  0
  9 10  1  0  0  0  0
  9 11  1  0  0  0  0
 11 12  1  0  0  0  0
 12 13  2  0  0  0  0
 13 14  1  0  0  0  0
 14 15  2  0  0  0  0
 15 16  1  0  0  0  0
 16 17  2  0  0  0  0
 17 18  1  0  0  0  0
 18 19  2  0  0  0  0
 18 20  1  0  0  0  0
 20 21  1  0  0  0  0
 21 22  1  0  0  0  0
 22 23  1  0  0  0  0
 23 24  1  0  0  0  0
 24 25  1  0  0  0  0
 25 26  1  0  0  0  0
 13 27  1  0  0  0  0
 27 28  1  0  0  0  0
 28  5  1  0  0  0  0
 28 11  2  0  0  0  0
 19 14  1  0  0  0  0
 26 16  1  0  0  0  0
 23 17  1  0  0  0  0
  1 29  1  0  0  0  0
  1 30  1  0  0  0  0
  1 31  1  0  0  0  0
  6 32  1  0  0  0  0
 10 33  1  0  0  0  0
 10 34  1  0  0  0  0
 10 35  1  0  0  0  0
 12 36  1  0  0  0  0
 15 37  1  0  0  0  0
 19 38  1  0  0  0  0
 20 39  1  0  0  0  0
 20 40  1  0  0  0  0
 21 41  1  0  0  0  0
 21 42  1  0  0  0  0
 22 43  1  0  0  0  0
 22 44  1  0  0  0  0
 24 45  1  0  0  0  0
 24 46  1  0  0  0  0
 25 47  1  0  0  0  0
 25 48  1  0  0  0  0
 26 49  1  0  0  0  0
 26 50  1  0  0  0  0
M  END
