
  xtb     03012221323D
 energy: -8.143265816983 gnorm: 0.000186888037 xtb: 6.4.1 (afa7bdf)
 43 46  0     0  0            999 V2000
    7.6526   -0.1099    0.8561 C   0  0  0  0  0  0  0  0  0  0  0  0
    7.1966    0.5213   -0.3161 O   0  0  0  0  0  0  0  0  0  0  0  0
    5.8115    0.5372   -0.4778 C   0  0  0  0  0  0  0  0  0  0  0  0
    5.3028    1.1527   -1.6295 C   0  0  0  0  0  0  0  0  0  0  0  0
    3.9575    1.2121   -1.8706 C   0  0  0  0  0  0  0  0  0  0  0  0
    3.0383    0.6571   -0.9676 C   0  0  0  0  0  0  0  0  0  0  0  0
    1.6379    0.7348   -1.2485 C   0  0  0  0  0  0  0  0  0  0  0  0
    0.6302    0.2606   -0.4679 C   0  0  0  0  0  0  0  0  0  0  0  0
   -0.7164    0.4160   -0.8700 C   0  0  0  0  0  0  0  0  0  0  0  0
   -1.8116   -0.0495   -0.1106 C   0  0  0  0  0  0  0  0  0  0  0  0
   -1.6330   -0.7148    1.2249 C   0  0  0  0  0  0  0  0  0  0  0  0
   -2.7748   -1.6789    1.6122 C   0  0  0  0  0  0  0  0  0  0  0  0
   -4.1322   -1.2235    1.1640 C   0  0  0  0  0  0  0  0  0  0  0  0
   -5.2775   -1.6673    1.7977 C   0  0  0  0  0  0  0  0  0  0  0  0
   -6.5298   -1.2878    1.3508 C   0  0  0  0  0  0  0  0  0  0  0  0
   -6.6529   -0.4604    0.2512 C   0  0  0  0  0  0  0  0  0  0  0  0
   -5.5272   -0.0097   -0.3934 C   0  0  0  0  0  0  0  0  0  0  0  0
   -4.2566   -0.3733    0.0525 C   0  0  0  0  0  0  0  0  0  0  0  0
   -3.0890    0.1346   -0.6352 C   0  0  0  0  0  0  0  0  0  0  0  0
   -3.2907    0.7983   -1.8048 O   0  0  0  0  0  3  0  0  0  0  0  0
   -2.2253    1.7224   -2.1881 B   0  0  0  0  0  4  0  0  0  0  0  0
   -2.2410    2.7843   -1.2949 F   0  0  0  0  0  0  0  0  0  0  0  0
   -2.4113    2.1745   -3.4830 F   0  0  0  0  0  0  0  0  0  0  0  0
   -0.9338    1.0490   -2.0594 O   0  0  0  0  0  0  0  0  0  0  0  0
    3.5452    0.0413    0.1874 C   0  0  0  0  0  0  0  0  0  0  0  0
    4.8927   -0.0167    0.4248 C   0  0  0  0  0  0  0  0  0  0  0  0
    8.7415   -0.0586    0.8716 H   0  0  0  0  0  0  0  0  0  0  0  0
    7.2602    0.4078    1.7317 H   0  0  0  0  0  0  0  0  0  0  0  0
    7.3460   -1.1562    0.8562 H   0  0  0  0  0  0  0  0  0  0  0  0
    6.0049    1.5811   -2.3252 H   0  0  0  0  0  0  0  0  0  0  0  0
    3.5911    1.6906   -2.7620 H   0  0  0  0  0  0  0  0  0  0  0  0
    1.3451    1.2196   -2.1638 H   0  0  0  0  0  0  0  0  0  0  0  0
    0.8552   -0.2114    0.4673 H   0  0  0  0  0  0  0  0  0  0  0  0
   -1.5356    0.0679    1.9854 H   0  0  0  0  0  0  0  0  0  0  0  0
   -0.6839   -1.2608    1.2350 H   0  0  0  0  0  0  0  0  0  0  0  0
   -2.7901   -1.8315    2.6978 H   0  0  0  0  0  0  0  0  0  0  0  0
   -2.5853   -2.6671    1.1783 H   0  0  0  0  0  0  0  0  0  0  0  0
   -5.1858   -2.3246    2.6448 H   0  0  0  0  0  0  0  0  0  0  0  0
   -7.4119   -1.6426    1.8574 H   0  0  0  0  0  0  0  0  0  0  0  0
   -7.6288   -0.1683   -0.0992 H   0  0  0  0  0  0  0  0  0  0  0  0
   -5.6007    0.6384   -1.2506 H   0  0  0  0  0  0  0  0  0  0  0  0
    2.8654   -0.3931    0.8973 H   0  0  0  0  0  0  0  0  0  0  0  0
    5.2506   -0.4957    1.3194 H   0  0  0  0  0  0  0  0  0  0  0  0
  1  2  1  0  0  0  0
  2  3  1  0  0  0  0
  3  4  2  0  0  0  0
  4  5  1  0  0  0  0
  5  6  2  0  0  0  0
  6  7  1  0  0  0  0
  7  8  2  0  0  0  0
  8  9  1  0  0  0  0
  9 10  2  0  0  0  0
 10 11  1  0  0  0  0
 11 12  1  0  0  0  0
 12 13  1  0  0  0  0
 13 14  2  0  0  0  0
 14 15  1  0  0  0  0
 15 16  2  0  0  0  0
 16 17  1  0  0  0  0
 17 18  2  0  0  0  0
 18 19  1  0  0  0  0
 19 20  2  0  0  0  0
 20 21  1  0  0  0  0
 21 22  1  0  0  0  0
 21 23  1  0  0  0  0
 21 24  1  0  0  0  0
  6 25  1  0  0  0  0
 25 26  2  0  0  0  0
 26  3  1  0  0  0  0
 24  9  1  0  0  0  0
 19 10  1  0  0  0  0
 18 13  1  0  0  0  0
  1 27  1  0  0  0  0
  1 28  1  0  0  0  0
  1 29  1  0  0  0  0
  4 30  1  0  0  0  0
  5 31  1  0  0  0  0
  7 32  1  0  0  0  0
  8 33  1  0  0  0  0
 11 34  1  0  0  0  0
 11 35  1  0  0  0  0
 12 36  1  0  0  0  0
 12 37  1  0  0  0  0
 14 38  1  0  0  0  0
 15 39  1  0  0  0  0
 16 40  1  0  0  0  0
 17 41  1  0  0  0  0
 25 42  1  0  0  0  0
 26 43  1  0  0  0  0
M  CHG  1  20   1
M  CHG  1  21  -1
M  END
