
  xtb     03012221323D
 energy: -13.358818351156 gnorm: 0.000219857986 xtb: 6.4.1 (afa7bdf)
 71 75  0     0  0            999 V2000
   -3.2344   -2.1182   -2.3021 C   0  0  0  0  0  0  0  0  0  0  0  0
   -1.9749   -1.8394   -1.7343 O   0  0  0  0  0  0  0  0  0  0  0  0
   -1.3707   -0.6781   -2.2928 C   0  0  0  0  0  0  0  0  0  0  0  0
    0.0029   -0.3684   -1.7089 C   0  0  0  0  0  0  0  0  0  0  0  0
    0.0638   -0.3131   -0.1625 C   0  0  0  0  0  0  0  0  0  0  0  0
   -0.0833   -1.7142    0.4847 C   0  0  0  0  0  0  0  0  0  0  0  0
    1.1283   -2.6245    0.3363 C   0  0  0  0  0  0  0  0  0  0  0  0
    1.5558   -2.8118   -1.0050 O   0  0  0  0  0  0  0  0  0  0  0  0
    0.7269   -3.6969   -1.7207 C   0  0  0  0  0  0  0  0  0  0  0  0
    1.3657    0.3755    0.2628 C   0  0  0  0  0  0  0  0  0  0  0  0
    2.6709    0.0525   -0.0325 C   0  0  0  0  0  0  0  0  0  0  0  0
    3.7139    0.8657    0.4201 C   0  0  0  0  0  0  0  0  0  0  0  0
    5.1148    0.5259    0.1066 C   0  0  0  0  0  0  0  0  0  0  0  0
    6.0725    1.5213   -0.0949 C   0  0  0  0  0  0  0  0  0  0  0  0
    7.3746    1.2099   -0.3941 C   0  0  0  0  0  0  0  0  0  0  0  0
    7.7849   -0.1225   -0.5077 C   0  0  0  0  0  0  0  0  0  0  0  0
    9.0858   -0.5300   -0.8100 O   0  0  0  0  0  0  0  0  0  0  0  0
    9.9995    0.5195   -1.0178 C   0  0  0  0  0  0  0  0  0  0  0  0
    6.8250   -1.1195   -0.3059 C   0  0  0  0  0  0  0  0  0  0  0  0
    5.5249   -0.8034   -0.0080 C   0  0  0  0  0  0  0  0  0  0  0  0
    3.3977    2.0087    1.1677 C   0  0  0  0  0  0  0  0  0  0  0  0
    2.0935    2.3501    1.4482 C   0  0  0  0  0  0  0  0  0  0  0  0
    1.0688    1.5336    0.9862 C   0  0  0  0  0  0  0  0  0  0  0  0
   -0.3846    1.6815    1.0867 C   0  0  0  0  0  0  0  0  0  0  0  0
   -1.1521    2.6517    1.7191 C   0  0  0  0  0  0  0  0  0  0  0  0
   -2.5247    2.5477    1.6810 C   0  0  0  0  0  0  0  0  0  0  0  0
   -3.1627    1.4835    1.0287 C   0  0  0  0  0  0  0  0  0  0  0  0
   -4.6343    1.3872    0.9879 C   0  0  0  0  0  0  0  0  0  0  0  0
   -5.4312    2.5314    0.9298 C   0  0  0  0  0  0  0  0  0  0  0  0
   -6.7977    2.4394    0.8715 C   0  0  0  0  0  0  0  0  0  0  0  0
   -7.4406    1.1973    0.8674 C   0  0  0  0  0  0  0  0  0  0  0  0
   -8.8355    1.1932    0.8009 O   0  0  0  0  0  0  0  0  0  0  0  0
   -9.4222   -0.0856    0.7975 C   0  0  0  0  0  0  0  0  0  0  0  0
   -6.6428    0.0500    0.9283 C   0  0  0  0  0  0  0  0  0  0  0  0
   -5.2757    0.1471    0.9864 C   0  0  0  0  0  0  0  0  0  0  0  0
   -2.3747    0.5131    0.4038 C   0  0  0  0  0  0  0  0  0  0  0  0
   -1.0031    0.6226    0.4169 C   0  0  0  0  0  0  0  0  0  0  0  0
   -3.6539   -2.9989   -1.8149 H   0  0  0  0  0  0  0  0  0  0  0  0
   -3.9084   -1.2736   -2.1543 H   0  0  0  0  0  0  0  0  0  0  0  0
   -3.1240   -2.3187   -3.3683 H   0  0  0  0  0  0  0  0  0  0  0  0
   -1.3099   -0.8231   -3.3783 H   0  0  0  0  0  0  0  0  0  0  0  0
   -2.0541    0.1629   -2.1307 H   0  0  0  0  0  0  0  0  0  0  0  0
    0.3619    0.5881   -2.1026 H   0  0  0  0  0  0  0  0  0  0  0  0
    0.7240   -1.1158   -2.0473 H   0  0  0  0  0  0  0  0  0  0  0  0
   -0.9671   -2.1960    0.0614 H   0  0  0  0  0  0  0  0  0  0  0  0
   -0.3053   -1.5758    1.5481 H   0  0  0  0  0  0  0  0  0  0  0  0
    0.9450   -3.6131    0.7747 H   0  0  0  0  0  0  0  0  0  0  0  0
    1.9828   -2.2108    0.8837 H   0  0  0  0  0  0  0  0  0  0  0  0
   -0.2948   -3.3183   -1.7476 H   0  0  0  0  0  0  0  0  0  0  0  0
    0.7427   -4.6813   -1.2519 H   0  0  0  0  0  0  0  0  0  0  0  0
    1.1022   -3.7823   -2.7410 H   0  0  0  0  0  0  0  0  0  0  0  0
    2.8783   -0.8118   -0.6358 H   0  0  0  0  0  0  0  0  0  0  0  0
    5.7722    2.5539   -0.0335 H   0  0  0  0  0  0  0  0  0  0  0  0
    8.0852    2.0008   -0.5462 H   0  0  0  0  0  0  0  0  0  0  0  0
    9.6738    1.1354   -1.8569 H   0  0  0  0  0  0  0  0  0  0  0  0
   10.9737    0.0894   -1.2529 H   0  0  0  0  0  0  0  0  0  0  0  0
   10.0881    1.1207   -0.1122 H   0  0  0  0  0  0  0  0  0  0  0  0
    7.1347   -2.1454   -0.3909 H   0  0  0  0  0  0  0  0  0  0  0  0
    4.8070   -1.5898    0.1540 H   0  0  0  0  0  0  0  0  0  0  0  0
    4.1973    2.6262    1.5373 H   0  0  0  0  0  0  0  0  0  0  0  0
    1.8593    3.2363    2.0103 H   0  0  0  0  0  0  0  0  0  0  0  0
   -0.6702    3.4647    2.2321 H   0  0  0  0  0  0  0  0  0  0  0  0
   -3.1258    3.2864    2.1813 H   0  0  0  0  0  0  0  0  0  0  0  0
   -4.9587    3.4990    0.9084 H   0  0  0  0  0  0  0  0  0  0  0  0
   -7.4058    3.3244    0.8220 H   0  0  0  0  0  0  0  0  0  0  0  0
   -9.1693   -0.6134    1.7177 H   0  0  0  0  0  0  0  0  0  0  0  0
  -10.5052    0.0304    0.7430 H   0  0  0  0  0  0  0  0  0  0  0  0
   -9.0829   -0.6482   -0.0731 H   0  0  0  0  0  0  0  0  0  0  0  0
   -7.1041   -0.9199    0.9308 H   0  0  0  0  0  0  0  0  0  0  0  0
   -4.6799   -0.7482    1.0478 H   0  0  0  0  0  0  0  0  0  0  0  0
   -2.8334   -0.3171   -0.0988 H   0  0  0  0  0  0  0  0  0  0  0  0
  1  2  1  0  0  0  0
  2  3  1  0  0  0  0
  3  4  1  0  0  0  0
  4  5  1  0  0  0  0
  5  6  1  0  0  0  0
  6  7  1  0  0  0  0
  7  8  1  0  0  0  0
  8  9  1  0  0  0  0
  5 10  1  0  0  0  0
 10 11  2  0  0  0  0
 11 12  1  0  0  0  0
 12 13  1  0  0  0  0
 13 14  2  0  0  0  0
 14 15  1  0  0  0  0
 15 16  2  0  0  0  0
 16 17  1  0  0  0  0
 17 18  1  0  0  0  0
 16 19  1  0  0  0  0
 19 20  2  0  0  0  0
 12 21  2  0  0  0  0
 21 22  1  0  0  0  0
 22 23  2  0  0  0  0
 23 24  1  0  0  0  0
 24 25  2  0  0  0  0
 25 26  1  0  0  0  0
 26 27  2  0  0  0  0
 27 28  1  0  0  0  0
 28 29  2  0  0  0  0
 29 30  1  0  0  0  0
 30 31  2  0  0  0  0
 31 32  1  0  0  0  0
 32 33  1  0  0  0  0
 31 34  1  0  0  0  0
 34 35  2  0  0  0  0
 27 36  1  0  0  0  0
 36 37  2  0  0  0  0
 37  5  1  0  0  0  0
 23 10  1  0  0  0  0
 37 24  1  0  0  0  0
 20 13  1  0  0  0  0
 35 28  1  0  0  0  0
  1 38  1  0  0  0  0
  1 39  1  0  0  0  0
  1 40  1  0  0  0  0
  3 41  1  0  0  0  0
  3 42  1  0  0  0  0
  4 43  1  0  0  0  0
  4 44  1  0  0  0  0
  6 45  1  0  0  0  0
  6 46  1  0  0  0  0
  7 47  1  0  0  0  0
  7 48  1  0  0  0  0
  9 49  1  0  0  0  0
  9 50  1  0  0  0  0
  9 51  1  0  0  0  0
 11 52  1  0  0  0  0
 14 53  1  0  0  0  0
 15 54  1  0  0  0  0
 18 55  1  0  0  0  0
 18 56  1  0  0  0  0
 18 57  1  0  0  0  0
 19 58  1  0  0  0  0
 20 59  1  0  0  0  0
 21 60  1  0  0  0  0
 22 61  1  0  0  0  0
 25 62  1  0  0  0  0
 26 63  1  0  0  0  0
 29 64  1  0  0  0  0
 30 65  1  0  0  0  0
 33 66  1  0  0  0  0
 33 67  1  0  0  0  0
 33 68  1  0  0  0  0
 34 69  1  0  0  0  0
 35 70  1  0  0  0  0
 36 71  1  0  0  0  0
M  END
