
  xtb     03012221243D
 energy: -7.127053880158 gnorm: 0.000112482597 xtb: 6.4.1 (afa7bdf)
 33 36  0     0  0            999 V2000
    7.5611    0.1757   -2.5614 Cl  0  0  0  0  0  0  0  0  0  0  0  0
    6.2810    0.0499   -1.3777 C   0  0  0  0  0  0  0  0  0  0  0  0
    6.6392   -0.1192   -0.1171 N   0  0  0  0  0  0  0  0  0  0  0  0
    5.6300   -0.2075    0.7309 C   0  0  0  0  0  0  0  0  0  0  0  0
    6.0181   -0.4323    2.4206 Cl  0  0  0  0  0  0  0  0  0  0  0  0
    4.3538   -0.1406    0.4116 N   0  0  0  0  0  0  0  0  0  0  0  0
    4.1099    0.0300   -0.8789 C   0  0  0  0  0  0  0  0  0  0  0  0
    2.7818    0.1135   -1.3188 N   0  0  0  0  0  0  0  0  0  0  0  0
    1.5984    0.0424   -0.5774 C   0  0  0  0  0  0  0  0  0  0  0  0
    1.6187   -0.1383    0.8275 C   0  0  0  0  0  0  0  0  0  0  0  0
    0.4772   -0.2080    1.5519 C   0  0  0  0  0  0  0  0  0  0  0  0
   -0.7911   -0.1010    0.9183 C   0  0  0  0  0  0  0  0  0  0  0  0
   -1.9822   -0.1685    1.6330 C   0  0  0  0  0  0  0  0  0  0  0  0
   -3.2190   -0.0613    0.9933 C   0  0  0  0  0  0  0  0  0  0  0  0
   -4.4417   -0.1281    1.7074 C   0  0  0  0  0  0  0  0  0  0  0  0
   -5.6314   -0.0205    1.0575 C   0  0  0  0  0  0  0  0  0  0  0  0
   -5.6747    0.1590   -0.3346 C   0  0  0  0  0  0  0  0  0  0  0  0
   -4.5256    0.2283   -1.0565 C   0  0  0  0  0  0  0  0  0  0  0  0
   -3.2610    0.1211   -0.4216 C   0  0  0  0  0  0  0  0  0  0  0  0
   -2.0678    0.1888   -1.1381 C   0  0  0  0  0  0  0  0  0  0  0  0
   -0.8320    0.0817   -0.4990 C   0  0  0  0  0  0  0  0  0  0  0  0
    0.3831    0.1488   -1.2141 C   0  0  0  0  0  0  0  0  0  0  0  0
    5.0412    0.1316   -1.8181 N   0  0  0  0  0  0  0  0  0  0  0  0
    2.6929    0.2443   -2.3241 H   0  0  0  0  0  0  0  0  0  0  0  0
    2.5724   -0.2199    1.3123 H   0  0  0  0  0  0  0  0  0  0  0  0
    0.5166   -0.3457    2.6184 H   0  0  0  0  0  0  0  0  0  0  0  0
   -1.9508   -0.3057    2.6979 H   0  0  0  0  0  0  0  0  0  0  0  0
   -4.4145   -0.2654    2.7738 H   0  0  0  0  0  0  0  0  0  0  0  0
   -6.5538   -0.0731    1.6133 H   0  0  0  0  0  0  0  0  0  0  0  0
   -6.6273    0.2419   -0.8299 H   0  0  0  0  0  0  0  0  0  0  0  0
   -4.5609    0.3659   -2.1241 H   0  0  0  0  0  0  0  0  0  0  0  0
   -2.0993    0.3262   -2.2037 H   0  0  0  0  0  0  0  0  0  0  0  0
    0.3578    0.2859   -2.2791 H   0  0  0  0  0  0  0  0  0  0  0  0
  1  2  1  0  0  0  0
  2  3  2  0  0  0  0
  3  4  1  0  0  0  0
  4  5  1  0  0  0  0
  4  6  2  0  0  0  0
  6  7  1  0  0  0  0
  7  8  1  0  0  0  0
  8  9  1  0  0  0  0
  9 10  2  0  0  0  0
 10 11  1  0  0  0  0
 11 12  2  0  0  0  0
 12 13  1  0  0  0  0
 13 14  2  0  0  0  0
 14 15  1  0  0  0  0
 15 16  2  0  0  0  0
 16 17  1  0  0  0  0
 17 18  2  0  0  0  0
 18 19  1  0  0  0  0
 19 20  2  0  0  0  0
 20 21  1  0  0  0  0
 21 22  2  0  0  0  0
  7 23  2  0  0  0  0
 23  2  1  0  0  0  0
 22  9  1  0  0  0  0
 21 12  1  0  0  0  0
 19 14  1  0  0  0  0
  8 24  1  0  0  0  0
 10 25  1  0  0  0  0
 11 26  1  0  0  0  0
 13 27  1  0  0  0  0
 15 28  1  0  0  0  0
 16 29  1  0  0  0  0
 17 30  1  0  0  0  0
 18 31  1  0  0  0  0
 20 32  1  0  0  0  0
 22 33  1  0  0  0  0
M  END
