
  xtb     03012221333D
 energy: -11.769830719766 gnorm: 0.000174994743 xtb: 6.4.1 (afa7bdf)
 65 67  0     0  0            999 V2000
   -8.1587    2.4417    1.4452 C   0  0  0  0  0  0  0  0  0  0  0  0
   -8.1382    0.9293    1.4248 C   0  0  0  0  0  0  0  0  0  0  0  0
   -7.4379    0.4026    0.2385 N   0  0  0  0  0  0  0  0  0  0  0  0
   -8.3086   -0.0056   -0.8798 C   0  0  0  0  0  0  0  0  0  0  0  0
   -8.5709   -1.4958   -0.8790 C   0  0  0  0  0  0  0  0  0  0  0  0
   -6.0347    0.2729    0.1862 C   0  0  0  0  0  0  0  0  0  0  0  0
   -5.2255    0.6788    1.2544 C   0  0  0  0  0  0  0  0  0  0  0  0
   -3.8610    0.5358    1.2015 C   0  0  0  0  0  0  0  0  0  0  0  0
   -3.2300   -0.0124    0.0915 C   0  0  0  0  0  0  0  0  0  0  0  0
   -1.7768   -0.1476    0.1138 C   0  0  0  0  0  0  0  0  0  0  0  0
   -1.0507   -0.6295   -0.8782 N   0  0  0  0  0  0  0  0  0  0  0  0
    0.2284   -0.5889   -0.4463 C   0  0  0  0  0  0  0  0  0  0  0  0
    1.4104   -0.9893   -1.0818 C   0  0  0  0  0  0  0  0  0  0  0  0
    2.6049   -0.8721   -0.4157 C   0  0  0  0  0  0  0  0  0  0  0  0
    3.8998   -1.3083   -1.0484 C   0  0  0  0  0  0  0  0  0  0  0  0
    4.8406   -0.2065   -1.1753 N   0  0  0  0  0  0  0  0  0  0  0  0
    5.6973    0.1694   -0.1557 C   0  0  0  0  0  0  0  0  0  0  0  0
    5.6043   -0.3384    0.9492 O   0  0  0  0  0  0  0  0  0  0  0  0
    6.6197    1.1231   -0.4958 O   0  0  0  0  0  0  0  0  0  0  0  0
    7.5404    1.4747    0.5705 C   0  0  0  0  0  0  0  0  0  0  0  0
    8.5083    2.5254    0.0053 C   0  0  0  0  0  0  0  0  0  0  0  0
    8.3303    0.2326    1.0058 C   0  0  0  0  0  0  0  0  0  0  0  0
    6.7651    2.0737    1.7514 C   0  0  0  0  0  0  0  0  0  0  0  0
    3.6919   -1.9222   -2.4165 C   0  0  0  0  0  0  0  0  0  0  0  0
    3.7372   -1.2010   -3.3881 O   0  0  0  0  0  0  0  0  0  0  0  0
    3.4273   -3.2561   -2.4424 O   0  0  0  0  0  0  0  0  0  0  0  0
    3.2455   -3.6638   -3.7594 C   0  0  0  0  0  0  0  0  0  0  0  0
    2.6322   -0.3366    0.8849 C   0  0  0  0  0  0  0  0  0  0  0  0
    1.4970    0.0668    1.5268 C   0  0  0  0  0  0  0  0  0  0  0  0
    0.2658   -0.0584    0.8685 C   0  0  0  0  0  0  0  0  0  0  0  0
   -1.0263    0.2242    1.2110 O   0  0  0  0  0  0  0  0  0  0  0  0
   -4.0273   -0.4256   -1.0063 C   0  0  0  0  0  0  0  0  0  0  0  0
   -3.4805   -0.9783   -2.1447 O   0  0  0  0  0  0  0  0  0  0  0  0
   -5.4064   -0.2715   -0.9302 C   0  0  0  0  0  0  0  0  0  0  0  0
   -7.1467    2.8506    1.4377 H   0  0  0  0  0  0  0  0  0  0  0  0
   -8.6658    2.8365    0.5624 H   0  0  0  0  0  0  0  0  0  0  0  0
   -8.6704    2.8356    2.3268 H   0  0  0  0  0  0  0  0  0  0  0  0
   -9.1565    0.5283    1.4318 H   0  0  0  0  0  0  0  0  0  0  0  0
   -7.6645    0.5205    2.3218 H   0  0  0  0  0  0  0  0  0  0  0  0
   -9.2471    0.5528   -0.8094 H   0  0  0  0  0  0  0  0  0  0  0  0
   -7.8510    0.3223   -1.8175 H   0  0  0  0  0  0  0  0  0  0  0  0
   -9.2091   -1.8029   -1.7112 H   0  0  0  0  0  0  0  0  0  0  0  0
   -9.0601   -1.8051    0.0469 H   0  0  0  0  0  0  0  0  0  0  0  0
   -7.6397   -2.0613   -0.9484 H   0  0  0  0  0  0  0  0  0  0  0  0
   -5.6757    1.1110    2.1289 H   0  0  0  0  0  0  0  0  0  0  0  0
   -3.2482    0.8472    2.0301 H   0  0  0  0  0  0  0  0  0  0  0  0
    1.3716   -1.3825   -2.0793 H   0  0  0  0  0  0  0  0  0  0  0  0
    4.3699   -2.0625   -0.4006 H   0  0  0  0  0  0  0  0  0  0  0  0
    4.9563    0.1435   -2.1291 H   0  0  0  0  0  0  0  0  0  0  0  0
    7.9581    3.4018   -0.3313 H   0  0  0  0  0  0  0  0  0  0  0  0
    9.2348    2.8377    0.7537 H   0  0  0  0  0  0  0  0  0  0  0  0
    9.0444    2.1209   -0.8510 H   0  0  0  0  0  0  0  0  0  0  0  0
    8.8582   -0.1962    0.1564 H   0  0  0  0  0  0  0  0  0  0  0  0
    7.6535   -0.5262    1.3946 H   0  0  0  0  0  0  0  0  0  0  0  0
    9.0561    0.4769    1.7795 H   0  0  0  0  0  0  0  0  0  0  0  0
    7.4384    2.3841    2.5486 H   0  0  0  0  0  0  0  0  0  0  0  0
    6.1895    2.9380    1.4261 H   0  0  0  0  0  0  0  0  0  0  0  0
    6.0688    1.3410    2.1545 H   0  0  0  0  0  0  0  0  0  0  0  0
    2.4098   -3.1086   -4.1928 H   0  0  0  0  0  0  0  0  0  0  0  0
    4.1566   -3.4519   -4.3247 H   0  0  0  0  0  0  0  0  0  0  0  0
    3.0331   -4.7351   -3.7779 H   0  0  0  0  0  0  0  0  0  0  0  0
    3.5912   -0.2407    1.3604 H   0  0  0  0  0  0  0  0  0  0  0  0
    1.5244    0.4756    2.5223 H   0  0  0  0  0  0  0  0  0  0  0  0
   -2.5102   -0.9982   -2.0061 H   0  0  0  0  0  0  0  0  0  0  0  0
   -5.9829   -0.5969   -1.7732 H   0  0  0  0  0  0  0  0  0  0  0  0
  1  2  1  0  0  0  0
  2  3  1  0  0  0  0
  3  4  1  0  0  0  0
  4  5  1  0  0  0  0
  3  6  1  0  0  0  0
  6  7  2  0  0  0  0
  7  8  1  0  0  0  0
  8  9  2  0  0  0  0
  9 10  1  0  0  0  0
 10 11  2  0  0  0  0
 11 12  1  0  0  0  0
 12 13  2  0  0  0  0
 13 14  1  0  0  0  0
 14 15  1  0  0  0  0
 15 16  1  0  0  0  0
 16 17  1  0  0  0  0
 17 18  2  0  0  0  0
 17 19  1  0  0  0  0
 19 20  1  0  0  0  0
 20 21  1  0  0  0  0
 20 22  1  0  0  0  0
 20 23  1  0  0  0  0
 15 24  1  0  0  0  0
 24 25  2  0  0  0  0
 24 26  1  0  0  0  0
 26 27  1  0  0  0  0
 14 28  2  0  0  0  0
 28 29  1  0  0  0  0
 29 30  2  0  0  0  0
 30 31  1  0  0  0  0
  9 32  1  0  0  0  0
 32 33  1  0  0  0  0
 32 34  2  0  0  0  0
 34  6  1  0  0  0  0
 31 10  1  0  0  0  0
 30 12  1  0  0  0  0
  1 35  1  0  0  0  0
  1 36  1  0  0  0  0
  1 37  1  0  0  0  0
  2 38  1  0  0  0  0
  2 39  1  0  0  0  0
  4 40  1  0  0  0  0
  4 41  1  0  0  0  0
  5 42  1  0  0  0  0
  5 43  1  0  0  0  0
  5 44  1  0  0  0  0
  7 45  1  0  0  0  0
  8 46  1  0  0  0  0
 13 47  1  0  0  0  0
 15 48  1  0  0  0  0
 16 49  1  0  0  0  0
 21 50  1  0  0  0  0
 21 51  1  0  0  0  0
 21 52  1  0  0  0  0
 22 53  1  0  0  0  0
 22 54  1  0  0  0  0
 22 55  1  0  0  0  0
 23 56  1  0  0  0  0
 23 57  1  0  0  0  0
 23 58  1  0  0  0  0
 27 59  1  0  0  0  0
 27 60  1  0  0  0  0
 27 61  1  0  0  0  0
 28 62  1  0  0  0  0
 29 63  1  0  0  0  0
 33 64  1  0  0  0  0
 34 65  1  0  0  0  0
M  END
