
  xtb     03012221283D
 energy: -3.473492285482 gnorm: 0.000406302754 xtb: 6.4.1 (afa7bdf)
 16 16  0     0  0            999 V2000
    3.0537    0.2371    3.7695 O   0  0  0  0  0  0  0  0  0  0  0  0
    3.1312    0.0347    2.5902 C   0  0  0  0  0  0  0  0  0  0  0  0
    2.0765    0.0179    1.6596 C   0  0  0  0  0  0  0  0  0  0  0  0
    1.1343    0.0113    0.8852 C   0  0  0  0  0  0  0  0  0  0  0  0
    0.0347    0.0001    0.0019 C   0  0  0  0  0  0  0  0  0  0  0  0
   -0.9870   -0.9293    0.1540 C   0  0  0  0  0  0  0  0  0  0  0  0
   -2.0618   -0.9405   -0.7083 C   0  0  0  0  0  0  0  0  0  0  0  0
   -2.1326   -0.0237   -1.7358 C   0  0  0  0  0  0  0  0  0  0  0  0
   -1.1272    0.9057   -1.8989 C   0  0  0  0  0  0  0  0  0  0  0  0
   -0.0521    0.9186   -1.0371 C   0  0  0  0  0  0  0  0  0  0  0  0
    4.1260   -0.1568    2.2084 H   0  0  0  0  0  0  0  0  0  0  0  0
   -0.9277   -1.6415    0.9592 H   0  0  0  0  0  0  0  0  0  0  0  0
   -2.8476   -1.6664   -0.5786 H   0  0  0  0  0  0  0  0  0  0  0  0
   -2.9733   -0.0334   -2.4099 H   0  0  0  0  0  0  0  0  0  0  0  0
   -1.1821    1.6234   -2.7008 H   0  0  0  0  0  0  0  0  0  0  0  0
    0.7350    1.6430   -1.1587 H   0  0  0  0  0  0  0  0  0  0  0  0
  1  2  2  0  0  0  0
  2  3  1  0  0  0  0
  3  4  3  0  0  0  0
  4  5  1  0  0  0  0
  5  6  2  0  0  0  0
  6  7  1  0  0  0  0
  7  8  2  0  0  0  0
  8  9  1  0  0  0  0
  9 10  2  0  0  0  0
 10  5  1  0  0  0  0
  2 11  1  0  0  0  0
  6 12  1  0  0  0  0
  7 13  1  0  0  0  0
  8 14  1  0  0  0  0
  9 15  1  0  0  0  0
 10 16  1  0  0  0  0
M  END
