
  xtb     03012221243D
 energy: -12.781064389231 gnorm: 0.000211193770 xtb: 6.4.1 (afa7bdf)
 61 66  0     0  0            999 V2000
   -0.1294    2.5199   -1.4541 C   0  0  0  0  0  0  0  0  0  0  0  0
   -0.6493    1.3160   -0.7509 C   0  0  0  0  0  0  0  0  0  0  0  0
   -1.9942    1.2109   -0.4589 C   0  0  0  0  0  0  0  0  0  0  0  0
   -2.5114    0.1028    0.2026 C   0  0  0  0  0  0  0  0  0  0  0  0
   -3.9168    0.0143    0.4857 N   0  0  0  0  0  0  0  0  0  0  0  0
   -4.9652    0.2626   -0.4247 C   0  0  0  0  0  0  0  0  0  0  0  0
   -4.9401    0.6110   -1.7746 C   0  0  0  0  0  0  0  0  0  0  0  0
   -6.1309    0.7833   -2.4356 C   0  0  0  0  0  0  0  0  0  0  0  0
   -7.3514    0.6112   -1.7775 C   0  0  0  0  0  0  0  0  0  0  0  0
   -7.3955    0.2589   -0.4505 C   0  0  0  0  0  0  0  0  0  0  0  0
   -6.1928    0.0791    0.2338 C   0  0  0  0  0  0  0  0  0  0  0  0
   -5.8968   -0.2941    1.5958 C   0  0  0  0  0  0  0  0  0  0  0  0
   -6.7143   -0.5872    2.6879 C   0  0  0  0  0  0  0  0  0  0  0  0
   -6.1229   -0.9005    3.8875 C   0  0  0  0  0  0  0  0  0  0  0  0
   -4.7320   -0.9226    4.0193 C   0  0  0  0  0  0  0  0  0  0  0  0
   -3.9155   -0.6374    2.9531 C   0  0  0  0  0  0  0  0  0  0  0  0
   -4.4980   -0.3268    1.7249 C   0  0  0  0  0  0  0  0  0  0  0  0
   -1.6472   -0.9161    0.5826 C   0  0  0  0  0  0  0  0  0  0  0  0
   -0.3062   -0.8225    0.3117 C   0  0  0  0  0  0  0  0  0  0  0  0
    0.2195    0.2861   -0.3503 C   0  0  0  0  0  0  0  0  0  0  0  0
    1.6761    0.3605   -0.6269 C   0  0  0  0  0  0  0  0  0  0  0  0
    2.4785    1.2224    0.1194 C   0  0  0  0  0  0  0  0  0  0  0  0
    3.8296    1.3159   -0.1246 C   0  0  0  0  0  0  0  0  0  0  0  0
    4.3973    0.5483   -1.1128 C   0  0  0  0  0  0  0  0  0  0  0  0
    6.1592    0.6546   -1.4361 S   0  0  0  0  0  6  0  0  0  0  0  0
    6.5641    2.1042   -1.2911 O   0  0  0  0  0  0  0  0  0  0  0  0
    6.4518   -0.2096   -2.6423 O   0  0  0  0  0  0  0  0  0  0  0  0
    6.7186   -0.2239    0.0252 C   0  0  0  0  0  0  0  0  0  0  0  0
    6.6191   -1.5945    0.0828 C   0  0  0  0  0  0  0  0  0  0  0  0
    7.0442   -2.2667    1.2112 C   0  0  0  0  0  0  0  0  0  0  0  0
    7.5676   -1.5614    2.2759 C   0  0  0  0  0  0  0  0  0  0  0  0
    7.6692   -0.1865    2.2124 C   0  0  0  0  0  0  0  0  0  0  0  0
    7.2433    0.4820    1.0822 C   0  0  0  0  0  0  0  0  0  0  0  0
    3.6251   -0.3070   -1.8623 C   0  0  0  0  0  0  0  0  0  0  0  0
    2.2613   -0.4130   -1.6439 C   0  0  0  0  0  0  0  0  0  0  0  0
    1.4441   -1.3490   -2.4615 C   0  0  0  0  0  0  0  0  0  0  0  0
    0.2062    3.2711   -0.7387 H   0  0  0  0  0  0  0  0  0  0  0  0
    0.7140    2.2657   -2.0968 H   0  0  0  0  0  0  0  0  0  0  0  0
   -0.8976    2.9720   -2.0822 H   0  0  0  0  0  0  0  0  0  0  0  0
   -2.6608    2.0077   -0.7336 H   0  0  0  0  0  0  0  0  0  0  0  0
   -3.9981    0.7285   -2.2792 H   0  0  0  0  0  0  0  0  0  0  0  0
   -6.1257    1.0535   -3.4785 H   0  0  0  0  0  0  0  0  0  0  0  0
   -8.2711    0.7539   -2.3208 H   0  0  0  0  0  0  0  0  0  0  0  0
   -8.3305    0.1197    0.0622 H   0  0  0  0  0  0  0  0  0  0  0  0
   -7.7839   -0.5623    2.5794 H   0  0  0  0  0  0  0  0  0  0  0  0
   -6.7398   -1.1293    4.7410 H   0  0  0  0  0  0  0  0  0  0  0  0
   -4.2948   -1.1652    4.9735 H   0  0  0  0  0  0  0  0  0  0  0  0
   -2.8450   -0.6393    3.0519 H   0  0  0  0  0  0  0  0  0  0  0  0
   -2.0479   -1.7827    1.0779 H   0  0  0  0  0  0  0  0  0  0  0  0
    0.3642   -1.6112    0.6115 H   0  0  0  0  0  0  0  0  0  0  0  0
    2.0243    1.8170    0.8932 H   0  0  0  0  0  0  0  0  0  0  0  0
    4.4494    1.9891    0.4437 H   0  0  0  0  0  0  0  0  0  0  0  0
    6.2177   -2.1299   -0.7617 H   0  0  0  0  0  0  0  0  0  0  0  0
    6.9703   -3.3408    1.2583 H   0  0  0  0  0  0  0  0  0  0  0  0
    7.9016   -2.0853    3.1563 H   0  0  0  0  0  0  0  0  0  0  0  0
    8.0830    0.3646    3.0410 H   0  0  0  0  0  0  0  0  0  0  0  0
    7.3225    1.5542    1.0083 H   0  0  0  0  0  0  0  0  0  0  0  0
    4.0952   -0.8916   -2.6341 H   0  0  0  0  0  0  0  0  0  0  0  0
    1.3513   -2.3156   -1.9659 H   0  0  0  0  0  0  0  0  0  0  0  0
    1.8961   -1.5141   -3.4398 H   0  0  0  0  0  0  0  0  0  0  0  0
    0.4405   -0.9549   -2.6240 H   0  0  0  0  0  0  0  0  0  0  0  0
  1  2  1  0  0  0  0
  2  3  2  0  0  0  0
  3  4  1  0  0  0  0
  4  5  1  0  0  0  0
  5  6  1  0  0  0  0
  6  7  2  0  0  0  0
  7  8  1  0  0  0  0
  8  9  2  0  0  0  0
  9 10  1  0  0  0  0
 10 11  2  0  0  0  0
 11 12  1  0  0  0  0
 12 13  2  0  0  0  0
 13 14  1  0  0  0  0
 14 15  2  0  0  0  0
 15 16  1  0  0  0  0
 16 17  2  0  0  0  0
  4 18  2  0  0  0  0
 18 19  1  0  0  0  0
 19 20  2  0  0  0  0
 20 21  1  0  0  0  0
 21 22  2  0  0  0  0
 22 23  1  0  0  0  0
 23 24  2  0  0  0  0
 24 25  1  0  0  0  0
 25 26  2  0  0  0  0
 25 27  2  0  0  0  0
 25 28  1  0  0  0  0
 28 29  2  0  0  0  0
 29 30  1  0  0  0  0
 30 31  2  0  0  0  0
 31 32  1  0  0  0  0
 32 33  2  0  0  0  0
 24 34  1  0  0  0  0
 34 35  2  0  0  0  0
 35 36  1  0  0  0  0
 20  2  1  0  0  0  0
 35 21  1  0  0  0  0
 17  5  1  0  0  0  0
 33 28  1  0  0  0  0
 11  6  1  0  0  0  0
 17 12  1  0  0  0  0
  1 37  1  0  0  0  0
  1 38  1  0  0  0  0
  1 39  1  0  0  0  0
  3 40  1  0  0  0  0
  7 41  1  0  0  0  0
  8 42  1  0  0  0  0
  9 43  1  0  0  0  0
 10 44  1  0  0  0  0
 13 45  1  0  0  0  0
 14 46  1  0  0  0  0
 15 47  1  0  0  0  0
 16 48  1  0  0  0  0
 18 49  1  0  0  0  0
 19 50  1  0  0  0  0
 22 51  1  0  0  0  0
 23 52  1  0  0  0  0
 29 53  1  0  0  0  0
 30 54  1  0  0  0  0
 31 55  1  0  0  0  0
 32 56  1  0  0  0  0
 33 57  1  0  0  0  0
 34 58  1  0  0  0  0
 36 59  1  0  0  0  0
 36 60  1  0  0  0  0
 36 61  1  0  0  0  0
M  END
