
  xtb     03012221333D
 energy: -8.216473509864 gnorm: 0.000361334803 xtb: 6.4.1 (afa7bdf)
 42 44  0     0  0            999 V2000
    3.3072    4.5061   -0.6258 C   0  0  0  0  0  0  0  0  0  0  0  0
    2.0609    3.9158   -0.8067 O   0  0  0  0  0  0  0  0  0  0  0  0
    1.9486    2.8143   -0.0025 C   0  0  0  0  0  0  0  0  0  0  0  0
    2.8369    2.4322    0.7409 O   0  0  0  0  0  0  0  0  0  0  0  0
    0.6804    2.0762   -0.0686 C   0  0  0  0  0  0  0  0  0  0  0  0
   -0.3176    2.3603   -0.8863 N   0  0  0  0  0  0  0  0  0  0  0  0
   -1.2716    1.4175   -0.6656 C   0  0  0  0  0  0  0  0  0  0  0  0
   -2.5268    1.1957   -1.2749 C   0  0  0  0  0  0  0  0  0  0  0  0
   -2.9684    2.0576   -2.2511 N   0  0  0  0  0  0  0  0  0  0  0  0
   -3.2480    0.1539   -0.8886 N   0  0  0  0  0  0  0  0  0  0  0  0
   -2.7395   -0.6548    0.0712 C   0  0  0  0  0  0  0  0  0  0  0  0
   -3.5417   -1.7550    0.4374 N   0  0  0  0  0  0  0  0  0  0  0  0
   -4.7747   -2.0420   -0.2666 C   0  0  0  0  0  0  0  0  0  0  0  0
   -3.0492   -2.7353    1.3816 C   0  0  0  0  0  0  0  0  0  0  0  0
   -1.5783   -0.5418    0.7036 N   0  0  0  0  0  0  0  0  0  0  0  0
   -0.8618    0.5153    0.3179 C   0  0  0  0  0  0  0  0  0  0  0  0
    0.3813    0.9554    0.7154 N   0  0  0  0  0  0  0  0  0  0  0  0
    1.2737    0.2392    1.6208 C   0  0  0  0  0  0  0  0  0  0  0  0
    2.0407   -0.8162    0.8977 C   0  0  0  0  0  0  0  0  0  0  0  0
    3.3096   -0.5505    0.4108 C   0  0  0  0  0  0  0  0  0  0  0  0
    4.0077   -1.5145   -0.2817 C   0  0  0  0  0  0  0  0  0  0  0  0
    3.4393   -2.7482   -0.5115 C   0  0  0  0  0  0  0  0  0  0  0  0
    2.1634   -3.0087   -0.0617 C   0  0  0  0  0  0  0  0  0  0  0  0
    1.4631   -2.0458    0.6306 C   0  0  0  0  0  0  0  0  0  0  0  0
    3.3780    5.3926   -1.2580 H   0  0  0  0  0  0  0  0  0  0  0  0
    3.4169    4.7833    0.4244 H   0  0  0  0  0  0  0  0  0  0  0  0
    4.0821    3.7872   -0.8982 H   0  0  0  0  0  0  0  0  0  0  0  0
   -3.8945    1.9924   -2.6475 H   0  0  0  0  0  0  0  0  0  0  0  0
   -2.4690    2.9008   -2.4975 H   0  0  0  0  0  0  0  0  0  0  0  0
   -4.6480   -2.9213   -0.8973 H   0  0  0  0  0  0  0  0  0  0  0  0
   -5.5816   -2.2231    0.4428 H   0  0  0  0  0  0  0  0  0  0  0  0
   -5.0476   -1.1958   -0.8966 H   0  0  0  0  0  0  0  0  0  0  0  0
   -3.8763   -3.2708    1.8467 H   0  0  0  0  0  0  0  0  0  0  0  0
   -2.4037   -3.4491    0.8707 H   0  0  0  0  0  0  0  0  0  0  0  0
   -2.4729   -2.2355    2.1597 H   0  0  0  0  0  0  0  0  0  0  0  0
    0.6757   -0.1998    2.4235 H   0  0  0  0  0  0  0  0  0  0  0  0
    1.9514    0.9650    2.0792 H   0  0  0  0  0  0  0  0  0  0  0  0
    3.7185    0.4353    0.5475 H   0  0  0  0  0  0  0  0  0  0  0  0
    4.9969   -1.2977   -0.6548 H   0  0  0  0  0  0  0  0  0  0  0  0
    3.9848   -3.5016   -1.0560 H   0  0  0  0  0  0  0  0  0  0  0  0
    1.7061   -3.9655   -0.2623 H   0  0  0  0  0  0  0  0  0  0  0  0
    0.4478   -2.2229    0.9374 H   0  0  0  0  0  0  0  0  0  0  0  0
  1  2  1  0  0  0  0
  2  3  1  0  0  0  0
  3  4  2  0  0  0  0
  3  5  1  0  0  0  0
  5  6  2  0  0  0  0
  6  7  1  0  0  0  0
  7  8  2  0  0  0  0
  8  9  1  0  0  0  0
  8 10  1  0  0  0  0
 10 11  2  0  0  0  0
 11 12  1  0  0  0  0
 12 13  1  0  0  0  0
 12 14  1  0  0  0  0
 11 15  1  0  0  0  0
 15 16  2  0  0  0  0
 16 17  1  0  0  0  0
 17 18  1  0  0  0  0
 18 19  1  0  0  0  0
 19 20  2  0  0  0  0
 20 21  1  0  0  0  0
 21 22  2  0  0  0  0
 22 23  1  0  0  0  0
 23 24  2  0  0  0  0
 17  5  1  0  0  0  0
 24 19  1  0  0  0  0
 16  7  1  0  0  0  0
  1 25  1  0  0  0  0
  1 26  1  0  0  0  0
  1 27  1  0  0  0  0
  9 28  1  0  0  0  0
  9 29  1  0  0  0  0
 13 30  1  0  0  0  0
 13 31  1  0  0  0  0
 13 32  1  0  0  0  0
 14 33  1  0  0  0  0
 14 34  1  0  0  0  0
 14 35  1  0  0  0  0
 18 36  1  0  0  0  0
 18 37  1  0  0  0  0
 20 38  1  0  0  0  0
 21 39  1  0  0  0  0
 22 40  1  0  0  0  0
 23 41  1  0  0  0  0
 24 42  1  0  0  0  0
M  END
