
  xtb     03012221253D
 energy: -7.607221441049 gnorm: 0.000319188409 xtb: 6.4.1 (afa7bdf)
 41 42  0     0  0            999 V2000
   -2.2054   -5.2119    0.9609 C   0  0  0  0  0  0  0  0  0  0  0  0
   -1.5591   -4.8400   -0.3568 C   0  0  0  0  0  0  0  0  0  0  0  0
   -0.7981   -3.6586   -0.2695 O   0  0  0  0  0  0  0  0  0  0  0  0
   -1.6216   -2.5684   -0.1534 C   0  0  0  0  0  0  0  0  0  0  0  0
   -2.8389   -2.6369   -0.1227 O   0  0  0  0  0  0  0  0  0  0  0  0
   -0.9622   -1.2628   -0.0608 C   0  0  0  0  0  0  0  0  0  0  0  0
    0.3781   -1.1898   -0.1062 C   0  0  0  0  0  0  0  0  0  0  0  0
    1.0704    0.0199   -0.0222 N   0  0  0  0  0  0  0  0  0  0  0  0
    2.5061    0.0447   -0.0726 C   0  0  0  0  0  0  0  0  0  0  0  0
    3.2297    0.9223    0.7286 C   0  0  0  0  0  0  0  0  0  0  0  0
    4.6045    0.9447    0.6797 C   0  0  0  0  0  0  0  0  0  0  0  0
    5.2805    0.0937   -0.1695 C   0  0  0  0  0  0  0  0  0  0  0  0
    4.5774   -0.7816   -0.9705 C   0  0  0  0  0  0  0  0  0  0  0  0
    3.2025   -0.8077   -0.9235 C   0  0  0  0  0  0  0  0  0  0  0  0
    0.3440    1.2056    0.1041 C   0  0  0  0  0  0  0  0  0  0  0  0
   -0.9978    1.2318    0.1574 C   0  0  0  0  0  0  0  0  0  0  0  0
   -1.6951    2.5156    0.2732 C   0  0  0  0  0  0  0  0  0  0  0  0
   -2.9134    2.5425    0.3213 O   0  0  0  0  0  0  0  0  0  0  0  0
   -0.9048    3.6354    0.3162 O   0  0  0  0  0  0  0  0  0  0  0  0
   -1.6994    4.7921    0.4308 C   0  0  0  0  0  0  0  0  0  0  0  0
   -2.4445    5.1125   -0.8478 C   0  0  0  0  0  0  0  0  0  0  0  0
   -1.7967   -0.0309    0.0917 C   0  0  0  0  0  0  0  0  0  0  0  0
   -2.7846   -6.1355    0.8918 H   0  0  0  0  0  0  0  0  0  0  0  0
   -1.4506   -5.3394    1.7386 H   0  0  0  0  0  0  0  0  0  0  0  0
   -2.8773   -4.4154    1.2876 H   0  0  0  0  0  0  0  0  0  0  0  0
   -2.3110   -4.6813   -1.1421 H   0  0  0  0  0  0  0  0  0  0  0  0
   -0.8847   -5.6307   -0.7098 H   0  0  0  0  0  0  0  0  0  0  0  0
    0.9444   -2.0978   -0.1942 H   0  0  0  0  0  0  0  0  0  0  0  0
    2.7010    1.5719    1.4030 H   0  0  0  0  0  0  0  0  0  0  0  0
    5.1540    1.6262    1.3076 H   0  0  0  0  0  0  0  0  0  0  0  0
    6.3585    0.1129   -0.2074 H   0  0  0  0  0  0  0  0  0  0  0  0
    5.1053   -1.4443   -1.6360 H   0  0  0  0  0  0  0  0  0  0  0  0
    2.6515   -1.4756   -1.5611 H   0  0  0  0  0  0  0  0  0  0  0  0
    0.8828    2.1338    0.1368 H   0  0  0  0  0  0  0  0  0  0  0  0
   -2.3914    4.6254    1.2677 H   0  0  0  0  0  0  0  0  0  0  0  0
   -1.0313    5.6128    0.7219 H   0  0  0  0  0  0  0  0  0  0  0  0
   -3.0500    6.0172   -0.7581 H   0  0  0  0  0  0  0  0  0  0  0  0
   -1.7481    5.2480   -1.6769 H   0  0  0  0  0  0  0  0  0  0  0  0
   -3.1079    4.2865   -1.1126 H   0  0  0  0  0  0  0  0  0  0  0  0
   -2.5068    0.0312   -0.7405 H   0  0  0  0  0  0  0  0  0  0  0  0
   -2.4098   -0.1184    0.9957 H   0  0  0  0  0  0  0  0  0  0  0  0
  1  2  1  0  0  0  0
  2  3  1  0  0  0  0
  3  4  1  0  0  0  0
  4  5  2  0  0  0  0
  4  6  1  0  0  0  0
  6  7  2  0  0  0  0
  7  8  1  0  0  0  0
  8  9  1  0  0  0  0
  9 10  2  0  0  0  0
 10 11  1  0  0  0  0
 11 12  2  0  0  0  0
 12 13  1  0  0  0  0
 13 14  2  0  0  0  0
  8 15  1  0  0  0  0
 15 16  2  0  0  0  0
 16 17  1  0  0  0  0
 17 18  2  0  0  0  0
 17 19  1  0  0  0  0
 19 20  1  0  0  0  0
 20 21  1  0  0  0  0
 16 22  1  0  0  0  0
 22  6  1  0  0  0  0
 14  9  1  0  0  0  0
  1 23  1  0  0  0  0
  1 24  1  0  0  0  0
  1 25  1  0  0  0  0
  2 26  1  0  0  0  0
  2 27  1  0  0  0  0
  7 28  1  0  0  0  0
 10 29  1  0  0  0  0
 11 30  1  0  0  0  0
 12 31  1  0  0  0  0
 13 32  1  0  0  0  0
 14 33  1  0  0  0  0
 15 34  1  0  0  0  0
 20 35  1  0  0  0  0
 20 36  1  0  0  0  0
 21 37  1  0  0  0  0
 21 38  1  0  0  0  0
 21 39  1  0  0  0  0
 22 40  1  0  0  0  0
 22 41  1  0  0  0  0
M  END
