
  xtb     03012221293D
 energy: -6.708791720711 gnorm: 0.000369758125 xtb: 6.4.1 (afa7bdf)
 34 37  0     0  0            999 V2000
    5.2178   -0.1307    0.4040 C   0  0  0  0  0  0  0  0  0  0  0  0
    3.7338   -0.1136    0.2808 C   0  0  0  0  0  0  0  0  0  0  0  0
    2.9307   -0.6222    1.2921 C   0  0  0  0  0  0  0  0  0  0  0  0
    1.5597   -0.5859    1.1912 C   0  0  0  0  0  0  0  0  0  0  0  0
    0.9373   -0.0293    0.0724 C   0  0  0  0  0  0  0  0  0  0  0  0
   -0.5301    0.0125   -0.0382 C   0  0  0  0  0  0  0  0  0  0  0  0
   -1.2154    1.1708   -0.4517 C   0  0  0  0  0  0  0  0  0  0  0  0
   -0.7288    2.4789   -0.7810 C   0  0  0  0  0  0  0  0  0  0  0  0
   -1.8000    3.2692   -1.0935 C   0  0  0  0  0  0  0  0  0  0  0  0
   -2.9777    2.4900   -0.9640 C   0  0  0  0  0  0  0  0  0  0  0  0
   -4.5830    3.0078   -1.2343 Cl  0  0  0  0  0  0  0  0  0  0  0  0
   -2.5829    1.2514   -0.5761 N   0  0  0  0  0  4  0  0  0  0  0  0
   -3.5331    0.0924   -0.2806 B   0  0  0  0  0  4  0  0  0  0  0  0
   -4.2154   -0.2409   -1.4445 F   0  0  0  0  0  0  0  0  0  0  0  0
   -4.3935    0.4625    0.7459 F   0  0  0  0  0  0  0  0  0  0  0  0
   -2.7059   -1.1095    0.1718 N   0  0  0  0  0  0  0  0  0  0  0  0
   -3.2232   -2.3228    0.4891 C   0  0  0  0  0  0  0  0  0  0  0  0
   -4.8762   -2.7537    0.4939 Cl  0  0  0  0  0  0  0  0  0  0  0  0
   -2.1243   -3.1643    0.7981 C   0  0  0  0  0  0  0  0  0  0  0  0
   -0.9760   -2.4352    0.6581 C   0  0  0  0  0  0  0  0  0  0  0  0
   -1.3333   -1.1042    0.2617 C   0  0  0  0  0  0  0  0  0  0  0  0
    1.7506    0.4896   -0.9365 C   0  0  0  0  0  0  0  0  0  0  0  0
    3.1211    0.4489   -0.8303 C   0  0  0  0  0  0  0  0  0  0  0  0
    5.5521   -0.9670    1.0184 H   0  0  0  0  0  0  0  0  0  0  0  0
    5.6917   -0.2281   -0.5729 H   0  0  0  0  0  0  0  0  0  0  0  0
    5.5781    0.7899    0.8633 H   0  0  0  0  0  0  0  0  0  0  0  0
    3.3949   -1.0453    2.1663 H   0  0  0  0  0  0  0  0  0  0  0  0
    0.9492   -0.9650    1.9920 H   0  0  0  0  0  0  0  0  0  0  0  0
    0.3013    2.7896   -0.7598 H   0  0  0  0  0  0  0  0  0  0  0  0
   -1.7722    4.3080   -1.3778 H   0  0  0  0  0  0  0  0  0  0  0  0
   -2.1972   -4.2015    1.0799 H   0  0  0  0  0  0  0  0  0  0  0  0
    0.0266   -2.8014    0.7948 H   0  0  0  0  0  0  0  0  0  0  0  0
    1.2892    0.9041   -1.8158 H   0  0  0  0  0  0  0  0  0  0  0  0
    3.7342    0.8551   -1.6163 H   0  0  0  0  0  0  0  0  0  0  0  0
  1  2  1  0  0  0  0
  2  3  2  0  0  0  0
  3  4  1  0  0  0  0
  4  5  2  0  0  0  0
  5  6  1  0  0  0  0
  6  7  2  0  0  0  0
  7  8  1  0  0  0  0
  8  9  2  0  0  0  0
  9 10  1  0  0  0  0
 10 11  1  0  0  0  0
 10 12  2  0  0  0  0
 12 13  1  0  0  0  0
 13 14  1  0  0  0  0
 13 15  1  0  0  0  0
 13 16  1  0  0  0  0
 16 17  1  0  0  0  0
 17 18  1  0  0  0  0
 17 19  2  0  0  0  0
 19 20  1  0  0  0  0
 20 21  2  0  0  0  0
  5 22  1  0  0  0  0
 22 23  2  0  0  0  0
 23  2  1  0  0  0  0
 21  6  1  0  0  0  0
 12  7  1  0  0  0  0
 21 16  1  0  0  0  0
  1 24  1  0  0  0  0
  1 25  1  0  0  0  0
  1 26  1  0  0  0  0
  3 27  1  0  0  0  0
  4 28  1  0  0  0  0
  8 29  1  0  0  0  0
  9 30  1  0  0  0  0
 19 31  1  0  0  0  0
 20 32  1  0  0  0  0
 22 33  1  0  0  0  0
 23 34  1  0  0  0  0
M  CHG  1  12   1
M  CHG  1  13  -1
M  END
