
  xtb     03012221293D
 energy: -6.603671700326 gnorm: 0.000281277056 xtb: 6.4.1 (afa7bdf)
 35 37  0     0  0            999 V2000
    4.6821   -0.8427   -0.3912 C   0  0  0  0  0  0  0  0  0  0  0  0
    3.8814    0.3188   -0.0266 N   0  0  0  0  0  0  0  0  0  0  0  0
    4.6068    1.5204    0.3644 C   0  0  0  0  0  0  0  0  0  0  0  0
    2.4751    0.2794   -0.0410 C   0  0  0  0  0  0  0  0  0  0  0  0
    1.7125    1.3657    0.4462 C   0  0  0  0  0  0  0  0  0  0  0  0
    0.3545    1.3321    0.4387 C   0  0  0  0  0  0  0  0  0  0  0  0
   -0.3628    0.2192   -0.0545 C   0  0  0  0  0  0  0  0  0  0  0  0
   -1.7919    0.1617   -0.0755 C   0  0  0  0  0  0  0  0  0  0  0  0
   -2.4177   -0.9743   -0.5797 C   0  0  0  0  0  0  0  0  0  0  0  0
   -1.6471   -2.0412   -1.0641 C   0  0  0  0  0  0  0  0  0  0  0  0
   -0.2872   -2.0029   -1.0520 C   0  0  0  0  0  0  0  0  0  0  0  0
    0.3908   -0.8753   -0.5473 C   0  0  0  0  0  0  0  0  0  0  0  0
    1.7964   -0.8197   -0.5280 C   0  0  0  0  0  0  0  0  0  0  0  0
   -3.9178   -1.1027   -0.6321 C   0  0  0  0  0  0  0  0  0  0  0  0
   -4.6432   -0.1821    0.3593 C   0  0  0  0  0  0  0  0  0  0  0  0
   -4.0955    1.2462    0.2758 C   0  0  0  0  0  0  0  0  0  0  0  0
   -2.5996    1.2892    0.4377 C   0  0  0  0  0  0  0  0  0  0  0  0
   -2.1105    2.2494    0.9878 O   0  0  0  0  0  0  0  0  0  0  0  0
    4.3453   -1.7185    0.1623 H   0  0  0  0  0  0  0  0  0  0  0  0
    5.7339   -0.6839   -0.1580 H   0  0  0  0  0  0  0  0  0  0  0  0
    4.5917   -1.0389   -1.4588 H   0  0  0  0  0  0  0  0  0  0  0  0
    5.6723    1.4195    0.1631 H   0  0  0  0  0  0  0  0  0  0  0  0
    4.4737    1.7072    1.4292 H   0  0  0  0  0  0  0  0  0  0  0  0
    4.2397    2.3786   -0.1972 H   0  0  0  0  0  0  0  0  0  0  0  0
    2.2210    2.2278    0.8390 H   0  0  0  0  0  0  0  0  0  0  0  0
   -0.2009    2.1679    0.8219 H   0  0  0  0  0  0  0  0  0  0  0  0
   -2.1538   -2.9071   -1.4550 H   0  0  0  0  0  0  0  0  0  0  0  0
    0.2853   -2.8329   -1.4284 H   0  0  0  0  0  0  0  0  0  0  0  0
    2.3477   -1.6564   -0.9136 H   0  0  0  0  0  0  0  0  0  0  0  0
   -4.2512   -0.8819   -1.6528 H   0  0  0  0  0  0  0  0  0  0  0  0
   -4.1944   -2.1490   -0.4517 H   0  0  0  0  0  0  0  0  0  0  0  0
   -5.7276   -0.1929    0.1799 H   0  0  0  0  0  0  0  0  0  0  0  0
   -4.5080   -0.5642    1.3790 H   0  0  0  0  0  0  0  0  0  0  0  0
   -4.3558    1.6971   -0.6872 H   0  0  0  0  0  0  0  0  0  0  0  0
   -4.5448    1.8860    1.0441 H   0  0  0  0  0  0  0  0  0  0  0  0
  1  2  1  0  0  0  0
  2  3  1  0  0  0  0
  2  4  1  0  0  0  0
  4  5  2  0  0  0  0
  5  6  1  0  0  0  0
  6  7  2  0  0  0  0
  7  8  1  0  0  0  0
  8  9  2  0  0  0  0
  9 10  1  0  0  0  0
 10 11  2  0  0  0  0
 11 12  1  0  0  0  0
 12 13  2  0  0  0  0
  9 14  1  0  0  0  0
 14 15  1  0  0  0  0
 15 16  1  0  0  0  0
 16 17  1  0  0  0  0
 17 18  2  0  0  0  0
 13  4  1  0  0  0  0
 12  7  1  0  0  0  0
 17  8  1  0  0  0  0
  1 19  1  0  0  0  0
  1 20  1  0  0  0  0
  1 21  1  0  0  0  0
  3 22  1  0  0  0  0
  3 23  1  0  0  0  0
  3 24  1  0  0  0  0
  5 25  1  0  0  0  0
  6 26  1  0  0  0  0
 10 27  1  0  0  0  0
 11 28  1  0  0  0  0
 13 29  1  0  0  0  0
 14 30  1  0  0  0  0
 14 31  1  0  0  0  0
 15 32  1  0  0  0  0
 15 33  1  0  0  0  0
 16 34  1  0  0  0  0
 16 35  1  0  0  0  0
M  END
