
  xtb     03012221203D
 energy: -5.849710258157 gnorm: 0.000506819053 xtb: 6.4.1 (afa7bdf)
 28 30  0     0  0            999 V2000
   -4.5218   -0.7167   -0.2114 C   0  0  0  0  0  0  0  0  0  0  0  0
   -3.1527   -0.2840   -0.1016 N   0  0  0  0  0  0  0  0  0  0  0  0
   -2.8754    1.0863   -0.0836 C   0  0  0  0  0  0  0  0  0  0  0  0
   -3.8171    1.8640   -0.1466 O   0  0  0  0  0  0  0  0  0  0  0  0
   -1.5900    1.5390    0.0032 N   0  0  0  0  0  0  0  0  0  0  0  0
   -0.6134    0.6532    0.0680 C   0  0  0  0  0  0  0  0  0  0  0  0
    0.6870    1.1250    0.1563 N   0  0  0  0  0  0  0  0  0  0  0  0
    0.9038    2.5657    0.1746 C   0  0  0  0  0  0  0  0  0  0  0  0
    1.7429    0.2231    0.2247 C   0  0  0  0  0  0  0  0  0  0  0  0
    3.0769    0.6327    0.3127 C   0  0  0  0  0  0  0  0  0  0  0  0
    4.0885   -0.2878    0.3784 C   0  0  0  0  0  0  0  0  0  0  0  0
    3.8011   -1.6453    0.3582 C   0  0  0  0  0  0  0  0  0  0  0  0
    2.5028   -2.0702    0.2723 C   0  0  0  0  0  0  0  0  0  0  0  0
    1.4462   -1.1551    0.2035 C   0  0  0  0  0  0  0  0  0  0  0  0
    0.1691   -1.6355    0.1181 N   0  0  0  0  0  0  0  0  0  0  0  0
   -0.8049   -0.7591    0.0537 C   0  0  0  0  0  0  0  0  0  0  0  0
   -2.1623   -1.2529   -0.0374 C   0  0  0  0  0  0  0  0  0  0  0  0
   -2.4319   -2.4418   -0.0561 O   0  0  0  0  0  0  0  0  0  0  0  0
   -4.6982   -1.5318    0.4886 H   0  0  0  0  0  0  0  0  0  0  0  0
   -4.7076   -1.0688   -1.2242 H   0  0  0  0  0  0  0  0  0  0  0  0
   -5.1864    0.1169    0.0132 H   0  0  0  0  0  0  0  0  0  0  0  0
    1.5031    2.8653   -0.6823 H   0  0  0  0  0  0  0  0  0  0  0  0
   -0.0539    3.0813    0.1250 H   0  0  0  0  0  0  0  0  0  0  0  0
    1.4062    2.8579    1.0941 H   0  0  0  0  0  0  0  0  0  0  0  0
    3.3064    1.6825    0.3281 H   0  0  0  0  0  0  0  0  0  0  0  0
    5.1128    0.0413    0.4459 H   0  0  0  0  0  0  0  0  0  0  0  0
    4.6015   -2.3648    0.4102 H   0  0  0  0  0  0  0  0  0  0  0  0
    2.2669   -3.1203    0.2555 H   0  0  0  0  0  0  0  0  0  0  0  0
  1  2  1  0  0  0  0
  2  3  1  0  0  0  0
  3  4  2  0  0  0  0
  3  5  1  0  0  0  0
  5  6  2  0  0  0  0
  6  7  1  0  0  0  0
  7  8  1  0  0  0  0
  7  9  1  0  0  0  0
  9 10  2  0  0  0  0
 10 11  1  0  0  0  0
 11 12  2  0  0  0  0
 12 13  1  0  0  0  0
 13 14  2  0  0  0  0
 14 15  1  0  0  0  0
 15 16  2  0  0  0  0
 16 17  1  0  0  0  0
 17 18  2  0  0  0  0
 17  2  1  0  0  0  0
 16  6  1  0  0  0  0
 14  9  1  0  0  0  0
  1 19  1  0  0  0  0
  1 20  1  0  0  0  0
  1 21  1  0  0  0  0
  8 22  1  0  0  0  0
  8 23  1  0  0  0  0
  8 24  1  0  0  0  0
 10 25  1  0  0  0  0
 11 26  1  0  0  0  0
 12 27  1  0  0  0  0
 13 28  1  0  0  0  0
M  END
