
  xtb     03012221203D
 energy: -10.336091543292 gnorm: 0.000088477861 xtb: 6.4.1 (afa7bdf)
 49 53  0     0  0            999 V2000
   -3.8384   -0.0729    2.5888 O   0  0  0  0  0  0  0  0  0  0  0  0
   -3.9929   -1.1712    2.0363 N   0  0  0  0  0  4  0  0  0  0  0  0
   -4.4133   -2.1761    2.6257 O   0  0  0  0  0  1  0  0  0  0  0  0
   -3.6594   -1.2840    0.6171 C   0  0  0  0  0  0  0  0  0  0  0  0
   -4.6199   -1.7179   -0.2751 C   0  0  0  0  0  0  0  0  0  0  0  0
   -4.3376   -1.7871   -1.6191 C   0  0  0  0  0  0  0  0  0  0  0  0
   -3.0901   -1.4181   -2.0861 C   0  0  0  0  0  0  0  0  0  0  0  0
   -2.8030   -1.4757   -3.4092 F   0  0  0  0  0  0  0  0  0  0  0  0
   -2.1305   -0.9892   -1.1890 C   0  0  0  0  0  0  0  0  0  0  0  0
   -2.3961   -0.9220    0.1641 C   0  0  0  0  0  0  0  0  0  0  0  0
   -1.3201   -0.4786    1.1139 C   0  0  0  0  0  0  0  0  0  0  0  0
   -0.1507   -1.4643    1.2010 C   0  0  0  0  0  0  0  0  0  0  0  0
    1.0112   -0.7006    0.6202 C   0  0  0  0  0  0  0  0  0  0  0  0
    2.3263   -1.2551    0.4331 C   0  0  0  0  0  0  0  0  0  0  0  0
    2.5635   -2.5824    0.7610 C   0  0  0  0  0  0  0  0  0  0  0  0
    3.8099   -3.1688    0.5989 C   0  0  0  0  0  0  0  0  0  0  0  0
    4.8552   -2.4424    0.1069 C   0  0  0  0  0  0  0  0  0  0  0  0
    4.6904   -1.0865   -0.2436 C   0  0  0  0  0  0  0  0  0  0  0  0
    5.7654   -0.3207   -0.7473 C   0  0  0  0  0  0  0  0  0  0  0  0
    5.5959    0.9900   -1.0774 C   0  0  0  0  0  0  0  0  0  0  0  0
    4.3478    1.5938   -0.9205 C   0  0  0  0  0  0  0  0  0  0  0  0
    3.2920    0.8784   -0.4379 C   0  0  0  0  0  0  0  0  0  0  0  0
    3.4214   -0.4770   -0.0845 C   0  0  0  0  0  0  0  0  0  0  0  0
    0.6664    0.5209    0.3039 N   0  0  0  0  0  0  0  0  0  0  0  0
   -0.6232    0.7287    0.6103 N   0  0  0  0  0  0  0  0  0  0  0  0
   -1.2940    1.9579    0.3736 C   0  0  0  0  0  0  0  0  0  0  0  0
   -2.5770    2.2007    0.8523 C   0  0  0  0  0  0  0  0  0  0  0  0
   -3.1996    3.3985    0.5931 C   0  0  0  0  0  0  0  0  0  0  0  0
   -2.5588    4.3720   -0.1429 C   0  0  0  0  0  0  0  0  0  0  0  0
   -1.2853    4.1425   -0.6183 C   0  0  0  0  0  0  0  0  0  0  0  0
   -0.6560    2.9470   -0.3620 C   0  0  0  0  0  0  0  0  0  0  0  0
   -5.5894   -2.0000    0.1013 H   0  0  0  0  0  0  0  0  0  0  0  0
   -5.0760   -2.1229   -2.3246 H   0  0  0  0  0  0  0  0  0  0  0  0
   -1.1669   -0.6948   -1.5610 H   0  0  0  0  0  0  0  0  0  0  0  0
   -1.7396   -0.2585    2.1051 H   0  0  0  0  0  0  0  0  0  0  0  0
    0.0588   -1.7694    2.2319 H   0  0  0  0  0  0  0  0  0  0  0  0
   -0.3585   -2.3643    0.6141 H   0  0  0  0  0  0  0  0  0  0  0  0
    1.7548   -3.1769    1.1523 H   0  0  0  0  0  0  0  0  0  0  0  0
    3.9518   -4.2029    0.8630 H   0  0  0  0  0  0  0  0  0  0  0  0
    5.8227   -2.8994   -0.0177 H   0  0  0  0  0  0  0  0  0  0  0  0
    6.7276   -0.7892   -0.8662 H   0  0  0  0  0  0  0  0  0  0  0  0
    6.4242    1.5634   -1.4593 H   0  0  0  0  0  0  0  0  0  0  0  0
    4.2215    2.6320   -1.1828 H   0  0  0  0  0  0  0  0  0  0  0  0
    2.3394    1.3530   -0.3202 H   0  0  0  0  0  0  0  0  0  0  0  0
   -3.0777    1.4480    1.4359 H   0  0  0  0  0  0  0  0  0  0  0  0
   -4.1956    3.5755    0.9699 H   0  0  0  0  0  0  0  0  0  0  0  0
   -3.0507    5.3082   -0.3449 H   0  0  0  0  0  0  0  0  0  0  0  0
   -0.7803    4.9022   -1.1952 H   0  0  0  0  0  0  0  0  0  0  0  0
    0.3346    2.7564   -0.7329 H   0  0  0  0  0  0  0  0  0  0  0  0
  1  2  2  0  0  0  0
  2  3  1  0  0  0  0
  2  4  1  0  0  0  0
  4  5  2  0  0  0  0
  5  6  1  0  0  0  0
  6  7  2  0  0  0  0
  7  8  1  0  0  0  0
  7  9  1  0  0  0  0
  9 10  2  0  0  0  0
 10 11  1  0  0  0  0
 11 12  1  0  0  0  0
 12 13  1  0  0  0  0
 13 14  1  0  0  0  0
 14 15  2  0  0  0  0
 15 16  1  0  0  0  0
 16 17  2  0  0  0  0
 17 18  1  0  0  0  0
 18 19  2  0  0  0  0
 19 20  1  0  0  0  0
 20 21  2  0  0  0  0
 21 22  1  0  0  0  0
 22 23  2  0  0  0  0
 13 24  2  0  0  0  0
 24 25  1  0  0  0  0
 25 26  1  0  0  0  0
 26 27  2  0  0  0  0
 27 28  1  0  0  0  0
 28 29  2  0  0  0  0
 29 30  1  0  0  0  0
 30 31  2  0  0  0  0
 10  4  1  0  0  0  0
 25 11  1  0  0  0  0
 31 26  1  0  0  0  0
 23 14  1  0  0  0  0
 23 18  1  0  0  0  0
  5 32  1  0  0  0  0
  6 33  1  0  0  0  0
  9 34  1  0  0  0  0
 11 35  1  0  0  0  0
 12 36  1  0  0  0  0
 12 37  1  0  0  0  0
 15 38  1  0  0  0  0
 16 39  1  0  0  0  0
 17 40  1  0  0  0  0
 19 41  1  0  0  0  0
 20 42  1  0  0  0  0
 21 43  1  0  0  0  0
 22 44  1  0  0  0  0
 27 45  1  0  0  0  0
 28 46  1  0  0  0  0
 29 47  1  0  0  0  0
 30 48  1  0  0  0  0
 31 49  1  0  0  0  0
M  CHG  1   2   1
M  CHG  1   3  -1
M  END
