
  xtb     03012221323D
 energy: -3.886354655228 gnorm: 0.000434315676 xtb: 6.4.1 (afa7bdf)
 17 18  0     0  0            999 V2000
    4.6351   -0.5643    0.4929 N   0  0  0  0  0  0  0  0  0  0  0  0
    3.4912   -0.3984    0.3771 C   0  0  0  0  0  0  0  0  0  0  0  0
    2.1097   -0.2016    0.2393 C   0  0  0  0  0  0  0  0  0  0  0  0
    1.3956    0.9494    0.4884 C   0  0  0  0  0  0  0  0  0  0  0  0
    0.0335    0.6824    0.2126 C   0  0  0  0  0  0  0  0  0  0  0  0
   -1.1285    1.4704    0.2870 C   0  0  0  0  0  0  0  0  0  0  0  0
   -2.3256    0.9053   -0.0561 C   0  0  0  0  0  0  0  0  0  0  0  0
   -2.4046   -0.4331   -0.4754 C   0  0  0  0  0  0  0  0  0  0  0  0
   -1.2869   -1.2183   -0.5554 C   0  0  0  0  0  0  0  0  0  0  0  0
   -0.0512   -0.6592   -0.2086 C   0  0  0  0  0  0  0  0  0  0  0  0
    1.2290   -1.1807   -0.1849 N   0  0  0  0  0  0  0  0  0  0  0  0
    1.8036    1.8839    0.8316 H   0  0  0  0  0  0  0  0  0  0  0  0
   -1.0609    2.4944    0.6089 H   0  0  0  0  0  0  0  0  0  0  0  0
   -3.2256    1.4952   -0.0046 H   0  0  0  0  0  0  0  0  0  0  0  0
   -3.3640   -0.8469   -0.7385 H   0  0  0  0  0  0  0  0  0  0  0  0
   -1.3382   -2.2436   -0.8754 H   0  0  0  0  0  0  0  0  0  0  0  0
    1.4874   -2.1348   -0.4390 H   0  0  0  0  0  0  0  0  0  0  0  0
  1  2  3  0  0  0  0
  2  3  1  0  0  0  0
  3  4  2  0  0  0  0
  4  5  1  0  0  0  0
  5  6  2  0  0  0  0
  6  7  1  0  0  0  0
  7  8  2  0  0  0  0
  8  9  1  0  0  0  0
  9 10  2  0  0  0  0
 10 11  1  0  0  0  0
 11  3  1  0  0  0  0
 10  5  1  0  0  0  0
  4 12  1  0  0  0  0
  6 13  1  0  0  0  0
  7 14  1  0  0  0  0
  8 15  1  0  0  0  0
  9 16  1  0  0  0  0
 11 17  1  0  0  0  0
M  END
