
  xtb     03012221253D
 energy: -12.059777578431 gnorm: 0.000190059252 xtb: 6.4.1 (afa7bdf)
 61 65  0     0  0            999 V2000
   -4.2423   -0.1579   -3.0321 C   0  0  0  0  0  0  0  0  0  0  0  0
   -3.4718    0.6657   -1.9975 C   0  0  0  0  0  0  0  0  0  0  0  0
   -3.5734    2.1686   -2.2623 C   0  0  0  0  0  0  0  0  0  0  0  0
   -3.8915    0.3398   -0.5811 C   0  0  0  0  0  0  0  0  0  0  0  0
   -5.2184    0.3587   -0.1972 C   0  0  0  0  0  0  0  0  0  0  0  0
   -5.5796    0.0623    1.1008 C   0  0  0  0  0  0  0  0  0  0  0  0
   -4.6140   -0.2437    2.0373 C   0  0  0  0  0  0  0  0  0  0  0  0
   -3.2756   -0.2433    1.6951 C   0  0  0  0  0  0  0  0  0  0  0  0
   -2.1997   -0.5820    2.7034 C   0  0  0  0  0  0  0  0  0  0  0  0
   -2.3303    0.2419    3.9866 C   0  0  0  0  0  0  0  0  0  0  0  0
   -2.1699   -2.0856    2.9818 C   0  0  0  0  0  0  0  0  0  0  0  0
   -2.9103    0.0439    0.3737 C   0  0  0  0  0  0  0  0  0  0  0  0
   -1.5275    0.0346   -0.0022 N   0  0  0  0  0  0  0  0  0  0  0  0
   -0.8611    1.2693   -0.1521 C   0  0  0  0  0  0  0  0  0  0  0  0
   -1.4478    2.3242    0.0114 O   0  0  0  0  0  0  0  0  0  0  0  0
    0.5549    1.2475   -0.5185 C   0  0  0  0  0  0  0  0  0  0  0  0
    1.2485    2.4239   -0.6823 C   0  0  0  0  0  0  0  0  0  0  0  0
    2.5867    2.4127   -1.0543 C   0  0  0  0  0  0  0  0  0  0  0  0
    3.2410    1.2282   -1.2534 C   0  0  0  0  0  0  0  0  0  0  0  0
    2.5845    0.0024   -1.0757 C   0  0  0  0  0  0  0  0  0  0  0  0
    3.2508   -1.2551   -1.2721 C   0  0  0  0  0  0  0  0  0  0  0  0
    4.6147   -1.3533   -1.5675 O   0  0  0  0  0  0  0  0  0  0  0  0
    5.5423   -0.6155   -0.8059 C   0  0  0  0  0  0  0  0  0  0  0  0
    5.2955   -0.2631    0.5234 C   0  0  0  0  0  0  0  0  0  0  0  0
    6.2148    0.4656    1.2374 C   0  0  0  0  0  0  0  0  0  0  0  0
    7.4039    0.8510    0.6418 C   0  0  0  0  0  0  0  0  0  0  0  0
    8.5560    1.7811    1.5381 Cl  0  0  0  0  0  0  0  0  0  0  0  0
    7.6724    0.4972   -0.6699 C   0  0  0  0  0  0  0  0  0  0  0  0
    6.7533   -0.2310   -1.3849 C   0  0  0  0  0  0  0  0  0  0  0  0
    2.5035   -2.4253   -1.1714 C   0  0  0  0  0  0  0  0  0  0  0  0
    1.1679   -2.4041   -0.8306 C   0  0  0  0  0  0  0  0  0  0  0  0
    0.5131   -1.2123   -0.5898 C   0  0  0  0  0  0  0  0  0  0  0  0
    1.2152    0.0108   -0.7217 C   0  0  0  0  0  0  0  0  0  0  0  0
   -0.8937   -1.2102   -0.2080 C   0  0  0  0  0  0  0  0  0  0  0  0
   -1.5043   -2.2559   -0.0630 O   0  0  0  0  0  0  0  0  0  0  0  0
   -5.3004    0.1003   -3.0279 H   0  0  0  0  0  0  0  0  0  0  0  0
   -4.1618   -1.2252   -2.8228 H   0  0  0  0  0  0  0  0  0  0  0  0
   -3.8678    0.0170   -4.0412 H   0  0  0  0  0  0  0  0  0  0  0  0
   -2.4080    0.3818   -2.0775 H   0  0  0  0  0  0  0  0  0  0  0  0
   -4.6069    2.5045   -2.1854 H   0  0  0  0  0  0  0  0  0  0  0  0
   -2.9890    2.7301   -1.5315 H   0  0  0  0  0  0  0  0  0  0  0  0
   -3.2115    2.4273   -3.2577 H   0  0  0  0  0  0  0  0  0  0  0  0
   -5.9746    0.6076   -0.9206 H   0  0  0  0  0  0  0  0  0  0  0  0
   -6.6192    0.0697    1.3838 H   0  0  0  0  0  0  0  0  0  0  0  0
   -4.9023   -0.4860    3.0449 H   0  0  0  0  0  0  0  0  0  0  0  0
   -1.2391   -0.3083    2.2336 H   0  0  0  0  0  0  0  0  0  0  0  0
   -3.2465   -0.0079    4.5199 H   0  0  0  0  0  0  0  0  0  0  0  0
   -2.3568    1.3097    3.7664 H   0  0  0  0  0  0  0  0  0  0  0  0
   -1.4972    0.0582    4.6658 H   0  0  0  0  0  0  0  0  0  0  0  0
   -1.3562   -2.3540    3.6560 H   0  0  0  0  0  0  0  0  0  0  0  0
   -3.1033   -2.4114    3.4397 H   0  0  0  0  0  0  0  0  0  0  0  0
   -2.0434   -2.6480    2.0552 H   0  0  0  0  0  0  0  0  0  0  0  0
    0.7298    3.3530   -0.5248 H   0  0  0  0  0  0  0  0  0  0  0  0
    3.1106    3.3451   -1.1887 H   0  0  0  0  0  0  0  0  0  0  0  0
    4.2717    1.2270   -1.5584 H   0  0  0  0  0  0  0  0  0  0  0  0
    4.3701   -0.5728    0.9782 H   0  0  0  0  0  0  0  0  0  0  0  0
    6.0266    0.7445    2.2594 H   0  0  0  0  0  0  0  0  0  0  0  0
    8.6046    0.8002   -1.1136 H   0  0  0  0  0  0  0  0  0  0  0  0
    6.9452   -0.5147   -2.4057 H   0  0  0  0  0  0  0  0  0  0  0  0
    3.0065   -3.3610   -1.3443 H   0  0  0  0  0  0  0  0  0  0  0  0
    0.6113   -3.3200   -0.7402 H   0  0  0  0  0  0  0  0  0  0  0  0
  1  2  1  0  0  0  0
  2  3  1  0  0  0  0
  2  4  1  0  0  0  0
  4  5  2  0  0  0  0
  5  6  1  0  0  0  0
  6  7  2  0  0  0  0
  7  8  1  0  0  0  0
  8  9  1  0  0  0  0
  9 10  1  0  0  0  0
  9 11  1  0  0  0  0
  8 12  2  0  0  0  0
 12 13  1  0  0  0  0
 13 14  1  0  0  0  0
 14 15  2  0  0  0  0
 14 16  1  0  0  0  0
 16 17  2  0  0  0  0
 17 18  1  0  0  0  0
 18 19  2  0  0  0  0
 19 20  1  0  0  0  0
 20 21  2  0  0  0  0
 21 22  1  0  0  0  0
 22 23  1  0  0  0  0
 23 24  2  0  0  0  0
 24 25  1  0  0  0  0
 25 26  2  0  0  0  0
 26 27  1  0  0  0  0
 26 28  1  0  0  0  0
 28 29  2  0  0  0  0
 21 30  1  0  0  0  0
 30 31  2  0  0  0  0
 31 32  1  0  0  0  0
 32 33  2  0  0  0  0
 32 34  1  0  0  0  0
 34 35  2  0  0  0  0
 12  4  1  0  0  0  0
 34 13  1  0  0  0  0
 33 16  1  0  0  0  0
 33 20  1  0  0  0  0
 29 23  1  0  0  0  0
  1 36  1  0  0  0  0
  1 37  1  0  0  0  0
  1 38  1  0  0  0  0
  2 39  1  0  0  0  0
  3 40  1  0  0  0  0
  3 41  1  0  0  0  0
  3 42  1  0  0  0  0
  5 43  1  0  0  0  0
  6 44  1  0  0  0  0
  7 45  1  0  0  0  0
  9 46  1  0  0  0  0
 10 47  1  0  0  0  0
 10 48  1  0  0  0  0
 10 49  1  0  0  0  0
 11 50  1  0  0  0  0
 11 51  1  0  0  0  0
 11 52  1  0  0  0  0
 17 53  1  0  0  0  0
 18 54  1  0  0  0  0
 19 55  1  0  0  0  0
 24 56  1  0  0  0  0
 25 57  1  0  0  0  0
 28 58  1  0  0  0  0
 29 59  1  0  0  0  0
 30 60  1  0  0  0  0
 31 61  1  0  0  0  0
M  END
