
  xtb     03012221313D
 energy: -9.593793096494 gnorm: 0.000186414027 xtb: 6.4.1 (afa7bdf)
 48 51  0     0  0            999 V2000
    0.0412    6.0336   -0.6796 C   0  0  0  0  0  0  0  0  0  0  0  0
   -0.0898    4.6501   -0.7044 O   0  0  0  0  0  0  0  0  0  0  0  0
   -1.3999    4.3182   -0.9231 C   0  0  0  0  0  0  0  0  0  0  0  0
   -2.2816    5.1445   -1.0622 O   0  0  0  0  0  0  0  0  0  0  0  0
   -1.7436    2.8783   -0.9889 C   0  0  0  0  0  0  0  0  0  0  0  0
   -3.0302    2.4915   -1.2113 C   0  0  0  0  0  0  0  0  0  0  0  0
   -3.4068    1.1097   -1.2700 C   0  0  0  0  0  0  0  0  0  0  0  0
   -4.5816    0.7762   -1.4299 O   0  0  0  0  0  0  0  0  0  0  0  0
   -2.4074    0.1454   -1.1242 N   0  0  0  0  0  0  0  0  0  0  0  0
   -2.8072   -1.2611   -1.1642 C   0  0  0  0  0  0  0  0  0  0  0  0
   -3.1966   -1.7621    0.1860 C   0  0  0  0  0  0  0  0  0  0  0  0
   -2.4762   -2.7539    0.8313 C   0  0  0  0  0  0  0  0  0  0  0  0
   -2.8445   -3.1822    2.0887 C   0  0  0  0  0  0  0  0  0  0  0  0
   -3.9371   -2.6205    2.7164 C   0  0  0  0  0  0  0  0  0  0  0  0
   -4.6600   -1.6290    2.0869 C   0  0  0  0  0  0  0  0  0  0  0  0
   -4.2873   -1.2050    0.8308 C   0  0  0  0  0  0  0  0  0  0  0  0
   -1.0806    0.5297   -0.8715 C   0  0  0  0  0  0  0  0  0  0  0  0
    0.0414   -0.3234   -0.6516 C   0  0  0  0  0  0  0  0  0  0  0  0
    1.2179    0.3379   -0.4343 C   0  0  0  0  0  0  0  0  0  0  0  0
    2.5224   -0.2506   -0.1881 C   0  0  0  0  0  0  0  0  0  0  0  0
    3.6302    0.5680    0.0310 C   0  0  0  0  0  0  0  0  0  0  0  0
    4.8712    0.0362    0.2601 C   0  0  0  0  0  0  0  0  0  0  0  0
    5.0695   -1.3473    0.2810 C   0  0  0  0  0  0  0  0  0  0  0  0
    6.3660   -1.8061    0.5195 O   0  0  0  0  0  0  0  0  0  0  0  0
    6.5125   -3.2048    0.5069 C   0  0  0  0  0  0  0  0  0  0  0  0
    3.9601   -2.1701    0.0623 C   0  0  0  0  0  0  0  0  0  0  0  0
    2.7193   -1.6326   -0.1657 C   0  0  0  0  0  0  0  0  0  0  0  0
    0.9283    2.0576   -0.4973 S   0  0  0  0  0  0  0  0  0  0  0  0
   -0.7661    1.8747   -0.8118 C   0  0  0  0  0  0  0  0  0  0  0  0
    1.0844    6.2925   -0.4885 H   0  0  0  0  0  0  0  0  0  0  0  0
   -0.2766    6.4347   -1.6448 H   0  0  0  0  0  0  0  0  0  0  0  0
   -0.5979    6.4342    0.1108 H   0  0  0  0  0  0  0  0  0  0  0  0
   -3.7917    3.2394   -1.3379 H   0  0  0  0  0  0  0  0  0  0  0  0
   -3.6572   -1.3423   -1.8464 H   0  0  0  0  0  0  0  0  0  0  0  0
   -2.0012   -1.8579   -1.5933 H   0  0  0  0  0  0  0  0  0  0  0  0
   -1.6218   -3.1894    0.3402 H   0  0  0  0  0  0  0  0  0  0  0  0
   -2.2786   -3.9547    2.5815 H   0  0  0  0  0  0  0  0  0  0  0  0
   -4.2248   -2.9548    3.6997 H   0  0  0  0  0  0  0  0  0  0  0  0
   -5.5107   -1.1848    2.5758 H   0  0  0  0  0  0  0  0  0  0  0  0
   -4.8332   -0.4215    0.3303 H   0  0  0  0  0  0  0  0  0  0  0  0
   -0.0409   -1.3957   -0.6522 H   0  0  0  0  0  0  0  0  0  0  0  0
    3.4951    1.6366    0.0162 H   0  0  0  0  0  0  0  0  0  0  0  0
    5.7207    0.6736    0.4276 H   0  0  0  0  0  0  0  0  0  0  0  0
    7.5606   -3.4420    0.6926 H   0  0  0  0  0  0  0  0  0  0  0  0
    6.2273   -3.5985   -0.4693 H   0  0  0  0  0  0  0  0  0  0  0  0
    5.9033   -3.6486    1.2951 H   0  0  0  0  0  0  0  0  0  0  0  0
    4.0795   -3.2376    0.0724 H   0  0  0  0  0  0  0  0  0  0  0  0
    1.8801   -2.2862   -0.3329 H   0  0  0  0  0  0  0  0  0  0  0  0
  1  2  1  0  0  0  0
  2  3  1  0  0  0  0
  3  4  2  0  0  0  0
  3  5  1  0  0  0  0
  5  6  2  0  0  0  0
  6  7  1  0  0  0  0
  7  8  2  0  0  0  0
  7  9  1  0  0  0  0
  9 10  1  0  0  0  0
 10 11  1  0  0  0  0
 11 12  2  0  0  0  0
 12 13  1  0  0  0  0
 13 14  2  0  0  0  0
 14 15  1  0  0  0  0
 15 16  2  0  0  0  0
  9 17  1  0  0  0  0
 17 18  1  0  0  0  0
 18 19  2  0  0  0  0
 19 20  1  0  0  0  0
 20 21  2  0  0  0  0
 21 22  1  0  0  0  0
 22 23  2  0  0  0  0
 23 24  1  0  0  0  0
 24 25  1  0  0  0  0
 23 26  1  0  0  0  0
 26 27  2  0  0  0  0
 19 28  1  0  0  0  0
 28 29  1  0  0  0  0
 29  5  1  0  0  0  0
 16 11  1  0  0  0  0
 29 17  2  0  0  0  0
 27 20  1  0  0  0  0
  1 30  1  0  0  0  0
  1 31  1  0  0  0  0
  1 32  1  0  0  0  0
  6 33  1  0  0  0  0
 10 34  1  0  0  0  0
 10 35  1  0  0  0  0
 12 36  1  0  0  0  0
 13 37  1  0  0  0  0
 14 38  1  0  0  0  0
 15 39  1  0  0  0  0
 16 40  1  0  0  0  0
 18 41  1  0  0  0  0
 21 42  1  0  0  0  0
 22 43  1  0  0  0  0
 25 44  1  0  0  0  0
 25 45  1  0  0  0  0
 25 46  1  0  0  0  0
 26 47  1  0  0  0  0
 27 48  1  0  0  0  0
M  END
