
  xtb     03012221223D
 energy: -8.796439485557 gnorm: 0.000212126319 xtb: 6.4.1 (afa7bdf)
 44 47  0     0  0            999 V2000
    6.2609   -0.5560    1.3021 C   0  0  0  0  0  0  0  0  0  0  0  0
    5.1745   -0.0268    0.4908 N   0  0  0  0  0  0  0  0  0  0  0  0
    5.6223    0.6950   -0.6990 C   0  0  0  0  0  0  0  0  0  0  0  0
    3.8624   -0.5485    0.6007 C   0  0  0  0  0  0  0  0  0  0  0  0
    3.6724   -1.8693    0.9801 C   0  0  0  0  0  0  0  0  0  0  0  0
    2.4108   -2.4347    1.0136 C   0  0  0  0  0  0  0  0  0  0  0  0
    1.3072   -1.6983    0.6764 C   0  0  0  0  0  0  0  0  0  0  0  0
    1.4209   -0.3443    0.3138 C   0  0  0  0  0  0  0  0  0  0  0  0
    2.7097    0.2471    0.2985 C   0  0  0  0  0  0  0  0  0  0  0  0
    2.8218    1.6307    0.0384 C   0  0  0  0  0  0  0  0  0  0  0  0
    1.7297    2.3844   -0.2549 C   0  0  0  0  0  0  0  0  0  0  0  0
    0.4495    1.8167   -0.2985 C   0  0  0  0  0  0  0  0  0  0  0  0
   -0.6953    2.6565   -0.6251 C   0  0  0  0  0  0  0  0  0  0  0  0
   -0.4997    3.8384   -0.8712 O   0  0  0  0  0  0  0  0  0  0  0  0
   -1.9514    2.0973   -0.6450 O   0  0  0  0  0  0  0  0  0  0  0  0
   -2.1036    0.7585   -0.3585 C   0  0  0  0  0  0  0  0  0  0  0  0
   -3.4842    0.2601   -0.3961 C   0  0  0  0  0  0  0  0  0  0  0  0
   -4.5027    1.1711   -0.6503 C   0  0  0  0  0  0  0  0  0  0  0  0
   -5.8173    0.7706   -0.6910 C   0  0  0  0  0  0  0  0  0  0  0  0
   -6.1432   -0.5532   -0.4811 C   0  0  0  0  0  0  0  0  0  0  0  0
   -7.5896   -1.0130   -0.5080 C   0  0  0  0  0  0  0  0  0  0  0  0
   -8.3728    0.0052   -0.9190 F   0  0  0  0  0  0  0  0  0  0  0  0
   -7.9376   -1.3960    0.7376 F   0  0  0  0  0  0  0  0  0  0  0  0
   -7.6926   -2.0542   -1.3593 F   0  0  0  0  0  0  0  0  0  0  0  0
   -5.1444   -1.4702   -0.2301 C   0  0  0  0  0  0  0  0  0  0  0  0
   -3.8281   -1.0740   -0.1884 C   0  0  0  0  0  0  0  0  0  0  0  0
   -1.0424   -0.0454   -0.0542 C   0  0  0  0  0  0  0  0  0  0  0  0
    0.2716    0.4650   -0.0142 C   0  0  0  0  0  0  0  0  0  0  0  0
    7.0588    0.1805    1.3885 H   0  0  0  0  0  0  0  0  0  0  0  0
    5.9014   -0.7886    2.3038 H   0  0  0  0  0  0  0  0  0  0  0  0
    6.6656   -1.4601    0.8491 H   0  0  0  0  0  0  0  0  0  0  0  0
    6.4536    0.1671   -1.1647 H   0  0  0  0  0  0  0  0  0  0  0  0
    5.9543    1.6973   -0.4310 H   0  0  0  0  0  0  0  0  0  0  0  0
    4.8182    0.7656   -1.4305 H   0  0  0  0  0  0  0  0  0  0  0  0
    4.5303   -2.4740    1.2145 H   0  0  0  0  0  0  0  0  0  0  0  0
    2.2985   -3.4678    1.2981 H   0  0  0  0  0  0  0  0  0  0  0  0
    0.3399   -2.1641    0.7078 H   0  0  0  0  0  0  0  0  0  0  0  0
    3.7853    2.1000    0.1151 H   0  0  0  0  0  0  0  0  0  0  0  0
    1.8219    3.4388   -0.4536 H   0  0  0  0  0  0  0  0  0  0  0  0
   -4.2353    2.2023   -0.8139 H   0  0  0  0  0  0  0  0  0  0  0  0
   -6.6077    1.4759   -0.8858 H   0  0  0  0  0  0  0  0  0  0  0  0
   -5.4182   -2.4995   -0.0696 H   0  0  0  0  0  0  0  0  0  0  0  0
   -3.0646   -1.8062    0.0026 H   0  0  0  0  0  0  0  0  0  0  0  0
   -1.2114   -1.0803    0.1617 H   0  0  0  0  0  0  0  0  0  0  0  0
  1  2  1  0  0  0  0
  2  3  1  0  0  0  0
  2  4  1  0  0  0  0
  4  5  2  0  0  0  0
  5  6  1  0  0  0  0
  6  7  2  0  0  0  0
  7  8  1  0  0  0  0
  8  9  2  0  0  0  0
  9 10  1  0  0  0  0
 10 11  2  0  0  0  0
 11 12  1  0  0  0  0
 12 13  1  0  0  0  0
 13 14  2  0  0  0  0
 13 15  1  0  0  0  0
 15 16  1  0  0  0  0
 16 17  1  0  0  0  0
 17 18  2  0  0  0  0
 18 19  1  0  0  0  0
 19 20  2  0  0  0  0
 20 21  1  0  0  0  0
 21 22  1  0  0  0  0
 21 23  1  0  0  0  0
 21 24  1  0  0  0  0
 20 25  1  0  0  0  0
 25 26  2  0  0  0  0
 16 27  2  0  0  0  0
 27 28  1  0  0  0  0
  9  4  1  0  0  0  0
 28 12  2  0  0  0  0
 28  8  1  0  0  0  0
 26 17  1  0  0  0  0
  1 29  1  0  0  0  0
  1 30  1  0  0  0  0
  1 31  1  0  0  0  0
  3 32  1  0  0  0  0
  3 33  1  0  0  0  0
  3 34  1  0  0  0  0
  5 35  1  0  0  0  0
  6 36  1  0  0  0  0
  7 37  1  0  0  0  0
 10 38  1  0  0  0  0
 11 39  1  0  0  0  0
 18 40  1  0  0  0  0
 19 41  1  0  0  0  0
 25 42  1  0  0  0  0
 26 43  1  0  0  0  0
 27 44  1  0  0  0  0
M  END
