
  xtb     03012221273D
 energy: -13.941798361326 gnorm: 0.000372383892 xtb: 6.4.1 (afa7bdf)
 64 70  0     0  0            999 V2000
   -8.1412   -3.3525   -0.4885 C   0  0  0  0  0  0  0  0  0  0  0  0
   -8.1768   -2.4047    0.5146 C   0  0  0  0  0  0  0  0  0  0  0  0
   -7.1229   -1.5335    0.6790 C   0  0  0  0  0  0  0  0  0  0  0  0
   -6.0161   -1.5887   -0.1673 C   0  0  0  0  0  0  0  0  0  0  0  0
   -4.8686   -0.6862   -0.0012 C   0  0  0  0  0  0  0  0  0  0  0  0
   -3.5975   -1.0741   -0.1772 N   0  0  0  0  0  0  0  0  0  0  0  0
   -2.8482   -0.0213    0.1244 C   0  0  0  0  0  0  0  0  0  0  0  0
   -1.3916   -0.0238    0.0672 C   0  0  0  0  0  0  0  0  0  0  0  0
   -0.6783    1.1286    0.3830 C   0  0  0  0  0  0  0  0  0  0  0  0
    0.6937    1.1353    0.3295 C   0  0  0  0  0  0  0  0  0  0  0  0
    1.3915   -0.0102   -0.0410 C   0  0  0  0  0  0  0  0  0  0  0  0
    2.8480    0.0068   -0.0981 C   0  0  0  0  0  0  0  0  0  0  0  0
    3.5825   -1.0425   -0.4449 N   0  0  0  0  0  0  0  0  0  0  0  0
    4.8594   -0.6409   -0.3722 C   0  0  0  0  0  0  0  0  0  0  0  0
    6.0002   -1.5344   -0.6153 C   0  0  0  0  0  0  0  0  0  0  0  0
    5.9071   -2.5214   -1.5930 C   0  0  0  0  0  0  0  0  0  0  0  0
    6.9563   -3.3834   -1.8250 C   0  0  0  0  0  0  0  0  0  0  0  0
    8.1126   -3.2818   -1.0778 C   0  0  0  0  0  0  0  0  0  0  0  0
    8.2153   -2.3209   -0.0920 C   0  0  0  0  0  0  0  0  0  0  0  0
    7.1680   -1.4577    0.1427 C   0  0  0  0  0  0  0  0  0  0  0  0
    4.8898    0.7243    0.0096 C   0  0  0  0  0  0  0  0  0  0  0  0
    6.0471    1.6088    0.1606 C   0  0  0  0  0  0  0  0  0  0  0  0
    5.9982    2.6424    1.0910 C   0  0  0  0  0  0  0  0  0  0  0  0
    7.0606    3.5068    1.2382 C   0  0  0  0  0  0  0  0  0  0  0  0
    8.1855    3.3598    0.4513 C   0  0  0  0  0  0  0  0  0  0  0  0
    8.2429    2.3510   -0.4895 C   0  0  0  0  0  0  0  0  0  0  0  0
    7.1823    1.4855   -0.6393 C   0  0  0  0  0  0  0  0  0  0  0  0
    3.6012    1.1111    0.2004 O   0  0  0  0  0  0  0  0  0  0  0  0
    0.6783   -1.1638   -0.3561 C   0  0  0  0  0  0  0  0  0  0  0  0
   -0.6938   -1.1705   -0.3030 C   0  0  0  0  0  0  0  0  0  0  0  0
   -3.5860    1.0714    0.4950 O   0  0  0  0  0  0  0  0  0  0  0  0
   -4.8818    0.6732    0.4016 C   0  0  0  0  0  0  0  0  0  0  0  0
   -6.0317    1.5421    0.6615 C   0  0  0  0  0  0  0  0  0  0  0  0
   -7.2265    1.4208   -0.0465 C   0  0  0  0  0  0  0  0  0  0  0  0
   -8.2799    2.2717    0.2050 C   0  0  0  0  0  0  0  0  0  0  0  0
   -8.1561    3.2638    1.1571 C   0  0  0  0  0  0  0  0  0  0  0  0
   -6.9728    3.4089    1.8534 C   0  0  0  0  0  0  0  0  0  0  0  0
   -5.9176    2.5591    1.6045 C   0  0  0  0  0  0  0  0  0  0  0  0
   -5.9891   -2.5628   -1.1618 C   0  0  0  0  0  0  0  0  0  0  0  0
   -7.0448   -3.4329   -1.3237 C   0  0  0  0  0  0  0  0  0  0  0  0
   -8.9666   -4.0338   -0.6156 H   0  0  0  0  0  0  0  0  0  0  0  0
   -9.0288   -2.3484    1.1717 H   0  0  0  0  0  0  0  0  0  0  0  0
   -7.1400   -0.8060    1.4717 H   0  0  0  0  0  0  0  0  0  0  0  0
   -1.2232    2.0116    0.6680 H   0  0  0  0  0  0  0  0  0  0  0  0
    1.2504    2.0238    0.5713 H   0  0  0  0  0  0  0  0  0  0  0  0
    4.9980   -2.5991   -2.1637 H   0  0  0  0  0  0  0  0  0  0  0  0
    6.8729   -4.1394   -2.5881 H   0  0  0  0  0  0  0  0  0  0  0  0
    8.9328   -3.9570   -1.2596 H   0  0  0  0  0  0  0  0  0  0  0  0
    9.1145   -2.2481    0.4970 H   0  0  0  0  0  0  0  0  0  0  0  0
    7.2384   -0.7196    0.9225 H   0  0  0  0  0  0  0  0  0  0  0  0
    5.1116    2.7551    1.6909 H   0  0  0  0  0  0  0  0  0  0  0  0
    7.0121    4.3001    1.9656 H   0  0  0  0  0  0  0  0  0  0  0  0
    9.0161    4.0368    0.5668 H   0  0  0  0  0  0  0  0  0  0  0  0
    9.1169    2.2431   -1.1103 H   0  0  0  0  0  0  0  0  0  0  0  0
    7.2159    0.7117   -1.3860 H   0  0  0  0  0  0  0  0  0  0  0  0
    1.2219   -2.0470   -0.6417 H   0  0  0  0  0  0  0  0  0  0  0  0
   -1.2493   -2.0590   -0.5459 H   0  0  0  0  0  0  0  0  0  0  0  0
   -7.3132    0.6604   -0.8025 H   0  0  0  0  0  0  0  0  0  0  0  0
   -9.2002    2.1655   -0.3451 H   0  0  0  0  0  0  0  0  0  0  0  0
   -8.9809    3.9296    1.3520 H   0  0  0  0  0  0  0  0  0  0  0  0
   -6.8731    4.1893    2.5895 H   0  0  0  0  0  0  0  0  0  0  0  0
   -4.9866    2.6703    2.1332 H   0  0  0  0  0  0  0  0  0  0  0  0
   -5.1259   -2.6242   -1.8015 H   0  0  0  0  0  0  0  0  0  0  0  0
   -7.0133   -4.1787   -2.1005 H   0  0  0  0  0  0  0  0  0  0  0  0
  1  2  2  0  0  0  0
  2  3  1  0  0  0  0
  3  4  2  0  0  0  0
  4  5  1  0  0  0  0
  5  6  1  0  0  0  0
  6  7  2  0  0  0  0
  7  8  1  0  0  0  0
  8  9  2  0  0  0  0
  9 10  1  0  0  0  0
 10 11  2  0  0  0  0
 11 12  1  0  0  0  0
 12 13  2  0  0  0  0
 13 14  1  0  0  0  0
 14 15  1  0  0  0  0
 15 16  2  0  0  0  0
 16 17  1  0  0  0  0
 17 18  2  0  0  0  0
 18 19  1  0  0  0  0
 19 20  2  0  0  0  0
 14 21  2  0  0  0  0
 21 22  1  0  0  0  0
 22 23  2  0  0  0  0
 23 24  1  0  0  0  0
 24 25  2  0  0  0  0
 25 26  1  0  0  0  0
 26 27  2  0  0  0  0
 21 28  1  0  0  0  0
 11 29  1  0  0  0  0
 29 30  2  0  0  0  0
  7 31  1  0  0  0  0
 31 32  1  0  0  0  0
 32 33  1  0  0  0  0
 33 34  2  0  0  0  0
 34 35  1  0  0  0  0
 35 36  2  0  0  0  0
 36 37  1  0  0  0  0
 37 38  2  0  0  0  0
  4 39  1  0  0  0  0
 39 40  2  0  0  0  0
 40  1  1  0  0  0  0
 32  5  2  0  0  0  0
 38 33  1  0  0  0  0
 30  8  1  0  0  0  0
 28 12  1  0  0  0  0
 20 15  1  0  0  0  0
 27 22  1  0  0  0  0
  1 41  1  0  0  0  0
  2 42  1  0  0  0  0
  3 43  1  0  0  0  0
  9 44  1  0  0  0  0
 10 45  1  0  0  0  0
 16 46  1  0  0  0  0
 17 47  1  0  0  0  0
 18 48  1  0  0  0  0
 19 49  1  0  0  0  0
 20 50  1  0  0  0  0
 23 51  1  0  0  0  0
 24 52  1  0  0  0  0
 25 53  1  0  0  0  0
 26 54  1  0  0  0  0
 27 55  1  0  0  0  0
 29 56  1  0  0  0  0
 30 57  1  0  0  0  0
 34 58  1  0  0  0  0
 35 59  1  0  0  0  0
 36 60  1  0  0  0  0
 37 61  1  0  0  0  0
 38 62  1  0  0  0  0
 39 63  1  0  0  0  0
 40 64  1  0  0  0  0
M  END
