
  xtb     03012221223D
 energy: -7.298726622886 gnorm: 0.000251090411 xtb: 6.4.1 (afa7bdf)
 37 39  0     0  0            999 V2000
   -5.8567    0.3642    0.4964 C   0  0  0  0  0  0  0  0  0  0  0  0
   -4.7104    0.7051   -0.3465 N   0  0  0  0  0  0  0  0  0  0  0  0
   -4.9900    1.4617   -1.5671 C   0  0  0  0  0  0  0  0  0  0  0  0
   -3.4060    0.3260   -0.0008 C   0  0  0  0  0  0  0  0  0  0  0  0
   -2.3072    0.7258   -0.7691 C   0  0  0  0  0  0  0  0  0  0  0  0
   -1.0332    0.3554   -0.4272 C   0  0  0  0  0  0  0  0  0  0  0  0
   -0.7738   -0.4332    0.6953 C   0  0  0  0  0  0  0  0  0  0  0  0
    0.5518   -0.8577    1.1110 C   0  0  0  0  0  0  0  0  0  0  0  0
    1.7783   -0.6317    0.5875 C   0  0  0  0  0  0  0  0  0  0  0  0
    3.0257   -1.1938    1.2233 C   0  0  0  0  0  0  0  0  0  0  0  0
    4.1754   -0.7406    0.3773 C   0  0  0  0  0  0  0  0  0  0  0  0
    5.5312   -0.9663    0.5043 C   0  0  0  0  0  0  0  0  0  0  0  0
    6.3906   -0.4183   -0.4315 C   0  0  0  0  0  0  0  0  0  0  0  0
    5.9021    0.3455   -1.4799 C   0  0  0  0  0  0  0  0  0  0  0  0
    4.5475    0.5740   -1.6104 C   0  0  0  0  0  0  0  0  0  0  0  0
    3.6882    0.0257   -0.6748 C   0  0  0  0  0  0  0  0  0  0  0  0
    2.2172    0.1269   -0.5963 C   0  0  0  0  0  0  0  0  0  0  0  0
    1.5535    0.7455   -1.4019 O   0  0  0  0  0  0  0  0  0  0  0  0
   -1.8761   -0.8324    1.4618 C   0  0  0  0  0  0  0  0  0  0  0  0
   -3.1536   -0.4649    1.1258 C   0  0  0  0  0  0  0  0  0  0  0  0
   -6.7654    0.8403    0.1347 H   0  0  0  0  0  0  0  0  0  0  0  0
   -5.6838    0.7013    1.5164 H   0  0  0  0  0  0  0  0  0  0  0  0
   -6.0109   -0.7129    0.4976 H   0  0  0  0  0  0  0  0  0  0  0  0
   -6.0607    1.5688   -1.7264 H   0  0  0  0  0  0  0  0  0  0  0  0
   -4.5523    2.4555   -1.4980 H   0  0  0  0  0  0  0  0  0  0  0  0
   -4.5714    0.9466   -2.4293 H   0  0  0  0  0  0  0  0  0  0  0  0
   -2.4661    1.3394   -1.6376 H   0  0  0  0  0  0  0  0  0  0  0  0
   -0.2101    0.6768   -1.0319 H   0  0  0  0  0  0  0  0  0  0  0  0
    0.5509   -1.4627    2.0029 H   0  0  0  0  0  0  0  0  0  0  0  0
    2.9819   -2.2880    1.2614 H   0  0  0  0  0  0  0  0  0  0  0  0
    3.1350   -0.8280    2.2503 H   0  0  0  0  0  0  0  0  0  0  0  0
    5.9016   -1.5595    1.3217 H   0  0  0  0  0  0  0  0  0  0  0  0
    7.4511   -0.5870   -0.3437 H   0  0  0  0  0  0  0  0  0  0  0  0
    6.5851    0.7653   -2.1998 H   0  0  0  0  0  0  0  0  0  0  0  0
    4.1468    1.1640   -2.4157 H   0  0  0  0  0  0  0  0  0  0  0  0
   -1.7090   -1.4424    2.3329 H   0  0  0  0  0  0  0  0  0  0  0  0
   -3.9775   -0.7942    1.7331 H   0  0  0  0  0  0  0  0  0  0  0  0
  1  2  1  0  0  0  0
  2  3  1  0  0  0  0
  2  4  1  0  0  0  0
  4  5  2  0  0  0  0
  5  6  1  0  0  0  0
  6  7  2  0  0  0  0
  7  8  1  0  0  0  0
  8  9  2  0  0  0  0
  9 10  1  0  0  0  0
 10 11  1  0  0  0  0
 11 12  2  0  0  0  0
 12 13  1  0  0  0  0
 13 14  2  0  0  0  0
 14 15  1  0  0  0  0
 15 16  2  0  0  0  0
 16 17  1  0  0  0  0
 17 18  2  0  0  0  0
  7 19  1  0  0  0  0
 19 20  2  0  0  0  0
 20  4  1  0  0  0  0
 17  9  1  0  0  0  0
 16 11  1  0  0  0  0
  1 21  1  0  0  0  0
  1 22  1  0  0  0  0
  1 23  1  0  0  0  0
  3 24  1  0  0  0  0
  3 25  1  0  0  0  0
  3 26  1  0  0  0  0
  5 27  1  0  0  0  0
  6 28  1  0  0  0  0
  8 29  1  0  0  0  0
 10 30  1  0  0  0  0
 10 31  1  0  0  0  0
 12 32  1  0  0  0  0
 13 33  1  0  0  0  0
 14 34  1  0  0  0  0
 15 35  1  0  0  0  0
 19 36  1  0  0  0  0
 20 37  1  0  0  0  0
M  END
