
  xtb     03012221303D
 energy: -11.157099998543 gnorm: 0.000286853917 xtb: 6.4.1 (afa7bdf)
 55 60  0     0  0            999 V2000
   -7.0564   -2.4498    0.5194 C   0  0  0  0  0  0  0  0  0  0  0  0
   -5.6625   -2.3864    1.1244 C   0  0  0  0  0  0  0  0  0  0  0  0
   -4.9757   -1.0329    0.9214 C   0  0  0  0  0  0  0  0  0  0  0  0
   -4.6817   -0.7147   -0.5418 C   0  0  0  0  0  0  0  0  0  0  0  0
   -3.9483    0.5564   -0.7169 N   0  0  0  0  0  0  0  0  0  0  0  0
   -4.7072    1.7563   -0.8574 C   0  0  0  0  0  0  0  0  0  0  0  0
   -6.0579    1.7971   -0.5041 C   0  0  0  0  0  0  0  0  0  0  0  0
   -6.7945    2.9590   -0.5991 C   0  0  0  0  0  0  0  0  0  0  0  0
   -6.2021    4.1156   -1.0537 C   0  0  0  0  0  0  0  0  0  0  0  0
   -4.8704    4.0986   -1.4217 C   0  0  0  0  0  0  0  0  0  0  0  0
   -4.1245    2.9385   -1.3362 C   0  0  0  0  0  0  0  0  0  0  0  0
   -2.4515    3.0344   -1.8889 S   0  0  0  0  0  0  0  0  0  0  0  0
   -1.7570    1.6065   -1.1205 C   0  0  0  0  0  0  0  0  0  0  0  0
   -0.3859    1.5748   -1.0152 C   0  0  0  0  0  0  0  0  0  0  0  0
    0.2899    0.4723   -0.4779 C   0  0  0  0  0  0  0  0  0  0  0  0
    1.7289    0.4874   -0.3965 C   0  0  0  0  0  0  0  0  0  0  0  0
    2.5029   -0.5090    0.0805 C   0  0  0  0  0  0  0  0  0  0  0  0
    3.9204   -0.4377    0.1316 C   0  0  0  0  0  0  0  0  0  0  0  0
    4.6675   -1.4073    0.5872 N   0  0  0  0  0  0  0  0  0  0  0  0
    6.0153   -1.1151    0.5347 C   0  0  0  0  0  0  0  0  0  0  0  0
    6.9540   -1.9629    0.9412 N   0  0  0  0  0  0  0  0  0  0  0  0
    8.2045   -1.4925    0.8037 C   0  0  0  0  0  0  0  0  0  0  0  0
    9.2854   -2.3111    1.2001 C   0  0  0  0  0  0  0  0  0  0  0  0
   10.5746   -1.8877    1.0841 C   0  0  0  0  0  0  0  0  0  0  0  0
   10.8561   -0.6217    0.5653 C   0  0  0  0  0  0  0  0  0  0  0  0
    9.8426    0.1991    0.1708 C   0  0  0  0  0  0  0  0  0  0  0  0
    8.4931   -0.2004    0.2731 C   0  0  0  0  0  0  0  0  0  0  0  0
    7.5293    0.6489   -0.1337 N   0  0  0  0  0  0  0  0  0  0  0  0
    6.3201    0.1614    0.0087 C   0  0  0  0  0  0  0  0  0  0  0  0
    4.8339    0.9664   -0.4147 S   0  0  0  0  0  0  0  0  0  0  0  0
   -0.4807   -0.6101   -0.0515 C   0  0  0  0  0  0  0  0  0  0  0  0
   -1.8507   -0.5810   -0.1464 C   0  0  0  0  0  0  0  0  0  0  0  0
   -2.5312    0.5262   -0.6659 C   0  0  0  0  0  0  0  0  0  0  0  0
   -7.6987   -1.6675    0.9268 H   0  0  0  0  0  0  0  0  0  0  0  0
   -7.0305   -2.3153   -0.5626 H   0  0  0  0  0  0  0  0  0  0  0  0
   -7.5432   -3.4077    0.7140 H   0  0  0  0  0  0  0  0  0  0  0  0
   -5.0328   -3.1776    0.6968 H   0  0  0  0  0  0  0  0  0  0  0  0
   -5.7175   -2.6149    2.1979 H   0  0  0  0  0  0  0  0  0  0  0  0
   -4.0417   -0.9935    1.4945 H   0  0  0  0  0  0  0  0  0  0  0  0
   -5.5926   -0.2396    1.3572 H   0  0  0  0  0  0  0  0  0  0  0  0
   -4.1029   -1.5185   -1.0044 H   0  0  0  0  0  0  0  0  0  0  0  0
   -5.6021   -0.6675   -1.1287 H   0  0  0  0  0  0  0  0  0  0  0  0
   -6.5420    0.9093   -0.1417 H   0  0  0  0  0  0  0  0  0  0  0  0
   -7.8340    2.9628   -0.3152 H   0  0  0  0  0  0  0  0  0  0  0  0
   -6.7735    5.0263   -1.1279 H   0  0  0  0  0  0  0  0  0  0  0  0
   -4.3977    4.9937   -1.7914 H   0  0  0  0  0  0  0  0  0  0  0  0
    0.1812    2.4177   -1.3710 H   0  0  0  0  0  0  0  0  0  0  0  0
    2.2246    1.3731   -0.7514 H   0  0  0  0  0  0  0  0  0  0  0  0
    2.0524   -1.4138    0.4433 H   0  0  0  0  0  0  0  0  0  0  0  0
    9.0613   -3.2849    1.5986 H   0  0  0  0  0  0  0  0  0  0  0  0
   11.3828   -2.5300    1.3930 H   0  0  0  0  0  0  0  0  0  0  0  0
   11.8794   -0.2954    0.4774 H   0  0  0  0  0  0  0  0  0  0  0  0
   10.0518    1.1754   -0.2302 H   0  0  0  0  0  0  0  0  0  0  0  0
    0.0029   -1.4780    0.3592 H   0  0  0  0  0  0  0  0  0  0  0  0
   -2.4074   -1.4330    0.1985 H   0  0  0  0  0  0  0  0  0  0  0  0
  1  2  1  0  0  0  0
  2  3  1  0  0  0  0
  3  4  1  0  0  0  0
  4  5  1  0  0  0  0
  5  6  1  0  0  0  0
  6  7  2  0  0  0  0
  7  8  1  0  0  0  0
  8  9  2  0  0  0  0
  9 10  1  0  0  0  0
 10 11  2  0  0  0  0
 11 12  1  0  0  0  0
 12 13  1  0  0  0  0
 13 14  2  0  0  0  0
 14 15  1  0  0  0  0
 15 16  1  0  0  0  0
 16 17  2  0  0  0  0
 17 18  1  0  0  0  0
 18 19  2  0  0  0  0
 19 20  1  0  0  0  0
 20 21  2  0  0  0  0
 21 22  1  0  0  0  0
 22 23  2  0  0  0  0
 23 24  1  0  0  0  0
 24 25  2  0  0  0  0
 25 26  1  0  0  0  0
 26 27  2  0  0  0  0
 27 28  1  0  0  0  0
 28 29  2  0  0  0  0
 29 30  1  0  0  0  0
 15 31  2  0  0  0  0
 31 32  1  0  0  0  0
 32 33  2  0  0  0  0
 33  5  1  0  0  0  0
 11  6  1  0  0  0  0
 33 13  1  0  0  0  0
 30 18  1  0  0  0  0
 29 20  1  0  0  0  0
 27 22  1  0  0  0  0
  1 34  1  0  0  0  0
  1 35  1  0  0  0  0
  1 36  1  0  0  0  0
  2 37  1  0  0  0  0
  2 38  1  0  0  0  0
  3 39  1  0  0  0  0
  3 40  1  0  0  0  0
  4 41  1  0  0  0  0
  4 42  1  0  0  0  0
  7 43  1  0  0  0  0
  8 44  1  0  0  0  0
  9 45  1  0  0  0  0
 10 46  1  0  0  0  0
 14 47  1  0  0  0  0
 16 48  1  0  0  0  0
 17 49  1  0  0  0  0
 23 50  1  0  0  0  0
 24 51  1  0  0  0  0
 25 52  1  0  0  0  0
 26 53  1  0  0  0  0
 31 54  1  0  0  0  0
 32 55  1  0  0  0  0
M  END
