
  xtb     03012221263D
 energy: -5.423023539221 gnorm: 0.000518426183 xtb: 6.4.1 (afa7bdf)
 26 28  0     0  0            999 V2000
    4.6325    0.4413    0.5553 C   0  0  0  0  0  0  0  0  0  0  0  0
    3.3734    1.0491    0.7091 O   0  0  0  0  0  0  0  0  0  0  0  0
    2.2928    0.2814    0.2820 C   0  0  0  0  0  0  0  0  0  0  0  0
    2.4054   -1.0001   -0.2896 C   0  0  0  0  0  0  0  0  0  0  0  0
    1.2971   -1.7097   -0.6885 C   0  0  0  0  0  0  0  0  0  0  0  0
    0.0447   -1.1449   -0.5216 C   0  0  0  0  0  0  0  0  0  0  0  0
   -0.0963    0.1283    0.0427 C   0  0  0  0  0  0  0  0  0  0  0  0
    1.0165    0.8382    0.4412 C   0  0  0  0  0  0  0  0  0  0  0  0
   -1.5256    0.4545    0.0906 C   0  0  0  0  0  0  0  0  0  0  0  0
   -2.1988    1.5762    0.5471 C   0  0  0  0  0  0  0  0  0  0  0  0
   -3.5777    1.6022    0.4636 C   0  0  0  0  0  0  0  0  0  0  0  0
   -4.2793    0.5295   -0.0665 C   0  0  0  0  0  0  0  0  0  0  0  0
   -3.6168   -0.5922   -0.5248 C   0  0  0  0  0  0  0  0  0  0  0  0
   -2.2384   -0.6230   -0.4435 C   0  0  0  0  0  0  0  0  0  0  0  0
   -1.2852   -1.6716   -0.8506 C   0  0  0  0  0  0  0  0  0  0  0  0
   -1.5467   -2.7439   -1.3514 O   0  0  0  0  0  0  0  0  0  0  0  0
    4.6710   -0.4835    1.1326 H   0  0  0  0  0  0  0  0  0  0  0  0
    4.8233    0.2455   -0.5007 H   0  0  0  0  0  0  0  0  0  0  0  0
    5.3934    1.1261    0.9317 H   0  0  0  0  0  0  0  0  0  0  0  0
    3.3782   -1.4371   -0.4196 H   0  0  0  0  0  0  0  0  0  0  0  0
    1.3798   -2.6898   -1.1252 H   0  0  0  0  0  0  0  0  0  0  0  0
    0.9178    1.8148    0.8754 H   0  0  0  0  0  0  0  0  0  0  0  0
   -1.6478    2.4041    0.9567 H   0  0  0  0  0  0  0  0  0  0  0  0
   -4.1147    2.4672    0.8150 H   0  0  0  0  0  0  0  0  0  0  0  0
   -5.3547    0.5708   -0.1219 H   0  0  0  0  0  0  0  0  0  0  0  0
   -4.1439   -1.4333   -0.9393 H   0  0  0  0  0  0  0  0  0  0  0  0
  1  2  1  0  0  0  0
  2  3  1  0  0  0  0
  3  4  2  0  0  0  0
  4  5  1  0  0  0  0
  5  6  2  0  0  0  0
  6  7  1  0  0  0  0
  7  8  2  0  0  0  0
  7  9  1  0  0  0  0
  9 10  2  0  0  0  0
 10 11  1  0  0  0  0
 11 12  2  0  0  0  0
 12 13  1  0  0  0  0
 13 14  2  0  0  0  0
 14 15  1  0  0  0  0
 15 16  2  0  0  0  0
  8  3  1  0  0  0  0
 14  9  1  0  0  0  0
 15  6  1  0  0  0  0
  1 17  1  0  0  0  0
  1 18  1  0  0  0  0
  1 19  1  0  0  0  0
  4 20  1  0  0  0  0
  5 21  1  0  0  0  0
  8 22  1  0  0  0  0
 10 23  1  0  0  0  0
 11 24  1  0  0  0  0
 12 25  1  0  0  0  0
 13 26  1  0  0  0  0
M  END
