
  xtb     03012221323D
 energy: -7.065457159164 gnorm: 0.000210130686 xtb: 6.4.1 (afa7bdf)
 38 40  0     0  0            999 V2000
    1.7624   -3.0355   -0.4307 C   0  0  0  0  0  0  0  0  0  0  0  0
    0.7786   -1.9697   -0.7861 C   0  0  0  0  0  0  0  0  0  0  0  0
   -0.1842   -2.2589   -1.4627 O   0  0  0  0  0  0  0  0  0  0  0  0
    0.9824   -0.5852   -0.2970 C   0  0  0  0  0  0  0  0  0  0  0  0
    2.2362    0.0010   -0.2184 C   0  0  0  0  0  0  0  0  0  0  0  0
    2.3965    1.3127    0.2734 C   0  0  0  0  0  0  0  0  0  0  0  0
    1.3270    2.0498    0.7012 C   0  0  0  0  0  0  0  0  0  0  0  0
    0.0320    1.5047    0.6305 C   0  0  0  0  0  0  0  0  0  0  0  0
   -1.1043    2.2352    1.0556 C   0  0  0  0  0  0  0  0  0  0  0  0
   -2.3523    1.7069    0.9632 C   0  0  0  0  0  0  0  0  0  0  0  0
   -2.5613    0.4126    0.4290 C   0  0  0  0  0  0  0  0  0  0  0  0
   -3.8516   -0.1299    0.3139 N   0  0  0  0  0  0  0  0  0  0  0  0
   -4.0822   -1.4225   -0.3326 C   0  0  0  0  0  0  0  0  0  0  0  0
   -5.0295    0.5879    0.7999 C   0  0  0  0  0  0  0  0  0  0  0  0
   -1.4570   -0.3060    0.0137 C   0  0  0  0  0  0  0  0  0  0  0  0
   -0.1505    0.1946    0.1098 C   0  0  0  0  0  0  0  0  0  0  0  0
    3.8401    1.7359    0.2139 C   0  0  0  0  0  0  0  0  0  0  0  0
    4.5905    0.6117   -0.5306 C   0  0  0  0  0  0  0  0  0  0  0  0
    3.5725   -0.5436   -0.6613 C   0  0  0  0  0  0  0  0  0  0  0  0
    1.2553   -3.9970   -0.3617 H   0  0  0  0  0  0  0  0  0  0  0  0
    2.5346   -3.1230   -1.1938 H   0  0  0  0  0  0  0  0  0  0  0  0
    2.2333   -2.8365    0.5316 H   0  0  0  0  0  0  0  0  0  0  0  0
    1.4735    3.0471    1.0739 H   0  0  0  0  0  0  0  0  0  0  0  0
   -0.9627    3.2250    1.4544 H   0  0  0  0  0  0  0  0  0  0  0  0
   -3.2005    2.2829    1.2872 H   0  0  0  0  0  0  0  0  0  0  0  0
   -5.1453   -1.6359   -0.4170 H   0  0  0  0  0  0  0  0  0  0  0  0
   -3.6182   -2.2177    0.2472 H   0  0  0  0  0  0  0  0  0  0  0  0
   -3.6582   -1.4191   -1.3347 H   0  0  0  0  0  0  0  0  0  0  0  0
   -4.8975    0.8582    1.8454 H   0  0  0  0  0  0  0  0  0  0  0  0
   -5.1827    1.4919    0.2141 H   0  0  0  0  0  0  0  0  0  0  0  0
   -5.9235   -0.0267    0.7219 H   0  0  0  0  0  0  0  0  0  0  0  0
   -1.5956   -1.2748   -0.4261 H   0  0  0  0  0  0  0  0  0  0  0  0
    3.9349    2.7027   -0.2946 H   0  0  0  0  0  0  0  0  0  0  0  0
    4.2250    1.8710    1.2316 H   0  0  0  0  0  0  0  0  0  0  0  0
    4.9145    0.9544   -1.5214 H   0  0  0  0  0  0  0  0  0  0  0  0
    5.4992    0.3019    0.0014 H   0  0  0  0  0  0  0  0  0  0  0  0
    3.5088   -0.9190   -1.6886 H   0  0  0  0  0  0  0  0  0  0  0  0
    3.8598   -1.3869   -0.0249 H   0  0  0  0  0  0  0  0  0  0  0  0
  1  2  1  0  0  0  0
  2  3  2  0  0  0  0
  2  4  1  0  0  0  0
  4  5  2  0  0  0  0
  5  6  1  0  0  0  0
  6  7  2  0  0  0  0
  7  8  1  0  0  0  0
  8  9  2  0  0  0  0
  9 10  1  0  0  0  0
 10 11  2  0  0  0  0
 11 12  1  0  0  0  0
 12 13  1  0  0  0  0
 12 14  1  0  0  0  0
 11 15  1  0  0  0  0
 15 16  2  0  0  0  0
  6 17  1  0  0  0  0
 17 18  1  0  0  0  0
 18 19  1  0  0  0  0
 16  4  1  0  0  0  0
 19  5  1  0  0  0  0
 16  8  1  0  0  0  0
  1 20  1  0  0  0  0
  1 21  1  0  0  0  0
  1 22  1  0  0  0  0
  7 23  1  0  0  0  0
  9 24  1  0  0  0  0
 10 25  1  0  0  0  0
 13 26  1  0  0  0  0
 13 27  1  0  0  0  0
 13 28  1  0  0  0  0
 14 29  1  0  0  0  0
 14 30  1  0  0  0  0
 14 31  1  0  0  0  0
 15 32  1  0  0  0  0
 17 33  1  0  0  0  0
 17 34  1  0  0  0  0
 18 35  1  0  0  0  0
 18 36  1  0  0  0  0
 19 37  1  0  0  0  0
 19 38  1  0  0  0  0
M  END
