
  xtb     03012221323D
 energy: -16.925876961670 gnorm: 0.000252856281 xtb: 6.4.1 (afa7bdf)
 91 96  0     0  0            999 V2000
   -9.0737   -1.2401   -1.5063 C   0  0  0  0  0  0  0  0  0  0  0  0
   -8.3890   -0.0140   -1.4480 O   0  0  0  0  0  0  0  0  0  0  0  0
   -6.9757   -0.1571   -1.4741 C   0  0  0  0  0  0  0  0  0  0  0  0
   -6.4037   -0.8450   -0.2431 C   0  0  0  0  0  0  0  0  0  0  0  0
   -4.9109   -0.8459   -0.2306 C   0  0  0  0  0  0  0  0  0  0  0  0
   -4.0962   -1.8549   -0.6491 C   0  0  0  0  0  0  0  0  0  0  0  0
   -2.7684   -1.3792   -0.4850 C   0  0  0  0  0  0  0  0  0  0  0  0
   -2.7723   -0.1315   -0.0003 N   0  0  0  0  0  0  0  0  0  0  0  0
   -4.0469    0.2384    0.1646 C   0  0  0  0  0  0  0  0  0  0  0  0
   -4.4885    1.5096    0.6387 C   0  0  0  0  0  0  0  0  0  0  0  0
   -3.7555    2.6075    0.9944 C   0  0  0  0  0  0  0  0  0  0  0  0
   -2.3426    2.8135    1.0343 C   0  0  0  0  0  0  0  0  0  0  0  0
   -1.3346    1.8976    0.8358 N   0  0  0  0  0  0  0  0  0  0  0  0
   -0.1006    2.4717    0.9188 C   0  0  0  0  0  0  0  0  0  0  0  0
   -0.3169    3.8266    1.2007 C   0  0  0  0  0  0  0  0  0  0  0  0
   -1.6832    4.0417    1.2912 C   0  0  0  0  0  0  0  0  0  0  0  0
   -2.3347    5.3663    1.5258 C   0  0  0  0  0  0  0  0  0  0  0  0
   -2.7966    6.0247    0.2343 C   0  0  0  0  0  0  0  0  0  0  0  0
   -3.3459    7.3217    0.4172 O   0  0  0  0  0  0  0  0  0  0  0  0
   -4.5699    7.3159    1.1092 C   0  0  0  0  0  0  0  0  0  0  0  0
    1.1236    1.7572    0.6776 C   0  0  0  0  0  0  0  0  0  0  0  0
    1.1623    0.4334    0.4934 N   0  0  0  0  0  0  0  0  0  0  0  0
    2.4316    0.0822    0.2365 C   0  0  0  0  0  0  0  0  0  0  0  0
    2.8805   -1.2761   -0.0368 C   0  0  0  0  0  0  0  0  0  0  0  0
    4.2261   -1.6317    0.2344 N   0  0  0  0  0  0  0  0  0  0  0  0
    4.9181   -2.5190   -0.6435 C   0  0  0  0  0  0  0  0  0  0  0  0
    4.3925   -2.9822   -1.6275 O   0  0  0  0  0  0  0  0  0  0  0  0
    6.3509   -2.8787   -0.3690 C   0  0  0  0  0  0  0  0  0  0  0  0
    7.0590   -1.8027    0.4572 C   0  0  0  0  0  0  0  0  0  0  0  0
    6.2664   -1.5357    1.7393 C   0  0  0  0  0  0  0  0  0  0  0  0
    4.8270   -1.2060    1.4554 C   0  0  0  0  0  0  0  0  0  0  0  0
    4.2120   -0.5721    2.2798 O   0  0  0  0  0  0  0  0  0  0  0  0
    2.0646   -2.2921   -0.5621 C   0  0  0  0  0  0  0  0  0  0  0  0
    0.6886   -2.4182   -0.7787 C   0  0  0  0  0  0  0  0  0  0  0  0
   -0.3229   -1.5305   -0.4793 N   0  0  0  0  0  0  0  0  0  0  0  0
   -1.5407   -2.0664   -0.7539 C   0  0  0  0  0  0  0  0  0  0  0  0
   -1.3186   -3.3633   -1.2715 C   0  0  0  0  0  0  0  0  0  0  0  0
    0.0359   -3.5881   -1.2953 C   0  0  0  0  0  0  0  0  0  0  0  0
    0.6990   -4.8587   -1.7036 C   0  0  0  0  0  0  0  0  0  0  0  0
    1.2076   -5.6840   -0.5255 C   0  0  0  0  0  0  0  0  0  0  0  0
    0.1797   -6.0877    0.3742 O   0  0  0  0  0  0  0  0  0  0  0  0
   -0.0491   -5.1648    1.4112 C   0  0  0  0  0  0  0  0  0  0  0  0
    3.2478    1.2693    0.2306 C   0  0  0  0  0  0  0  0  0  0  0  0
    4.7078    1.4036   -0.0619 C   0  0  0  0  0  0  0  0  0  0  0  0
    5.1194    0.8210   -1.4053 C   0  0  0  0  0  0  0  0  0  0  0  0
    6.5261    0.8091   -1.6098 O   0  0  0  0  0  0  0  0  0  0  0  0
    7.0885    2.0970   -1.7166 C   0  0  0  0  0  0  0  0  0  0  0  0
    2.4150    2.3087    0.5248 C   0  0  0  0  0  0  0  0  0  0  0  0
  -10.1384   -1.0368   -1.6281 H   0  0  0  0  0  0  0  0  0  0  0  0
   -8.9260   -1.7977   -0.5811 H   0  0  0  0  0  0  0  0  0  0  0  0
   -8.7225   -1.8266   -2.3563 H   0  0  0  0  0  0  0  0  0  0  0  0
   -6.6976   -0.6886   -2.3915 H   0  0  0  0  0  0  0  0  0  0  0  0
   -6.5632    0.8542   -1.5695 H   0  0  0  0  0  0  0  0  0  0  0  0
   -6.7629   -1.8763   -0.1862 H   0  0  0  0  0  0  0  0  0  0  0  0
   -6.7794   -0.3531    0.6588 H   0  0  0  0  0  0  0  0  0  0  0  0
   -4.3972   -2.8167   -1.0247 H   0  0  0  0  0  0  0  0  0  0  0  0
   -5.5589    1.6118    0.6979 H   0  0  0  0  0  0  0  0  0  0  0  0
   -4.3273    3.4748    1.2840 H   0  0  0  0  0  0  0  0  0  0  0  0
   -1.4748    0.9232    0.5863 H   0  0  0  0  0  0  0  0  0  0  0  0
    0.4490    4.5752    1.3197 H   0  0  0  0  0  0  0  0  0  0  0  0
   -1.6356    6.0322    2.0408 H   0  0  0  0  0  0  0  0  0  0  0  0
   -3.1762    5.2393    2.2120 H   0  0  0  0  0  0  0  0  0  0  0  0
   -3.5360    5.4057   -0.2863 H   0  0  0  0  0  0  0  0  0  0  0  0
   -1.9512    6.1372   -0.4548 H   0  0  0  0  0  0  0  0  0  0  0  0
   -4.4117    7.0366    2.1508 H   0  0  0  0  0  0  0  0  0  0  0  0
   -5.2652    6.6208    0.6371 H   0  0  0  0  0  0  0  0  0  0  0  0
   -4.9920    8.3209    1.0742 H   0  0  0  0  0  0  0  0  0  0  0  0
    6.8567   -3.0434   -1.3264 H   0  0  0  0  0  0  0  0  0  0  0  0
    6.3729   -3.8362    0.1600 H   0  0  0  0  0  0  0  0  0  0  0  0
    7.1312   -0.8799   -0.1310 H   0  0  0  0  0  0  0  0  0  0  0  0
    8.0924   -2.0960    0.6852 H   0  0  0  0  0  0  0  0  0  0  0  0
    6.7064   -0.7179    2.3198 H   0  0  0  0  0  0  0  0  0  0  0  0
    6.2943   -2.4176    2.3864 H   0  0  0  0  0  0  0  0  0  0  0  0
    2.6173   -3.1683   -0.8447 H   0  0  0  0  0  0  0  0  0  0  0  0
   -0.1524   -0.6200   -0.0644 H   0  0  0  0  0  0  0  0  0  0  0  0
   -2.0795   -4.0633   -1.5671 H   0  0  0  0  0  0  0  0  0  0  0  0
    1.5182   -4.6302   -2.3937 H   0  0  0  0  0  0  0  0  0  0  0  0
   -0.0162   -5.4589   -2.2737 H   0  0  0  0  0  0  0  0  0  0  0  0
    1.6868   -6.6056   -0.8794 H   0  0  0  0  0  0  0  0  0  0  0  0
    1.9708   -5.1428    0.0443 H   0  0  0  0  0  0  0  0  0  0  0  0
   -0.8592   -5.5392    2.0383 H   0  0  0  0  0  0  0  0  0  0  0  0
    0.8511   -5.0596    2.0185 H   0  0  0  0  0  0  0  0  0  0  0  0
   -0.3341   -4.1944    1.0065 H   0  0  0  0  0  0  0  0  0  0  0  0
    4.9831    2.4611   -0.0179 H   0  0  0  0  0  0  0  0  0  0  0  0
    5.2785    0.9246    0.7369 H   0  0  0  0  0  0  0  0  0  0  0  0
    4.7930   -0.2212   -1.4865 H   0  0  0  0  0  0  0  0  0  0  0  0
    4.6494    1.3576   -2.2368 H   0  0  0  0  0  0  0  0  0  0  0  0
    8.1239    1.9967   -2.0388 H   0  0  0  0  0  0  0  0  0  0  0  0
    6.5407    2.6840   -2.4524 H   0  0  0  0  0  0  0  0  0  0  0  0
    7.0664    2.5952   -0.7491 H   0  0  0  0  0  0  0  0  0  0  0  0
    2.6829    3.3482    0.5967 H   0  0  0  0  0  0  0  0  0  0  0  0
  1  2  1  0  0  0  0
  2  3  1  0  0  0  0
  3  4  1  0  0  0  0
  4  5  1  0  0  0  0
  5  6  2  0  0  0  0
  6  7  1  0  0  0  0
  7  8  2  0  0  0  0
  8  9  1  0  0  0  0
  9 10  2  0  0  0  0
 10 11  1  0  0  0  0
 11 12  2  0  0  0  0
 12 13  1  0  0  0  0
 13 14  1  0  0  0  0
 14 15  1  0  0  0  0
 15 16  2  0  0  0  0
 16 17  1  0  0  0  0
 17 18  1  0  0  0  0
 18 19  1  0  0  0  0
 19 20  1  0  0  0  0
 14 21  2  0  0  0  0
 21 22  1  0  0  0  0
 22 23  2  0  0  0  0
 23 24  1  0  0  0  0
 24 25  1  0  0  0  0
 25 26  1  0  0  0  0
 26 27  2  0  0  0  0
 26 28  1  0  0  0  0
 28 29  1  0  0  0  0
 29 30  1  0  0  0  0
 30 31  1  0  0  0  0
 31 32  2  0  0  0  0
 24 33  2  0  0  0  0
 33 34  1  0  0  0  0
 34 35  1  0  0  0  0
 35 36  1  0  0  0  0
 36 37  2  0  0  0  0
 37 38  1  0  0  0  0
 38 39  1  0  0  0  0
 39 40  1  0  0  0  0
 40 41  1  0  0  0  0
 41 42  1  0  0  0  0
 23 43  1  0  0  0  0
 43 44  1  0  0  0  0
 44 45  1  0  0  0  0
 45 46  1  0  0  0  0
 46 47  1  0  0  0  0
 43 48  2  0  0  0  0
  9  5  1  0  0  0  0
 16 12  1  0  0  0  0
 48 21  1  0  0  0  0
 36  7  1  0  0  0  0
 31 25  1  0  0  0  0
 38 34  2  0  0  0  0
  1 49  1  0  0  0  0
  1 50  1  0  0  0  0
  1 51  1  0  0  0  0
  3 52  1  0  0  0  0
  3 53  1  0  0  0  0
  4 54  1  0  0  0  0
  4 55  1  0  0  0  0
  6 56  1  0  0  0  0
 10 57  1  0  0  0  0
 11 58  1  0  0  0  0
 13 59  1  0  0  0  0
 15 60  1  0  0  0  0
 17 61  1  0  0  0  0
 17 62  1  0  0  0  0
 18 63  1  0  0  0  0
 18 64  1  0  0  0  0
 20 65  1  0  0  0  0
 20 66  1  0  0  0  0
 20 67  1  0  0  0  0
 28 68  1  0  0  0  0
 28 69  1  0  0  0  0
 29 70  1  0  0  0  0
 29 71  1  0  0  0  0
 30 72  1  0  0  0  0
 30 73  1  0  0  0  0
 33 74  1  0  0  0  0
 35 75  1  0  0  0  0
 37 76  1  0  0  0  0
 39 77  1  0  0  0  0
 39 78  1  0  0  0  0
 40 79  1  0  0  0  0
 40 80  1  0  0  0  0
 42 81  1  0  0  0  0
 42 82  1  0  0  0  0
 42 83  1  0  0  0  0
 44 84  1  0  0  0  0
 44 85  1  0  0  0  0
 45 86  1  0  0  0  0
 45 87  1  0  0  0  0
 47 88  1  0  0  0  0
 47 89  1  0  0  0  0
 47 90  1  0  0  0  0
 48 91  1  0  0  0  0
M  END
