
  xtb     03012221253D
 energy: -14.172888892741 gnorm: 0.000165092695 xtb: 6.4.1 (afa7bdf)
 70 75  0     0  0            999 V2000
   -0.2392   -2.4672   -0.3898 C   0  0  0  0  0  0  0  0  0  0  0  0
   -0.8120   -1.1004   -0.2414 C   0  0  0  0  0  0  0  0  0  0  0  0
   -2.2147   -0.9723   -0.2244 C   0  0  0  0  0  0  0  0  0  0  0  0
   -2.8889    0.2189   -0.0414 C   0  0  0  0  0  0  0  0  0  0  0  0
   -4.3586    0.2872   -0.0289 C   0  0  0  0  0  0  0  0  0  0  0  0
   -5.0218    1.4832    0.2403 C   0  0  0  0  0  0  0  0  0  0  0  0
   -6.3948    1.5647    0.2617 C   0  0  0  0  0  0  0  0  0  0  0  0
   -7.1848    0.4535    0.0003 C   0  0  0  0  0  0  0  0  0  0  0  0
   -8.7181    0.5273    0.0701 C   0  0  0  0  0  0  0  0  0  0  0  0
   -9.2202    1.9371   -0.2988 C   0  0  0  0  0  0  0  0  0  0  0  0
   -9.3604   -0.4707   -0.9134 C   0  0  0  0  0  0  0  0  0  0  0  0
   -9.1644    0.1895    1.5009 C   0  0  0  0  0  0  0  0  0  0  0  0
   -6.5337   -0.7471   -0.2510 C   0  0  0  0  0  0  0  0  0  0  0  0
   -5.1588   -0.8310   -0.2732 C   0  0  0  0  0  0  0  0  0  0  0  0
   -2.0785    1.3967    0.1515 C   0  0  0  0  0  0  0  0  0  0  0  0
   -2.4828    2.6314    0.3610 N   0  0  0  0  0  0  0  0  0  0  0  0
   -1.1655    3.6001    0.5121 S   0  0  0  0  0  0  0  0  0  0  0  0
   -0.0221    2.4413    0.3090 N   0  0  0  0  0  0  0  0  0  0  0  0
   -0.6298    1.2881    0.1239 C   0  0  0  0  0  0  0  0  0  0  0  0
    0.0068    0.0164   -0.0996 C   0  0  0  0  0  0  0  0  0  0  0  0
    1.4789   -0.0466   -0.1400 C   0  0  0  0  0  0  0  0  0  0  0  0
    2.2415    0.6525    0.8006 C   0  0  0  0  0  0  0  0  0  0  0  0
    3.6117    0.5980    0.7848 C   0  0  0  0  0  0  0  0  0  0  0  0
    4.2864   -0.1487   -0.1808 C   0  0  0  0  0  0  0  0  0  0  0  0
    5.7137   -0.2166   -0.1924 N   0  0  0  0  0  0  0  0  0  0  0  0
    6.4986    0.8939    0.2685 C   0  0  0  0  0  0  0  0  0  0  0  0
    7.6669    0.6827    0.9956 C   0  0  0  0  0  0  0  0  0  0  0  0
    8.4224    1.7468    1.4347 C   0  0  0  0  0  0  0  0  0  0  0  0
    8.0260    3.0403    1.1549 C   0  0  0  0  0  0  0  0  0  0  0  0
    6.8703    3.2653    0.4323 C   0  0  0  0  0  0  0  0  0  0  0  0
    6.1132    2.2028   -0.0083 C   0  0  0  0  0  0  0  0  0  0  0  0
    6.3769   -1.4016   -0.6603 C   0  0  0  0  0  0  0  0  0  0  0  0
    5.8746   -2.6646   -0.3587 C   0  0  0  0  0  0  0  0  0  0  0  0
    6.5141   -3.7992   -0.8057 C   0  0  0  0  0  0  0  0  0  0  0  0
    7.6666   -3.6932   -1.5602 C   0  0  0  0  0  0  0  0  0  0  0  0
    8.1781   -2.4466   -1.8651 C   0  0  0  0  0  0  0  0  0  0  0  0
    7.5405   -1.3105   -1.4191 C   0  0  0  0  0  0  0  0  0  0  0  0
    3.5312   -0.8257   -1.1383 C   0  0  0  0  0  0  0  0  0  0  0  0
    2.1606   -0.7730   -1.1225 C   0  0  0  0  0  0  0  0  0  0  0  0
   -0.1335   -2.7346   -1.4415 H   0  0  0  0  0  0  0  0  0  0  0  0
   -0.8822   -3.2129    0.0792 H   0  0  0  0  0  0  0  0  0  0  0  0
    0.7392   -2.5419    0.0855 H   0  0  0  0  0  0  0  0  0  0  0  0
   -2.7802   -1.8752   -0.3499 H   0  0  0  0  0  0  0  0  0  0  0  0
   -4.4412    2.3631    0.4379 H   0  0  0  0  0  0  0  0  0  0  0  0
   -6.8586    2.5073    0.4920 H   0  0  0  0  0  0  0  0  0  0  0  0
  -10.3086    1.9595   -0.3499 H   0  0  0  0  0  0  0  0  0  0  0  0
   -8.8330    2.2443   -1.2700 H   0  0  0  0  0  0  0  0  0  0  0  0
   -8.9180    2.6766    0.4414 H   0  0  0  0  0  0  0  0  0  0  0  0
  -10.4430   -0.3469   -0.9389 H   0  0  0  0  0  0  0  0  0  0  0  0
   -8.9814   -0.3168   -1.9234 H   0  0  0  0  0  0  0  0  0  0  0  0
   -9.1617   -1.5021   -0.6261 H   0  0  0  0  0  0  0  0  0  0  0  0
   -8.7350    0.8911    2.2156 H   0  0  0  0  0  0  0  0  0  0  0  0
  -10.2494    0.2332    1.5932 H   0  0  0  0  0  0  0  0  0  0  0  0
   -8.8407   -0.8127    1.7810 H   0  0  0  0  0  0  0  0  0  0  0  0
   -7.1123   -1.6370   -0.4247 H   0  0  0  0  0  0  0  0  0  0  0  0
   -4.7030   -1.7807   -0.4847 H   0  0  0  0  0  0  0  0  0  0  0  0
    1.7309    1.2408    1.5429 H   0  0  0  0  0  0  0  0  0  0  0  0
    4.1843    1.1242    1.5283 H   0  0  0  0  0  0  0  0  0  0  0  0
    7.9657   -0.3270    1.2159 H   0  0  0  0  0  0  0  0  0  0  0  0
    9.3240    1.5703    1.9985 H   0  0  0  0  0  0  0  0  0  0  0  0
    8.6177    3.8724    1.4994 H   0  0  0  0  0  0  0  0  0  0  0  0
    6.5613    4.2741    0.2119 H   0  0  0  0  0  0  0  0  0  0  0  0
    5.2180    2.3709   -0.5809 H   0  0  0  0  0  0  0  0  0  0  0  0
    4.9832   -2.7400    0.2390 H   0  0  0  0  0  0  0  0  0  0  0  0
    6.1160   -4.7715   -0.5653 H   0  0  0  0  0  0  0  0  0  0  0  0
    8.1662   -4.5817   -1.9098 H   0  0  0  0  0  0  0  0  0  0  0  0
    9.0771   -2.3632   -2.4536 H   0  0  0  0  0  0  0  0  0  0  0  0
    7.9289   -0.3362   -1.6585 H   0  0  0  0  0  0  0  0  0  0  0  0
    4.0439   -1.3792   -1.9055 H   0  0  0  0  0  0  0  0  0  0  0  0
    1.5959   -1.2708   -1.8907 H   0  0  0  0  0  0  0  0  0  0  0  0
  1  2  1  0  0  0  0
  2  3  1  0  0  0  0
  3  4  2  0  0  0  0
  4  5  1  0  0  0  0
  5  6  2  0  0  0  0
  6  7  1  0  0  0  0
  7  8  2  0  0  0  0
  8  9  1  0  0  0  0
  9 10  1  0  0  0  0
  9 11  1  0  0  0  0
  9 12  1  0  0  0  0
  8 13  1  0  0  0  0
 13 14  2  0  0  0  0
  4 15  1  0  0  0  0
 15 16  2  0  0  0  0
 16 17  1  0  0  0  0
 17 18  1  0  0  0  0
 18 19  2  0  0  0  0
 19 20  1  0  0  0  0
 20 21  1  0  0  0  0
 21 22  2  0  0  0  0
 22 23  1  0  0  0  0
 23 24  2  0  0  0  0
 24 25  1  0  0  0  0
 25 26  1  0  0  0  0
 26 27  2  0  0  0  0
 27 28  1  0  0  0  0
 28 29  2  0  0  0  0
 29 30  1  0  0  0  0
 30 31  2  0  0  0  0
 25 32  1  0  0  0  0
 32 33  2  0  0  0  0
 33 34  1  0  0  0  0
 34 35  2  0  0  0  0
 35 36  1  0  0  0  0
 36 37  2  0  0  0  0
 24 38  1  0  0  0  0
 38 39  2  0  0  0  0
 20  2  2  0  0  0  0
 39 21  1  0  0  0  0
 14  5  1  0  0  0  0
 19 15  1  0  0  0  0
 31 26  1  0  0  0  0
 37 32  1  0  0  0  0
  1 40  1  0  0  0  0
  1 41  1  0  0  0  0
  1 42  1  0  0  0  0
  3 43  1  0  0  0  0
  6 44  1  0  0  0  0
  7 45  1  0  0  0  0
 10 46  1  0  0  0  0
 10 47  1  0  0  0  0
 10 48  1  0  0  0  0
 11 49  1  0  0  0  0
 11 50  1  0  0  0  0
 11 51  1  0  0  0  0
 12 52  1  0  0  0  0
 12 53  1  0  0  0  0
 12 54  1  0  0  0  0
 13 55  1  0  0  0  0
 14 56  1  0  0  0  0
 22 57  1  0  0  0  0
 23 58  1  0  0  0  0
 27 59  1  0  0  0  0
 28 60  1  0  0  0  0
 29 61  1  0  0  0  0
 30 62  1  0  0  0  0
 31 63  1  0  0  0  0
 33 64  1  0  0  0  0
 34 65  1  0  0  0  0
 35 66  1  0  0  0  0
 36 67  1  0  0  0  0
 37 68  1  0  0  0  0
 38 69  1  0  0  0  0
 39 70  1  0  0  0  0
M  END
