
  xtb     03012221223D
 energy: -7.933923232637 gnorm: 0.000243932812 xtb: 6.4.1 (afa7bdf)
 39 42  0     0  0            999 V2000
    5.4571   -3.0557    1.2242 F   0  0  0  0  0  0  0  0  0  0  0  0
    5.0189   -2.7742   -0.0205 C   0  0  0  0  0  0  0  0  0  0  0  0
    6.0118   -2.2295   -0.7540 F   0  0  0  0  0  0  0  0  0  0  0  0
    4.5580   -3.8936   -0.6161 F   0  0  0  0  0  0  0  0  0  0  0  0
    3.8731   -1.7829    0.0858 C   0  0  0  0  0  0  0  0  0  0  0  0
    2.7676   -2.1033    0.8444 C   0  0  0  0  0  0  0  0  0  0  0  0
    1.7156   -1.2232    0.9398 C   0  0  0  0  0  0  0  0  0  0  0  0
    1.7432    0.0028    0.2756 C   0  0  0  0  0  0  0  0  0  0  0  0
    0.6148    0.9100    0.3756 C   0  0  0  0  0  0  0  0  0  0  0  0
    0.3811    2.0393   -0.3120 C   0  0  0  0  0  0  0  0  0  0  0  0
   -0.9058    2.6962   -0.0261 C   0  0  0  0  0  0  0  0  0  0  0  0
   -1.3962    3.8537   -0.6365 C   0  0  0  0  0  0  0  0  0  0  0  0
   -2.6428    4.3274   -0.2818 C   0  0  0  0  0  0  0  0  0  0  0  0
   -3.4074    3.6671    0.6653 C   0  0  0  0  0  0  0  0  0  0  0  0
   -2.9298    2.5191    1.2727 C   0  0  0  0  0  0  0  0  0  0  0  0
   -1.6879    2.0493    0.9233 C   0  0  0  0  0  0  0  0  0  0  0  0
   -0.7771    0.6095    1.4844 P   0  0  0  0  0  0  0  0  0  0  0  0
   -1.6195   -0.6432    0.4981 C   0  0  0  0  0  0  0  0  0  0  0  0
   -2.0018   -1.8039    1.1328 C   0  0  0  0  0  0  0  0  0  0  0  0
   -2.6333   -2.8038    0.4148 C   0  0  0  0  0  0  0  0  0  0  0  0
   -2.8771   -2.6337   -0.9326 C   0  0  0  0  0  0  0  0  0  0  0  0
   -2.4936   -1.4688   -1.5649 C   0  0  0  0  0  0  0  0  0  0  0  0
   -1.8624   -0.4715   -0.8459 C   0  0  0  0  0  0  0  0  0  0  0  0
    2.8701    0.3116   -0.4868 C   0  0  0  0  0  0  0  0  0  0  0  0
    3.9195   -0.5738   -0.5772 C   0  0  0  0  0  0  0  0  0  0  0  0
    2.7454   -3.0527    1.3525 H   0  0  0  0  0  0  0  0  0  0  0  0
    0.8488   -1.4820    1.5212 H   0  0  0  0  0  0  0  0  0  0  0  0
    1.0602    2.4305   -1.0538 H   0  0  0  0  0  0  0  0  0  0  0  0
   -0.8007    4.3577   -1.3764 H   0  0  0  0  0  0  0  0  0  0  0  0
   -3.0270    5.2193   -0.7484 H   0  0  0  0  0  0  0  0  0  0  0  0
   -4.3798    4.0480    0.9310 H   0  0  0  0  0  0  0  0  0  0  0  0
   -3.5145    1.9924    2.0077 H   0  0  0  0  0  0  0  0  0  0  0  0
   -1.8024   -1.9241    2.1864 H   0  0  0  0  0  0  0  0  0  0  0  0
   -2.9312   -3.7147    0.9072 H   0  0  0  0  0  0  0  0  0  0  0  0
   -3.3668   -3.4135   -1.4930 H   0  0  0  0  0  0  0  0  0  0  0  0
   -2.6828   -1.3376   -2.6175 H   0  0  0  0  0  0  0  0  0  0  0  0
   -1.5553    0.4403   -1.3301 H   0  0  0  0  0  0  0  0  0  0  0  0
    2.9185    1.2525   -1.0052 H   0  0  0  0  0  0  0  0  0  0  0  0
    4.7914   -0.3411   -1.1650 H   0  0  0  0  0  0  0  0  0  0  0  0
  1  2  1  0  0  0  0
  2  3  1  0  0  0  0
  2  4  1  0  0  0  0
  2  5  1  0  0  0  0
  5  6  2  0  0  0  0
  6  7  1  0  0  0  0
  7  8  2  0  0  0  0
  8  9  1  0  0  0  0
  9 10  2  0  0  0  0
 10 11  1  0  0  0  0
 11 12  2  0  0  0  0
 12 13  1  0  0  0  0
 13 14  2  0  0  0  0
 14 15  1  0  0  0  0
 15 16  2  0  0  0  0
 16 17  1  0  0  0  0
 17 18  1  0  0  0  0
 18 19  2  0  0  0  0
 19 20  1  0  0  0  0
 20 21  2  0  0  0  0
 21 22  1  0  0  0  0
 22 23  2  0  0  0  0
  8 24  1  0  0  0  0
 24 25  2  0  0  0  0
 25  5  1  0  0  0  0
 17  9  1  0  0  0  0
 23 18  1  0  0  0  0
 16 11  1  0  0  0  0
  6 26  1  0  0  0  0
  7 27  1  0  0  0  0
 10 28  1  0  0  0  0
 12 29  1  0  0  0  0
 13 30  1  0  0  0  0
 14 31  1  0  0  0  0
 15 32  1  0  0  0  0
 19 33  1  0  0  0  0
 20 34  1  0  0  0  0
 21 35  1  0  0  0  0
 22 36  1  0  0  0  0
 23 37  1  0  0  0  0
 24 38  1  0  0  0  0
 25 39  1  0  0  0  0
M  END
