
  xtb     03012221323D
 energy: -7.318081103314 gnorm: 0.000138689224 xtb: 6.4.1 (afa7bdf)
 38 39  0     0  0            999 V2000
   -4.6444    1.3461   -0.8566 C   0  0  0  0  0  0  0  0  0  0  0  0
   -4.0161    0.7020    0.2931 N   0  0  0  0  0  0  0  0  0  0  0  0
   -4.9357    0.0320    1.2242 C   0  0  0  0  0  0  0  0  0  0  0  0
   -5.1525   -1.4142    0.8177 C   0  0  0  0  0  0  0  0  0  0  0  0
   -5.6941   -1.5325   -0.4753 O   0  0  0  0  0  0  0  0  0  0  0  0
   -2.6256    0.4998    0.3420 C   0  0  0  0  0  0  0  0  0  0  0  0
   -2.0230   -0.1978    1.3969 C   0  0  0  0  0  0  0  0  0  0  0  0
   -0.6658   -0.3935    1.4350 C   0  0  0  0  0  0  0  0  0  0  0  0
    0.1498    0.0985    0.4191 C   0  0  0  0  0  0  0  0  0  0  0  0
    1.5145   -0.0991    0.4552 N   0  0  0  0  0  0  0  0  0  0  0  0
    2.2387    0.3077   -0.4631 N   0  0  0  0  0  0  0  0  0  0  0  0
    3.6037    0.1103   -0.4170 C   0  0  0  0  0  0  0  0  0  0  0  0
    4.4173    0.5397   -1.4637 C   0  0  0  0  0  0  0  0  0  0  0  0
    5.7753    0.3415   -1.4136 C   0  0  0  0  0  0  0  0  0  0  0  0
    6.3481   -0.2864   -0.3226 C   0  0  0  0  0  0  0  0  0  0  0  0
    7.7916   -0.4938   -0.2724 N   0  0  0  0  0  4  0  0  0  0  0  0
    8.4780   -0.0992   -1.2246 O   0  0  0  0  0  0  0  0  0  0  0  0
    8.2729   -1.0558    0.7206 O   0  0  0  0  0  1  0  0  0  0  0  0
    5.5492   -0.7169    0.7208 C   0  0  0  0  0  0  0  0  0  0  0  0
    4.1906   -0.5216    0.6756 C   0  0  0  0  0  0  0  0  0  0  0  0
   -0.4368    0.7920   -0.6341 C   0  0  0  0  0  0  0  0  0  0  0  0
   -1.7935    0.9897   -0.6726 C   0  0  0  0  0  0  0  0  0  0  0  0
   -5.7167    1.4489   -0.7088 H   0  0  0  0  0  0  0  0  0  0  0  0
   -4.4793    0.7456   -1.7488 H   0  0  0  0  0  0  0  0  0  0  0  0
   -4.2277    2.3396   -1.0058 H   0  0  0  0  0  0  0  0  0  0  0  0
   -5.8874    0.5682    1.2265 H   0  0  0  0  0  0  0  0  0  0  0  0
   -4.5466    0.1170    2.2416 H   0  0  0  0  0  0  0  0  0  0  0  0
   -5.8013   -1.9478    1.5252 H   0  0  0  0  0  0  0  0  0  0  0  0
   -4.1967   -1.9513    0.7996 H   0  0  0  0  0  0  0  0  0  0  0  0
   -6.5661   -1.0799   -0.5242 H   0  0  0  0  0  0  0  0  0  0  0  0
   -2.6312   -0.5892    2.1914 H   0  0  0  0  0  0  0  0  0  0  0  0
   -0.2091   -0.9303    2.2473 H   0  0  0  0  0  0  0  0  0  0  0  0
    3.9621    1.0269   -2.3084 H   0  0  0  0  0  0  0  0  0  0  0  0
    6.4144    0.6685   -2.2158 H   0  0  0  0  0  0  0  0  0  0  0  0
    6.0135   -1.2042    1.5609 H   0  0  0  0  0  0  0  0  0  0  0  0
    3.5576   -0.8519    1.4804 H   0  0  0  0  0  0  0  0  0  0  0  0
    0.1985    1.1671   -1.4161 H   0  0  0  0  0  0  0  0  0  0  0  0
   -2.2258    1.5242   -1.4988 H   0  0  0  0  0  0  0  0  0  0  0  0
  1  2  1  0  0  0  0
  2  3  1  0  0  0  0
  3  4  1  0  0  0  0
  4  5  1  0  0  0  0
  2  6  1  0  0  0  0
  6  7  2  0  0  0  0
  7  8  1  0  0  0  0
  8  9  2  0  0  0  0
  9 10  1  0  0  0  0
 10 11  2  0  0  0  0
 11 12  1  0  0  0  0
 12 13  2  0  0  0  0
 13 14  1  0  0  0  0
 14 15  2  0  0  0  0
 15 16  1  0  0  0  0
 16 17  2  0  0  0  0
 16 18  1  0  0  0  0
 15 19  1  0  0  0  0
 19 20  2  0  0  0  0
  9 21  1  0  0  0  0
 21 22  2  0  0  0  0
 22  6  1  0  0  0  0
 20 12  1  0  0  0  0
  1 23  1  0  0  0  0
  1 24  1  0  0  0  0
  1 25  1  0  0  0  0
  3 26  1  0  0  0  0
  3 27  1  0  0  0  0
  4 28  1  0  0  0  0
  4 29  1  0  0  0  0
  5 30  1  0  0  0  0
  7 31  1  0  0  0  0
  8 32  1  0  0  0  0
 13 33  1  0  0  0  0
 14 34  1  0  0  0  0
 19 35  1  0  0  0  0
 20 36  1  0  0  0  0
 21 37  1  0  0  0  0
 22 38  1  0  0  0  0
M  CHG  1  16   1
M  CHG  1  18  -1
M  END
