
  xtb     03012221273D
 energy: -9.475764485403 gnorm: 0.000251712458 xtb: 6.4.1 (afa7bdf)
 46 49  0     0  0            999 V2000
   -4.0267    4.1342    1.5121 C   0  0  0  0  0  0  0  0  0  0  0  0
   -2.9108    3.2235    1.1345 C   0  0  0  0  0  0  0  0  0  0  0  0
   -3.1031    2.2027    0.2136 C   0  0  0  0  0  0  0  0  0  0  0  0
   -2.0739    1.3516   -0.1180 C   0  0  0  0  0  0  0  0  0  0  0  0
   -0.8201    1.4836    0.4731 C   0  0  0  0  0  0  0  0  0  0  0  0
    0.3040    0.6051    0.1276 C   0  0  0  0  0  0  0  0  0  0  0  0
    1.5877    1.0167    0.1555 N   0  0  0  0  0  0  0  0  0  0  0  0
    2.3265   -0.0050   -0.2612 C   0  0  0  0  0  0  0  0  0  0  0  0
    3.7811    0.0441   -0.3742 C   0  0  0  0  0  0  0  0  0  0  0  0
    4.5208   -1.0579   -0.7995 C   0  0  0  0  0  0  0  0  0  0  0  0
    5.8937   -0.9806   -0.8970 C   0  0  0  0  0  0  0  0  0  0  0  0
    6.5487    0.1864   -0.5757 C   0  0  0  0  0  0  0  0  0  0  0  0
    5.8365    1.3080   -0.1467 C   0  0  0  0  0  0  0  0  0  0  0  0
    6.5094    2.4737    0.1718 O   0  0  0  0  0  0  0  0  0  0  0  0
    4.4501    1.2158   -0.0521 C   0  0  0  0  0  0  0  0  0  0  0  0
    1.5378   -1.0987   -0.5627 N   0  0  0  0  0  0  0  0  0  0  0  0
    0.2478   -0.7402   -0.3062 C   0  0  0  0  0  0  0  0  0  0  0  0
   -0.9048   -1.6396   -0.4048 C   0  0  0  0  0  0  0  0  0  0  0  0
   -0.9843   -2.5673   -1.4394 C   0  0  0  0  0  0  0  0  0  0  0  0
   -2.0516   -3.4310   -1.5327 C   0  0  0  0  0  0  0  0  0  0  0  0
   -3.0736   -3.3996   -0.5945 C   0  0  0  0  0  0  0  0  0  0  0  0
   -4.2123   -4.3539   -0.6885 C   0  0  0  0  0  0  0  0  0  0  0  0
   -2.9897   -2.4900    0.4507 C   0  0  0  0  0  0  0  0  0  0  0  0
   -1.9233   -1.6260    0.5459 C   0  0  0  0  0  0  0  0  0  0  0  0
   -0.6307    2.5134    1.3884 C   0  0  0  0  0  0  0  0  0  0  0  0
   -1.6602    3.3644    1.7192 C   0  0  0  0  0  0  0  0  0  0  0  0
   -3.6757    5.1620    1.6106 H   0  0  0  0  0  0  0  0  0  0  0  0
   -4.8170    4.1250    0.7608 H   0  0  0  0  0  0  0  0  0  0  0  0
   -4.4650    3.8348    2.4647 H   0  0  0  0  0  0  0  0  0  0  0  0
   -4.0695    2.0833   -0.2443 H   0  0  0  0  0  0  0  0  0  0  0  0
   -2.2275    0.5791   -0.8525 H   0  0  0  0  0  0  0  0  0  0  0  0
    4.0124   -1.9707   -1.0511 H   0  0  0  0  0  0  0  0  0  0  0  0
    6.4573   -1.8384   -1.2266 H   0  0  0  0  0  0  0  0  0  0  0  0
    7.6191    0.2581   -0.6487 H   0  0  0  0  0  0  0  0  0  0  0  0
    5.8669    3.1627    0.4500 H   0  0  0  0  0  0  0  0  0  0  0  0
    3.8831    2.0664    0.2753 H   0  0  0  0  0  0  0  0  0  0  0  0
    1.8555   -2.0233   -0.8569 H   0  0  0  0  0  0  0  0  0  0  0  0
   -0.1974   -2.5947   -2.1747 H   0  0  0  0  0  0  0  0  0  0  0  0
   -2.1010   -4.1436   -2.3375 H   0  0  0  0  0  0  0  0  0  0  0  0
   -4.5510   -4.4580   -1.7201 H   0  0  0  0  0  0  0  0  0  0  0  0
   -3.9202   -5.3411   -0.3284 H   0  0  0  0  0  0  0  0  0  0  0  0
   -5.0619   -4.0172   -0.0932 H   0  0  0  0  0  0  0  0  0  0  0  0
   -3.7683   -2.4688    1.1931 H   0  0  0  0  0  0  0  0  0  0  0  0
   -1.8594   -0.9327    1.3681 H   0  0  0  0  0  0  0  0  0  0  0  0
    0.3423    2.6324    1.8355 H   0  0  0  0  0  0  0  0  0  0  0  0
   -1.5020    4.1510    2.4362 H   0  0  0  0  0  0  0  0  0  0  0  0
  1  2  1  0  0  0  0
  2  3  2  0  0  0  0
  3  4  1  0  0  0  0
  4  5  2  0  0  0  0
  5  6  1  0  0  0  0
  6  7  1  0  0  0  0
  7  8  2  0  0  0  0
  8  9  1  0  0  0  0
  9 10  2  0  0  0  0
 10 11  1  0  0  0  0
 11 12  2  0  0  0  0
 12 13  1  0  0  0  0
 13 14  1  0  0  0  0
 13 15  2  0  0  0  0
  8 16  1  0  0  0  0
 16 17  1  0  0  0  0
 17 18  1  0  0  0  0
 18 19  2  0  0  0  0
 19 20  1  0  0  0  0
 20 21  2  0  0  0  0
 21 22  1  0  0  0  0
 21 23  1  0  0  0  0
 23 24  2  0  0  0  0
  5 25  1  0  0  0  0
 25 26  2  0  0  0  0
 26  2  1  0  0  0  0
 17  6  2  0  0  0  0
 24 18  1  0  0  0  0
 15  9  1  0  0  0  0
  1 27  1  0  0  0  0
  1 28  1  0  0  0  0
  1 29  1  0  0  0  0
  3 30  1  0  0  0  0
  4 31  1  0  0  0  0
 10 32  1  0  0  0  0
 11 33  1  0  0  0  0
 12 34  1  0  0  0  0
 14 35  1  0  0  0  0
 15 36  1  0  0  0  0
 16 37  1  0  0  0  0
 19 38  1  0  0  0  0
 20 39  1  0  0  0  0
 22 40  1  0  0  0  0
 22 41  1  0  0  0  0
 22 42  1  0  0  0  0
 23 43  1  0  0  0  0
 24 44  1  0  0  0  0
 25 45  1  0  0  0  0
 26 46  1  0  0  0  0
M  END
