
  xtb     03012221263D
 energy: -11.301021872539 gnorm: 0.000227219456 xtb: 6.4.1 (afa7bdf)
 61 63  0     0  0            999 V2000
   -6.7019    1.4557   -0.7335 C   0  0  0  0  0  0  0  0  0  0  0  0
   -5.3201    2.0626   -0.6063 C   0  0  0  0  0  0  0  0  0  0  0  0
   -4.3153    1.0848   -0.5065 O   0  0  0  0  0  0  0  0  0  0  0  0
   -3.0854    1.6884   -0.4379 C   0  0  0  0  0  0  0  0  0  0  0  0
   -2.9434    2.9004   -0.4670 O   0  0  0  0  0  0  0  0  0  0  0  0
   -1.9241    0.7919   -0.3380 C   0  0  0  0  0  0  0  0  0  0  0  0
   -1.9431   -0.6020   -0.4908 C   0  0  0  0  0  0  0  0  0  0  0  0
   -3.0820   -1.3512   -0.7364 N   0  0  0  0  0  0  0  0  0  0  0  0
   -3.0831   -2.8310   -0.6831 C   0  0  0  0  0  0  0  0  0  0  0  0
   -4.5020   -3.3491   -0.9526 C   0  0  0  0  0  0  0  0  0  0  0  0
   -2.6158   -3.2716    0.7088 C   0  0  0  0  0  0  0  0  0  0  0  0
   -2.1203   -3.3565   -1.7539 C   0  0  0  0  0  0  0  0  0  0  0  0
   -0.6869   -1.1096   -0.3580 O   0  0  0  0  0  0  0  0  0  0  0  0
    0.1581   -0.0455   -0.1306 C   0  0  0  0  0  0  0  0  0  0  0  0
    1.5948   -0.2184    0.0587 C   0  0  0  0  0  0  0  0  0  0  0  0
    2.1014   -1.4984    0.2718 C   0  0  0  0  0  0  0  0  0  0  0  0
    3.4474   -1.7019    0.4440 C   0  0  0  0  0  0  0  0  0  0  0  0
    4.3471   -0.6365    0.4027 C   0  0  0  0  0  0  0  0  0  0  0  0
    5.7974   -0.8551    0.5836 C   0  0  0  0  0  0  0  0  0  0  0  0
    6.7277   -0.1385   -0.1697 C   0  0  0  0  0  0  0  0  0  0  0  0
    8.0795   -0.3426    0.0022 C   0  0  0  0  0  0  0  0  0  0  0  0
    8.5321   -1.2621    0.9273 C   0  0  0  0  0  0  0  0  0  0  0  0
    7.6247   -1.9795    1.6811 C   0  0  0  0  0  0  0  0  0  0  0  0
    6.2715   -1.7813    1.5130 C   0  0  0  0  0  0  0  0  0  0  0  0
    3.8379    0.6422    0.1783 C   0  0  0  0  0  0  0  0  0  0  0  0
    2.4934    0.8469    0.0094 C   0  0  0  0  0  0  0  0  0  0  0  0
   -0.5813    1.1435   -0.1010 C   0  0  0  0  0  0  0  0  0  0  0  0
   -0.0978    2.5175    0.2073 C   0  0  0  0  0  0  0  0  0  0  0  0
    0.6628    3.0938   -0.5521 O   0  0  0  0  0  0  0  0  0  0  0  0
   -0.5605    3.0615    1.3802 O   0  0  0  0  0  0  0  0  0  0  0  0
   -0.2881    4.4409    1.4127 C   0  0  0  0  0  0  0  0  0  0  0  0
   -1.1115    5.1905    0.3851 C   0  0  0  0  0  0  0  0  0  0  0  0
   -6.7628    0.8199   -1.6178 H   0  0  0  0  0  0  0  0  0  0  0  0
   -7.4806    2.2173   -0.8111 H   0  0  0  0  0  0  0  0  0  0  0  0
   -6.9278    0.8287    0.1299 H   0  0  0  0  0  0  0  0  0  0  0  0
   -5.0728    2.6902   -1.4725 H   0  0  0  0  0  0  0  0  0  0  0  0
   -5.2372    2.7002    0.2833 H   0  0  0  0  0  0  0  0  0  0  0  0
   -4.0008   -0.9125   -0.6614 H   0  0  0  0  0  0  0  0  0  0  0  0
   -4.8525   -3.0166   -1.9282 H   0  0  0  0  0  0  0  0  0  0  0  0
   -4.5304   -4.4375   -0.9336 H   0  0  0  0  0  0  0  0  0  0  0  0
   -5.1974   -2.9788   -0.2010 H   0  0  0  0  0  0  0  0  0  0  0  0
   -1.6180   -2.8854    0.9105 H   0  0  0  0  0  0  0  0  0  0  0  0
   -3.2837   -2.8847    1.4765 H   0  0  0  0  0  0  0  0  0  0  0  0
   -2.5883   -4.3571    0.7907 H   0  0  0  0  0  0  0  0  0  0  0  0
   -1.1181   -2.9669   -1.5825 H   0  0  0  0  0  0  0  0  0  0  0  0
   -2.0744   -4.4444   -1.7450 H   0  0  0  0  0  0  0  0  0  0  0  0
   -2.4375   -3.0321   -2.7434 H   0  0  0  0  0  0  0  0  0  0  0  0
    1.4149   -2.3255    0.2960 H   0  0  0  0  0  0  0  0  0  0  0  0
    3.8250   -2.6994    0.5965 H   0  0  0  0  0  0  0  0  0  0  0  0
    6.3779    0.5677   -0.9018 H   0  0  0  0  0  0  0  0  0  0  0  0
    8.7871    0.2167   -0.5896 H   0  0  0  0  0  0  0  0  0  0  0  0
    9.5898   -1.4191    1.0606 H   0  0  0  0  0  0  0  0  0  0  0  0
    7.9770   -2.6962    2.4064 H   0  0  0  0  0  0  0  0  0  0  0  0
    5.5672   -2.3306    2.1123 H   0  0  0  0  0  0  0  0  0  0  0  0
    4.5159    1.4791    0.1496 H   0  0  0  0  0  0  0  0  0  0  0  0
    2.1152    1.8322   -0.1863 H   0  0  0  0  0  0  0  0  0  0  0  0
   -0.5024    4.7872    2.4325 H   0  0  0  0  0  0  0  0  0  0  0  0
    0.7901    4.5685    1.2441 H   0  0  0  0  0  0  0  0  0  0  0  0
   -0.9561    6.2692    0.4266 H   0  0  0  0  0  0  0  0  0  0  0  0
   -0.8604    4.8407   -0.6174 H   0  0  0  0  0  0  0  0  0  0  0  0
   -2.1720    4.9794    0.5275 H   0  0  0  0  0  0  0  0  0  0  0  0
  1  2  1  0  0  0  0
  2  3  1  0  0  0  0
  3  4  1  0  0  0  0
  4  5  2  0  0  0  0
  4  6  1  0  0  0  0
  6  7  2  0  0  0  0
  7  8  1  0  0  0  0
  8  9  1  0  0  0  0
  9 10  1  0  0  0  0
  9 11  1  0  0  0  0
  9 12  1  0  0  0  0
  7 13  1  0  0  0  0
 13 14  1  0  0  0  0
 14 15  1  0  0  0  0
 15 16  2  0  0  0  0
 16 17  1  0  0  0  0
 17 18  2  0  0  0  0
 18 19  1  0  0  0  0
 19 20  2  0  0  0  0
 20 21  1  0  0  0  0
 21 22  2  0  0  0  0
 22 23  1  0  0  0  0
 23 24  2  0  0  0  0
 18 25  1  0  0  0  0
 25 26  2  0  0  0  0
 14 27  2  0  0  0  0
 27 28  1  0  0  0  0
 28 29  2  0  0  0  0
 28 30  1  0  0  0  0
 30 31  1  0  0  0  0
 31 32  1  0  0  0  0
 27  6  1  0  0  0  0
 26 15  1  0  0  0  0
 24 19  1  0  0  0  0
  1 33  1  0  0  0  0
  1 34  1  0  0  0  0
  1 35  1  0  0  0  0
  2 36  1  0  0  0  0
  2 37  1  0  0  0  0
  8 38  1  0  0  0  0
 10 39  1  0  0  0  0
 10 40  1  0  0  0  0
 10 41  1  0  0  0  0
 11 42  1  0  0  0  0
 11 43  1  0  0  0  0
 11 44  1  0  0  0  0
 12 45  1  0  0  0  0
 12 46  1  0  0  0  0
 12 47  1  0  0  0  0
 16 48  1  0  0  0  0
 17 49  1  0  0  0  0
 20 50  1  0  0  0  0
 21 51  1  0  0  0  0
 22 52  1  0  0  0  0
 23 53  1  0  0  0  0
 24 54  1  0  0  0  0
 25 55  1  0  0  0  0
 26 56  1  0  0  0  0
 31 57  1  0  0  0  0
 31 58  1  0  0  0  0
 32 59  1  0  0  0  0
 32 60  1  0  0  0  0
 32 61  1  0  0  0  0
M  END
