
  xtb     03012221303D
 energy: -14.378506522003 gnorm: 0.000596403739 xtb: 6.4.1 (afa7bdf)
 70 74  0     0  0            999 V2000
    0.1577    6.6427    0.2078 C   0  0  0  0  0  0  0  0  0  0  0  0
    0.0501    5.6820    1.3816 C   0  0  0  0  0  0  0  0  0  0  0  0
   -0.2689    4.2431    0.9632 C   0  0  0  0  0  0  0  0  0  0  0  0
    0.8509    3.5752    0.1630 C   0  0  0  0  0  0  0  0  0  0  0  0
    0.5275    2.1394   -0.2600 C   0  0  0  0  0  0  0  0  0  0  0  0
    0.4170    1.1713    0.9050 C   0  0  0  0  0  0  0  0  0  0  0  0
    0.1567   -0.1948    0.4492 N   0  0  0  0  0  0  0  0  0  0  0  0
   -1.1078   -0.7313    0.1779 C   0  0  0  0  0  0  0  0  0  0  0  0
   -2.3850   -0.2039    0.3440 C   0  0  0  0  0  0  0  0  0  0  0  0
   -3.4981   -0.9576   -0.0110 C   0  0  0  0  0  0  0  0  0  0  0  0
   -4.8135   -0.3689    0.1831 C   0  0  0  0  0  0  0  0  0  0  0  0
   -6.0314   -0.9055   -0.0812 C   0  0  0  0  0  0  0  0  0  0  0  0
   -6.1773   -2.1980   -0.5910 C   0  0  0  0  0  0  0  0  0  0  0  0
   -6.2949   -3.2775   -1.0060 N   0  0  0  0  0  0  0  0  0  0  0  0
   -7.2778   -0.1628    0.1888 C   0  0  0  0  0  0  0  0  0  0  0  0
   -7.3035    1.2235    0.3487 C   0  0  0  0  0  0  0  0  0  0  0  0
   -8.4859    1.8836    0.6007 C   0  0  0  0  0  0  0  0  0  0  0  0
   -9.6696    1.1807    0.6957 C   0  0  0  0  0  0  0  0  0  0  0  0
   -9.6681   -0.1888    0.5307 C   0  0  0  0  0  0  0  0  0  0  0  0
   -8.4886   -0.8508    0.2774 C   0  0  0  0  0  0  0  0  0  0  0  0
   -3.2945   -2.2568   -0.5412 C   0  0  0  0  0  0  0  0  0  0  0  0
   -2.0455   -2.7876   -0.7156 C   0  0  0  0  0  0  0  0  0  0  0  0
   -0.9333   -2.0230   -0.3549 C   0  0  0  0  0  0  0  0  0  0  0  0
    0.4805   -2.2708   -0.4241 C   0  0  0  0  0  0  0  0  0  0  0  0
    1.2278   -3.3592   -0.8807 C   0  0  0  0  0  0  0  0  0  0  0  0
    2.5934   -3.2857   -0.8370 C   0  0  0  0  0  0  0  0  0  0  0  0
    3.2748   -2.1431   -0.3462 C   0  0  0  0  0  0  0  0  0  0  0  0
    4.7240   -2.0405   -0.2828 C   0  0  0  0  0  0  0  0  0  0  0  0
    5.6571   -2.9455   -0.6715 C   0  0  0  0  0  0  0  0  0  0  0  0
    5.3076   -4.1674   -1.2516 C   0  0  0  0  0  0  0  0  0  0  0  0
    5.0124   -5.1791   -1.7425 N   0  0  0  0  0  0  0  0  0  0  0  0
    7.1012   -2.6753   -0.5326 C   0  0  0  0  0  0  0  0  0  0  0  0
    7.5999   -1.6854    0.3158 C   0  0  0  0  0  0  0  0  0  0  0  0
    8.9549   -1.4608    0.4197 C   0  0  0  0  0  0  0  0  0  0  0  0
    9.8448   -2.2179   -0.3144 C   0  0  0  0  0  0  0  0  0  0  0  0
    9.3739   -3.2082   -1.1512 C   0  0  0  0  0  0  0  0  0  0  0  0
    8.0207   -3.4357   -1.2560 C   0  0  0  0  0  0  0  0  0  0  0  0
    2.5224   -1.0640    0.1037 C   0  0  0  0  0  0  0  0  0  0  0  0
    1.1324   -1.1241    0.0688 C   0  0  0  0  0  0  0  0  0  0  0  0
    0.3350    7.6698    0.5349 H   0  0  0  0  0  0  0  0  0  0  0  0
   -0.7577    6.6428   -0.3867 H   0  0  0  0  0  0  0  0  0  0  0  0
    0.9768    6.3723   -0.4604 H   0  0  0  0  0  0  0  0  0  0  0  0
   -0.7196    6.0418    2.0787 H   0  0  0  0  0  0  0  0  0  0  0  0
    0.9838    5.6910    1.9592 H   0  0  0  0  0  0  0  0  0  0  0  0
   -0.4878    3.6397    1.8529 H   0  0  0  0  0  0  0  0  0  0  0  0
   -1.1939    4.2301    0.3742 H   0  0  0  0  0  0  0  0  0  0  0  0
    1.7748    3.5834    0.7529 H   0  0  0  0  0  0  0  0  0  0  0  0
    1.0715    4.1797   -0.7247 H   0  0  0  0  0  0  0  0  0  0  0  0
    1.2918    1.7658   -0.9529 H   0  0  0  0  0  0  0  0  0  0  0  0
   -0.4073    2.1221   -0.8319 H   0  0  0  0  0  0  0  0  0  0  0  0
   -0.3850    1.4625    1.5890 H   0  0  0  0  0  0  0  0  0  0  0  0
    1.3355    1.1718    1.4996 H   0  0  0  0  0  0  0  0  0  0  0  0
   -2.5043    0.7844    0.7462 H   0  0  0  0  0  0  0  0  0  0  0  0
   -4.8006    0.6156    0.6136 H   0  0  0  0  0  0  0  0  0  0  0  0
   -6.3949    1.7900    0.2501 H   0  0  0  0  0  0  0  0  0  0  0  0
   -8.4880    2.9551    0.7198 H   0  0  0  0  0  0  0  0  0  0  0  0
  -10.5928    1.7002    0.8924 H   0  0  0  0  0  0  0  0  0  0  0  0
  -10.5918   -0.7408    0.5980 H   0  0  0  0  0  0  0  0  0  0  0  0
   -8.4895   -1.9182    0.1407 H   0  0  0  0  0  0  0  0  0  0  0  0
   -4.1438   -2.8519   -0.8169 H   0  0  0  0  0  0  0  0  0  0  0  0
   -1.9072   -3.7734   -1.1224 H   0  0  0  0  0  0  0  0  0  0  0  0
    0.7257   -4.2312   -1.2600 H   0  0  0  0  0  0  0  0  0  0  0  0
    3.1605   -4.1243   -1.1927 H   0  0  0  0  0  0  0  0  0  0  0  0
    5.0862   -1.1089    0.1116 H   0  0  0  0  0  0  0  0  0  0  0  0
    6.9231   -1.1047    0.9161 H   0  0  0  0  0  0  0  0  0  0  0  0
    9.3228   -0.6930    1.0810 H   0  0  0  0  0  0  0  0  0  0  0  0
   10.9041   -2.0403   -0.2299 H   0  0  0  0  0  0  0  0  0  0  0  0
   10.0662   -3.8063   -1.7212 H   0  0  0  0  0  0  0  0  0  0  0  0
    7.6549   -4.2141   -1.9027 H   0  0  0  0  0  0  0  0  0  0  0  0
    3.0075   -0.1828    0.4789 H   0  0  0  0  0  0  0  0  0  0  0  0
  1  2  1  0  0  0  0
  2  3  1  0  0  0  0
  3  4  1  0  0  0  0
  4  5  1  0  0  0  0
  5  6  1  0  0  0  0
  6  7  1  0  0  0  0
  7  8  1  0  0  0  0
  8  9  2  0  0  0  0
  9 10  1  0  0  0  0
 10 11  1  0  0  0  0
 11 12  2  0  0  0  0
 12 13  1  0  0  0  0
 13 14  3  0  0  0  0
 12 15  1  0  0  0  0
 15 16  2  0  0  0  0
 16 17  1  0  0  0  0
 17 18  2  0  0  0  0
 18 19  1  0  0  0  0
 19 20  2  0  0  0  0
 10 21  2  0  0  0  0
 21 22  1  0  0  0  0
 22 23  2  0  0  0  0
 23 24  1  0  0  0  0
 24 25  2  0  0  0  0
 25 26  1  0  0  0  0
 26 27  2  0  0  0  0
 27 28  1  0  0  0  0
 28 29  2  0  0  0  0
 29 30  1  0  0  0  0
 30 31  3  0  0  0  0
 29 32  1  0  0  0  0
 32 33  2  0  0  0  0
 33 34  1  0  0  0  0
 34 35  2  0  0  0  0
 35 36  1  0  0  0  0
 36 37  2  0  0  0  0
 27 38  1  0  0  0  0
 38 39  2  0  0  0  0
 39  7  1  0  0  0  0
 23  8  1  0  0  0  0
 39 24  1  0  0  0  0
 20 15  1  0  0  0  0
 37 32  1  0  0  0  0
  1 40  1  0  0  0  0
  1 41  1  0  0  0  0
  1 42  1  0  0  0  0
  2 43  1  0  0  0  0
  2 44  1  0  0  0  0
  3 45  1  0  0  0  0
  3 46  1  0  0  0  0
  4 47  1  0  0  0  0
  4 48  1  0  0  0  0
  5 49  1  0  0  0  0
  5 50  1  0  0  0  0
  6 51  1  0  0  0  0
  6 52  1  0  0  0  0
  9 53  1  0  0  0  0
 11 54  1  0  0  0  0
 16 55  1  0  0  0  0
 17 56  1  0  0  0  0
 18 57  1  0  0  0  0
 19 58  1  0  0  0  0
 20 59  1  0  0  0  0
 21 60  1  0  0  0  0
 22 61  1  0  0  0  0
 25 62  1  0  0  0  0
 26 63  1  0  0  0  0
 28 64  1  0  0  0  0
 33 65  1  0  0  0  0
 34 66  1  0  0  0  0
 35 67  1  0  0  0  0
 36 68  1  0  0  0  0
 37 69  1  0  0  0  0
 38 70  1  0  0  0  0
M  END
