
  xtb     03012221213D
 energy: -5.556793795590 gnorm: 0.000480204818 xtb: 6.4.1 (afa7bdf)
 28 31  0     0  0            999 V2000
   -3.1616   -2.5600    0.8552 O   0  0  0  0  0  0  0  0  0  0  0  0
   -2.8327   -1.4203    0.6201 C   0  0  0  0  0  0  0  0  0  0  0  0
   -3.8484   -0.3200    0.4606 C   0  0  0  0  0  0  0  0  0  0  0  0
   -3.3873    0.8138   -0.4872 C   0  0  0  0  0  0  0  0  0  0  0  0
   -1.9607    1.3329   -0.1859 C   0  0  0  0  0  0  0  0  0  0  0  0
   -1.0129    0.2170    0.1144 C   0  0  0  0  0  0  0  0  0  0  0  0
   -1.4318   -1.0488    0.4779 C   0  0  0  0  0  0  0  0  0  0  0  0
   -0.3359   -1.8633    0.6651 N   0  0  0  0  0  0  0  0  0  0  0  0
    0.8071   -1.1224    0.4277 C   0  0  0  0  0  0  0  0  0  0  0  0
    2.1638   -1.4755    0.4899 C   0  0  0  0  0  0  0  0  0  0  0  0
    3.0896   -0.5043    0.2017 C   0  0  0  0  0  0  0  0  0  0  0  0
    2.6843    0.8352   -0.1528 C   0  0  0  0  0  0  0  0  0  0  0  0
    1.3619    1.1851   -0.2140 C   0  0  0  0  0  0  0  0  0  0  0  0
    0.4046    0.1895    0.0806 C   0  0  0  0  0  0  0  0  0  0  0  0
    3.8178    1.6026   -0.3910 O   0  0  0  0  0  0  0  0  0  0  0  0
    4.9110    0.7229   -0.1751 C   0  0  0  0  0  0  0  0  0  0  0  0
    4.4734   -0.5784    0.1865 O   0  0  0  0  0  0  0  0  0  0  0  0
   -4.0683    0.0899    1.4511 H   0  0  0  0  0  0  0  0  0  0  0  0
   -4.7825   -0.7691    0.1057 H   0  0  0  0  0  0  0  0  0  0  0  0
   -4.1038    1.6447   -0.4518 H   0  0  0  0  0  0  0  0  0  0  0  0
   -3.4223    0.4462   -1.5193 H   0  0  0  0  0  0  0  0  0  0  0  0
   -1.5733    1.9149   -1.0304 H   0  0  0  0  0  0  0  0  0  0  0  0
   -1.9829    2.0184    0.6682 H   0  0  0  0  0  0  0  0  0  0  0  0
   -0.3894   -2.8466    0.9318 H   0  0  0  0  0  0  0  0  0  0  0  0
    2.4711   -2.4691    0.7532 H   0  0  0  0  0  0  0  0  0  0  0  0
    1.0713    2.1839   -0.4767 H   0  0  0  0  0  0  0  0  0  0  0  0
    5.5358    1.1247    0.6342 H   0  0  0  0  0  0  0  0  0  0  0  0
    5.5019    0.6561   -1.0987 H   0  0  0  0  0  0  0  0  0  0  0  0
  1  2  2  0  0  0  0
  2  3  1  0  0  0  0
  3  4  1  0  0  0  0
  4  5  1  0  0  0  0
  5  6  1  0  0  0  0
  6  7  2  0  0  0  0
  7  8  1  0  0  0  0
  8  9  1  0  0  0  0
  9 10  2  0  0  0  0
 10 11  1  0  0  0  0
 11 12  2  0  0  0  0
 12 13  1  0  0  0  0
 13 14  2  0  0  0  0
 12 15  1  0  0  0  0
 15 16  1  0  0  0  0
 16 17  1  0  0  0  0
  7  2  1  0  0  0  0
 14  9  1  0  0  0  0
 14  6  1  0  0  0  0
 17 11  1  0  0  0  0
  3 18  1  0  0  0  0
  3 19  1  0  0  0  0
  4 20  1  0  0  0  0
  4 21  1  0  0  0  0
  5 22  1  0  0  0  0
  5 23  1  0  0  0  0
  8 24  1  0  0  0  0
 10 25  1  0  0  0  0
 13 26  1  0  0  0  0
 16 27  1  0  0  0  0
 16 28  1  0  0  0  0
M  END
