
  xtb     03012221283D
 energy: -11.241101099001 gnorm: 0.000233531206 xtb: 6.4.1 (afa7bdf)
 51 58  0     0  0            999 V2000
   -4.3521    1.5582   -1.0754 O   0  0  0  0  0  0  0  0  0  0  0  0
   -3.2561    0.6806   -1.6280 S   0  0  0  0  0  6  0  0  0  0  0  0
   -3.0537    0.3989   -3.0976 O   0  0  0  0  0  0  0  0  0  0  0  0
   -1.6834    1.2241   -0.9658 C   0  0  0  0  0  0  0  0  0  0  0  0
   -1.2241    0.2878   -0.1211 C   0  0  0  0  0  0  0  0  0  0  0  0
   -2.0547   -0.9080    0.0334 C   0  0  0  0  0  0  0  0  0  0  0  0
   -1.7830   -2.0249    0.8174 C   0  0  0  0  0  0  0  0  0  0  0  0
   -2.6815   -3.0685    0.8343 C   0  0  0  0  0  0  0  0  0  0  0  0
   -3.8408   -3.0082    0.0799 C   0  0  0  0  0  0  0  0  0  0  0  0
   -4.1140   -1.9042   -0.7061 C   0  0  0  0  0  0  0  0  0  0  0  0
   -3.2145   -0.8684   -0.7213 C   0  0  0  0  0  0  0  0  0  0  0  0
    0.1347    0.7107    0.4303 C   0  0  0  0  0  0  0  0  0  0  0  0
    1.2209   -0.3117    0.1075 C   0  0  0  0  0  0  0  0  0  0  0  0
    1.7703   -0.7661    1.2445 C   0  0  0  0  0  0  0  0  0  0  0  0
    1.1633   -0.1202    2.3981 C   0  0  0  0  0  0  0  0  0  0  0  0
    1.4046   -0.2799    3.7547 C   0  0  0  0  0  0  0  0  0  0  0  0
    0.6575    0.4528    4.6507 C   0  0  0  0  0  0  0  0  0  0  0  0
   -0.3178    1.3303    4.2066 C   0  0  0  0  0  0  0  0  0  0  0  0
   -0.5664    1.4948    2.8573 C   0  0  0  0  0  0  0  0  0  0  0  0
    0.1781    0.7679    1.9561 C   0  0  0  0  0  0  0  0  0  0  0  0
    3.0078   -1.9941    0.8343 S   0  0  0  0  0  6  0  0  0  0  0  0
    2.4994   -3.3286    1.3250 O   0  0  0  0  0  0  0  0  0  0  0  0
    4.3744   -1.4386    1.1515 O   0  0  0  0  0  0  0  0  0  0  0  0
    2.7005   -1.8592   -0.9294 C   0  0  0  0  0  0  0  0  0  0  0  0
    3.2780   -2.5291   -1.9782 C   0  0  0  0  0  0  0  0  0  0  0  0
    2.8503   -2.2461   -3.2620 C   0  0  0  0  0  0  0  0  0  0  0  0
    1.8571   -1.3077   -3.4847 C   0  0  0  0  0  0  0  0  0  0  0  0
    1.2821   -0.6364   -2.4285 C   0  0  0  0  0  0  0  0  0  0  0  0
    1.7121   -0.9120   -1.1343 C   0  0  0  0  0  0  0  0  0  0  0  0
    0.3572    2.0643   -0.2421 C   0  0  0  0  0  0  0  0  0  0  0  0
    1.4057    2.9529   -0.1660 C   0  0  0  0  0  0  0  0  0  0  0  0
    1.3439    4.1152   -0.9109 C   0  0  0  0  0  0  0  0  0  0  0  0
    0.2537    4.3865   -1.7211 C   0  0  0  0  0  0  0  0  0  0  0  0
   -0.7980    3.5006   -1.8042 C   0  0  0  0  0  0  0  0  0  0  0  0
   -0.7457    2.3322   -1.0585 C   0  0  0  0  0  0  0  0  0  0  0  0
   -0.8711   -2.0632    1.3893 H   0  0  0  0  0  0  0  0  0  0  0  0
   -2.4780   -3.9384    1.4357 H   0  0  0  0  0  0  0  0  0  0  0  0
   -4.5366   -3.8320    0.1017 H   0  0  0  0  0  0  0  0  0  0  0  0
   -5.0082   -1.8457   -1.3020 H   0  0  0  0  0  0  0  0  0  0  0  0
    2.1636   -0.9705    4.0830 H   0  0  0  0  0  0  0  0  0  0  0  0
    0.8327    0.3397    5.7072 H   0  0  0  0  0  0  0  0  0  0  0  0
   -0.8946    1.8931    4.9240 H   0  0  0  0  0  0  0  0  0  0  0  0
   -1.3262    2.1689    2.5043 H   0  0  0  0  0  0  0  0  0  0  0  0
    4.0451   -3.2599   -1.7895 H   0  0  0  0  0  0  0  0  0  0  0  0
    3.2929   -2.7650   -4.0976 H   0  0  0  0  0  0  0  0  0  0  0  0
    1.5286   -1.1031   -4.4896 H   0  0  0  0  0  0  0  0  0  0  0  0
    0.4998    0.0871   -2.5854 H   0  0  0  0  0  0  0  0  0  0  0  0
    2.2512    2.7317    0.4605 H   0  0  0  0  0  0  0  0  0  0  0  0
    2.1592    4.8201   -0.8615 H   0  0  0  0  0  0  0  0  0  0  0  0
    0.2280    5.2980   -2.2939 H   0  0  0  0  0  0  0  0  0  0  0  0
   -1.6515    3.6935   -2.4328 H   0  0  0  0  0  0  0  0  0  0  0  0
  1  2  2  0  0  0  0
  2  3  2  0  0  0  0
  2  4  1  0  0  0  0
  4  5  2  0  0  0  0
  5  6  1  0  0  0  0
  6  7  2  0  0  0  0
  7  8  1  0  0  0  0
  8  9  2  0  0  0  0
  9 10  1  0  0  0  0
 10 11  2  0  0  0  0
  5 12  1  0  0  0  0
 12 13  1  0  0  0  0
 13 14  2  0  0  0  0
 14 15  1  0  0  0  0
 15 16  2  0  0  0  0
 16 17  1  0  0  0  0
 17 18  2  0  0  0  0
 18 19  1  0  0  0  0
 19 20  2  0  0  0  0
 14 21  1  0  0  0  0
 21 22  2  0  0  0  0
 21 23  2  0  0  0  0
 21 24  1  0  0  0  0
 24 25  2  0  0  0  0
 25 26  1  0  0  0  0
 26 27  2  0  0  0  0
 27 28  1  0  0  0  0
 28 29  2  0  0  0  0
 12 30  1  0  0  0  0
 30 31  2  0  0  0  0
 31 32  1  0  0  0  0
 32 33  2  0  0  0  0
 33 34  1  0  0  0  0
 34 35  2  0  0  0  0
 11  2  1  0  0  0  0
 20 12  1  0  0  0  0
 29 24  1  0  0  0  0
 35 30  1  0  0  0  0
 35  4  1  0  0  0  0
 11  6  1  0  0  0  0
 29 13  1  0  0  0  0
 20 15  1  0  0  0  0
  7 36  1  0  0  0  0
  8 37  1  0  0  0  0
  9 38  1  0  0  0  0
 10 39  1  0  0  0  0
 16 40  1  0  0  0  0
 17 41  1  0  0  0  0
 18 42  1  0  0  0  0
 19 43  1  0  0  0  0
 25 44  1  0  0  0  0
 26 45  1  0  0  0  0
 27 46  1  0  0  0  0
 28 47  1  0  0  0  0
 31 48  1  0  0  0  0
 32 49  1  0  0  0  0
 33 50  1  0  0  0  0
 34 51  1  0  0  0  0
M  END
