
  xtb     03012221253D
 energy: -18.995317603429 gnorm: 0.000336745316 xtb: 6.4.1 (afa7bdf)
 90 98  0     0  0            999 V2000
    3.5429   -8.5536    0.2882 C   0  0  0  0  0  0  0  0  0  0  0  0
    2.9556   -7.1852    0.2389 C   0  0  0  0  0  0  0  0  0  0  0  0
    2.0413   -6.7702    1.1988 C   0  0  0  0  0  0  0  0  0  0  0  0
    1.5162   -5.4999    1.1688 C   0  0  0  0  0  0  0  0  0  0  0  0
    1.8895   -4.5891    0.1762 C   0  0  0  0  0  0  0  0  0  0  0  0
    1.3259   -3.2204    0.1400 C   0  0  0  0  0  0  0  0  0  0  0  0
   -0.0817   -3.0466    0.1296 C   0  0  0  0  0  0  0  0  0  0  0  0
   -0.7709   -1.8840    0.1921 N   0  0  0  0  0  0  0  0  0  0  0  0
   -2.0809   -2.2220    0.1908 C   0  0  0  0  0  0  0  0  0  0  0  0
   -3.2016   -1.3552    0.2587 C   0  0  0  0  0  0  0  0  0  0  0  0
   -4.5611   -1.9372    0.3455 C   0  0  0  0  0  0  0  0  0  0  0  0
   -4.8991   -2.8296    1.3670 C   0  0  0  0  0  0  0  0  0  0  0  0
   -6.1610   -3.3691    1.4479 C   0  0  0  0  0  0  0  0  0  0  0  0
   -7.1343   -3.0461    0.5110 C   0  0  0  0  0  0  0  0  0  0  0  0
   -8.5089   -3.6110    0.6166 C   0  0  0  0  0  0  0  0  0  0  0  0
   -6.8100   -2.1539   -0.5030 C   0  0  0  0  0  0  0  0  0  0  0  0
   -5.5492   -1.6122   -0.5882 C   0  0  0  0  0  0  0  0  0  0  0  0
   -3.0575    0.0531    0.2181 C   0  0  0  0  0  0  0  0  0  0  0  0
   -4.1275    0.9794    0.2876 C   0  0  0  0  0  0  0  0  0  0  0  0
   -3.6139    2.2331    0.1607 C   0  0  0  0  0  0  0  0  0  0  0  0
   -2.2075    2.1241    0.0282 C   0  0  0  0  0  0  0  0  0  0  0  0
   -1.8977    0.7829    0.0787 N   0  0  0  0  0  0  0  0  0  0  0  0
   -1.3294    3.2149   -0.1839 C   0  0  0  0  0  0  0  0  0  0  0  0
   -1.8972    4.5799   -0.3020 C   0  0  0  0  0  0  0  0  0  0  0  0
   -2.6396    5.1466    0.7380 C   0  0  0  0  0  0  0  0  0  0  0  0
   -3.1689    6.4103    0.6233 C   0  0  0  0  0  0  0  0  0  0  0  0
   -2.9851    7.1566   -0.5339 C   0  0  0  0  0  0  0  0  0  0  0  0
   -3.5383    8.5355   -0.6461 C   0  0  0  0  0  0  0  0  0  0  0  0
   -2.2406    6.6052   -1.5688 C   0  0  0  0  0  0  0  0  0  0  0  0
   -1.7095    5.3419   -1.4590 C   0  0  0  0  0  0  0  0  0  0  0  0
    0.0735    3.0353   -0.2857 C   0  0  0  0  0  0  0  0  0  0  0  0
    0.7702    1.8817   -0.1652 N   0  0  0  0  0  0  0  0  0  0  0  0
    2.0772    2.2192   -0.2579 C   0  0  0  0  0  0  0  0  0  0  0  0
    3.2028    1.3619   -0.1607 C   0  0  0  0  0  0  0  0  0  0  0  0
    4.5649    1.9434   -0.1943 C   0  0  0  0  0  0  0  0  0  0  0  0
    4.9501    2.9359    0.7116 C   0  0  0  0  0  0  0  0  0  0  0  0
    6.2165    3.4702    0.6811 C   0  0  0  0  0  0  0  0  0  0  0  0
    7.1516    3.0318   -0.2477 C   0  0  0  0  0  0  0  0  0  0  0  0
    8.5151    3.6306   -0.2946 C   0  0  0  0  0  0  0  0  0  0  0  0
    6.7754    2.0513   -1.1569 C   0  0  0  0  0  0  0  0  0  0  0  0
    5.5100    1.5145   -1.1306 C   0  0  0  0  0  0  0  0  0  0  0  0
    3.0614   -0.0408   -0.0263 C   0  0  0  0  0  0  0  0  0  0  0  0
    4.1356   -0.9487    0.1458 C   0  0  0  0  0  0  0  0  0  0  0  0
    3.6209   -2.2055    0.2295 C   0  0  0  0  0  0  0  0  0  0  0  0
    2.2116   -2.1153    0.1144 C   0  0  0  0  0  0  0  0  0  0  0  0
    1.8998   -0.7808   -0.0244 N   0  0  0  0  0  0  0  0  0  0  0  0
    2.2112    3.6319   -0.4684 C   0  0  0  0  0  0  0  0  0  0  0  0
    0.9698    4.1389   -0.4765 C   0  0  0  0  0  0  0  0  0  0  0  0
   -2.2262   -3.6455    0.0882 C   0  0  0  0  0  0  0  0  0  0  0  0
   -0.9870   -4.1566    0.0484 C   0  0  0  0  0  0  0  0  0  0  0  0
    2.8190   -5.0119   -0.7782 C   0  0  0  0  0  0  0  0  0  0  0  0
    3.3418   -6.2831   -0.7441 C   0  0  0  0  0  0  0  0  0  0  0  0
    4.4576   -8.5610    0.8817 H   0  0  0  0  0  0  0  0  0  0  0  0
    2.8467   -9.2651    0.7338 H   0  0  0  0  0  0  0  0  0  0  0  0
    3.7875   -8.9129   -0.7120 H   0  0  0  0  0  0  0  0  0  0  0  0
    1.7481   -7.4566    1.9744 H   0  0  0  0  0  0  0  0  0  0  0  0
    0.8179   -5.1841    1.9260 H   0  0  0  0  0  0  0  0  0  0  0  0
   -4.1545   -3.0785    2.1049 H   0  0  0  0  0  0  0  0  0  0  0  0
   -6.4071   -4.0482    2.2459 H   0  0  0  0  0  0  0  0  0  0  0  0
   -9.1432   -2.9729    1.2327 H   0  0  0  0  0  0  0  0  0  0  0  0
   -8.9743   -3.7005   -0.3656 H   0  0  0  0  0  0  0  0  0  0  0  0
   -8.4926   -4.6044    1.0663 H   0  0  0  0  0  0  0  0  0  0  0  0
   -7.5605   -1.8895   -1.2281 H   0  0  0  0  0  0  0  0  0  0  0  0
   -5.3021   -0.9380   -1.3914 H   0  0  0  0  0  0  0  0  0  0  0  0
   -5.1682    0.7325    0.4153 H   0  0  0  0  0  0  0  0  0  0  0  0
   -4.1788    3.1501    0.1479 H   0  0  0  0  0  0  0  0  0  0  0  0
   -0.9528    0.3878   -0.0024 H   0  0  0  0  0  0  0  0  0  0  0  0
   -2.7786    4.5802    1.6439 H   0  0  0  0  0  0  0  0  0  0  0  0
   -3.7313    6.8353    1.4368 H   0  0  0  0  0  0  0  0  0  0  0  0
   -2.8195    9.2715   -0.2849 H   0  0  0  0  0  0  0  0  0  0  0  0
   -3.7789    8.7796   -1.6814 H   0  0  0  0  0  0  0  0  0  0  0  0
   -4.4523    8.6417   -0.0608 H   0  0  0  0  0  0  0  0  0  0  0  0
   -2.0833    7.1802   -2.4650 H   0  0  0  0  0  0  0  0  0  0  0  0
   -1.1485    4.9162   -2.2744 H   0  0  0  0  0  0  0  0  0  0  0  0
    4.2389    3.2687    1.4494 H   0  0  0  0  0  0  0  0  0  0  0  0
    6.4953    4.2369    1.3833 H   0  0  0  0  0  0  0  0  0  0  0  0
    8.5316    4.5047   -0.9464 H   0  0  0  0  0  0  0  0  0  0  0  0
    8.8413    3.9442    0.6976 H   0  0  0  0  0  0  0  0  0  0  0  0
    9.2465    2.9152   -0.6722 H   0  0  0  0  0  0  0  0  0  0  0  0
    7.4884    1.7155   -1.8901 H   0  0  0  0  0  0  0  0  0  0  0  0
    5.2249    0.7627   -1.8478 H   0  0  0  0  0  0  0  0  0  0  0  0
    5.1777   -0.6857    0.2181 H   0  0  0  0  0  0  0  0  0  0  0  0
    4.1837   -3.1119    0.3786 H   0  0  0  0  0  0  0  0  0  0  0  0
    0.9493   -0.3968   -0.0932 H   0  0  0  0  0  0  0  0  0  0  0  0
    3.1303    4.1791   -0.5985 H   0  0  0  0  0  0  0  0  0  0  0  0
    0.6989    5.1758   -0.5879 H   0  0  0  0  0  0  0  0  0  0  0  0
   -3.1515   -4.1944    0.0280 H   0  0  0  0  0  0  0  0  0  0  0  0
   -0.7227   -5.1967   -0.0488 H   0  0  0  0  0  0  0  0  0  0  0  0
    3.1119   -4.3262   -1.5559 H   0  0  0  0  0  0  0  0  0  0  0  0
    4.0591   -6.5912   -1.4852 H   0  0  0  0  0  0  0  0  0  0  0  0
  1  2  1  0  0  0  0
  2  3  2  0  0  0  0
  3  4  1  0  0  0  0
  4  5  2  0  0  0  0
  5  6  1  0  0  0  0
  6  7  1  0  0  0  0
  7  8  2  0  0  0  0
  8  9  1  0  0  0  0
  9 10  2  0  0  0  0
 10 11  1  0  0  0  0
 11 12  2  0  0  0  0
 12 13  1  0  0  0  0
 13 14  2  0  0  0  0
 14 15  1  0  0  0  0
 14 16  1  0  0  0  0
 16 17  2  0  0  0  0
 10 18  1  0  0  0  0
 18 19  2  0  0  0  0
 19 20  1  0  0  0  0
 20 21  2  0  0  0  0
 21 22  1  0  0  0  0
 21 23  1  0  0  0  0
 23 24  1  0  0  0  0
 24 25  2  0  0  0  0
 25 26  1  0  0  0  0
 26 27  2  0  0  0  0
 27 28  1  0  0  0  0
 27 29  1  0  0  0  0
 29 30  2  0  0  0  0
 23 31  2  0  0  0  0
 31 32  1  0  0  0  0
 32 33  2  0  0  0  0
 33 34  1  0  0  0  0
 34 35  1  0  0  0  0
 35 36  2  0  0  0  0
 36 37  1  0  0  0  0
 37 38  2  0  0  0  0
 38 39  1  0  0  0  0
 38 40  1  0  0  0  0
 40 41  2  0  0  0  0
 34 42  2  0  0  0  0
 42 43  1  0  0  0  0
 43 44  2  0  0  0  0
 44 45  1  0  0  0  0
 45 46  1  0  0  0  0
 33 47  1  0  0  0  0
 47 48  2  0  0  0  0
  9 49  1  0  0  0  0
 49 50  2  0  0  0  0
  5 51  1  0  0  0  0
 51 52  2  0  0  0  0
 52  2  1  0  0  0  0
 45  6  2  0  0  0  0
 50  7  1  0  0  0  0
 17 11  1  0  0  0  0
 22 18  1  0  0  0  0
 30 24  1  0  0  0  0
 48 31  1  0  0  0  0
 41 35  1  0  0  0  0
 46 42  1  0  0  0  0
  1 53  1  0  0  0  0
  1 54  1  0  0  0  0
  1 55  1  0  0  0  0
  3 56  1  0  0  0  0
  4 57  1  0  0  0  0
 12 58  1  0  0  0  0
 13 59  1  0  0  0  0
 15 60  1  0  0  0  0
 15 61  1  0  0  0  0
 15 62  1  0  0  0  0
 16 63  1  0  0  0  0
 17 64  1  0  0  0  0
 19 65  1  0  0  0  0
 20 66  1  0  0  0  0
 22 67  1  0  0  0  0
 25 68  1  0  0  0  0
 26 69  1  0  0  0  0
 28 70  1  0  0  0  0
 28 71  1  0  0  0  0
 28 72  1  0  0  0  0
 29 73  1  0  0  0  0
 30 74  1  0  0  0  0
 36 75  1  0  0  0  0
 37 76  1  0  0  0  0
 39 77  1  0  0  0  0
 39 78  1  0  0  0  0
 39 79  1  0  0  0  0
 40 80  1  0  0  0  0
 41 81  1  0  0  0  0
 43 82  1  0  0  0  0
 44 83  1  0  0  0  0
 46 84  1  0  0  0  0
 47 85  1  0  0  0  0
 48 86  1  0  0  0  0
 49 87  1  0  0  0  0
 50 88  1  0  0  0  0
 51 89  1  0  0  0  0
 52 90  1  0  0  0  0
M  END
