
  xtb     03012221313D
 energy: -7.399057433926 gnorm: 0.000250045587 xtb: 6.4.1 (afa7bdf)
 35 39  0     0  0            999 V2000
    3.7904   -1.1681    0.4208 C   0  0  0  0  0  0  0  0  0  0  0  0
    3.5692   -1.3553   -0.9291 C   0  0  0  0  0  0  0  0  0  0  0  0
    2.4420   -0.8168   -1.5247 C   0  0  0  0  0  0  0  0  0  0  0  0
    1.5471   -0.0949   -0.7678 C   0  0  0  0  0  0  0  0  0  0  0  0
    0.0896    0.5617   -1.5997 P   0  0  0  0  0  0  0  0  0  0  0  0
    0.0163    2.1715   -0.7874 C   0  0  0  0  0  0  0  0  0  0  0  0
    0.7204    3.3210   -1.0475 C   0  0  0  0  0  0  0  0  0  0  0  0
    0.4908    4.4409   -0.2667 C   0  0  0  0  0  0  0  0  0  0  0  0
   -0.4344    4.4012    0.7634 C   0  0  0  0  0  0  0  0  0  0  0  0
   -1.1402    3.2458    1.0290 C   0  0  0  0  0  0  0  0  0  0  0  0
   -0.9158    2.1138    0.2447 C   0  0  0  0  0  0  0  0  0  0  0  0
   -1.5487    0.7905    0.4038 C   0  0  0  0  0  0  0  0  0  0  0  0
   -2.7308    0.1416    1.5351 S   0  0  0  0  0  0  0  0  0  0  0  0
   -2.6339   -1.4517    0.8014 C   0  0  0  0  0  0  0  0  0  0  0  0
   -3.2969   -2.6215    1.1520 C   0  0  0  0  0  0  0  0  0  0  0  0
   -3.0587   -3.7699    0.4370 C   0  0  0  0  0  0  0  0  0  0  0  0
   -2.1607   -3.7730   -0.6317 C   0  0  0  0  0  0  0  0  0  0  0  0
   -1.4988   -2.6281   -0.9923 C   0  0  0  0  0  0  0  0  0  0  0  0
   -1.7353   -1.4463   -0.2733 C   0  0  0  0  0  0  0  0  0  0  0  0
   -1.1413   -0.1551   -0.4837 C   0  0  0  0  0  0  0  0  0  0  0  0
    1.7631    0.0898    0.5789 C   0  0  0  0  0  0  0  0  0  0  0  0
    2.8883   -0.4463    1.1765 C   0  0  0  0  0  0  0  0  0  0  0  0
    4.6679   -1.5876    0.8857 H   0  0  0  0  0  0  0  0  0  0  0  0
    4.2719   -1.9211   -1.5188 H   0  0  0  0  0  0  0  0  0  0  0  0
    2.2530   -0.9582   -2.5777 H   0  0  0  0  0  0  0  0  0  0  0  0
    1.4407    3.3368   -1.8480 H   0  0  0  0  0  0  0  0  0  0  0  0
    1.0370    5.3494   -0.4619 H   0  0  0  0  0  0  0  0  0  0  0  0
   -0.6032    5.2798    1.3644 H   0  0  0  0  0  0  0  0  0  0  0  0
   -1.8564    3.2008    1.8304 H   0  0  0  0  0  0  0  0  0  0  0  0
   -3.9855   -2.6118    1.9792 H   0  0  0  0  0  0  0  0  0  0  0  0
   -3.5694   -4.6807    0.7044 H   0  0  0  0  0  0  0  0  0  0  0  0
   -1.9861   -4.6858   -1.1774 H   0  0  0  0  0  0  0  0  0  0  0  0
   -0.8003   -2.6191   -1.8106 H   0  0  0  0  0  0  0  0  0  0  0  0
    1.0493    0.6488    1.1605 H   0  0  0  0  0  0  0  0  0  0  0  0
    3.0592   -0.3017    2.2308 H   0  0  0  0  0  0  0  0  0  0  0  0
  1  2  2  0  0  0  0
  2  3  1  0  0  0  0
  3  4  2  0  0  0  0
  4  5  1  0  0  0  0
  5  6  1  0  0  0  0
  6  7  2  0  0  0  0
  7  8  1  0  0  0  0
  8  9  2  0  0  0  0
  9 10  1  0  0  0  0
 10 11  2  0  0  0  0
 11 12  1  0  0  0  0
 12 13  1  0  0  0  0
 13 14  1  0  0  0  0
 14 15  2  0  0  0  0
 15 16  1  0  0  0  0
 16 17  2  0  0  0  0
 17 18  1  0  0  0  0
 18 19  2  0  0  0  0
 19 20  1  0  0  0  0
  4 21  1  0  0  0  0
 21 22  2  0  0  0  0
 22  1  1  0  0  0  0
 20  5  1  0  0  0  0
 11  6  1  0  0  0  0
 20 12  2  0  0  0  0
 19 14  1  0  0  0  0
  1 23  1  0  0  0  0
  2 24  1  0  0  0  0
  3 25  1  0  0  0  0
  7 26  1  0  0  0  0
  8 27  1  0  0  0  0
  9 28  1  0  0  0  0
 10 29  1  0  0  0  0
 15 30  1  0  0  0  0
 16 31  1  0  0  0  0
 17 32  1  0  0  0  0
 18 33  1  0  0  0  0
 21 34  1  0  0  0  0
 22 35  1  0  0  0  0
M  END
