
  xtb     03012221253D
 energy: -10.570457854954 gnorm: 0.000278905605 xtb: 6.4.1 (afa7bdf)
 59 61  0     0  0            999 V2000
   -4.4005    3.1420   -1.5747 C   0  0  0  0  0  0  0  0  0  0  0  0
   -3.6625    2.2137   -2.5150 C   0  0  0  0  0  0  0  0  0  0  0  0
   -2.3838    1.8772   -2.0337 O   0  0  0  0  0  0  0  0  0  0  0  0
   -2.4815    1.0309   -0.9618 C   0  0  0  0  0  0  0  0  0  0  0  0
   -3.5341    0.5520   -0.5747 O   0  0  0  0  0  0  0  0  0  0  0  0
   -1.2184    0.6559   -0.2895 C   0  0  0  0  0  0  0  0  0  0  0  0
   -0.9623   -0.6010    0.2680 C   0  0  0  0  0  0  0  0  0  0  0  0
   -1.9135   -1.6661    0.3396 C   0  0  0  0  0  0  0  0  0  0  0  0
   -1.5984   -2.8730    0.8344 C   0  0  0  0  0  0  0  0  0  0  0  0
   -2.5002   -3.9996    0.9446 C   0  0  0  0  0  0  0  0  0  0  0  0
   -2.0352   -5.2059    1.4703 C   0  0  0  0  0  0  0  0  0  0  0  0
   -2.8681   -6.2946    1.5856 C   0  0  0  0  0  0  0  0  0  0  0  0
   -4.1842   -6.2077    1.1803 C   0  0  0  0  0  0  0  0  0  0  0  0
   -4.6633   -5.0234    0.6585 C   0  0  0  0  0  0  0  0  0  0  0  0
   -3.8348   -3.9312    0.5408 C   0  0  0  0  0  0  0  0  0  0  0  0
    0.3370   -0.6653    0.7206 O   0  0  0  0  0  0  0  0  0  0  0  0
    0.8944    0.5520    0.4743 C   0  0  0  0  0  0  0  0  0  0  0  0
    2.1972    0.9190    0.7670 N   0  0  0  0  0  0  0  0  0  0  0  0
    3.2051   -0.0881    1.0843 C   0  0  0  0  0  0  0  0  0  0  0  0
    4.5700    0.5747    1.4300 C   0  0  0  0  0  0  0  0  0  0  0  0
    5.4663    0.6850    0.1870 C   0  0  0  0  0  0  0  0  0  0  0  0
    5.8282   -0.7107   -0.3834 C   0  0  0  0  0  0  0  0  0  0  0  0
    4.7173   -1.7604   -0.1240 C   0  0  0  0  0  0  0  0  0  0  0  0
    3.3275   -1.1092   -0.0799 C   0  0  0  0  0  0  0  0  0  0  0  0
   -0.0357    1.4053   -0.1425 C   0  0  0  0  0  0  0  0  0  0  0  0
    0.2358    2.8088   -0.4923 C   0  0  0  0  0  0  0  0  0  0  0  0
    1.3905    3.1827   -0.6229 O   0  0  0  0  0  0  0  0  0  0  0  0
   -0.8428    3.6453   -0.6127 O   0  0  0  0  0  0  0  0  0  0  0  0
   -0.4256    4.9443   -0.9589 C   0  0  0  0  0  0  0  0  0  0  0  0
    0.2076    5.6792    0.2022 C   0  0  0  0  0  0  0  0  0  0  0  0
   -5.3839    3.4220   -1.9547 H   0  0  0  0  0  0  0  0  0  0  0  0
   -4.5334    2.6621   -0.6045 H   0  0  0  0  0  0  0  0  0  0  0  0
   -3.8239    4.0515   -1.4066 H   0  0  0  0  0  0  0  0  0  0  0  0
   -4.2098    1.2735   -2.6693 H   0  0  0  0  0  0  0  0  0  0  0  0
   -3.5214    2.6719   -3.5028 H   0  0  0  0  0  0  0  0  0  0  0  0
   -2.9067   -1.4545   -0.0085 H   0  0  0  0  0  0  0  0  0  0  0  0
   -0.5896   -3.0153    1.1778 H   0  0  0  0  0  0  0  0  0  0  0  0
   -1.0082   -5.2769    1.7878 H   0  0  0  0  0  0  0  0  0  0  0  0
   -2.4905   -7.2189    1.9945 H   0  0  0  0  0  0  0  0  0  0  0  0
   -4.8352   -7.0609    1.2712 H   0  0  0  0  0  0  0  0  0  0  0  0
   -5.6922   -4.9529    0.3416 H   0  0  0  0  0  0  0  0  0  0  0  0
   -4.2228   -3.0136    0.1342 H   0  0  0  0  0  0  0  0  0  0  0  0
    2.5654    1.7682    0.3339 H   0  0  0  0  0  0  0  0  0  0  0  0
    2.8294   -0.6176    1.9741 H   0  0  0  0  0  0  0  0  0  0  0  0
    5.0866   -0.0113    2.1976 H   0  0  0  0  0  0  0  0  0  0  0  0
    4.3929    1.5610    1.8727 H   0  0  0  0  0  0  0  0  0  0  0  0
    4.9372    1.2667   -0.5794 H   0  0  0  0  0  0  0  0  0  0  0  0
    6.3743    1.2620    0.4131 H   0  0  0  0  0  0  0  0  0  0  0  0
    6.7749   -1.0537    0.0542 H   0  0  0  0  0  0  0  0  0  0  0  0
    6.0185   -0.6347   -1.4620 H   0  0  0  0  0  0  0  0  0  0  0  0
    4.7482   -2.5583   -0.8795 H   0  0  0  0  0  0  0  0  0  0  0  0
    4.9029   -2.2612    0.8353 H   0  0  0  0  0  0  0  0  0  0  0  0
    3.1448   -0.5739   -1.0166 H   0  0  0  0  0  0  0  0  0  0  0  0
    2.5310   -1.8599   -0.0142 H   0  0  0  0  0  0  0  0  0  0  0  0
   -1.3096    5.4748   -1.3353 H   0  0  0  0  0  0  0  0  0  0  0  0
    0.2719    4.8431   -1.8017 H   0  0  0  0  0  0  0  0  0  0  0  0
    1.0842    5.1357    0.5565 H   0  0  0  0  0  0  0  0  0  0  0  0
    0.5211    6.6885   -0.0690 H   0  0  0  0  0  0  0  0  0  0  0  0
   -0.4882    5.7508    1.0382 H   0  0  0  0  0  0  0  0  0  0  0  0
  1  2  1  0  0  0  0
  2  3  1  0  0  0  0
  3  4  1  0  0  0  0
  4  5  2  0  0  0  0
  4  6  1  0  0  0  0
  6  7  2  0  0  0  0
  7  8  1  0  0  0  0
  8  9  2  0  0  0  0
  9 10  1  0  0  0  0
 10 11  2  0  0  0  0
 11 12  1  0  0  0  0
 12 13  2  0  0  0  0
 13 14  1  0  0  0  0
 14 15  2  0  0  0  0
  7 16  1  0  0  0  0
 16 17  1  0  0  0  0
 17 18  1  0  0  0  0
 18 19  1  0  0  0  0
 19 20  1  0  0  0  0
 20 21  1  0  0  0  0
 21 22  1  0  0  0  0
 22 23  1  0  0  0  0
 23 24  1  0  0  0  0
 17 25  2  0  0  0  0
 25 26  1  0  0  0  0
 26 27  2  0  0  0  0
 26 28  1  0  0  0  0
 28 29  1  0  0  0  0
 29 30  1  0  0  0  0
 25  6  1  0  0  0  0
 15 10  1  0  0  0  0
 24 19  1  0  0  0  0
  1 31  1  0  0  0  0
  1 32  1  0  0  0  0
  1 33  1  0  0  0  0
  2 34  1  0  0  0  0
  2 35  1  0  0  0  0
  8 36  1  0  0  0  0
  9 37  1  0  0  0  0
 11 38  1  0  0  0  0
 12 39  1  0  0  0  0
 13 40  1  0  0  0  0
 14 41  1  0  0  0  0
 15 42  1  0  0  0  0
 18 43  1  0  0  0  0
 19 44  1  0  0  0  0
 20 45  1  0  0  0  0
 20 46  1  0  0  0  0
 21 47  1  0  0  0  0
 21 48  1  0  0  0  0
 22 49  1  0  0  0  0
 22 50  1  0  0  0  0
 23 51  1  0  0  0  0
 23 52  1  0  0  0  0
 24 53  1  0  0  0  0
 24 54  1  0  0  0  0
 29 55  1  0  0  0  0
 29 56  1  0  0  0  0
 30 57  1  0  0  0  0
 30 58  1  0  0  0  0
 30 59  1  0  0  0  0
M  END
