
  xtb     03012221253D
 energy: -16.958415442269 gnorm: 0.000079487709 xtb: 6.4.1 (afa7bdf)
 92 98  0     0  0            999 V2000
   13.3866    0.6994   -0.6533 C   0  0  0  0  0  0  0  0  0  0  0  0
   12.5639   -0.5166   -1.0483 C   0  0  0  0  0  0  0  0  0  0  0  0
   11.3104   -0.7086   -0.1882 C   0  0  0  0  0  0  0  0  0  0  0  0
   10.3087    0.4484   -0.2620 C   0  0  0  0  0  0  0  0  0  0  0  0
    9.7774    0.7308   -1.6690 C   0  0  0  0  0  0  0  0  0  0  0  0
    8.9813   -0.4280   -2.2762 C   0  0  0  0  0  0  0  0  0  0  0  0
    7.7611   -0.7788   -1.4776 C   0  0  0  0  0  0  0  0  0  0  0  0
    6.6382    0.0604   -1.5028 C   0  0  0  0  0  0  0  0  0  0  0  0
    5.5267   -0.2213   -0.7635 C   0  0  0  0  0  0  0  0  0  0  0  0
    5.4669   -1.3663    0.0568 C   0  0  0  0  0  0  0  0  0  0  0  0
    4.3163   -1.7030    0.8430 C   0  0  0  0  0  0  0  0  0  0  0  0
    4.3276   -2.8705    1.6159 C   0  0  0  0  0  0  0  0  0  0  0  0
    5.4772   -3.6893    1.6358 C   0  0  0  0  0  0  0  0  0  0  0  0
    6.5729   -3.3780    0.9008 C   0  0  0  0  0  0  0  0  0  0  0  0
    6.5989   -2.2180    0.0892 C   0  0  0  0  0  0  0  0  0  0  0  0
    7.7292   -1.8968   -0.6861 C   0  0  0  0  0  0  0  0  0  0  0  0
    3.2502   -3.2361    2.3676 O   0  0  0  0  0  0  0  0  0  0  0  0
    1.9262   -2.6258    2.1319 B   0  0  0  0  0  4  0  0  0  0  0  0
    1.2163   -3.3922    1.1963 F   0  0  0  0  0  0  0  0  0  0  0  0
    1.2129   -2.5317    3.3342 F   0  0  0  0  0  0  0  0  0  0  0  0
    2.0634   -1.2121    1.5388 N   0  0  0  0  0  4  0  0  0  0  0  0
    0.9067   -0.3866    1.5770 C   0  0  0  0  0  0  0  0  0  0  0  0
   -0.3612   -0.9577    1.5787 C   0  0  0  0  0  0  0  0  0  0  0  0
   -1.4889   -0.1789    1.5624 C   0  0  0  0  0  0  0  0  0  0  0  0
   -1.3888    1.2097    1.5432 C   0  0  0  0  0  0  0  0  0  0  0  0
   -2.5477    2.0296    1.4731 N   0  0  0  0  0  4  0  0  0  0  0  0
   -3.6286    1.6885    0.8105 C   0  0  0  0  0  0  0  0  0  0  0  0
   -4.7948    2.4883    0.7378 C   0  0  0  0  0  0  0  0  0  0  0  0
   -4.8428    3.6464    1.5230 C   0  0  0  0  0  0  0  0  0  0  0  0
   -6.0148    4.4329    1.5430 C   0  0  0  0  0  0  0  0  0  0  0  0
   -7.0986    4.0962    0.8011 C   0  0  0  0  0  0  0  0  0  0  0  0
   -7.0872    2.9452   -0.0238 C   0  0  0  0  0  0  0  0  0  0  0  0
   -8.2060    2.5947   -0.8034 C   0  0  0  0  0  0  0  0  0  0  0  0
   -8.1962    1.4898   -1.6140 C   0  0  0  0  0  0  0  0  0  0  0  0
   -9.4066    1.1033   -2.4111 C   0  0  0  0  0  0  0  0  0  0  0  0
  -10.0997   -0.1464   -1.8612 C   0  0  0  0  0  0  0  0  0  0  0  0
  -10.6102    0.0312   -0.4322 C   0  0  0  0  0  0  0  0  0  0  0  0
  -11.2916   -1.2180    0.1342 C   0  0  0  0  0  0  0  0  0  0  0  0
  -10.3378   -2.3966    0.3434 C   0  0  0  0  0  0  0  0  0  0  0  0
  -11.0220   -3.6031    0.9665 C   0  0  0  0  0  0  0  0  0  0  0  0
   -7.0426    0.6941   -1.6551 C   0  0  0  0  0  0  0  0  0  0  0  0
   -5.9444    1.0006   -0.9063 C   0  0  0  0  0  0  0  0  0  0  0  0
   -5.9281    2.1312   -0.0643 C   0  0  0  0  0  0  0  0  0  0  0  0
   -3.7804    4.0321    2.2860 O   0  0  0  0  0  0  0  0  0  0  0  0
   -2.4426    3.4402    2.0794 B   0  0  0  0  0  4  0  0  0  0  0  0
   -1.7597    3.3441    3.2991 F   0  0  0  0  0  0  0  0  0  0  0  0
   -1.7168    4.2211    1.1685 F   0  0  0  0  0  0  0  0  0  0  0  0
   -0.1215    1.7818    1.5692 C   0  0  0  0  0  0  0  0  0  0  0  0
    1.0065    1.0025    1.5856 C   0  0  0  0  0  0  0  0  0  0  0  0
    3.1640   -0.8814    0.9038 C   0  0  0  0  0  0  0  0  0  0  0  0
   14.2984    0.7866   -1.2478 H   0  0  0  0  0  0  0  0  0  0  0  0
   13.6830    0.6507    0.3956 H   0  0  0  0  0  0  0  0  0  0  0  0
   12.8248    1.6246   -0.7876 H   0  0  0  0  0  0  0  0  0  0  0  0
   13.1903   -1.4174   -0.9884 H   0  0  0  0  0  0  0  0  0  0  0  0
   12.2776   -0.4472   -2.1051 H   0  0  0  0  0  0  0  0  0  0  0  0
   10.8091   -1.6417   -0.4727 H   0  0  0  0  0  0  0  0  0  0  0  0
   11.6168   -0.8609    0.8549 H   0  0  0  0  0  0  0  0  0  0  0  0
   10.7725    1.3542    0.1464 H   0  0  0  0  0  0  0  0  0  0  0  0
    9.4598    0.2423    0.4018 H   0  0  0  0  0  0  0  0  0  0  0  0
   10.6116    1.0006   -2.3301 H   0  0  0  0  0  0  0  0  0  0  0  0
    9.1371    1.6238   -1.6454 H   0  0  0  0  0  0  0  0  0  0  0  0
    9.6196   -1.3116   -2.3718 H   0  0  0  0  0  0  0  0  0  0  0  0
    8.6734   -0.1838   -3.2992 H   0  0  0  0  0  0  0  0  0  0  0  0
    6.6641    0.9396   -2.1228 H   0  0  0  0  0  0  0  0  0  0  0  0
    4.6818    0.4396   -0.8173 H   0  0  0  0  0  0  0  0  0  0  0  0
    5.4537   -4.5727    2.2477 H   0  0  0  0  0  0  0  0  0  0  0  0
    7.4392   -4.0161    0.9231 H   0  0  0  0  0  0  0  0  0  0  0  0
    8.5821   -2.5495   -0.6554 H   0  0  0  0  0  0  0  0  0  0  0  0
   -0.4342   -2.0307    1.5899 H   0  0  0  0  0  0  0  0  0  0  0  0
   -2.4617   -0.6361    1.5831 H   0  0  0  0  0  0  0  0  0  0  0  0
   -3.6069    0.7476    0.2957 H   0  0  0  0  0  0  0  0  0  0  0  0
   -6.0198    5.3102    2.1640 H   0  0  0  0  0  0  0  0  0  0  0  0
   -7.9835    4.7081    0.8270 H   0  0  0  0  0  0  0  0  0  0  0  0
   -9.0864    3.2092   -0.7569 H   0  0  0  0  0  0  0  0  0  0  0  0
   -9.1096    0.9503   -3.4547 H   0  0  0  0  0  0  0  0  0  0  0  0
  -10.1130    1.9394   -2.4264 H   0  0  0  0  0  0  0  0  0  0  0  0
   -9.3989   -0.9895   -1.8986 H   0  0  0  0  0  0  0  0  0  0  0  0
  -10.9348   -0.4376   -2.5132 H   0  0  0  0  0  0  0  0  0  0  0  0
   -9.7763    0.3173    0.2188 H   0  0  0  0  0  0  0  0  0  0  0  0
  -11.3002    0.8834   -0.4046 H   0  0  0  0  0  0  0  0  0  0  0  0
  -12.1093   -1.5232   -0.5296 H   0  0  0  0  0  0  0  0  0  0  0  0
  -11.7741   -0.9789    1.0908 H   0  0  0  0  0  0  0  0  0  0  0  0
   -9.8846   -2.6801   -0.6144 H   0  0  0  0  0  0  0  0  0  0  0  0
   -9.4971   -2.0739    0.9711 H   0  0  0  0  0  0  0  0  0  0  0  0
  -11.8409   -3.9597    0.3396 H   0  0  0  0  0  0  0  0  0  0  0  0
  -11.4466   -3.3568    1.9410 H   0  0  0  0  0  0  0  0  0  0  0  0
  -10.3319   -4.4369    1.1108 H   0  0  0  0  0  0  0  0  0  0  0  0
   -7.0350   -0.1729   -2.2925 H   0  0  0  0  0  0  0  0  0  0  0  0
   -5.0754    0.3728   -0.9713 H   0  0  0  0  0  0  0  0  0  0  0  0
   -0.0497    2.8550    1.5732 H   0  0  0  0  0  0  0  0  0  0  0  0
    1.9786    1.4600    1.6237 H   0  0  0  0  0  0  0  0  0  0  0  0
    3.1664    0.0617    0.3926 H   0  0  0  0  0  0  0  0  0  0  0  0
  1  2  1  0  0  0  0
  2  3  1  0  0  0  0
  3  4  1  0  0  0  0
  4  5  1  0  0  0  0
  5  6  1  0  0  0  0
  6  7  1  0  0  0  0
  7  8  2  0  0  0  0
  8  9  1  0  0  0  0
  9 10  2  0  0  0  0
 10 11  1  0  0  0  0
 11 12  2  0  0  0  0
 12 13  1  0  0  0  0
 13 14  2  0  0  0  0
 14 15  1  0  0  0  0
 15 16  2  0  0  0  0
 12 17  1  0  0  0  0
 17 18  1  0  0  0  0
 18 19  1  0  0  0  0
 18 20  1  0  0  0  0
 18 21  1  0  0  0  0
 21 22  1  0  0  0  0
 22 23  2  0  0  0  0
 23 24  1  0  0  0  0
 24 25  2  0  0  0  0
 25 26  1  0  0  0  0
 26 27  2  0  0  0  0
 27 28  1  0  0  0  0
 28 29  2  0  0  0  0
 29 30  1  0  0  0  0
 30 31  2  0  0  0  0
 31 32  1  0  0  0  0
 32 33  2  0  0  0  0
 33 34  1  0  0  0  0
 34 35  1  0  0  0  0
 35 36  1  0  0  0  0
 36 37  1  0  0  0  0
 37 38  1  0  0  0  0
 38 39  1  0  0  0  0
 39 40  1  0  0  0  0
 34 41  2  0  0  0  0
 41 42  1  0  0  0  0
 42 43  2  0  0  0  0
 29 44  1  0  0  0  0
 44 45  1  0  0  0  0
 45 46  1  0  0  0  0
 45 47  1  0  0  0  0
 25 48  1  0  0  0  0
 48 49  2  0  0  0  0
 21 50  2  0  0  0  0
 16  7  1  0  0  0  0
 49 22  1  0  0  0  0
 15 10  1  0  0  0  0
 45 26  1  0  0  0  0
 50 11  1  0  0  0  0
 43 28  1  0  0  0  0
 43 32  1  0  0  0  0
  1 51  1  0  0  0  0
  1 52  1  0  0  0  0
  1 53  1  0  0  0  0
  2 54  1  0  0  0  0
  2 55  1  0  0  0  0
  3 56  1  0  0  0  0
  3 57  1  0  0  0  0
  4 58  1  0  0  0  0
  4 59  1  0  0  0  0
  5 60  1  0  0  0  0
  5 61  1  0  0  0  0
  6 62  1  0  0  0  0
  6 63  1  0  0  0  0
  8 64  1  0  0  0  0
  9 65  1  0  0  0  0
 13 66  1  0  0  0  0
 14 67  1  0  0  0  0
 16 68  1  0  0  0  0
 23 69  1  0  0  0  0
 24 70  1  0  0  0  0
 27 71  1  0  0  0  0
 30 72  1  0  0  0  0
 31 73  1  0  0  0  0
 33 74  1  0  0  0  0
 35 75  1  0  0  0  0
 35 76  1  0  0  0  0
 36 77  1  0  0  0  0
 36 78  1  0  0  0  0
 37 79  1  0  0  0  0
 37 80  1  0  0  0  0
 38 81  1  0  0  0  0
 38 82  1  0  0  0  0
 39 83  1  0  0  0  0
 39 84  1  0  0  0  0
 40 85  1  0  0  0  0
 40 86  1  0  0  0  0
 40 87  1  0  0  0  0
 41 88  1  0  0  0  0
 42 89  1  0  0  0  0
 48 90  1  0  0  0  0
 49 91  1  0  0  0  0
 50 92  1  0  0  0  0
M  CHG  1  18  -1
M  CHG  1  21   1
M  CHG  1  26   1
M  CHG  1  45  -1
M  END
