
  xtb     03012221213D
 energy: -14.701526019809 gnorm: 0.000315059841 xtb: 6.4.1 (afa7bdf)
 64 68  0     0  0            999 V2000
    4.1333   -0.1989   -0.0428 C   0  0  0  0  0  0  0  0  0  0  0  0
    4.5939    0.9322   -0.1083 C   0  0  0  0  0  0  0  0  0  0  0  0
    5.0736    2.2527   -0.1813 C   0  0  0  0  0  0  0  0  0  0  0  0
    5.7887    2.7151   -1.2726 C   0  0  0  0  0  0  0  0  0  0  0  0
    6.2251    4.0178   -1.2935 C   0  0  0  0  0  0  0  0  0  0  0  0
    6.0128    4.8970   -0.3294 N   0  0  0  0  0  0  0  0  0  0  0  0
    5.3295    4.4483    0.7093 C   0  0  0  0  0  0  0  0  0  0  0  0
    4.8470    3.1676    0.8324 C   0  0  0  0  0  0  0  0  0  0  0  0
    3.5907   -1.4905    0.0332 C   0  0  0  0  0  0  0  0  0  0  0  0
    4.4933   -2.5667   -0.0006 C   0  0  0  0  0  0  0  0  0  0  0  0
    5.2809   -3.5024   -0.0285 C   0  0  0  0  0  0  0  0  0  0  0  0
    6.1894   -4.5769   -0.0601 C   0  0  0  0  0  0  0  0  0  0  0  0
    7.5548   -4.3775   -0.1714 C   0  0  0  0  0  0  0  0  0  0  0  0
    8.3980   -5.4620   -0.1980 C   0  0  0  0  0  0  0  0  0  0  0  0
    8.0046   -6.7217   -0.1237 N   0  0  0  0  0  0  0  0  0  0  0  0
    6.6998   -6.9047   -0.0173 C   0  0  0  0  0  0  0  0  0  0  0  0
    5.7698   -5.8938    0.0182 C   0  0  0  0  0  0  0  0  0  0  0  0
    2.2688   -1.7693    0.1260 C   0  0  0  0  0  0  0  0  0  0  0  0
    1.1428   -0.8512    0.1844 C   0  0  0  0  0  0  0  0  0  0  0  0
    1.2749    0.5365    0.2732 C   0  0  0  0  0  0  0  0  0  0  0  0
    0.1755    1.3562    0.3384 C   0  0  0  0  0  0  0  0  0  0  0  0
   -1.1218    0.8360    0.3154 C   0  0  0  0  0  0  0  0  0  0  0  0
   -2.2473    1.7531    0.3958 C   0  0  0  0  0  0  0  0  0  0  0  0
   -3.5725    1.4830    0.3267 C   0  0  0  0  0  0  0  0  0  0  0  0
   -4.1223    0.2056    0.1409 C   0  0  0  0  0  0  0  0  0  0  0  0
   -4.5935   -0.9105   -0.0261 C   0  0  0  0  0  0  0  0  0  0  0  0
   -5.0850   -2.2135   -0.2253 C   0  0  0  0  0  0  0  0  0  0  0  0
   -5.0463   -2.8257   -1.4663 C   0  0  0  0  0  0  0  0  0  0  0  0
   -5.5319   -4.1033   -1.6069 C   0  0  0  0  0  0  0  0  0  0  0  0
   -6.0483   -4.8228   -0.6256 N   0  0  0  0  0  0  0  0  0  0  0  0
   -6.0820   -4.2318    0.5563 C   0  0  0  0  0  0  0  0  0  0  0  0
   -5.6250   -2.9606    0.8074 C   0  0  0  0  0  0  0  0  0  0  0  0
   -4.4736    2.5550    0.4400 C   0  0  0  0  0  0  0  0  0  0  0  0
   -5.2640    3.4832    0.5416 C   0  0  0  0  0  0  0  0  0  0  0  0
   -6.1796    4.5455    0.6593 C   0  0  0  0  0  0  0  0  0  0  0  0
   -7.5475    4.3417    0.5993 C   0  0  0  0  0  0  0  0  0  0  0  0
   -8.3984    5.4138    0.7212 C   0  0  0  0  0  0  0  0  0  0  0  0
   -8.0101    6.6650    0.8967 N   0  0  0  0  0  0  0  0  0  0  0  0
   -6.7028    6.8522    0.9528 C   0  0  0  0  0  0  0  0  0  0  0  0
   -5.7653    5.8536    0.8428 C   0  0  0  0  0  0  0  0  0  0  0  0
   -1.2538   -0.5517    0.2269 C   0  0  0  0  0  0  0  0  0  0  0  0
   -0.1545   -1.3716    0.1652 C   0  0  0  0  0  0  0  0  0  0  0  0
    5.9940    2.0497   -2.0938 H   0  0  0  0  0  0  0  0  0  0  0  0
    6.7824    4.3735   -2.1472 H   0  0  0  0  0  0  0  0  0  0  0  0
    5.1508    5.1576    1.5034 H   0  0  0  0  0  0  0  0  0  0  0  0
    4.2956    2.8665    1.7068 H   0  0  0  0  0  0  0  0  0  0  0  0
    7.9415   -3.3747   -0.2358 H   0  0  0  0  0  0  0  0  0  0  0  0
    9.4620   -5.3005   -0.2852 H   0  0  0  0  0  0  0  0  0  0  0  0
    6.3669   -7.9299    0.0443 H   0  0  0  0  0  0  0  0  0  0  0  0
    4.7192   -6.1122    0.1065 H   0  0  0  0  0  0  0  0  0  0  0  0
    2.0086   -2.8138    0.1591 H   0  0  0  0  0  0  0  0  0  0  0  0
    2.2536    0.9737    0.2948 H   0  0  0  0  0  0  0  0  0  0  0  0
    0.3073    2.4221    0.4075 H   0  0  0  0  0  0  0  0  0  0  0  0
   -1.9841    2.7890    0.5274 H   0  0  0  0  0  0  0  0  0  0  0  0
   -4.6361   -2.2943   -2.3081 H   0  0  0  0  0  0  0  0  0  0  0  0
   -5.5000   -4.5756   -2.5773 H   0  0  0  0  0  0  0  0  0  0  0  0
   -6.5025   -4.8102    1.3653 H   0  0  0  0  0  0  0  0  0  0  0  0
   -5.6805   -2.5381    1.7961 H   0  0  0  0  0  0  0  0  0  0  0  0
   -7.9303    3.3453    0.4580 H   0  0  0  0  0  0  0  0  0  0  0  0
   -9.4644    5.2489    0.6737 H   0  0  0  0  0  0  0  0  0  0  0  0
   -6.3740    7.8706    1.0960 H   0  0  0  0  0  0  0  0  0  0  0  0
   -4.7130    6.0749    0.8977 H   0  0  0  0  0  0  0  0  0  0  0  0
   -2.2325   -0.9890    0.2087 H   0  0  0  0  0  0  0  0  0  0  0  0
   -0.2859   -2.4377    0.0988 H   0  0  0  0  0  0  0  0  0  0  0  0
  1  2  3  0  0  0  0
  2  3  1  0  0  0  0
  3  4  2  0  0  0  0
  4  5  1  0  0  0  0
  5  6  2  0  0  0  0
  6  7  1  0  0  0  0
  7  8  2  0  0  0  0
  1  9  1  0  0  0  0
  9 10  1  0  0  0  0
 10 11  3  0  0  0  0
 11 12  1  0  0  0  0
 12 13  2  0  0  0  0
 13 14  1  0  0  0  0
 14 15  2  0  0  0  0
 15 16  1  0  0  0  0
 16 17  2  0  0  0  0
  9 18  2  0  0  0  0
 18 19  1  0  0  0  0
 19 20  2  0  0  0  0
 20 21  1  0  0  0  0
 21 22  2  0  0  0  0
 22 23  1  0  0  0  0
 23 24  2  0  0  0  0
 24 25  1  0  0  0  0
 25 26  3  0  0  0  0
 26 27  1  0  0  0  0
 27 28  2  0  0  0  0
 28 29  1  0  0  0  0
 29 30  2  0  0  0  0
 30 31  1  0  0  0  0
 31 32  2  0  0  0  0
 24 33  1  0  0  0  0
 33 34  3  0  0  0  0
 34 35  1  0  0  0  0
 35 36  2  0  0  0  0
 36 37  1  0  0  0  0
 37 38  2  0  0  0  0
 38 39  1  0  0  0  0
 39 40  2  0  0  0  0
 22 41  1  0  0  0  0
 41 42  2  0  0  0  0
  8  3  1  0  0  0  0
 17 12  1  0  0  0  0
 42 19  1  0  0  0  0
 32 27  1  0  0  0  0
 40 35  1  0  0  0  0
  4 43  1  0  0  0  0
  5 44  1  0  0  0  0
  7 45  1  0  0  0  0
  8 46  1  0  0  0  0
 13 47  1  0  0  0  0
 14 48  1  0  0  0  0
 16 49  1  0  0  0  0
 17 50  1  0  0  0  0
 18 51  1  0  0  0  0
 20 52  1  0  0  0  0
 21 53  1  0  0  0  0
 23 54  1  0  0  0  0
 28 55  1  0  0  0  0
 29 56  1  0  0  0  0
 31 57  1  0  0  0  0
 32 58  1  0  0  0  0
 36 59  1  0  0  0  0
 37 60  1  0  0  0  0
 39 61  1  0  0  0  0
 40 62  1  0  0  0  0
 41 63  1  0  0  0  0
 42 64  1  0  0  0  0
M  END
