
  xtb     03012221283D
 energy: -8.162125965534 gnorm: 0.000148583980 xtb: 6.4.1 (afa7bdf)
 39 43  0     0  0            999 V2000
   -2.7247    2.0278    2.1571 F   0  0  0  0  0  0  0  0  0  0  0  0
   -2.7708    1.6342    0.8250 B   0  0  0  0  0  4  0  0  0  0  0  0
   -2.9325    2.7365   -0.0060 F   0  0  0  0  0  0  0  0  0  0  0  0
   -3.8799    0.6939    0.6228 O   0  0  0  0  0  0  0  0  0  0  0  0
   -3.7072   -0.5680    0.1317 C   0  0  0  0  0  0  0  0  0  0  0  0
   -4.8175   -1.3874   -0.0640 C   0  0  0  0  0  0  0  0  0  0  0  0
   -4.6726   -2.6617   -0.5542 C   0  0  0  0  0  0  0  0  0  0  0  0
   -3.4159   -3.1500   -0.8603 C   0  0  0  0  0  0  0  0  0  0  0  0
   -2.3074   -2.3563   -0.6736 C   0  0  0  0  0  0  0  0  0  0  0  0
   -2.4277   -1.0633   -0.1804 C   0  0  0  0  0  0  0  0  0  0  0  0
   -1.2558   -0.2336    0.0171 C   0  0  0  0  0  0  0  0  0  0  0  0
   -0.0566   -0.7707   -0.2836 N   0  0  0  0  0  0  0  0  0  0  0  0
    1.0198   -0.0331   -0.0884 C   0  0  0  0  0  0  0  0  0  0  0  0
    2.3233   -0.6623   -0.3813 C   0  0  0  0  0  0  0  0  0  0  0  0
    2.4802   -1.4113   -1.5452 C   0  0  0  0  0  0  0  0  0  0  0  0
    3.6789   -2.0222   -1.8308 C   0  0  0  0  0  0  0  0  0  0  0  0
    4.7403   -1.9111   -0.9584 C   0  0  0  0  0  0  0  0  0  0  0  0
    4.5946   -1.1925    0.2089 C   0  0  0  0  0  0  0  0  0  0  0  0
    3.3996   -0.5777    0.5020 C   0  0  0  0  0  0  0  0  0  0  0  0
    0.9438    1.3190    0.3644 C   0  0  0  0  0  0  0  0  0  0  0  0
    2.0593    2.1646    0.4790 C   0  0  0  0  0  0  0  0  0  0  0  0
    1.9176    3.4573    0.9099 C   0  0  0  0  0  0  0  0  0  0  0  0
    3.3077    4.4619    1.0373 Cl  0  0  0  0  0  0  0  0  0  0  0  0
    0.6535    3.9598    1.2396 C   0  0  0  0  0  0  0  0  0  0  0  0
   -0.4450    3.1647    1.1181 C   0  0  0  0  0  0  0  0  0  0  0  0
   -0.3268    1.8363    0.6703 C   0  0  0  0  0  0  0  0  0  0  0  0
   -1.4068    1.0131    0.4877 N   0  0  0  0  0  4  0  0  0  0  0  0
   -5.7878   -0.9938    0.1793 H   0  0  0  0  0  0  0  0  0  0  0  0
   -5.5414   -3.2834   -0.7002 H   0  0  0  0  0  0  0  0  0  0  0  0
   -3.3051   -4.1502   -1.2433 H   0  0  0  0  0  0  0  0  0  0  0  0
   -1.3242   -2.7267   -0.9062 H   0  0  0  0  0  0  0  0  0  0  0  0
    1.6458   -1.5003   -2.2187 H   0  0  0  0  0  0  0  0  0  0  0  0
    3.7874   -2.5917   -2.7411 H   0  0  0  0  0  0  0  0  0  0  0  0
    5.6775   -2.3907   -1.1841 H   0  0  0  0  0  0  0  0  0  0  0  0
    5.4199   -1.1168    0.9003 H   0  0  0  0  0  0  0  0  0  0  0  0
    3.2763   -0.0505    1.4317 H   0  0  0  0  0  0  0  0  0  0  0  0
    3.0376    1.8177    0.2042 H   0  0  0  0  0  0  0  0  0  0  0  0
    0.5678    4.9781    1.5780 H   0  0  0  0  0  0  0  0  0  0  0  0
   -1.4251    3.5401    1.3552 H   0  0  0  0  0  0  0  0  0  0  0  0
  1  2  1  0  0  0  0
  2  3  1  0  0  0  0
  2  4  1  0  0  0  0
  4  5  1  0  0  0  0
  5  6  2  0  0  0  0
  6  7  1  0  0  0  0
  7  8  2  0  0  0  0
  8  9  1  0  0  0  0
  9 10  2  0  0  0  0
 10 11  1  0  0  0  0
 11 12  2  0  0  0  0
 12 13  1  0  0  0  0
 13 14  1  0  0  0  0
 14 15  2  0  0  0  0
 15 16  1  0  0  0  0
 16 17  2  0  0  0  0
 17 18  1  0  0  0  0
 18 19  2  0  0  0  0
 13 20  2  0  0  0  0
 20 21  1  0  0  0  0
 21 22  2  0  0  0  0
 22 23  1  0  0  0  0
 22 24  1  0  0  0  0
 24 25  2  0  0  0  0
 25 26  1  0  0  0  0
 26 27  2  0  0  0  0
 27  2  1  0  0  0  0
 10  5  1  0  0  0  0
 27 11  1  0  0  0  0
 19 14  1  0  0  0  0
 26 20  1  0  0  0  0
  6 28  1  0  0  0  0
  7 29  1  0  0  0  0
  8 30  1  0  0  0  0
  9 31  1  0  0  0  0
 15 32  1  0  0  0  0
 16 33  1  0  0  0  0
 17 34  1  0  0  0  0
 18 35  1  0  0  0  0
 19 36  1  0  0  0  0
 21 37  1  0  0  0  0
 24 38  1  0  0  0  0
 25 39  1  0  0  0  0
M  CHG  1   2  -1
M  CHG  1  27   1
M  END
