
  xtb     03012221223D
 energy: -5.194605307783 gnorm: 0.000391303941 xtb: 6.4.1 (afa7bdf)
 24 26  0     0  0            999 V2000
   -4.3584    0.0871   -0.0867 N   0  0  0  0  0  0  0  0  0  0  0  0
   -2.9927   -0.0749    0.0044 C   0  0  0  0  0  0  0  0  0  0  0  0
   -2.4475   -1.2468    0.5623 C   0  0  0  0  0  0  0  0  0  0  0  0
   -1.0889   -1.4311    0.6655 C   0  0  0  0  0  0  0  0  0  0  0  0
   -0.2384   -0.4319    0.2051 C   0  0  0  0  0  0  0  0  0  0  0  0
   -0.7701    0.7396   -0.3535 C   0  0  0  0  0  0  0  0  0  0  0  0
   -2.1291    0.9260   -0.4571 C   0  0  0  0  0  0  0  0  0  0  0  0
    0.3379    1.6214   -0.7556 C   0  0  0  0  0  0  0  0  0  0  0  0
    0.2526    2.7165   -1.2689 O   0  0  0  0  0  0  0  0  0  0  0  0
    1.5661    0.8944   -0.4015 C   0  0  0  0  0  0  0  0  0  0  0  0
    2.8916    1.2538   -0.5596 C   0  0  0  0  0  0  0  0  0  0  0  0
    3.8689    0.3748   -0.1381 C   0  0  0  0  0  0  0  0  0  0  0  0
    3.5298   -0.8456    0.4331 C   0  0  0  0  0  0  0  0  0  0  0  0
    2.2086   -1.2111    0.5947 C   0  0  0  0  0  0  0  0  0  0  0  0
    1.2174   -0.3343    0.1744 C   0  0  0  0  0  0  0  0  0  0  0  0
   -4.7955    0.9044   -0.4892 H   0  0  0  0  0  0  0  0  0  0  0  0
   -5.0260   -0.6069    0.2202 H   0  0  0  0  0  0  0  0  0  0  0  0
   -3.1218   -2.0081    0.9123 H   0  0  0  0  0  0  0  0  0  0  0  0
   -0.6786   -2.3287    1.0930 H   0  0  0  0  0  0  0  0  0  0  0  0
   -2.5161    1.8306   -0.8873 H   0  0  0  0  0  0  0  0  0  0  0  0
    3.1350    2.2030   -1.0042 H   0  0  0  0  0  0  0  0  0  0  0  0
    4.9067    0.6388   -0.2541 H   0  0  0  0  0  0  0  0  0  0  0  0
    4.3090   -1.5161    0.7545 H   0  0  0  0  0  0  0  0  0  0  0  0
    1.9394   -2.1544    1.0360 H   0  0  0  0  0  0  0  0  0  0  0  0
  1  2  1  0  0  0  0
  2  3  2  0  0  0  0
  3  4  1  0  0  0  0
  4  5  2  0  0  0  0
  5  6  1  0  0  0  0
  6  7  2  0  0  0  0
  6  8  1  0  0  0  0
  8  9  2  0  0  0  0
  8 10  1  0  0  0  0
 10 11  2  0  0  0  0
 11 12  1  0  0  0  0
 12 13  2  0  0  0  0
 13 14  1  0  0  0  0
 14 15  2  0  0  0  0
  7  2  1  0  0  0  0
 15 10  1  0  0  0  0
 15  5  1  0  0  0  0
  1 16  1  0  0  0  0
  1 17  1  0  0  0  0
  3 18  1  0  0  0  0
  4 19  1  0  0  0  0
  7 20  1  0  0  0  0
 11 21  1  0  0  0  0
 12 22  1  0  0  0  0
 13 23  1  0  0  0  0
 14 24  1  0  0  0  0
M  END
