
  xtb     03012221263D
 energy: -6.406715454425 gnorm: 0.000329385024 xtb: 6.4.1 (afa7bdf)
 35 37  0     0  0            999 V2000
   -6.0157    0.6985    0.6709 C   0  0  0  0  0  0  0  0  0  0  0  0
   -5.1139    0.1653   -0.3716 C   0  0  0  0  0  0  0  0  0  0  0  0
   -5.5009   -0.3481   -1.5613 C   0  0  0  0  0  0  0  0  0  0  0  0
   -4.1286   -0.8533   -2.4986 S   0  0  0  0  0  0  0  0  0  0  0  0
   -3.0059   -0.3489   -1.2440 C   0  0  0  0  0  0  0  0  0  0  0  0
   -3.7275    0.1434   -0.2450 N   0  0  0  0  0  4  0  0  0  0  0  0
   -3.0539    0.6744    1.0142 B   0  0  0  0  0  4  0  0  0  0  0  0
   -3.5190   -0.0699    2.0890 F   0  0  0  0  0  0  0  0  0  0  0  0
   -3.4081    2.0089    1.1533 F   0  0  0  0  0  0  0  0  0  0  0  0
   -1.6122    0.5229    0.8491 O   0  0  0  0  0  0  0  0  0  0  0  0
   -1.0322   -0.0131   -0.2639 C   0  0  0  0  0  0  0  0  0  0  0  0
    0.4214   -0.0828   -0.2445 C   0  0  0  0  0  0  0  0  0  0  0  0
    1.1329   -0.6156   -1.3179 C   0  0  0  0  0  0  0  0  0  0  0  0
    2.5018   -0.6765   -1.2866 C   0  0  0  0  0  0  0  0  0  0  0  0
    3.2201   -0.2069   -0.1807 C   0  0  0  0  0  0  0  0  0  0  0  0
    4.6257   -0.2699   -0.1478 N   0  0  0  0  0  0  0  0  0  0  0  0
    5.3915    0.3120    0.9566 C   0  0  0  0  0  0  0  0  0  0  0  0
    5.3876   -0.9211   -1.2156 C   0  0  0  0  0  0  0  0  0  0  0  0
    2.4966    0.3270    0.8921 C   0  0  0  0  0  0  0  0  0  0  0  0
    1.1278    0.3867    0.8598 C   0  0  0  0  0  0  0  0  0  0  0  0
   -1.6604   -0.4566   -1.3167 N   0  0  0  0  0  0  0  0  0  0  0  0
   -6.5547    1.5734    0.3078 H   0  0  0  0  0  0  0  0  0  0  0  0
   -6.7412   -0.0535    0.9808 H   0  0  0  0  0  0  0  0  0  0  0  0
   -5.4409    0.9971    1.5485 H   0  0  0  0  0  0  0  0  0  0  0  0
   -6.5179   -0.4351   -1.8904 H   0  0  0  0  0  0  0  0  0  0  0  0
    0.5848   -0.9764   -2.1703 H   0  0  0  0  0  0  0  0  0  0  0  0
    3.0333   -1.0849   -2.1276 H   0  0  0  0  0  0  0  0  0  0  0  0
    5.2022   -0.2426    1.8726 H   0  0  0  0  0  0  0  0  0  0  0  0
    5.1047    1.3509    1.1009 H   0  0  0  0  0  0  0  0  0  0  0  0
    6.4584    0.2822    0.7507 H   0  0  0  0  0  0  0  0  0  0  0  0
    6.4421   -0.9853   -0.9597 H   0  0  0  0  0  0  0  0  0  0  0  0
    5.2915   -0.3550   -2.1390 H   0  0  0  0  0  0  0  0  0  0  0  0
    5.0172   -1.9310   -1.3743 H   0  0  0  0  0  0  0  0  0  0  0  0
    3.0225    0.6891    1.7575 H   0  0  0  0  0  0  0  0  0  0  0  0
    0.5709    0.7955    1.6854 H   0  0  0  0  0  0  0  0  0  0  0  0
  1  2  1  0  0  0  0
  2  3  2  0  0  0  0
  3  4  1  0  0  0  0
  4  5  1  0  0  0  0
  5  6  2  0  0  0  0
  6  7  1  0  0  0  0
  7  8  1  0  0  0  0
  7  9  1  0  0  0  0
  7 10  1  0  0  0  0
 10 11  1  0  0  0  0
 11 12  1  0  0  0  0
 12 13  2  0  0  0  0
 13 14  1  0  0  0  0
 14 15  2  0  0  0  0
 15 16  1  0  0  0  0
 16 17  1  0  0  0  0
 16 18  1  0  0  0  0
 15 19  1  0  0  0  0
 19 20  2  0  0  0  0
 11 21  2  0  0  0  0
  6  2  1  0  0  0  0
 20 12  1  0  0  0  0
 21  5  1  0  0  0  0
  1 22  1  0  0  0  0
  1 23  1  0  0  0  0
  1 24  1  0  0  0  0
  3 25  1  0  0  0  0
 13 26  1  0  0  0  0
 14 27  1  0  0  0  0
 17 28  1  0  0  0  0
 17 29  1  0  0  0  0
 17 30  1  0  0  0  0
 18 31  1  0  0  0  0
 18 32  1  0  0  0  0
 18 33  1  0  0  0  0
 19 34  1  0  0  0  0
 20 35  1  0  0  0  0
M  CHG  1   6   1
M  CHG  1   7  -1
M  END
