
  xtb     03012221213D
 energy: -7.351601101966 gnorm: 0.000466181328 xtb: 6.4.1 (afa7bdf)
 38 41  0     0  0            999 V2000
   -6.1214   -1.0324    0.5710 C   0  0  0  0  0  0  0  0  0  0  0  0
   -5.3294    0.1244    0.1472 N   0  0  0  0  0  0  0  0  0  0  0  0
   -6.0654    1.3226   -0.2628 C   0  0  0  0  0  0  0  0  0  0  0  0
   -3.9238    0.0838    0.1249 C   0  0  0  0  0  0  0  0  0  0  0  0
   -3.2282   -1.0720    0.4997 C   0  0  0  0  0  0  0  0  0  0  0  0
   -1.8586   -1.1101    0.4774 C   0  0  0  0  0  0  0  0  0  0  0  0
   -1.1230    0.0048    0.0794 C   0  0  0  0  0  0  0  0  0  0  0  0
    0.3310   -0.0203    0.0516 C   0  0  0  0  0  0  0  0  0  0  0  0
    0.9401   -1.1181    0.4159 N   0  0  0  0  0  0  0  0  0  0  0  0
    2.2843   -1.0475    0.3630 C   0  0  0  0  0  0  0  0  0  0  0  0
    3.3785   -2.3668    0.8066 S   0  0  0  0  0  0  0  0  0  0  0  0
    4.8017   -1.4039    0.4381 C   0  0  0  0  0  0  0  0  0  0  0  0
    6.1481   -1.7196    0.5220 C   0  0  0  0  0  0  0  0  0  0  0  0
    7.0827   -0.7731    0.1686 C   0  0  0  0  0  0  0  0  0  0  0  0
    6.6896    0.4901   -0.2695 C   0  0  0  0  0  0  0  0  0  0  0  0
    5.3605    0.8161   -0.3575 C   0  0  0  0  0  0  0  0  0  0  0  0
    4.4088   -0.1384   -0.0008 C   0  0  0  0  0  0  0  0  0  0  0  0
    3.0181   -0.0116   -0.0178 N   0  0  0  0  0  4  0  0  0  0  0  0
    2.3778    1.2907   -0.4710 B   0  0  0  0  0  4  0  0  0  0  0  0
    2.8393    2.3051    0.3558 F   0  0  0  0  0  0  0  0  0  0  0  0
    2.7609    1.5200   -1.7849 F   0  0  0  0  0  0  0  0  0  0  0  0
    0.9321    1.1305   -0.3601 O   0  0  0  0  0  0  0  0  0  0  0  0
   -1.8074    1.1583   -0.2953 C   0  0  0  0  0  0  0  0  0  0  0  0
   -3.1768    1.1986   -0.2735 C   0  0  0  0  0  0  0  0  0  0  0  0
   -7.1852   -0.8100    0.5444 H   0  0  0  0  0  0  0  0  0  0  0  0
   -5.8578   -1.3105    1.5888 H   0  0  0  0  0  0  0  0  0  0  0  0
   -5.9325   -1.8744   -0.0908 H   0  0  0  0  0  0  0  0  0  0  0  0
   -7.1389    1.1665   -0.1936 H   0  0  0  0  0  0  0  0  0  0  0  0
   -5.8238    1.5724   -1.2932 H   0  0  0  0  0  0  0  0  0  0  0  0
   -5.8008    2.1589    0.3800 H   0  0  0  0  0  0  0  0  0  0  0  0
   -3.7775   -1.9430    0.8086 H   0  0  0  0  0  0  0  0  0  0  0  0
   -1.3274   -2.0003    0.7661 H   0  0  0  0  0  0  0  0  0  0  0  0
    6.4439   -2.6972    0.8612 H   0  0  0  0  0  0  0  0  0  0  0  0
    8.1315   -1.0107    0.2313 H   0  0  0  0  0  0  0  0  0  0  0  0
    7.4365    1.2177   -0.5415 H   0  0  0  0  0  0  0  0  0  0  0  0
    5.0291    1.7839   -0.6914 H   0  0  0  0  0  0  0  0  0  0  0  0
   -1.2319    2.0156   -0.6013 H   0  0  0  0  0  0  0  0  0  0  0  0
   -3.6846    2.1000   -0.5656 H   0  0  0  0  0  0  0  0  0  0  0  0
  1  2  1  0  0  0  0
  2  3  1  0  0  0  0
  2  4  1  0  0  0  0
  4  5  2  0  0  0  0
  5  6  1  0  0  0  0
  6  7  2  0  0  0  0
  7  8  1  0  0  0  0
  8  9  2  0  0  0  0
  9 10  1  0  0  0  0
 10 11  1  0  0  0  0
 11 12  1  0  0  0  0
 12 13  2  0  0  0  0
 13 14  1  0  0  0  0
 14 15  2  0  0  0  0
 15 16  1  0  0  0  0
 16 17  2  0  0  0  0
 17 18  1  0  0  0  0
 18 19  1  0  0  0  0
 19 20  1  0  0  0  0
 19 21  1  0  0  0  0
 19 22  1  0  0  0  0
  7 23  1  0  0  0  0
 23 24  2  0  0  0  0
 24  4  1  0  0  0  0
 22  8  1  0  0  0  0
 18 10  2  0  0  0  0
 17 12  1  0  0  0  0
  1 25  1  0  0  0  0
  1 26  1  0  0  0  0
  1 27  1  0  0  0  0
  3 28  1  0  0  0  0
  3 29  1  0  0  0  0
  3 30  1  0  0  0  0
  5 31  1  0  0  0  0
  6 32  1  0  0  0  0
 13 33  1  0  0  0  0
 14 34  1  0  0  0  0
 15 35  1  0  0  0  0
 16 36  1  0  0  0  0
 23 37  1  0  0  0  0
 24 38  1  0  0  0  0
M  CHG  1  18   1
M  CHG  1  19  -1
M  END
