
  xtb     03012221253D
 energy: -7.015128195334 gnorm: 0.000295139325 xtb: 6.4.1 (afa7bdf)
 32 35  0     0  0            999 V2000
    2.3675    2.8120    0.3161 O   0  0  0  0  0  0  0  0  0  0  0  0
    1.3180    2.1838    0.2614 C   0  0  0  0  0  0  0  0  0  0  0  0
    0.1070    2.8231    0.2351 O   0  0  0  0  0  0  0  0  0  0  0  0
   -1.0097    2.0411    0.1742 C   0  0  0  0  0  0  0  0  0  0  0  0
   -2.2787    2.6704    0.1470 C   0  0  0  0  0  0  0  0  0  0  0  0
   -3.4232    1.9512    0.0862 C   0  0  0  0  0  0  0  0  0  0  0  0
   -3.3859    0.5332    0.0472 C   0  0  0  0  0  0  0  0  0  0  0  0
   -4.5576   -0.2426   -0.0164 C   0  0  0  0  0  0  0  0  0  0  0  0
   -4.4887   -1.6055   -0.0531 C   0  0  0  0  0  0  0  0  0  0  0  0
   -3.2524   -2.2502   -0.0281 C   0  0  0  0  0  0  0  0  0  0  0  0
   -2.0992   -1.5230    0.0338 C   0  0  0  0  0  0  0  0  0  0  0  0
   -2.1342   -0.1200    0.0732 C   0  0  0  0  0  0  0  0  0  0  0  0
   -0.9252    0.6473    0.1385 C   0  0  0  0  0  0  0  0  0  0  0  0
    0.2668   -0.0039    0.1641 N   0  0  0  0  0  0  0  0  0  0  0  0
    1.3529    0.7205    0.2239 C   0  0  0  0  0  0  0  0  0  0  0  0
    2.6255   -0.0053    0.2542 C   0  0  0  0  0  0  0  0  0  0  0  0
    3.8682    0.6230    0.3231 C   0  0  0  0  0  0  0  0  0  0  0  0
    5.0345   -0.1054    0.3518 C   0  0  0  0  0  0  0  0  0  0  0  0
    4.9900   -1.4835    0.3118 C   0  0  0  0  0  0  0  0  0  0  0  0
    3.7726   -2.1286    0.2431 C   0  0  0  0  0  0  0  0  0  0  0  0
    2.6067   -1.3985    0.2147 C   0  0  0  0  0  0  0  0  0  0  0  0
   -2.3032    3.7452    0.1764 H   0  0  0  0  0  0  0  0  0  0  0  0
   -4.3775    2.4479    0.0664 H   0  0  0  0  0  0  0  0  0  0  0  0
   -5.5119    0.2540   -0.0358 H   0  0  0  0  0  0  0  0  0  0  0  0
   -5.3939   -2.1893   -0.1019 H   0  0  0  0  0  0  0  0  0  0  0  0
   -3.2100   -3.3263   -0.0578 H   0  0  0  0  0  0  0  0  0  0  0  0
   -1.1417   -2.0124    0.0535 H   0  0  0  0  0  0  0  0  0  0  0  0
    3.9063    1.6962    0.3540 H   0  0  0  0  0  0  0  0  0  0  0  0
    5.9839    0.4016    0.4060 H   0  0  0  0  0  0  0  0  0  0  0  0
    5.9037   -2.0544    0.3345 H   0  0  0  0  0  0  0  0  0  0  0  0
    3.7346   -3.2049    0.2117 H   0  0  0  0  0  0  0  0  0  0  0  0
    1.6549   -1.8965    0.1621 H   0  0  0  0  0  0  0  0  0  0  0  0
  1  2  2  0  0  0  0
  2  3  1  0  0  0  0
  3  4  1  0  0  0  0
  4  5  2  0  0  0  0
  5  6  1  0  0  0  0
  6  7  2  0  0  0  0
  7  8  1  0  0  0  0
  8  9  2  0  0  0  0
  9 10  1  0  0  0  0
 10 11  2  0  0  0  0
 11 12  1  0  0  0  0
 12 13  2  0  0  0  0
 13 14  1  0  0  0  0
 14 15  2  0  0  0  0
 15 16  1  0  0  0  0
 16 17  2  0  0  0  0
 17 18  1  0  0  0  0
 18 19  2  0  0  0  0
 19 20  1  0  0  0  0
 20 21  2  0  0  0  0
 15  2  1  0  0  0  0
 21 16  1  0  0  0  0
 13  4  1  0  0  0  0
 12  7  1  0  0  0  0
  5 22  1  0  0  0  0
  6 23  1  0  0  0  0
  8 24  1  0  0  0  0
  9 25  1  0  0  0  0
 10 26  1  0  0  0  0
 11 27  1  0  0  0  0
 17 28  1  0  0  0  0
 18 29  1  0  0  0  0
 19 30  1  0  0  0  0
 20 31  1  0  0  0  0
 21 32  1  0  0  0  0
M  END
