
  xtb     03012221223D
 energy: -8.037507116046 gnorm: 0.000154674133 xtb: 6.4.1 (afa7bdf)
 42 43  0     0  0            999 V2000
    0.5438    1.9644    0.3481 O   0  0  0  0  0  0  0  0  0  0  0  0
   -0.2981    1.0860    0.3856 C   0  0  0  0  0  0  0  0  0  0  0  0
   -1.7136    1.4275    0.3712 C   0  0  0  0  0  0  0  0  0  0  0  0
   -2.6531    0.4777    0.3933 C   0  0  0  0  0  0  0  0  0  0  0  0
   -4.0846    0.6912    0.3751 C   0  0  0  0  0  0  0  0  0  0  0  0
   -4.6520    1.9657    0.3601 C   0  0  0  0  0  0  0  0  0  0  0  0
   -6.0164    2.1356    0.3376 C   0  0  0  0  0  0  0  0  0  0  0  0
   -6.8640    1.0393    0.3291 C   0  0  0  0  0  0  0  0  0  0  0  0
   -8.2275    1.1672    0.3043 O   0  0  0  0  0  0  0  0  0  0  0  0
   -6.3146   -0.2653    0.3459 C   0  0  0  0  0  0  0  0  0  0  0  0
   -7.2019   -1.3214    0.3367 O   0  0  0  0  0  0  0  0  0  0  0  0
   -4.9397   -0.4147    0.3694 C   0  0  0  0  0  0  0  0  0  0  0  0
   -0.0073   -0.2487    0.4329 O   0  0  0  0  0  0  0  0  0  0  0  0
    1.3951   -0.4471    0.4826 C   0  0  0  0  0  0  0  0  0  0  0  0
    2.0557   -0.0965   -0.8512 C   0  0  0  0  0  0  0  0  0  0  0  0
    3.5493   -0.1082   -0.7916 C   0  0  0  0  0  0  0  0  0  0  0  0
    4.2559    1.0655   -0.6086 C   0  0  0  0  0  0  0  0  0  0  0  0
    5.6344    1.0569   -0.5434 C   0  0  0  0  0  0  0  0  0  0  0  0
    6.3433   -0.1289   -0.6515 C   0  0  0  0  0  0  0  0  0  0  0  0
    7.7212   -0.1692   -0.5972 O   0  0  0  0  0  0  0  0  0  0  0  0
    5.6297   -1.3413   -0.8192 C   0  0  0  0  0  0  0  0  0  0  0  0
    6.3326   -2.5244   -0.9142 O   0  0  0  0  0  0  0  0  0  0  0  0
    4.2469   -1.3038   -0.8811 C   0  0  0  0  0  0  0  0  0  0  0  0
    1.6976   -1.8735    0.8948 C   0  0  0  0  0  0  0  0  0  0  0  0
    1.8266   -2.7295    0.0512 O   0  0  0  0  0  0  0  0  0  0  0  0
    1.8055   -2.1076    2.2158 O   0  0  0  0  0  0  0  0  0  0  0  0
   -1.9676    2.4693    0.3393 H   0  0  0  0  0  0  0  0  0  0  0  0
   -2.3115   -0.5421    0.4245 H   0  0  0  0  0  0  0  0  0  0  0  0
   -4.0137    2.8324    0.3679 H   0  0  0  0  0  0  0  0  0  0  0  0
   -6.4525    3.1179    0.3259 H   0  0  0  0  0  0  0  0  0  0  0  0
   -8.6188    0.2660    0.3031 H   0  0  0  0  0  0  0  0  0  0  0  0
   -6.7123   -2.1701    0.3502 H   0  0  0  0  0  0  0  0  0  0  0  0
   -4.5213   -1.4054    0.3817 H   0  0  0  0  0  0  0  0  0  0  0  0
    1.7597    0.2261    1.2749 H   0  0  0  0  0  0  0  0  0  0  0  0
    1.7044    0.8881   -1.1745 H   0  0  0  0  0  0  0  0  0  0  0  0
    1.7063   -0.8104   -1.6025 H   0  0  0  0  0  0  0  0  0  0  0  0
    3.7154    1.9912   -0.5091 H   0  0  0  0  0  0  0  0  0  0  0  0
    6.1729    1.9774   -0.4052 H   0  0  0  0  0  0  0  0  0  0  0  0
    8.0878    0.7322   -0.4690 H   0  0  0  0  0  0  0  0  0  0  0  0
    5.7163   -3.2846   -0.9838 H   0  0  0  0  0  0  0  0  0  0  0  0
    3.6969   -2.2231   -0.9730 H   0  0  0  0  0  0  0  0  0  0  0  0
    1.9730   -3.0617    2.3318 H   0  0  0  0  0  0  0  0  0  0  0  0
  1  2  2  0  0  0  0
  2  3  1  0  0  0  0
  3  4  2  0  0  0  0
  4  5  1  0  0  0  0
  5  6  2  0  0  0  0
  6  7  1  0  0  0  0
  7  8  2  0  0  0  0
  8  9  1  0  0  0  0
  8 10  1  0  0  0  0
 10 11  1  0  0  0  0
 10 12  2  0  0  0  0
  2 13  1  0  0  0  0
 13 14  1  0  0  0  0
 14 15  1  0  0  0  0
 15 16  1  0  0  0  0
 16 17  2  0  0  0  0
 17 18  1  0  0  0  0
 18 19  2  0  0  0  0
 19 20  1  0  0  0  0
 19 21  1  0  0  0  0
 21 22  1  0  0  0  0
 21 23  2  0  0  0  0
 14 24  1  0  0  0  0
 24 25  2  0  0  0  0
 24 26  1  0  0  0  0
 12  5  1  0  0  0  0
 23 16  1  0  0  0  0
  3 27  1  0  0  0  0
  4 28  1  0  0  0  0
  6 29  1  0  0  0  0
  7 30  1  0  0  0  0
  9 31  1  0  0  0  0
 11 32  1  0  0  0  0
 12 33  1  0  0  0  0
 14 34  1  0  0  0  0
 15 35  1  0  0  0  0
 15 36  1  0  0  0  0
 17 37  1  0  0  0  0
 18 38  1  0  0  0  0
 20 39  1  0  0  0  0
 22 40  1  0  0  0  0
 23 41  1  0  0  0  0
 26 42  1  0  0  0  0
M  END
