
  xtb     03012221223D
 energy: -7.593304188141 gnorm: 0.000454802454 xtb: 6.4.1 (afa7bdf)
 38 39  0     0  0            999 V2000
   -8.0794   -1.2812    0.3909 N   0  0  0  0  0  0  0  0  0  0  0  0
   -6.7588   -1.1455    0.7761 N   0  0  0  0  0  0  0  0  0  0  0  0
   -6.1360    0.0324    0.4038 C   0  0  0  0  0  0  0  0  0  0  0  0
   -6.8271    1.0129    0.1845 O   0  0  0  0  0  0  0  0  0  0  0  0
   -4.6680    0.0863    0.2548 C   0  0  0  0  0  0  0  0  0  0  0  0
   -4.0999    1.1487   -0.4330 C   0  0  0  0  0  0  0  0  0  0  0  0
   -2.7376    1.2391   -0.5891 C   0  0  0  0  0  0  0  0  0  0  0  0
   -1.8890    0.2662   -0.0570 C   0  0  0  0  0  0  0  0  0  0  0  0
   -0.4541    0.3939   -0.2440 C   0  0  0  0  0  0  0  0  0  0  0  0
    0.4703   -0.4653    0.2119 C   0  0  0  0  0  0  0  0  0  0  0  0
    1.9049   -0.3372    0.0231 C   0  0  0  0  0  0  0  0  0  0  0  0
    2.4773    0.6966   -0.7217 C   0  0  0  0  0  0  0  0  0  0  0  0
    3.8407    0.7842   -0.8772 C   0  0  0  0  0  0  0  0  0  0  0  0
    4.6833   -0.1542   -0.2928 C   0  0  0  0  0  0  0  0  0  0  0  0
    6.1512   -0.0929   -0.4429 C   0  0  0  0  0  0  0  0  0  0  0  0
    6.8484   -1.0581   -0.1802 O   0  0  0  0  0  0  0  0  0  0  0  0
    6.7530    1.0804   -0.8613 N   0  0  0  0  0  0  0  0  0  0  0  0
    8.1001    1.2194   -0.5950 N   0  0  0  0  0  0  0  0  0  0  0  0
    4.1208   -1.1897    0.4392 C   0  0  0  0  0  0  0  0  0  0  0  0
    2.7587   -1.2813    0.5970 C   0  0  0  0  0  0  0  0  0  0  0  0
   -2.4669   -0.7962    0.6418 C   0  0  0  0  0  0  0  0  0  0  0  0
   -3.8307   -0.8824    0.7957 C   0  0  0  0  0  0  0  0  0  0  0  0
   -8.6081   -1.9774    0.9046 H   0  0  0  0  0  0  0  0  0  0  0  0
   -8.5798   -0.4025    0.4637 H   0  0  0  0  0  0  0  0  0  0  0  0
   -6.2612   -2.0278    0.6582 H   0  0  0  0  0  0  0  0  0  0  0  0
   -4.7536    1.9031   -0.8368 H   0  0  0  0  0  0  0  0  0  0  0  0
   -2.3124    2.0687   -1.1263 H   0  0  0  0  0  0  0  0  0  0  0  0
   -0.1271    1.2567   -0.7930 H   0  0  0  0  0  0  0  0  0  0  0  0
    0.1443   -1.3245    0.7671 H   0  0  0  0  0  0  0  0  0  0  0  0
    1.8471    1.4310   -1.1885 H   0  0  0  0  0  0  0  0  0  0  0  0
    4.2649    1.5740   -1.4710 H   0  0  0  0  0  0  0  0  0  0  0  0
    6.2660    1.9679   -0.7331 H   0  0  0  0  0  0  0  0  0  0  0  0
    8.6318    0.4274   -0.9309 H   0  0  0  0  0  0  0  0  0  0  0  0
    8.3101    1.2870    0.3928 H   0  0  0  0  0  0  0  0  0  0  0  0
    4.7782   -1.9223    0.8755 H   0  0  0  0  0  0  0  0  0  0  0  0
    2.3377   -2.0895    1.1690 H   0  0  0  0  0  0  0  0  0  0  0  0
   -1.8408   -1.5572    1.0702 H   0  0  0  0  0  0  0  0  0  0  0  0
   -4.2579   -1.6960    1.3540 H   0  0  0  0  0  0  0  0  0  0  0  0
  1  2  1  0  0  0  0
  2  3  1  0  0  0  0
  3  4  2  0  0  0  0
  3  5  1  0  0  0  0
  5  6  2  0  0  0  0
  6  7  1  0  0  0  0
  7  8  2  0  0  0  0
  8  9  1  0  0  0  0
  9 10  2  0  0  0  0
 10 11  1  0  0  0  0
 11 12  2  0  0  0  0
 12 13  1  0  0  0  0
 13 14  2  0  0  0  0
 14 15  1  0  0  0  0
 15 16  2  0  0  0  0
 15 17  1  0  0  0  0
 17 18  1  0  0  0  0
 14 19  1  0  0  0  0
 19 20  2  0  0  0  0
  8 21  1  0  0  0  0
 21 22  2  0  0  0  0
 22  5  1  0  0  0  0
 20 11  1  0  0  0  0
  1 23  1  0  0  0  0
  1 24  1  0  0  0  0
  2 25  1  0  0  0  0
  6 26  1  0  0  0  0
  7 27  1  0  0  0  0
  9 28  1  0  0  0  0
 10 29  1  0  0  0  0
 12 30  1  0  0  0  0
 13 31  1  0  0  0  0
 17 32  1  0  0  0  0
 18 33  1  0  0  0  0
 18 34  1  0  0  0  0
 19 35  1  0  0  0  0
 20 36  1  0  0  0  0
 21 37  1  0  0  0  0
 22 38  1  0  0  0  0
M  END
