
  xtb     03012221323D
 energy: -16.626157572411 gnorm: 0.000264095564 xtb: 6.4.1 (afa7bdf)
 78 86  0     0  0            999 V2000
   -2.7121    0.9843   -4.9199 C   0  0  0  0  0  0  0  0  0  0  0  0
   -1.8846   -0.0840   -4.1743 C   0  0  0  0  0  0  0  0  0  0  0  0
   -1.6848   -1.3180   -5.0689 C   0  0  0  0  0  0  0  0  0  0  0  0
   -0.5126    0.5012   -3.8346 C   0  0  0  0  0  0  0  0  0  0  0  0
    0.2300    1.1376   -4.8142 C   0  0  0  0  0  0  0  0  0  0  0  0
    1.4420    1.7340   -4.5298 C   0  0  0  0  0  0  0  0  0  0  0  0
    1.9366    1.6960   -3.2505 C   0  0  0  0  0  0  0  0  0  0  0  0
    1.2507    1.0327   -2.2425 C   0  0  0  0  0  0  0  0  0  0  0  0
    1.8003    1.0575   -0.8754 C   0  0  0  0  0  0  0  0  0  0  0  0
    1.6206   -0.0017   -0.1054 N   0  0  0  0  0  0  0  0  0  0  0  0
    2.1069    0.1103    1.1201 C   0  0  0  0  0  0  0  0  0  0  0  0
    1.8986   -1.0228    2.0270 C   0  0  0  0  0  0  0  0  0  0  0  0
    1.2441   -2.1653    1.5805 C   0  0  0  0  0  0  0  0  0  0  0  0
    1.0465   -3.2317    2.4267 C   0  0  0  0  0  0  0  0  0  0  0  0
    1.4839   -3.1708    3.7344 C   0  0  0  0  0  0  0  0  0  0  0  0
    2.1262   -2.0380    4.1933 C   0  0  0  0  0  0  0  0  0  0  0  0
    2.3347   -0.9724    3.3472 C   0  0  0  0  0  0  0  0  0  0  0  0
    2.7400    1.1678    1.5990 N   0  0  0  0  0  0  0  0  0  0  0  0
    2.8844    2.1592    0.7356 C   0  0  0  0  0  0  0  0  0  0  0  0
    3.5715    3.3677    1.2075 C   0  0  0  0  0  0  0  0  0  0  0  0
    3.7501    4.4587    0.3623 C   0  0  0  0  0  0  0  0  0  0  0  0
    4.3886    5.5935    0.8091 C   0  0  0  0  0  0  0  0  0  0  0  0
    4.8585    5.6587    2.1059 C   0  0  0  0  0  0  0  0  0  0  0  0
    4.6873    4.5840    2.9560 C   0  0  0  0  0  0  0  0  0  0  0  0
    4.0493    3.4479    2.5122 C   0  0  0  0  0  0  0  0  0  0  0  0
    2.4415    2.1583   -0.5111 N   0  0  0  0  0  0  0  0  0  0  0  0
    0.0089    0.4145   -2.5352 C   0  0  0  0  0  0  0  0  0  0  0  0
   -0.6649   -0.2382   -1.5117 O   0  0  0  0  0  0  0  0  0  0  0  0
   -2.0027   -0.5758   -1.6774 C   0  0  0  0  0  0  0  0  0  0  0  0
   -2.7216   -1.0131   -0.5353 C   0  0  0  0  0  0  0  0  0  0  0  0
   -2.0777   -1.2360    0.7377 N   0  0  0  0  0  0  0  0  0  0  0  0
   -1.6056   -0.1692    1.5718 C   0  0  0  0  0  0  0  0  0  0  0  0
   -1.0180    0.9623    1.0192 C   0  0  0  0  0  0  0  0  0  0  0  0
   -0.5042    1.9655    1.8120 C   0  0  0  0  0  0  0  0  0  0  0  0
   -0.5714    1.8597    3.1838 C   0  0  0  0  0  0  0  0  0  0  0  0
   -1.1633    0.7484    3.7543 C   0  0  0  0  0  0  0  0  0  0  0  0
   -1.6851   -0.2595    2.9667 C   0  0  0  0  0  0  0  0  0  0  0  0
   -2.4708   -1.6265    3.7681 S   0  0  0  0  0  0  0  0  0  0  0  0
   -2.1890   -2.8916    2.5683 C   0  0  0  0  0  0  0  0  0  0  0  0
   -2.1458   -4.2077    2.9850 C   0  0  0  0  0  0  0  0  0  0  0  0
   -1.9494   -5.2311    2.0758 C   0  0  0  0  0  0  0  0  0  0  0  0
   -1.7959   -4.9372    0.7372 C   0  0  0  0  0  0  0  0  0  0  0  0
   -1.8393   -3.6273    0.3095 C   0  0  0  0  0  0  0  0  0  0  0  0
   -2.0325   -2.5867    1.2127 C   0  0  0  0  0  0  0  0  0  0  0  0
   -4.0563   -1.3645   -0.6694 C   0  0  0  0  0  0  0  0  0  0  0  0
   -4.6814   -1.2983   -1.8911 C   0  0  0  0  0  0  0  0  0  0  0  0
   -3.9783   -0.8832   -3.0024 C   0  0  0  0  0  0  0  0  0  0  0  0
   -2.6454   -0.5092   -2.9167 C   0  0  0  0  0  0  0  0  0  0  0  0
   -2.8545    1.8609   -4.2886 H   0  0  0  0  0  0  0  0  0  0  0  0
   -3.6944    0.6083   -5.2002 H   0  0  0  0  0  0  0  0  0  0  0  0
   -2.2209    1.3058   -5.8365 H   0  0  0  0  0  0  0  0  0  0  0  0
   -1.1005   -2.0741   -4.5450 H   0  0  0  0  0  0  0  0  0  0  0  0
   -2.6405   -1.7620   -5.3452 H   0  0  0  0  0  0  0  0  0  0  0  0
   -1.1559   -1.0584   -5.9853 H   0  0  0  0  0  0  0  0  0  0  0  0
   -0.1435    1.1700   -5.8231 H   0  0  0  0  0  0  0  0  0  0  0  0
    1.9931    2.2362   -5.3070 H   0  0  0  0  0  0  0  0  0  0  0  0
    2.8688    2.1771   -3.0090 H   0  0  0  0  0  0  0  0  0  0  0  0
    0.8720   -2.1820    0.5709 H   0  0  0  0  0  0  0  0  0  0  0  0
    0.5255   -4.1060    2.0733 H   0  0  0  0  0  0  0  0  0  0  0  0
    1.3166   -4.0031    4.3979 H   0  0  0  0  0  0  0  0  0  0  0  0
    2.4645   -1.9874    5.2158 H   0  0  0  0  0  0  0  0  0  0  0  0
    2.8323   -0.0842    3.6936 H   0  0  0  0  0  0  0  0  0  0  0  0
    3.3787    4.3976   -0.6453 H   0  0  0  0  0  0  0  0  0  0  0  0
    4.5218    6.4325    0.1450 H   0  0  0  0  0  0  0  0  0  0  0  0
    5.3585    6.5473    2.4543 H   0  0  0  0  0  0  0  0  0  0  0  0
    5.0540    4.6343    3.9687 H   0  0  0  0  0  0  0  0  0  0  0  0
    3.9102    2.6052    3.1659 H   0  0  0  0  0  0  0  0  0  0  0  0
   -0.8854    1.0018   -0.0443 H   0  0  0  0  0  0  0  0  0  0  0  0
   -0.0124    2.8107    1.3584 H   0  0  0  0  0  0  0  0  0  0  0  0
   -0.1561    2.6335    3.8077 H   0  0  0  0  0  0  0  0  0  0  0  0
   -1.2266    0.6557    4.8259 H   0  0  0  0  0  0  0  0  0  0  0  0
   -2.2695   -4.4258    4.0328 H   0  0  0  0  0  0  0  0  0  0  0  0
   -1.9167   -6.2538    2.4128 H   0  0  0  0  0  0  0  0  0  0  0  0
   -1.6409   -5.7312    0.0250 H   0  0  0  0  0  0  0  0  0  0  0  0
   -1.7096   -3.3889   -0.7311 H   0  0  0  0  0  0  0  0  0  0  0  0
   -4.5876   -1.7093    0.2000 H   0  0  0  0  0  0  0  0  0  0  0  0
   -5.7172   -1.5839   -1.9828 H   0  0  0  0  0  0  0  0  0  0  0  0
   -4.4722   -0.8672   -3.9573 H   0  0  0  0  0  0  0  0  0  0  0  0
  1  2  1  0  0  0  0
  2  3  1  0  0  0  0
  2  4  1  0  0  0  0
  4  5  2  0  0  0  0
  5  6  1  0  0  0  0
  6  7  2  0  0  0  0
  7  8  1  0  0  0  0
  8  9  1  0  0  0  0
  9 10  2  0  0  0  0
 10 11  1  0  0  0  0
 11 12  1  0  0  0  0
 12 13  2  0  0  0  0
 13 14  1  0  0  0  0
 14 15  2  0  0  0  0
 15 16  1  0  0  0  0
 16 17  2  0  0  0  0
 11 18  2  0  0  0  0
 18 19  1  0  0  0  0
 19 20  1  0  0  0  0
 20 21  2  0  0  0  0
 21 22  1  0  0  0  0
 22 23  2  0  0  0  0
 23 24  1  0  0  0  0
 24 25  2  0  0  0  0
 19 26  2  0  0  0  0
  8 27  2  0  0  0  0
 27 28  1  0  0  0  0
 28 29  1  0  0  0  0
 29 30  2  0  0  0  0
 30 31  1  0  0  0  0
 31 32  1  0  0  0  0
 32 33  2  0  0  0  0
 33 34  1  0  0  0  0
 34 35  2  0  0  0  0
 35 36  1  0  0  0  0
 36 37  2  0  0  0  0
 37 38  1  0  0  0  0
 38 39  1  0  0  0  0
 39 40  2  0  0  0  0
 40 41  1  0  0  0  0
 41 42  2  0  0  0  0
 42 43  1  0  0  0  0
 43 44  2  0  0  0  0
 30 45  1  0  0  0  0
 45 46  2  0  0  0  0
 46 47  1  0  0  0  0
 47 48  2  0  0  0  0
 48  2  1  0  0  0  0
 27  4  1  0  0  0  0
 48 29  1  0  0  0  0
 26  9  1  0  0  0  0
 44 31  1  0  0  0  0
 17 12  1  0  0  0  0
 25 20  1  0  0  0  0
 37 32  1  0  0  0  0
 44 39  1  0  0  0  0
  1 49  1  0  0  0  0
  1 50  1  0  0  0  0
  1 51  1  0  0  0  0
  3 52  1  0  0  0  0
  3 53  1  0  0  0  0
  3 54  1  0  0  0  0
  5 55  1  0  0  0  0
  6 56  1  0  0  0  0
  7 57  1  0  0  0  0
 13 58  1  0  0  0  0
 14 59  1  0  0  0  0
 15 60  1  0  0  0  0
 16 61  1  0  0  0  0
 17 62  1  0  0  0  0
 21 63  1  0  0  0  0
 22 64  1  0  0  0  0
 23 65  1  0  0  0  0
 24 66  1  0  0  0  0
 25 67  1  0  0  0  0
 33 68  1  0  0  0  0
 34 69  1  0  0  0  0
 35 70  1  0  0  0  0
 36 71  1  0  0  0  0
 40 72  1  0  0  0  0
 41 73  1  0  0  0  0
 42 74  1  0  0  0  0
 43 75  1  0  0  0  0
 45 76  1  0  0  0  0
 46 77  1  0  0  0  0
 47 78  1  0  0  0  0
M  END
