
  xtb     03012221243D
 energy: -13.133219084838 gnorm: 0.000287699076 xtb: 6.4.1 (afa7bdf)
 60 65  0     0  0            999 V2000
   -7.8074   -4.7304   -0.1146 O   0  0  0  0  0  0  0  0  0  0  0  0
   -6.7695   -4.6260    0.4807 C   0  0  0  0  0  0  0  0  0  0  0  0
   -5.8802   -3.4768    0.3978 C   0  0  0  0  0  0  0  0  0  0  0  0
   -6.2295   -2.4024   -0.4107 C   0  0  0  0  0  0  0  0  0  0  0  0
   -5.4109   -1.3062   -0.5096 C   0  0  0  0  0  0  0  0  0  0  0  0
   -4.2101   -1.2471    0.1979 C   0  0  0  0  0  0  0  0  0  0  0  0
   -3.3499   -0.1082    0.0908 N   0  0  0  0  0  0  0  0  0  0  0  0
   -3.9076    1.2009   -0.0603 C   0  0  0  0  0  0  0  0  0  0  0  0
   -5.1051    1.5444    0.5673 C   0  0  0  0  0  0  0  0  0  0  0  0
   -5.6377    2.8001    0.4219 C   0  0  0  0  0  0  0  0  0  0  0  0
   -4.9954    3.7565   -0.3543 C   0  0  0  0  0  0  0  0  0  0  0  0
   -5.5859    5.0800   -0.4881 C   0  0  0  0  0  0  0  0  0  0  0  0
   -6.6105    5.4270    0.0338 O   0  0  0  0  0  0  0  0  0  0  0  0
   -3.7998    3.4216   -0.9847 C   0  0  0  0  0  0  0  0  0  0  0  0
   -3.2672    2.1658   -0.8386 C   0  0  0  0  0  0  0  0  0  0  0  0
   -1.9294   -0.2821    0.1186 C   0  0  0  0  0  0  0  0  0  0  0  0
   -1.3341   -1.3989   -0.4661 C   0  0  0  0  0  0  0  0  0  0  0  0
    0.0268   -1.5626   -0.4500 C   0  0  0  0  0  0  0  0  0  0  0  0
    0.8550   -0.6146    0.1529 C   0  0  0  0  0  0  0  0  0  0  0  0
    2.3213   -0.7827    0.1600 C   0  0  0  0  0  0  0  0  0  0  0  0
    2.9056   -2.0464    0.2817 C   0  0  0  0  0  0  0  0  0  0  0  0
    4.2703   -2.1944    0.2795 C   0  0  0  0  0  0  0  0  0  0  0  0
    5.1048   -1.0938    0.1553 C   0  0  0  0  0  0  0  0  0  0  0  0
    4.5376    0.1821    0.0345 C   0  0  0  0  0  0  0  0  0  0  0  0
    3.1625    0.3178    0.0393 C   0  0  0  0  0  0  0  0  0  0  0  0
    5.3842    1.3766   -0.1028 C   0  0  0  0  0  0  0  0  0  0  0  0
    4.8871    2.4808   -0.2047 O   0  0  0  0  0  0  0  0  0  0  0  0
    6.8438    1.1962   -0.1138 C   0  0  0  0  0  0  0  0  0  0  0  0
    7.6748    2.2976   -0.2462 C   0  0  0  0  0  0  0  0  0  0  0  0
    9.0422    2.1477   -0.2596 C   0  0  0  0  0  0  0  0  0  0  0  0
    9.6013    0.8897   -0.1404 C   0  0  0  0  0  0  0  0  0  0  0  0
    8.7902   -0.2131   -0.0081 C   0  0  0  0  0  0  0  0  0  0  0  0
    7.4105   -0.0801    0.0074 C   0  0  0  0  0  0  0  0  0  0  0  0
    6.5623   -1.2739    0.1487 C   0  0  0  0  0  0  0  0  0  0  0  0
    7.0547   -2.3803    0.2558 O   0  0  0  0  0  0  0  0  0  0  0  0
    0.2589    0.5027    0.7403 C   0  0  0  0  0  0  0  0  0  0  0  0
   -1.1025    0.6633    0.7236 C   0  0  0  0  0  0  0  0  0  0  0  0
   -3.8646   -2.3294    1.0079 C   0  0  0  0  0  0  0  0  0  0  0  0
   -4.6839   -3.4252    1.1083 C   0  0  0  0  0  0  0  0  0  0  0  0
   -6.4916   -5.4533    1.1184 H   0  0  0  0  0  0  0  0  0  0  0  0
   -7.1554   -2.4540   -0.9578 H   0  0  0  0  0  0  0  0  0  0  0  0
   -5.6786   -0.4834   -1.1501 H   0  0  0  0  0  0  0  0  0  0  0  0
   -5.5995    0.8122    1.1824 H   0  0  0  0  0  0  0  0  0  0  0  0
   -6.5605    3.0703    0.9064 H   0  0  0  0  0  0  0  0  0  0  0  0
   -5.0795    5.8162   -1.0966 H   0  0  0  0  0  0  0  0  0  0  0  0
   -3.2990    4.1573   -1.5893 H   0  0  0  0  0  0  0  0  0  0  0  0
   -2.3506    1.9038   -1.3387 H   0  0  0  0  0  0  0  0  0  0  0  0
   -1.9632   -2.1258   -0.9525 H   0  0  0  0  0  0  0  0  0  0  0  0
    0.4695   -2.4188   -0.9267 H   0  0  0  0  0  0  0  0  0  0  0  0
    2.2730   -2.9092    0.3946 H   0  0  0  0  0  0  0  0  0  0  0  0
    4.7220   -3.1673    0.3748 H   0  0  0  0  0  0  0  0  0  0  0  0
    2.7504    1.3047   -0.0727 H   0  0  0  0  0  0  0  0  0  0  0  0
    7.2230    3.2705   -0.3382 H   0  0  0  0  0  0  0  0  0  0  0  0
    9.6774    3.0120   -0.3636 H   0  0  0  0  0  0  0  0  0  0  0  0
   10.6721    0.7723   -0.1513 H   0  0  0  0  0  0  0  0  0  0  0  0
    9.2087   -1.2015    0.0857 H   0  0  0  0  0  0  0  0  0  0  0  0
    0.8793    1.2346    1.2259 H   0  0  0  0  0  0  0  0  0  0  0  0
   -1.5542    1.5209    1.1942 H   0  0  0  0  0  0  0  0  0  0  0  0
   -2.9464   -2.2845    1.5680 H   0  0  0  0  0  0  0  0  0  0  0  0
   -4.4095   -4.2534    1.7379 H   0  0  0  0  0  0  0  0  0  0  0  0
  1  2  2  0  0  0  0
  2  3  1  0  0  0  0
  3  4  2  0  0  0  0
  4  5  1  0  0  0  0
  5  6  2  0  0  0  0
  6  7  1  0  0  0  0
  7  8  1  0  0  0  0
  8  9  2  0  0  0  0
  9 10  1  0  0  0  0
 10 11  2  0  0  0  0
 11 12  1  0  0  0  0
 12 13  2  0  0  0  0
 11 14  1  0  0  0  0
 14 15  2  0  0  0  0
  7 16  1  0  0  0  0
 16 17  2  0  0  0  0
 17 18  1  0  0  0  0
 18 19  2  0  0  0  0
 19 20  1  0  0  0  0
 20 21  2  0  0  0  0
 21 22  1  0  0  0  0
 22 23  2  0  0  0  0
 23 24  1  0  0  0  0
 24 25  2  0  0  0  0
 24 26  1  0  0  0  0
 26 27  2  0  0  0  0
 26 28  1  0  0  0  0
 28 29  2  0  0  0  0
 29 30  1  0  0  0  0
 30 31  2  0  0  0  0
 31 32  1  0  0  0  0
 32 33  2  0  0  0  0
 33 34  1  0  0  0  0
 34 35  2  0  0  0  0
 19 36  1  0  0  0  0
 36 37  2  0  0  0  0
  6 38  1  0  0  0  0
 38 39  2  0  0  0  0
 39  3  1  0  0  0  0
 15  8  1  0  0  0  0
 37 16  1  0  0  0  0
 25 20  1  0  0  0  0
 33 28  1  0  0  0  0
 34 23  1  0  0  0  0
  2 40  1  0  0  0  0
  4 41  1  0  0  0  0
  5 42  1  0  0  0  0
  9 43  1  0  0  0  0
 10 44  1  0  0  0  0
 12 45  1  0  0  0  0
 14 46  1  0  0  0  0
 15 47  1  0  0  0  0
 17 48  1  0  0  0  0
 18 49  1  0  0  0  0
 21 50  1  0  0  0  0
 22 51  1  0  0  0  0
 25 52  1  0  0  0  0
 29 53  1  0  0  0  0
 30 54  1  0  0  0  0
 31 55  1  0  0  0  0
 32 56  1  0  0  0  0
 36 57  1  0  0  0  0
 37 58  1  0  0  0  0
 38 59  1  0  0  0  0
 39 60  1  0  0  0  0
M  END
