
  xtb     03012221303D
 energy: -10.219189686295 gnorm: 0.000280245411 xtb: 6.4.1 (afa7bdf)
 47 50  0     0  0            999 V2000
   -5.6713   -0.4115   -4.5836 C   0  0  0  0  0  0  0  0  0  0  0  0
   -4.4581   -0.3209   -3.7262 C   0  0  0  0  0  0  0  0  0  0  0  0
   -3.3575    0.4158   -4.1395 C   0  0  0  0  0  0  0  0  0  0  0  0
   -2.2404    0.5203   -3.3427 C   0  0  0  0  0  0  0  0  0  0  0  0
   -2.1884   -0.0975   -2.0941 C   0  0  0  0  0  0  0  0  0  0  0  0
   -0.9881    0.0067   -1.2717 C   0  0  0  0  0  0  0  0  0  0  0  0
    0.5971    0.1544   -1.9389 S   0  0  0  0  0  0  0  0  0  0  0  0
    1.2947    0.1085   -0.3386 C   0  0  0  0  0  0  0  0  0  0  0  0
    2.7140    0.1675   -0.1143 C   0  0  0  0  0  0  0  0  0  0  0  0
    3.5348    0.2654   -1.2406 C   0  0  0  0  0  0  0  0  0  0  0  0
    4.2177    0.3493   -2.1772 N   0  0  0  0  0  0  0  0  0  0  0  0
    3.1793    0.1293    1.1620 C   0  0  0  0  0  0  0  0  0  0  0  0
    4.5495    0.1748    1.6206 C   0  0  0  0  0  0  0  0  0  0  0  0
    4.8024    0.1207    2.9942 C   0  0  0  0  0  0  0  0  0  0  0  0
    6.0854    0.1593    3.4815 C   0  0  0  0  0  0  0  0  0  0  0  0
    7.1700    0.2535    2.6179 C   0  0  0  0  0  0  0  0  0  0  0  0
    8.4779    0.2919    3.1182 C   0  0  0  0  0  0  0  0  0  0  0  0
    9.5617    0.3255    3.5367 N   0  0  0  0  0  0  0  0  0  0  0  0
    6.9299    0.3081    1.2503 C   0  0  0  0  0  0  0  0  0  0  0  0
    5.6485    0.2696    0.7614 C   0  0  0  0  0  0  0  0  0  0  0  0
    0.3964    0.0190    0.6092 N   0  0  0  0  0  0  0  0  0  0  0  0
   -0.8829   -0.0098    0.1151 C   0  0  0  0  0  0  0  0  0  0  0  0
   -2.0275   -0.0165    1.0472 C   0  0  0  0  0  0  0  0  0  0  0  0
   -1.9856   -0.8130    2.1908 C   0  0  0  0  0  0  0  0  0  0  0  0
   -3.0338   -0.8213    3.0786 C   0  0  0  0  0  0  0  0  0  0  0  0
   -4.1434   -0.0235    2.8473 C   0  0  0  0  0  0  0  0  0  0  0  0
   -5.4638   -0.0420    3.9546 Cl  0  0  0  0  0  0  0  0  0  0  0  0
   -4.1910    0.7897    1.7260 C   0  0  0  0  0  0  0  0  0  0  0  0
   -3.1429    0.7970    0.8385 C   0  0  0  0  0  0  0  0  0  0  0  0
   -3.2956   -0.8434   -1.6887 C   0  0  0  0  0  0  0  0  0  0  0  0
   -4.4108   -0.9459   -2.4880 C   0  0  0  0  0  0  0  0  0  0  0  0
   -6.2749    0.4922   -4.4963 H   0  0  0  0  0  0  0  0  0  0  0  0
   -6.2940   -1.2603   -4.2998 H   0  0  0  0  0  0  0  0  0  0  0  0
   -5.4000   -0.5364   -5.6322 H   0  0  0  0  0  0  0  0  0  0  0  0
   -3.3855    0.9072   -5.0964 H   0  0  0  0  0  0  0  0  0  0  0  0
   -1.3877    1.0869   -3.6756 H   0  0  0  0  0  0  0  0  0  0  0  0
    2.4303    0.0557    1.9301 H   0  0  0  0  0  0  0  0  0  0  0  0
    3.9727    0.0473    3.6762 H   0  0  0  0  0  0  0  0  0  0  0  0
    6.2680    0.1169    4.5418 H   0  0  0  0  0  0  0  0  0  0  0  0
    7.7682    0.3808    0.5782 H   0  0  0  0  0  0  0  0  0  0  0  0
    5.4957    0.3130   -0.3008 H   0  0  0  0  0  0  0  0  0  0  0  0
   -1.1154   -1.4222    2.3655 H   0  0  0  0  0  0  0  0  0  0  0  0
   -3.0080   -1.4391    3.9603 H   0  0  0  0  0  0  0  0  0  0  0  0
   -5.0551    1.4124    1.5676 H   0  0  0  0  0  0  0  0  0  0  0  0
   -3.1691    1.4364   -0.0270 H   0  0  0  0  0  0  0  0  0  0  0  0
   -3.2636   -1.3533   -0.7414 H   0  0  0  0  0  0  0  0  0  0  0  0
   -5.2594   -1.5185   -2.1563 H   0  0  0  0  0  0  0  0  0  0  0  0
  1  2  1  0  0  0  0
  2  3  2  0  0  0  0
  3  4  1  0  0  0  0
  4  5  2  0  0  0  0
  5  6  1  0  0  0  0
  6  7  1  0  0  0  0
  7  8  1  0  0  0  0
  8  9  1  0  0  0  0
  9 10  1  0  0  0  0
 10 11  3  0  0  0  0
  9 12  2  0  0  0  0
 12 13  1  0  0  0  0
 13 14  2  0  0  0  0
 14 15  1  0  0  0  0
 15 16  2  0  0  0  0
 16 17  1  0  0  0  0
 17 18  3  0  0  0  0
 16 19  1  0  0  0  0
 19 20  2  0  0  0  0
  8 21  2  0  0  0  0
 21 22  1  0  0  0  0
 22 23  1  0  0  0  0
 23 24  2  0  0  0  0
 24 25  1  0  0  0  0
 25 26  2  0  0  0  0
 26 27  1  0  0  0  0
 26 28  1  0  0  0  0
 28 29  2  0  0  0  0
  5 30  1  0  0  0  0
 30 31  2  0  0  0  0
 31  2  1  0  0  0  0
 22  6  2  0  0  0  0
 29 23  1  0  0  0  0
 20 13  1  0  0  0  0
  1 32  1  0  0  0  0
  1 33  1  0  0  0  0
  1 34  1  0  0  0  0
  3 35  1  0  0  0  0
  4 36  1  0  0  0  0
 12 37  1  0  0  0  0
 14 38  1  0  0  0  0
 15 39  1  0  0  0  0
 19 40  1  0  0  0  0
 20 41  1  0  0  0  0
 24 42  1  0  0  0  0
 25 43  1  0  0  0  0
 28 44  1  0  0  0  0
 29 45  1  0  0  0  0
 30 46  1  0  0  0  0
 31 47  1  0  0  0  0
M  END
