
  xtb     03012221243D
 energy: -5.837868409642 gnorm: 0.000324725663 xtb: 6.4.1 (afa7bdf)
 28 29  0     0  0            999 V2000
    5.9575    3.3027   -1.0748 C   0  0  0  0  0  3  0  0  0  0  0  0
    4.9519    2.7499   -0.8948 N   0  0  0  0  0  4  0  0  0  0  0  0
    3.7471    2.0891   -0.6807 C   0  0  0  0  0  0  0  0  0  0  0  0
    3.2063    1.2720   -1.6613 C   0  0  0  0  0  0  0  0  0  0  0  0
    2.0134    0.6189   -1.4525 C   0  0  0  0  0  0  0  0  0  0  0  0
    1.3188    0.7609   -0.2501 C   0  0  0  0  0  0  0  0  0  0  0  0
    0.0391    0.0592   -0.0225 C   0  0  0  0  0  0  0  0  0  0  0  0
   -0.8671   -0.1431   -1.0671 C   0  0  0  0  0  0  0  0  0  0  0  0
   -2.0550   -0.7969   -0.8569 C   0  0  0  0  0  0  0  0  0  0  0  0
   -2.3934   -1.2812    0.4102 C   0  0  0  0  0  0  0  0  0  0  0  0
   -3.6017   -1.9447    0.6047 N   0  0  0  0  0  0  0  0  0  0  0  0
   -4.0772   -2.4603    1.8759 C   0  0  0  0  0  0  0  0  0  0  0  0
   -1.4893   -1.0788    1.4569 C   0  0  0  0  0  0  0  0  0  0  0  0
   -0.3022   -0.4239    1.2438 C   0  0  0  0  0  0  0  0  0  0  0  0
    1.8720    1.5852    0.7311 C   0  0  0  0  0  0  0  0  0  0  0  0
    3.0648    2.2367    0.5171 C   0  0  0  0  0  0  0  0  0  0  0  0
    3.7406    1.1574   -2.5880 H   0  0  0  0  0  0  0  0  0  0  0  0
    1.6152   -0.0259   -2.2161 H   0  0  0  0  0  0  0  0  0  0  0  0
   -0.6314    0.2381   -2.0455 H   0  0  0  0  0  0  0  0  0  0  0  0
   -2.7449   -0.9439   -1.6693 H   0  0  0  0  0  0  0  0  0  0  0  0
   -4.2595   -2.0444   -0.1690 H   0  0  0  0  0  0  0  0  0  0  0  0
   -4.1854   -1.6463    2.5922 H   0  0  0  0  0  0  0  0  0  0  0  0
   -5.0431   -2.9567    1.7748 H   0  0  0  0  0  0  0  0  0  0  0  0
   -3.3663   -3.1828    2.2753 H   0  0  0  0  0  0  0  0  0  0  0  0
   -1.7329   -1.4455    2.4380 H   0  0  0  0  0  0  0  0  0  0  0  0
    0.3902   -0.2930    2.0572 H   0  0  0  0  0  0  0  0  0  0  0  0
    1.3456    1.7236    1.6591 H   0  0  0  0  0  0  0  0  0  0  0  0
    3.4869    2.8736    1.2745 H   0  0  0  0  0  0  0  0  0  0  0  0
  1  2  3  0  0  0  0
  2  3  1  0  0  0  0
  3  4  2  0  0  0  0
  4  5  1  0  0  0  0
  5  6  2  0  0  0  0
  6  7  1  0  0  0  0
  7  8  2  0  0  0  0
  8  9  1  0  0  0  0
  9 10  2  0  0  0  0
 10 11  1  0  0  0  0
 11 12  1  0  0  0  0
 10 13  1  0  0  0  0
 13 14  2  0  0  0  0
  6 15  1  0  0  0  0
 15 16  2  0  0  0  0
 16  3  1  0  0  0  0
 14  7  1  0  0  0  0
  4 17  1  0  0  0  0
  5 18  1  0  0  0  0
  8 19  1  0  0  0  0
  9 20  1  0  0  0  0
 11 21  1  0  0  0  0
 12 22  1  0  0  0  0
 12 23  1  0  0  0  0
 12 24  1  0  0  0  0
 13 25  1  0  0  0  0
 14 26  1  0  0  0  0
 15 27  1  0  0  0  0
 16 28  1  0  0  0  0
M  CHG  1   1  -1
M  CHG  1   2   1
M  END
