
  xtb     03012221233D
 energy: -8.871154974187 gnorm: 0.000310287841 xtb: 6.4.1 (afa7bdf)
 41 45  0     0  0            999 V2000
    2.0612    0.0135    7.4826 C   0  0  0  0  0  0  0  0  0  0  0  0
    2.1881    0.7469    6.2991 O   0  0  0  0  0  0  0  0  0  0  0  0
    1.5183    0.1399    5.2458 C   0  0  0  0  0  0  0  0  0  0  0  0
    0.8812   -0.9992    5.4806 N   0  0  0  0  0  0  0  0  0  0  0  0
    0.2659   -1.5171    4.4368 C   0  0  0  0  0  0  0  0  0  0  0  0
   -0.5975   -3.0193    4.6770 Cl  0  0  0  0  0  0  0  0  0  0  0  0
    0.2430   -1.0021    3.2251 N   0  0  0  0  0  0  0  0  0  0  0  0
    0.9086    0.1339    3.0944 C   0  0  0  0  0  0  0  0  0  0  0  0
    0.9453    0.7679    1.8437 N   0  0  0  0  0  0  0  0  0  0  0  0
    0.3854    0.3825    0.6353 C   0  0  0  0  0  0  0  0  0  0  0  0
   -0.3290   -0.8021    0.5413 C   0  0  0  0  0  0  0  0  0  0  0  0
   -0.8924   -1.2286   -0.6374 C   0  0  0  0  0  0  0  0  0  0  0  0
   -0.7771   -0.4889   -1.8097 C   0  0  0  0  0  0  0  0  0  0  0  0
   -0.0551    0.7394   -1.7586 C   0  0  0  0  0  0  0  0  0  0  0  0
    0.0907    1.5401   -2.9224 C   0  0  0  0  0  0  0  0  0  0  0  0
    0.7868    2.7261   -2.8623 C   0  0  0  0  0  0  0  0  0  0  0  0
    1.3521    3.1552   -1.6744 C   0  0  0  0  0  0  0  0  0  0  0  0
    1.2278    2.4033   -0.5370 C   0  0  0  0  0  0  0  0  0  0  0  0
    0.5291    1.1848   -0.5427 C   0  0  0  0  0  0  0  0  0  0  0  0
   -0.4947    1.1183   -4.1919 C   0  0  0  0  0  0  0  0  0  0  0  0
   -0.3746    1.8012   -5.1959 O   0  0  0  0  0  0  0  0  0  0  0  0
   -1.2289   -0.1464   -4.2254 C   0  0  0  0  0  0  0  0  0  0  0  0
   -1.7898   -0.5631   -5.4253 C   0  0  0  0  0  0  0  0  0  0  0  0
   -2.4858   -1.7427   -5.5025 C   0  0  0  0  0  0  0  0  0  0  0  0
   -2.6329   -2.5297   -4.3740 C   0  0  0  0  0  0  0  0  0  0  0  0
   -2.0852   -2.1332   -3.1792 C   0  0  0  0  0  0  0  0  0  0  0  0
   -1.3694   -0.9347   -3.0662 C   0  0  0  0  0  0  0  0  0  0  0  0
    1.5615    0.7455    4.0686 N   0  0  0  0  0  0  0  0  0  0  0  0
    1.0037   -0.0576    7.7450 H   0  0  0  0  0  0  0  0  0  0  0  0
    2.6092    0.5255    8.2753 H   0  0  0  0  0  0  0  0  0  0  0  0
    2.4736   -0.9856    7.3282 H   0  0  0  0  0  0  0  0  0  0  0  0
    1.4793    1.6325    1.8677 H   0  0  0  0  0  0  0  0  0  0  0  0
   -0.4380   -1.3985    1.4259 H   0  0  0  0  0  0  0  0  0  0  0  0
   -1.4328   -2.1572   -0.6418 H   0  0  0  0  0  0  0  0  0  0  0  0
    0.8793    3.3109   -3.7612 H   0  0  0  0  0  0  0  0  0  0  0  0
    1.8927    4.0882   -1.6467 H   0  0  0  0  0  0  0  0  0  0  0  0
    1.6735    2.7620    0.3714 H   0  0  0  0  0  0  0  0  0  0  0  0
   -1.6638    0.0634   -6.2915 H   0  0  0  0  0  0  0  0  0  0  0  0
   -2.9168   -2.0557   -6.4400 H   0  0  0  0  0  0  0  0  0  0  0  0
   -3.1789   -3.4560   -4.4351 H   0  0  0  0  0  0  0  0  0  0  0  0
   -2.2133   -2.7634   -2.3175 H   0  0  0  0  0  0  0  0  0  0  0  0
  1  2  1  0  0  0  0
  2  3  1  0  0  0  0
  3  4  2  0  0  0  0
  4  5  1  0  0  0  0
  5  6  1  0  0  0  0
  5  7  2  0  0  0  0
  7  8  1  0  0  0  0
  8  9  1  0  0  0  0
  9 10  1  0  0  0  0
 10 11  2  0  0  0  0
 11 12  1  0  0  0  0
 12 13  2  0  0  0  0
 13 14  1  0  0  0  0
 14 15  2  0  0  0  0
 15 16  1  0  0  0  0
 16 17  2  0  0  0  0
 17 18  1  0  0  0  0
 18 19  2  0  0  0  0
 15 20  1  0  0  0  0
 20 21  2  0  0  0  0
 20 22  1  0  0  0  0
 22 23  2  0  0  0  0
 23 24  1  0  0  0  0
 24 25  2  0  0  0  0
 25 26  1  0  0  0  0
 26 27  2  0  0  0  0
  8 28  2  0  0  0  0
 28  3  1  0  0  0  0
 19 10  1  0  0  0  0
 27 22  1  0  0  0  0
 27 13  1  0  0  0  0
 19 14  1  0  0  0  0
  1 29  1  0  0  0  0
  1 30  1  0  0  0  0
  1 31  1  0  0  0  0
  9 32  1  0  0  0  0
 11 33  1  0  0  0  0
 12 34  1  0  0  0  0
 16 35  1  0  0  0  0
 17 36  1  0  0  0  0
 18 37  1  0  0  0  0
 23 38  1  0  0  0  0
 24 39  1  0  0  0  0
 25 40  1  0  0  0  0
 26 41  1  0  0  0  0
M  END
