
  xtb     03012221293D
 energy: -14.676571848591 gnorm: 0.000205719572 xtb: 6.4.1 (afa7bdf)
 66 74  0     0  0            999 V2000
   -2.3991   -3.5541   -0.1069 C   0  0  0  0  0  0  0  0  0  0  0  0
   -1.1924   -4.1247   -0.2584 C   0  0  0  0  0  0  0  0  0  0  0  0
   -0.2518   -3.0582   -0.4117 C   0  0  0  0  0  0  0  0  0  0  0  0
   -0.8854   -1.8682   -0.3115 N   0  0  0  0  0  0  0  0  0  0  0  0
   -2.1999   -2.1423   -0.1625 C   0  0  0  0  0  0  0  0  0  0  0  0
   -3.2736   -1.2141   -0.0987 C   0  0  0  0  0  0  0  0  0  0  0  0
   -4.6289   -1.7271    0.0210 C   0  0  0  0  0  0  0  0  0  0  0  0
   -5.7248   -1.0619    0.5861 C   0  0  0  0  0  0  0  0  0  0  0  0
   -6.8092   -1.9107    0.5133 C   0  0  0  0  0  0  0  0  0  0  0  0
   -6.3671   -3.0709   -0.0838 C   0  0  0  0  0  0  0  0  0  0  0  0
   -5.0489   -2.9790   -0.3802 O   0  0  0  0  0  0  0  0  0  0  0  0
   -3.0403    0.1854   -0.1583 C   0  0  0  0  0  0  0  0  0  0  0  0
   -4.0065    1.1865   -0.4121 C   0  0  0  0  0  0  0  0  0  0  0  0
   -3.4035    2.4038   -0.2944 C   0  0  0  0  0  0  0  0  0  0  0  0
   -2.0461    2.2007    0.0309 C   0  0  0  0  0  0  0  0  0  0  0  0
   -1.8469    0.8377    0.0679 N   0  0  0  0  0  0  0  0  0  0  0  0
   -1.1109    3.2171    0.3362 C   0  0  0  0  0  0  0  0  0  0  0  0
   -1.5653    4.5960    0.3178 C   0  0  0  0  0  0  0  0  0  0  0  0
   -0.7686    5.7371    0.1590 C   0  0  0  0  0  0  0  0  0  0  0  0
   -1.6051    6.8333    0.1793 C   0  0  0  0  0  0  0  0  0  0  0  0
   -2.8863    6.3536    0.3433 C   0  0  0  0  0  0  0  0  0  0  0  0
   -2.8801    5.0014    0.4209 O   0  0  0  0  0  0  0  0  0  0  0  0
    0.2350    2.8951    0.6884 C   0  0  0  0  0  0  0  0  0  0  0  0
    0.8973    1.7605    0.3734 N   0  0  0  0  0  0  0  0  0  0  0  0
    2.1743    1.9334    0.7787 C   0  0  0  0  0  0  0  0  0  0  0  0
    3.2696    1.0574    0.5218 C   0  0  0  0  0  0  0  0  0  0  0  0
    4.6411    1.5250    0.6372 C   0  0  0  0  0  0  0  0  0  0  0  0
    5.0919    2.8449    0.5045 C   0  0  0  0  0  0  0  0  0  0  0  0
    6.4627    2.8324    0.6551 C   0  0  0  0  0  0  0  0  0  0  0  0
    6.8278    1.5215    0.8705 C   0  0  0  0  0  0  0  0  0  0  0  0
    5.7384    0.7171    0.8542 O   0  0  0  0  0  0  0  0  0  0  0  0
    3.0577   -0.2834    0.1234 C   0  0  0  0  0  0  0  0  0  0  0  0
    4.0753   -1.2138   -0.1768 C   0  0  0  0  0  0  0  0  0  0  0  0
    3.4901   -2.4006   -0.5036 C   0  0  0  0  0  0  0  0  0  0  0  0
    2.0901   -2.2485   -0.4098 C   0  0  0  0  0  0  0  0  0  0  0  0
    1.8571   -0.9432   -0.0327 N   0  0  0  0  0  0  0  0  0  0  0  0
    1.1404   -3.2723   -0.6383 C   0  0  0  0  0  0  0  0  0  0  0  0
    1.6282   -4.5702   -1.0765 C   0  0  0  0  0  0  0  0  0  0  0  0
    0.9178   -5.5238   -1.8172 C   0  0  0  0  0  0  0  0  0  0  0  0
    1.7614   -6.5928   -2.0351 C   0  0  0  0  0  0  0  0  0  0  0  0
    2.9627   -6.2804   -1.4371 C   0  0  0  0  0  0  0  0  0  0  0  0
    2.9013   -5.0566   -0.8605 O   0  0  0  0  0  0  0  0  0  0  0  0
    2.3002    3.1793    1.4695 C   0  0  0  0  0  0  0  0  0  0  0  0
    1.0982    3.7781    1.4096 C   0  0  0  0  0  0  0  0  0  0  0  0
   -3.3442   -4.0560    0.0179 H   0  0  0  0  0  0  0  0  0  0  0  0
   -0.9751   -5.1795   -0.2176 H   0  0  0  0  0  0  0  0  0  0  0  0
   -5.7104   -0.0891    1.0507 H   0  0  0  0  0  0  0  0  0  0  0  0
   -7.8071   -1.7093    0.8652 H   0  0  0  0  0  0  0  0  0  0  0  0
   -6.9711   -3.9457   -0.2909 H   0  0  0  0  0  0  0  0  0  0  0  0
   -5.0347    1.0198   -0.6871 H   0  0  0  0  0  0  0  0  0  0  0  0
   -3.8774    3.3656   -0.3975 H   0  0  0  0  0  0  0  0  0  0  0  0
   -0.9466    0.3775    0.2549 H   0  0  0  0  0  0  0  0  0  0  0  0
    0.2965    5.7534   -0.0068 H   0  0  0  0  0  0  0  0  0  0  0  0
   -1.3139    7.8653    0.0771 H   0  0  0  0  0  0  0  0  0  0  0  0
   -3.7847    6.9558    0.3997 H   0  0  0  0  0  0  0  0  0  0  0  0
    4.4880    3.7044    0.2621 H   0  0  0  0  0  0  0  0  0  0  0  0
    7.1222    3.6824    0.6021 H   0  0  0  0  0  0  0  0  0  0  0  0
    7.8381    1.1635    1.0257 H   0  0  0  0  0  0  0  0  0  0  0  0
    5.1324   -1.0137   -0.1259 H   0  0  0  0  0  0  0  0  0  0  0  0
    3.9978   -3.3157   -0.7580 H   0  0  0  0  0  0  0  0  0  0  0  0
    0.9279   -0.5158    0.0722 H   0  0  0  0  0  0  0  0  0  0  0  0
   -0.0839   -5.4161   -2.2013 H   0  0  0  0  0  0  0  0  0  0  0  0
    1.5289   -7.4937   -2.5777 H   0  0  0  0  0  0  0  0  0  0  0  0
    3.8452   -6.9082   -1.4241 H   0  0  0  0  0  0  0  0  0  0  0  0
    3.1706    3.5433    1.9906 H   0  0  0  0  0  0  0  0  0  0  0  0
    0.8236    4.7119    1.8726 H   0  0  0  0  0  0  0  0  0  0  0  0
  1  2  2  0  0  0  0
  2  3  1  0  0  0  0
  3  4  2  0  0  0  0
  4  5  1  0  0  0  0
  5  6  2  0  0  0  0
  6  7  1  0  0  0  0
  7  8  2  0  0  0  0
  8  9  1  0  0  0  0
  9 10  2  0  0  0  0
 10 11  1  0  0  0  0
  6 12  1  0  0  0  0
 12 13  2  0  0  0  0
 13 14  1  0  0  0  0
 14 15  2  0  0  0  0
 15 16  1  0  0  0  0
 15 17  1  0  0  0  0
 17 18  1  0  0  0  0
 18 19  2  0  0  0  0
 19 20  1  0  0  0  0
 20 21  2  0  0  0  0
 21 22  1  0  0  0  0
 17 23  2  0  0  0  0
 23 24  1  0  0  0  0
 24 25  2  0  0  0  0
 25 26  1  0  0  0  0
 26 27  1  0  0  0  0
 27 28  2  0  0  0  0
 28 29  1  0  0  0  0
 29 30  2  0  0  0  0
 30 31  1  0  0  0  0
 26 32  2  0  0  0  0
 32 33  1  0  0  0  0
 33 34  2  0  0  0  0
 34 35  1  0  0  0  0
 35 36  1  0  0  0  0
 35 37  2  0  0  0  0
 37 38  1  0  0  0  0
 38 39  2  0  0  0  0
 39 40  1  0  0  0  0
 40 41  2  0  0  0  0
 41 42  1  0  0  0  0
 25 43  1  0  0  0  0
 43 44  2  0  0  0  0
  5  1  1  0  0  0  0
 11  7  1  0  0  0  0
 16 12  1  0  0  0  0
 22 18  1  0  0  0  0
 44 23  1  0  0  0  0
 37  3  1  0  0  0  0
 42 38  1  0  0  0  0
 31 27  1  0  0  0  0
 36 32  1  0  0  0  0
  1 45  1  0  0  0  0
  2 46  1  0  0  0  0
  8 47  1  0  0  0  0
  9 48  1  0  0  0  0
 10 49  1  0  0  0  0
 13 50  1  0  0  0  0
 14 51  1  0  0  0  0
 16 52  1  0  0  0  0
 19 53  1  0  0  0  0
 20 54  1  0  0  0  0
 21 55  1  0  0  0  0
 28 56  1  0  0  0  0
 29 57  1  0  0  0  0
 30 58  1  0  0  0  0
 33 59  1  0  0  0  0
 34 60  1  0  0  0  0
 36 61  1  0  0  0  0
 39 62  1  0  0  0  0
 40 63  1  0  0  0  0
 41 64  1  0  0  0  0
 43 65  1  0  0  0  0
 44 66  1  0  0  0  0
M  END
