
  xtb     03012221323D
 energy: -5.438304379148 gnorm: 0.000429900356 xtb: 6.4.1 (afa7bdf)
 26 28  0     0  0            999 V2000
   -0.3826    3.1492    0.6371 C   0  0  0  0  0  0  0  0  0  0  0  0
   -0.9230    1.7909    0.4440 C   0  0  0  0  0  0  0  0  0  0  0  0
   -2.2492    1.4393    0.4831 N   0  0  0  0  0  0  0  0  0  0  0  0
   -2.3757    0.0804    0.2280 C   0  0  0  0  0  0  0  0  0  0  0  0
   -3.4875   -0.7661    0.1532 C   0  0  0  0  0  0  0  0  0  0  0  0
   -3.2846   -2.0925   -0.1242 C   0  0  0  0  0  0  0  0  0  0  0  0
   -1.9944   -2.6035   -0.3318 C   0  0  0  0  0  0  0  0  0  0  0  0
   -0.8962   -1.7899   -0.2640 C   0  0  0  0  0  0  0  0  0  0  0  0
   -1.0853   -0.4331    0.0184 C   0  0  0  0  0  0  0  0  0  0  0  0
   -0.1728    0.6559    0.1525 C   0  0  0  0  0  0  0  0  0  0  0  0
    1.1933    0.5828    0.0170 N   0  0  0  0  0  0  0  0  0  0  0  0
    1.7392   -0.5014   -0.2416 N   0  0  0  0  0  0  0  0  0  0  0  0
    3.0929   -0.5749   -0.3788 C   0  0  0  0  0  0  0  0  0  0  0  0
    3.7613   -1.6633   -0.6617 N   0  0  0  0  0  0  0  0  0  0  0  0
    5.0811   -1.4797   -0.7399 N   0  0  0  0  0  0  0  0  0  0  0  0
    5.4638   -0.2665   -0.5263 C   0  0  0  0  0  0  0  0  0  0  0  0
    4.1482    0.7924   -0.1955 S   0  0  0  0  0  0  0  0  0  0  0  0
   -1.1029    3.7855    1.1509 H   0  0  0  0  0  0  0  0  0  0  0  0
    0.5300    3.1188    1.2327 H   0  0  0  0  0  0  0  0  0  0  0  0
   -0.1446    3.6084   -0.3223 H   0  0  0  0  0  0  0  0  0  0  0  0
   -3.0328    2.0670    0.6653 H   0  0  0  0  0  0  0  0  0  0  0  0
   -4.4735   -0.3673    0.3132 H   0  0  0  0  0  0  0  0  0  0  0  0
   -4.1303   -2.7574   -0.1845 H   0  0  0  0  0  0  0  0  0  0  0  0
   -1.8678   -3.6516   -0.5481 H   0  0  0  0  0  0  0  0  0  0  0  0
    0.1004   -2.1598   -0.4209 H   0  0  0  0  0  0  0  0  0  0  0  0
    6.4931    0.0363   -0.5561 H   0  0  0  0  0  0  0  0  0  0  0  0
  1  2  1  0  0  0  0
  2  3  1  0  0  0  0
  3  4  1  0  0  0  0
  4  5  2  0  0  0  0
  5  6  1  0  0  0  0
  6  7  2  0  0  0  0
  7  8  1  0  0  0  0
  8  9  2  0  0  0  0
  9 10  1  0  0  0  0
 10 11  1  0  0  0  0
 11 12  2  0  0  0  0
 12 13  1  0  0  0  0
 13 14  2  0  0  0  0
 14 15  1  0  0  0  0
 15 16  2  0  0  0  0
 16 17  1  0  0  0  0
 10  2  2  0  0  0  0
 17 13  1  0  0  0  0
  9  4  1  0  0  0  0
  1 18  1  0  0  0  0
  1 19  1  0  0  0  0
  1 20  1  0  0  0  0
  3 21  1  0  0  0  0
  5 22  1  0  0  0  0
  6 23  1  0  0  0  0
  7 24  1  0  0  0  0
  8 25  1  0  0  0  0
 16 26  1  0  0  0  0
M  END
