
  xtb     03012221253D
 energy: -14.129756521530 gnorm: 0.000383216933 xtb: 6.4.1 (afa7bdf)
 76 80  0     0  0            999 V2000
    2.9369   -5.3345   -1.1846 C   0  0  0  0  0  0  0  0  0  0  0  0
    1.8369   -5.8889   -0.2938 C   0  0  0  0  0  0  0  0  0  0  0  0
    1.8379   -5.2702    1.1094 C   0  0  0  0  0  0  0  0  0  0  0  0
    1.5969   -3.7947    1.0934 C   0  0  0  0  0  0  0  0  0  0  0  0
    2.5447   -2.8220    1.1911 C   0  0  0  0  0  0  0  0  0  0  0  0
    1.8617   -1.5810    1.0492 C   0  0  0  0  0  0  0  0  0  0  0  0
    0.5532   -1.7926    0.8659 N   0  0  0  0  0  0  0  0  0  0  0  0
    0.3382   -3.1193    0.8798 C   0  0  0  0  0  0  0  0  0  0  0  0
   -0.9117   -3.7747    0.7122 C   0  0  0  0  0  0  0  0  0  0  0  0
   -2.1688   -3.2688    0.4729 C   0  0  0  0  0  0  0  0  0  0  0  0
   -2.6094   -1.9325    0.3021 C   0  0  0  0  0  0  0  0  0  0  0  0
   -1.8505   -0.7913    0.3268 N   0  0  0  0  0  0  0  0  0  0  0  0
   -2.6124    0.3199    0.1240 C   0  0  0  0  0  0  0  0  0  0  0  0
   -3.9410   -0.1238   -0.0493 C   0  0  0  0  0  0  0  0  0  0  0  0
   -3.9507   -1.4971    0.0639 C   0  0  0  0  0  0  0  0  0  0  0  0
   -5.1484   -2.3745   -0.0953 C   0  0  0  0  0  0  0  0  0  0  0  0
   -5.2400   -2.9867   -1.4852 C   0  0  0  0  0  0  0  0  0  0  0  0
   -6.4141   -3.7577   -1.6982 O   0  0  0  0  0  0  0  0  0  0  0  0
   -6.4669   -4.9197   -0.9072 C   0  0  0  0  0  0  0  0  0  0  0  0
   -2.0641    1.6404    0.1252 C   0  0  0  0  0  0  0  0  0  0  0  0
   -0.7553    1.8542    0.2923 N   0  0  0  0  0  0  0  0  0  0  0  0
   -0.5441    3.1815    0.2773 C   0  0  0  0  0  0  0  0  0  0  0  0
    0.7147    3.8272    0.4012 C   0  0  0  0  0  0  0  0  0  0  0  0
    1.9706    3.3233    0.6468 C   0  0  0  0  0  0  0  0  0  0  0  0
    2.4061    1.9914    0.8568 C   0  0  0  0  0  0  0  0  0  0  0  0
    1.6448    0.8512    0.8571 N   0  0  0  0  0  0  0  0  0  0  0  0
    2.4096   -0.2605    1.0525 C   0  0  0  0  0  0  0  0  0  0  0  0
    3.7421    0.1829    1.1979 C   0  0  0  0  0  0  0  0  0  0  0  0
    3.7496    1.5568    1.0857 C   0  0  0  0  0  0  0  0  0  0  0  0
    4.9672    2.4232    1.1029 C   0  0  0  0  0  0  0  0  0  0  0  0
    5.4186    2.8440   -0.3005 C   0  0  0  0  0  0  0  0  0  0  0  0
    5.8032    1.6629   -1.1761 C   0  0  0  0  0  0  0  0  0  0  0  0
   -1.8087    3.8583    0.0977 C   0  0  0  0  0  0  0  0  0  0  0  0
   -2.0928    5.3286    0.0907 C   0  0  0  0  0  0  0  0  0  0  0  0
   -1.4637    6.0804   -1.0842 C   0  0  0  0  0  0  0  0  0  0  0  0
   -0.0834    6.3740   -0.9073 O   0  0  0  0  0  0  0  0  0  0  0  0
    0.1410    7.4896   -0.0776 C   0  0  0  0  0  0  0  0  0  0  0  0
   -2.7504    2.8797   -0.0031 C   0  0  0  0  0  0  0  0  0  0  0  0
    2.8313   -4.2562   -1.3158 H   0  0  0  0  0  0  0  0  0  0  0  0
    2.9290   -5.7876   -2.1783 H   0  0  0  0  0  0  0  0  0  0  0  0
    3.9225   -5.5103   -0.7500 H   0  0  0  0  0  0  0  0  0  0  0  0
    0.8595   -5.7159   -0.7631 H   0  0  0  0  0  0  0  0  0  0  0  0
    1.9313   -6.9813   -0.2203 H   0  0  0  0  0  0  0  0  0  0  0  0
    2.7991   -5.4663    1.5963 H   0  0  0  0  0  0  0  0  0  0  0  0
    1.0848   -5.7490    1.7452 H   0  0  0  0  0  0  0  0  0  0  0  0
    3.6025   -2.9630    1.3302 H   0  0  0  0  0  0  0  0  0  0  0  0
   -0.8510   -4.8482    0.7902 H   0  0  0  0  0  0  0  0  0  0  0  0
   -2.9580   -3.9991    0.3966 H   0  0  0  0  0  0  0  0  0  0  0  0
   -0.8510   -0.7978    0.5026 H   0  0  0  0  0  0  0  0  0  0  0  0
   -4.7957    0.5016   -0.2396 H   0  0  0  0  0  0  0  0  0  0  0  0
   -5.1251   -3.1583    0.6668 H   0  0  0  0  0  0  0  0  0  0  0  0
   -6.0554   -1.7961    0.1058 H   0  0  0  0  0  0  0  0  0  0  0  0
   -4.3696   -3.6169   -1.7002 H   0  0  0  0  0  0  0  0  0  0  0  0
   -5.2410   -2.1966   -2.2453 H   0  0  0  0  0  0  0  0  0  0  0  0
   -7.3044   -5.5317   -1.2438 H   0  0  0  0  0  0  0  0  0  0  0  0
   -5.5437   -5.4906   -1.0130 H   0  0  0  0  0  0  0  0  0  0  0  0
   -6.6243   -4.6558    0.1385 H   0  0  0  0  0  0  0  0  0  0  0  0
    0.6641    4.8899    0.2394 H   0  0  0  0  0  0  0  0  0  0  0  0
    2.7645    4.0516    0.6847 H   0  0  0  0  0  0  0  0  0  0  0  0
    0.6458    0.8529    0.6768 H   0  0  0  0  0  0  0  0  0  0  0  0
    4.6028   -0.4448    1.3483 H   0  0  0  0  0  0  0  0  0  0  0  0
    5.7786    1.8843    1.6036 H   0  0  0  0  0  0  0  0  0  0  0  0
    4.7709    3.3025    1.7266 H   0  0  0  0  0  0  0  0  0  0  0  0
    6.2624    3.5445   -0.2270 H   0  0  0  0  0  0  0  0  0  0  0  0
    4.6133    3.4139   -0.7826 H   0  0  0  0  0  0  0  0  0  0  0  0
    6.1282    1.9767   -2.1707 H   0  0  0  0  0  0  0  0  0  0  0  0
    4.9621    0.9796   -1.3074 H   0  0  0  0  0  0  0  0  0  0  0  0
    6.6172    1.0889   -0.7294 H   0  0  0  0  0  0  0  0  0  0  0  0
   -3.1804    5.4649    0.0775 H   0  0  0  0  0  0  0  0  0  0  0  0
   -1.7573    5.7623    1.0364 H   0  0  0  0  0  0  0  0  0  0  0  0
   -1.9798    7.0278   -1.2830 H   0  0  0  0  0  0  0  0  0  0  0  0
   -1.5489    5.4833   -1.9996 H   0  0  0  0  0  0  0  0  0  0  0  0
   -0.3184    8.3765   -0.5156 H   0  0  0  0  0  0  0  0  0  0  0  0
   -0.2684    7.3164    0.9174 H   0  0  0  0  0  0  0  0  0  0  0  0
    1.2160    7.6534    0.0057 H   0  0  0  0  0  0  0  0  0  0  0  0
   -3.8108    3.0155   -0.1280 H   0  0  0  0  0  0  0  0  0  0  0  0
  1  2  1  0  0  0  0
  2  3  1  0  0  0  0
  3  4  1  0  0  0  0
  4  5  2  0  0  0  0
  5  6  1  0  0  0  0
  6  7  2  0  0  0  0
  7  8  1  0  0  0  0
  8  9  2  0  0  0  0
  9 10  1  0  0  0  0
 10 11  2  0  0  0  0
 11 12  1  0  0  0  0
 12 13  1  0  0  0  0
 13 14  1  0  0  0  0
 14 15  2  0  0  0  0
 15 16  1  0  0  0  0
 16 17  1  0  0  0  0
 17 18  1  0  0  0  0
 18 19  1  0  0  0  0
 13 20  2  0  0  0  0
 20 21  1  0  0  0  0
 21 22  2  0  0  0  0
 22 23  1  0  0  0  0
 23 24  2  0  0  0  0
 24 25  1  0  0  0  0
 25 26  1  0  0  0  0
 26 27  1  0  0  0  0
 27 28  2  0  0  0  0
 28 29  1  0  0  0  0
 29 30  1  0  0  0  0
 30 31  1  0  0  0  0
 31 32  1  0  0  0  0
 22 33  1  0  0  0  0
 33 34  1  0  0  0  0
 34 35  1  0  0  0  0
 35 36  1  0  0  0  0
 36 37  1  0  0  0  0
 33 38  2  0  0  0  0
  8  4  1  0  0  0  0
 15 11  1  0  0  0  0
 38 20  1  0  0  0  0
 27  6  1  0  0  0  0
 29 25  2  0  0  0  0
  1 39  1  0  0  0  0
  1 40  1  0  0  0  0
  1 41  1  0  0  0  0
  2 42  1  0  0  0  0
  2 43  1  0  0  0  0
  3 44  1  0  0  0  0
  3 45  1  0  0  0  0
  5 46  1  0  0  0  0
  9 47  1  0  0  0  0
 10 48  1  0  0  0  0
 12 49  1  0  0  0  0
 14 50  1  0  0  0  0
 16 51  1  0  0  0  0
 16 52  1  0  0  0  0
 17 53  1  0  0  0  0
 17 54  1  0  0  0  0
 19 55  1  0  0  0  0
 19 56  1  0  0  0  0
 19 57  1  0  0  0  0
 23 58  1  0  0  0  0
 24 59  1  0  0  0  0
 26 60  1  0  0  0  0
 28 61  1  0  0  0  0
 30 62  1  0  0  0  0
 30 63  1  0  0  0  0
 31 64  1  0  0  0  0
 31 65  1  0  0  0  0
 32 66  1  0  0  0  0
 32 67  1  0  0  0  0
 32 68  1  0  0  0  0
 34 69  1  0  0  0  0
 34 70  1  0  0  0  0
 35 71  1  0  0  0  0
 35 72  1  0  0  0  0
 37 73  1  0  0  0  0
 37 74  1  0  0  0  0
 37 75  1  0  0  0  0
 38 76  1  0  0  0  0
M  END
