
  xtb     03012221223D
 energy: -5.148133139280 gnorm: 0.000389317305 xtb: 6.4.1 (afa7bdf)
 25 27  0     0  0            999 V2000
   -4.4475   -0.8215    1.4957 N   0  0  0  0  0  0  0  0  0  0  0  0
   -3.9727    0.1093    0.9854 C   0  0  0  0  0  0  0  0  0  0  0  0
   -3.3527    1.1948    0.3691 C   0  0  0  0  0  0  0  0  0  0  0  0
   -2.0820    1.3687   -0.0862 C   0  0  0  0  0  0  0  0  0  0  0  0
   -0.9341    0.4898   -0.0903 C   0  0  0  0  0  0  0  0  0  0  0  0
   -0.9113   -0.7843    0.4058 C   0  0  0  0  0  0  0  0  0  0  0  0
    0.3384   -1.4253    0.2785 C   0  0  0  0  0  0  0  0  0  0  0  0
    1.3004   -0.6552   -0.3200 C   0  0  0  0  0  0  0  0  0  0  0  0
    2.6634   -1.0445   -0.5829 C   0  0  0  0  0  0  0  0  0  0  0  0
    3.2358   -2.2463   -0.2732 C   0  0  0  0  0  0  0  0  0  0  0  0
    4.6005   -2.3446   -0.6539 C   0  0  0  0  0  0  0  0  0  0  0  0
    5.0747   -1.2292   -1.2515 C   0  0  0  0  0  0  0  0  0  0  0  0
    3.8463   -0.0211   -1.3618 S   0  0  0  0  0  0  0  0  0  0  0  0
    0.6309    0.9011   -0.7308 S   0  0  0  0  0  0  0  0  0  0  0  0
   -2.3367    2.7734   -0.5626 C   0  0  0  0  0  0  0  0  0  0  0  0
   -3.7770    2.5816   -0.0489 C   0  0  0  0  0  0  0  0  0  0  0  0
   -1.7763   -1.2491    0.8534 H   0  0  0  0  0  0  0  0  0  0  0  0
    0.5182   -2.4324    0.6203 H   0  0  0  0  0  0  0  0  0  0  0  0
    2.7016   -3.0460    0.2150 H   0  0  0  0  0  0  0  0  0  0  0  0
    5.1990   -3.2274   -0.4805 H   0  0  0  0  0  0  0  0  0  0  0  0
    6.0761   -1.0941   -1.6144 H   0  0  0  0  0  0  0  0  0  0  0  0
   -2.2402    2.8815   -1.6532 H   0  0  0  0  0  0  0  0  0  0  0  0
   -1.7442    3.5255   -0.0206 H   0  0  0  0  0  0  0  0  0  0  0  0
   -4.0571    3.2195    0.8031 H   0  0  0  0  0  0  0  0  0  0  0  0
   -4.5537    2.5755   -0.8286 H   0  0  0  0  0  0  0  0  0  0  0  0
  1  2  3  0  0  0  0
  2  3  1  0  0  0  0
  3  4  2  0  0  0  0
  4  5  1  0  0  0  0
  5  6  2  0  0  0  0
  6  7  1  0  0  0  0
  7  8  2  0  0  0  0
  8  9  1  0  0  0  0
  9 10  2  0  0  0  0
 10 11  1  0  0  0  0
 11 12  2  0  0  0  0
 12 13  1  0  0  0  0
  8 14  1  0  0  0  0
  4 15  1  0  0  0  0
 15 16  1  0  0  0  0
 16  3  1  0  0  0  0
 14  5  1  0  0  0  0
 13  9  1  0  0  0  0
  6 17  1  0  0  0  0
  7 18  1  0  0  0  0
 10 19  1  0  0  0  0
 11 20  1  0  0  0  0
 12 21  1  0  0  0  0
 15 22  1  0  0  0  0
 15 23  1  0  0  0  0
 16 24  1  0  0  0  0
 16 25  1  0  0  0  0
M  END
