
  xtb     03012221243D
 energy: -7.583733260217 gnorm: 0.000403590220 xtb: 6.4.1 (afa7bdf)
 38 41  0     0  0            999 V2000
    7.0712   -0.7317    0.5604 C   0  0  0  0  0  0  0  0  0  0  0  0
    6.3809    0.2783   -0.1407 O   0  0  0  0  0  0  0  0  0  0  0  0
    4.9908    0.1936   -0.0799 C   0  0  0  0  0  0  0  0  0  0  0  0
    4.2550    1.1663   -0.7642 C   0  0  0  0  0  0  0  0  0  0  0  0
    2.8844    1.1607   -0.7581 C   0  0  0  0  0  0  0  0  0  0  0  0
    2.1814    0.1763   -0.0627 C   0  0  0  0  0  0  0  0  0  0  0  0
    0.7202    0.1051   -0.0115 C   0  0  0  0  0  0  0  0  0  0  0  0
   -0.0895    1.0107   -0.6276 C   0  0  0  0  0  0  0  0  0  0  0  0
   -1.5015    0.9117   -0.5604 C   0  0  0  0  0  0  0  0  0  0  0  0
   -2.3158    1.8639   -1.2093 C   0  0  0  0  0  0  0  0  0  0  0  0
   -3.6672    1.7746   -1.1512 C   0  0  0  0  0  0  0  0  0  0  0  0
   -4.2816    0.7230   -0.4374 C   0  0  0  0  0  0  0  0  0  0  0  0
   -5.6809    0.5874   -0.3487 C   0  0  0  0  0  0  0  0  0  0  0  0
   -6.2356   -0.4435    0.3508 C   0  0  0  0  0  0  0  0  0  0  0  0
   -5.4210   -1.3806    0.9900 C   0  0  0  0  0  0  0  0  0  0  0  0
   -4.0644   -1.2732    0.9204 C   0  0  0  0  0  0  0  0  0  0  0  0
   -3.4581   -0.2246    0.2089 C   0  0  0  0  0  0  0  0  0  0  0  0
   -2.0881   -0.0935    0.1225 N   0  0  0  0  0  4  0  0  0  0  0  0
   -1.2564   -1.1598    0.8496 B   0  0  0  0  0  4  0  0  0  0  0  0
   -1.6021   -1.1048    2.1946 F   0  0  0  0  0  0  0  0  0  0  0  0
   -1.5978   -2.3916    0.3038 F   0  0  0  0  0  0  0  0  0  0  0  0
    0.1871   -0.9300    0.6961 O   0  0  0  0  0  0  0  0  0  0  0  0
    2.9113   -0.7935    0.6184 C   0  0  0  0  0  0  0  0  0  0  0  0
    4.2822   -0.7918    0.6146 C   0  0  0  0  0  0  0  0  0  0  0  0
    8.1402   -0.5625    0.4415 H   0  0  0  0  0  0  0  0  0  0  0  0
    6.8177   -1.7065    0.1467 H   0  0  0  0  0  0  0  0  0  0  0  0
    6.8194   -0.6840    1.6187 H   0  0  0  0  0  0  0  0  0  0  0  0
    4.7978    1.9245   -1.3000 H   0  0  0  0  0  0  0  0  0  0  0  0
    2.3508    1.9227   -1.2964 H   0  0  0  0  0  0  0  0  0  0  0  0
    0.3357    1.8250   -1.1806 H   0  0  0  0  0  0  0  0  0  0  0  0
   -1.8469    2.6659   -1.7540 H   0  0  0  0  0  0  0  0  0  0  0  0
   -4.2853    2.5021   -1.6471 H   0  0  0  0  0  0  0  0  0  0  0  0
   -6.3075    1.3102   -0.8418 H   0  0  0  0  0  0  0  0  0  0  0  0
   -7.3070   -0.5381    0.4123 H   0  0  0  0  0  0  0  0  0  0  0  0
   -5.8687   -2.1918    1.5403 H   0  0  0  0  0  0  0  0  0  0  0  0
   -3.4293   -1.9909    1.4099 H   0  0  0  0  0  0  0  0  0  0  0  0
    2.3651   -1.5529    1.1527 H   0  0  0  0  0  0  0  0  0  0  0  0
    4.8135   -1.5564    1.1505 H   0  0  0  0  0  0  0  0  0  0  0  0
  1  2  1  0  0  0  0
  2  3  1  0  0  0  0
  3  4  2  0  0  0  0
  4  5  1  0  0  0  0
  5  6  2  0  0  0  0
  6  7  1  0  0  0  0
  7  8  2  0  0  0  0
  8  9  1  0  0  0  0
  9 10  2  0  0  0  0
 10 11  1  0  0  0  0
 11 12  2  0  0  0  0
 12 13  1  0  0  0  0
 13 14  2  0  0  0  0
 14 15  1  0  0  0  0
 15 16  2  0  0  0  0
 16 17  1  0  0  0  0
 17 18  2  0  0  0  0
 18 19  1  0  0  0  0
 19 20  1  0  0  0  0
 19 21  1  0  0  0  0
 19 22  1  0  0  0  0
  6 23  1  0  0  0  0
 23 24  2  0  0  0  0
 24  3  1  0  0  0  0
 22  7  1  0  0  0  0
 18  9  1  0  0  0  0
 17 12  1  0  0  0  0
  1 25  1  0  0  0  0
  1 26  1  0  0  0  0
  1 27  1  0  0  0  0
  4 28  1  0  0  0  0
  5 29  1  0  0  0  0
  8 30  1  0  0  0  0
 10 31  1  0  0  0  0
 11 32  1  0  0  0  0
 13 33  1  0  0  0  0
 14 34  1  0  0  0  0
 15 35  1  0  0  0  0
 16 36  1  0  0  0  0
 23 37  1  0  0  0  0
 24 38  1  0  0  0  0
M  CHG  1  18   1
M  CHG  1  19  -1
M  END
