
  xtb     03012221213D
 energy: -8.189561630389 gnorm: 0.000372200032 xtb: 6.4.1 (afa7bdf)
 40 43  0     0  0            999 V2000
    7.5000   -0.5434    0.2009 C   0  0  0  0  0  0  0  0  0  0  0  0
    6.9123    0.8494    0.1119 C   0  0  0  0  0  0  0  0  0  0  0  0
    5.5320    0.8767    0.3901 O   0  0  0  0  0  0  0  0  0  0  0  0
    4.8267    0.2834   -0.6253 C   0  0  0  0  0  0  0  0  0  0  0  0
    5.3679   -0.1850   -1.6100 O   0  0  0  0  0  0  0  0  0  0  0  0
    3.3697    0.2529   -0.4431 C   0  0  0  0  0  0  0  0  0  0  0  0
    2.8352    0.9224    0.6258 C   0  0  0  0  0  0  0  0  0  0  0  0
    1.5061    0.9562    0.8694 N   0  0  0  0  0  0  0  0  0  0  0  0
    0.5824    0.3123    0.0453 C   0  0  0  0  0  0  0  0  0  0  0  0
   -0.7823    0.3555    0.2946 C   0  0  0  0  0  0  0  0  0  0  0  0
   -1.6984   -0.2852   -0.5209 C   0  0  0  0  0  0  0  0  0  0  0  0
   -3.0983   -0.1816   -0.1730 C   0  0  0  0  0  0  0  0  0  0  0  0
   -3.5181    0.4852    0.8655 N   0  0  0  0  0  0  0  0  0  0  0  0
   -4.8973    0.4417    0.9958 C   0  0  0  0  0  0  0  0  0  0  0  0
   -5.6326    1.0650    2.0135 C   0  0  0  0  0  0  0  0  0  0  0  0
   -6.9990    0.9444    2.0302 C   0  0  0  0  0  0  0  0  0  0  0  0
   -7.6646    0.2114    1.0499 C   0  0  0  0  0  0  0  0  0  0  0  0
   -6.9624   -0.4065    0.0441 C   0  0  0  0  0  0  0  0  0  0  0  0
   -5.5809   -0.2915    0.0165 C   0  0  0  0  0  0  0  0  0  0  0  0
   -4.4090   -0.9323   -1.0915 S   0  0  0  0  0  0  0  0  0  0  0  0
   -1.2179   -1.0117   -1.6538 C   0  0  0  0  0  0  0  0  0  0  0  0
   -2.0512   -1.6806   -2.5233 O   0  0  0  0  0  0  0  0  0  0  0  0
    0.1474   -1.0490   -1.8939 C   0  0  0  0  0  0  0  0  0  0  0  0
    1.0518   -0.4017   -1.0671 C   0  0  0  0  0  0  0  0  0  0  0  0
    2.4862   -0.4627   -1.3412 C   0  0  0  0  0  0  0  0  0  0  0  0
    2.8746   -1.1158   -2.3011 O   0  0  0  0  0  0  0  0  0  0  0  0
    7.3377   -0.9670    1.1919 H   0  0  0  0  0  0  0  0  0  0  0  0
    8.5709   -0.5542   -0.0061 H   0  0  0  0  0  0  0  0  0  0  0  0
    7.0088   -1.2016   -0.5180 H   0  0  0  0  0  0  0  0  0  0  0  0
    7.3935    1.5356    0.8217 H   0  0  0  0  0  0  0  0  0  0  0  0
    7.0430    1.2782   -0.8923 H   0  0  0  0  0  0  0  0  0  0  0  0
    3.5037    1.4411    1.2916 H   0  0  0  0  0  0  0  0  0  0  0  0
    1.1474    1.4686    1.6728 H   0  0  0  0  0  0  0  0  0  0  0  0
   -1.1444    0.9007    1.1458 H   0  0  0  0  0  0  0  0  0  0  0  0
   -5.1105    1.6283    2.7653 H   0  0  0  0  0  0  0  0  0  0  0  0
   -7.5660    1.4226    2.8115 H   0  0  0  0  0  0  0  0  0  0  0  0
   -8.7385    0.1291    1.0819 H   0  0  0  0  0  0  0  0  0  0  0  0
   -7.4634   -0.9759   -0.7199 H   0  0  0  0  0  0  0  0  0  0  0  0
   -2.9778   -1.5552   -2.2121 H   0  0  0  0  0  0  0  0  0  0  0  0
    0.5148   -1.5948   -2.7434 H   0  0  0  0  0  0  0  0  0  0  0  0
  1  2  1  0  0  0  0
  2  3  1  0  0  0  0
  3  4  1  0  0  0  0
  4  5  2  0  0  0  0
  4  6  1  0  0  0  0
  6  7  2  0  0  0  0
  7  8  1  0  0  0  0
  8  9  1  0  0  0  0
  9 10  2  0  0  0  0
 10 11  1  0  0  0  0
 11 12  1  0  0  0  0
 12 13  2  0  0  0  0
 13 14  1  0  0  0  0
 14 15  2  0  0  0  0
 15 16  1  0  0  0  0
 16 17  2  0  0  0  0
 17 18  1  0  0  0  0
 18 19  2  0  0  0  0
 19 20  1  0  0  0  0
 11 21  2  0  0  0  0
 21 22  1  0  0  0  0
 21 23  1  0  0  0  0
 23 24  2  0  0  0  0
 24 25  1  0  0  0  0
 25 26  2  0  0  0  0
 25  6  1  0  0  0  0
 24  9  1  0  0  0  0
 20 12  1  0  0  0  0
 19 14  1  0  0  0  0
  1 27  1  0  0  0  0
  1 28  1  0  0  0  0
  1 29  1  0  0  0  0
  2 30  1  0  0  0  0
  2 31  1  0  0  0  0
  7 32  1  0  0  0  0
  8 33  1  0  0  0  0
 10 34  1  0  0  0  0
 15 35  1  0  0  0  0
 16 36  1  0  0  0  0
 17 37  1  0  0  0  0
 18 38  1  0  0  0  0
 22 39  1  0  0  0  0
 23 40  1  0  0  0  0
M  END
