
  xtb     03012221333D
 energy: -11.911028121818 gnorm: 0.000322112309 xtb: 6.4.1 (afa7bdf)
 56 61  0     0  0            999 V2000
    2.1734   -1.6237    3.2716 C   0  0  0  0  0  0  0  0  0  0  0  0
    2.8942   -1.0489    2.2075 O   0  0  0  0  0  0  0  0  0  0  0  0
    2.1096   -0.5356    1.1673 C   0  0  0  0  0  0  0  0  0  0  0  0
    0.7207   -0.5741    1.1474 C   0  0  0  0  0  0  0  0  0  0  0  0
   -0.0231   -0.0536    0.0985 C   0  0  0  0  0  0  0  0  0  0  0  0
   -1.4741   -0.1267    0.1396 C   0  0  0  0  0  0  0  0  0  0  0  0
   -2.2882    0.3511   -0.7981 N   0  0  0  0  0  0  0  0  0  0  0  0
   -3.5444    0.0859   -0.3886 C   0  0  0  0  0  0  0  0  0  0  0  0
   -4.7981    0.3885   -1.0281 C   0  0  0  0  0  0  0  0  0  0  0  0
   -4.8523    1.0453   -2.2470 C   0  0  0  0  0  0  0  0  0  0  0  0
   -6.0782    1.2960   -2.7892 C   0  0  0  0  0  0  0  0  0  0  0  0
   -7.2063    0.8868   -2.1046 C   0  0  0  0  0  0  0  0  0  0  0  0
   -7.2011    0.2615   -0.9472 N   0  0  0  0  0  0  0  0  0  0  0  0
   -6.0017    0.0064   -0.3983 C   0  0  0  0  0  0  0  0  0  0  0  0
   -5.9670   -0.6871    0.8868 C   0  0  0  0  0  0  0  0  0  0  0  0
   -7.1387   -1.0305    1.4472 N   0  0  0  0  0  0  0  0  0  0  0  0
   -7.0865   -1.6541    2.6037 C   0  0  0  0  0  0  0  0  0  0  0  0
   -5.9240   -1.9776    3.2765 C   0  0  0  0  0  0  0  0  0  0  0  0
   -4.7253   -1.6370    2.7233 C   0  0  0  0  0  0  0  0  0  0  0  0
   -4.7289   -0.9771    1.5026 C   0  0  0  0  0  0  0  0  0  0  0  0
   -3.5172   -0.5781    0.8425 C   0  0  0  0  0  0  0  0  0  0  0  0
   -2.1988   -0.7102    1.1729 N   0  0  0  0  0  0  0  0  0  0  0  0
    0.6506    0.5424   -0.9981 C   0  0  0  0  0  0  0  0  0  0  0  0
   -0.1054    1.0678   -2.0530 O   0  0  0  0  0  0  0  0  0  0  0  0
    0.6299    1.6626   -3.0947 C   0  0  0  0  0  0  0  0  0  0  0  0
    2.0397    0.5785   -0.9779 C   0  0  0  0  0  0  0  0  0  0  0  0
    2.7846    0.0559    0.0748 C   0  0  0  0  0  0  0  0  0  0  0  0
    4.2246    0.0884    0.1057 C   0  0  0  0  0  0  0  0  0  0  0  0
    5.0290    0.6129   -0.8371 C   0  0  0  0  0  0  0  0  0  0  0  0
    6.4764    0.6305   -0.7761 C   0  0  0  0  0  0  0  0  0  0  0  0
    7.2072    0.0933    0.2774 C   0  0  0  0  0  0  0  0  0  0  0  0
    8.5769    0.1559    0.2500 C   0  0  0  0  0  0  0  0  0  0  0  0
    9.2906    0.6999   -0.7219 N   0  0  0  0  0  0  0  0  0  0  0  0
    8.5897    1.2090   -1.7215 C   0  0  0  0  0  0  0  0  0  0  0  0
    7.2210    1.2032   -1.8003 C   0  0  0  0  0  0  0  0  0  0  0  0
    1.5860   -2.4668    2.9086 H   0  0  0  0  0  0  0  0  0  0  0  0
    1.5296   -0.8736    3.7307 H   0  0  0  0  0  0  0  0  0  0  0  0
    2.8843   -1.9820    4.0158 H   0  0  0  0  0  0  0  0  0  0  0  0
    0.2020   -1.0217    1.9713 H   0  0  0  0  0  0  0  0  0  0  0  0
   -3.9395    1.3413   -2.7363 H   0  0  0  0  0  0  0  0  0  0  0  0
   -6.1655    1.8042   -3.7355 H   0  0  0  0  0  0  0  0  0  0  0  0
   -8.1779    1.0832   -2.5309 H   0  0  0  0  0  0  0  0  0  0  0  0
   -8.0366   -1.9225    3.0392 H   0  0  0  0  0  0  0  0  0  0  0  0
   -5.9649   -2.4909    4.2232 H   0  0  0  0  0  0  0  0  0  0  0  0
   -3.7945   -1.8688    3.2117 H   0  0  0  0  0  0  0  0  0  0  0  0
   -1.8404   -1.1549    2.0185 H   0  0  0  0  0  0  0  0  0  0  0  0
    1.2165    2.4958   -2.7068 H   0  0  0  0  0  0  0  0  0  0  0  0
   -0.0735    2.0412   -3.8365 H   0  0  0  0  0  0  0  0  0  0  0  0
    1.2740    0.9195   -3.5656 H   0  0  0  0  0  0  0  0  0  0  0  0
    2.5594    1.0232   -1.8034 H   0  0  0  0  0  0  0  0  0  0  0  0
    4.6703   -0.3545    0.9776 H   0  0  0  0  0  0  0  0  0  0  0  0
    4.5850    1.0578   -1.7076 H   0  0  0  0  0  0  0  0  0  0  0  0
    6.7066   -0.3684    1.1084 H   0  0  0  0  0  0  0  0  0  0  0  0
    9.1395   -0.2631    1.0714 H   0  0  0  0  0  0  0  0  0  0  0  0
    9.1619    1.6562   -2.5211 H   0  0  0  0  0  0  0  0  0  0  0  0
    6.7189    1.6376   -2.6467 H   0  0  0  0  0  0  0  0  0  0  0  0
  1  2  1  0  0  0  0
  2  3  1  0  0  0  0
  3  4  2  0  0  0  0
  4  5  1  0  0  0  0
  5  6  1  0  0  0  0
  6  7  2  0  0  0  0
  7  8  1  0  0  0  0
  8  9  2  0  0  0  0
  9 10  1  0  0  0  0
 10 11  2  0  0  0  0
 11 12  1  0  0  0  0
 12 13  2  0  0  0  0
 13 14  1  0  0  0  0
 14 15  2  0  0  0  0
 15 16  1  0  0  0  0
 16 17  2  0  0  0  0
 17 18  1  0  0  0  0
 18 19  2  0  0  0  0
 19 20  1  0  0  0  0
 20 21  2  0  0  0  0
 21 22  1  0  0  0  0
  5 23  2  0  0  0  0
 23 24  1  0  0  0  0
 24 25  1  0  0  0  0
 23 26  1  0  0  0  0
 26 27  2  0  0  0  0
 27 28  1  0  0  0  0
 28 29  2  0  0  0  0
 29 30  1  0  0  0  0
 30 31  2  0  0  0  0
 31 32  1  0  0  0  0
 32 33  2  0  0  0  0
 33 34  1  0  0  0  0
 34 35  2  0  0  0  0
 27  3  1  0  0  0  0
 35 30  1  0  0  0  0
 22  6  1  0  0  0  0
 21  8  1  0  0  0  0
 14  9  1  0  0  0  0
 20 15  1  0  0  0  0
  1 36  1  0  0  0  0
  1 37  1  0  0  0  0
  1 38  1  0  0  0  0
  4 39  1  0  0  0  0
 10 40  1  0  0  0  0
 11 41  1  0  0  0  0
 12 42  1  0  0  0  0
 17 43  1  0  0  0  0
 18 44  1  0  0  0  0
 19 45  1  0  0  0  0
 22 46  1  0  0  0  0
 25 47  1  0  0  0  0
 25 48  1  0  0  0  0
 25 49  1  0  0  0  0
 26 50  1  0  0  0  0
 28 51  1  0  0  0  0
 29 52  1  0  0  0  0
 31 53  1  0  0  0  0
 32 54  1  0  0  0  0
 34 55  1  0  0  0  0
 35 56  1  0  0  0  0
M  END
