
  xtb     03012221223D
 energy: -13.479125859263 gnorm: 0.000103113278 xtb: 6.4.1 (afa7bdf)
 58 66  0     0  0            999 V2000
    7.2477    3.0787   -1.7287 C   0  0  0  0  0  0  0  0  0  0  0  0
    8.4198    2.4001   -1.4590 C   0  0  0  0  0  0  0  0  0  0  0  0
    8.4909    1.2049   -0.9146 N   0  0  0  0  0  0  0  0  0  0  0  0
    7.3290    0.6078   -0.6009 C   0  0  0  0  0  0  0  0  0  0  0  0
    6.0839    1.2265   -0.8407 C   0  0  0  0  0  0  0  0  0  0  0  0
    6.0582    2.4877   -1.4168 C   0  0  0  0  0  0  0  0  0  0  0  0
    4.8739    0.5328   -0.4811 C   0  0  0  0  0  0  0  0  0  0  0  0
    3.5886    0.9205   -0.6137 N   0  0  0  0  0  0  0  0  0  0  0  0
    2.8516   -0.0780   -0.1312 C   0  0  0  0  0  0  0  0  0  0  0  0
    1.3978   -0.0610   -0.0884 C   0  0  0  0  0  0  0  0  0  0  0  0
    0.6992    1.0441   -0.5697 C   0  0  0  0  0  0  0  0  0  0  0  0
   -0.6725    1.0764   -0.5367 C   0  0  0  0  0  0  0  0  0  0  0  0
   -1.3984    0.0049   -0.0212 C   0  0  0  0  0  0  0  0  0  0  0  0
   -2.8519    0.0563    0.0059 C   0  0  0  0  0  0  0  0  0  0  0  0
   -3.5635    1.0888   -0.4418 N   0  0  0  0  0  0  0  0  0  0  0  0
   -4.8577    0.7618   -0.2471 C   0  0  0  0  0  0  0  0  0  0  0  0
   -6.0498    1.5119   -0.5488 C   0  0  0  0  0  0  0  0  0  0  0  0
   -5.9928    2.7711   -1.1269 C   0  0  0  0  0  0  0  0  0  0  0  0
   -7.1669    3.4176   -1.3818 C   0  0  0  0  0  0  0  0  0  0  0  0
   -8.3552    2.7944   -1.0553 C   0  0  0  0  0  0  0  0  0  0  0  0
   -8.4559    1.6033   -0.5068 N   0  0  0  0  0  0  0  0  0  0  0  0
   -7.3096    0.9520   -0.2487 C   0  0  0  0  0  0  0  0  0  0  0  0
   -7.3980   -0.3736    0.3609 C   0  0  0  0  0  0  0  0  0  0  0  0
   -8.6205   -0.8630    0.6274 N   0  0  0  0  0  0  0  0  0  0  0  0
   -8.6787   -2.0568    1.1757 C   0  0  0  0  0  0  0  0  0  0  0  0
   -7.5835   -2.8357    1.4939 C   0  0  0  0  0  0  0  0  0  0  0  0
   -6.3342   -2.3554    1.2306 C   0  0  0  0  0  0  0  0  0  0  0  0
   -6.2226   -1.0985    0.6517 C   0  0  0  0  0  0  0  0  0  0  0  0
   -4.9514   -0.5088    0.3376 C   0  0  0  0  0  0  0  0  0  0  0  0
   -3.6706   -0.9522    0.4958 N   0  0  0  0  0  0  0  0  0  0  0  0
   -0.6999   -1.1007    0.4604 C   0  0  0  0  0  0  0  0  0  0  0  0
    0.6718   -1.1331    0.4274 C   0  0  0  0  0  0  0  0  0  0  0  0
    3.6447   -1.1244    0.3199 N   0  0  0  0  0  0  0  0  0  0  0  0
    4.9358   -0.7415    0.0998 C   0  0  0  0  0  0  0  0  0  0  0  0
    6.1916   -1.3905    0.3530 C   0  0  0  0  0  0  0  0  0  0  0  0
    6.2719   -2.6519    0.9273 C   0  0  0  0  0  0  0  0  0  0  0  0
    7.5085   -3.1905    1.1307 C   0  0  0  0  0  0  0  0  0  0  0  0
    8.6225   -2.4635    0.7593 C   0  0  0  0  0  0  0  0  0  0  0  0
    8.5940   -1.2676    0.2131 N   0  0  0  0  0  0  0  0  0  0  0  0
    7.3844   -0.7211    0.0052 C   0  0  0  0  0  0  0  0  0  0  0  0
    7.2729    4.0577   -2.1775 H   0  0  0  0  0  0  0  0  0  0  0  0
    9.3629    2.8642   -1.7042 H   0  0  0  0  0  0  0  0  0  0  0  0
    5.1160    2.9720   -1.6056 H   0  0  0  0  0  0  0  0  0  0  0  0
    1.2572    1.8738   -0.9688 H   0  0  0  0  0  0  0  0  0  0  0  0
   -1.2095    1.9319   -0.9095 H   0  0  0  0  0  0  0  0  0  0  0  0
   -5.0390    3.2110   -1.3614 H   0  0  0  0  0  0  0  0  0  0  0  0
   -7.1677    4.3972   -1.8300 H   0  0  0  0  0  0  0  0  0  0  0  0
   -9.2862    3.3025   -1.2554 H   0  0  0  0  0  0  0  0  0  0  0  0
   -9.6685   -2.4341    1.3828 H   0  0  0  0  0  0  0  0  0  0  0  0
   -7.7146   -3.8063    1.9426 H   0  0  0  0  0  0  0  0  0  0  0  0
   -5.4522   -2.9265    1.4612 H   0  0  0  0  0  0  0  0  0  0  0  0
   -3.3879   -1.8476    0.8957 H   0  0  0  0  0  0  0  0  0  0  0  0
   -1.2465   -1.9357    0.8614 H   0  0  0  0  0  0  0  0  0  0  0  0
    1.1972   -1.9932    0.8027 H   0  0  0  0  0  0  0  0  0  0  0  0
    3.3398   -2.0060    0.7339 H   0  0  0  0  0  0  0  0  0  0  0  0
    5.3762   -3.1813    1.2007 H   0  0  0  0  0  0  0  0  0  0  0  0
    7.6154   -4.1667    1.5736 H   0  0  0  0  0  0  0  0  0  0  0  0
    9.6023   -2.8871    0.9189 H   0  0  0  0  0  0  0  0  0  0  0  0
  1  2  2  0  0  0  0
  2  3  1  0  0  0  0
  3  4  2  0  0  0  0
  4  5  1  0  0  0  0
  5  6  2  0  0  0  0
  5  7  1  0  0  0  0
  7  8  1  0  0  0  0
  8  9  2  0  0  0  0
  9 10  1  0  0  0  0
 10 11  2  0  0  0  0
 11 12  1  0  0  0  0
 12 13  2  0  0  0  0
 13 14  1  0  0  0  0
 14 15  2  0  0  0  0
 15 16  1  0  0  0  0
 16 17  2  0  0  0  0
 17 18  1  0  0  0  0
 18 19  2  0  0  0  0
 19 20  1  0  0  0  0
 20 21  2  0  0  0  0
 21 22  1  0  0  0  0
 22 23  2  0  0  0  0
 23 24  1  0  0  0  0
 24 25  2  0  0  0  0
 25 26  1  0  0  0  0
 26 27  2  0  0  0  0
 27 28  1  0  0  0  0
 28 29  2  0  0  0  0
 29 30  1  0  0  0  0
 13 31  1  0  0  0  0
 31 32  2  0  0  0  0
  9 33  1  0  0  0  0
 33 34  1  0  0  0  0
 34 35  1  0  0  0  0
 35 36  2  0  0  0  0
 36 37  1  0  0  0  0
 37 38  2  0  0  0  0
 38 39  1  0  0  0  0
 39 40  2  0  0  0  0
  6  1  1  0  0  0  0
 34  7  2  0  0  0  0
 40 35  1  0  0  0  0
 40  4  1  0  0  0  0
 32 10  1  0  0  0  0
 30 14  1  0  0  0  0
 29 16  1  0  0  0  0
 22 17  1  0  0  0  0
 28 23  1  0  0  0  0
  1 41  1  0  0  0  0
  2 42  1  0  0  0  0
  6 43  1  0  0  0  0
 11 44  1  0  0  0  0
 12 45  1  0  0  0  0
 18 46  1  0  0  0  0
 19 47  1  0  0  0  0
 20 48  1  0  0  0  0
 25 49  1  0  0  0  0
 26 50  1  0  0  0  0
 27 51  1  0  0  0  0
 30 52  1  0  0  0  0
 31 53  1  0  0  0  0
 32 54  1  0  0  0  0
 33 55  1  0  0  0  0
 36 56  1  0  0  0  0
 37 57  1  0  0  0  0
 38 58  1  0  0  0  0
M  END
