
  xtb     03012221213D
 energy: -7.631232291025 gnorm: 0.000309878079 xtb: 6.4.1 (afa7bdf)
 36 39  0     0  0            999 V2000
    4.0838   -1.0245    1.6770 C   0  0  0  0  0  0  0  0  0  0  0  0
    3.2621   -0.4342    0.5875 C   0  0  0  0  0  0  0  0  0  0  0  0
    3.8945    0.0721   -0.5298 C   0  0  0  0  0  0  0  0  0  0  0  0
    3.1455    0.6094   -1.5497 C   0  0  0  0  0  0  0  0  0  0  0  0
    1.7862    0.6240   -1.4096 C   0  0  0  0  0  0  0  0  0  0  0  0
    1.2031    0.1092   -0.2529 C   0  0  0  0  0  0  0  0  0  0  0  0
   -0.2712    0.1116   -0.1130 C   0  0  0  0  0  0  0  0  0  0  0  0
   -1.0256    1.2976   -0.3083 C   0  0  0  0  0  0  0  0  0  0  0  0
   -0.4108    2.5566   -0.5324 C   0  0  0  0  0  0  0  0  0  0  0  0
   -1.1503    3.6814   -0.7218 C   0  0  0  0  0  0  0  0  0  0  0  0
   -2.5532    3.6250   -0.6939 C   0  0  0  0  0  0  0  0  0  0  0  0
   -3.1882    2.4478   -0.4613 C   0  0  0  0  0  0  0  0  0  0  0  0
   -2.4505    1.2516   -0.2492 C   0  0  0  0  0  0  0  0  0  0  0  0
   -3.0925    0.0458    0.0230 C   0  0  0  0  0  0  0  0  0  0  0  0
   -2.3720   -1.1228    0.2556 C   0  0  0  0  0  0  0  0  0  0  0  0
   -3.0244   -2.3536    0.5386 C   0  0  0  0  0  0  0  0  0  0  0  0
   -2.3083   -3.4871    0.7556 C   0  0  0  0  0  0  0  0  0  0  0  0
   -0.9046   -3.4615    0.7088 C   0  0  0  0  0  0  0  0  0  0  0  0
   -0.2478   -2.3019    0.4433 C   0  0  0  0  0  0  0  0  0  0  0  0
   -0.9477   -1.0935    0.2017 C   0  0  0  0  0  0  0  0  0  0  0  0
    1.9380   -0.4277    0.7335 N   0  0  0  0  0  0  0  0  0  0  0  0
    3.4494   -1.3204    2.5127 H   0  0  0  0  0  0  0  0  0  0  0  0
    4.8163   -0.3065    2.0469 H   0  0  0  0  0  0  0  0  0  0  0  0
    4.6166   -1.9094    1.3276 H   0  0  0  0  0  0  0  0  0  0  0  0
    4.9684    0.0376   -0.5963 H   0  0  0  0  0  0  0  0  0  0  0  0
    3.6164    1.0026   -2.4359 H   0  0  0  0  0  0  0  0  0  0  0  0
    1.1575    1.0109   -2.1933 H   0  0  0  0  0  0  0  0  0  0  0  0
    0.6627    2.6189   -0.5276 H   0  0  0  0  0  0  0  0  0  0  0  0
   -0.6606    4.6262   -0.8899 H   0  0  0  0  0  0  0  0  0  0  0  0
   -3.1251    4.5252   -0.8503 H   0  0  0  0  0  0  0  0  0  0  0  0
   -4.2630    2.4073   -0.4291 H   0  0  0  0  0  0  0  0  0  0  0  0
   -4.1660    0.0187    0.0645 H   0  0  0  0  0  0  0  0  0  0  0  0
   -4.0995   -2.3743    0.5766 H   0  0  0  0  0  0  0  0  0  0  0  0
   -2.8162   -4.4136    0.9684 H   0  0  0  0  0  0  0  0  0  0  0  0
   -0.3496   -4.3666    0.8913 H   0  0  0  0  0  0  0  0  0  0  0  0
    0.8263   -2.2815    0.4319 H   0  0  0  0  0  0  0  0  0  0  0  0
  1  2  1  0  0  0  0
  2  3  2  0  0  0  0
  3  4  1  0  0  0  0
  4  5  2  0  0  0  0
  5  6  1  0  0  0  0
  6  7  1  0  0  0  0
  7  8  1  0  0  0  0
  8  9  2  0  0  0  0
  9 10  1  0  0  0  0
 10 11  2  0  0  0  0
 11 12  1  0  0  0  0
 12 13  2  0  0  0  0
 13 14  1  0  0  0  0
 14 15  2  0  0  0  0
 15 16  1  0  0  0  0
 16 17  2  0  0  0  0
 17 18  1  0  0  0  0
 18 19  2  0  0  0  0
 19 20  1  0  0  0  0
  6 21  2  0  0  0  0
 21  2  1  0  0  0  0
 20  7  2  0  0  0  0
 13  8  1  0  0  0  0
 20 15  1  0  0  0  0
  1 22  1  0  0  0  0
  1 23  1  0  0  0  0
  1 24  1  0  0  0  0
  3 25  1  0  0  0  0
  4 26  1  0  0  0  0
  5 27  1  0  0  0  0
  9 28  1  0  0  0  0
 10 29  1  0  0  0  0
 11 30  1  0  0  0  0
 12 31  1  0  0  0  0
 14 32  1  0  0  0  0
 16 33  1  0  0  0  0
 17 34  1  0  0  0  0
 18 35  1  0  0  0  0
 19 36  1  0  0  0  0
M  END
