
  xtb     03012221213D
 energy: -17.568210234755 gnorm: 0.000366815088 xtb: 6.4.1 (afa7bdf)
 81 91  0     0  0            999 V2000
   -8.0290   -3.6183   -0.1266 C   0  0  0  0  0  0  0  0  0  0  0  0
   -7.6338   -2.3815   -0.9541 C   0  0  0  0  0  0  0  0  0  0  0  0
   -6.3368   -2.7034   -1.7219 C   0  0  0  0  0  0  0  0  0  0  0  0
   -8.7388   -2.0669   -1.9797 C   0  0  0  0  0  0  0  0  0  0  0  0
   -7.4550   -1.1790   -0.0144 C   0  0  0  0  0  0  0  0  0  0  0  0
   -8.5487   -0.7362    0.7518 C   0  0  0  0  0  0  0  0  0  0  0  0
   -8.4609    0.3298    1.6098 C   0  0  0  0  0  0  0  0  0  0  0  0
   -7.2465    1.0055    1.7348 C   0  0  0  0  0  0  0  0  0  0  0  0
   -6.8990    2.0937    2.5164 O   0  0  0  0  0  0  0  0  0  0  0  0
   -5.5652    2.3757    2.2697 C   0  0  0  0  0  0  0  0  0  0  0  0
   -4.8419    3.3532    2.8208 N   0  0  0  0  0  0  0  0  0  0  0  0
   -3.5731    3.4057    2.4080 C   0  0  0  0  0  0  0  0  0  0  0  0
   -2.6122    4.3159    2.8156 O   0  0  0  0  0  0  0  0  0  0  0  0
   -1.4402    4.0145    2.1445 C   0  0  0  0  0  0  0  0  0  0  0  0
   -0.1824    4.6240    2.1950 C   0  0  0  0  0  0  0  0  0  0  0  0
    0.8318    4.1286    1.4207 C   0  0  0  0  0  0  0  0  0  0  0  0
    0.6378    3.0212    0.5770 C   0  0  0  0  0  0  0  0  0  0  0  0
    1.7293    2.5272   -0.2233 N   0  0  0  0  0  0  0  0  0  0  0  0
    2.0674    2.9625   -1.5178 C   0  0  0  0  0  0  0  0  0  0  0  0
    1.4889    3.9326   -2.3344 C   0  0  0  0  0  0  0  0  0  0  0  0
    2.0326    4.1572   -3.5747 C   0  0  0  0  0  0  0  0  0  0  0  0
    3.1439    3.4319   -4.0169 C   0  0  0  0  0  0  0  0  0  0  0  0
    3.7250    2.4723   -3.2235 C   0  0  0  0  0  0  0  0  0  0  0  0
    3.1837    2.2323   -1.9598 C   0  0  0  0  0  0  0  0  0  0  0  0
    3.5436    1.3170   -0.9029 C   0  0  0  0  0  0  0  0  0  0  0  0
    4.5524    0.3628   -0.7903 C   0  0  0  0  0  0  0  0  0  0  0  0
    4.6483   -0.3805    0.3719 C   0  0  0  0  0  0  0  0  0  0  0  0
    5.6788   -1.3759    0.5061 N   0  0  0  0  0  0  0  0  0  0  0  0
    5.9205   -2.4401   -0.3836 C   0  0  0  0  0  0  0  0  0  0  0  0
    5.2630   -2.8171   -1.5541 C   0  0  0  0  0  0  0  0  0  0  0  0
    5.7100   -3.9223   -2.2345 C   0  0  0  0  0  0  0  0  0  0  0  0
    6.8014   -4.6630   -1.7701 C   0  0  0  0  0  0  0  0  0  0  0  0
    7.4576   -4.3076   -0.6169 C   0  0  0  0  0  0  0  0  0  0  0  0
    7.0146   -3.1863    0.0875 C   0  0  0  0  0  0  0  0  0  0  0  0
    7.4660   -2.5603    1.3060 C   0  0  0  0  0  0  0  0  0  0  0  0
    8.5079   -2.8558    2.1873 C   0  0  0  0  0  0  0  0  0  0  0  0
    8.6975   -2.0440    3.2790 C   0  0  0  0  0  0  0  0  0  0  0  0
    7.8692   -0.9408    3.5079 C   0  0  0  0  0  0  0  0  0  0  0  0
    6.8405   -0.6373    2.6512 C   0  0  0  0  0  0  0  0  0  0  0  0
    6.6307   -1.4542    1.5408 C   0  0  0  0  0  0  0  0  0  0  0  0
    3.7341   -0.1676    1.4206 C   0  0  0  0  0  0  0  0  0  0  0  0
    2.7365    0.7673    1.3226 C   0  0  0  0  0  0  0  0  0  0  0  0
    2.6371    1.5180    0.1516 C   0  0  0  0  0  0  0  0  0  0  0  0
   -0.5970    2.4079    0.5147 C   0  0  0  0  0  0  0  0  0  0  0  0
   -1.6347    2.9050    1.2976 C   0  0  0  0  0  0  0  0  0  0  0  0
   -3.0008    2.5104    1.4609 C   0  0  0  0  0  0  0  0  0  0  0  0
   -3.7490    1.5004    0.8898 C   0  0  0  0  0  0  0  0  0  0  0  0
   -5.0622    1.4447    1.3144 C   0  0  0  0  0  0  0  0  0  0  0  0
   -6.1459    0.5718    0.9765 C   0  0  0  0  0  0  0  0  0  0  0  0
   -6.2507   -0.5140    0.1076 C   0  0  0  0  0  0  0  0  0  0  0  0
   -8.9687   -3.4590    0.3995 H   0  0  0  0  0  0  0  0  0  0  0  0
   -7.2643   -3.8444    0.6154 H   0  0  0  0  0  0  0  0  0  0  0  0
   -8.1486   -4.4926   -0.7653 H   0  0  0  0  0  0  0  0  0  0  0  0
   -6.0239   -1.8583   -2.3337 H   0  0  0  0  0  0  0  0  0  0  0  0
   -6.4822   -3.5549   -2.3856 H   0  0  0  0  0  0  0  0  0  0  0  0
   -5.5278   -2.9545   -1.0371 H   0  0  0  0  0  0  0  0  0  0  0  0
   -8.8718   -2.8946   -2.6752 H   0  0  0  0  0  0  0  0  0  0  0  0
   -8.4857   -1.1784   -2.5568 H   0  0  0  0  0  0  0  0  0  0  0  0
   -9.6946   -1.8871   -1.4906 H   0  0  0  0  0  0  0  0  0  0  0  0
   -9.4877   -1.2535    0.6606 H   0  0  0  0  0  0  0  0  0  0  0  0
   -9.3045    0.6586    2.1893 H   0  0  0  0  0  0  0  0  0  0  0  0
   -0.0369    5.4708    2.8415 H   0  0  0  0  0  0  0  0  0  0  0  0
    1.8059    4.5840    1.4457 H   0  0  0  0  0  0  0  0  0  0  0  0
    0.6343    4.4839   -1.9830 H   0  0  0  0  0  0  0  0  0  0  0  0
    1.5972    4.9040   -4.2183 H   0  0  0  0  0  0  0  0  0  0  0  0
    3.5499    3.6299   -4.9950 H   0  0  0  0  0  0  0  0  0  0  0  0
    4.5802    1.9104   -3.5561 H   0  0  0  0  0  0  0  0  0  0  0  0
    5.2521    0.2106   -1.5908 H   0  0  0  0  0  0  0  0  0  0  0  0
    4.4204   -2.2460   -1.9005 H   0  0  0  0  0  0  0  0  0  0  0  0
    5.2115   -4.2257   -3.1408 H   0  0  0  0  0  0  0  0  0  0  0  0
    7.1305   -5.5259   -2.3249 H   0  0  0  0  0  0  0  0  0  0  0  0
    8.2967   -4.8730   -0.2512 H   0  0  0  0  0  0  0  0  0  0  0  0
    9.1432   -3.7040    2.0015 H   0  0  0  0  0  0  0  0  0  0  0  0
    9.4975   -2.2577    3.9684 H   0  0  0  0  0  0  0  0  0  0  0  0
    8.0434   -0.3184    4.3705 H   0  0  0  0  0  0  0  0  0  0  0  0
    6.2041    0.2136    2.8158 H   0  0  0  0  0  0  0  0  0  0  0  0
    3.8279   -0.7679    2.3089 H   0  0  0  0  0  0  0  0  0  0  0  0
    2.0346    0.9304    2.1211 H   0  0  0  0  0  0  0  0  0  0  0  0
   -0.7511    1.5623   -0.1283 H   0  0  0  0  0  0  0  0  0  0  0  0
   -3.3425    0.8129    0.1719 H   0  0  0  0  0  0  0  0  0  0  0  0
   -5.3856   -0.8127   -0.4536 H   0  0  0  0  0  0  0  0  0  0  0  0
  1  2  1  0  0  0  0
  2  3  1  0  0  0  0
  2  4  1  0  0  0  0
  2  5  1  0  0  0  0
  5  6  2  0  0  0  0
  6  7  1  0  0  0  0
  7  8  2  0  0  0  0
  8  9  1  0  0  0  0
  9 10  1  0  0  0  0
 10 11  2  0  0  0  0
 11 12  1  0  0  0  0
 12 13  1  0  0  0  0
 13 14  1  0  0  0  0
 14 15  2  0  0  0  0
 15 16  1  0  0  0  0
 16 17  2  0  0  0  0
 17 18  1  0  0  0  0
 18 19  1  0  0  0  0
 19 20  2  0  0  0  0
 20 21  1  0  0  0  0
 21 22  2  0  0  0  0
 22 23  1  0  0  0  0
 23 24  2  0  0  0  0
 24 25  1  0  0  0  0
 25 26  2  0  0  0  0
 26 27  1  0  0  0  0
 27 28  1  0  0  0  0
 28 29  1  0  0  0  0
 29 30  2  0  0  0  0
 30 31  1  0  0  0  0
 31 32  2  0  0  0  0
 32 33  1  0  0  0  0
 33 34  2  0  0  0  0
 34 35  1  0  0  0  0
 35 36  2  0  0  0  0
 36 37  1  0  0  0  0
 37 38  2  0  0  0  0
 38 39  1  0  0  0  0
 39 40  2  0  0  0  0
 27 41  2  0  0  0  0
 41 42  1  0  0  0  0
 42 43  2  0  0  0  0
 17 44  1  0  0  0  0
 44 45  2  0  0  0  0
 45 46  1  0  0  0  0
 46 47  1  0  0  0  0
 47 48  2  0  0  0  0
 48 49  1  0  0  0  0
 49 50  2  0  0  0  0
 50  5  1  0  0  0  0
 49  8  1  0  0  0  0
 48 10  1  0  0  0  0
 46 12  2  0  0  0  0
 45 14  1  0  0  0  0
 43 18  1  0  0  0  0
 24 19  1  0  0  0  0
 43 25  1  0  0  0  0
 40 28  1  0  0  0  0
 34 29  1  0  0  0  0
 40 35  1  0  0  0  0
  1 51  1  0  0  0  0
  1 52  1  0  0  0  0
  1 53  1  0  0  0  0
  3 54  1  0  0  0  0
  3 55  1  0  0  0  0
  3 56  1  0  0  0  0
  4 57  1  0  0  0  0
  4 58  1  0  0  0  0
  4 59  1  0  0  0  0
  6 60  1  0  0  0  0
  7 61  1  0  0  0  0
 15 62  1  0  0  0  0
 16 63  1  0  0  0  0
 20 64  1  0  0  0  0
 21 65  1  0  0  0  0
 22 66  1  0  0  0  0
 23 67  1  0  0  0  0
 26 68  1  0  0  0  0
 30 69  1  0  0  0  0
 31 70  1  0  0  0  0
 32 71  1  0  0  0  0
 33 72  1  0  0  0  0
 36 73  1  0  0  0  0
 37 74  1  0  0  0  0
 38 75  1  0  0  0  0
 39 76  1  0  0  0  0
 41 77  1  0  0  0  0
 42 78  1  0  0  0  0
 44 79  1  0  0  0  0
 47 80  1  0  0  0  0
 50 81  1  0  0  0  0
M  END
