
  xtb     03012221233D
 energy: -9.993475920348 gnorm: 0.000418668509 xtb: 6.4.1 (afa7bdf)
 48 54  0     0  0            999 V2000
    0.8508   -2.3665   -0.5819 F   0  0  0  0  0  0  0  0  0  0  0  0
    0.4378   -1.4834    0.4073 B   0  0  0  0  0  4  0  0  0  0  0  0
    0.5416   -2.0189    1.6805 F   0  0  0  0  0  0  0  0  0  0  0  0
    1.2824   -0.2216    0.3330 N   0  0  0  0  0  0  0  0  0  0  0  0
    2.6386   -0.1321    0.5127 C   0  0  0  0  0  0  0  0  0  0  0  0
    3.5510   -1.1933    0.8430 C   0  0  0  0  0  0  0  0  0  0  0  0
    4.9151   -1.1187    0.7257 C   0  0  0  0  0  0  0  0  0  0  0  0
    5.5881   -2.3096    1.0849 C   0  0  0  0  0  0  0  0  0  0  0  0
    4.7565   -3.2978    1.4886 C   0  0  0  0  0  0  0  0  0  0  0  0
    3.1166   -2.7722    1.4551 S   0  0  0  0  0  0  0  0  0  0  0  0
    2.9731    1.2111    0.2691 C   0  0  0  0  0  0  0  0  0  0  0  0
    1.8136    1.9146   -0.0416 C   0  0  0  0  0  0  0  0  0  0  0  0
    1.6779    3.3064   -0.3561 C   0  0  0  0  0  0  0  0  0  0  0  0
    2.6617    4.2597   -0.4124 C   0  0  0  0  0  0  0  0  0  0  0  0
    2.1801    5.5464   -0.7553 C   0  0  0  0  0  0  0  0  0  0  0  0
    0.8406    5.5886   -0.9619 C   0  0  0  0  0  0  0  0  0  0  0  0
    0.1448    4.0300   -0.7358 S   0  0  0  0  0  0  0  0  0  0  0  0
    0.7209    0.9792   -0.0022 C   0  0  0  0  0  0  0  0  0  0  0  0
   -0.5555    1.2624   -0.2577 N   0  0  0  0  0  0  0  0  0  0  0  0
   -1.3461    0.1958   -0.1616 C   0  0  0  0  0  0  0  0  0  0  0  0
   -2.7659    0.1746   -0.3937 C   0  0  0  0  0  0  0  0  0  0  0  0
   -3.5734    1.3029   -0.7559 C   0  0  0  0  0  0  0  0  0  0  0  0
   -3.1170    2.5805   -0.9416 C   0  0  0  0  0  0  0  0  0  0  0  0
   -4.1261    3.5038   -1.2941 C   0  0  0  0  0  0  0  0  0  0  0  0
   -5.3567    2.9441   -1.3810 C   0  0  0  0  0  0  0  0  0  0  0  0
   -5.2956    1.2572   -1.0285 S   0  0  0  0  0  0  0  0  0  0  0  0
   -3.1944   -1.1351   -0.2088 C   0  0  0  0  0  0  0  0  0  0  0  0
   -2.0921   -1.9321    0.1433 C   0  0  0  0  0  0  0  0  0  0  0  0
   -2.1088   -3.3468    0.3996 C   0  0  0  0  0  0  0  0  0  0  0  0
   -3.1484   -4.1862    0.0920 C   0  0  0  0  0  0  0  0  0  0  0  0
   -2.9081   -5.5413    0.4177 C   0  0  0  0  0  0  0  0  0  0  0  0
   -1.6973   -5.7528    0.9838 C   0  0  0  0  0  0  0  0  0  0  0  0
   -0.8293   -4.2738    1.1477 S   0  0  0  0  0  0  0  0  0  0  0  0
   -1.0092   -1.0917    0.1533 N   0  0  0  0  0  4  0  0  0  0  0  0
    5.4252   -0.2391    0.3660 H   0  0  0  0  0  0  0  0  0  0  0  0
    6.6617   -2.4195    1.0343 H   0  0  0  0  0  0  0  0  0  0  0  0
    5.0596   -4.2798    1.7989 H   0  0  0  0  0  0  0  0  0  0  0  0
    3.9617    1.6305    0.3223 H   0  0  0  0  0  0  0  0  0  0  0  0
    3.7000    4.0455   -0.2134 H   0  0  0  0  0  0  0  0  0  0  0  0
    2.8217    6.4111   -0.8431 H   0  0  0  0  0  0  0  0  0  0  0  0
    0.2757    6.4623   -1.2297 H   0  0  0  0  0  0  0  0  0  0  0  0
   -2.0782    2.8445   -0.8272 H   0  0  0  0  0  0  0  0  0  0  0  0
   -3.9319    4.5506   -1.4754 H   0  0  0  0  0  0  0  0  0  0  0  0
   -6.2618    3.4647   -1.6343 H   0  0  0  0  0  0  0  0  0  0  0  0
   -4.2099   -1.4735   -0.3115 H   0  0  0  0  0  0  0  0  0  0  0  0
   -4.0562   -3.8455   -0.3804 H   0  0  0  0  0  0  0  0  0  0  0  0
   -3.6205   -6.3302    0.2246 H   0  0  0  0  0  0  0  0  0  0  0  0
   -1.3153   -6.7044    1.3016 H   0  0  0  0  0  0  0  0  0  0  0  0
  1  2  1  0  0  0  0
  2  3  1  0  0  0  0
  2  4  1  0  0  0  0
  4  5  1  0  0  0  0
  5  6  1  0  0  0  0
  6  7  2  0  0  0  0
  7  8  1  0  0  0  0
  8  9  2  0  0  0  0
  9 10  1  0  0  0  0
  5 11  2  0  0  0  0
 11 12  1  0  0  0  0
 12 13  1  0  0  0  0
 13 14  2  0  0  0  0
 14 15  1  0  0  0  0
 15 16  2  0  0  0  0
 16 17  1  0  0  0  0
 12 18  2  0  0  0  0
 18 19  1  0  0  0  0
 19 20  2  0  0  0  0
 20 21  1  0  0  0  0
 21 22  1  0  0  0  0
 22 23  2  0  0  0  0
 23 24  1  0  0  0  0
 24 25  2  0  0  0  0
 25 26  1  0  0  0  0
 21 27  2  0  0  0  0
 27 28  1  0  0  0  0
 28 29  1  0  0  0  0
 29 30  2  0  0  0  0
 30 31  1  0  0  0  0
 31 32  2  0  0  0  0
 32 33  1  0  0  0  0
 28 34  2  0  0  0  0
 34  2  1  0  0  0  0
 18  4  1  0  0  0  0
 34 20  1  0  0  0  0
 10  6  1  0  0  0  0
 17 13  1  0  0  0  0
 26 22  1  0  0  0  0
 33 29  1  0  0  0  0
  7 35  1  0  0  0  0
  8 36  1  0  0  0  0
  9 37  1  0  0  0  0
 11 38  1  0  0  0  0
 14 39  1  0  0  0  0
 15 40  1  0  0  0  0
 16 41  1  0  0  0  0
 23 42  1  0  0  0  0
 24 43  1  0  0  0  0
 25 44  1  0  0  0  0
 27 45  1  0  0  0  0
 30 46  1  0  0  0  0
 31 47  1  0  0  0  0
 32 48  1  0  0  0  0
M  CHG  1   2  -1
M  CHG  1  34   1
M  END
