
  xtb     03012221233D
 energy: -14.418255105712 gnorm: 0.000187802393 xtb: 6.4.1 (afa7bdf)
 83 86  0     0  0            999 V2000
    7.3434    2.1815    1.3074 C   0  0  0  0  0  0  0  0  0  0  0  0
    8.0413    1.1387    0.4492 C   0  0  0  0  0  0  0  0  0  0  0  0
    7.7516   -0.3311    0.8712 C   0  0  0  0  0  0  0  0  0  0  0  0
    8.3685   -0.5847    2.2605 C   0  0  0  0  0  0  0  0  0  0  0  0
    8.4241   -1.2876   -0.1324 C   0  0  0  0  0  0  0  0  0  0  0  0
    6.2359   -0.5857    0.8620 C   0  0  0  0  0  0  0  0  0  0  0  0
    5.5494   -1.0437    1.9802 C   0  0  0  0  0  0  0  0  0  0  0  0
    4.1897   -1.2600    1.9402 C   0  0  0  0  0  0  0  0  0  0  0  0
    3.4602   -1.0271    0.7790 C   0  0  0  0  0  0  0  0  0  0  0  0
    1.9988   -1.2570    0.7339 C   0  0  0  0  0  0  0  0  0  0  0  0
    1.4363   -2.3921    1.3290 C   0  0  0  0  0  0  0  0  0  0  0  0
    0.0797   -2.6272    1.2880 C   0  0  0  0  0  0  0  0  0  0  0  0
   -0.7415   -1.7130    0.6427 C   0  0  0  0  0  0  0  0  0  0  0  0
   -0.1983   -0.5736    0.0492 C   0  0  0  0  0  0  0  0  0  0  0  0
    1.1594   -0.3449    0.0900 C   0  0  0  0  0  0  0  0  0  0  0  0
   -1.3174    0.2635   -0.5888 C   0  0  0  0  0  0  0  0  0  0  0  0
   -1.3662    1.6333    0.1414 C   0  0  0  0  0  0  0  0  0  0  0  0
   -2.3638    2.6534   -0.3816 C   0  0  0  0  0  0  0  0  0  0  0  0
   -2.3556    3.8759    0.3453 O   0  0  0  0  0  0  0  0  0  0  0  0
   -2.8333    3.7422    1.6626 C   0  0  0  0  0  0  0  0  0  0  0  0
   -1.0245    0.3949   -2.1143 C   0  0  0  0  0  0  0  0  0  0  0  0
   -2.2274    0.6009   -3.0246 C   0  0  0  0  0  0  0  0  0  0  0  0
   -1.8855    0.6999   -4.4012 O   0  0  0  0  0  0  0  0  0  0  0  0
   -1.1710    1.8714   -4.7136 C   0  0  0  0  0  0  0  0  0  0  0  0
   -2.5653   -0.5803   -0.2854 C   0  0  0  0  0  0  0  0  0  0  0  0
   -3.8963   -0.3612   -0.5810 C   0  0  0  0  0  0  0  0  0  0  0  0
   -4.8713   -1.2624   -0.1653 C   0  0  0  0  0  0  0  0  0  0  0  0
   -6.3602   -1.0297   -0.4516 C   0  0  0  0  0  0  0  0  0  0  0  0
   -6.5887    0.2096   -1.3346 C   0  0  0  0  0  0  0  0  0  0  0  0
   -6.9304   -2.2474   -1.1990 C   0  0  0  0  0  0  0  0  0  0  0  0
   -7.1233   -0.8485    0.8888 C   0  0  0  0  0  0  0  0  0  0  0  0
   -6.5910    0.2756    1.7618 C   0  0  0  0  0  0  0  0  0  0  0  0
   -4.4756   -2.3840    0.5602 C   0  0  0  0  0  0  0  0  0  0  0  0
   -3.1518   -2.6200    0.8654 C   0  0  0  0  0  0  0  0  0  0  0  0
   -2.1936   -1.7125    0.4417 C   0  0  0  0  0  0  0  0  0  0  0  0
    4.1478   -0.5710   -0.3405 C   0  0  0  0  0  0  0  0  0  0  0  0
    5.5073   -0.3576   -0.2982 C   0  0  0  0  0  0  0  0  0  0  0  0
    7.6767    2.1380    2.3455 H   0  0  0  0  0  0  0  0  0  0  0  0
    7.5317    3.1969    0.9503 H   0  0  0  0  0  0  0  0  0  0  0  0
    6.2620    2.0320    1.3097 H   0  0  0  0  0  0  0  0  0  0  0  0
    9.1255    1.2994    0.4657 H   0  0  0  0  0  0  0  0  0  0  0  0
    7.7505    1.2662   -0.5995 H   0  0  0  0  0  0  0  0  0  0  0  0
    7.9039    0.0378    3.0238 H   0  0  0  0  0  0  0  0  0  0  0  0
    9.4354   -0.3623    2.2562 H   0  0  0  0  0  0  0  0  0  0  0  0
    8.2524   -1.6275    2.5545 H   0  0  0  0  0  0  0  0  0  0  0  0
    8.0558   -1.1231   -1.1442 H   0  0  0  0  0  0  0  0  0  0  0  0
    9.5046   -1.1461   -0.1431 H   0  0  0  0  0  0  0  0  0  0  0  0
    8.2224   -2.3256    0.1311 H   0  0  0  0  0  0  0  0  0  0  0  0
    6.0811   -1.2344    2.8947 H   0  0  0  0  0  0  0  0  0  0  0  0
    3.6724   -1.6036    2.8207 H   0  0  0  0  0  0  0  0  0  0  0  0
    2.0863   -3.0992    1.8141 H   0  0  0  0  0  0  0  0  0  0  0  0
   -0.3471   -3.5042    1.7420 H   0  0  0  0  0  0  0  0  0  0  0  0
    1.5692    0.5375   -0.3658 H   0  0  0  0  0  0  0  0  0  0  0  0
   -0.3682    2.0803    0.1179 H   0  0  0  0  0  0  0  0  0  0  0  0
   -1.5675    1.4347    1.1973 H   0  0  0  0  0  0  0  0  0  0  0  0
   -3.3860    2.2651   -0.3669 H   0  0  0  0  0  0  0  0  0  0  0  0
   -2.1352    2.9179   -1.4190 H   0  0  0  0  0  0  0  0  0  0  0  0
   -2.9763    4.7375    2.0846 H   0  0  0  0  0  0  0  0  0  0  0  0
   -3.7875    3.2137    1.6676 H   0  0  0  0  0  0  0  0  0  0  0  0
   -2.1083    3.2047    2.2737 H   0  0  0  0  0  0  0  0  0  0  0  0
   -0.3006    1.2009   -2.2570 H   0  0  0  0  0  0  0  0  0  0  0  0
   -0.5094   -0.5131   -2.4439 H   0  0  0  0  0  0  0  0  0  0  0  0
   -2.8041    1.4900   -2.7557 H   0  0  0  0  0  0  0  0  0  0  0  0
   -2.9130   -0.2501   -2.9436 H   0  0  0  0  0  0  0  0  0  0  0  0
   -1.6880    2.7460   -4.3171 H   0  0  0  0  0  0  0  0  0  0  0  0
   -1.1039    1.9600   -5.7984 H   0  0  0  0  0  0  0  0  0  0  0  0
   -0.1624    1.8186   -4.3040 H   0  0  0  0  0  0  0  0  0  0  0  0
   -4.1729    0.5108   -1.1404 H   0  0  0  0  0  0  0  0  0  0  0  0
   -6.2111    1.1166   -0.8629 H   0  0  0  0  0  0  0  0  0  0  0  0
   -7.6523    0.3577   -1.5259 H   0  0  0  0  0  0  0  0  0  0  0  0
   -6.0933    0.0968   -2.3000 H   0  0  0  0  0  0  0  0  0  0  0  0
   -6.8558   -3.1556   -0.6008 H   0  0  0  0  0  0  0  0  0  0  0  0
   -7.9828   -2.0979   -1.4442 H   0  0  0  0  0  0  0  0  0  0  0  0
   -6.3883   -2.4156   -2.1304 H   0  0  0  0  0  0  0  0  0  0  0  0
   -8.1860   -0.6873    0.6679 H   0  0  0  0  0  0  0  0  0  0  0  0
   -7.0861   -1.7959    1.4407 H   0  0  0  0  0  0  0  0  0  0  0  0
   -5.5317    0.1353    1.9830 H   0  0  0  0  0  0  0  0  0  0  0  0
   -6.6922    1.2463    1.2753 H   0  0  0  0  0  0  0  0  0  0  0  0
   -7.1189    0.3361    2.7158 H   0  0  0  0  0  0  0  0  0  0  0  0
   -5.2229   -3.0805    0.8983 H   0  0  0  0  0  0  0  0  0  0  0  0
   -2.8563   -3.4879    1.4278 H   0  0  0  0  0  0  0  0  0  0  0  0
    3.6020   -0.3964   -1.2531 H   0  0  0  0  0  0  0  0  0  0  0  0
    6.0147   -0.0091   -1.1802 H   0  0  0  0  0  0  0  0  0  0  0  0
  1  2  1  0  0  0  0
  2  3  1  0  0  0  0
  3  4  1  0  0  0  0
  3  5  1  0  0  0  0
  3  6  1  0  0  0  0
  6  7  2  0  0  0  0
  7  8  1  0  0  0  0
  8  9  2  0  0  0  0
  9 10  1  0  0  0  0
 10 11  2  0  0  0  0
 11 12  1  0  0  0  0
 12 13  2  0  0  0  0
 13 14  1  0  0  0  0
 14 15  2  0  0  0  0
 14 16  1  0  0  0  0
 16 17  1  0  0  0  0
 17 18  1  0  0  0  0
 18 19  1  0  0  0  0
 19 20  1  0  0  0  0
 16 21  1  0  0  0  0
 21 22  1  0  0  0  0
 22 23  1  0  0  0  0
 23 24  1  0  0  0  0
 16 25  1  0  0  0  0
 25 26  2  0  0  0  0
 26 27  1  0  0  0  0
 27 28  1  0  0  0  0
 28 29  1  0  0  0  0
 28 30  1  0  0  0  0
 28 31  1  0  0  0  0
 31 32  1  0  0  0  0
 27 33  2  0  0  0  0
 33 34  1  0  0  0  0
 34 35  2  0  0  0  0
  9 36  1  0  0  0  0
 36 37  2  0  0  0  0
 37  6  1  0  0  0  0
 15 10  1  0  0  0  0
 35 25  1  0  0  0  0
 35 13  1  0  0  0  0
  1 38  1  0  0  0  0
  1 39  1  0  0  0  0
  1 40  1  0  0  0  0
  2 41  1  0  0  0  0
  2 42  1  0  0  0  0
  4 43  1  0  0  0  0
  4 44  1  0  0  0  0
  4 45  1  0  0  0  0
  5 46  1  0  0  0  0
  5 47  1  0  0  0  0
  5 48  1  0  0  0  0
  7 49  1  0  0  0  0
  8 50  1  0  0  0  0
 11 51  1  0  0  0  0
 12 52  1  0  0  0  0
 15 53  1  0  0  0  0
 17 54  1  0  0  0  0
 17 55  1  0  0  0  0
 18 56  1  0  0  0  0
 18 57  1  0  0  0  0
 20 58  1  0  0  0  0
 20 59  1  0  0  0  0
 20 60  1  0  0  0  0
 21 61  1  0  0  0  0
 21 62  1  0  0  0  0
 22 63  1  0  0  0  0
 22 64  1  0  0  0  0
 24 65  1  0  0  0  0
 24 66  1  0  0  0  0
 24 67  1  0  0  0  0
 26 68  1  0  0  0  0
 29 69  1  0  0  0  0
 29 70  1  0  0  0  0
 29 71  1  0  0  0  0
 30 72  1  0  0  0  0
 30 73  1  0  0  0  0
 30 74  1  0  0  0  0
 31 75  1  0  0  0  0
 31 76  1  0  0  0  0
 32 77  1  0  0  0  0
 32 78  1  0  0  0  0
 32 79  1  0  0  0  0
 33 80  1  0  0  0  0
 34 81  1  0  0  0  0
 36 82  1  0  0  0  0
 37 83  1  0  0  0  0
M  END
