
  xtb     03012221253D
 energy: -15.347399128205 gnorm: 0.000407212418 xtb: 6.4.1 (afa7bdf)
 74 82  0     0  0            999 V2000
    3.4880    2.0303   -1.2398 O   0  0  0  0  0  0  0  0  0  0  0  0
    4.1360    0.9433   -0.6833 C   0  0  0  0  0  0  0  0  0  0  0  0
    3.3665   -0.1067   -0.1242 C   0  0  0  0  0  0  0  0  0  0  0  0
    1.9165   -0.0581   -0.0932 C   0  0  0  0  0  0  0  0  0  0  0  0
    1.1461   -1.0351    0.3861 N   0  0  0  0  0  0  0  0  0  0  0  0
   -0.1289   -0.6097    0.2420 C   0  0  0  0  0  0  0  0  0  0  0  0
   -1.3594   -1.2725    0.5880 C   0  0  0  0  0  0  0  0  0  0  0  0
   -1.3507   -2.5464    1.1576 C   0  0  0  0  0  0  0  0  0  0  0  0
   -2.5220   -3.1730    1.4785 C   0  0  0  0  0  0  0  0  0  0  0  0
   -3.7550   -2.5509    1.2431 C   0  0  0  0  0  0  0  0  0  0  0  0
   -5.0240   -3.2307    1.5851 C   0  0  0  0  0  0  0  0  0  0  0  0
   -6.0889   -2.5220    2.1404 C   0  0  0  0  0  0  0  0  0  0  0  0
   -7.2706   -3.1559    2.4555 C   0  0  0  0  0  0  0  0  0  0  0  0
   -7.4153   -4.5088    2.2228 C   0  0  0  0  0  0  0  0  0  0  0  0
   -6.3724   -5.2268    1.6731 C   0  0  0  0  0  0  0  0  0  0  0  0
   -5.1890   -4.5964    1.3573 C   0  0  0  0  0  0  0  0  0  0  0  0
   -3.7622   -1.2843    0.6793 C   0  0  0  0  0  0  0  0  0  0  0  0
   -2.5857   -0.6125    0.3385 C   0  0  0  0  0  0  0  0  0  0  0  0
   -2.5948    0.7283   -0.2602 C   0  0  0  0  0  0  0  0  0  0  0  0
   -3.7789    1.4249   -0.5117 C   0  0  0  0  0  0  0  0  0  0  0  0
   -3.7867    2.6912   -1.0767 C   0  0  0  0  0  0  0  0  0  0  0  0
   -5.0627    3.3989   -1.3216 C   0  0  0  0  0  0  0  0  0  0  0  0
   -5.2535    4.1528   -2.4794 C   0  0  0  0  0  0  0  0  0  0  0  0
   -6.4426    4.8111   -2.7047 C   0  0  0  0  0  0  0  0  0  0  0  0
   -7.4651    4.7321   -1.7808 C   0  0  0  0  0  0  0  0  0  0  0  0
   -7.2947    3.9906   -0.6291 C   0  0  0  0  0  0  0  0  0  0  0  0
   -6.1077    3.3300   -0.4003 C   0  0  0  0  0  0  0  0  0  0  0  0
   -2.5614    3.2862   -1.4063 C   0  0  0  0  0  0  0  0  0  0  0  0
   -1.3825    2.6361   -1.1735 C   0  0  0  0  0  0  0  0  0  0  0  0
   -1.3757    1.3612   -0.6016 C   0  0  0  0  0  0  0  0  0  0  0  0
   -0.1496    0.6674   -0.3395 C   0  0  0  0  0  0  0  0  0  0  0  0
    1.1580    1.0051   -0.5477 N   0  0  0  0  0  0  0  0  0  0  0  0
    4.0107   -1.2149    0.4059 C   0  0  0  0  0  0  0  0  0  0  0  0
    5.3815   -1.3325    0.4047 C   0  0  0  0  0  0  0  0  0  0  0  0
    6.1648   -0.2972   -0.1453 C   0  0  0  0  0  0  0  0  0  0  0  0
    5.5381    0.8496   -0.6655 C   0  0  0  0  0  0  0  0  0  0  0  0
    6.3564    1.9980   -1.1869 C   0  0  0  0  0  0  0  0  0  0  0  0
    7.8306    1.9609   -0.7581 C   0  0  0  0  0  0  0  0  0  0  0  0
    8.4010    0.5545   -0.8959 C   0  0  0  0  0  0  0  0  0  0  0  0
    7.5639   -0.4261   -0.1803 N   0  0  0  0  0  0  0  0  0  0  0  0
    8.2665   -1.6110    0.3581 C   0  0  0  0  0  0  0  0  0  0  0  0
    7.4610   -2.3131    1.4491 C   0  0  0  0  0  0  0  0  0  0  0  0
    6.0199   -2.5607    0.9858 C   0  0  0  0  0  0  0  0  0  0  0  0
    4.1258    2.6139   -1.7039 H   0  0  0  0  0  0  0  0  0  0  0  0
   -0.4040   -3.0237    1.3390 H   0  0  0  0  0  0  0  0  0  0  0  0
   -2.5059   -4.1510    1.9297 H   0  0  0  0  0  0  0  0  0  0  0  0
   -5.9734   -1.4698    2.3358 H   0  0  0  0  0  0  0  0  0  0  0  0
   -8.0837   -2.5944    2.8870 H   0  0  0  0  0  0  0  0  0  0  0  0
   -8.3404   -5.0034    2.4698 H   0  0  0  0  0  0  0  0  0  0  0  0
   -6.4852   -6.2831    1.4883 H   0  0  0  0  0  0  0  0  0  0  0  0
   -4.3822   -5.1551    0.9150 H   0  0  0  0  0  0  0  0  0  0  0  0
   -4.7132   -0.8239    0.4884 H   0  0  0  0  0  0  0  0  0  0  0  0
   -4.7237    0.9731   -0.2753 H   0  0  0  0  0  0  0  0  0  0  0  0
   -4.4629    4.2040   -3.2077 H   0  0  0  0  0  0  0  0  0  0  0  0
   -6.5755    5.3881   -3.6058 H   0  0  0  0  0  0  0  0  0  0  0  0
   -8.3943    5.2485   -1.9582 H   0  0  0  0  0  0  0  0  0  0  0  0
   -8.0920    3.9301    0.0943 H   0  0  0  0  0  0  0  0  0  0  0  0
   -5.9718    2.7649    0.5055 H   0  0  0  0  0  0  0  0  0  0  0  0
   -2.5577    4.2754   -1.8326 H   0  0  0  0  0  0  0  0  0  0  0  0
   -0.4454    3.1004   -1.4233 H   0  0  0  0  0  0  0  0  0  0  0  0
    1.5364    1.8582   -0.9694 H   0  0  0  0  0  0  0  0  0  0  0  0
    3.4110   -2.0041    0.8221 H   0  0  0  0  0  0  0  0  0  0  0  0
    5.9060    2.9394   -0.8470 H   0  0  0  0  0  0  0  0  0  0  0  0
    6.2909    2.0077   -2.2816 H   0  0  0  0  0  0  0  0  0  0  0  0
    8.4253    2.6788   -1.3402 H   0  0  0  0  0  0  0  0  0  0  0  0
    7.9155    2.2829    0.2872 H   0  0  0  0  0  0  0  0  0  0  0  0
    9.4273    0.5009   -0.5182 H   0  0  0  0  0  0  0  0  0  0  0  0
    8.4397    0.2571   -1.9482 H   0  0  0  0  0  0  0  0  0  0  0  0
    9.2460   -1.2990    0.7346 H   0  0  0  0  0  0  0  0  0  0  0  0
    8.4569   -2.2931   -0.4756 H   0  0  0  0  0  0  0  0  0  0  0  0
    7.4523   -1.6904    2.3522 H   0  0  0  0  0  0  0  0  0  0  0  0
    7.9438   -3.2560    1.7423 H   0  0  0  0  0  0  0  0  0  0  0  0
    5.4065   -2.9278    1.8189 H   0  0  0  0  0  0  0  0  0  0  0  0
    6.0027   -3.3563    0.2313 H   0  0  0  0  0  0  0  0  0  0  0  0
  1  2  1  0  0  0  0
  2  3  2  0  0  0  0
  3  4  1  0  0  0  0
  4  5  2  0  0  0  0
  5  6  1  0  0  0  0
  6  7  2  0  0  0  0
  7  8  1  0  0  0  0
  8  9  2  0  0  0  0
  9 10  1  0  0  0  0
 10 11  1  0  0  0  0
 11 12  2  0  0  0  0
 12 13  1  0  0  0  0
 13 14  2  0  0  0  0
 14 15  1  0  0  0  0
 15 16  2  0  0  0  0
 10 17  2  0  0  0  0
 17 18  1  0  0  0  0
 18 19  2  0  0  0  0
 19 20  1  0  0  0  0
 20 21  2  0  0  0  0
 21 22  1  0  0  0  0
 22 23  2  0  0  0  0
 23 24  1  0  0  0  0
 24 25  2  0  0  0  0
 25 26  1  0  0  0  0
 26 27  2  0  0  0  0
 21 28  1  0  0  0  0
 28 29  2  0  0  0  0
 29 30  1  0  0  0  0
 30 31  2  0  0  0  0
 31 32  1  0  0  0  0
  3 33  1  0  0  0  0
 33 34  2  0  0  0  0
 34 35  1  0  0  0  0
 35 36  2  0  0  0  0
 36 37  1  0  0  0  0
 37 38  1  0  0  0  0
 38 39  1  0  0  0  0
 39 40  1  0  0  0  0
 40 41  1  0  0  0  0
 41 42  1  0  0  0  0
 42 43  1  0  0  0  0
 36  2  1  0  0  0  0
 32  4  1  0  0  0  0
 43 34  1  0  0  0  0
 31  6  1  0  0  0  0
 40 35  1  0  0  0  0
 18  7  1  0  0  0  0
 30 19  1  0  0  0  0
 16 11  1  0  0  0  0
 27 22  1  0  0  0  0
  1 44  1  0  0  0  0
  8 45  1  0  0  0  0
  9 46  1  0  0  0  0
 12 47  1  0  0  0  0
 13 48  1  0  0  0  0
 14 49  1  0  0  0  0
 15 50  1  0  0  0  0
 16 51  1  0  0  0  0
 17 52  1  0  0  0  0
 20 53  1  0  0  0  0
 23 54  1  0  0  0  0
 24 55  1  0  0  0  0
 25 56  1  0  0  0  0
 26 57  1  0  0  0  0
 27 58  1  0  0  0  0
 28 59  1  0  0  0  0
 29 60  1  0  0  0  0
 32 61  1  0  0  0  0
 33 62  1  0  0  0  0
 37 63  1  0  0  0  0
 37 64  1  0  0  0  0
 38 65  1  0  0  0  0
 38 66  1  0  0  0  0
 39 67  1  0  0  0  0
 39 68  1  0  0  0  0
 41 69  1  0  0  0  0
 41 70  1  0  0  0  0
 42 71  1  0  0  0  0
 42 72  1  0  0  0  0
 43 73  1  0  0  0  0
 43 74  1  0  0  0  0
M  END
