
  xtb     03012221303D
 energy: -10.712763824681 gnorm: 0.000087677869 xtb: 6.4.1 (afa7bdf)
 49 54  0     0  0            999 V2000
   -3.8320   -0.9499    1.7700 C   0  0  0  0  0  0  0  0  0  0  0  0
   -2.8415   -0.3476    0.9719 O   0  0  0  0  0  0  0  0  0  0  0  0
   -3.1631   -0.2178   -0.3780 C   0  0  0  0  0  0  0  0  0  0  0  0
   -4.4043   -0.5741   -0.9129 C   0  0  0  0  0  0  0  0  0  0  0  0
   -4.6947   -0.3696   -2.2410 C   0  0  0  0  0  0  0  0  0  0  0  0
   -3.7565    0.2012   -3.0780 C   0  0  0  0  0  0  0  0  0  0  0  0
   -2.5212    0.5495   -2.5849 C   0  0  0  0  0  0  0  0  0  0  0  0
   -2.1917    0.3317   -1.2518 C   0  0  0  0  0  0  0  0  0  0  0  0
   -0.8491    0.6942   -0.7892 C   0  0  0  0  0  0  0  0  0  0  0  0
   -0.2374    1.8102   -1.1575 N   0  0  0  0  0  0  0  0  0  0  0  0
    1.0000    1.7639   -0.6183 C   0  0  0  0  0  0  0  0  0  0  0  0
    2.0598    2.7328   -0.7213 C   0  0  0  0  0  0  0  0  0  0  0  0
    1.8891    3.9313   -1.3982 C   0  0  0  0  0  0  0  0  0  0  0  0
    2.9404    4.7984   -1.4488 C   0  0  0  0  0  0  0  0  0  0  0  0
    4.1246    4.4490   -0.8282 C   0  0  0  0  0  0  0  0  0  0  0  0
    4.3299    3.3243   -0.1785 N   0  0  0  0  0  0  0  0  0  0  0  0
    3.3039    2.4578   -0.1181 C   0  0  0  0  0  0  0  0  0  0  0  0
    3.5092    1.1977    0.5880 C   0  0  0  0  0  0  0  0  0  0  0  0
    4.7211    0.9739    1.1256 N   0  0  0  0  0  0  0  0  0  0  0  0
    4.9008   -0.1731    1.7417 C   0  0  0  0  0  0  0  0  0  0  0  0
    3.9397   -1.1568    1.8699 C   0  0  0  0  0  0  0  0  0  0  0  0
    2.7049   -0.9449    1.3345 C   0  0  0  0  0  0  0  0  0  0  0  0
    2.4593    0.2561    0.6802 C   0  0  0  0  0  0  0  0  0  0  0  0
    1.1911    0.5699    0.0785 C   0  0  0  0  0  0  0  0  0  0  0  0
   -0.0022   -0.1247   -0.0229 N   0  0  0  0  0  0  0  0  0  0  0  0
   -0.2816   -1.4617    0.4433 C   0  0  0  0  0  0  0  0  0  0  0  0
   -0.4330   -1.7179    1.7994 C   0  0  0  0  0  0  0  0  0  0  0  0
   -0.6900   -2.9957    2.2423 C   0  0  0  0  0  0  0  0  0  0  0  0
   -0.8024   -4.0310    1.3368 C   0  0  0  0  0  0  0  0  0  0  0  0
   -0.6593   -3.7851   -0.0138 C   0  0  0  0  0  0  0  0  0  0  0  0
   -0.4005   -2.5084   -0.4596 C   0  0  0  0  0  0  0  0  0  0  0  0
   -4.0458   -1.9536    1.4013 H   0  0  0  0  0  0  0  0  0  0  0  0
   -4.7336   -0.3368    1.7690 H   0  0  0  0  0  0  0  0  0  0  0  0
   -3.4558   -1.0219    2.7907 H   0  0  0  0  0  0  0  0  0  0  0  0
   -5.1539   -1.0050   -0.2743 H   0  0  0  0  0  0  0  0  0  0  0  0
   -5.6608   -0.6466   -2.6290 H   0  0  0  0  0  0  0  0  0  0  0  0
   -3.9911    0.3715   -4.1164 H   0  0  0  0  0  0  0  0  0  0  0  0
   -1.7827    0.9919   -3.2306 H   0  0  0  0  0  0  0  0  0  0  0  0
    0.9448    4.1547   -1.8632 H   0  0  0  0  0  0  0  0  0  0  0  0
    2.8495    5.7411   -1.9638 H   0  0  0  0  0  0  0  0  0  0  0  0
    4.9581    5.1327   -0.8660 H   0  0  0  0  0  0  0  0  0  0  0  0
    5.8788   -0.3357    2.1664 H   0  0  0  0  0  0  0  0  0  0  0  0
    4.1636   -2.0767    2.3855 H   0  0  0  0  0  0  0  0  0  0  0  0
    1.9346   -1.6888    1.4081 H   0  0  0  0  0  0  0  0  0  0  0  0
   -0.3638   -0.8969    2.4909 H   0  0  0  0  0  0  0  0  0  0  0  0
   -0.8093   -3.1858    3.2964 H   0  0  0  0  0  0  0  0  0  0  0  0
   -1.0059   -5.0312    1.6841 H   0  0  0  0  0  0  0  0  0  0  0  0
   -0.7512   -4.5932   -0.7210 H   0  0  0  0  0  0  0  0  0  0  0  0
   -0.2889   -2.3030   -1.5094 H   0  0  0  0  0  0  0  0  0  0  0  0
  1  2  1  0  0  0  0
  2  3  1  0  0  0  0
  3  4  2  0  0  0  0
  4  5  1  0  0  0  0
  5  6  2  0  0  0  0
  6  7  1  0  0  0  0
  7  8  2  0  0  0  0
  8  9  1  0  0  0  0
  9 10  2  0  0  0  0
 10 11  1  0  0  0  0
 11 12  2  0  0  0  0
 12 13  1  0  0  0  0
 13 14  2  0  0  0  0
 14 15  1  0  0  0  0
 15 16  2  0  0  0  0
 16 17  1  0  0  0  0
 17 18  2  0  0  0  0
 18 19  1  0  0  0  0
 19 20  2  0  0  0  0
 20 21  1  0  0  0  0
 21 22  2  0  0  0  0
 22 23  1  0  0  0  0
 23 24  2  0  0  0  0
 24 25  1  0  0  0  0
 25 26  1  0  0  0  0
 26 27  2  0  0  0  0
 27 28  1  0  0  0  0
 28 29  2  0  0  0  0
 29 30  1  0  0  0  0
 30 31  2  0  0  0  0
  8  3  1  0  0  0  0
 25  9  1  0  0  0  0
 31 26  1  0  0  0  0
 24 11  1  0  0  0  0
 17 12  1  0  0  0  0
 23 18  1  0  0  0  0
  1 32  1  0  0  0  0
  1 33  1  0  0  0  0
  1 34  1  0  0  0  0
  4 35  1  0  0  0  0
  5 36  1  0  0  0  0
  6 37  1  0  0  0  0
  7 38  1  0  0  0  0
 13 39  1  0  0  0  0
 14 40  1  0  0  0  0
 15 41  1  0  0  0  0
 20 42  1  0  0  0  0
 21 43  1  0  0  0  0
 22 44  1  0  0  0  0
 27 45  1  0  0  0  0
 28 46  1  0  0  0  0
 29 47  1  0  0  0  0
 30 48  1  0  0  0  0
 31 49  1  0  0  0  0
M  END
