
  xtb     03012221233D
 energy: -9.454292692564 gnorm: 0.000330501985 xtb: 6.4.1 (afa7bdf)
 46 49  0     0  0            999 V2000
    0.4879   -2.9371    3.1903 C   0  0  0  0  0  0  0  0  0  0  0  0
   -0.0182   -1.7903    2.5905 O   0  0  0  0  0  0  0  0  0  0  0  0
    0.3880   -1.7368    1.2856 C   0  0  0  0  0  0  0  0  0  0  0  0
    1.1957   -2.5126    0.8110 O   0  0  0  0  0  0  0  0  0  0  0  0
   -0.2018   -0.6499    0.4565 C   0  0  0  0  0  0  0  0  0  0  0  0
    0.4610    0.4158   -0.2298 C   0  0  0  0  0  0  0  0  0  0  0  0
    1.9008    0.6607   -0.3299 C   0  0  0  0  0  0  0  0  0  0  0  0
    2.8028   -0.3279   -0.1294 C   0  0  0  0  0  0  0  0  0  0  0  0
    4.1930   -0.1062   -0.2621 C   0  0  0  0  0  0  0  0  0  0  0  0
    5.1354   -1.1197   -0.0658 C   0  0  0  0  0  0  0  0  0  0  0  0
    6.4729   -0.8657   -0.2098 C   0  0  0  0  0  0  0  0  0  0  0  0
    6.9065    0.4073   -0.5545 C   0  0  0  0  0  0  0  0  0  0  0  0
    6.0004    1.4147   -0.7525 C   0  0  0  0  0  0  0  0  0  0  0  0
    4.6301    1.1810   -0.6119 C   0  0  0  0  0  0  0  0  0  0  0  0
    3.7442    2.2199   -0.8189 O   0  0  0  0  0  0  0  0  0  0  0  0
    2.3915    2.0031   -0.6778 C   0  0  0  0  0  0  0  0  0  0  0  0
    1.5887    2.9104   -0.8258 O   0  0  0  0  0  0  0  0  0  0  0  0
   -0.4378    1.2018   -0.7993 N   0  0  0  0  0  0  0  0  0  0  0  0
   -1.6263    0.7092   -0.5033 N   0  0  0  0  0  0  0  0  0  0  0  0
   -2.8299    1.3448   -0.9844 C   0  0  0  0  0  0  0  0  0  0  0  0
   -3.6746    2.0168   -0.1125 C   0  0  0  0  0  0  0  0  0  0  0  0
   -4.8089    2.6394   -0.5859 C   0  0  0  0  0  0  0  0  0  0  0  0
   -5.1077    2.6041   -1.9299 C   0  0  0  0  0  0  0  0  0  0  0  0
   -4.2626    1.9436   -2.8052 C   0  0  0  0  0  0  0  0  0  0  0  0
   -4.6319    1.8904   -4.4902 Cl  0  0  0  0  0  0  0  0  0  0  0  0
   -3.1248    1.3206   -2.3342 C   0  0  0  0  0  0  0  0  0  0  0  0
   -1.5502   -0.4427    0.2669 C   0  0  0  0  0  0  0  0  0  0  0  0
   -2.6744   -1.2835    0.7088 C   0  0  0  0  0  0  0  0  0  0  0  0
   -2.4811   -2.4226    1.0925 O   0  0  0  0  0  0  0  0  0  0  0  0
   -3.9187   -0.7246    0.6498 O   0  0  0  0  0  0  0  0  0  0  0  0
   -4.8628   -1.6471    1.0840 C   0  0  0  0  0  0  0  0  0  0  0  0
    0.1130   -3.8012    2.6390 H   0  0  0  0  0  0  0  0  0  0  0  0
    1.5770   -2.9108    3.1437 H   0  0  0  0  0  0  0  0  0  0  0  0
    0.1503   -2.9734    4.2259 H   0  0  0  0  0  0  0  0  0  0  0  0
    2.4608   -1.3116    0.1256 H   0  0  0  0  0  0  0  0  0  0  0  0
    4.7928   -2.1072    0.2001 H   0  0  0  0  0  0  0  0  0  0  0  0
    7.1904   -1.6552   -0.0562 H   0  0  0  0  0  0  0  0  0  0  0  0
    7.9596    0.6026   -0.6667 H   0  0  0  0  0  0  0  0  0  0  0  0
    6.3203    2.4067   -1.0202 H   0  0  0  0  0  0  0  0  0  0  0  0
   -3.4347    2.0279    0.9357 H   0  0  0  0  0  0  0  0  0  0  0  0
   -5.4648    3.1548    0.0985 H   0  0  0  0  0  0  0  0  0  0  0  0
   -5.9902    3.0853   -2.3159 H   0  0  0  0  0  0  0  0  0  0  0  0
   -2.4632    0.8219   -3.0178 H   0  0  0  0  0  0  0  0  0  0  0  0
   -4.8151   -2.5285    0.4392 H   0  0  0  0  0  0  0  0  0  0  0  0
   -5.8559   -1.1952    1.0341 H   0  0  0  0  0  0  0  0  0  0  0  0
   -4.6271   -1.9332    2.1123 H   0  0  0  0  0  0  0  0  0  0  0  0
  1  2  1  0  0  0  0
  2  3  1  0  0  0  0
  3  4  2  0  0  0  0
  3  5  1  0  0  0  0
  5  6  1  0  0  0  0
  6  7  1  0  0  0  0
  7  8  2  0  0  0  0
  8  9  1  0  0  0  0
  9 10  2  0  0  0  0
 10 11  1  0  0  0  0
 11 12  2  0  0  0  0
 12 13  1  0  0  0  0
 13 14  2  0  0  0  0
 14 15  1  0  0  0  0
 15 16  1  0  0  0  0
 16 17  2  0  0  0  0
  6 18  2  0  0  0  0
 18 19  1  0  0  0  0
 19 20  1  0  0  0  0
 20 21  2  0  0  0  0
 21 22  1  0  0  0  0
 22 23  2  0  0  0  0
 23 24  1  0  0  0  0
 24 25  1  0  0  0  0
 24 26  2  0  0  0  0
 19 27  1  0  0  0  0
 27 28  1  0  0  0  0
 28 29  2  0  0  0  0
 28 30  1  0  0  0  0
 30 31  1  0  0  0  0
 27  5  2  0  0  0  0
 16  7  1  0  0  0  0
 26 20  1  0  0  0  0
 14  9  1  0  0  0  0
  1 32  1  0  0  0  0
  1 33  1  0  0  0  0
  1 34  1  0  0  0  0
  8 35  1  0  0  0  0
 10 36  1  0  0  0  0
 11 37  1  0  0  0  0
 12 38  1  0  0  0  0
 13 39  1  0  0  0  0
 21 40  1  0  0  0  0
 22 41  1  0  0  0  0
 23 42  1  0  0  0  0
 26 43  1  0  0  0  0
 31 44  1  0  0  0  0
 31 45  1  0  0  0  0
 31 46  1  0  0  0  0
M  END
