
  xtb     03012221303D
 energy: -8.862547179995 gnorm: 0.000234860314 xtb: 6.4.1 (afa7bdf)
 48 51  0     0  0            999 V2000
    1.1273    2.9054   -1.2055 O   0  0  0  0  0  1  0  0  0  0  0  0
    0.3624    1.9736   -0.8082 N   0  0  0  0  0  4  0  0  0  0  0  0
    0.9015    0.7576   -0.3653 C   0  0  0  0  0  0  0  0  0  0  0  0
    2.3132    0.6308   -0.4026 C   0  0  0  0  0  0  0  0  0  0  0  0
    2.9558   -0.4832    0.0056 C   0  0  0  0  0  0  0  0  0  0  0  0
    4.3858   -0.6840   -0.0015 C   0  0  0  0  0  0  0  0  0  0  0  0
    4.9159   -1.8891    0.4707 C   0  0  0  0  0  0  0  0  0  0  0  0
    6.2735   -2.1092    0.4778 C   0  0  0  0  0  0  0  0  0  0  0  0
    7.1366   -1.1362    0.0148 C   0  0  0  0  0  0  0  0  0  0  0  0
    6.6350    0.0607   -0.4565 C   0  0  0  0  0  0  0  0  0  0  0  0
    5.2782    0.2880   -0.4662 C   0  0  0  0  0  0  0  0  0  0  0  0
    0.1572   -0.2499    0.0807 N   0  0  0  0  0  0  0  0  0  0  0  0
   -1.1652   -0.0647    0.1052 C   0  0  0  0  0  0  0  0  0  0  0  0
   -1.9660   -1.1225    0.6380 N   0  0  0  0  0  0  0  0  0  0  0  0
   -2.6190   -1.0025    1.9517 C   0  0  0  0  0  0  0  0  0  0  0  0
   -3.8888   -1.8569    1.9781 C   0  0  0  0  0  0  0  0  0  0  0  0
   -4.0177   -2.6453    0.8000 O   0  0  0  0  0  0  0  0  0  0  0  0
   -2.8522   -3.4108    0.5239 C   0  0  0  0  0  0  0  0  0  0  0  0
   -1.6282   -2.5114    0.3188 C   0  0  0  0  0  0  0  0  0  0  0  0
   -1.7967    1.1095   -0.3703 C   0  0  0  0  0  0  0  0  0  0  0  0
   -1.0148    2.1398   -0.8161 C   0  0  0  0  0  0  0  0  0  0  0  0
   -1.5574    3.4332   -1.3288 C   0  0  0  0  0  0  0  0  0  0  0  0
   -3.0431    3.3601   -1.7186 C   0  0  0  0  0  0  0  0  0  0  0  0
   -3.8504    2.5841   -0.6698 C   0  0  0  0  0  0  0  0  0  0  0  0
   -3.2971    1.1608   -0.4855 C   0  0  0  0  0  0  0  0  0  0  0  0
    2.8633    1.4752   -0.7733 H   0  0  0  0  0  0  0  0  0  0  0  0
    2.3492   -1.2924    0.3711 H   0  0  0  0  0  0  0  0  0  0  0  0
    4.2453   -2.6493    0.8329 H   0  0  0  0  0  0  0  0  0  0  0  0
    6.6649   -3.0437    0.8463 H   0  0  0  0  0  0  0  0  0  0  0  0
    8.2003   -1.3106    0.0212 H   0  0  0  0  0  0  0  0  0  0  0  0
    7.3094    0.8199   -0.8184 H   0  0  0  0  0  0  0  0  0  0  0  0
    4.9017    1.2243   -0.8374 H   0  0  0  0  0  0  0  0  0  0  0  0
   -1.9024   -1.3390    2.7081 H   0  0  0  0  0  0  0  0  0  0  0  0
   -2.8192    0.0504    2.1728 H   0  0  0  0  0  0  0  0  0  0  0  0
   -4.7883   -1.2321    2.0370 H   0  0  0  0  0  0  0  0  0  0  0  0
   -3.9144   -2.5329    2.8407 H   0  0  0  0  0  0  0  0  0  0  0  0
   -2.7096   -4.1025    1.3623 H   0  0  0  0  0  0  0  0  0  0  0  0
   -3.0637   -4.0222   -0.3617 H   0  0  0  0  0  0  0  0  0  0  0  0
   -1.2829   -2.5402   -0.7200 H   0  0  0  0  0  0  0  0  0  0  0  0
   -0.7811   -2.8193    0.9403 H   0  0  0  0  0  0  0  0  0  0  0  0
   -0.9442    3.7495   -2.1818 H   0  0  0  0  0  0  0  0  0  0  0  0
   -1.4076    4.2007   -0.5609 H   0  0  0  0  0  0  0  0  0  0  0  0
   -3.1398    2.8623   -2.6917 H   0  0  0  0  0  0  0  0  0  0  0  0
   -3.4583    4.3680   -1.8606 H   0  0  0  0  0  0  0  0  0  0  0  0
   -4.9145    2.5560   -0.9419 H   0  0  0  0  0  0  0  0  0  0  0  0
   -3.8055    3.1168    0.2879 H   0  0  0  0  0  0  0  0  0  0  0  0
   -3.7511    0.6874    0.3912 H   0  0  0  0  0  0  0  0  0  0  0  0
   -3.5968    0.5352   -1.3346 H   0  0  0  0  0  0  0  0  0  0  0  0
  1  2  1  0  0  0  0
  2  3  2  0  0  0  0
  3  4  1  0  0  0  0
  4  5  2  0  0  0  0
  5  6  1  0  0  0  0
  6  7  2  0  0  0  0
  7  8  1  0  0  0  0
  8  9  2  0  0  0  0
  9 10  1  0  0  0  0
 10 11  2  0  0  0  0
  3 12  1  0  0  0  0
 12 13  2  0  0  0  0
 13 14  1  0  0  0  0
 14 15  1  0  0  0  0
 15 16  1  0  0  0  0
 16 17  1  0  0  0  0
 17 18  1  0  0  0  0
 18 19  1  0  0  0  0
 13 20  1  0  0  0  0
 20 21  2  0  0  0  0
 21 22  1  0  0  0  0
 22 23  1  0  0  0  0
 23 24  1  0  0  0  0
 24 25  1  0  0  0  0
 21  2  1  0  0  0  0
 11  6  1  0  0  0  0
 19 14  1  0  0  0  0
 25 20  1  0  0  0  0
  4 26  1  0  0  0  0
  5 27  1  0  0  0  0
  7 28  1  0  0  0  0
  8 29  1  0  0  0  0
  9 30  1  0  0  0  0
 10 31  1  0  0  0  0
 11 32  1  0  0  0  0
 15 33  1  0  0  0  0
 15 34  1  0  0  0  0
 16 35  1  0  0  0  0
 16 36  1  0  0  0  0
 18 37  1  0  0  0  0
 18 38  1  0  0  0  0
 19 39  1  0  0  0  0
 19 40  1  0  0  0  0
 22 41  1  0  0  0  0
 22 42  1  0  0  0  0
 23 43  1  0  0  0  0
 23 44  1  0  0  0  0
 24 45  1  0  0  0  0
 24 46  1  0  0  0  0
 25 47  1  0  0  0  0
 25 48  1  0  0  0  0
M  CHG  1   1  -1
M  CHG  1   2   1
M  END
