
  xtb     03012221273D
 energy: -9.430834606088 gnorm: 0.000270044928 xtb: 6.4.1 (afa7bdf)
 50 54  0     0  0            999 V2000
   -5.2063   -2.9503   -0.0747 C   0  0  0  0  0  0  0  0  0  0  0  0
   -3.7988   -2.5191   -0.1337 C   0  0  0  0  0  0  0  0  0  0  0  0
   -3.3718   -1.2495   -0.0766 N   0  0  0  0  0  4  0  0  0  0  0  0
   -1.9857   -1.1502   -0.1385 C   0  0  0  0  0  0  0  0  0  0  0  0
   -1.2791    0.0735   -0.0603 C   0  0  0  0  0  0  0  0  0  0  0  0
    0.1801    0.1366   -0.1294 C   0  0  0  0  0  0  0  0  0  0  0  0
    0.9084   -0.6954   -0.9974 C   0  0  0  0  0  0  0  0  0  0  0  0
    2.2706   -0.6407   -1.0614 C   0  0  0  0  0  0  0  0  0  0  0  0
    3.0095    0.2545   -0.2569 C   0  0  0  0  0  0  0  0  0  0  0  0
    4.3900    0.3081   -0.3156 N   0  0  0  0  0  0  0  0  0  0  0  0
    5.2453   -0.7356   -0.9108 C   0  0  0  0  0  0  0  0  0  0  0  0
    6.0703   -1.4146    0.1857 C   0  0  0  0  0  0  0  0  0  0  0  0
    6.8292   -0.4683    0.9283 O   0  0  0  0  0  0  0  0  0  0  0  0
    6.0173    0.5480    1.5017 C   0  0  0  0  0  0  0  0  0  0  0  0
    5.2207    1.2757    0.4197 C   0  0  0  0  0  0  0  0  0  0  0  0
    2.2739    1.0898    0.6125 C   0  0  0  0  0  0  0  0  0  0  0  0
    0.9117    1.0309    0.6713 C   0  0  0  0  0  0  0  0  0  0  0  0
   -2.0776    1.2317    0.0941 C   0  0  0  0  0  0  0  0  0  0  0  0
   -1.7385    2.6039    0.1348 C   0  0  0  0  0  0  0  0  0  0  0  0
   -2.9065    3.3319    0.2578 C   0  0  0  0  0  0  0  0  0  0  0  0
   -3.9934    2.4379    0.2844 C   0  0  0  0  0  0  0  0  0  0  0  0
   -5.4311    2.7450    0.3805 C   0  0  0  0  0  0  0  0  0  0  0  0
   -3.4659    1.2099    0.1776 N   0  0  0  0  0  0  0  0  0  0  0  0
   -4.3123   -0.0591    0.1009 B   0  0  0  0  0  4  0  0  0  0  0  0
   -5.1652    0.0210   -0.9972 F   0  0  0  0  0  0  0  0  0  0  0  0
   -5.0257   -0.2086    1.2878 F   0  0  0  0  0  0  0  0  0  0  0  0
   -1.5347   -2.4879   -0.2205 C   0  0  0  0  0  0  0  0  0  0  0  0
   -2.6414   -3.3152   -0.2237 C   0  0  0  0  0  0  0  0  0  0  0  0
   -5.8620   -2.0789   -0.0481 H   0  0  0  0  0  0  0  0  0  0  0  0
   -5.4690   -3.5475   -0.9477 H   0  0  0  0  0  0  0  0  0  0  0  0
   -5.3945   -3.5427    0.8205 H   0  0  0  0  0  0  0  0  0  0  0  0
    0.3679   -1.3544   -1.6541 H   0  0  0  0  0  0  0  0  0  0  0  0
    2.7817   -1.2665   -1.7678 H   0  0  0  0  0  0  0  0  0  0  0  0
    5.9083   -0.2589   -1.6404 H   0  0  0  0  0  0  0  0  0  0  0  0
    4.6517   -1.4678   -1.4642 H   0  0  0  0  0  0  0  0  0  0  0  0
    6.7715   -2.1515   -0.2253 H   0  0  0  0  0  0  0  0  0  0  0  0
    5.4190   -1.9423    0.8912 H   0  0  0  0  0  0  0  0  0  0  0  0
    6.6730    1.2270    2.0609 H   0  0  0  0  0  0  0  0  0  0  0  0
    5.3462    0.0695    2.2235 H   0  0  0  0  0  0  0  0  0  0  0  0
    4.6217    2.0955    0.8258 H   0  0  0  0  0  0  0  0  0  0  0  0
    5.9102    1.7350   -0.2970 H   0  0  0  0  0  0  0  0  0  0  0  0
    2.7922    1.7607    1.2706 H   0  0  0  0  0  0  0  0  0  0  0  0
    0.3796    1.6461    1.3755 H   0  0  0  0  0  0  0  0  0  0  0  0
   -0.7473    3.0134    0.0433 H   0  0  0  0  0  0  0  0  0  0  0  0
   -2.9839    4.4056    0.3084 H   0  0  0  0  0  0  0  0  0  0  0  0
   -5.7580    3.3480   -0.4665 H   0  0  0  0  0  0  0  0  0  0  0  0
   -6.0101    1.8206    0.3823 H   0  0  0  0  0  0  0  0  0  0  0  0
   -5.6538    3.2875    1.2992 H   0  0  0  0  0  0  0  0  0  0  0  0
   -0.5077   -2.8101   -0.2336 H   0  0  0  0  0  0  0  0  0  0  0  0
   -2.6297   -4.3919   -0.2681 H   0  0  0  0  0  0  0  0  0  0  0  0
  1  2  1  0  0  0  0
  2  3  2  0  0  0  0
  3  4  1  0  0  0  0
  4  5  2  0  0  0  0
  5  6  1  0  0  0  0
  6  7  2  0  0  0  0
  7  8  1  0  0  0  0
  8  9  2  0  0  0  0
  9 10  1  0  0  0  0
 10 11  1  0  0  0  0
 11 12  1  0  0  0  0
 12 13  1  0  0  0  0
 13 14  1  0  0  0  0
 14 15  1  0  0  0  0
  9 16  1  0  0  0  0
 16 17  2  0  0  0  0
  5 18  1  0  0  0  0
 18 19  2  0  0  0  0
 19 20  1  0  0  0  0
 20 21  2  0  0  0  0
 21 22  1  0  0  0  0
 21 23  1  0  0  0  0
 23 24  1  0  0  0  0
 24 25  1  0  0  0  0
 24 26  1  0  0  0  0
  4 27  1  0  0  0  0
 27 28  2  0  0  0  0
 28  2  1  0  0  0  0
 24  3  1  0  0  0  0
 17  6  1  0  0  0  0
 23 18  1  0  0  0  0
 15 10  1  0  0  0  0
  1 29  1  0  0  0  0
  1 30  1  0  0  0  0
  1 31  1  0  0  0  0
  7 32  1  0  0  0  0
  8 33  1  0  0  0  0
 11 34  1  0  0  0  0
 11 35  1  0  0  0  0
 12 36  1  0  0  0  0
 12 37  1  0  0  0  0
 14 38  1  0  0  0  0
 14 39  1  0  0  0  0
 15 40  1  0  0  0  0
 15 41  1  0  0  0  0
 16 42  1  0  0  0  0
 17 43  1  0  0  0  0
 19 44  1  0  0  0  0
 20 45  1  0  0  0  0
 22 46  1  0  0  0  0
 22 47  1  0  0  0  0
 22 48  1  0  0  0  0
 27 49  1  0  0  0  0
 28 50  1  0  0  0  0
M  CHG  1   3   1
M  CHG  1  24  -1
M  END
