
  xtb     03012221243D
 energy: -12.963251548704 gnorm: 0.000151471294 xtb: 6.4.1 (afa7bdf)
 61 68  0     0  0            999 V2000
    6.9299    2.1878    0.7271 C   0  0  0  0  0  0  0  0  0  0  0  0
    7.2684    0.7018    0.5068 C   0  0  0  0  0  0  0  0  0  0  0  0
    7.0426   -0.0818    1.8131 C   0  0  0  0  0  0  0  0  0  0  0  0
    8.7576    0.5938    0.1259 C   0  0  0  0  0  0  0  0  0  0  0  0
    6.3548    0.1298   -0.5886 C   0  0  0  0  0  0  0  0  0  0  0  0
    6.8671   -0.4357   -1.7719 C   0  0  0  0  0  0  0  0  0  0  0  0
    6.0537   -0.9607   -2.7431 C   0  0  0  0  0  0  0  0  0  0  0  0
    4.6699   -0.9395   -2.5624 C   0  0  0  0  0  0  0  0  0  0  0  0
    3.6474   -1.4051   -3.3707 O   0  0  0  0  0  0  0  0  0  0  0  0
    2.4504   -1.1445   -2.7228 C   0  0  0  0  0  0  0  0  0  0  0  0
    1.2251   -1.4446   -3.1609 N   0  0  0  0  0  0  0  0  0  0  0  0
    0.2385   -1.0843   -2.3381 C   0  0  0  0  0  0  0  0  0  0  0  0
   -1.1172   -1.2824   -2.5423 O   0  0  0  0  0  0  0  0  0  0  0  0
   -1.7833   -0.7598   -1.4488 C   0  0  0  0  0  0  0  0  0  0  0  0
   -3.1470   -0.7092   -1.1638 C   0  0  0  0  0  0  0  0  0  0  0  0
   -3.5795   -0.1242    0.0096 C   0  0  0  0  0  0  0  0  0  0  0  0
   -4.9829   -0.0832    0.3161 N   0  0  0  0  0  0  0  0  0  0  0  0
   -5.7351    1.0698    0.6190 C   0  0  0  0  0  0  0  0  0  0  0  0
   -5.3662    2.4129    0.6826 C   0  0  0  0  0  0  0  0  0  0  0  0
   -6.3240    3.3465    0.9923 C   0  0  0  0  0  0  0  0  0  0  0  0
   -7.6462    2.9657    1.2389 C   0  0  0  0  0  0  0  0  0  0  0  0
   -8.0283    1.6474    1.1759 C   0  0  0  0  0  0  0  0  0  0  0  0
   -7.0654    0.6876    0.8607 C   0  0  0  0  0  0  0  0  0  0  0  0
   -7.1363   -0.7464    0.7052 C   0  0  0  0  0  0  0  0  0  0  0  0
   -8.1874   -1.6555    0.8343 C   0  0  0  0  0  0  0  0  0  0  0  0
   -7.9316   -2.9897    0.6285 C   0  0  0  0  0  0  0  0  0  0  0  0
   -6.6488   -3.4361    0.2978 C   0  0  0  0  0  0  0  0  0  0  0  0
   -5.6059   -2.5531    0.1667 C   0  0  0  0  0  0  0  0  0  0  0  0
   -5.8482   -1.1948    0.3682 C   0  0  0  0  0  0  0  0  0  0  0  0
   -2.6472    0.4200    0.9118 C   0  0  0  0  0  0  0  0  0  0  0  0
   -1.3023    0.3787    0.6564 C   0  0  0  0  0  0  0  0  0  0  0  0
   -0.8651   -0.2153   -0.5284 C   0  0  0  0  0  0  0  0  0  0  0  0
    0.4337   -0.4250   -1.0905 C   0  0  0  0  0  0  0  0  0  0  0  0
    1.7007   -0.1170   -0.6371 C   0  0  0  0  0  0  0  0  0  0  0  0
    2.7237   -0.4952   -1.4845 C   0  0  0  0  0  0  0  0  0  0  0  0
    4.1473   -0.3719   -1.3876 C   0  0  0  0  0  0  0  0  0  0  0  0
    4.9865    0.1579   -0.4084 C   0  0  0  0  0  0  0  0  0  0  0  0
    7.5759    2.6260    1.4868 H   0  0  0  0  0  0  0  0  0  0  0  0
    5.8990    2.3154    1.0533 H   0  0  0  0  0  0  0  0  0  0  0  0
    7.0615    2.7527   -0.1949 H   0  0  0  0  0  0  0  0  0  0  0  0
    7.2585   -1.1396    1.6687 H   0  0  0  0  0  0  0  0  0  0  0  0
    6.0122    0.0054    2.1538 H   0  0  0  0  0  0  0  0  0  0  0  0
    7.6889    0.2897    2.6074 H   0  0  0  0  0  0  0  0  0  0  0  0
    9.3879    1.0058    0.9132 H   0  0  0  0  0  0  0  0  0  0  0  0
    8.9696    1.1466   -0.7884 H   0  0  0  0  0  0  0  0  0  0  0  0
    9.0510   -0.4450   -0.0198 H   0  0  0  0  0  0  0  0  0  0  0  0
    7.9307   -0.4619   -1.9257 H   0  0  0  0  0  0  0  0  0  0  0  0
    6.4556   -1.3924   -3.6421 H   0  0  0  0  0  0  0  0  0  0  0  0
   -3.8530   -1.1170   -1.8616 H   0  0  0  0  0  0  0  0  0  0  0  0
   -4.3481    2.6967    0.4819 H   0  0  0  0  0  0  0  0  0  0  0  0
   -6.0543    4.3881    1.0435 H   0  0  0  0  0  0  0  0  0  0  0  0
   -8.3781    3.7201    1.4792 H   0  0  0  0  0  0  0  0  0  0  0  0
   -9.0444    1.3479    1.3601 H   0  0  0  0  0  0  0  0  0  0  0  0
   -9.1709   -1.3056    1.0919 H   0  0  0  0  0  0  0  0  0  0  0  0
   -8.7323   -3.7054    0.7251 H   0  0  0  0  0  0  0  0  0  0  0  0
   -6.4769   -4.4884    0.1448 H   0  0  0  0  0  0  0  0  0  0  0  0
   -4.6138   -2.8874   -0.0812 H   0  0  0  0  0  0  0  0  0  0  0  0
   -3.0140    0.8616    1.8216 H   0  0  0  0  0  0  0  0  0  0  0  0
   -0.5869    0.7893    1.3463 H   0  0  0  0  0  0  0  0  0  0  0  0
    1.8771    0.3746    0.3011 H   0  0  0  0  0  0  0  0  0  0  0  0
    4.5557    0.5783    0.4807 H   0  0  0  0  0  0  0  0  0  0  0  0
  1  2  1  0  0  0  0
  2  3  1  0  0  0  0
  2  4  1  0  0  0  0
  2  5  1  0  0  0  0
  5  6  2  0  0  0  0
  6  7  1  0  0  0  0
  7  8  2  0  0  0  0
  8  9  1  0  0  0  0
  9 10  1  0  0  0  0
 10 11  2  0  0  0  0
 11 12  1  0  0  0  0
 12 13  1  0  0  0  0
 13 14  1  0  0  0  0
 14 15  2  0  0  0  0
 15 16  1  0  0  0  0
 16 17  1  0  0  0  0
 17 18  1  0  0  0  0
 18 19  2  0  0  0  0
 19 20  1  0  0  0  0
 20 21  2  0  0  0  0
 21 22  1  0  0  0  0
 22 23  2  0  0  0  0
 23 24  1  0  0  0  0
 24 25  2  0  0  0  0
 25 26  1  0  0  0  0
 26 27  2  0  0  0  0
 27 28  1  0  0  0  0
 28 29  2  0  0  0  0
 16 30  2  0  0  0  0
 30 31  1  0  0  0  0
 31 32  2  0  0  0  0
 32 33  1  0  0  0  0
 33 34  1  0  0  0  0
 34 35  2  0  0  0  0
 35 36  1  0  0  0  0
 36 37  2  0  0  0  0
 37  5  1  0  0  0  0
 36  8  1  0  0  0  0
 35 10  1  0  0  0  0
 33 12  2  0  0  0  0
 32 14  1  0  0  0  0
 29 17  1  0  0  0  0
 23 18  1  0  0  0  0
 29 24  1  0  0  0  0
  1 38  1  0  0  0  0
  1 39  1  0  0  0  0
  1 40  1  0  0  0  0
  3 41  1  0  0  0  0
  3 42  1  0  0  0  0
  3 43  1  0  0  0  0
  4 44  1  0  0  0  0
  4 45  1  0  0  0  0
  4 46  1  0  0  0  0
  6 47  1  0  0  0  0
  7 48  1  0  0  0  0
 15 49  1  0  0  0  0
 19 50  1  0  0  0  0
 20 51  1  0  0  0  0
 21 52  1  0  0  0  0
 22 53  1  0  0  0  0
 25 54  1  0  0  0  0
 26 55  1  0  0  0  0
 27 56  1  0  0  0  0
 28 57  1  0  0  0  0
 30 58  1  0  0  0  0
 31 59  1  0  0  0  0
 34 60  1  0  0  0  0
 37 61  1  0  0  0  0
M  END
