
  xtb     03012221223D
 energy: -12.089783909615 gnorm: 0.000476371771 xtb: 6.4.1 (afa7bdf)
 62 65  0     0  0            999 V2000
    2.5815   -3.2285   -0.3649 C   0  0  0  0  0  0  0  0  0  0  0  0
    1.8834   -2.5944   -1.5494 C   0  0  0  0  0  0  0  0  0  0  0  0
    0.9612   -1.5753   -1.1683 O   0  0  0  0  0  0  0  0  0  0  0  0
    1.5008   -0.3757   -0.7084 C   0  0  0  0  0  0  0  0  0  0  0  0
    2.8532   -0.0690   -0.8143 C   0  0  0  0  0  0  0  0  0  0  0  0
    3.3340    1.1471   -0.3432 C   0  0  0  0  0  0  0  0  0  0  0  0
    2.4559    2.0855    0.2362 C   0  0  0  0  0  0  0  0  0  0  0  0
    1.1019    1.8028    0.3471 C   0  0  0  0  0  0  0  0  0  0  0  0
    0.6028    0.5865   -0.1113 C   0  0  0  0  0  0  0  0  0  0  0  0
   -0.8073    0.3369    0.0336 C   0  0  0  0  0  0  0  0  0  0  0  0
   -1.4519   -0.7982   -0.3164 C   0  0  0  0  0  0  0  0  0  0  0  0
   -2.8497   -1.0485   -0.1650 C   0  0  0  0  0  0  0  0  0  0  0  0
   -3.3525   -2.2321   -0.6058 C   0  0  0  0  0  0  0  0  0  0  0  0
   -4.7288   -2.5913   -0.5377 C   0  0  0  0  0  0  0  0  0  0  0  0
   -5.1445   -3.8269   -0.9530 C   0  0  0  0  0  0  0  0  0  0  0  0
   -6.4874   -4.1867   -0.8861 C   0  0  0  0  0  0  0  0  0  0  0  0
   -7.6208   -4.4407   -0.8037 N   0  0  0  0  0  0  0  0  0  0  0  0
   -4.2176   -4.7454   -1.4386 C   0  0  0  0  0  0  0  0  0  0  0  0
   -3.3883   -5.4641   -1.8278 N   0  0  0  0  0  0  0  0  0  0  0  0
   -5.7102   -1.5886   -0.0059 C   0  0  0  0  0  0  0  0  0  0  0  0
   -5.0846   -0.6178    1.0400 C   0  0  0  0  0  0  0  0  0  0  0  0
   -4.7897   -1.3857    2.3372 C   0  0  0  0  0  0  0  0  0  0  0  0
   -6.0707    0.5227    1.3343 C   0  0  0  0  0  0  0  0  0  0  0  0
   -3.7565   -0.0284    0.4666 C   0  0  0  0  0  0  0  0  0  0  0  0
    3.2429    3.2436    0.5955 C   0  0  0  0  0  0  0  0  0  0  0  0
    2.9057    4.4679    1.1725 C   0  0  0  0  0  0  0  0  0  0  0  0
    3.8979    5.3979    1.3715 C   0  0  0  0  0  0  0  0  0  0  0  0
    5.2186    5.1307    1.0025 C   0  0  0  0  0  0  0  0  0  0  0  0
    5.5674    3.9313    0.4310 C   0  0  0  0  0  0  0  0  0  0  0  0
    4.5738    2.9744    0.2253 C   0  0  0  0  0  0  0  0  0  0  0  0
    4.6243    1.6854   -0.3331 N   0  0  0  0  0  0  0  0  0  0  0  0
    5.8063    1.0759   -0.9583 C   0  0  0  0  0  0  0  0  0  0  0  0
    5.8912    1.4072   -2.4315 C   0  0  0  0  0  0  0  0  0  0  0  0
    3.2664   -4.0225   -0.6686 H   0  0  0  0  0  0  0  0  0  0  0  0
    1.8526   -3.6592    0.3226 H   0  0  0  0  0  0  0  0  0  0  0  0
    3.1531   -2.4929    0.2009 H   0  0  0  0  0  0  0  0  0  0  0  0
    1.2935   -3.3436   -2.0926 H   0  0  0  0  0  0  0  0  0  0  0  0
    2.5826   -2.1808   -2.2842 H   0  0  0  0  0  0  0  0  0  0  0  0
    3.5435   -0.7530   -1.2664 H   0  0  0  0  0  0  0  0  0  0  0  0
    0.4434    2.5275    0.7879 H   0  0  0  0  0  0  0  0  0  0  0  0
   -1.3874    1.1364    0.4575 H   0  0  0  0  0  0  0  0  0  0  0  0
   -0.8742   -1.5884   -0.7562 H   0  0  0  0  0  0  0  0  0  0  0  0
   -2.6749   -2.9495   -1.0334 H   0  0  0  0  0  0  0  0  0  0  0  0
   -6.5621   -2.1073    0.4464 H   0  0  0  0  0  0  0  0  0  0  0  0
   -6.1183   -1.0121   -0.8426 H   0  0  0  0  0  0  0  0  0  0  0  0
   -4.0899   -2.2007    2.1541 H   0  0  0  0  0  0  0  0  0  0  0  0
   -4.3530   -0.7298    3.0900 H   0  0  0  0  0  0  0  0  0  0  0  0
   -5.7013   -1.8147    2.7525 H   0  0  0  0  0  0  0  0  0  0  0  0
   -5.6565    1.2163    2.0658 H   0  0  0  0  0  0  0  0  0  0  0  0
   -7.0076    0.1333    1.7321 H   0  0  0  0  0  0  0  0  0  0  0  0
   -6.2996    1.0856    0.4297 H   0  0  0  0  0  0  0  0  0  0  0  0
   -3.2286    0.4813    1.2780 H   0  0  0  0  0  0  0  0  0  0  0  0
   -3.9924    0.7425   -0.2736 H   0  0  0  0  0  0  0  0  0  0  0  0
    1.8856    4.6681    1.4489 H   0  0  0  0  0  0  0  0  0  0  0  0
    3.6542    6.3484    1.8164 H   0  0  0  0  0  0  0  0  0  0  0  0
    5.9757    5.8793    1.1687 H   0  0  0  0  0  0  0  0  0  0  0  0
    6.5820    3.7237    0.1426 H   0  0  0  0  0  0  0  0  0  0  0  0
    5.7594   -0.0053   -0.7967 H   0  0  0  0  0  0  0  0  0  0  0  0
    6.6951    1.4217   -0.4220 H   0  0  0  0  0  0  0  0  0  0  0  0
    6.7654    0.9572   -2.9061 H   0  0  0  0  0  0  0  0  0  0  0  0
    5.0052    1.0544   -2.9611 H   0  0  0  0  0  0  0  0  0  0  0  0
    5.9459    2.4858   -2.5846 H   0  0  0  0  0  0  0  0  0  0  0  0
  1  2  1  0  0  0  0
  2  3  1  0  0  0  0
  3  4  1  0  0  0  0
  4  5  2  0  0  0  0
  5  6  1  0  0  0  0
  6  7  2  0  0  0  0
  7  8  1  0  0  0  0
  8  9  2  0  0  0  0
  9 10  1  0  0  0  0
 10 11  2  0  0  0  0
 11 12  1  0  0  0  0
 12 13  2  0  0  0  0
 13 14  1  0  0  0  0
 14 15  2  0  0  0  0
 15 16  1  0  0  0  0
 16 17  3  0  0  0  0
 15 18  1  0  0  0  0
 18 19  3  0  0  0  0
 14 20  1  0  0  0  0
 20 21  1  0  0  0  0
 21 22  1  0  0  0  0
 21 23  1  0  0  0  0
 21 24  1  0  0  0  0
  7 25  1  0  0  0  0
 25 26  2  0  0  0  0
 26 27  1  0  0  0  0
 27 28  2  0  0  0  0
 28 29  1  0  0  0  0
 29 30  2  0  0  0  0
 30 31  1  0  0  0  0
 31 32  1  0  0  0  0
 32 33  1  0  0  0  0
  9  4  1  0  0  0  0
 24 12  1  0  0  0  0
 30 25  1  0  0  0  0
 31  6  1  0  0  0  0
  1 34  1  0  0  0  0
  1 35  1  0  0  0  0
  1 36  1  0  0  0  0
  2 37  1  0  0  0  0
  2 38  1  0  0  0  0
  5 39  1  0  0  0  0
  8 40  1  0  0  0  0
 10 41  1  0  0  0  0
 11 42  1  0  0  0  0
 13 43  1  0  0  0  0
 20 44  1  0  0  0  0
 20 45  1  0  0  0  0
 22 46  1  0  0  0  0
 22 47  1  0  0  0  0
 22 48  1  0  0  0  0
 23 49  1  0  0  0  0
 23 50  1  0  0  0  0
 23 51  1  0  0  0  0
 24 52  1  0  0  0  0
 24 53  1  0  0  0  0
 26 54  1  0  0  0  0
 27 55  1  0  0  0  0
 28 56  1  0  0  0  0
 29 57  1  0  0  0  0
 32 58  1  0  0  0  0
 32 59  1  0  0  0  0
 33 60  1  0  0  0  0
 33 61  1  0  0  0  0
 33 62  1  0  0  0  0
M  END
