
  xtb     03012221273D
 energy: -9.971754132761 gnorm: 0.000272537711 xtb: 6.4.1 (afa7bdf)
 51 54  0     0  0            999 V2000
    6.5237    1.2581    1.2268 C   0  0  0  0  0  0  0  0  0  0  0  0
    6.2072    1.3957   -0.1364 O   0  0  0  0  0  0  0  0  0  0  0  0
    4.8383    1.3131   -0.4335 C   0  0  0  0  0  0  0  0  0  0  0  0
    4.4613    1.4502   -1.7718 C   0  0  0  0  0  0  0  0  0  0  0  0
    3.1447    1.3755   -2.1525 C   0  0  0  0  0  0  0  0  0  0  0  0
    2.1476    1.1574   -1.2058 C   0  0  0  0  0  0  0  0  0  0  0  0
    0.7855    1.0463   -1.5963 N   0  0  0  0  0  0  0  0  0  0  0  0
   -0.0135    0.0471   -1.0287 C   0  0  0  0  0  0  0  0  0  0  0  0
   -1.0641    0.4549   -0.3171 N   0  0  0  0  0  0  0  0  0  0  0  0
   -1.7984   -0.4888    0.2664 C   0  0  0  0  0  0  0  0  0  0  0  0
   -2.9264   -0.1255    1.0433 C   0  0  0  0  0  0  0  0  0  0  0  0
   -3.3027    1.1586    1.2242 C   0  0  0  0  0  0  0  0  0  0  0  0
   -4.4361    1.6067    1.9972 C   0  0  0  0  0  0  0  0  0  0  0  0
   -4.7003    2.9761    2.1039 C   0  0  0  0  0  0  0  0  0  0  0  0
   -5.7729    3.4329    2.8335 C   0  0  0  0  0  0  0  0  0  0  0  0
   -6.6087    2.5399    3.4739 C   0  0  0  0  0  0  0  0  0  0  0  0
   -6.3657    1.1839    3.3810 C   0  0  0  0  0  0  0  0  0  0  0  0
   -5.2950    0.7183    2.6536 C   0  0  0  0  0  0  0  0  0  0  0  0
   -1.5155   -1.8582    0.1607 N   0  0  0  0  0  4  0  0  0  0  0  0
   -2.2472   -2.7086    0.7497 O   0  0  0  0  0  1  0  0  0  0  0  0
   -0.4275   -2.2682   -0.5976 C   0  0  0  0  0  0  0  0  0  0  0  0
    0.3371   -1.3099   -1.2043 C   0  0  0  0  0  0  0  0  0  0  0  0
    1.5282   -1.6736   -2.0463 C   0  0  0  0  0  0  0  0  0  0  0  0
    1.5447   -3.1463   -2.4842 C   0  0  0  0  0  0  0  0  0  0  0  0
    1.2064   -4.0726   -1.3081 C   0  0  0  0  0  0  0  0  0  0  0  0
   -0.1717   -3.7345   -0.7126 C   0  0  0  0  0  0  0  0  0  0  0  0
    2.5143    1.0279    0.1313 C   0  0  0  0  0  0  0  0  0  0  0  0
    3.8313    1.1026    0.5122 C   0  0  0  0  0  0  0  0  0  0  0  0
    6.0457    2.0527    1.8013 H   0  0  0  0  0  0  0  0  0  0  0  0
    7.6052    1.3412    1.3408 H   0  0  0  0  0  0  0  0  0  0  0  0
    6.2042    0.2790    1.5861 H   0  0  0  0  0  0  0  0  0  0  0  0
    5.2345    1.6152   -2.5013 H   0  0  0  0  0  0  0  0  0  0  0  0
    2.8655    1.4780   -3.1861 H   0  0  0  0  0  0  0  0  0  0  0  0
    0.2874    1.9368   -1.6642 H   0  0  0  0  0  0  0  0  0  0  0  0
   -3.4822   -0.9270    1.4916 H   0  0  0  0  0  0  0  0  0  0  0  0
   -2.7041    1.9150    0.7497 H   0  0  0  0  0  0  0  0  0  0  0  0
   -4.0509    3.6746    1.6057 H   0  0  0  0  0  0  0  0  0  0  0  0
   -5.9623    4.4921    2.9053 H   0  0  0  0  0  0  0  0  0  0  0  0
   -7.4491    2.9002    4.0443 H   0  0  0  0  0  0  0  0  0  0  0  0
   -7.0190    0.4868    3.8811 H   0  0  0  0  0  0  0  0  0  0  0  0
   -5.1188   -0.3398    2.5891 H   0  0  0  0  0  0  0  0  0  0  0  0
    1.5544   -1.0120   -2.9223 H   0  0  0  0  0  0  0  0  0  0  0  0
    2.4393   -1.4490   -1.4780 H   0  0  0  0  0  0  0  0  0  0  0  0
    2.5166   -3.4121   -2.9213 H   0  0  0  0  0  0  0  0  0  0  0  0
    0.8104   -3.2950   -3.2847 H   0  0  0  0  0  0  0  0  0  0  0  0
    1.2481   -5.1257   -1.6191 H   0  0  0  0  0  0  0  0  0  0  0  0
    1.9741   -3.9654   -0.5316 H   0  0  0  0  0  0  0  0  0  0  0  0
   -0.9647   -4.1755   -1.3266 H   0  0  0  0  0  0  0  0  0  0  0  0
   -0.2886   -4.1827    0.2814 H   0  0  0  0  0  0  0  0  0  0  0  0
    1.7413    0.8583    0.8596 H   0  0  0  0  0  0  0  0  0  0  0  0
    4.0882    0.9947    1.5502 H   0  0  0  0  0  0  0  0  0  0  0  0
  1  2  1  0  0  0  0
  2  3  1  0  0  0  0
  3  4  2  0  0  0  0
  4  5  1  0  0  0  0
  5  6  2  0  0  0  0
  6  7  1  0  0  0  0
  7  8  1  0  0  0  0
  8  9  2  0  0  0  0
  9 10  1  0  0  0  0
 10 11  1  0  0  0  0
 11 12  2  0  0  0  0
 12 13  1  0  0  0  0
 13 14  2  0  0  0  0
 14 15  1  0  0  0  0
 15 16  2  0  0  0  0
 16 17  1  0  0  0  0
 17 18  2  0  0  0  0
 10 19  2  0  0  0  0
 19 20  1  0  0  0  0
 19 21  1  0  0  0  0
 21 22  2  0  0  0  0
 22 23  1  0  0  0  0
 23 24  1  0  0  0  0
 24 25  1  0  0  0  0
 25 26  1  0  0  0  0
  6 27  1  0  0  0  0
 27 28  2  0  0  0  0
 28  3  1  0  0  0  0
 22  8  1  0  0  0  0
 18 13  1  0  0  0  0
 26 21  1  0  0  0  0
  1 29  1  0  0  0  0
  1 30  1  0  0  0  0
  1 31  1  0  0  0  0
  4 32  1  0  0  0  0
  5 33  1  0  0  0  0
  7 34  1  0  0  0  0
 11 35  1  0  0  0  0
 12 36  1  0  0  0  0
 14 37  1  0  0  0  0
 15 38  1  0  0  0  0
 16 39  1  0  0  0  0
 17 40  1  0  0  0  0
 18 41  1  0  0  0  0
 23 42  1  0  0  0  0
 23 43  1  0  0  0  0
 24 44  1  0  0  0  0
 24 45  1  0  0  0  0
 25 46  1  0  0  0  0
 25 47  1  0  0  0  0
 26 48  1  0  0  0  0
 26 49  1  0  0  0  0
 27 50  1  0  0  0  0
 28 51  1  0  0  0  0
M  CHG  1  19   1
M  CHG  1  20  -1
M  END
