
  xtb     03012221223D
 energy: -16.670670007001 gnorm: 0.000141845510 xtb: 6.4.1 (afa7bdf)
 84 91  0     0  0            999 V2000
    9.1902    1.0399   -0.8843 C   0  0  0  0  0  0  0  0  0  0  0  0
    8.6978   -0.0217    0.0775 C   0  0  0  0  0  0  0  0  0  0  0  0
    7.3466   -0.5025   -0.2707 N   0  0  0  0  0  0  0  0  0  0  0  0
    7.3089   -1.7557   -1.0501 C   0  0  0  0  0  0  0  0  0  0  0  0
    7.0567   -2.9652   -0.1736 C   0  0  0  0  0  0  0  0  0  0  0  0
    6.1796    0.1787    0.1165 C   0  0  0  0  0  0  0  0  0  0  0  0
    6.2500    1.3928    0.8455 C   0  0  0  0  0  0  0  0  0  0  0  0
    5.1288    2.0554    1.2291 C   0  0  0  0  0  0  0  0  0  0  0  0
    3.8449    1.5542    0.9093 C   0  0  0  0  0  0  0  0  0  0  0  0
    2.6621    2.2085    1.2873 C   0  0  0  0  0  0  0  0  0  0  0  0
    1.4272    1.7068    0.9589 C   0  0  0  0  0  0  0  0  0  0  0  0
    1.3257    0.5008    0.2191 C   0  0  0  0  0  0  0  0  0  0  0  0
    2.4691   -0.1486   -0.1508 C   0  0  0  0  0  0  0  0  0  0  0  0
    3.7518    0.3479    0.1776 C   0  0  0  0  0  0  0  0  0  0  0  0
    4.9277   -0.3165   -0.2024 C   0  0  0  0  0  0  0  0  0  0  0  0
   -0.0254   -0.0966   -0.1940 C   0  0  0  0  0  0  0  0  0  0  0  0
   -0.0716   -0.1320   -1.7189 C   0  0  0  0  0  0  0  0  0  0  0  0
    0.0149    1.0519   -2.4278 C   0  0  0  0  0  0  0  0  0  0  0  0
   -0.0232    1.0664   -3.8060 C   0  0  0  0  0  0  0  0  0  0  0  0
   -0.1502   -0.1197   -4.4976 C   0  0  0  0  0  0  0  0  0  0  0  0
   -0.2380   -1.3077   -3.8123 C   0  0  0  0  0  0  0  0  0  0  0  0
   -0.2005   -1.3390   -2.4184 C   0  0  0  0  0  0  0  0  0  0  0  0
   -0.2935   -2.5791   -1.7893 O   0  0  0  0  0  0  0  0  0  0  0  0
   -0.2516   -2.6320   -0.3973 C   0  0  0  0  0  0  0  0  0  0  0  0
   -0.3401   -3.8833    0.2124 C   0  0  0  0  0  0  0  0  0  0  0  0
   -0.3044   -4.0098    1.5804 C   0  0  0  0  0  0  0  0  0  0  0  0
   -0.1798   -2.8880    2.3723 C   0  0  0  0  0  0  0  0  0  0  0  0
   -0.0917   -1.6438    1.7846 C   0  0  0  0  0  0  0  0  0  0  0  0
   -0.1253   -1.4942    0.4105 C   0  0  0  0  0  0  0  0  0  0  0  0
   -1.2328    0.7150    0.2922 C   0  0  0  0  0  0  0  0  0  0  0  0
   -2.4875    0.2681   -0.0113 C   0  0  0  0  0  0  0  0  0  0  0  0
   -3.6491    0.9658    0.3933 C   0  0  0  0  0  0  0  0  0  0  0  0
   -4.9392    0.5111    0.0801 C   0  0  0  0  0  0  0  0  0  0  0  0
   -6.0715    1.1990    0.4793 C   0  0  0  0  0  0  0  0  0  0  0  0
   -7.3569    0.7267    0.1598 N   0  0  0  0  0  0  0  0  0  0  0  0
   -8.5810    1.3813    0.6656 C   0  0  0  0  0  0  0  0  0  0  0  0
   -8.8345    1.0874    2.1303 C   0  0  0  0  0  0  0  0  0  0  0  0
   -7.5648   -0.5110   -0.6202 C   0  0  0  0  0  0  0  0  0  0  0  0
   -7.4219   -1.7610    0.2239 C   0  0  0  0  0  0  0  0  0  0  0  0
   -5.8964    2.3958    1.2195 C   0  0  0  0  0  0  0  0  0  0  0  0
   -4.6606    2.8594    1.5369 C   0  0  0  0  0  0  0  0  0  0  0  0
   -3.4983    2.1600    1.1350 C   0  0  0  0  0  0  0  0  0  0  0  0
   -2.2036    2.6076    1.4402 C   0  0  0  0  0  0  0  0  0  0  0  0
   -1.0899    1.9144    1.0359 C   0  0  0  0  0  0  0  0  0  0  0  0
    0.2329    2.4449    1.3875 C   0  0  0  0  0  0  0  0  0  0  0  0
    0.3375    3.4781    2.0230 O   0  0  0  0  0  0  0  0  0  0  0  0
    8.5170    1.8980   -0.9026 H   0  0  0  0  0  0  0  0  0  0  0  0
    9.2357    0.6516   -1.9029 H   0  0  0  0  0  0  0  0  0  0  0  0
   10.1860    1.4036   -0.6223 H   0  0  0  0  0  0  0  0  0  0  0  0
    8.6857    0.3429    1.1091 H   0  0  0  0  0  0  0  0  0  0  0  0
    9.3780   -0.8799    0.0883 H   0  0  0  0  0  0  0  0  0  0  0  0
    8.2578   -1.8579   -1.5872 H   0  0  0  0  0  0  0  0  0  0  0  0
    6.5498   -1.6594   -1.8325 H   0  0  0  0  0  0  0  0  0  0  0  0
    7.0195   -3.8917   -0.7503 H   0  0  0  0  0  0  0  0  0  0  0  0
    6.1132   -2.8719    0.3659 H   0  0  0  0  0  0  0  0  0  0  0  0
    7.8411   -3.0723    0.5772 H   0  0  0  0  0  0  0  0  0  0  0  0
    7.2118    1.8007    1.0951 H   0  0  0  0  0  0  0  0  0  0  0  0
    5.2020    2.9767    1.7825 H   0  0  0  0  0  0  0  0  0  0  0  0
    2.7131    3.1247    1.8461 H   0  0  0  0  0  0  0  0  0  0  0  0
    2.3918   -1.0623   -0.7127 H   0  0  0  0  0  0  0  0  0  0  0  0
    4.8362   -1.2338   -0.7509 H   0  0  0  0  0  0  0  0  0  0  0  0
    0.1138    1.9752   -1.8816 H   0  0  0  0  0  0  0  0  0  0  0  0
    0.0461    1.9998   -4.3389 H   0  0  0  0  0  0  0  0  0  0  0  0
   -0.1806   -0.1151   -5.5756 H   0  0  0  0  0  0  0  0  0  0  0  0
   -0.3372   -2.2397   -4.3388 H   0  0  0  0  0  0  0  0  0  0  0  0
   -0.4369   -4.7493   -0.4172 H   0  0  0  0  0  0  0  0  0  0  0  0
   -0.3738   -4.9857    2.0339 H   0  0  0  0  0  0  0  0  0  0  0  0
   -0.1513   -2.9824    3.4449 H   0  0  0  0  0  0  0  0  0  0  0  0
    0.0056   -0.7635    2.3979 H   0  0  0  0  0  0  0  0  0  0  0  0
   -2.5952   -0.6398   -0.5775 H   0  0  0  0  0  0  0  0  0  0  0  0
   -5.0324   -0.3979   -0.4819 H   0  0  0  0  0  0  0  0  0  0  0  0
   -9.4314    1.0560    0.0577 H   0  0  0  0  0  0  0  0  0  0  0  0
   -8.4974    2.4569    0.4814 H   0  0  0  0  0  0  0  0  0  0  0  0
   -7.9886    1.3915    2.7478 H   0  0  0  0  0  0  0  0  0  0  0  0
   -8.9795    0.0194    2.2971 H   0  0  0  0  0  0  0  0  0  0  0  0
   -9.7212    1.6029    2.5054 H   0  0  0  0  0  0  0  0  0  0  0  0
   -8.5551   -0.4718   -1.0853 H   0  0  0  0  0  0  0  0  0  0  0  0
   -6.8612   -0.5120   -1.4585 H   0  0  0  0  0  0  0  0  0  0  0  0
   -7.5294   -2.6717   -0.3692 H   0  0  0  0  0  0  0  0  0  0  0  0
   -6.4486   -1.7979    0.7147 H   0  0  0  0  0  0  0  0  0  0  0  0
   -8.1755   -1.7910    1.0117 H   0  0  0  0  0  0  0  0  0  0  0  0
   -6.7609    2.9511    1.5325 H   0  0  0  0  0  0  0  0  0  0  0  0
   -4.5477    3.7712    2.0993 H   0  0  0  0  0  0  0  0  0  0  0  0
   -2.0697    3.5140    2.0013 H   0  0  0  0  0  0  0  0  0  0  0  0
  1  2  1  0  0  0  0
  2  3  1  0  0  0  0
  3  4  1  0  0  0  0
  4  5  1  0  0  0  0
  3  6  1  0  0  0  0
  6  7  2  0  0  0  0
  7  8  1  0  0  0  0
  8  9  2  0  0  0  0
  9 10  1  0  0  0  0
 10 11  2  0  0  0  0
 11 12  1  0  0  0  0
 12 13  2  0  0  0  0
 13 14  1  0  0  0  0
 14 15  2  0  0  0  0
 12 16  1  0  0  0  0
 16 17  1  0  0  0  0
 17 18  2  0  0  0  0
 18 19  1  0  0  0  0
 19 20  2  0  0  0  0
 20 21  1  0  0  0  0
 21 22  2  0  0  0  0
 22 23  1  0  0  0  0
 23 24  1  0  0  0  0
 24 25  2  0  0  0  0
 25 26  1  0  0  0  0
 26 27  2  0  0  0  0
 27 28  1  0  0  0  0
 28 29  2  0  0  0  0
 16 30  1  0  0  0  0
 30 31  2  0  0  0  0
 31 32  1  0  0  0  0
 32 33  2  0  0  0  0
 33 34  1  0  0  0  0
 34 35  1  0  0  0  0
 35 36  1  0  0  0  0
 36 37  1  0  0  0  0
 35 38  1  0  0  0  0
 38 39  1  0  0  0  0
 34 40  2  0  0  0  0
 40 41  1  0  0  0  0
 41 42  2  0  0  0  0
 42 43  1  0  0  0  0
 43 44  2  0  0  0  0
 44 45  1  0  0  0  0
 45 46  2  0  0  0  0
 15  6  1  0  0  0  0
 29 16  1  0  0  0  0
 44 30  1  0  0  0  0
 14  9  1  0  0  0  0
 22 17  1  0  0  0  0
 29 24  1  0  0  0  0
 42 32  1  0  0  0  0
 45 11  1  0  0  0  0
  1 47  1  0  0  0  0
  1 48  1  0  0  0  0
  1 49  1  0  0  0  0
  2 50  1  0  0  0  0
  2 51  1  0  0  0  0
  4 52  1  0  0  0  0
  4 53  1  0  0  0  0
  5 54  1  0  0  0  0
  5 55  1  0  0  0  0
  5 56  1  0  0  0  0
  7 57  1  0  0  0  0
  8 58  1  0  0  0  0
 10 59  1  0  0  0  0
 13 60  1  0  0  0  0
 15 61  1  0  0  0  0
 18 62  1  0  0  0  0
 19 63  1  0  0  0  0
 20 64  1  0  0  0  0
 21 65  1  0  0  0  0
 25 66  1  0  0  0  0
 26 67  1  0  0  0  0
 27 68  1  0  0  0  0
 28 69  1  0  0  0  0
 31 70  1  0  0  0  0
 33 71  1  0  0  0  0
 36 72  1  0  0  0  0
 36 73  1  0  0  0  0
 37 74  1  0  0  0  0
 37 75  1  0  0  0  0
 37 76  1  0  0  0  0
 38 77  1  0  0  0  0
 38 78  1  0  0  0  0
 39 79  1  0  0  0  0
 39 80  1  0  0  0  0
 39 81  1  0  0  0  0
 40 82  1  0  0  0  0
 41 83  1  0  0  0  0
 43 84  1  0  0  0  0
M  END
