
  xtb     03012221283D
 energy: -10.071349253944 gnorm: 0.000354402223 xtb: 6.4.1 (afa7bdf)
 48 52  0     0  0            999 V2000
   -6.3545   -1.3291   -0.2655 C   0  0  0  0  0  0  0  0  0  0  0  0
   -5.3147   -0.3040   -0.2916 N   0  0  0  0  0  0  0  0  0  0  0  0
   -5.7558    1.0845   -0.3954 C   0  0  0  0  0  0  0  0  0  0  0  0
   -3.9475   -0.6404   -0.2382 C   0  0  0  0  0  0  0  0  0  0  0  0
   -3.5336   -1.9958   -0.2199 C   0  0  0  0  0  0  0  0  0  0  0  0
   -2.2197   -2.3359   -0.1686 C   0  0  0  0  0  0  0  0  0  0  0  0
   -1.1999   -1.3562   -0.1323 C   0  0  0  0  0  0  0  0  0  0  0  0
    0.0863   -1.7611   -0.0686 N   0  0  0  0  0  0  0  0  0  0  0  0
    0.9755   -0.7800   -0.0403 C   0  0  0  0  0  0  0  0  0  0  0  0
    0.6928    0.5921   -0.0796 C   0  0  0  0  0  0  0  0  0  0  0  0
   -0.6220    1.0106   -0.1217 C   0  0  0  0  0  0  0  0  0  0  0  0
   -1.6015    0.0172   -0.1541 C   0  0  0  0  0  0  0  0  0  0  0  0
   -2.9759    0.3357   -0.2042 C   0  0  0  0  0  0  0  0  0  0  0  0
    1.9709    1.2608   -0.0127 C   0  0  0  0  0  0  0  0  0  0  0  0
    2.2193    2.7010   -0.0506 C   0  0  0  0  0  0  0  0  0  0  0  0
    1.3341    3.5973   -0.6505 C   0  0  0  0  0  0  0  0  0  0  0  0
    1.6092    4.9460   -0.6770 C   0  0  0  0  0  0  0  0  0  0  0  0
    2.7738    5.4277   -0.1124 C   0  0  0  0  0  0  0  0  0  0  0  0
    3.6695    4.5542    0.4716 C   0  0  0  0  0  0  0  0  0  0  0  0
    3.3978    3.2051    0.4976 C   0  0  0  0  0  0  0  0  0  0  0  0
    2.9425    0.3707    0.0963 N   0  0  0  0  0  0  0  0  0  0  0  0
    2.3796   -0.8443    0.0720 N   0  0  0  0  0  0  0  0  0  0  0  0
    3.1436   -2.0512    0.1718 C   0  0  0  0  0  0  0  0  0  0  0  0
    4.5225   -1.9794    0.2948 C   0  0  0  0  0  0  0  0  0  0  0  0
    5.2766   -3.1286    0.3913 C   0  0  0  0  0  0  0  0  0  0  0  0
    4.6597   -4.3642    0.3655 C   0  0  0  0  0  0  0  0  0  0  0  0
    3.2866   -4.4470    0.2434 C   0  0  0  0  0  0  0  0  0  0  0  0
    2.5354   -3.2976    0.1478 C   0  0  0  0  0  0  0  0  0  0  0  0
   -6.2346   -1.9610    0.6131 H   0  0  0  0  0  0  0  0  0  0  0  0
   -6.2925   -1.9463   -1.1604 H   0  0  0  0  0  0  0  0  0  0  0  0
   -7.3467   -0.8831   -0.2260 H   0  0  0  0  0  0  0  0  0  0  0  0
   -5.2921    1.5604   -1.2580 H   0  0  0  0  0  0  0  0  0  0  0  0
   -5.4808    1.6318    0.5049 H   0  0  0  0  0  0  0  0  0  0  0  0
   -6.8358    1.1467   -0.5166 H   0  0  0  0  0  0  0  0  0  0  0  0
   -4.2799   -2.7692   -0.2513 H   0  0  0  0  0  0  0  0  0  0  0  0
   -1.9237   -3.3700   -0.1539 H   0  0  0  0  0  0  0  0  0  0  0  0
   -0.8897    2.0495   -0.0962 H   0  0  0  0  0  0  0  0  0  0  0  0
   -3.2603    1.3707   -0.2122 H   0  0  0  0  0  0  0  0  0  0  0  0
    0.4494    3.2226   -1.1325 H   0  0  0  0  0  0  0  0  0  0  0  0
    0.9178    5.6267   -1.1456 H   0  0  0  0  0  0  0  0  0  0  0  0
    2.9868    6.4841   -0.1342 H   0  0  0  0  0  0  0  0  0  0  0  0
    4.5824    4.9281    0.9051 H   0  0  0  0  0  0  0  0  0  0  0  0
    4.0933    2.5159    0.9447 H   0  0  0  0  0  0  0  0  0  0  0  0
    4.9877   -1.0100    0.3128 H   0  0  0  0  0  0  0  0  0  0  0  0
    6.3480   -3.0626    0.4869 H   0  0  0  0  0  0  0  0  0  0  0  0
    5.2496   -5.2630    0.4409 H   0  0  0  0  0  0  0  0  0  0  0  0
    2.8034   -5.4101    0.2236 H   0  0  0  0  0  0  0  0  0  0  0  0
    1.4673   -3.3489    0.0547 H   0  0  0  0  0  0  0  0  0  0  0  0
  1  2  1  0  0  0  0
  2  3  1  0  0  0  0
  2  4  1  0  0  0  0
  4  5  2  0  0  0  0
  5  6  1  0  0  0  0
  6  7  2  0  0  0  0
  7  8  1  0  0  0  0
  8  9  2  0  0  0  0
  9 10  1  0  0  0  0
 10 11  2  0  0  0  0
 11 12  1  0  0  0  0
 12 13  2  0  0  0  0
 10 14  1  0  0  0  0
 14 15  1  0  0  0  0
 15 16  2  0  0  0  0
 16 17  1  0  0  0  0
 17 18  2  0  0  0  0
 18 19  1  0  0  0  0
 19 20  2  0  0  0  0
 14 21  2  0  0  0  0
 21 22  1  0  0  0  0
 22 23  1  0  0  0  0
 23 24  2  0  0  0  0
 24 25  1  0  0  0  0
 25 26  2  0  0  0  0
 26 27  1  0  0  0  0
 27 28  2  0  0  0  0
 13  4  1  0  0  0  0
 20 15  1  0  0  0  0
 28 23  1  0  0  0  0
 12  7  1  0  0  0  0
 22  9  1  0  0  0  0
  1 29  1  0  0  0  0
  1 30  1  0  0  0  0
  1 31  1  0  0  0  0
  3 32  1  0  0  0  0
  3 33  1  0  0  0  0
  3 34  1  0  0  0  0
  5 35  1  0  0  0  0
  6 36  1  0  0  0  0
 11 37  1  0  0  0  0
 13 38  1  0  0  0  0
 16 39  1  0  0  0  0
 17 40  1  0  0  0  0
 18 41  1  0  0  0  0
 19 42  1  0  0  0  0
 20 43  1  0  0  0  0
 24 44  1  0  0  0  0
 25 45  1  0  0  0  0
 26 46  1  0  0  0  0
 27 47  1  0  0  0  0
 28 48  1  0  0  0  0
M  END
