
  xtb     03012221313D
 energy: -7.324595877116 gnorm: 0.000499794174 xtb: 6.4.1 (afa7bdf)
 34 36  0     0  0            999 V2000
   -5.5494    1.4339   -1.2110 C   0  0  0  0  0  0  0  0  0  0  0  0
   -4.2958    1.6910   -1.7910 O   0  0  0  0  0  0  0  0  0  0  0  0
   -3.2095    1.1292   -1.1194 C   0  0  0  0  0  0  0  0  0  0  0  0
   -3.2992    0.3667    0.0580 C   0  0  0  0  0  0  0  0  0  0  0  0
   -2.1817   -0.1478    0.6477 C   0  0  0  0  0  0  0  0  0  0  0  0
   -0.9002    0.0594    0.1079 C   0  0  0  0  0  0  0  0  0  0  0  0
   -0.7932    0.8265   -1.0741 C   0  0  0  0  0  0  0  0  0  0  0  0
   -1.9530    1.3422   -1.6584 C   0  0  0  0  0  0  0  0  0  0  0  0
    0.4952    1.0740   -1.6691 C   0  0  0  0  0  0  0  0  0  0  0  0
    0.5559    1.8400   -2.8362 C   0  0  0  0  0  0  0  0  0  0  0  0
    0.5493    2.4832   -3.8044 N   0  0  0  0  0  0  0  0  0  0  0  0
    1.6336    0.5631   -1.0931 C   0  0  0  0  0  0  0  0  0  0  0  0
    2.8962    0.7875   -1.6492 C   0  0  0  0  0  0  0  0  0  0  0  0
    3.9741    0.9352   -2.0585 N   0  0  0  0  0  0  0  0  0  0  0  0
    1.5496   -0.2257    0.1092 C   0  0  0  0  0  0  0  0  0  0  0  0
    2.7101   -0.7474    0.6881 C   0  0  0  0  0  0  0  0  0  0  0  0
    2.6738   -1.5137    1.8393 C   0  0  0  0  0  0  0  0  0  0  0  0
    3.7962   -2.0625    2.4605 O   0  0  0  0  0  0  0  0  0  0  0  0
    5.0206   -1.7778    1.8308 C   0  0  0  0  0  0  0  0  0  0  0  0
    1.4203   -1.7581    2.4254 C   0  0  0  0  0  0  0  0  0  0  0  0
    0.2736   -1.2597    1.8814 C   0  0  0  0  0  0  0  0  0  0  0  0
    0.2969   -0.4807    0.7114 C   0  0  0  0  0  0  0  0  0  0  0  0
   -5.7330    0.3588   -1.1874 H   0  0  0  0  0  0  0  0  0  0  0  0
   -5.5861    1.8563   -0.2060 H   0  0  0  0  0  0  0  0  0  0  0  0
   -6.3135    1.9115   -1.8260 H   0  0  0  0  0  0  0  0  0  0  0  0
   -4.2619    0.1871    0.5002 H   0  0  0  0  0  0  0  0  0  0  0  0
   -2.2905   -0.7245    1.5473 H   0  0  0  0  0  0  0  0  0  0  0  0
   -1.8834    1.9262   -2.5581 H   0  0  0  0  0  0  0  0  0  0  0  0
    3.6514   -0.5415    0.2154 H   0  0  0  0  0  0  0  0  0  0  0  0
    5.8178   -2.2563    2.4016 H   0  0  0  0  0  0  0  0  0  0  0  0
    5.0186   -2.1809    0.8168 H   0  0  0  0  0  0  0  0  0  0  0  0
    5.1895   -0.6998    1.8191 H   0  0  0  0  0  0  0  0  0  0  0  0
    1.3915   -2.3539    3.3206 H   0  0  0  0  0  0  0  0  0  0  0  0
   -0.6635   -1.4718    2.3615 H   0  0  0  0  0  0  0  0  0  0  0  0
  1  2  1  0  0  0  0
  2  3  1  0  0  0  0
  3  4  2  0  0  0  0
  4  5  1  0  0  0  0
  5  6  2  0  0  0  0
  6  7  1  0  0  0  0
  7  8  2  0  0  0  0
  7  9  1  0  0  0  0
  9 10  1  0  0  0  0
 10 11  3  0  0  0  0
  9 12  2  0  0  0  0
 12 13  1  0  0  0  0
 13 14  3  0  0  0  0
 12 15  1  0  0  0  0
 15 16  2  0  0  0  0
 16 17  1  0  0  0  0
 17 18  1  0  0  0  0
 18 19  1  0  0  0  0
 17 20  2  0  0  0  0
 20 21  1  0  0  0  0
 21 22  2  0  0  0  0
  8  3  1  0  0  0  0
 22 15  1  0  0  0  0
 22  6  1  0  0  0  0
  1 23  1  0  0  0  0
  1 24  1  0  0  0  0
  1 25  1  0  0  0  0
  4 26  1  0  0  0  0
  5 27  1  0  0  0  0
  8 28  1  0  0  0  0
 16 29  1  0  0  0  0
 19 30  1  0  0  0  0
 19 31  1  0  0  0  0
 19 32  1  0  0  0  0
 20 33  1  0  0  0  0
 21 34  1  0  0  0  0
M  END
