
  xtb     03012221253D
 energy: -5.335399571640 gnorm: 0.000149313497 xtb: 6.4.1 (afa7bdf)
 26 28  0     0  0            999 V2000
    7.8901    1.3121   -0.1954 O   0  0  0  0  0  0  0  0  0  0  0  0
    7.0135    0.4893   -0.1677 C   0  0  0  0  0  0  0  0  0  0  0  0
    5.6090    0.7850   -0.0516 C   0  0  0  0  0  0  0  0  0  0  0  0
    5.0785    2.0390    0.0454 C   0  0  0  0  0  0  0  0  0  0  0  0
    3.7325    2.1161    0.1430 N   0  0  0  0  0  0  0  0  0  0  0  0
    3.1694    0.9304    0.1250 C   0  0  0  0  0  0  0  0  0  0  0  0
    1.8324    0.7102    0.2015 N   0  0  0  0  0  0  0  0  0  0  0  0
    1.3852   -0.4513    0.1910 N   0  0  0  0  0  0  0  0  0  0  0  0
    0.0420   -0.6634    0.2465 C   0  0  0  0  0  0  0  0  0  0  0  0
   -0.5700   -1.8856    0.2506 C   0  0  0  0  0  0  0  0  0  0  0  0
   -1.9757   -1.8105    0.3068 C   0  0  0  0  0  0  0  0  0  0  0  0
   -2.4674   -0.5317    0.3470 C   0  0  0  0  0  0  0  0  0  0  0  0
   -3.8545   -0.1508    0.4022 C   0  0  0  0  0  0  0  0  0  0  0  0
   -4.9288   -0.9946    0.4163 C   0  0  0  0  0  0  0  0  0  0  0  0
   -6.1802   -0.3267    0.4713 C   0  0  0  0  0  0  0  0  0  0  0  0
   -6.0725    1.0192    0.5001 C   0  0  0  0  0  0  0  0  0  0  0  0
   -4.4166    1.5011    0.4603 S   0  0  0  0  0  0  0  0  0  0  0  0
   -1.1457    0.6029    0.3194 S   0  0  0  0  0  0  0  0  0  0  0  0
    4.3283   -0.3742   -0.0134 S   0  0  0  0  0  0  0  0  0  0  0  0
    7.3180   -0.5464   -0.2377 H   0  0  0  0  0  0  0  0  0  0  0  0
    5.6935    2.9300    0.0430 H   0  0  0  0  0  0  0  0  0  0  0  0
   -0.0166   -2.8103    0.2107 H   0  0  0  0  0  0  0  0  0  0  0  0
   -2.6093   -2.6834    0.3154 H   0  0  0  0  0  0  0  0  0  0  0  0
   -4.8355   -2.0687    0.3866 H   0  0  0  0  0  0  0  0  0  0  0  0
   -7.1265   -0.8482    0.4877 H   0  0  0  0  0  0  0  0  0  0  0  0
   -6.8932    1.7104    0.5419 H   0  0  0  0  0  0  0  0  0  0  0  0
  1  2  2  0  0  0  0
  2  3  1  0  0  0  0
  3  4  2  0  0  0  0
  4  5  1  0  0  0  0
  5  6  2  0  0  0  0
  6  7  1  0  0  0  0
  7  8  2  0  0  0  0
  8  9  1  0  0  0  0
  9 10  2  0  0  0  0
 10 11  1  0  0  0  0
 11 12  2  0  0  0  0
 12 13  1  0  0  0  0
 13 14  2  0  0  0  0
 14 15  1  0  0  0  0
 15 16  2  0  0  0  0
 16 17  1  0  0  0  0
 12 18  1  0  0  0  0
  6 19  1  0  0  0  0
 19  3  1  0  0  0  0
 18  9  1  0  0  0  0
 17 13  1  0  0  0  0
  2 20  1  0  0  0  0
  4 21  1  0  0  0  0
 10 22  1  0  0  0  0
 11 23  1  0  0  0  0
 14 24  1  0  0  0  0
 15 25  1  0  0  0  0
 16 26  1  0  0  0  0
M  END
