
  xtb     03012221273D
 energy: -8.169444945086 gnorm: 0.000212879752 xtb: 6.4.1 (afa7bdf)
 41 44  0     0  0            999 V2000
   10.1222   -2.5251    0.2554 N   0  0  0  0  0  0  0  0  0  0  0  0
    8.9742   -2.3677    0.1499 C   0  0  0  0  0  0  0  0  0  0  0  0
    7.6031   -2.1807    0.0233 C   0  0  0  0  0  0  0  0  0  0  0  0
    6.7178   -2.9983   -0.6136 C   0  0  0  0  0  0  0  0  0  0  0  0
    5.3801   -2.5396   -0.5747 C   0  0  0  0  0  0  0  0  0  0  0  0
    5.2182   -1.3595    0.0945 C   0  0  0  0  0  0  0  0  0  0  0  0
    3.9727   -0.6651    0.2870 C   0  0  0  0  0  0  0  0  0  0  0  0
    3.8145    0.5147    0.9594 C   0  0  0  0  0  0  0  0  0  0  0  0
    2.4814    0.9812    0.9982 C   0  0  0  0  0  0  0  0  0  0  0  0
    1.5852    0.1701    0.3563 C   0  0  0  0  0  0  0  0  0  0  0  0
    0.1482    0.3768    0.2194 C   0  0  0  0  0  0  0  0  0  0  0  0
   -0.4622    1.4104    0.8182 C   0  0  0  0  0  0  0  0  0  0  0  0
   -1.9261    1.6953    0.7234 C   0  0  0  0  0  0  0  0  0  0  0  0
   -2.7469    0.4595    0.2861 C   0  0  0  0  0  0  0  0  0  0  0  0
   -4.2036    0.7879    0.0311 C   0  0  0  0  0  0  0  0  0  0  0  0
   -4.5719    1.6564   -0.9849 C   0  0  0  0  0  0  0  0  0  0  0  0
   -5.8999    1.9533   -1.2127 C   0  0  0  0  0  0  0  0  0  0  0  0
   -6.8795    1.3848   -0.4263 C   0  0  0  0  0  0  0  0  0  0  0  0
   -6.5281    0.5194    0.5879 C   0  0  0  0  0  0  0  0  0  0  0  0
   -5.1997    0.2237    0.8146 C   0  0  0  0  0  0  0  0  0  0  0  0
   -2.0674   -0.2067   -0.9278 C   0  0  0  0  0  0  0  0  0  0  0  0
   -0.6245   -0.6287   -0.6005 C   0  0  0  0  0  0  0  0  0  0  0  0
    2.4278   -1.2065   -0.3085 S   0  0  0  0  0  0  0  0  0  0  0  0
    6.7645   -0.8118    0.6879 S   0  0  0  0  0  0  0  0  0  0  0  0
    7.0205   -3.9123   -1.1018 H   0  0  0  0  0  0  0  0  0  0  0  0
    4.5566   -3.0672   -1.0303 H   0  0  0  0  0  0  0  0  0  0  0  0
    4.6412    1.0369    1.4157 H   0  0  0  0  0  0  0  0  0  0  0  0
    2.2058    1.9017    1.4883 H   0  0  0  0  0  0  0  0  0  0  0  0
    0.1309    2.0826    1.4132 H   0  0  0  0  0  0  0  0  0  0  0  0
   -2.3076    2.0769    1.6791 H   0  0  0  0  0  0  0  0  0  0  0  0
   -2.0893    2.5011   -0.0009 H   0  0  0  0  0  0  0  0  0  0  0  0
   -2.7081   -0.2645    1.1157 H   0  0  0  0  0  0  0  0  0  0  0  0
   -3.8099    2.1017   -1.6009 H   0  0  0  0  0  0  0  0  0  0  0  0
   -6.1718    2.6302   -2.0061 H   0  0  0  0  0  0  0  0  0  0  0  0
   -7.9170    1.6161   -0.6040 H   0  0  0  0  0  0  0  0  0  0  0  0
   -7.2916    0.0733    1.2040 H   0  0  0  0  0  0  0  0  0  0  0  0
   -4.9272   -0.4523    1.6069 H   0  0  0  0  0  0  0  0  0  0  0  0
   -2.0638    0.5000   -1.7648 H   0  0  0  0  0  0  0  0  0  0  0  0
   -2.6661   -1.0615   -1.2678 H   0  0  0  0  0  0  0  0  0  0  0  0
   -0.0688   -0.8247   -1.5261 H   0  0  0  0  0  0  0  0  0  0  0  0
   -0.6335   -1.5818   -0.0588 H   0  0  0  0  0  0  0  0  0  0  0  0
  1  2  3  0  0  0  0
  2  3  1  0  0  0  0
  3  4  2  0  0  0  0
  4  5  1  0  0  0  0
  5  6  2  0  0  0  0
  6  7  1  0  0  0  0
  7  8  2  0  0  0  0
  8  9  1  0  0  0  0
  9 10  2  0  0  0  0
 10 11  1  0  0  0  0
 11 12  2  0  0  0  0
 12 13  1  0  0  0  0
 13 14  1  0  0  0  0
 14 15  1  0  0  0  0
 15 16  2  0  0  0  0
 16 17  1  0  0  0  0
 17 18  2  0  0  0  0
 18 19  1  0  0  0  0
 19 20  2  0  0  0  0
 14 21  1  0  0  0  0
 21 22  1  0  0  0  0
 10 23  1  0  0  0  0
  6 24  1  0  0  0  0
 24  3  1  0  0  0  0
 23  7  1  0  0  0  0
 22 11  1  0  0  0  0
 20 15  1  0  0  0  0
  4 25  1  0  0  0  0
  5 26  1  0  0  0  0
  8 27  1  0  0  0  0
  9 28  1  0  0  0  0
 12 29  1  0  0  0  0
 13 30  1  0  0  0  0
 13 31  1  0  0  0  0
 14 32  1  0  0  0  0
 16 33  1  0  0  0  0
 17 34  1  0  0  0  0
 18 35  1  0  0  0  0
 19 36  1  0  0  0  0
 20 37  1  0  0  0  0
 21 38  1  0  0  0  0
 21 39  1  0  0  0  0
 22 40  1  0  0  0  0
 22 41  1  0  0  0  0
M  END
