
  xtb     03012221293D
 energy: -6.348911667073 gnorm: 0.000375250512 xtb: 6.4.1 (afa7bdf)
 32 34  0     0  0            999 V2000
   -4.7321    1.2350   -0.0453 C   0  0  0  0  0  0  0  0  0  0  0  0
   -3.3624    0.6586    0.0486 C   0  0  0  0  0  0  0  0  0  0  0  0
   -3.1864   -0.7421    0.1456 C   0  0  0  0  0  0  0  0  0  0  0  0
   -1.9524   -1.3225    0.2118 C   0  0  0  0  0  0  0  0  0  0  0  0
   -1.8268   -2.8042    0.3146 C   0  0  0  0  0  0  0  0  0  0  0  0
   -0.7853   -0.4900    0.1779 C   0  0  0  0  0  0  0  0  0  0  0  0
    0.5095   -1.0121    0.2459 C   0  0  0  0  0  0  0  0  0  0  0  0
    1.6249   -0.1824    0.2099 C   0  0  0  0  0  0  0  0  0  0  0  0
    2.9565   -0.6572    0.2792 C   0  0  0  0  0  0  0  0  0  0  0  0
    4.0000    0.2111    0.2400 C   0  0  0  0  0  0  0  0  0  0  0  0
    5.3864   -0.3188    0.3164 C   0  0  0  0  0  0  0  0  0  0  0  0
    3.8430    1.5656    0.1318 N   0  0  0  0  0  0  0  0  0  0  0  0
    2.6265    2.0157    0.0667 C   0  0  0  0  0  0  0  0  0  0  0  0
    1.4576    1.2186    0.0998 C   0  0  0  0  0  0  0  0  0  0  0  0
    0.1722    1.7503    0.0307 C   0  0  0  0  0  0  0  0  0  0  0  0
   -0.9509    0.9250    0.0690 C   0  0  0  0  0  0  0  0  0  0  0  0
   -2.2640    1.4622    0.0024 C   0  0  0  0  0  0  0  0  0  0  0  0
   -5.0631    1.2790   -1.0837 H   0  0  0  0  0  0  0  0  0  0  0  0
   -5.4509    0.6328    0.5123 H   0  0  0  0  0  0  0  0  0  0  0  0
   -4.7628    2.2467    0.3615 H   0  0  0  0  0  0  0  0  0  0  0  0
   -4.0616   -1.3666    0.1663 H   0  0  0  0  0  0  0  0  0  0  0  0
   -1.3043   -3.0887    1.2288 H   0  0  0  0  0  0  0  0  0  0  0  0
   -2.8048   -3.2867    0.3310 H   0  0  0  0  0  0  0  0  0  0  0  0
   -1.2744   -3.2082   -0.5348 H   0  0  0  0  0  0  0  0  0  0  0  0
    0.6551   -2.0733    0.3286 H   0  0  0  0  0  0  0  0  0  0  0  0
    3.1387   -1.7131    0.3641 H   0  0  0  0  0  0  0  0  0  0  0  0
    6.1071    0.4983    0.2833 H   0  0  0  0  0  0  0  0  0  0  0  0
    5.5429   -0.8696    1.2445 H   0  0  0  0  0  0  0  0  0  0  0  0
    5.5950   -0.9873   -0.5195 H   0  0  0  0  0  0  0  0  0  0  0  0
    2.5102    3.0831   -0.0184 H   0  0  0  0  0  0  0  0  0  0  0  0
    0.0448    2.8144   -0.0518 H   0  0  0  0  0  0  0  0  0  0  0  0
   -2.3879    2.5263   -0.0864 H   0  0  0  0  0  0  0  0  0  0  0  0
  1  2  1  0  0  0  0
  2  3  2  0  0  0  0
  3  4  1  0  0  0  0
  4  5  1  0  0  0  0
  4  6  2  0  0  0  0
  6  7  1  0  0  0  0
  7  8  2  0  0  0  0
  8  9  1  0  0  0  0
  9 10  2  0  0  0  0
 10 11  1  0  0  0  0
 10 12  1  0  0  0  0
 12 13  2  0  0  0  0
 13 14  1  0  0  0  0
 14 15  2  0  0  0  0
 15 16  1  0  0  0  0
 16 17  2  0  0  0  0
 17  2  1  0  0  0  0
 16  6  1  0  0  0  0
 14  8  1  0  0  0  0
  1 18  1  0  0  0  0
  1 19  1  0  0  0  0
  1 20  1  0  0  0  0
  3 21  1  0  0  0  0
  5 22  1  0  0  0  0
  5 23  1  0  0  0  0
  5 24  1  0  0  0  0
  7 25  1  0  0  0  0
  9 26  1  0  0  0  0
 11 27  1  0  0  0  0
 11 28  1  0  0  0  0
 11 29  1  0  0  0  0
 13 30  1  0  0  0  0
 15 31  1  0  0  0  0
 17 32  1  0  0  0  0
M  END
