
  xtb     03012221213D
 energy: -15.835025019053 gnorm: 0.000318427713 xtb: 6.4.1 (afa7bdf)
 71 80  0     0  0            999 V2000
   -7.6298   -0.8152    4.2043 C   0  0  0  0  0  0  0  0  0  0  0  0
   -8.1230    0.2219    3.4366 C   0  0  0  0  0  0  0  0  0  0  0  0
   -7.5636    0.4978    2.2085 C   0  0  0  0  0  0  0  0  0  0  0  0
   -6.5013   -0.2605    1.7304 C   0  0  0  0  0  0  0  0  0  0  0  0
   -5.9162    0.0257    0.4485 N   0  0  0  0  0  0  0  0  0  0  0  0
   -6.6123    0.1511   -0.7726 C   0  0  0  0  0  0  0  0  0  0  0  0
   -7.9704    0.0376   -1.0663 C   0  0  0  0  0  0  0  0  0  0  0  0
   -8.3806    0.2024   -2.3669 C   0  0  0  0  0  0  0  0  0  0  0  0
   -7.4615    0.4758   -3.3840 C   0  0  0  0  0  0  0  0  0  0  0  0
   -6.1187    0.5837   -3.1125 C   0  0  0  0  0  0  0  0  0  0  0  0
   -5.6870    0.4176   -1.7957 C   0  0  0  0  0  0  0  0  0  0  0  0
   -4.3775    0.4593   -1.1884 C   0  0  0  0  0  0  0  0  0  0  0  0
   -3.1092    0.6855   -1.7161 C   0  0  0  0  0  0  0  0  0  0  0  0
   -2.0066    0.6803   -0.8726 C   0  0  0  0  0  0  0  0  0  0  0  0
   -0.6490    0.9169   -1.4090 C   0  0  0  0  0  0  0  0  0  0  0  0
   -0.4319    1.8165   -2.4532 C   0  0  0  0  0  0  0  0  0  0  0  0
    0.8374    2.0306   -2.9474 C   0  0  0  0  0  0  0  0  0  0  0  0
    1.9127    1.3568   -2.4121 C   0  0  0  0  0  0  0  0  0  0  0  0
    1.7289    0.4570   -1.3698 C   0  0  0  0  0  0  0  0  0  0  0  0
    2.8459   -0.2454   -0.8009 N   0  0  0  0  0  0  0  0  0  0  0  0
    2.9201   -1.6375   -0.5724 C   0  0  0  0  0  0  0  0  0  0  0  0
    2.0176   -2.6680   -0.8357 C   0  0  0  0  0  0  0  0  0  0  0  0
    2.3706   -3.9550   -0.5089 C   0  0  0  0  0  0  0  0  0  0  0  0
    3.6095   -4.2415    0.0746 C   0  0  0  0  0  0  0  0  0  0  0  0
    4.5132   -3.2420    0.3353 C   0  0  0  0  0  0  0  0  0  0  0  0
    4.1655   -1.9308    0.0067 C   0  0  0  0  0  0  0  0  0  0  0  0
    4.8729   -0.6869    0.1389 C   0  0  0  0  0  0  0  0  0  0  0  0
    6.1392   -0.3786    0.6502 C   0  0  0  0  0  0  0  0  0  0  0  0
    7.3352   -1.4616    1.3146 S   0  0  0  0  0  0  0  0  0  0  0  0
    8.4584   -0.1463    1.6283 C   0  0  0  0  0  0  0  0  0  0  0  0
    9.7260   -0.2045    2.1861 C   0  0  0  0  0  0  0  0  0  0  0  0
   10.4456    0.9574    2.3452 C   0  0  0  0  0  0  0  0  0  0  0  0
    9.9109    2.1805    1.9519 C   0  0  0  0  0  0  0  0  0  0  0  0
    8.6552    2.2514    1.3976 C   0  0  0  0  0  0  0  0  0  0  0  0
    7.9109    1.0787    1.2291 C   0  0  0  0  0  0  0  0  0  0  0  0
    6.5690    0.9449    0.6638 C   0  0  0  0  0  0  0  0  0  0  0  0
    5.7264    1.9697    0.1678 C   0  0  0  0  0  0  0  0  0  0  0  0
    4.4866    1.6713   -0.3339 C   0  0  0  0  0  0  0  0  0  0  0  0
    4.0515    0.3346   -0.3586 C   0  0  0  0  0  0  0  0  0  0  0  0
    0.4490    0.2464   -0.8811 C   0  0  0  0  0  0  0  0  0  0  0  0
   -2.1984    0.4469    0.5075 C   0  0  0  0  0  0  0  0  0  0  0  0
   -3.4415    0.2182    1.0372 C   0  0  0  0  0  0  0  0  0  0  0  0
   -4.5463    0.2165    0.1856 C   0  0  0  0  0  0  0  0  0  0  0  0
   -6.0136   -1.3011    2.5125 C   0  0  0  0  0  0  0  0  0  0  0  0
   -6.5744   -1.5759    3.7401 C   0  0  0  0  0  0  0  0  0  0  0  0
   -8.0681   -1.0306    5.1649 H   0  0  0  0  0  0  0  0  0  0  0  0
   -8.9450    0.8170    3.7997 H   0  0  0  0  0  0  0  0  0  0  0  0
   -7.9325    1.3114    1.6084 H   0  0  0  0  0  0  0  0  0  0  0  0
   -8.6704   -0.1817   -0.2804 H   0  0  0  0  0  0  0  0  0  0  0  0
   -9.4277    0.1184   -2.6083 H   0  0  0  0  0  0  0  0  0  0  0  0
   -7.8119    0.6012   -4.3951 H   0  0  0  0  0  0  0  0  0  0  0  0
   -5.4037    0.7905   -3.8893 H   0  0  0  0  0  0  0  0  0  0  0  0
   -2.9910    0.8486   -2.7709 H   0  0  0  0  0  0  0  0  0  0  0  0
   -1.2668    2.3572   -2.8633 H   0  0  0  0  0  0  0  0  0  0  0  0
    0.9890    2.7279   -3.7551 H   0  0  0  0  0  0  0  0  0  0  0  0
    2.9046    1.5086   -2.8009 H   0  0  0  0  0  0  0  0  0  0  0  0
    1.0707   -2.4456   -1.2940 H   0  0  0  0  0  0  0  0  0  0  0  0
    1.6820   -4.7600   -0.7070 H   0  0  0  0  0  0  0  0  0  0  0  0
    3.8577   -5.2610    0.3199 H   0  0  0  0  0  0  0  0  0  0  0  0
    5.4710   -3.4444    0.7796 H   0  0  0  0  0  0  0  0  0  0  0  0
   10.1291   -1.1561    2.4866 H   0  0  0  0  0  0  0  0  0  0  0  0
   11.4321    0.9205    2.7780 H   0  0  0  0  0  0  0  0  0  0  0  0
   10.4882    3.0808    2.0836 H   0  0  0  0  0  0  0  0  0  0  0  0
    8.2396    3.1955    1.0926 H   0  0  0  0  0  0  0  0  0  0  0  0
    6.0714    2.9880    0.1922 H   0  0  0  0  0  0  0  0  0  0  0  0
    3.8363    2.4440   -0.7022 H   0  0  0  0  0  0  0  0  0  0  0  0
    0.3109   -0.4532   -0.0780 H   0  0  0  0  0  0  0  0  0  0  0  0
   -1.3416    0.4685    1.1580 H   0  0  0  0  0  0  0  0  0  0  0  0
   -3.5802    0.0531    2.0908 H   0  0  0  0  0  0  0  0  0  0  0  0
   -5.1988   -1.8953    2.1365 H   0  0  0  0  0  0  0  0  0  0  0  0
   -6.1906   -2.3863    4.3380 H   0  0  0  0  0  0  0  0  0  0  0  0
  1  2  2  0  0  0  0
  2  3  1  0  0  0  0
  3  4  2  0  0  0  0
  4  5  1  0  0  0  0
  5  6  1  0  0  0  0
  6  7  2  0  0  0  0
  7  8  1  0  0  0  0
  8  9  2  0  0  0  0
  9 10  1  0  0  0  0
 10 11  2  0  0  0  0
 11 12  1  0  0  0  0
 12 13  2  0  0  0  0
 13 14  1  0  0  0  0
 14 15  1  0  0  0  0
 15 16  2  0  0  0  0
 16 17  1  0  0  0  0
 17 18  2  0  0  0  0
 18 19  1  0  0  0  0
 19 20  1  0  0  0  0
 20 21  1  0  0  0  0
 21 22  2  0  0  0  0
 22 23  1  0  0  0  0
 23 24  2  0  0  0  0
 24 25  1  0  0  0  0
 25 26  2  0  0  0  0
 26 27  1  0  0  0  0
 27 28  2  0  0  0  0
 28 29  1  0  0  0  0
 29 30  1  0  0  0  0
 30 31  2  0  0  0  0
 31 32  1  0  0  0  0
 32 33  2  0  0  0  0
 33 34  1  0  0  0  0
 34 35  2  0  0  0  0
 35 36  1  0  0  0  0
 36 37  2  0  0  0  0
 37 38  1  0  0  0  0
 38 39  2  0  0  0  0
 19 40  2  0  0  0  0
 14 41  2  0  0  0  0
 41 42  1  0  0  0  0
 42 43  2  0  0  0  0
  4 44  1  0  0  0  0
 44 45  2  0  0  0  0
 45  1  1  0  0  0  0
 43  5  1  0  0  0  0
 11  6  1  0  0  0  0
 43 12  1  0  0  0  0
 40 15  1  0  0  0  0
 39 20  1  0  0  0  0
 26 21  1  0  0  0  0
 39 27  1  0  0  0  0
 36 28  1  0  0  0  0
 35 30  1  0  0  0  0
  1 46  1  0  0  0  0
  2 47  1  0  0  0  0
  3 48  1  0  0  0  0
  7 49  1  0  0  0  0
  8 50  1  0  0  0  0
  9 51  1  0  0  0  0
 10 52  1  0  0  0  0
 13 53  1  0  0  0  0
 16 54  1  0  0  0  0
 17 55  1  0  0  0  0
 18 56  1  0  0  0  0
 22 57  1  0  0  0  0
 23 58  1  0  0  0  0
 24 59  1  0  0  0  0
 25 60  1  0  0  0  0
 31 61  1  0  0  0  0
 32 62  1  0  0  0  0
 33 63  1  0  0  0  0
 34 64  1  0  0  0  0
 37 65  1  0  0  0  0
 38 66  1  0  0  0  0
 40 67  1  0  0  0  0
 41 68  1  0  0  0  0
 42 69  1  0  0  0  0
 44 70  1  0  0  0  0
 45 71  1  0  0  0  0
M  END
