
  xtb     03012221263D
 energy: -6.133768593301 gnorm: 0.000213910354 xtb: 6.4.1 (afa7bdf)
 31 32  0     0  0            999 V2000
    5.8839    0.7133   -0.3390 C   0  0  0  0  0  0  0  0  0  0  0  0
    4.4998    0.1930   -0.2634 C   0  0  0  0  0  0  0  0  0  0  0  0
    3.4404    1.0299   -0.3808 C   0  0  0  0  0  0  0  0  0  0  0  0
    2.1204    0.5390   -0.3265 C   0  0  0  0  0  0  0  0  0  0  0  0
    1.0823    1.4086   -0.4668 O   0  0  0  0  0  0  0  0  0  0  0  0
    1.9201   -0.8360   -0.1417 C   0  0  0  0  0  0  0  0  0  0  0  0
    0.5765   -1.4168   -0.1073 C   0  0  0  0  0  0  0  0  0  0  0  0
    0.3784   -2.6130   -0.2468 O   0  0  0  0  0  0  0  0  0  0  0  0
   -0.5945   -0.5779    0.1026 C   0  0  0  0  0  0  0  0  0  0  0  0
   -1.8051   -1.1265    0.2311 C   0  0  0  0  0  0  0  0  0  0  0  0
   -3.0657   -0.4464    0.4368 C   0  0  0  0  0  0  0  0  0  0  0  0
   -4.2353   -1.2071    0.4662 C   0  0  0  0  0  0  0  0  0  0  0  0
   -5.4633   -0.6199    0.6526 C   0  0  0  0  0  0  0  0  0  0  0  0
   -5.5691    0.7472    0.8166 C   0  0  0  0  0  0  0  0  0  0  0  0
   -4.4365    1.5197    0.7960 C   0  0  0  0  0  0  0  0  0  0  0  0
   -3.1867    0.9439    0.6122 C   0  0  0  0  0  0  0  0  0  0  0  0
   -1.8153    1.9767    0.6349 Cl  0  0  0  0  0  0  0  0  0  0  0  0
    3.0826   -1.6888    0.0114 C   0  0  0  0  0  0  0  0  0  0  0  0
    2.9467   -2.8870    0.2334 O   0  0  0  0  0  0  0  0  0  0  0  0
    4.3514   -1.1475   -0.0708 O   0  0  0  0  0  0  0  0  0  0  0  0
    6.0660    1.2009   -1.2963 H   0  0  0  0  0  0  0  0  0  0  0  0
    6.0764    1.4290    0.4597 H   0  0  0  0  0  0  0  0  0  0  0  0
    6.5917   -0.1088   -0.2366 H   0  0  0  0  0  0  0  0  0  0  0  0
    3.6072    2.0798   -0.5275 H   0  0  0  0  0  0  0  0  0  0  0  0
    1.4145    2.3220   -0.5922 H   0  0  0  0  0  0  0  0  0  0  0  0
   -0.4729    0.4864    0.1383 H   0  0  0  0  0  0  0  0  0  0  0  0
   -1.8425   -2.2008    0.1643 H   0  0  0  0  0  0  0  0  0  0  0  0
   -4.1673   -2.2729    0.3373 H   0  0  0  0  0  0  0  0  0  0  0  0
   -6.3527   -1.2319    0.6702 H   0  0  0  0  0  0  0  0  0  0  0  0
   -6.5337    1.2027    0.9612 H   0  0  0  0  0  0  0  0  0  0  0  0
   -4.4972    2.5895    0.9255 H   0  0  0  0  0  0  0  0  0  0  0  0
  1  2  1  0  0  0  0
  2  3  2  0  0  0  0
  3  4  1  0  0  0  0
  4  5  1  0  0  0  0
  4  6  2  0  0  0  0
  6  7  1  0  0  0  0
  7  8  2  0  0  0  0
  7  9  1  0  0  0  0
  9 10  2  0  0  0  0
 10 11  1  0  0  0  0
 11 12  2  0  0  0  0
 12 13  1  0  0  0  0
 13 14  2  0  0  0  0
 14 15  1  0  0  0  0
 15 16  2  0  0  0  0
 16 17  1  0  0  0  0
  6 18  1  0  0  0  0
 18 19  2  0  0  0  0
 18 20  1  0  0  0  0
 20  2  1  0  0  0  0
 16 11  1  0  0  0  0
  1 21  1  0  0  0  0
  1 22  1  0  0  0  0
  1 23  1  0  0  0  0
  3 24  1  0  0  0  0
  5 25  1  0  0  0  0
  9 26  1  0  0  0  0
 10 27  1  0  0  0  0
 12 28  1  0  0  0  0
 13 29  1  0  0  0  0
 14 30  1  0  0  0  0
 15 31  1  0  0  0  0
M  END
