
  xtb     03012221233D
 energy: -6.288977814335 gnorm: 0.000266215136 xtb: 6.4.1 (afa7bdf)
 32 33  0     0  0            999 V2000
    4.8126   -0.1801   -2.1311 C   0  0  0  0  0  0  0  0  0  0  0  0
    3.8980    0.1278   -1.0121 C   0  0  0  0  0  0  0  0  0  0  0  0
    2.5739    0.1644   -1.1584 C   0  0  0  0  0  0  0  0  0  0  0  0
    1.6249    0.4439   -0.1054 C   0  0  0  0  0  0  0  0  0  0  0  0
    0.3571    0.1076   -0.1925 N   0  0  0  0  0  0  0  0  0  0  0  0
   -0.2713    0.5182    0.9541 C   0  0  0  0  0  0  0  0  0  0  0  0
   -1.5883    0.3652    1.2856 C   0  0  0  0  0  0  0  0  0  0  0  0
   -2.5768   -0.2807    0.4808 C   0  0  0  0  0  0  0  0  0  0  0  0
   -2.2711   -0.8302   -0.7717 C   0  0  0  0  0  0  0  0  0  0  0  0
   -3.2272   -1.4463   -1.5295 C   0  0  0  0  0  0  0  0  0  0  0  0
   -4.5470   -1.5470   -1.0729 C   0  0  0  0  0  0  0  0  0  0  0  0
   -5.4900   -2.1728   -1.8516 O   0  0  0  0  0  0  0  0  0  0  0  0
   -4.8614   -0.9992    0.1780 C   0  0  0  0  0  0  0  0  0  0  0  0
   -3.9013   -0.3827    0.9337 C   0  0  0  0  0  0  0  0  0  0  0  0
    0.7040    1.1921    1.8124 C   0  0  0  0  0  0  0  0  0  0  0  0
    0.5077    1.7186    2.8942 O   0  0  0  0  0  0  0  0  0  0  0  0
    1.8908    1.1121    1.1051 N   0  0  0  0  0  0  0  0  0  0  0  0
    3.0924    1.7950    1.5533 C   0  0  0  0  0  0  0  0  0  0  0  0
    5.8610   -0.1076   -1.8350 H   0  0  0  0  0  0  0  0  0  0  0  0
    4.6563    0.5103   -2.9615 H   0  0  0  0  0  0  0  0  0  0  0  0
    4.6432   -1.1914   -2.5045 H   0  0  0  0  0  0  0  0  0  0  0  0
    4.3189    0.2831   -0.0343 H   0  0  0  0  0  0  0  0  0  0  0  0
    2.1584   -0.0614   -2.1242 H   0  0  0  0  0  0  0  0  0  0  0  0
   -1.8988    0.7654    2.2341 H   0  0  0  0  0  0  0  0  0  0  0  0
   -1.2625   -0.7598   -1.1333 H   0  0  0  0  0  0  0  0  0  0  0  0
   -2.9875   -1.8667   -2.4894 H   0  0  0  0  0  0  0  0  0  0  0  0
   -6.3608   -2.1635   -1.3983 H   0  0  0  0  0  0  0  0  0  0  0  0
   -5.8716   -1.0697    0.5384 H   0  0  0  0  0  0  0  0  0  0  0  0
   -4.1566    0.0344    1.8928 H   0  0  0  0  0  0  0  0  0  0  0  0
    2.8240    2.5025    2.3356 H   0  0  0  0  0  0  0  0  0  0  0  0
    3.7993    1.0789    1.9651 H   0  0  0  0  0  0  0  0  0  0  0  0
    3.5500    2.3395    0.7306 H   0  0  0  0  0  0  0  0  0  0  0  0
  1  2  1  0  0  0  0
  2  3  2  0  0  0  0
  3  4  1  0  0  0  0
  4  5  2  0  0  0  0
  5  6  1  0  0  0  0
  6  7  2  0  0  0  0
  7  8  1  0  0  0  0
  8  9  2  0  0  0  0
  9 10  1  0  0  0  0
 10 11  2  0  0  0  0
 11 12  1  0  0  0  0
 11 13  1  0  0  0  0
 13 14  2  0  0  0  0
  6 15  1  0  0  0  0
 15 16  2  0  0  0  0
 15 17  1  0  0  0  0
 17 18  1  0  0  0  0
 17  4  1  0  0  0  0
 14  8  1  0  0  0  0
  1 19  1  0  0  0  0
  1 20  1  0  0  0  0
  1 21  1  0  0  0  0
  2 22  1  0  0  0  0
  3 23  1  0  0  0  0
  7 24  1  0  0  0  0
  9 25  1  0  0  0  0
 10 26  1  0  0  0  0
 12 27  1  0  0  0  0
 13 28  1  0  0  0  0
 14 29  1  0  0  0  0
 18 30  1  0  0  0  0
 18 31  1  0  0  0  0
 18 32  1  0  0  0  0
M  END
