
  xtb     03012221253D
 energy: -7.187083112558 gnorm: 0.000261664510 xtb: 6.4.1 (afa7bdf)
 37 38  0     0  0            999 V2000
   -6.1812   -1.3514    0.3475 C   0  0  0  0  0  0  0  0  0  0  0  0
   -5.0083   -1.2184    1.2114 N   0  0  0  0  0  0  0  0  0  0  0  0
   -5.2134   -1.4484    2.6414 C   0  0  0  0  0  0  0  0  0  0  0  0
   -3.7463   -0.8969    0.6926 C   0  0  0  0  0  0  0  0  0  0  0  0
   -3.5475   -0.7392   -0.6850 C   0  0  0  0  0  0  0  0  0  0  0  0
   -2.3134   -0.4231   -1.1916 C   0  0  0  0  0  0  0  0  0  0  0  0
   -1.2075   -0.2462   -0.3503 C   0  0  0  0  0  0  0  0  0  0  0  0
    0.0778    0.0885   -0.9217 C   0  0  0  0  0  0  0  0  0  0  0  0
    1.2191    0.2864   -0.2309 C   0  0  0  0  0  0  0  0  0  0  0  0
    2.4594    0.6162   -0.8549 C   0  0  0  0  0  0  0  0  0  0  0  0
    3.6013    0.8125   -0.1676 C   0  0  0  0  0  0  0  0  0  0  0  0
    4.8843    1.1485   -0.7494 C   0  0  0  0  0  0  0  0  0  0  0  0
    6.0058    1.3179    0.0555 C   0  0  0  0  0  0  0  0  0  0  0  0
    7.2113    1.6358   -0.5168 C   0  0  0  0  0  0  0  0  0  0  0  0
    7.4088    1.8020   -1.8149 N   0  0  0  0  0  0  0  0  0  0  0  0
    6.3394    1.6405   -2.5777 C   0  0  0  0  0  0  0  0  0  0  0  0
    5.0875    1.3226   -2.1145 C   0  0  0  0  0  0  0  0  0  0  0  0
   -1.4046   -0.4047    1.0275 C   0  0  0  0  0  0  0  0  0  0  0  0
   -2.6394   -0.7216    1.5333 C   0  0  0  0  0  0  0  0  0  0  0  0
   -6.0494   -2.1901   -0.3338 H   0  0  0  0  0  0  0  0  0  0  0  0
   -7.0832   -1.5240    0.9312 H   0  0  0  0  0  0  0  0  0  0  0  0
   -6.3238   -0.4408   -0.2316 H   0  0  0  0  0  0  0  0  0  0  0  0
   -5.0129   -0.5352    3.1988 H   0  0  0  0  0  0  0  0  0  0  0  0
   -6.2361   -1.7569    2.8484 H   0  0  0  0  0  0  0  0  0  0  0  0
   -4.5473   -2.2345    2.9921 H   0  0  0  0  0  0  0  0  0  0  0  0
   -4.3776   -0.8736   -1.3556 H   0  0  0  0  0  0  0  0  0  0  0  0
   -2.1827   -0.3076   -2.2537 H   0  0  0  0  0  0  0  0  0  0  0  0
    0.1178    0.1864   -1.9926 H   0  0  0  0  0  0  0  0  0  0  0  0
    1.2134    0.1960    0.8395 H   0  0  0  0  0  0  0  0  0  0  0  0
    2.4659    0.7077   -1.9258 H   0  0  0  0  0  0  0  0  0  0  0  0
    3.5676    0.7129    0.9035 H   0  0  0  0  0  0  0  0  0  0  0  0
    5.9198    1.1980    1.1218 H   0  0  0  0  0  0  0  0  0  0  0  0
    8.0765    1.7650    0.1158 H   0  0  0  0  0  0  0  0  0  0  0  0
    6.4894    1.7744   -3.6384 H   0  0  0  0  0  0  0  0  0  0  0  0
    4.2704    1.2106   -2.8044 H   0  0  0  0  0  0  0  0  0  0  0  0
   -0.5766   -0.2760    1.7009 H   0  0  0  0  0  0  0  0  0  0  0  0
   -2.7645   -0.8336    2.5957 H   0  0  0  0  0  0  0  0  0  0  0  0
  1  2  1  0  0  0  0
  2  3  1  0  0  0  0
  2  4  1  0  0  0  0
  4  5  2  0  0  0  0
  5  6  1  0  0  0  0
  6  7  2  0  0  0  0
  7  8  1  0  0  0  0
  8  9  2  0  0  0  0
  9 10  1  0  0  0  0
 10 11  2  0  0  0  0
 11 12  1  0  0  0  0
 12 13  2  0  0  0  0
 13 14  1  0  0  0  0
 14 15  2  0  0  0  0
 15 16  1  0  0  0  0
 16 17  2  0  0  0  0
  7 18  1  0  0  0  0
 18 19  2  0  0  0  0
 19  4  1  0  0  0  0
 17 12  1  0  0  0  0
  1 20  1  0  0  0  0
  1 21  1  0  0  0  0
  1 22  1  0  0  0  0
  3 23  1  0  0  0  0
  3 24  1  0  0  0  0
  3 25  1  0  0  0  0
  5 26  1  0  0  0  0
  6 27  1  0  0  0  0
  8 28  1  0  0  0  0
  9 29  1  0  0  0  0
 10 30  1  0  0  0  0
 11 31  1  0  0  0  0
 13 32  1  0  0  0  0
 14 33  1  0  0  0  0
 16 34  1  0  0  0  0
 17 35  1  0  0  0  0
 18 36  1  0  0  0  0
 19 37  1  0  0  0  0
M  END
