
  xtb     03012221263D
 energy: -15.024922807680 gnorm: 0.000302810916 xtb: 6.4.1 (afa7bdf)
 76 82  0     0  0            999 V2000
   -4.7590    2.6804   -2.9990 C   0  0  0  0  0  0  0  0  0  0  0  0
   -5.4275    1.9379   -1.9167 C   0  0  0  0  0  0  0  0  0  0  0  0
   -6.6382    2.2315   -1.3889 C   0  0  0  0  0  0  0  0  0  0  0  0
   -7.0574    1.3563   -0.3425 C   0  0  0  0  0  0  0  0  0  0  0  0
   -8.3698    1.5300    0.3395 C   0  0  0  0  0  0  0  0  0  0  0  0
   -6.1318    0.3796   -0.0573 C   0  0  0  0  0  0  0  0  0  0  0  0
   -6.2122   -0.6497    0.9562 C   0  0  0  0  0  0  0  0  0  0  0  0
   -5.3346   -1.6639    1.1214 C   0  0  0  0  0  0  0  0  0  0  0  0
   -4.1162   -1.9260    0.3362 C   0  0  0  0  0  0  0  0  0  0  0  0
   -4.0771   -2.7822   -0.7310 C   0  0  0  0  0  0  0  0  0  0  0  0
   -5.2318   -3.5393   -1.2451 C   0  0  0  0  0  0  0  0  0  0  0  0
   -2.4767   -2.8349   -1.3744 S   0  0  0  0  0  0  0  0  0  0  0  0
   -1.8428   -1.7302   -0.1857 C   0  0  0  0  0  0  0  0  0  0  0  0
   -0.4442   -1.3067   -0.1699 C   0  0  0  0  0  0  0  0  0  0  0  0
   -0.0750   -0.0056    0.1746 C   0  0  0  0  0  0  0  0  0  0  0  0
    1.2425    0.3752    0.1756 C   0  0  0  0  0  0  0  0  0  0  0  0
    2.2459   -0.5258   -0.1773 C   0  0  0  0  0  0  0  0  0  0  0  0
    3.6371   -0.0972   -0.1652 C   0  0  0  0  0  0  0  0  0  0  0  0
    4.0333    1.1147    0.2098 N   0  0  0  0  0  0  0  0  0  0  0  0
    5.3753    1.1407    0.0947 C   0  0  0  0  0  0  0  0  0  0  0  0
    6.1750    2.3399    0.3755 C   0  0  0  0  0  0  0  0  0  0  0  0
    5.7038    3.2789    1.2888 C   0  0  0  0  0  0  0  0  0  0  0  0
    6.4228    4.4216    1.5596 C   0  0  0  0  0  0  0  0  0  0  0  0
    7.6215    4.6517    0.9155 C   0  0  0  0  0  0  0  0  0  0  0  0
    8.0966    3.7397   -0.0050 C   0  0  0  0  0  0  0  0  0  0  0  0
    7.3796    2.5962   -0.2770 C   0  0  0  0  0  0  0  0  0  0  0  0
    5.8350   -0.1177   -0.3562 C   0  0  0  0  0  0  0  0  0  0  0  0
    7.2093   -0.5937   -0.5475 C   0  0  0  0  0  0  0  0  0  0  0  0
    8.2159   -0.2918    0.3697 C   0  0  0  0  0  0  0  0  0  0  0  0
    9.4976   -0.7587    0.1853 C   0  0  0  0  0  0  0  0  0  0  0  0
    9.7978   -1.5397   -0.9124 C   0  0  0  0  0  0  0  0  0  0  0  0
    8.8113   -1.8583   -1.8237 C   0  0  0  0  0  0  0  0  0  0  0  0
    7.5277   -1.3946   -1.6424 C   0  0  0  0  0  0  0  0  0  0  0  0
    4.7175   -0.8778   -0.5291 N   0  0  0  0  0  0  0  0  0  0  0  0
    1.8812   -1.8224   -0.5387 C   0  0  0  0  0  0  0  0  0  0  0  0
    0.5626   -2.2002   -0.5361 C   0  0  0  0  0  0  0  0  0  0  0  0
   -2.8365   -1.3635    0.6804 C   0  0  0  0  0  0  0  0  0  0  0  0
   -2.6654   -0.5094    1.8863 C   0  0  0  0  0  0  0  0  0  0  0  0
   -5.7181   -2.5653    2.2727 C   0  0  0  0  0  0  0  0  0  0  0  0
   -4.6675   -2.7291    3.0962 F   0  0  0  0  0  0  0  0  0  0  0  0
   -6.1573   -3.7432    1.7939 F   0  0  0  0  0  0  0  0  0  0  0  0
   -6.8652   -1.8282    3.0132 C   0  0  0  0  0  0  0  0  0  0  0  0
   -7.8803   -2.6628    3.2647 F   0  0  0  0  0  0  0  0  0  0  0  0
   -6.3909   -1.2681    4.1337 F   0  0  0  0  0  0  0  0  0  0  0  0
   -7.2990   -0.7179    2.0121 C   0  0  0  0  0  0  0  0  0  0  0  0
   -7.3895    0.4551    2.6621 F   0  0  0  0  0  0  0  0  0  0  0  0
   -8.4667   -1.0591    1.4394 F   0  0  0  0  0  0  0  0  0  0  0  0
   -4.7669    0.5449   -1.1315 S   0  0  0  0  0  0  0  0  0  0  0  0
   -5.3693    2.6842   -3.9027 H   0  0  0  0  0  0  0  0  0  0  0  0
   -4.5776    3.7150   -2.7063 H   0  0  0  0  0  0  0  0  0  0  0  0
   -3.7985    2.2256   -3.2432 H   0  0  0  0  0  0  0  0  0  0  0  0
   -7.2374    3.0601   -1.7301 H   0  0  0  0  0  0  0  0  0  0  0  0
   -8.9382    0.6004    0.3255 H   0  0  0  0  0  0  0  0  0  0  0  0
   -8.9706    2.2990   -0.1453 H   0  0  0  0  0  0  0  0  0  0  0  0
   -8.2279    1.8178    1.3810 H   0  0  0  0  0  0  0  0  0  0  0  0
   -5.9586   -2.8706   -1.7072 H   0  0  0  0  0  0  0  0  0  0  0  0
   -5.7317   -4.0705   -0.4332 H   0  0  0  0  0  0  0  0  0  0  0  0
   -4.9181   -4.2715   -1.9892 H   0  0  0  0  0  0  0  0  0  0  0  0
   -0.8424    0.7112    0.4141 H   0  0  0  0  0  0  0  0  0  0  0  0
    1.5221    1.3786    0.4440 H   0  0  0  0  0  0  0  0  0  0  0  0
    4.7640    3.0945    1.7794 H   0  0  0  0  0  0  0  0  0  0  0  0
    6.0481    5.1371    2.2723 H   0  0  0  0  0  0  0  0  0  0  0  0
    8.1838    5.5465    1.1272 H   0  0  0  0  0  0  0  0  0  0  0  0
    9.0278    3.9244   -0.5140 H   0  0  0  0  0  0  0  0  0  0  0  0
    7.7396    1.8946   -1.0083 H   0  0  0  0  0  0  0  0  0  0  0  0
    7.9748    0.3072    1.2305 H   0  0  0  0  0  0  0  0  0  0  0  0
   10.2667   -0.5172    0.8998 H   0  0  0  0  0  0  0  0  0  0  0  0
   10.8020   -1.9040   -1.0561 H   0  0  0  0  0  0  0  0  0  0  0  0
    9.0463   -2.4717   -2.6775 H   0  0  0  0  0  0  0  0  0  0  0  0
    6.7551   -1.6382   -2.3506 H   0  0  0  0  0  0  0  0  0  0  0  0
    4.7015   -1.8588   -0.8114 H   0  0  0  0  0  0  0  0  0  0  0  0
    2.6426   -2.5274   -0.8180 H   0  0  0  0  0  0  0  0  0  0  0  0
    0.2848   -3.2034   -0.8150 H   0  0  0  0  0  0  0  0  0  0  0  0
   -1.6451   -0.5600    2.2657 H   0  0  0  0  0  0  0  0  0  0  0  0
   -3.3280   -0.8447    2.6859 H   0  0  0  0  0  0  0  0  0  0  0  0
   -2.9068    0.5304    1.6661 H   0  0  0  0  0  0  0  0  0  0  0  0
  1  2  1  0  0  0  0
  2  3  2  0  0  0  0
  3  4  1  0  0  0  0
  4  5  1  0  0  0  0
  4  6  2  0  0  0  0
  6  7  1  0  0  0  0
  7  8  2  0  0  0  0
  8  9  1  0  0  0  0
  9 10  2  0  0  0  0
 10 11  1  0  0  0  0
 10 12  1  0  0  0  0
 12 13  1  0  0  0  0
 13 14  1  0  0  0  0
 14 15  2  0  0  0  0
 15 16  1  0  0  0  0
 16 17  2  0  0  0  0
 17 18  1  0  0  0  0
 18 19  2  0  0  0  0
 19 20  1  0  0  0  0
 20 21  1  0  0  0  0
 21 22  2  0  0  0  0
 22 23  1  0  0  0  0
 23 24  2  0  0  0  0
 24 25  1  0  0  0  0
 25 26  2  0  0  0  0
 20 27  2  0  0  0  0
 27 28  1  0  0  0  0
 28 29  2  0  0  0  0
 29 30  1  0  0  0  0
 30 31  2  0  0  0  0
 31 32  1  0  0  0  0
 32 33  2  0  0  0  0
 27 34  1  0  0  0  0
 17 35  1  0  0  0  0
 35 36  2  0  0  0  0
 13 37  2  0  0  0  0
 37 38  1  0  0  0  0
  8 39  1  0  0  0  0
 39 40  1  0  0  0  0
 39 41  1  0  0  0  0
 39 42  1  0  0  0  0
 42 43  1  0  0  0  0
 42 44  1  0  0  0  0
 42 45  1  0  0  0  0
 45 46  1  0  0  0  0
 45 47  1  0  0  0  0
  6 48  1  0  0  0  0
 48  2  1  0  0  0  0
 45  7  1  0  0  0  0
 37  9  1  0  0  0  0
 36 14  1  0  0  0  0
 34 18  1  0  0  0  0
 26 21  1  0  0  0  0
 33 28  1  0  0  0  0
  1 49  1  0  0  0  0
  1 50  1  0  0  0  0
  1 51  1  0  0  0  0
  3 52  1  0  0  0  0
  5 53  1  0  0  0  0
  5 54  1  0  0  0  0
  5 55  1  0  0  0  0
 11 56  1  0  0  0  0
 11 57  1  0  0  0  0
 11 58  1  0  0  0  0
 15 59  1  0  0  0  0
 16 60  1  0  0  0  0
 22 61  1  0  0  0  0
 23 62  1  0  0  0  0
 24 63  1  0  0  0  0
 25 64  1  0  0  0  0
 26 65  1  0  0  0  0
 29 66  1  0  0  0  0
 30 67  1  0  0  0  0
 31 68  1  0  0  0  0
 32 69  1  0  0  0  0
 33 70  1  0  0  0  0
 34 71  1  0  0  0  0
 35 72  1  0  0  0  0
 36 73  1  0  0  0  0
 38 74  1  0  0  0  0
 38 75  1  0  0  0  0
 38 76  1  0  0  0  0
M  END
