
  xtb     03012221273D
 energy: -9.536366297507 gnorm: 0.000344552226 xtb: 6.4.1 (afa7bdf)
 52 54  0     0  0            999 V2000
    2.9947   -0.3393    2.2898 C   0  0  0  0  0  0  0  0  0  0  0  0
    3.6206   -0.7347    0.9697 C   0  0  0  0  0  0  0  0  0  0  0  0
    2.7247   -1.5613    0.1318 N   0  0  0  0  0  0  0  0  0  0  0  0
    3.3781   -2.4019   -0.8939 C   0  0  0  0  0  0  0  0  0  0  0  0
    3.2279   -1.7996   -2.2730 C   0  0  0  0  0  0  0  0  0  0  0  0
    1.3103   -1.3813    0.1184 C   0  0  0  0  0  0  0  0  0  0  0  0
    0.5024   -2.4917    0.3971 C   0  0  0  0  0  0  0  0  0  0  0  0
   -0.8531   -2.3753    0.4957 C   0  0  0  0  0  0  0  0  0  0  0  0
   -1.4911   -1.1368    0.3449 C   0  0  0  0  0  0  0  0  0  0  0  0
   -2.9167   -1.1118    0.3517 N   0  0  0  0  0  0  0  0  0  0  0  0
   -3.7026   -0.5159   -0.7507 C   0  0  0  0  0  0  0  0  0  0  0  0
   -3.0616   -0.7189   -2.1066 C   0  0  0  0  0  0  0  0  0  0  0  0
   -3.6618   -1.4449    1.5843 C   0  0  0  0  0  0  0  0  0  0  0  0
   -3.4113   -0.4212    2.6691 C   0  0  0  0  0  0  0  0  0  0  0  0
   -0.6999    0.0158    0.1175 C   0  0  0  0  0  0  0  0  0  0  0  0
    0.6942   -0.1233   -0.0919 C   0  0  0  0  0  0  0  0  0  0  0  0
    1.4747    1.0130   -0.6018 C   0  0  0  0  0  0  0  0  0  0  0  0
    2.6080    0.8903   -1.0383 O   0  0  0  0  0  0  0  0  0  0  0  0
    0.8466    2.3401   -0.6215 C   0  0  0  0  0  0  0  0  0  0  0  0
    1.5806    3.4490   -1.0216 C   0  0  0  0  0  0  0  0  0  0  0  0
    1.0101    4.7001   -1.0460 C   0  0  0  0  0  0  0  0  0  0  0  0
   -0.3108    4.8640   -0.6694 C   0  0  0  0  0  0  0  0  0  0  0  0
   -1.0524    3.7753   -0.2745 C   0  0  0  0  0  0  0  0  0  0  0  0
   -0.4920    2.5049   -0.2479 C   0  0  0  0  0  0  0  0  0  0  0  0
   -1.3013    1.3555    0.1768 C   0  0  0  0  0  0  0  0  0  0  0  0
   -2.4312    1.5526    0.5945 O   0  0  0  0  0  0  0  0  0  0  0  0
    2.0964    0.2595    2.1341 H   0  0  0  0  0  0  0  0  0  0  0  0
    3.6770    0.2459    2.9097 H   0  0  0  0  0  0  0  0  0  0  0  0
    2.6982   -1.2212    2.8594 H   0  0  0  0  0  0  0  0  0  0  0  0
    3.8954    0.1492    0.3859 H   0  0  0  0  0  0  0  0  0  0  0  0
    4.5477   -1.2912    1.1394 H   0  0  0  0  0  0  0  0  0  0  0  0
    4.4339   -2.5251   -0.6338 H   0  0  0  0  0  0  0  0  0  0  0  0
    2.9377   -3.4029   -0.8511 H   0  0  0  0  0  0  0  0  0  0  0  0
    2.1762   -1.7333   -2.5550 H   0  0  0  0  0  0  0  0  0  0  0  0
    3.7473   -2.3772   -3.0401 H   0  0  0  0  0  0  0  0  0  0  0  0
    3.6184   -0.7807   -2.2881 H   0  0  0  0  0  0  0  0  0  0  0  0
    0.9760   -3.4459    0.5479 H   0  0  0  0  0  0  0  0  0  0  0  0
   -1.4589   -3.2457    0.6767 H   0  0  0  0  0  0  0  0  0  0  0  0
   -4.7073   -0.9497   -0.7353 H   0  0  0  0  0  0  0  0  0  0  0  0
   -3.8252    0.5490   -0.5305 H   0  0  0  0  0  0  0  0  0  0  0  0
   -2.9179   -1.7803   -2.3137 H   0  0  0  0  0  0  0  0  0  0  0  0
   -2.0790   -0.2473   -2.1502 H   0  0  0  0  0  0  0  0  0  0  0  0
   -3.6648   -0.2990   -2.9140 H   0  0  0  0  0  0  0  0  0  0  0  0
   -3.3606   -2.4456    1.9096 H   0  0  0  0  0  0  0  0  0  0  0  0
   -4.7284   -1.5125    1.3485 H   0  0  0  0  0  0  0  0  0  0  0  0
   -3.6576    0.5803    2.3119 H   0  0  0  0  0  0  0  0  0  0  0  0
   -3.9948   -0.6167    3.5708 H   0  0  0  0  0  0  0  0  0  0  0  0
   -2.3566   -0.4008    2.9476 H   0  0  0  0  0  0  0  0  0  0  0  0
    2.6064    3.3056   -1.3128 H   0  0  0  0  0  0  0  0  0  0  0  0
    1.5918    5.5520   -1.3573 H   0  0  0  0  0  0  0  0  0  0  0  0
   -0.7580    5.8441   -0.6863 H   0  0  0  0  0  0  0  0  0  0  0  0
   -2.0807    3.8868    0.0221 H   0  0  0  0  0  0  0  0  0  0  0  0
  1  2  1  0  0  0  0
  2  3  1  0  0  0  0
  3  4  1  0  0  0  0
  4  5  1  0  0  0  0
  3  6  1  0  0  0  0
  6  7  2  0  0  0  0
  7  8  1  0  0  0  0
  8  9  2  0  0  0  0
  9 10  1  0  0  0  0
 10 11  1  0  0  0  0
 11 12  1  0  0  0  0
 10 13  1  0  0  0  0
 13 14  1  0  0  0  0
  9 15  1  0  0  0  0
 15 16  2  0  0  0  0
 16 17  1  0  0  0  0
 17 18  2  0  0  0  0
 17 19  1  0  0  0  0
 19 20  2  0  0  0  0
 20 21  1  0  0  0  0
 21 22  2  0  0  0  0
 22 23  1  0  0  0  0
 23 24  2  0  0  0  0
 24 25  1  0  0  0  0
 25 26  2  0  0  0  0
 16  6  1  0  0  0  0
 24 19  1  0  0  0  0
 25 15  1  0  0  0  0
  1 27  1  0  0  0  0
  1 28  1  0  0  0  0
  1 29  1  0  0  0  0
  2 30  1  0  0  0  0
  2 31  1  0  0  0  0
  4 32  1  0  0  0  0
  4 33  1  0  0  0  0
  5 34  1  0  0  0  0
  5 35  1  0  0  0  0
  5 36  1  0  0  0  0
  7 37  1  0  0  0  0
  8 38  1  0  0  0  0
 11 39  1  0  0  0  0
 11 40  1  0  0  0  0
 12 41  1  0  0  0  0
 12 42  1  0  0  0  0
 12 43  1  0  0  0  0
 13 44  1  0  0  0  0
 13 45  1  0  0  0  0
 14 46  1  0  0  0  0
 14 47  1  0  0  0  0
 14 48  1  0  0  0  0
 20 49  1  0  0  0  0
 21 50  1  0  0  0  0
 22 51  1  0  0  0  0
 23 52  1  0  0  0  0
M  END
