
  xtb     03012221243D
 energy: -7.731082772110 gnorm: 0.000324355755 xtb: 6.4.1 (afa7bdf)
 39 42  0     0  0            999 V2000
    0.4690    3.5952    0.2456 C   0  0  0  0  0  0  0  0  0  0  0  0
    0.0203    2.7775   -0.8166 O   0  0  0  0  0  0  0  0  0  0  0  0
   -0.3933    1.4932   -0.3907 C   0  0  0  0  0  0  0  0  0  0  0  0
   -1.7500    1.2194   -0.0677 C   0  0  0  0  0  0  0  0  0  0  0  0
   -2.7309    2.2204   -0.2027 C   0  0  0  0  0  0  0  0  0  0  0  0
   -4.0313    1.9727    0.1188 C   0  0  0  0  0  0  0  0  0  0  0  0
   -4.4184    0.7121    0.5938 C   0  0  0  0  0  0  0  0  0  0  0  0
   -3.4993   -0.2835    0.7330 C   0  0  0  0  0  0  0  0  0  0  0  0
   -2.1450   -0.0710    0.4047 C   0  0  0  0  0  0  0  0  0  0  0  0
   -1.1978   -1.1185    0.5422 C   0  0  0  0  0  0  0  0  0  0  0  0
   -1.5864   -2.4161    0.9554 O   0  0  0  0  0  0  0  0  0  0  0  0
   -1.9801   -3.2271   -0.1298 C   0  0  0  0  0  0  0  0  0  0  0  0
    0.1370   -0.8282    0.2285 C   0  0  0  0  0  0  0  0  0  0  0  0
    0.5255    0.4425   -0.2428 C   0  0  0  0  0  0  0  0  0  0  0  0
    1.9379    0.3919   -0.4964 C   0  0  0  0  0  0  0  0  0  0  0  0
    2.8292    1.3399   -0.9945 C   0  0  0  0  0  0  0  0  0  0  0  0
    4.1566    1.0033   -1.1284 C   0  0  0  0  0  0  0  0  0  0  0  0
    5.0445    1.9190   -1.5964 F   0  0  0  0  0  0  0  0  0  0  0  0
    4.5978   -0.2784   -0.7751 C   0  0  0  0  0  0  0  0  0  0  0  0
    3.7328   -1.2292   -0.2919 C   0  0  0  0  0  0  0  0  0  0  0  0
    2.3856   -0.8966   -0.1503 C   0  0  0  0  0  0  0  0  0  0  0  0
    1.2826   -1.6374    0.2962 N   0  0  0  0  0  0  0  0  0  0  0  0
    1.3284   -2.9964    0.8128 C   0  0  0  0  0  0  0  0  0  0  0  0
    1.2873    3.1007    0.7694 H   0  0  0  0  0  0  0  0  0  0  0  0
    0.8168    4.5443   -0.1623 H   0  0  0  0  0  0  0  0  0  0  0  0
   -0.3524    3.7751    0.9392 H   0  0  0  0  0  0  0  0  0  0  0  0
   -2.4310    3.1851   -0.5732 H   0  0  0  0  0  0  0  0  0  0  0  0
   -4.7698    2.7502    0.0098 H   0  0  0  0  0  0  0  0  0  0  0  0
   -5.4490    0.5332    0.8504 H   0  0  0  0  0  0  0  0  0  0  0  0
   -3.7900   -1.2496    1.1086 H   0  0  0  0  0  0  0  0  0  0  0  0
   -1.1570   -3.3103   -0.8405 H   0  0  0  0  0  0  0  0  0  0  0  0
   -2.2419   -4.2176    0.2435 H   0  0  0  0  0  0  0  0  0  0  0  0
   -2.8449   -2.7844   -0.6249 H   0  0  0  0  0  0  0  0  0  0  0  0
    2.4853    2.3142   -1.2843 H   0  0  0  0  0  0  0  0  0  0  0  0
    5.6422   -0.5027   -0.8958 H   0  0  0  0  0  0  0  0  0  0  0  0
    4.0735   -2.2141   -0.0280 H   0  0  0  0  0  0  0  0  0  0  0  0
    2.1894   -3.1195    1.4660 H   0  0  0  0  0  0  0  0  0  0  0  0
    1.4006   -3.7049   -0.0093 H   0  0  0  0  0  0  0  0  0  0  0  0
    0.4260   -3.2044    1.3837 H   0  0  0  0  0  0  0  0  0  0  0  0
  1  2  1  0  0  0  0
  2  3  1  0  0  0  0
  3  4  2  0  0  0  0
  4  5  1  0  0  0  0
  5  6  2  0  0  0  0
  6  7  1  0  0  0  0
  7  8  2  0  0  0  0
  8  9  1  0  0  0  0
  9 10  2  0  0  0  0
 10 11  1  0  0  0  0
 11 12  1  0  0  0  0
 10 13  1  0  0  0  0
 13 14  2  0  0  0  0
 14 15  1  0  0  0  0
 15 16  2  0  0  0  0
 16 17  1  0  0  0  0
 17 18  1  0  0  0  0
 17 19  2  0  0  0  0
 19 20  1  0  0  0  0
 20 21  2  0  0  0  0
 21 22  1  0  0  0  0
 22 23  1  0  0  0  0
 14  3  1  0  0  0  0
 21 15  1  0  0  0  0
  9  4  1  0  0  0  0
 22 13  1  0  0  0  0
  1 24  1  0  0  0  0
  1 25  1  0  0  0  0
  1 26  1  0  0  0  0
  5 27  1  0  0  0  0
  6 28  1  0  0  0  0
  7 29  1  0  0  0  0
  8 30  1  0  0  0  0
 12 31  1  0  0  0  0
 12 32  1  0  0  0  0
 12 33  1  0  0  0  0
 16 34  1  0  0  0  0
 19 35  1  0  0  0  0
 20 36  1  0  0  0  0
 23 37  1  0  0  0  0
 23 38  1  0  0  0  0
 23 39  1  0  0  0  0
M  END
