
  xtb     03012221333D
 energy: -7.003363886175 gnorm: 0.000377559212 xtb: 6.4.1 (afa7bdf)
 33 34  0     0  0            999 V2000
    2.5836    0.9041    0.5603 C   0  0  0  0  0  0  0  0  0  0  0  0
    2.1209   -0.5454    0.5539 C   0  0  0  0  0  0  0  0  0  0  0  0
    1.4663   -0.9383   -0.7388 C   0  0  0  0  0  0  0  0  0  0  0  0
    2.2106   -1.5413   -1.7377 C   0  0  0  0  0  0  0  0  0  0  0  0
    1.6424   -1.8651   -2.9533 C   0  0  0  0  0  0  0  0  0  0  0  0
    0.3146   -1.5788   -3.1908 C   0  0  0  0  0  0  0  0  0  0  0  0
   -0.4412   -0.9721   -2.2157 C   0  0  0  0  0  0  0  0  0  0  0  0
    0.1131   -0.6429   -0.9790 C   0  0  0  0  0  0  0  0  0  0  0  0
   -0.7297    0.0199    0.0509 C   0  0  0  0  0  0  0  0  0  0  0  0
   -1.2280   -0.6868    1.1478 C   0  0  0  0  0  0  0  0  0  0  0  0
   -0.9397   -2.0400    1.3169 C   0  0  0  0  0  0  0  0  0  0  0  0
   -0.6922   -3.1648    1.4756 N   0  0  0  0  0  0  0  0  0  0  0  0
   -2.0222   -0.0147    2.0982 C   0  0  0  0  0  0  0  0  0  0  0  0
   -2.5060   -0.7223    3.1816 N   0  0  0  0  0  0  0  0  0  0  0  0
   -2.3318    1.2835    2.0009 N   0  0  0  0  0  0  0  0  0  0  0  0
   -1.8555    1.9649    0.9524 C   0  0  0  0  0  0  0  0  0  0  0  0
   -2.1617    3.3073    0.8512 N   0  0  0  0  0  0  0  0  0  0  0  0
   -1.0509    1.3757   -0.0429 C   0  0  0  0  0  0  0  0  0  0  0  0
   -0.5602    2.1520   -1.0912 C   0  0  0  0  0  0  0  0  0  0  0  0
   -0.1392    2.8096   -1.9525 N   0  0  0  0  0  0  0  0  0  0  0  0
    3.3042    1.0885   -0.2372 H   0  0  0  0  0  0  0  0  0  0  0  0
    3.0544    1.1806    1.5051 H   0  0  0  0  0  0  0  0  0  0  0  0
    1.7469    1.5840    0.3968 H   0  0  0  0  0  0  0  0  0  0  0  0
    1.4219   -0.7271    1.3791 H   0  0  0  0  0  0  0  0  0  0  0  0
    2.9659   -1.2178    0.7466 H   0  0  0  0  0  0  0  0  0  0  0  0
    3.2504   -1.7550   -1.5587 H   0  0  0  0  0  0  0  0  0  0  0  0
    2.2366   -2.3370   -3.7173 H   0  0  0  0  0  0  0  0  0  0  0  0
   -0.1298   -1.8272   -4.1408 H   0  0  0  0  0  0  0  0  0  0  0  0
   -1.4765   -0.7393   -2.3964 H   0  0  0  0  0  0  0  0  0  0  0  0
   -2.4224   -1.7252    3.2742 H   0  0  0  0  0  0  0  0  0  0  0  0
   -3.1606   -0.3065    3.8267 H   0  0  0  0  0  0  0  0  0  0  0  0
   -1.8506    3.9026    0.0960 H   0  0  0  0  0  0  0  0  0  0  0  0
   -2.7335    3.7748    1.5381 H   0  0  0  0  0  0  0  0  0  0  0  0
  1  2  1  0  0  0  0
  2  3  1  0  0  0  0
  3  4  2  0  0  0  0
  4  5  1  0  0  0  0
  5  6  2  0  0  0  0
  6  7  1  0  0  0  0
  7  8  2  0  0  0  0
  8  9  1  0  0  0  0
  9 10  2  0  0  0  0
 10 11  1  0  0  0  0
 11 12  3  0  0  0  0
 10 13  1  0  0  0  0
 13 14  1  0  0  0  0
 13 15  2  0  0  0  0
 15 16  1  0  0  0  0
 16 17  1  0  0  0  0
 16 18  2  0  0  0  0
 18 19  1  0  0  0  0
 19 20  3  0  0  0  0
  8  3  1  0  0  0  0
 18  9  1  0  0  0  0
  1 21  1  0  0  0  0
  1 22  1  0  0  0  0
  1 23  1  0  0  0  0
  2 24  1  0  0  0  0
  2 25  1  0  0  0  0
  4 26  1  0  0  0  0
  5 27  1  0  0  0  0
  6 28  1  0  0  0  0
  7 29  1  0  0  0  0
 14 30  1  0  0  0  0
 14 31  1  0  0  0  0
 17 32  1  0  0  0  0
 17 33  1  0  0  0  0
M  END
