
  xtb     03012221293D
 energy: -19.599608354568 gnorm: 0.000365201996 xtb: 6.4.1 (afa7bdf)
 92102  0     0  0            999 V2000
   -4.4795    8.3214   -2.3409 C   0  0  0  0  0  0  0  0  0  0  0  0
   -5.3095    7.2499   -2.7225 O   0  0  0  0  0  0  0  0  0  0  0  0
   -4.8397    5.9964   -2.3737 C   0  0  0  0  0  0  0  0  0  0  0  0
   -5.6407    4.8801   -2.7413 C   0  0  0  0  0  0  0  0  0  0  0  0
   -5.2706    3.6120   -2.4454 C   0  0  0  0  0  0  0  0  0  0  0  0
   -4.0613    3.3543   -1.7521 C   0  0  0  0  0  0  0  0  0  0  0  0
   -3.6511    2.0545   -1.4319 C   0  0  0  0  0  0  0  0  0  0  0  0
   -2.4672    1.8105   -0.7574 C   0  0  0  0  0  0  0  0  0  0  0  0
   -2.0597    0.4524   -0.4404 C   0  0  0  0  0  0  0  0  0  0  0  0
   -0.8319    0.0025   -0.0388 N   0  0  0  0  0  4  0  0  0  0  0  0
   -0.8081   -1.3559    0.1364 C   0  0  0  0  0  0  0  0  0  0  0  0
    0.2125   -2.1264    0.5106 N   0  0  0  0  0  0  0  0  0  0  0  0
    1.3584   -1.4615    0.6522 C   0  0  0  0  0  0  0  0  0  0  0  0
    2.6340   -2.0468    0.9597 C   0  0  0  0  0  0  0  0  0  0  0  0
    2.8721   -3.4488    1.2802 C   0  0  0  0  0  0  0  0  0  0  0  0
    4.1823   -3.9805    1.3540 C   0  0  0  0  0  0  0  0  0  0  0  0
    4.3952   -5.2865    1.6643 C   0  0  0  0  0  0  0  0  0  0  0  0
    3.3108   -6.1564    1.9284 C   0  0  0  0  0  0  0  0  0  0  0  0
    3.4934   -7.5162    2.2535 C   0  0  0  0  0  0  0  0  0  0  0  0
    2.4195   -8.3193    2.5025 C   0  0  0  0  0  0  0  0  0  0  0  0
    1.1174   -7.8080    2.4412 C   0  0  0  0  0  0  0  0  0  0  0  0
    0.9065   -6.5002    2.1306 C   0  0  0  0  0  0  0  0  0  0  0  0
    1.9952   -5.6409    1.8640 C   0  0  0  0  0  0  0  0  0  0  0  0
    1.8116   -4.2886    1.5356 C   0  0  0  0  0  0  0  0  0  0  0  0
    3.5702   -1.0249    0.9174 C   0  0  0  0  0  0  0  0  0  0  0  0
    2.9210    0.1882    0.6207 C   0  0  0  0  0  0  0  0  0  0  0  0
    3.5563    1.4882    0.4962 C   0  0  0  0  0  0  0  0  0  0  0  0
    4.9622    1.5983    0.3627 C   0  0  0  0  0  0  0  0  0  0  0  0
    5.5680    2.8074    0.2415 C   0  0  0  0  0  0  0  0  0  0  0  0
    4.8088    4.0035    0.2450 C   0  0  0  0  0  0  0  0  0  0  0  0
    5.4036    5.2630    0.1200 C   0  0  0  0  0  0  0  0  0  0  0  0
    4.6442    6.4297    0.1253 C   0  0  0  0  0  0  0  0  0  0  0  0
    5.1580    7.7088    0.0097 O   0  0  0  0  0  0  0  0  0  0  0  0
    6.5589    7.7758   -0.1158 C   0  0  0  0  0  0  0  0  0  0  0  0
    3.2330    6.3091    0.2598 C   0  0  0  0  0  0  0  0  0  0  0  0
    2.6324    5.1022    0.3826 C   0  0  0  0  0  0  0  0  0  0  0  0
    3.3999    3.9113    0.3803 C   0  0  0  0  0  0  0  0  0  0  0  0
    2.8107    2.6504    0.5080 C   0  0  0  0  0  0  0  0  0  0  0  0
    1.5975   -0.1247    0.4748 N   0  0  0  0  0  0  0  0  0  0  0  0
    0.4314    0.8220    0.2068 B   0  0  0  0  0  4  0  0  0  0  0  0
    0.7063    1.5769   -0.9263 F   0  0  0  0  0  0  0  0  0  0  0  0
    0.2398    1.6110    1.3345 F   0  0  0  0  0  0  0  0  0  0  0  0
   -2.1325   -1.8123   -0.1832 C   0  0  0  0  0  0  0  0  0  0  0  0
   -2.5879   -3.1982   -0.1926 C   0  0  0  0  0  0  0  0  0  0  0  0
   -1.6507   -4.2556   -0.1429 C   0  0  0  0  0  0  0  0  0  0  0  0
   -2.0369   -5.5558   -0.1724 C   0  0  0  0  0  0  0  0  0  0  0  0
   -3.4072   -5.8948   -0.2466 C   0  0  0  0  0  0  0  0  0  0  0  0
   -3.8496   -7.2331   -0.2729 C   0  0  0  0  0  0  0  0  0  0  0  0
   -5.1804   -7.5215   -0.3447 C   0  0  0  0  0  0  0  0  0  0  0  0
   -6.1292   -6.4934   -0.3935 C   0  0  0  0  0  0  0  0  0  0  0  0
   -5.7351   -5.1911   -0.3702 C   0  0  0  0  0  0  0  0  0  0  0  0
   -4.3648   -4.8531   -0.2963 C   0  0  0  0  0  0  0  0  0  0  0  0
   -3.9273   -3.5153   -0.2713 C   0  0  0  0  0  0  0  0  0  0  0  0
   -2.8735   -0.6925   -0.5287 C   0  0  0  0  0  0  0  0  0  0  0  0
   -1.6734    2.9188   -0.3861 C   0  0  0  0  0  0  0  0  0  0  0  0
   -2.0378    4.1913   -0.6822 C   0  0  0  0  0  0  0  0  0  0  0  0
   -3.2442    4.4521   -1.3757 C   0  0  0  0  0  0  0  0  0  0  0  0
   -3.6499    5.7520   -1.6942 C   0  0  0  0  0  0  0  0  0  0  0  0
   -4.3724    8.3402   -1.2557 H   0  0  0  0  0  0  0  0  0  0  0  0
   -3.5055    8.2265   -2.8224 H   0  0  0  0  0  0  0  0  0  0  0  0
   -4.9458    9.2519   -2.6665 H   0  0  0  0  0  0  0  0  0  0  0  0
   -6.5594    5.0759   -3.2675 H   0  0  0  0  0  0  0  0  0  0  0  0
   -5.8922    2.7823   -2.7339 H   0  0  0  0  0  0  0  0  0  0  0  0
   -4.2697    1.2306   -1.7341 H   0  0  0  0  0  0  0  0  0  0  0  0
    5.0180   -3.3346    1.1510 H   0  0  0  0  0  0  0  0  0  0  0  0
    5.3967   -5.6766    1.7133 H   0  0  0  0  0  0  0  0  0  0  0  0
    4.4929   -7.9113    2.3028 H   0  0  0  0  0  0  0  0  0  0  0  0
    2.5710   -9.3575    2.7505 H   0  0  0  0  0  0  0  0  0  0  0  0
    0.2802   -8.4554    2.6424 H   0  0  0  0  0  0  0  0  0  0  0  0
   -0.0940   -6.1032    2.0861 H   0  0  0  0  0  0  0  0  0  0  0  0
    0.8154   -3.8966    1.4921 H   0  0  0  0  0  0  0  0  0  0  0  0
    4.6195   -1.1348    1.1261 H   0  0  0  0  0  0  0  0  0  0  0  0
    5.5541    0.7008    0.3435 H   0  0  0  0  0  0  0  0  0  0  0  0
    6.6370    2.8716    0.1367 H   0  0  0  0  0  0  0  0  0  0  0  0
    6.4715    5.3164    0.0180 H   0  0  0  0  0  0  0  0  0  0  0  0
    6.8481    8.8242   -0.1960 H   0  0  0  0  0  0  0  0  0  0  0  0
    7.0323    7.3447    0.7672 H   0  0  0  0  0  0  0  0  0  0  0  0
    6.8767    7.2512   -1.0177 H   0  0  0  0  0  0  0  0  0  0  0  0
    2.6516    7.2152    0.2609 H   0  0  0  0  0  0  0  0  0  0  0  0
    1.5631    5.0309    0.4809 H   0  0  0  0  0  0  0  0  0  0  0  0
    1.7485    2.5843    0.6315 H   0  0  0  0  0  0  0  0  0  0  0  0
   -0.6092   -4.0034   -0.0945 H   0  0  0  0  0  0  0  0  0  0  0  0
   -1.3052   -6.3439   -0.1416 H   0  0  0  0  0  0  0  0  0  0  0  0
   -3.1213   -8.0242   -0.2352 H   0  0  0  0  0  0  0  0  0  0  0  0
   -5.5078   -8.5486   -0.3644 H   0  0  0  0  0  0  0  0  0  0  0  0
   -7.1769   -6.7379   -0.4500 H   0  0  0  0  0  0  0  0  0  0  0  0
   -6.4652   -4.3996   -0.4075 H   0  0  0  0  0  0  0  0  0  0  0  0
   -4.6589   -2.7298   -0.3050 H   0  0  0  0  0  0  0  0  0  0  0  0
   -3.9052   -0.7018   -0.8321 H   0  0  0  0  0  0  0  0  0  0  0  0
   -0.7657    2.7322    0.1539 H   0  0  0  0  0  0  0  0  0  0  0  0
   -1.4140    5.0180   -0.3901 H   0  0  0  0  0  0  0  0  0  0  0  0
   -3.0193    6.5707   -1.4013 H   0  0  0  0  0  0  0  0  0  0  0  0
  1  2  1  0  0  0  0
  2  3  1  0  0  0  0
  3  4  2  0  0  0  0
  4  5  1  0  0  0  0
  5  6  2  0  0  0  0
  6  7  1  0  0  0  0
  7  8  2  0  0  0  0
  8  9  1  0  0  0  0
  9 10  2  0  0  0  0
 10 11  1  0  0  0  0
 11 12  2  0  0  0  0
 12 13  1  0  0  0  0
 13 14  2  0  0  0  0
 14 15  1  0  0  0  0
 15 16  2  0  0  0  0
 16 17  1  0  0  0  0
 17 18  2  0  0  0  0
 18 19  1  0  0  0  0
 19 20  2  0  0  0  0
 20 21  1  0  0  0  0
 21 22  2  0  0  0  0
 22 23  1  0  0  0  0
 23 24  2  0  0  0  0
 14 25  1  0  0  0  0
 25 26  2  0  0  0  0
 26 27  1  0  0  0  0
 27 28  2  0  0  0  0
 28 29  1  0  0  0  0
 29 30  2  0  0  0  0
 30 31  1  0  0  0  0
 31 32  2  0  0  0  0
 32 33  1  0  0  0  0
 33 34  1  0  0  0  0
 32 35  1  0  0  0  0
 35 36  2  0  0  0  0
 36 37  1  0  0  0  0
 37 38  2  0  0  0  0
 26 39  1  0  0  0  0
 39 40  1  0  0  0  0
 40 41  1  0  0  0  0
 40 42  1  0  0  0  0
 11 43  1  0  0  0  0
 43 44  1  0  0  0  0
 44 45  2  0  0  0  0
 45 46  1  0  0  0  0
 46 47  2  0  0  0  0
 47 48  1  0  0  0  0
 48 49  2  0  0  0  0
 49 50  1  0  0  0  0
 50 51  2  0  0  0  0
 51 52  1  0  0  0  0
 52 53  2  0  0  0  0
 43 54  2  0  0  0  0
  8 55  1  0  0  0  0
 55 56  2  0  0  0  0
 56 57  1  0  0  0  0
 57 58  2  0  0  0  0
 58  3  1  0  0  0  0
 57  6  1  0  0  0  0
 54  9  1  0  0  0  0
 40 10  1  0  0  0  0
 53 44  1  0  0  0  0
 39 13  1  0  0  0  0
 52 47  1  0  0  0  0
 24 15  1  0  0  0  0
 38 27  1  0  0  0  0
 23 18  1  0  0  0  0
 37 30  1  0  0  0  0
  1 59  1  0  0  0  0
  1 60  1  0  0  0  0
  1 61  1  0  0  0  0
  4 62  1  0  0  0  0
  5 63  1  0  0  0  0
  7 64  1  0  0  0  0
 16 65  1  0  0  0  0
 17 66  1  0  0  0  0
 19 67  1  0  0  0  0
 20 68  1  0  0  0  0
 21 69  1  0  0  0  0
 22 70  1  0  0  0  0
 24 71  1  0  0  0  0
 25 72  1  0  0  0  0
 28 73  1  0  0  0  0
 29 74  1  0  0  0  0
 31 75  1  0  0  0  0
 34 76  1  0  0  0  0
 34 77  1  0  0  0  0
 34 78  1  0  0  0  0
 35 79  1  0  0  0  0
 36 80  1  0  0  0  0
 38 81  1  0  0  0  0
 45 82  1  0  0  0  0
 46 83  1  0  0  0  0
 48 84  1  0  0  0  0
 49 85  1  0  0  0  0
 50 86  1  0  0  0  0
 51 87  1  0  0  0  0
 53 88  1  0  0  0  0
 54 89  1  0  0  0  0
 55 90  1  0  0  0  0
 56 91  1  0  0  0  0
 58 92  1  0  0  0  0
M  CHG  1  10   1
M  CHG  1  40  -1
M  END
