
  xtb     03012221243D
 energy: -5.122100542834 gnorm: 0.000298268622 xtb: 6.4.1 (afa7bdf)
 29 29  0     0  0            999 V2000
    5.0765    1.3417   -1.2164 C   0  0  0  0  0  0  0  0  0  0  0  0
    3.6711    1.7022   -0.7839 C   0  0  0  0  0  0  0  0  0  0  0  0
    2.8264    0.5787   -0.7227 O   0  0  0  0  0  0  0  0  0  0  0  0
    1.5729    0.9677   -0.3348 C   0  0  0  0  0  0  0  0  0  0  0  0
    1.2651    2.1197   -0.0892 O   0  0  0  0  0  0  0  0  0  0  0  0
    0.5540   -0.1022   -0.2162 C   0  0  0  0  0  0  0  0  0  0  0  0
    0.8698   -1.4259   -0.4839 C   0  0  0  0  0  0  0  0  0  0  0  0
   -0.0945   -2.4046   -0.3677 C   0  0  0  0  0  0  0  0  0  0  0  0
   -1.3762   -2.0745    0.0144 C   0  0  0  0  0  0  0  0  0  0  0  0
   -1.7238   -0.7496    0.2904 C   0  0  0  0  0  0  0  0  0  0  0  0
   -3.0329   -0.3995    0.6850 N   0  0  0  0  0  0  0  0  0  0  0  0
   -3.3650    0.9633    1.0961 C   0  0  0  0  0  0  0  0  0  0  0  0
   -4.1144   -1.3822    0.7014 C   0  0  0  0  0  0  0  0  0  0  0  0
   -0.7330    0.2228    0.1662 C   0  0  0  0  0  0  0  0  0  0  0  0
    5.7297    2.2147   -1.2638 H   0  0  0  0  0  0  0  0  0  0  0  0
    5.0667    0.8732   -2.2008 H   0  0  0  0  0  0  0  0  0  0  0  0
    5.5192    0.6253   -0.5241 H   0  0  0  0  0  0  0  0  0  0  0  0
    3.2045    2.4177   -1.4748 H   0  0  0  0  0  0  0  0  0  0  0  0
    3.6591    2.1676    0.2111 H   0  0  0  0  0  0  0  0  0  0  0  0
    1.8748   -1.6708   -0.7816 H   0  0  0  0  0  0  0  0  0  0  0  0
    0.1571   -3.4316   -0.5753 H   0  0  0  0  0  0  0  0  0  0  0  0
   -2.1180   -2.8464    0.1110 H   0  0  0  0  0  0  0  0  0  0  0  0
   -2.6736    1.2994    1.8662 H   0  0  0  0  0  0  0  0  0  0  0  0
   -4.3725    1.0147    1.5030 H   0  0  0  0  0  0  0  0  0  0  0  0
   -3.3030    1.6353    0.2426 H   0  0  0  0  0  0  0  0  0  0  0  0
   -4.1611   -1.9027   -0.2530 H   0  0  0  0  0  0  0  0  0  0  0  0
   -3.9473   -2.1069    1.4957 H   0  0  0  0  0  0  0  0  0  0  0  0
   -5.0760   -0.9024    0.8696 H   0  0  0  0  0  0  0  0  0  0  0  0
   -0.9553    1.2553    0.3609 H   0  0  0  0  0  0  0  0  0  0  0  0
  1  2  1  0  0  0  0
  2  3  1  0  0  0  0
  3  4  1  0  0  0  0
  4  5  2  0  0  0  0
  4  6  1  0  0  0  0
  6  7  2  0  0  0  0
  7  8  1  0  0  0  0
  8  9  2  0  0  0  0
  9 10  1  0  0  0  0
 10 11  1  0  0  0  0
 11 12  1  0  0  0  0
 11 13  1  0  0  0  0
 10 14  2  0  0  0  0
 14  6  1  0  0  0  0
  1 15  1  0  0  0  0
  1 16  1  0  0  0  0
  1 17  1  0  0  0  0
  2 18  1  0  0  0  0
  2 19  1  0  0  0  0
  7 20  1  0  0  0  0
  8 21  1  0  0  0  0
  9 22  1  0  0  0  0
 12 23  1  0  0  0  0
 12 24  1  0  0  0  0
 12 25  1  0  0  0  0
 13 26  1  0  0  0  0
 13 27  1  0  0  0  0
 13 28  1  0  0  0  0
 14 29  1  0  0  0  0
M  END
