
  xtb     03012221313D
 energy: -7.080513516435 gnorm: 0.000291958588 xtb: 6.4.1 (afa7bdf)
 32 34  0     0  0            999 V2000
    7.6875    0.4037   -0.1399 O   0  0  0  0  0  0  0  0  0  0  0  0
    7.0330   -0.1140    0.7743 N   0  0  0  0  0  4  0  0  0  0  0  0
    7.5532   -0.6105    1.7818 O   0  0  0  0  0  1  0  0  0  0  0  0
    5.5756   -0.1400    0.6588 C   0  0  0  0  0  0  0  0  0  0  0  0
    4.8114   -0.7074    1.6588 C   0  0  0  0  0  0  0  0  0  0  0  0
    3.4396   -0.7308    1.5538 C   0  0  0  0  0  0  0  0  0  0  0  0
    2.8042   -0.1855    0.4428 C   0  0  0  0  0  0  0  0  0  0  0  0
    1.3989   -0.2076    0.3384 C   0  0  0  0  0  0  0  0  0  0  0  0
    0.1807   -0.2307    0.2598 C   0  0  0  0  0  0  0  0  0  0  0  0
   -1.2270   -0.2555    0.1835 C   0  0  0  0  0  0  0  0  0  0  0  0
   -1.9695   -1.1200    1.0161 C   0  0  0  0  0  0  0  0  0  0  0  0
   -3.3289   -1.1523    0.9612 C   0  0  0  0  0  0  0  0  0  0  0  0
   -4.0352   -0.3178    0.0658 C   0  0  0  0  0  0  0  0  0  0  0  0
   -5.4447   -0.3227   -0.0148 C   0  0  0  0  0  0  0  0  0  0  0  0
   -6.0925    0.4963   -0.8889 C   0  0  0  0  0  0  0  0  0  0  0  0
   -5.3698    1.3570   -1.7230 C   0  0  0  0  0  0  0  0  0  0  0  0
   -4.0096    1.3878   -1.6718 C   0  0  0  0  0  0  0  0  0  0  0  0
   -3.3037    0.5524   -0.7764 C   0  0  0  0  0  0  0  0  0  0  0  0
   -1.8943    0.5608   -0.6937 C   0  0  0  0  0  0  0  0  0  0  0  0
    3.5856    0.3827   -0.5581 C   0  0  0  0  0  0  0  0  0  0  0  0
    4.9574    0.4042   -0.4493 C   0  0  0  0  0  0  0  0  0  0  0  0
    5.3102   -1.1268    2.5160 H   0  0  0  0  0  0  0  0  0  0  0  0
    2.8426   -1.1721    2.3332 H   0  0  0  0  0  0  0  0  0  0  0  0
   -1.4375   -1.7570    1.7009 H   0  0  0  0  0  0  0  0  0  0  0  0
   -3.8836   -1.8152    1.6021 H   0  0  0  0  0  0  0  0  0  0  0  0
   -6.0013   -0.9839    0.6266 H   0  0  0  0  0  0  0  0  0  0  0  0
   -7.1686    0.4845   -0.9410 H   0  0  0  0  0  0  0  0  0  0  0  0
   -5.8970    1.9990   -2.4095 H   0  0  0  0  0  0  0  0  0  0  0  0
   -3.4553    2.0503   -2.3134 H   0  0  0  0  0  0  0  0  0  0  0  0
   -1.3332    1.2213   -1.3289 H   0  0  0  0  0  0  0  0  0  0  0  0
    3.1025    0.8073   -1.4213 H   0  0  0  0  0  0  0  0  0  0  0  0
    5.5691    0.8427   -1.2194 H   0  0  0  0  0  0  0  0  0  0  0  0
  1  2  2  0  0  0  0
  2  3  1  0  0  0  0
  2  4  1  0  0  0  0
  4  5  2  0  0  0  0
  5  6  1  0  0  0  0
  6  7  2  0  0  0  0
  7  8  1  0  0  0  0
  8  9  3  0  0  0  0
  9 10  1  0  0  0  0
 10 11  2  0  0  0  0
 11 12  1  0  0  0  0
 12 13  2  0  0  0  0
 13 14  1  0  0  0  0
 14 15  2  0  0  0  0
 15 16  1  0  0  0  0
 16 17  2  0  0  0  0
 17 18  1  0  0  0  0
 18 19  2  0  0  0  0
  7 20  1  0  0  0  0
 20 21  2  0  0  0  0
 21  4  1  0  0  0  0
 19 10  1  0  0  0  0
 18 13  1  0  0  0  0
  5 22  1  0  0  0  0
  6 23  1  0  0  0  0
 11 24  1  0  0  0  0
 12 25  1  0  0  0  0
 14 26  1  0  0  0  0
 15 27  1  0  0  0  0
 16 28  1  0  0  0  0
 17 29  1  0  0  0  0
 19 30  1  0  0  0  0
 20 31  1  0  0  0  0
 21 32  1  0  0  0  0
M  CHG  1   2   1
M  CHG  1   3  -1
M  END
