
  xtb     03012221233D
 energy: -11.948151293715 gnorm: 0.000073908365 xtb: 6.4.1 (afa7bdf)
 55 60  0     0  0            999 V2000
   -4.8460    3.8829   -0.4342 C   0  0  0  0  0  0  0  0  0  0  0  0
   -4.0035    3.6595    0.6376 C   0  0  0  0  0  0  0  0  0  0  0  0
   -3.3935    2.4350    0.7922 C   0  0  0  0  0  0  0  0  0  0  0  0
   -3.6151    1.4099   -0.1243 C   0  0  0  0  0  0  0  0  0  0  0  0
   -2.9849    0.1303    0.0391 N   0  0  0  0  0  0  0  0  0  0  0  0
   -3.7109   -1.0640   -0.2897 C   0  0  0  0  0  0  0  0  0  0  0  0
   -5.0693   -1.1727   -0.0023 C   0  0  0  0  0  0  0  0  0  0  0  0
   -5.7659   -2.3156   -0.3248 C   0  0  0  0  0  0  0  0  0  0  0  0
   -5.1198   -3.3699   -0.9410 C   0  0  0  0  0  0  0  0  0  0  0  0
   -3.7730   -3.2767   -1.2342 C   0  0  0  0  0  0  0  0  0  0  0  0
   -3.0743   -2.1350   -0.9123 C   0  0  0  0  0  0  0  0  0  0  0  0
   -1.6385    0.0447    0.5121 C   0  0  0  0  0  0  0  0  0  0  0  0
   -0.7042    1.0294    0.1918 C   0  0  0  0  0  0  0  0  0  0  0  0
    0.5918    0.9398    0.6329 C   0  0  0  0  0  0  0  0  0  0  0  0
    1.0107   -0.1403    1.4154 C   0  0  0  0  0  0  0  0  0  0  0  0
    2.4095   -0.2439    1.8899 C   0  0  0  0  0  0  0  0  0  0  0  0
    2.6705   -0.3866    3.2342 C   0  0  0  0  0  0  0  0  0  0  0  0
    3.9776   -0.4631    3.7174 C   0  0  0  0  0  0  0  0  0  0  0  0
    5.0373   -0.4043    2.8632 C   0  0  0  0  0  0  0  0  0  0  0  0
    4.8519   -0.2782    1.4683 C   0  0  0  0  0  0  0  0  0  0  0  0
    5.9371   -0.2476    0.6751 N   0  0  0  0  0  0  0  0  0  0  0  0
    5.7386   -0.1618   -0.6516 C   0  0  0  0  0  0  0  0  0  0  0  0
    6.8579   -0.1339   -1.5173 C   0  0  0  0  0  0  0  0  0  0  0  0
    6.7058   -0.0592   -2.8675 C   0  0  0  0  0  0  0  0  0  0  0  0
    5.4252   -0.0079   -3.4389 C   0  0  0  0  0  0  0  0  0  0  0  0
    4.3200   -0.0308   -2.6478 C   0  0  0  0  0  0  0  0  0  0  0  0
    4.4433   -0.1065   -1.2369 C   0  0  0  0  0  0  0  0  0  0  0  0
    3.3376   -0.1296   -0.3996 C   0  0  0  0  0  0  0  0  0  0  0  0
    3.5174   -0.2043    0.9703 C   0  0  0  0  0  0  0  0  0  0  0  0
    0.0687   -1.1176    1.7483 C   0  0  0  0  0  0  0  0  0  0  0  0
   -1.2256   -1.0286    1.3015 C   0  0  0  0  0  0  0  0  0  0  0  0
   -4.4682    1.6505   -1.1985 C   0  0  0  0  0  0  0  0  0  0  0  0
   -5.0769    2.8758   -1.3513 C   0  0  0  0  0  0  0  0  0  0  0  0
   -5.3233    4.8416   -0.5543 H   0  0  0  0  0  0  0  0  0  0  0  0
   -3.8250    4.4440    1.3546 H   0  0  0  0  0  0  0  0  0  0  0  0
   -2.7452    2.2505    1.6311 H   0  0  0  0  0  0  0  0  0  0  0  0
   -5.5644   -0.3504    0.4842 H   0  0  0  0  0  0  0  0  0  0  0  0
   -6.8165   -2.3881   -0.0956 H   0  0  0  0  0  0  0  0  0  0  0  0
   -5.6660   -4.2638   -1.1935 H   0  0  0  0  0  0  0  0  0  0  0  0
   -3.2690   -4.0978   -1.7171 H   0  0  0  0  0  0  0  0  0  0  0  0
   -2.0277   -2.0511   -1.1484 H   0  0  0  0  0  0  0  0  0  0  0  0
   -1.0133    1.8577   -0.4215 H   0  0  0  0  0  0  0  0  0  0  0  0
    1.3015    1.7111    0.3882 H   0  0  0  0  0  0  0  0  0  0  0  0
    1.8436   -0.4202    3.9226 H   0  0  0  0  0  0  0  0  0  0  0  0
    4.1472   -0.5651    4.7766 H   0  0  0  0  0  0  0  0  0  0  0  0
    6.0453   -0.4615    3.2359 H   0  0  0  0  0  0  0  0  0  0  0  0
    7.8388   -0.1756   -1.0773 H   0  0  0  0  0  0  0  0  0  0  0  0
    7.5736   -0.0404   -3.5063 H   0  0  0  0  0  0  0  0  0  0  0  0
    5.3216    0.0496   -4.5099 H   0  0  0  0  0  0  0  0  0  0  0  0
    3.3364    0.0087   -3.0827 H   0  0  0  0  0  0  0  0  0  0  0  0
    2.3496   -0.1042   -0.8194 H   0  0  0  0  0  0  0  0  0  0  0  0
    0.3775   -1.9530    2.3522 H   0  0  0  0  0  0  0  0  0  0  0  0
   -1.9443   -1.7848    1.5647 H   0  0  0  0  0  0  0  0  0  0  0  0
   -4.6377    0.8640   -1.9131 H   0  0  0  0  0  0  0  0  0  0  0  0
   -5.7338    3.0498   -2.1878 H   0  0  0  0  0  0  0  0  0  0  0  0
  1  2  2  0  0  0  0
  2  3  1  0  0  0  0
  3  4  2  0  0  0  0
  4  5  1  0  0  0  0
  5  6  1  0  0  0  0
  6  7  2  0  0  0  0
  7  8  1  0  0  0  0
  8  9  2  0  0  0  0
  9 10  1  0  0  0  0
 10 11  2  0  0  0  0
  5 12  1  0  0  0  0
 12 13  2  0  0  0  0
 13 14  1  0  0  0  0
 14 15  2  0  0  0  0
 15 16  1  0  0  0  0
 16 17  2  0  0  0  0
 17 18  1  0  0  0  0
 18 19  2  0  0  0  0
 19 20  1  0  0  0  0
 20 21  2  0  0  0  0
 21 22  1  0  0  0  0
 22 23  2  0  0  0  0
 23 24  1  0  0  0  0
 24 25  2  0  0  0  0
 25 26  1  0  0  0  0
 26 27  2  0  0  0  0
 27 28  1  0  0  0  0
 28 29  2  0  0  0  0
 15 30  1  0  0  0  0
 30 31  2  0  0  0  0
  4 32  1  0  0  0  0
 32 33  2  0  0  0  0
 33  1  1  0  0  0  0
 11  6  1  0  0  0  0
 31 12  1  0  0  0  0
 29 16  1  0  0  0  0
 29 20  1  0  0  0  0
 27 22  1  0  0  0  0
  1 34  1  0  0  0  0
  2 35  1  0  0  0  0
  3 36  1  0  0  0  0
  7 37  1  0  0  0  0
  8 38  1  0  0  0  0
  9 39  1  0  0  0  0
 10 40  1  0  0  0  0
 11 41  1  0  0  0  0
 13 42  1  0  0  0  0
 14 43  1  0  0  0  0
 17 44  1  0  0  0  0
 18 45  1  0  0  0  0
 19 46  1  0  0  0  0
 23 47  1  0  0  0  0
 24 48  1  0  0  0  0
 25 49  1  0  0  0  0
 26 50  1  0  0  0  0
 28 51  1  0  0  0  0
 30 52  1  0  0  0  0
 31 53  1  0  0  0  0
 32 54  1  0  0  0  0
 33 55  1  0  0  0  0
M  END
