
  xtb     03012221233D
 energy: -14.341726803800 gnorm: 0.000208219381 xtb: 6.4.1 (afa7bdf)
 66 74  0     0  0            999 V2000
   -2.4042   -3.4877    0.3312 C   0  0  0  0  0  0  0  0  0  0  0  0
   -1.2385   -4.0987    0.0733 C   0  0  0  0  0  0  0  0  0  0  0  0
   -0.2719   -3.0649   -0.1392 C   0  0  0  0  0  0  0  0  0  0  0  0
   -0.8511   -1.8529    0.0216 N   0  0  0  0  0  0  0  0  0  0  0  0
   -2.1594   -2.0784    0.2838 C   0  0  0  0  0  0  0  0  0  0  0  0
   -3.1717   -1.0957    0.5022 C   0  0  0  0  0  0  0  0  0  0  0  0
   -4.5548   -1.4985    0.6448 C   0  0  0  0  0  0  0  0  0  0  0  0
   -5.6772   -0.7033    0.5440 C   0  0  0  0  0  0  0  0  0  0  0  0
   -6.8985   -1.3636    0.8247 C   0  0  0  0  0  0  0  0  0  0  0  0
   -6.7500   -2.6798    1.1127 C   0  0  0  0  0  0  0  0  0  0  0  0
   -5.0942   -3.1325    0.9681 S   0  0  0  0  0  0  0  0  0  0  0  0
   -2.8206    0.2861    0.5650 C   0  0  0  0  0  0  0  0  0  0  0  0
   -3.6210    1.3351    1.0785 C   0  0  0  0  0  0  0  0  0  0  0  0
   -2.9994    2.5197    0.8180 C   0  0  0  0  0  0  0  0  0  0  0  0
   -1.7815    2.2430    0.1552 C   0  0  0  0  0  0  0  0  0  0  0  0
   -1.6678    0.8706    0.0826 N   0  0  0  0  0  0  0  0  0  0  0  0
   -0.8662    3.2070   -0.3764 C   0  0  0  0  0  0  0  0  0  0  0  0
   -1.3471    4.5035   -0.7909 C   0  0  0  0  0  0  0  0  0  0  0  0
   -2.6596    4.8689   -0.9963 C   0  0  0  0  0  0  0  0  0  0  0  0
   -2.8443    6.2285   -1.3455 C   0  0  0  0  0  0  0  0  0  0  0  0
   -1.6856    6.9266   -1.4350 C   0  0  0  0  0  0  0  0  0  0  0  0
   -0.3439    5.8930   -1.1285 S   0  0  0  0  0  0  0  0  0  0  0  0
    0.5237    2.8918   -0.4062 C   0  0  0  0  0  0  0  0  0  0  0  0
    1.0687    1.7380    0.0392 N   0  0  0  0  0  0  0  0  0  0  0  0
    2.4088    1.9157    0.0312 C   0  0  0  0  0  0  0  0  0  0  0  0
    3.4012    0.9804    0.4803 C   0  0  0  0  0  0  0  0  0  0  0  0
    4.6915    1.4542    0.9244 C   0  0  0  0  0  0  0  0  0  0  0  0
    5.0185    2.7386    1.3009 C   0  0  0  0  0  0  0  0  0  0  0  0
    6.3775    2.9190    1.6546 C   0  0  0  0  0  0  0  0  0  0  0  0
    7.1129    1.7827    1.5765 C   0  0  0  0  0  0  0  0  0  0  0  0
    6.1185    0.4621    1.0966 S   0  0  0  0  0  0  0  0  0  0  0  0
    3.1449   -0.4189    0.3824 C   0  0  0  0  0  0  0  0  0  0  0  0
    4.1049   -1.4563    0.4373 C   0  0  0  0  0  0  0  0  0  0  0  0
    3.4839   -2.6327    0.1554 C   0  0  0  0  0  0  0  0  0  0  0  0
    2.1093   -2.3747   -0.0608 C   0  0  0  0  0  0  0  0  0  0  0  0
    1.9339   -1.0173    0.1050 N   0  0  0  0  0  0  0  0  0  0  0  0
    1.1104   -3.3381   -0.4014 C   0  0  0  0  0  0  0  0  0  0  0  0
    1.5067   -4.6208   -0.9399 C   0  0  0  0  0  0  0  0  0  0  0  0
    0.7085   -5.5359   -1.5920 C   0  0  0  0  0  0  0  0  0  0  0  0
    1.3695   -6.7301   -1.9684 C   0  0  0  0  0  0  0  0  0  0  0  0
    2.6841   -6.7486   -1.6381 C   0  0  0  0  0  0  0  0  0  0  0  0
    3.1306   -5.2628   -0.8935 S   0  0  0  0  0  0  0  0  0  0  0  0
    2.7280    3.2016   -0.5121 C   0  0  0  0  0  0  0  0  0  0  0  0
    1.5601    3.8041   -0.7856 C   0  0  0  0  0  0  0  0  0  0  0  0
   -3.3354   -3.9833    0.5543 H   0  0  0  0  0  0  0  0  0  0  0  0
   -1.0557   -5.1598    0.1127 H   0  0  0  0  0  0  0  0  0  0  0  0
   -5.6445    0.3290    0.2317 H   0  0  0  0  0  0  0  0  0  0  0  0
   -7.8553   -0.8623    0.8153 H   0  0  0  0  0  0  0  0  0  0  0  0
   -7.5414   -3.3619    1.3609 H   0  0  0  0  0  0  0  0  0  0  0  0
   -4.5286    1.2225    1.6474 H   0  0  0  0  0  0  0  0  0  0  0  0
   -3.3423    3.4934    1.1265 H   0  0  0  0  0  0  0  0  0  0  0  0
   -0.8651    0.3701   -0.3201 H   0  0  0  0  0  0  0  0  0  0  0  0
   -3.4817    4.1732   -0.9260 H   0  0  0  0  0  0  0  0  0  0  0  0
   -3.8165    6.6659   -1.5197 H   0  0  0  0  0  0  0  0  0  0  0  0
   -1.5980    7.9681   -1.6814 H   0  0  0  0  0  0  0  0  0  0  0  0
    4.2935    3.5361    1.3605 H   0  0  0  0  0  0  0  0  0  0  0  0
    6.7868    3.8720    1.9564 H   0  0  0  0  0  0  0  0  0  0  0  0
    8.1604    1.6969    1.7964 H   0  0  0  0  0  0  0  0  0  0  0  0
    5.1574   -1.3481    0.6254 H   0  0  0  0  0  0  0  0  0  0  0  0
    3.9683   -3.5916    0.1297 H   0  0  0  0  0  0  0  0  0  0  0  0
    1.0356   -0.5222    0.0255 H   0  0  0  0  0  0  0  0  0  0  0  0
   -0.3240   -5.3441   -1.8419 H   0  0  0  0  0  0  0  0  0  0  0  0
    0.8714   -7.5468   -2.4702 H   0  0  0  0  0  0  0  0  0  0  0  0
    3.3670   -7.5555   -1.8269 H   0  0  0  0  0  0  0  0  0  0  0  0
    3.7122    3.5870   -0.7226 H   0  0  0  0  0  0  0  0  0  0  0  0
    1.4475    4.7838   -1.2136 H   0  0  0  0  0  0  0  0  0  0  0  0
  1  2  2  0  0  0  0
  2  3  1  0  0  0  0
  3  4  2  0  0  0  0
  4  5  1  0  0  0  0
  5  6  2  0  0  0  0
  6  7  1  0  0  0  0
  7  8  2  0  0  0  0
  8  9  1  0  0  0  0
  9 10  2  0  0  0  0
 10 11  1  0  0  0  0
  6 12  1  0  0  0  0
 12 13  2  0  0  0  0
 13 14  1  0  0  0  0
 14 15  2  0  0  0  0
 15 16  1  0  0  0  0
 15 17  1  0  0  0  0
 17 18  1  0  0  0  0
 18 19  2  0  0  0  0
 19 20  1  0  0  0  0
 20 21  2  0  0  0  0
 21 22  1  0  0  0  0
 17 23  2  0  0  0  0
 23 24  1  0  0  0  0
 24 25  2  0  0  0  0
 25 26  1  0  0  0  0
 26 27  1  0  0  0  0
 27 28  2  0  0  0  0
 28 29  1  0  0  0  0
 29 30  2  0  0  0  0
 30 31  1  0  0  0  0
 26 32  2  0  0  0  0
 32 33  1  0  0  0  0
 33 34  2  0  0  0  0
 34 35  1  0  0  0  0
 35 36  1  0  0  0  0
 35 37  2  0  0  0  0
 37 38  1  0  0  0  0
 38 39  2  0  0  0  0
 39 40  1  0  0  0  0
 40 41  2  0  0  0  0
 41 42  1  0  0  0  0
 25 43  1  0  0  0  0
 43 44  2  0  0  0  0
  5  1  1  0  0  0  0
 11  7  1  0  0  0  0
 16 12  1  0  0  0  0
 22 18  1  0  0  0  0
 44 23  1  0  0  0  0
 37  3  1  0  0  0  0
 42 38  1  0  0  0  0
 31 27  1  0  0  0  0
 36 32  1  0  0  0  0
  1 45  1  0  0  0  0
  2 46  1  0  0  0  0
  8 47  1  0  0  0  0
  9 48  1  0  0  0  0
 10 49  1  0  0  0  0
 13 50  1  0  0  0  0
 14 51  1  0  0  0  0
 16 52  1  0  0  0  0
 19 53  1  0  0  0  0
 20 54  1  0  0  0  0
 21 55  1  0  0  0  0
 28 56  1  0  0  0  0
 29 57  1  0  0  0  0
 30 58  1  0  0  0  0
 33 59  1  0  0  0  0
 34 60  1  0  0  0  0
 36 61  1  0  0  0  0
 39 62  1  0  0  0  0
 40 63  1  0  0  0  0
 41 64  1  0  0  0  0
 43 65  1  0  0  0  0
 44 66  1  0  0  0  0
M  END
