
  xtb     03012221323D
 energy: -9.235440494120 gnorm: 0.000291128721 xtb: 6.4.1 (afa7bdf)
 52 54  0     0  0            999 V2000
    3.0507    3.8458   -0.5667 C   0  0  0  0  0  0  0  0  0  0  0  0
    1.7864    3.5547    0.2183 C   0  0  0  0  0  0  0  0  0  0  0  0
    0.5103    3.7968   -0.5813 C   0  0  0  0  0  0  0  0  0  0  0  0
   -0.7091    3.3767    0.1842 C   0  0  0  0  0  0  0  0  0  0  0  0
   -1.3478    4.2265    0.7628 O   0  0  0  0  0  0  0  0  0  0  0  0
   -1.0536    1.9635    0.2344 C   0  0  0  0  0  0  0  0  0  0  0  0
   -2.1561    1.4969    0.9667 C   0  0  0  0  0  0  0  0  0  0  0  0
   -2.4514    0.1122    1.0636 C   0  0  0  0  0  0  0  0  0  0  0  0
   -1.6517   -0.8544    0.4352 C   0  0  0  0  0  0  0  0  0  0  0  0
   -1.9261   -2.2775    0.5535 C   0  0  0  0  0  0  0  0  0  0  0  0
   -2.8451   -2.7073    1.2128 O   0  0  0  0  0  0  0  0  0  0  0  0
   -1.0238   -3.2376   -0.1692 C   0  0  0  0  0  0  0  0  0  0  0  0
   -1.5344   -4.6742   -0.1097 C   0  0  0  0  0  0  0  0  0  0  0  0
   -2.9008   -4.8334   -0.7501 C   0  0  0  0  0  0  0  0  0  0  0  0
   -0.5550   -0.3844   -0.3020 C   0  0  0  0  0  0  0  0  0  0  0  0
   -0.2660    0.9935   -0.4052 C   0  0  0  0  0  0  0  0  0  0  0  0
    0.8652    1.1745   -1.1810 O   0  0  0  0  0  0  0  0  0  0  0  0
    1.3219   -0.1489   -1.5179 C   0  0  0  0  0  0  0  0  0  0  0  0
    2.7056   -0.3860   -0.8954 C   0  0  0  0  0  0  0  0  0  0  0  0
    2.6969   -0.1400    0.5791 C   0  0  0  0  0  0  0  0  0  0  0  0
    3.0241    0.9423    1.0070 O   0  0  0  0  0  0  0  0  0  0  0  0
    2.2850   -1.1714    1.3614 O   0  0  0  0  0  0  0  0  0  0  0  0
    2.2501   -0.7698    2.6945 C   0  0  0  0  0  0  0  0  0  0  0  0
    1.3806   -0.2726   -3.0438 C   0  0  0  0  0  0  0  0  0  0  0  0
    2.4531   -0.2390   -3.5979 O   0  0  0  0  0  0  0  0  0  0  0  0
    0.2124   -0.3864   -3.6945 O   0  0  0  0  0  0  0  0  0  0  0  0
    0.3907   -1.1160   -0.9970 O   0  0  0  0  0  0  0  0  0  0  0  0
   -3.5848   -0.0580    1.8413 O   0  0  0  0  0  0  0  0  0  0  0  0
   -3.9799    1.2466    2.2222 C   0  0  0  0  0  0  0  0  0  0  0  0
   -3.0968    2.2139    1.6869 O   0  0  0  0  0  0  0  0  0  0  0  0
    3.0907    4.8890   -0.8816 H   0  0  0  0  0  0  0  0  0  0  0  0
    3.0986    3.2292   -1.4656 H   0  0  0  0  0  0  0  0  0  0  0  0
    3.9470    3.6363    0.0201 H   0  0  0  0  0  0  0  0  0  0  0  0
    1.7541    4.1498    1.1421 H   0  0  0  0  0  0  0  0  0  0  0  0
    1.7977    2.5069    0.5543 H   0  0  0  0  0  0  0  0  0  0  0  0
    0.4158    4.8560   -0.8394 H   0  0  0  0  0  0  0  0  0  0  0  0
    0.5483    3.2510   -1.5299 H   0  0  0  0  0  0  0  0  0  0  0  0
   -0.9303   -2.9158   -1.2120 H   0  0  0  0  0  0  0  0  0  0  0  0
   -0.0171   -3.1600    0.2578 H   0  0  0  0  0  0  0  0  0  0  0  0
   -0.8104   -5.3534   -0.5830 H   0  0  0  0  0  0  0  0  0  0  0  0
   -1.5852   -4.9816    0.9448 H   0  0  0  0  0  0  0  0  0  0  0  0
   -3.6308   -4.1909   -0.2535 H   0  0  0  0  0  0  0  0  0  0  0  0
   -3.2666   -5.8598   -0.6904 H   0  0  0  0  0  0  0  0  0  0  0  0
   -2.8794   -4.5469   -1.8021 H   0  0  0  0  0  0  0  0  0  0  0  0
    3.4218    0.2844   -1.3732 H   0  0  0  0  0  0  0  0  0  0  0  0
    3.0176   -1.4107   -1.1022 H   0  0  0  0  0  0  0  0  0  0  0  0
    3.2404   -0.4142    2.9802 H   0  0  0  0  0  0  0  0  0  0  0  0
    1.5249    0.0378    2.7970 H   0  0  0  0  0  0  0  0  0  0  0  0
    1.9584   -1.6184    3.3125 H   0  0  0  0  0  0  0  0  0  0  0  0
    0.4139   -0.4333   -4.6485 H   0  0  0  0  0  0  0  0  0  0  0  0
   -3.9672    1.3189    3.3184 H   0  0  0  0  0  0  0  0  0  0  0  0
   -4.9928    1.4386    1.8422 H   0  0  0  0  0  0  0  0  0  0  0  0
  1  2  1  0  0  0  0
  2  3  1  0  0  0  0
  3  4  1  0  0  0  0
  4  5  2  0  0  0  0
  4  6  1  0  0  0  0
  6  7  2  0  0  0  0
  7  8  1  0  0  0  0
  8  9  2  0  0  0  0
  9 10  1  0  0  0  0
 10 11  2  0  0  0  0
 10 12  1  0  0  0  0
 12 13  1  0  0  0  0
 13 14  1  0  0  0  0
  9 15  1  0  0  0  0
 15 16  2  0  0  0  0
 16 17  1  0  0  0  0
 17 18  1  0  0  0  0
 18 19  1  0  0  0  0
 19 20  1  0  0  0  0
 20 21  2  0  0  0  0
 20 22  1  0  0  0  0
 22 23  1  0  0  0  0
 18 24  1  0  0  0  0
 24 25  2  0  0  0  0
 24 26  1  0  0  0  0
 18 27  1  0  0  0  0
  8 28  1  0  0  0  0
 28 29  1  0  0  0  0
 29 30  1  0  0  0  0
 16  6  1  0  0  0  0
 30  7  1  0  0  0  0
 27 15  1  0  0  0  0
  1 31  1  0  0  0  0
  1 32  1  0  0  0  0
  1 33  1  0  0  0  0
  2 34  1  0  0  0  0
  2 35  1  0  0  0  0
  3 36  1  0  0  0  0
  3 37  1  0  0  0  0
 12 38  1  0  0  0  0
 12 39  1  0  0  0  0
 13 40  1  0  0  0  0
 13 41  1  0  0  0  0
 14 42  1  0  0  0  0
 14 43  1  0  0  0  0
 14 44  1  0  0  0  0
 19 45  1  0  0  0  0
 19 46  1  0  0  0  0
 23 47  1  0  0  0  0
 23 48  1  0  0  0  0
 23 49  1  0  0  0  0
 26 50  1  0  0  0  0
 29 51  1  0  0  0  0
 29 52  1  0  0  0  0
M  END
