
  xtb     03012221213D
 energy: -15.098004634647 gnorm: 0.000476480561 xtb: 6.4.1 (afa7bdf)
 77 81  0     0  0            999 V2000
   -2.6526    8.2341   -3.2815 C   0  0  0  0  0  0  0  0  0  0  0  0
   -2.5833    6.8447   -3.2474 O   0  0  0  0  0  0  0  0  0  0  0  0
   -1.8044    6.4545   -2.1998 C   0  0  0  0  0  0  0  0  0  0  0  0
   -1.2687    7.2180   -1.4276 O   0  0  0  0  0  0  0  0  0  0  0  0
   -1.6116    4.9772   -2.0268 C   0  0  0  0  0  0  0  0  0  0  0  0
   -1.7997    4.5517   -0.5765 C   0  0  0  0  0  0  0  0  0  0  0  0
   -1.5910    3.0900   -0.3704 C   0  0  0  0  0  0  0  0  0  0  0  0
   -2.5646    2.1201   -0.3622 C   0  0  0  0  0  0  0  0  0  0  0  0
   -1.9554    0.8438   -0.2031 C   0  0  0  0  0  0  0  0  0  0  0  0
   -2.5078   -0.4230   -0.1253 C   0  0  0  0  0  0  0  0  0  0  0  0
   -2.8852   -1.5868   -0.0286 C   0  0  0  0  0  0  0  0  0  0  0  0
   -3.2426   -2.9258    0.1014 C   0  0  0  0  0  0  0  0  0  0  0  0
   -3.2977   -3.5300    1.3597 C   0  0  0  0  0  0  0  0  0  0  0  0
   -3.6386   -4.8478    1.4887 C   0  0  0  0  0  0  0  0  0  0  0  0
   -3.9407   -5.6367    0.3630 C   0  0  0  0  0  0  0  0  0  0  0  0
   -4.2587   -6.9625    0.5791 O   0  0  0  0  0  0  0  0  0  0  0  0
   -4.6605   -7.6712   -0.5700 C   0  0  0  0  0  0  0  0  0  0  0  0
   -3.8819   -5.0197   -0.9009 C   0  0  0  0  0  0  0  0  0  0  0  0
   -3.5392   -3.7007   -1.0226 C   0  0  0  0  0  0  0  0  0  0  0  0
   -0.6339    1.0838   -0.1331 N   0  0  0  0  0  4  0  0  0  0  0  0
   -0.3253    2.4294   -0.2272 C   0  0  0  0  0  0  0  0  0  0  0  0
    0.9682    2.9192   -0.1820 C   0  0  0  0  0  0  0  0  0  0  0  0
    2.0000    2.0099   -0.0300 C   0  0  0  0  0  0  0  0  0  0  0  0
    3.4218    2.1811    0.0699 C   0  0  0  0  0  0  0  0  0  0  0  0
    4.1500    3.4818    0.0876 C   0  0  0  0  0  0  0  0  0  0  0  0
    4.1755    4.1255    1.4676 C   0  0  0  0  0  0  0  0  0  0  0  0
    4.8892    5.4444    1.4491 C   0  0  0  0  0  0  0  0  0  0  0  0
    4.5975    6.2649    0.6078 O   0  0  0  0  0  0  0  0  0  0  0  0
    5.8375    5.6336    2.4090 O   0  0  0  0  0  0  0  0  0  0  0  0
    6.3957    6.9003    2.2662 C   0  0  0  0  0  0  0  0  0  0  0  0
    3.9765    0.9342    0.2343 C   0  0  0  0  0  0  0  0  0  0  0  0
    2.9422   -0.0429    0.2265 C   0  0  0  0  0  0  0  0  0  0  0  0
    2.9584   -1.4208    0.3555 C   0  0  0  0  0  0  0  0  0  0  0  0
    2.6607   -2.6079    0.4511 C   0  0  0  0  0  0  0  0  0  0  0  0
    2.0389   -3.8500    0.5407 C   0  0  0  0  0  0  0  0  0  0  0  0
    0.6427   -3.8979    0.5740 C   0  0  0  0  0  0  0  0  0  0  0  0
   -0.0213   -5.0908    0.6577 C   0  0  0  0  0  0  0  0  0  0  0  0
    0.6882   -6.3056    0.7154 C   0  0  0  0  0  0  0  0  0  0  0  0
    0.1141   -7.5567    0.8072 O   0  0  0  0  0  0  0  0  0  0  0  0
   -1.2909   -7.5612    0.8606 C   0  0  0  0  0  0  0  0  0  0  0  0
    2.0945   -6.2441    0.6783 C   0  0  0  0  0  0  0  0  0  0  0  0
    2.7524   -5.0484    0.5930 C   0  0  0  0  0  0  0  0  0  0  0  0
    1.7974    0.6458    0.0714 N   0  0  0  0  0  0  0  0  0  0  0  0
    0.4182   -0.0146    0.0087 B   0  0  0  0  0  4  0  0  0  0  0  0
    0.3596   -0.8435   -1.1009 F   0  0  0  0  0  0  0  0  0  0  0  0
    0.1860   -0.7210    1.1784 F   0  0  0  0  0  0  0  0  0  0  0  0
   -3.1007    8.5884   -2.3516 H   0  0  0  0  0  0  0  0  0  0  0  0
   -3.2600    8.5422   -4.1334 H   0  0  0  0  0  0  0  0  0  0  0  0
   -1.6416    8.6349   -3.3750 H   0  0  0  0  0  0  0  0  0  0  0  0
   -2.3142    4.4453   -2.6748 H   0  0  0  0  0  0  0  0  0  0  0  0
   -0.6100    4.7061   -2.3732 H   0  0  0  0  0  0  0  0  0  0  0  0
   -1.1088    5.1161    0.0584 H   0  0  0  0  0  0  0  0  0  0  0  0
   -2.8020    4.8312   -0.2364 H   0  0  0  0  0  0  0  0  0  0  0  0
   -3.6214    2.2938   -0.4665 H   0  0  0  0  0  0  0  0  0  0  0  0
   -3.0631   -2.9405    2.2292 H   0  0  0  0  0  0  0  0  0  0  0  0
   -3.6857   -5.3105    2.4596 H   0  0  0  0  0  0  0  0  0  0  0  0
   -3.8404   -7.7216   -1.2870 H   0  0  0  0  0  0  0  0  0  0  0  0
   -5.5308   -7.1879   -1.0157 H   0  0  0  0  0  0  0  0  0  0  0  0
   -4.9321   -8.6845   -0.2720 H   0  0  0  0  0  0  0  0  0  0  0  0
   -4.1017   -5.5927   -1.7842 H   0  0  0  0  0  0  0  0  0  0  0  0
   -3.4897   -3.2405   -1.9944 H   0  0  0  0  0  0  0  0  0  0  0  0
    1.1646    3.9711   -0.2575 H   0  0  0  0  0  0  0  0  0  0  0  0
    3.6884    4.1727   -0.6255 H   0  0  0  0  0  0  0  0  0  0  0  0
    5.1739    3.3342   -0.2706 H   0  0  0  0  0  0  0  0  0  0  0  0
    4.6632    3.4636    2.1890 H   0  0  0  0  0  0  0  0  0  0  0  0
    3.1555    4.2783    1.8319 H   0  0  0  0  0  0  0  0  0  0  0  0
    6.8542    6.9751    1.2787 H   0  0  0  0  0  0  0  0  0  0  0  0
    7.1468    7.0508    3.0427 H   0  0  0  0  0  0  0  0  0  0  0  0
    5.6042    7.6464    2.3583 H   0  0  0  0  0  0  0  0  0  0  0  0
    5.0247    0.7268    0.3614 H   0  0  0  0  0  0  0  0  0  0  0  0
    0.1031   -2.9657    0.5345 H   0  0  0  0  0  0  0  0  0  0  0  0
   -1.0960   -5.0975    0.6787 H   0  0  0  0  0  0  0  0  0  0  0  0
   -1.6311   -7.0160    1.7417 H   0  0  0  0  0  0  0  0  0  0  0  0
   -1.6953   -7.1153   -0.0485 H   0  0  0  0  0  0  0  0  0  0  0  0
   -1.6325   -8.5946    0.9307 H   0  0  0  0  0  0  0  0  0  0  0  0
    2.6412   -7.1706    0.7201 H   0  0  0  0  0  0  0  0  0  0  0  0
    3.8276   -5.0175    0.5653 H   0  0  0  0  0  0  0  0  0  0  0  0
  1  2  1  0  0  0  0
  2  3  1  0  0  0  0
  3  4  2  0  0  0  0
  3  5  1  0  0  0  0
  5  6  1  0  0  0  0
  6  7  1  0  0  0  0
  7  8  2  0  0  0  0
  8  9  1  0  0  0  0
  9 10  1  0  0  0  0
 10 11  3  0  0  0  0
 11 12  1  0  0  0  0
 12 13  2  0  0  0  0
 13 14  1  0  0  0  0
 14 15  2  0  0  0  0
 15 16  1  0  0  0  0
 16 17  1  0  0  0  0
 15 18  1  0  0  0  0
 18 19  2  0  0  0  0
  9 20  2  0  0  0  0
 20 21  1  0  0  0  0
 21 22  2  0  0  0  0
 22 23  1  0  0  0  0
 23 24  2  0  0  0  0
 24 25  1  0  0  0  0
 25 26  1  0  0  0  0
 26 27  1  0  0  0  0
 27 28  2  0  0  0  0
 27 29  1  0  0  0  0
 29 30  1  0  0  0  0
 24 31  1  0  0  0  0
 31 32  2  0  0  0  0
 32 33  1  0  0  0  0
 33 34  3  0  0  0  0
 34 35  1  0  0  0  0
 35 36  2  0  0  0  0
 36 37  1  0  0  0  0
 37 38  2  0  0  0  0
 38 39  1  0  0  0  0
 39 40  1  0  0  0  0
 38 41  1  0  0  0  0
 41 42  2  0  0  0  0
 32 43  1  0  0  0  0
 43 44  1  0  0  0  0
 44 45  1  0  0  0  0
 44 46  1  0  0  0  0
 21  7  1  0  0  0  0
 43 23  1  0  0  0  0
 19 12  1  0  0  0  0
 44 20  1  0  0  0  0
 42 35  1  0  0  0  0
  1 47  1  0  0  0  0
  1 48  1  0  0  0  0
  1 49  1  0  0  0  0
  5 50  1  0  0  0  0
  5 51  1  0  0  0  0
  6 52  1  0  0  0  0
  6 53  1  0  0  0  0
  8 54  1  0  0  0  0
 13 55  1  0  0  0  0
 14 56  1  0  0  0  0
 17 57  1  0  0  0  0
 17 58  1  0  0  0  0
 17 59  1  0  0  0  0
 18 60  1  0  0  0  0
 19 61  1  0  0  0  0
 22 62  1  0  0  0  0
 25 63  1  0  0  0  0
 25 64  1  0  0  0  0
 26 65  1  0  0  0  0
 26 66  1  0  0  0  0
 30 67  1  0  0  0  0
 30 68  1  0  0  0  0
 30 69  1  0  0  0  0
 31 70  1  0  0  0  0
 36 71  1  0  0  0  0
 37 72  1  0  0  0  0
 40 73  1  0  0  0  0
 40 74  1  0  0  0  0
 40 75  1  0  0  0  0
 41 76  1  0  0  0  0
 42 77  1  0  0  0  0
M  CHG  1  20   1
M  CHG  1  44  -1
M  END
