
  xtb     03012221313D
 energy: -7.309421028934 gnorm: 0.000171972445 xtb: 6.4.1 (afa7bdf)
 47 47  0     0  0            999 V2000
    8.0642    1.8700   -0.5661 C   0  0  0  0  0  0  0  0  0  0  0  0
    8.3717    0.6211   -0.8330 C   0  0  0  0  0  0  0  0  0  0  0  0
    7.7330   -0.1142   -1.9559 C   0  0  0  0  0  0  0  0  0  0  0  0
    6.4247    0.3486   -2.2320 O   0  0  0  0  0  0  0  0  0  0  0  0
    5.4913   -0.0929   -1.3021 C   0  0  0  0  0  0  0  0  0  0  0  0
    5.8867   -0.9019   -0.3344 N   0  0  0  0  0  0  0  0  0  0  0  0
    5.0160   -1.2890    0.5123 N   0  0  0  0  0  0  0  0  0  0  0  0
    3.7715   -0.8544    0.3723 C   0  0  0  0  0  0  0  0  0  0  0  0
    2.8396   -1.2910    1.3035 O   0  0  0  0  0  0  0  0  0  0  0  0
    1.5479   -0.7589    1.0893 C   0  0  0  0  0  0  0  0  0  0  0  0
    0.8650   -1.3217   -0.1394 C   0  0  0  0  0  0  0  0  0  0  0  0
   -0.5584   -0.7870   -0.2955 C   0  0  0  0  0  0  0  0  0  0  0  0
   -1.0791   -1.2723   -1.4347 F   0  0  0  0  0  0  0  0  0  0  0  0
   -0.5111    0.5547   -0.3228 F   0  0  0  0  0  0  0  0  0  0  0  0
   -1.4127   -1.2580    0.9158 C   0  0  0  0  0  0  0  0  0  0  0  0
   -0.9722   -0.6349    2.0094 F   0  0  0  0  0  0  0  0  0  0  0  0
   -1.2322   -2.5750    1.0390 F   0  0  0  0  0  0  0  0  0  0  0  0
   -2.9323   -0.9979    0.7519 C   0  0  0  0  0  0  0  0  0  0  0  0
   -3.5295   -1.4320    1.8682 F   0  0  0  0  0  0  0  0  0  0  0  0
   -3.3625   -1.6950   -0.3060 F   0  0  0  0  0  0  0  0  0  0  0  0
   -3.2687    0.5077    0.5402 C   0  0  0  0  0  0  0  0  0  0  0  0
   -3.0562    0.8200   -0.7434 F   0  0  0  0  0  0  0  0  0  0  0  0
   -2.4818    1.2470    1.3310 F   0  0  0  0  0  0  0  0  0  0  0  0
   -4.7358    0.8787    0.8951 C   0  0  0  0  0  0  0  0  0  0  0  0
   -4.8576    2.1886    0.6632 F   0  0  0  0  0  0  0  0  0  0  0  0
   -4.9476    0.6190    2.1884 F   0  0  0  0  0  0  0  0  0  0  0  0
   -5.7867    0.1172    0.0418 C   0  0  0  0  0  0  0  0  0  0  0  0
   -5.5534    0.3427   -1.2555 F   0  0  0  0  0  0  0  0  0  0  0  0
   -5.6924   -1.1910    0.3043 F   0  0  0  0  0  0  0  0  0  0  0  0
   -7.2478    0.5238    0.3741 C   0  0  0  0  0  0  0  0  0  0  0  0
   -8.0499   -0.2242   -0.3881 F   0  0  0  0  0  0  0  0  0  0  0  0
   -7.4824    0.2697    1.6636 F   0  0  0  0  0  0  0  0  0  0  0  0
   -7.5875    2.0172    0.1002 C   0  0  0  0  0  0  0  0  0  0  0  0
   -7.2024    2.7624    1.1462 F   0  0  0  0  0  0  0  0  0  0  0  0
   -6.9715    2.4286   -1.0164 F   0  0  0  0  0  0  0  0  0  0  0  0
   -8.9159    2.1239   -0.0531 F   0  0  0  0  0  0  0  0  0  0  0  0
    3.3766   -0.0442   -0.5928 N   0  0  0  0  0  0  0  0  0  0  0  0
    4.2448    0.3369   -1.4447 N   0  0  0  0  0  0  0  0  0  0  0  0
    8.5213    2.4117    0.2397 H   0  0  0  0  0  0  0  0  0  0  0  0
    7.3215    2.3789   -1.1497 H   0  0  0  0  0  0  0  0  0  0  0  0
    9.1197    0.1140   -0.2423 H   0  0  0  0  0  0  0  0  0  0  0  0
    7.6670   -1.1921   -1.7564 H   0  0  0  0  0  0  0  0  0  0  0  0
    8.3079    0.0208   -2.8811 H   0  0  0  0  0  0  0  0  0  0  0  0
    1.6312    0.3351    1.0314 H   0  0  0  0  0  0  0  0  0  0  0  0
    0.9685   -0.9955    1.9919 H   0  0  0  0  0  0  0  0  0  0  0  0
    1.4251   -1.0554   -1.0405 H   0  0  0  0  0  0  0  0  0  0  0  0
    0.8323   -2.4145   -0.0868 H   0  0  0  0  0  0  0  0  0  0  0  0
  1  2  2  0  0  0  0
  2  3  1  0  0  0  0
  3  4  1  0  0  0  0
  4  5  1  0  0  0  0
  5  6  2  0  0  0  0
  6  7  1  0  0  0  0
  7  8  2  0  0  0  0
  8  9  1  0  0  0  0
  9 10  1  0  0  0  0
 10 11  1  0  0  0  0
 11 12  1  0  0  0  0
 12 13  1  0  0  0  0
 12 14  1  0  0  0  0
 12 15  1  0  0  0  0
 15 16  1  0  0  0  0
 15 17  1  0  0  0  0
 15 18  1  0  0  0  0
 18 19  1  0  0  0  0
 18 20  1  0  0  0  0
 18 21  1  0  0  0  0
 21 22  1  0  0  0  0
 21 23  1  0  0  0  0
 21 24  1  0  0  0  0
 24 25  1  0  0  0  0
 24 26  1  0  0  0  0
 24 27  1  0  0  0  0
 27 28  1  0  0  0  0
 27 29  1  0  0  0  0
 27 30  1  0  0  0  0
 30 31  1  0  0  0  0
 30 32  1  0  0  0  0
 30 33  1  0  0  0  0
 33 34  1  0  0  0  0
 33 35  1  0  0  0  0
 33 36  1  0  0  0  0
  8 37  1  0  0  0  0
 37 38  2  0  0  0  0
 38  5  1  0  0  0  0
  1 39  1  0  0  0  0
  1 40  1  0  0  0  0
  2 41  1  0  0  0  0
  3 42  1  0  0  0  0
  3 43  1  0  0  0  0
 10 44  1  0  0  0  0
 10 45  1  0  0  0  0
 11 46  1  0  0  0  0
 11 47  1  0  0  0  0
M  END
