
  xtb     03012221243D
 energy: -14.324434878332 gnorm: 0.000247573071 xtb: 6.4.1 (afa7bdf)
 77 81  0     0  0            999 V2000
   12.7289   -0.4554    1.8770 C   0  0  0  0  0  0  0  0  0  0  0  0
   12.3873   -0.1280    0.4400 C   0  0  0  0  0  0  0  0  0  0  0  0
   11.1774    0.7066    0.3362 N   0  0  0  0  0  0  0  0  0  0  0  0
   11.4236    2.1509    0.1760 C   0  0  0  0  0  0  0  0  0  0  0  0
   11.3085    2.5905   -1.2672 C   0  0  0  0  0  0  0  0  0  0  0  0
    9.8834    0.1671    0.3840 C   0  0  0  0  0  0  0  0  0  0  0  0
    9.6715   -1.2181    0.5390 C   0  0  0  0  0  0  0  0  0  0  0  0
    8.4134   -1.7458    0.5749 C   0  0  0  0  0  0  0  0  0  0  0  0
    7.2840   -0.9165    0.4597 C   0  0  0  0  0  0  0  0  0  0  0  0
    5.9746   -1.4165    0.4865 C   0  0  0  0  0  0  0  0  0  0  0  0
    4.8883   -0.5842    0.3781 C   0  0  0  0  0  0  0  0  0  0  0  0
    3.5800   -1.1383    0.4100 C   0  0  0  0  0  0  0  0  0  0  0  0
    2.4168   -0.4446    0.3575 C   0  0  0  0  0  0  0  0  0  0  0  0
    1.1679   -1.1135    0.3947 C   0  0  0  0  0  0  0  0  0  0  0  0
   -0.0277   -0.4104    0.3727 C   0  0  0  0  0  0  0  0  0  0  0  0
   -1.2289   -1.1025    0.3255 C   0  0  0  0  0  0  0  0  0  0  0  0
   -2.4677   -0.4213    0.2273 C   0  0  0  0  0  0  0  0  0  0  0  0
   -3.6377   -1.1041    0.1843 C   0  0  0  0  0  0  0  0  0  0  0  0
   -4.9370   -0.5348    0.0985 C   0  0  0  0  0  0  0  0  0  0  0  0
   -6.0334   -1.3604    0.0694 C   0  0  0  0  0  0  0  0  0  0  0  0
   -7.3349   -0.8449   -0.0052 C   0  0  0  0  0  0  0  0  0  0  0  0
   -8.4744   -1.6677   -0.0390 C   0  0  0  0  0  0  0  0  0  0  0  0
   -9.7241   -1.1239   -0.1107 C   0  0  0  0  0  0  0  0  0  0  0  0
   -9.9177    0.2721   -0.1513 C   0  0  0  0  0  0  0  0  0  0  0  0
  -11.2033    0.8286   -0.2337 N   0  0  0  0  0  0  0  0  0  0  0  0
  -12.4027    0.0011   -0.4622 C   0  0  0  0  0  0  0  0  0  0  0  0
  -12.4785   -0.5275   -1.8784 C   0  0  0  0  0  0  0  0  0  0  0  0
  -11.4280    2.2855   -0.1797 C   0  0  0  0  0  0  0  0  0  0  0  0
  -11.2254    2.9538   -1.5221 C   0  0  0  0  0  0  0  0  0  0  0  0
   -8.7851    1.0826   -0.1106 C   0  0  0  0  0  0  0  0  0  0  0  0
   -7.5011    0.5590   -0.0442 C   0  0  0  0  0  0  0  0  0  0  0  0
   -6.4207    1.4261   -0.0224 O   0  0  0  0  0  0  0  0  0  0  0  0
   -5.1385    0.9187    0.0425 C   0  0  0  0  0  0  0  0  0  0  0  0
   -4.1624    1.6525    0.0531 O   0  0  0  0  0  0  0  0  0  0  0  0
   -1.2396   -2.4609    0.3565 O   0  0  0  0  0  3  0  0  0  0  0  0
   -0.0570   -3.1350    0.8987 B   0  0  0  0  0  4  0  0  0  0  0  0
   -0.1032   -3.0285    2.2781 F   0  0  0  0  0  0  0  0  0  0  0  0
   -0.0499   -4.4628    0.5179 F   0  0  0  0  0  0  0  0  0  0  0  0
    1.1652   -2.4714    0.4380 O   0  0  0  0  0  0  0  0  0  0  0  0
    5.1094    0.8599    0.2305 C   0  0  0  0  0  0  0  0  0  0  0  0
    4.1425    1.6001    0.1371 O   0  0  0  0  0  0  0  0  0  0  0  0
    6.3992    1.3512    0.1975 O   0  0  0  0  0  0  0  0  0  0  0  0
    7.4687    0.4777    0.3105 C   0  0  0  0  0  0  0  0  0  0  0  0
    8.7606    0.9847    0.2757 C   0  0  0  0  0  0  0  0  0  0  0  0
   12.9109    0.4547    2.4506 H   0  0  0  0  0  0  0  0  0  0  0  0
   11.9077   -0.9795    2.3676 H   0  0  0  0  0  0  0  0  0  0  0  0
   13.6192   -1.0826    1.9563 H   0  0  0  0  0  0  0  0  0  0  0  0
   12.2408   -1.0338   -0.1561 H   0  0  0  0  0  0  0  0  0  0  0  0
   13.2154    0.4000   -0.0445 H   0  0  0  0  0  0  0  0  0  0  0  0
   10.7285    2.6977    0.8206 H   0  0  0  0  0  0  0  0  0  0  0  0
   12.4185    2.3795    0.5723 H   0  0  0  0  0  0  0  0  0  0  0  0
   11.4805    3.6622   -1.3863 H   0  0  0  0  0  0  0  0  0  0  0  0
   10.3202    2.3661   -1.6708 H   0  0  0  0  0  0  0  0  0  0  0  0
   12.0322    2.0657   -1.8927 H   0  0  0  0  0  0  0  0  0  0  0  0
   10.5184   -1.8743    0.6336 H   0  0  0  0  0  0  0  0  0  0  0  0
    8.2712   -2.8052    0.6921 H   0  0  0  0  0  0  0  0  0  0  0  0
    5.8224   -2.4744    0.5969 H   0  0  0  0  0  0  0  0  0  0  0  0
    3.4951   -2.2085    0.4898 H   0  0  0  0  0  0  0  0  0  0  0  0
    2.4386    0.6298    0.2916 H   0  0  0  0  0  0  0  0  0  0  0  0
   -0.0220    0.6636    0.3457 H   0  0  0  0  0  0  0  0  0  0  0  0
   -2.4765    0.6548    0.1948 H   0  0  0  0  0  0  0  0  0  0  0  0
   -3.5668   -2.1775    0.2262 H   0  0  0  0  0  0  0  0  0  0  0  0
   -5.8958   -2.4254    0.1069 H   0  0  0  0  0  0  0  0  0  0  0  0
   -8.3469   -2.7348   -0.0058 H   0  0  0  0  0  0  0  0  0  0  0  0
  -10.5799   -1.7752   -0.1260 H   0  0  0  0  0  0  0  0  0  0  0  0
  -13.2913    0.5963   -0.2292 H   0  0  0  0  0  0  0  0  0  0  0  0
  -12.4043   -0.8124    0.2699 H   0  0  0  0  0  0  0  0  0  0  0  0
  -11.5961   -1.1171   -2.1295 H   0  0  0  0  0  0  0  0  0  0  0  0
  -13.3553   -1.1595   -2.0345 H   0  0  0  0  0  0  0  0  0  0  0  0
  -12.5279    0.2892   -2.5995 H   0  0  0  0  0  0  0  0  0  0  0  0
  -12.4392    2.4716    0.1960 H   0  0  0  0  0  0  0  0  0  0  0  0
  -10.7633    2.7073    0.5809 H   0  0  0  0  0  0  0  0  0  0  0  0
  -11.9432    2.5854   -2.2560 H   0  0  0  0  0  0  0  0  0  0  0  0
  -11.3420    4.0379   -1.4625 H   0  0  0  0  0  0  0  0  0  0  0  0
  -10.2308    2.7488   -1.9200 H   0  0  0  0  0  0  0  0  0  0  0  0
   -8.8776    2.1517   -0.1394 H   0  0  0  0  0  0  0  0  0  0  0  0
    8.8674    2.0465    0.1595 H   0  0  0  0  0  0  0  0  0  0  0  0
  1  2  1  0  0  0  0
  2  3  1  0  0  0  0
  3  4  1  0  0  0  0
  4  5  1  0  0  0  0
  3  6  1  0  0  0  0
  6  7  2  0  0  0  0
  7  8  1  0  0  0  0
  8  9  2  0  0  0  0
  9 10  1  0  0  0  0
 10 11  2  0  0  0  0
 11 12  1  0  0  0  0
 12 13  2  0  0  0  0
 13 14  1  0  0  0  0
 14 15  2  0  0  0  0
 15 16  1  0  0  0  0
 16 17  1  0  0  0  0
 17 18  2  0  0  0  0
 18 19  1  0  0  0  0
 19 20  2  0  0  0  0
 20 21  1  0  0  0  0
 21 22  2  0  0  0  0
 22 23  1  0  0  0  0
 23 24  2  0  0  0  0
 24 25  1  0  0  0  0
 25 26  1  0  0  0  0
 26 27  1  0  0  0  0
 25 28  1  0  0  0  0
 28 29  1  0  0  0  0
 24 30  1  0  0  0  0
 30 31  2  0  0  0  0
 31 32  1  0  0  0  0
 32 33  1  0  0  0  0
 33 34  2  0  0  0  0
 16 35  2  0  0  0  0
 35 36  1  0  0  0  0
 36 37  1  0  0  0  0
 36 38  1  0  0  0  0
 36 39  1  0  0  0  0
 11 40  1  0  0  0  0
 40 41  2  0  0  0  0
 40 42  1  0  0  0  0
 42 43  1  0  0  0  0
 43 44  2  0  0  0  0
 44  6  1  0  0  0  0
 43  9  1  0  0  0  0
 39 14  1  0  0  0  0
 33 19  1  0  0  0  0
 31 21  1  0  0  0  0
  1 45  1  0  0  0  0
  1 46  1  0  0  0  0
  1 47  1  0  0  0  0
  2 48  1  0  0  0  0
  2 49  1  0  0  0  0
  4 50  1  0  0  0  0
  4 51  1  0  0  0  0
  5 52  1  0  0  0  0
  5 53  1  0  0  0  0
  5 54  1  0  0  0  0
  7 55  1  0  0  0  0
  8 56  1  0  0  0  0
 10 57  1  0  0  0  0
 12 58  1  0  0  0  0
 13 59  1  0  0  0  0
 15 60  1  0  0  0  0
 17 61  1  0  0  0  0
 18 62  1  0  0  0  0
 20 63  1  0  0  0  0
 22 64  1  0  0  0  0
 23 65  1  0  0  0  0
 26 66  1  0  0  0  0
 26 67  1  0  0  0  0
 27 68  1  0  0  0  0
 27 69  1  0  0  0  0
 27 70  1  0  0  0  0
 28 71  1  0  0  0  0
 28 72  1  0  0  0  0
 29 73  1  0  0  0  0
 29 74  1  0  0  0  0
 29 75  1  0  0  0  0
 30 76  1  0  0  0  0
 44 77  1  0  0  0  0
M  CHG  1  35   1
M  CHG  1  36  -1
M  END
