
  xtb     03012221283D
 energy: -21.511783660724 gnorm: 0.000297417780 xtb: 6.4.1 (afa7bdf)
 96107  0     0  0            999 V2000
   -5.5925    0.0954   -0.2540 N   0  0  0  0  0  0  0  0  0  0  0  0
   -4.4320    0.0260   -0.2353 C   0  0  0  0  0  0  0  0  0  0  0  0
   -3.0397   -0.0593   -0.2123 C   0  0  0  0  0  0  0  0  0  0  0  0
   -2.2539    1.0981   -0.0779 C   0  0  0  0  0  0  0  0  0  0  0  0
   -2.8449    2.3997    0.0740 N   0  0  0  0  0  0  0  0  0  0  0  0
   -3.7678    3.0292   -0.7851 C   0  0  0  0  0  0  0  0  0  0  0  0
   -4.3660    2.5881   -1.9647 C   0  0  0  0  0  0  0  0  0  0  0  0
   -5.2397    3.4223   -2.6164 C   0  0  0  0  0  0  0  0  0  0  0  0
   -5.5244    4.6964   -2.1185 C   0  0  0  0  0  0  0  0  0  0  0  0
   -4.9376    5.1525   -0.9639 C   0  0  0  0  0  0  0  0  0  0  0  0
   -4.0487    4.3137   -0.2893 C   0  0  0  0  0  0  0  0  0  0  0  0
   -3.2693    4.4890    0.9110 C   0  0  0  0  0  0  0  0  0  0  0  0
   -3.1459    5.5517    1.8077 C   0  0  0  0  0  0  0  0  0  0  0  0
   -2.2986    5.4126    2.8796 C   0  0  0  0  0  0  0  0  0  0  0  0
   -1.5725    4.2350    3.0765 C   0  0  0  0  0  0  0  0  0  0  0  0
   -1.6842    3.1818    2.2034 C   0  0  0  0  0  0  0  0  0  0  0  0
   -2.5375    3.3063    1.1076 C   0  0  0  0  0  0  0  0  0  0  0  0
   -0.8752    0.9850   -0.0416 C   0  0  0  0  0  0  0  0  0  0  0  0
   -0.2449   -0.2480   -0.1314 C   0  0  0  0  0  0  0  0  0  0  0  0
    1.1888   -0.3381    0.0038 N   0  0  0  0  0  0  0  0  0  0  0  0
    1.7728   -0.0970    1.2775 C   0  0  0  0  0  0  0  0  0  0  0  0
    0.9626    0.0151    2.4056 C   0  0  0  0  0  0  0  0  0  0  0  0
    1.5006    0.2522    3.6475 C   0  0  0  0  0  0  0  0  0  0  0  0
    2.8664    0.3784    3.7849 C   0  0  0  0  0  0  0  0  0  0  0  0
    3.6822    0.2663    2.6775 C   0  0  0  0  0  0  0  0  0  0  0  0
    3.1597    0.0253    1.4182 C   0  0  0  0  0  0  0  0  0  0  0  0
    4.0836   -0.0127    0.1943 C   0  0  0  0  0  0  0  0  0  0  0  0
    5.3309   -0.8224    0.5870 C   0  0  0  0  0  0  0  0  0  0  0  0
    5.2710   -2.2083    0.6030 C   0  0  0  0  0  0  0  0  0  0  0  0
    6.3528   -2.9621    1.0091 C   0  0  0  0  0  0  0  0  0  0  0  0
    7.5108   -2.3392    1.4236 C   0  0  0  0  0  0  0  0  0  0  0  0
    7.5787   -0.9621    1.4386 C   0  0  0  0  0  0  0  0  0  0  0  0
    6.4952   -0.2114    1.0305 C   0  0  0  0  0  0  0  0  0  0  0  0
    4.4285    1.4271   -0.2245 C   0  0  0  0  0  0  0  0  0  0  0  0
    3.6222    2.4900    0.1589 C   0  0  0  0  0  0  0  0  0  0  0  0
    3.8929    3.7771   -0.2571 C   0  0  0  0  0  0  0  0  0  0  0  0
    4.9715    4.0233   -1.0794 C   0  0  0  0  0  0  0  0  0  0  0  0
    5.7702    2.9772   -1.4895 C   0  0  0  0  0  0  0  0  0  0  0  0
    5.4952    1.6911   -1.0716 C   0  0  0  0  0  0  0  0  0  0  0  0
    3.3964   -0.6698   -1.0107 C   0  0  0  0  0  0  0  0  0  0  0  0
    4.1497   -1.1177   -2.0831 C   0  0  0  0  0  0  0  0  0  0  0  0
    3.5525   -1.6169   -3.2226 C   0  0  0  0  0  0  0  0  0  0  0  0
    2.1780   -1.6627   -3.3137 C   0  0  0  0  0  0  0  0  0  0  0  0
    1.4132   -1.2255   -2.2592 C   0  0  0  0  0  0  0  0  0  0  0  0
    1.9999   -0.7422   -1.0920 C   0  0  0  0  0  0  0  0  0  0  0  0
   -1.0272   -1.3871   -0.2651 C   0  0  0  0  0  0  0  0  0  0  0  0
   -2.4086   -1.3113   -0.3073 C   0  0  0  0  0  0  0  0  0  0  0  0
   -3.1682   -2.5255   -0.4383 N   0  0  0  0  0  0  0  0  0  0  0  0
   -3.0082   -3.4833   -1.4583 C   0  0  0  0  0  0  0  0  0  0  0  0
   -2.1858   -3.4840   -2.5837 C   0  0  0  0  0  0  0  0  0  0  0  0
   -2.2305   -4.5609   -3.4337 C   0  0  0  0  0  0  0  0  0  0  0  0
   -3.0832   -5.6395   -3.1836 C   0  0  0  0  0  0  0  0  0  0  0  0
   -3.9027   -5.6543   -2.0816 C   0  0  0  0  0  0  0  0  0  0  0  0
   -3.8680   -4.5658   -1.2084 C   0  0  0  0  0  0  0  0  0  0  0  0
   -4.5800   -4.2720    0.0107 C   0  0  0  0  0  0  0  0  0  0  0  0
   -5.5409   -4.9808    0.7338 C   0  0  0  0  0  0  0  0  0  0  0  0
   -6.0321   -4.4287    1.8914 C   0  0  0  0  0  0  0  0  0  0  0  0
   -5.5830   -3.1852    2.3438 C   0  0  0  0  0  0  0  0  0  0  0  0
   -4.6374   -2.4782    1.6440 C   0  0  0  0  0  0  0  0  0  0  0  0
   -4.1320   -3.0195    0.4631 C   0  0  0  0  0  0  0  0  0  0  0  0
   -4.1502    1.6014   -2.3337 H   0  0  0  0  0  0  0  0  0  0  0  0
   -5.7180    3.0878   -3.5216 H   0  0  0  0  0  0  0  0  0  0  0  0
   -6.2172    5.3300   -2.6498 H   0  0  0  0  0  0  0  0  0  0  0  0
   -5.1497    6.1326   -0.5759 H   0  0  0  0  0  0  0  0  0  0  0  0
   -3.7088    6.4542    1.6506 H   0  0  0  0  0  0  0  0  0  0  0  0
   -2.1920    6.2242    3.5821 H   0  0  0  0  0  0  0  0  0  0  0  0
   -0.9163    4.1530    3.9268 H   0  0  0  0  0  0  0  0  0  0  0  0
   -1.1310    2.2716    2.3502 H   0  0  0  0  0  0  0  0  0  0  0  0
   -0.2771    1.8691    0.0702 H   0  0  0  0  0  0  0  0  0  0  0  0
   -0.1016   -0.0997    2.2945 H   0  0  0  0  0  0  0  0  0  0  0  0
    0.8592    0.3364    4.5088 H   0  0  0  0  0  0  0  0  0  0  0  0
    3.2965    0.5663    4.7557 H   0  0  0  0  0  0  0  0  0  0  0  0
    4.7458    0.3764    2.7881 H   0  0  0  0  0  0  0  0  0  0  0  0
    4.3599   -2.6934    0.2985 H   0  0  0  0  0  0  0  0  0  0  0  0
    6.2907   -4.0380    1.0067 H   0  0  0  0  0  0  0  0  0  0  0  0
    8.3566   -2.9262    1.7421 H   0  0  0  0  0  0  0  0  0  0  0  0
    8.4778   -0.4714    1.7739 H   0  0  0  0  0  0  0  0  0  0  0  0
    6.5462    0.8624    1.0677 H   0  0  0  0  0  0  0  0  0  0  0  0
    2.7656    2.3005    0.7805 H   0  0  0  0  0  0  0  0  0  0  0  0
    3.2575    4.5893    0.0562 H   0  0  0  0  0  0  0  0  0  0  0  0
    5.1849    5.0279   -1.4061 H   0  0  0  0  0  0  0  0  0  0  0  0
    6.6087    3.1635   -2.1404 H   0  0  0  0  0  0  0  0  0  0  0  0
    6.1179    0.8790   -1.4025 H   0  0  0  0  0  0  0  0  0  0  0  0
    5.2225   -1.0737   -2.0224 H   0  0  0  0  0  0  0  0  0  0  0  0
    4.1600   -1.9606   -4.0446 H   0  0  0  0  0  0  0  0  0  0  0  0
    1.7061   -2.0394   -4.2056 H   0  0  0  0  0  0  0  0  0  0  0  0
    0.3408   -1.2494   -2.3308 H   0  0  0  0  0  0  0  0  0  0  0  0
   -0.5526   -2.3488   -0.3089 H   0  0  0  0  0  0  0  0  0  0  0  0
   -1.5399   -2.6459   -2.7722 H   0  0  0  0  0  0  0  0  0  0  0  0
   -1.6008   -4.5748   -4.3075 H   0  0  0  0  0  0  0  0  0  0  0  0
   -3.0985   -6.4723   -3.8691 H   0  0  0  0  0  0  0  0  0  0  0  0
   -4.5627   -6.4797   -1.8841 H   0  0  0  0  0  0  0  0  0  0  0  0
   -5.8806   -5.9376    0.3802 H   0  0  0  0  0  0  0  0  0  0  0  0
   -6.7774   -4.9616    2.4606 H   0  0  0  0  0  0  0  0  0  0  0  0
   -5.9898   -2.7731    3.2521 H   0  0  0  0  0  0  0  0  0  0  0  0
   -4.2949   -1.5145    1.9764 H   0  0  0  0  0  0  0  0  0  0  0  0
  1  2  3  0  0  0  0
  2  3  1  0  0  0  0
  3  4  2  0  0  0  0
  4  5  1  0  0  0  0
  5  6  1  0  0  0  0
  6  7  2  0  0  0  0
  7  8  1  0  0  0  0
  8  9  2  0  0  0  0
  9 10  1  0  0  0  0
 10 11  2  0  0  0  0
 11 12  1  0  0  0  0
 12 13  2  0  0  0  0
 13 14  1  0  0  0  0
 14 15  2  0  0  0  0
 15 16  1  0  0  0  0
 16 17  2  0  0  0  0
  4 18  1  0  0  0  0
 18 19  2  0  0  0  0
 19 20  1  0  0  0  0
 20 21  1  0  0  0  0
 21 22  2  0  0  0  0
 22 23  1  0  0  0  0
 23 24  2  0  0  0  0
 24 25  1  0  0  0  0
 25 26  2  0  0  0  0
 26 27  1  0  0  0  0
 27 28  1  0  0  0  0
 28 29  2  0  0  0  0
 29 30  1  0  0  0  0
 30 31  2  0  0  0  0
 31 32  1  0  0  0  0
 32 33  2  0  0  0  0
 27 34  1  0  0  0  0
 34 35  2  0  0  0  0
 35 36  1  0  0  0  0
 36 37  2  0  0  0  0
 37 38  1  0  0  0  0
 38 39  2  0  0  0  0
 27 40  1  0  0  0  0
 40 41  2  0  0  0  0
 41 42  1  0  0  0  0
 42 43  2  0  0  0  0
 43 44  1  0  0  0  0
 44 45  2  0  0  0  0
 19 46  1  0  0  0  0
 46 47  2  0  0  0  0
 47 48  1  0  0  0  0
 48 49  1  0  0  0  0
 49 50  2  0  0  0  0
 50 51  1  0  0  0  0
 51 52  2  0  0  0  0
 52 53  1  0  0  0  0
 53 54  2  0  0  0  0
 54 55  1  0  0  0  0
 55 56  2  0  0  0  0
 56 57  1  0  0  0  0
 57 58  2  0  0  0  0
 58 59  1  0  0  0  0
 59 60  2  0  0  0  0
 47  3  1  0  0  0  0
 60 48  1  0  0  0  0
 17  5  1  0  0  0  0
 45 20  1  0  0  0  0
 54 49  1  0  0  0  0
 60 55  1  0  0  0  0
 11  6  1  0  0  0  0
 17 12  1  0  0  0  0
 26 21  1  0  0  0  0
 33 28  1  0  0  0  0
 39 34  1  0  0  0  0
 45 40  1  0  0  0  0
  7 61  1  0  0  0  0
  8 62  1  0  0  0  0
  9 63  1  0  0  0  0
 10 64  1  0  0  0  0
 13 65  1  0  0  0  0
 14 66  1  0  0  0  0
 15 67  1  0  0  0  0
 16 68  1  0  0  0  0
 18 69  1  0  0  0  0
 22 70  1  0  0  0  0
 23 71  1  0  0  0  0
 24 72  1  0  0  0  0
 25 73  1  0  0  0  0
 29 74  1  0  0  0  0
 30 75  1  0  0  0  0
 31 76  1  0  0  0  0
 32 77  1  0  0  0  0
 33 78  1  0  0  0  0
 35 79  1  0  0  0  0
 36 80  1  0  0  0  0
 37 81  1  0  0  0  0
 38 82  1  0  0  0  0
 39 83  1  0  0  0  0
 41 84  1  0  0  0  0
 42 85  1  0  0  0  0
 43 86  1  0  0  0  0
 44 87  1  0  0  0  0
 46 88  1  0  0  0  0
 50 89  1  0  0  0  0
 51 90  1  0  0  0  0
 52 91  1  0  0  0  0
 53 92  1  0  0  0  0
 56 93  1  0  0  0  0
 57 94  1  0  0  0  0
 58 95  1  0  0  0  0
 59 96  1  0  0  0  0
M  END
