
  xtb     03012221203D
 energy: -7.454253290584 gnorm: 0.000231439995 xtb: 6.4.1 (afa7bdf)
 39 41  0     0  0            999 V2000
    6.0509   -0.0572    1.9034 C   0  0  0  0  0  0  0  0  0  0  0  0
    5.5668   -0.1793    0.5877 O   0  0  0  0  0  0  0  0  0  0  0  0
    4.1730   -0.1097    0.4538 C   0  0  0  0  0  0  0  0  0  0  0  0
    3.3007    0.1128    1.5111 C   0  0  0  0  0  0  0  0  0  0  0  0
    1.9378    0.1691    1.3085 C   0  0  0  0  0  0  0  0  0  0  0  0
    1.4146    0.0036    0.0434 C   0  0  0  0  0  0  0  0  0  0  0  0
   -0.0115    0.0588   -0.1741 N   0  0  0  0  0  0  0  0  0  0  0  0
   -0.5317   -0.1249   -1.3822 N   0  0  0  0  0  0  0  0  0  0  0  0
   -1.8215   -0.0049   -1.1623 C   0  0  0  0  0  0  0  0  0  0  0  0
   -2.8329   -0.1273   -2.1261 C   0  0  0  0  0  0  0  0  0  0  0  0
   -3.7115   -0.2211   -2.8812 N   0  0  0  0  0  0  0  0  0  0  0  0
   -2.0205    0.2609    0.2315 C   0  0  0  0  0  0  0  0  0  0  0  0
   -3.3056    0.4336    0.8491 N   0  0  0  0  0  0  0  0  0  0  0  0
   -4.1842    1.5267    0.3683 C   0  0  0  0  0  0  0  0  0  0  0  0
   -5.4977    0.8819   -0.1141 C   0  0  0  0  0  0  0  0  0  0  0  0
   -5.3474   -0.6331    0.1470 C   0  0  0  0  0  0  0  0  0  0  0  0
   -4.1363   -0.7688    1.0789 C   0  0  0  0  0  0  0  0  0  0  0  0
   -0.8610    0.2906    0.8346 N   0  0  0  0  0  0  0  0  0  0  0  0
    2.2655   -0.2182   -1.0252 C   0  0  0  0  0  0  0  0  0  0  0  0
    3.6380   -0.2787   -0.8532 C   0  0  0  0  0  0  0  0  0  0  0  0
    4.5430   -0.4995   -1.8973 O   0  0  0  0  0  0  0  0  0  0  0  0
    3.9655   -0.6367   -3.1732 C   0  0  0  0  0  0  0  0  0  0  0  0
    5.6375   -0.8520    2.5253 H   0  0  0  0  0  0  0  0  0  0  0  0
    5.7918    0.9235    2.3035 H   0  0  0  0  0  0  0  0  0  0  0  0
    7.1367   -0.1548    1.8772 H   0  0  0  0  0  0  0  0  0  0  0  0
    3.6887    0.2457    2.5041 H   0  0  0  0  0  0  0  0  0  0  0  0
    1.2633    0.3419    2.1282 H   0  0  0  0  0  0  0  0  0  0  0  0
   -3.6718    2.0691   -0.4326 H   0  0  0  0  0  0  0  0  0  0  0  0
   -4.3432    2.2313    1.1907 H   0  0  0  0  0  0  0  0  0  0  0  0
   -5.6768    1.0857   -1.1769 H   0  0  0  0  0  0  0  0  0  0  0  0
   -6.3561    1.2914    0.4308 H   0  0  0  0  0  0  0  0  0  0  0  0
   -6.2534   -1.0711    0.5824 H   0  0  0  0  0  0  0  0  0  0  0  0
   -5.1597   -1.1645   -0.7936 H   0  0  0  0  0  0  0  0  0  0  0  0
   -4.4300   -0.7924    2.1327 H   0  0  0  0  0  0  0  0  0  0  0  0
   -3.5448   -1.6676    0.8765 H   0  0  0  0  0  0  0  0  0  0  0  0
    1.8303   -0.3443   -1.9973 H   0  0  0  0  0  0  0  0  0  0  0  0
    3.4214    0.2723   -3.4326 H   0  0  0  0  0  0  0  0  0  0  0  0
    4.7683   -0.7892   -3.8954 H   0  0  0  0  0  0  0  0  0  0  0  0
    3.3039   -1.5037   -3.1883 H   0  0  0  0  0  0  0  0  0  0  0  0
  1  2  1  0  0  0  0
  2  3  1  0  0  0  0
  3  4  2  0  0  0  0
  4  5  1  0  0  0  0
  5  6  2  0  0  0  0
  6  7  1  0  0  0  0
  7  8  1  0  0  0  0
  8  9  2  0  0  0  0
  9 10  1  0  0  0  0
 10 11  3  0  0  0  0
  9 12  1  0  0  0  0
 12 13  1  0  0  0  0
 13 14  1  0  0  0  0
 14 15  1  0  0  0  0
 15 16  1  0  0  0  0
 16 17  1  0  0  0  0
 12 18  2  0  0  0  0
  6 19  1  0  0  0  0
 19 20  2  0  0  0  0
 20 21  1  0  0  0  0
 21 22  1  0  0  0  0
 20  3  1  0  0  0  0
 18  7  1  0  0  0  0
 17 13  1  0  0  0  0
  1 23  1  0  0  0  0
  1 24  1  0  0  0  0
  1 25  1  0  0  0  0
  4 26  1  0  0  0  0
  5 27  1  0  0  0  0
 14 28  1  0  0  0  0
 14 29  1  0  0  0  0
 15 30  1  0  0  0  0
 15 31  1  0  0  0  0
 16 32  1  0  0  0  0
 16 33  1  0  0  0  0
 17 34  1  0  0  0  0
 17 35  1  0  0  0  0
 19 36  1  0  0  0  0
 22 37  1  0  0  0  0
 22 38  1  0  0  0  0
 22 39  1  0  0  0  0
M  END
