
  xtb     03012221213D
 energy: -19.195040348893 gnorm: 0.000360672516 xtb: 6.4.1 (afa7bdf)
 93103  0     0  0            999 V2000
   -5.8819   -6.5108   -2.8890 C   0  0  0  0  0  0  0  0  0  0  0  0
   -4.4837   -6.3428   -2.8146 O   0  0  0  0  0  0  0  0  0  0  0  0
   -4.0680   -5.1413   -2.2665 C   0  0  0  0  0  0  0  0  0  0  0  0
   -2.6863   -4.9091   -2.1851 C   0  0  0  0  0  0  0  0  0  0  0  0
   -2.1993   -3.7458   -1.6631 C   0  0  0  0  0  0  0  0  0  0  0  0
   -3.0574   -2.7487   -1.1923 C   0  0  0  0  0  0  0  0  0  0  0  0
   -4.4520   -2.9626   -1.2557 C   0  0  0  0  0  0  0  0  0  0  0  0
   -4.9278   -4.1400   -1.7845 C   0  0  0  0  0  0  0  0  0  0  0  0
   -5.4241   -1.9457   -0.7045 C   0  0  0  0  0  0  0  0  0  0  0  0
   -4.8987   -0.4911   -0.6708 C   0  0  0  0  0  0  0  0  0  0  0  0
   -3.4361   -0.4244   -0.3760 C   0  0  0  0  0  0  0  0  0  0  0  0
   -2.6776    0.6585    0.0631 C   0  0  0  0  0  0  0  0  0  0  0  0
   -3.1856    2.0243    0.2927 C   0  0  0  0  0  0  0  0  0  0  0  0
   -4.2027    2.2720    1.2140 C   0  0  0  0  0  0  0  0  0  0  0  0
   -4.6489    3.5551    1.4366 C   0  0  0  0  0  0  0  0  0  0  0  0
   -4.0944    4.6129    0.7452 C   0  0  0  0  0  0  0  0  0  0  0  0
   -3.0930    4.3858   -0.1760 C   0  0  0  0  0  0  0  0  0  0  0  0
   -2.6452    3.1053   -0.4048 C   0  0  0  0  0  0  0  0  0  0  0  0
   -1.3023    0.2265    0.0861 C   0  0  0  0  0  0  0  0  0  0  0  0
   -0.1379    0.9227    0.4910 C   0  0  0  0  0  0  0  0  0  0  0  0
   -0.2048    2.2550    1.1145 C   0  0  0  0  0  0  0  0  0  0  0  0
   -0.9839    2.4385    2.2789 C   0  0  0  0  0  0  0  0  0  0  0  0
   -1.0640    3.6535    2.8620 C   0  0  0  0  0  0  0  0  0  0  0  0
   -0.3611    4.7273    2.2851 C   0  0  0  0  0  0  0  0  0  0  0  0
   -0.3935    6.0169    2.8316 C   0  0  0  0  0  0  0  0  0  0  0  0
    0.3065    7.0408    2.2426 C   0  0  0  0  0  0  0  0  0  0  0  0
    1.0521    6.8237    1.1026 C   0  0  0  0  0  0  0  0  0  0  0  0
    1.1183    5.5590    0.5144 C   0  0  0  0  0  0  0  0  0  0  0  0
    1.8488    5.3308   -0.6118 O   0  0  0  0  0  0  0  0  0  0  0  0
    0.3967    4.4723    1.1159 C   0  0  0  0  0  0  0  0  0  0  0  0
    0.4745    3.2582    0.5461 N   0  0  0  0  0  0  0  0  0  0  0  0
    1.0978    0.2671    0.2843 C   0  0  0  0  0  0  0  0  0  0  0  0
    2.4348    0.6750    0.6365 C   0  0  0  0  0  0  0  0  0  0  0  0
    2.8509    1.8765    1.3879 C   0  0  0  0  0  0  0  0  0  0  0  0
    2.4230    2.0809    2.6998 C   0  0  0  0  0  0  0  0  0  0  0  0
    2.7996    3.2078    3.3938 C   0  0  0  0  0  0  0  0  0  0  0  0
    3.6154    4.1469    2.7973 C   0  0  0  0  0  0  0  0  0  0  0  0
    4.0586    3.9547    1.5048 C   0  0  0  0  0  0  0  0  0  0  0  0
    3.6839    2.8305    0.8050 C   0  0  0  0  0  0  0  0  0  0  0  0
    3.2929   -0.3344    0.2098 C   0  0  0  0  0  0  0  0  0  0  0  0
    2.5272   -1.3698   -0.3651 C   0  0  0  0  0  0  0  0  0  0  0  0
    1.2247   -0.9685   -0.2967 N   0  0  0  0  0  0  0  0  0  0  0  0
    0.0025   -1.7929   -0.7240 B   0  0  0  0  0  4  0  0  0  0  0  0
    0.0318   -3.0054   -0.0351 F   0  0  0  0  0  0  0  0  0  0  0  0
    0.0471   -1.9776   -2.1069 F   0  0  0  0  0  0  0  0  0  0  0  0
   -1.3049   -1.0575   -0.3949 N   0  0  0  0  0  4  0  0  0  0  0  0
   -2.5677   -1.4992   -0.6652 C   0  0  0  0  0  0  0  0  0  0  0  0
    3.1370   -2.5879   -0.8370 C   0  0  0  0  0  0  0  0  0  0  0  0
    2.4299   -3.5305   -1.5871 C   0  0  0  0  0  0  0  0  0  0  0  0
    3.0327   -4.6672   -2.0417 C   0  0  0  0  0  0  0  0  0  0  0  0
    4.3855   -4.9250   -1.7699 C   0  0  0  0  0  0  0  0  0  0  0  0
    4.9266   -6.0962   -2.2721 O   0  0  0  0  0  0  0  0  0  0  0  0
    6.2874   -6.3022   -1.9659 C   0  0  0  0  0  0  0  0  0  0  0  0
    5.0909   -3.9781   -1.0080 C   0  0  0  0  0  0  0  0  0  0  0  0
    4.4972   -2.8278   -0.5426 C   0  0  0  0  0  0  0  0  0  0  0  0
    5.2888   -1.8757    0.3244 C   0  0  0  0  0  0  0  0  0  0  0  0
    4.7785   -0.4149    0.3294 C   0  0  0  0  0  0  0  0  0  0  0  0
   -6.3108   -6.4955   -1.8876 H   0  0  0  0  0  0  0  0  0  0  0  0
   -6.0885   -7.4771   -3.3480 H   0  0  0  0  0  0  0  0  0  0  0  0
   -6.3172   -5.7254   -3.5061 H   0  0  0  0  0  0  0  0  0  0  0  0
   -2.0198   -5.6719   -2.5485 H   0  0  0  0  0  0  0  0  0  0  0  0
   -1.1405   -3.5778   -1.6185 H   0  0  0  0  0  0  0  0  0  0  0  0
   -5.9901   -4.2944   -1.8161 H   0  0  0  0  0  0  0  0  0  0  0  0
   -6.3532   -1.9943   -1.2846 H   0  0  0  0  0  0  0  0  0  0  0  0
   -5.6977   -2.2568    0.3100 H   0  0  0  0  0  0  0  0  0  0  0  0
   -5.4484    0.1011    0.0690 H   0  0  0  0  0  0  0  0  0  0  0  0
   -5.0802   -0.0054   -1.6360 H   0  0  0  0  0  0  0  0  0  0  0  0
   -4.6144    1.4491    1.7709 H   0  0  0  0  0  0  0  0  0  0  0  0
   -5.4285    3.7354    2.1578 H   0  0  0  0  0  0  0  0  0  0  0  0
   -4.4413    5.6182    0.9273 H   0  0  0  0  0  0  0  0  0  0  0  0
   -2.6529    5.2121   -0.7087 H   0  0  0  0  0  0  0  0  0  0  0  0
   -1.8522    2.9242   -1.1092 H   0  0  0  0  0  0  0  0  0  0  0  0
   -1.5085    1.5952    2.6915 H   0  0  0  0  0  0  0  0  0  0  0  0
   -1.6543    3.8113    3.7477 H   0  0  0  0  0  0  0  0  0  0  0  0
   -0.9739    6.1945    3.7192 H   0  0  0  0  0  0  0  0  0  0  0  0
    0.2725    8.0284    2.6761 H   0  0  0  0  0  0  0  0  0  0  0  0
    1.5949    7.6338    0.6517 H   0  0  0  0  0  0  0  0  0  0  0  0
    2.2739    6.1656   -0.9124 H   0  0  0  0  0  0  0  0  0  0  0  0
    1.7801    1.3486    3.1554 H   0  0  0  0  0  0  0  0  0  0  0  0
    2.4493    3.3616    4.4007 H   0  0  0  0  0  0  0  0  0  0  0  0
    3.9011    5.0352    3.3392 H   0  0  0  0  0  0  0  0  0  0  0  0
    4.6861    4.6943    1.0364 H   0  0  0  0  0  0  0  0  0  0  0  0
    4.0026    2.6896   -0.2126 H   0  0  0  0  0  0  0  0  0  0  0  0
    1.3994   -3.3363   -1.8136 H   0  0  0  0  0  0  0  0  0  0  0  0
    2.4838   -5.3883   -2.6220 H   0  0  0  0  0  0  0  0  0  0  0  0
    6.4191   -6.3618   -0.8860 H   0  0  0  0  0  0  0  0  0  0  0  0
    6.6023   -7.2441   -2.4137 H   0  0  0  0  0  0  0  0  0  0  0  0
    6.8874   -5.4939   -2.3829 H   0  0  0  0  0  0  0  0  0  0  0  0
    6.1224   -4.1551   -0.7670 H   0  0  0  0  0  0  0  0  0  0  0  0
    6.3394   -1.9038    0.0122 H   0  0  0  0  0  0  0  0  0  0  0  0
    5.2788   -2.2667    1.3480 H   0  0  0  0  0  0  0  0  0  0  0  0
    5.2255    0.1404   -0.5027 H   0  0  0  0  0  0  0  0  0  0  0  0
    5.0947    0.1049    1.2414 H   0  0  0  0  0  0  0  0  0  0  0  0
  1  2  1  0  0  0  0
  2  3  1  0  0  0  0
  3  4  2  0  0  0  0
  4  5  1  0  0  0  0
  5  6  2  0  0  0  0
  6  7  1  0  0  0  0
  7  8  2  0  0  0  0
  7  9  1  0  0  0  0
  9 10  1  0  0  0  0
 10 11  1  0  0  0  0
 11 12  2  0  0  0  0
 12 13  1  0  0  0  0
 13 14  2  0  0  0  0
 14 15  1  0  0  0  0
 15 16  2  0  0  0  0
 16 17  1  0  0  0  0
 17 18  2  0  0  0  0
 12 19  1  0  0  0  0
 19 20  2  0  0  0  0
 20 21  1  0  0  0  0
 21 22  2  0  0  0  0
 22 23  1  0  0  0  0
 23 24  2  0  0  0  0
 24 25  1  0  0  0  0
 25 26  2  0  0  0  0
 26 27  1  0  0  0  0
 27 28  2  0  0  0  0
 28 29  1  0  0  0  0
 28 30  1  0  0  0  0
 30 31  2  0  0  0  0
 20 32  1  0  0  0  0
 32 33  2  0  0  0  0
 33 34  1  0  0  0  0
 34 35  2  0  0  0  0
 35 36  1  0  0  0  0
 36 37  2  0  0  0  0
 37 38  1  0  0  0  0
 38 39  2  0  0  0  0
 33 40  1  0  0  0  0
 40 41  2  0  0  0  0
 41 42  1  0  0  0  0
 42 43  1  0  0  0  0
 43 44  1  0  0  0  0
 43 45  1  0  0  0  0
 43 46  1  0  0  0  0
 46 47  2  0  0  0  0
 41 48  1  0  0  0  0
 48 49  2  0  0  0  0
 49 50  1  0  0  0  0
 50 51  2  0  0  0  0
 51 52  1  0  0  0  0
 52 53  1  0  0  0  0
 51 54  1  0  0  0  0
 54 55  2  0  0  0  0
 55 56  1  0  0  0  0
 56 57  1  0  0  0  0
  8  3  1  0  0  0  0
 47 11  1  0  0  0  0
 55 48  1  0  0  0  0
 47  6  1  0  0  0  0
 18 13  1  0  0  0  0
 46 19  1  0  0  0  0
 31 21  1  0  0  0  0
 42 32  1  0  0  0  0
 30 24  1  0  0  0  0
 39 34  1  0  0  0  0
 57 40  1  0  0  0  0
  1 58  1  0  0  0  0
  1 59  1  0  0  0  0
  1 60  1  0  0  0  0
  4 61  1  0  0  0  0
  5 62  1  0  0  0  0
  8 63  1  0  0  0  0
  9 64  1  0  0  0  0
  9 65  1  0  0  0  0
 10 66  1  0  0  0  0
 10 67  1  0  0  0  0
 14 68  1  0  0  0  0
 15 69  1  0  0  0  0
 16 70  1  0  0  0  0
 17 71  1  0  0  0  0
 18 72  1  0  0  0  0
 22 73  1  0  0  0  0
 23 74  1  0  0  0  0
 25 75  1  0  0  0  0
 26 76  1  0  0  0  0
 27 77  1  0  0  0  0
 29 78  1  0  0  0  0
 35 79  1  0  0  0  0
 36 80  1  0  0  0  0
 37 81  1  0  0  0  0
 38 82  1  0  0  0  0
 39 83  1  0  0  0  0
 49 84  1  0  0  0  0
 50 85  1  0  0  0  0
 53 86  1  0  0  0  0
 53 87  1  0  0  0  0
 53 88  1  0  0  0  0
 54 89  1  0  0  0  0
 56 90  1  0  0  0  0
 56 91  1  0  0  0  0
 57 92  1  0  0  0  0
 57 93  1  0  0  0  0
M  CHG  1  43  -1
M  CHG  1  46   1
M  END
