
  xtb     03012221223D
 energy: -12.145626699312 gnorm: 0.000060069178 xtb: 6.4.1 (afa7bdf)
 60 63  0     0  0            999 V2000
   -7.9324   -5.6114   -0.1488 C   0  0  0  0  0  0  0  0  0  0  0  0
   -7.8842   -4.2048   -0.1525 O   0  0  0  0  0  0  0  0  0  0  0  0
   -6.6000   -3.6627   -0.1422 C   0  0  0  0  0  0  0  0  0  0  0  0
   -6.4854   -2.2678   -0.1442 C   0  0  0  0  0  0  0  0  0  0  0  0
   -5.2611   -1.6511   -0.1343 C   0  0  0  0  0  0  0  0  0  0  0  0
   -4.0811   -2.4006   -0.1219 C   0  0  0  0  0  0  0  0  0  0  0  0
   -2.7657   -1.7913   -0.1109 C   0  0  0  0  0  0  0  0  0  0  0  0
   -2.5200   -0.4700   -0.1105 C   0  0  0  0  0  0  0  0  0  0  0  0
   -1.2097    0.1476   -0.0995 C   0  0  0  0  0  0  0  0  0  0  0  0
   -0.0485   -0.5992   -0.0862 C   0  0  0  0  0  0  0  0  0  0  0  0
    1.1687    0.0509   -0.0763 C   0  0  0  0  0  0  0  0  0  0  0  0
    2.3921   -0.7171   -0.0625 C   0  0  0  0  0  0  0  0  0  0  0  0
    3.6002   -0.1346   -0.0527 C   0  0  0  0  0  0  0  0  0  0  0  0
    4.8767   -0.8204   -0.0388 C   0  0  0  0  0  0  0  0  0  0  0  0
    4.9810   -2.2146   -0.0324 C   0  0  0  0  0  0  0  0  0  0  0  0
    6.2041   -2.8352   -0.0191 C   0  0  0  0  0  0  0  0  0  0  0  0
    7.3901   -2.0916   -0.0116 C   0  0  0  0  0  0  0  0  0  0  0  0
    8.6718   -2.6395    0.0018 O   0  0  0  0  0  0  0  0  0  0  0  0
    8.7136   -4.0464    0.0085 C   0  0  0  0  0  0  0  0  0  0  0  0
    7.2821   -0.6962   -0.0181 C   0  0  0  0  0  0  0  0  0  0  0  0
    6.0597   -0.0767   -0.0313 C   0  0  0  0  0  0  0  0  0  0  0  0
    1.2331    1.3813   -0.0793 N   0  0  0  0  0  0  0  0  0  0  0  0
    0.0658    2.0280   -0.0923 C   0  0  0  0  0  0  0  0  0  0  0  0
    0.1339    3.4729   -0.0962 C   0  0  0  0  0  0  0  0  0  0  0  0
   -0.9614    4.2445   -0.1108 C   0  0  0  0  0  0  0  0  0  0  0  0
   -0.9826    5.6976   -0.1163 C   0  0  0  0  0  0  0  0  0  0  0  0
    0.1844    6.4635   -0.1074 C   0  0  0  0  0  0  0  0  0  0  0  0
    0.1239    7.8396   -0.1134 C   0  0  0  0  0  0  0  0  0  0  0  0
   -1.0975    8.4817   -0.1283 C   0  0  0  0  0  0  0  0  0  0  0  0
   -2.2623    7.7420   -0.1372 C   0  0  0  0  0  0  0  0  0  0  0  0
   -2.2077    6.3660   -0.1313 C   0  0  0  0  0  0  0  0  0  0  0  0
   -1.1512    1.4807   -0.1025 N   0  0  0  0  0  0  0  0  0  0  0  0
   -4.1932   -3.7943   -0.1201 C   0  0  0  0  0  0  0  0  0  0  0  0
   -5.4175   -4.4116   -0.1300 C   0  0  0  0  0  0  0  0  0  0  0  0
   -7.4405   -6.0023   -1.0401 H   0  0  0  0  0  0  0  0  0  0  0  0
   -8.9776   -5.9217   -0.1570 H   0  0  0  0  0  0  0  0  0  0  0  0
   -7.4561   -5.9970    0.7532 H   0  0  0  0  0  0  0  0  0  0  0  0
   -7.3916   -1.6874   -0.1536 H   0  0  0  0  0  0  0  0  0  0  0  0
   -5.2126   -0.5774   -0.1361 H   0  0  0  0  0  0  0  0  0  0  0  0
   -1.9326   -2.4698   -0.1024 H   0  0  0  0  0  0  0  0  0  0  0  0
   -3.3470    0.2137   -0.1191 H   0  0  0  0  0  0  0  0  0  0  0  0
   -0.0766   -1.6734   -0.0835 H   0  0  0  0  0  0  0  0  0  0  0  0
    2.3103   -1.7875   -0.0605 H   0  0  0  0  0  0  0  0  0  0  0  0
    3.6257    0.9407   -0.0556 H   0  0  0  0  0  0  0  0  0  0  0  0
    4.0876   -2.8127   -0.0378 H   0  0  0  0  0  0  0  0  0  0  0  0
    6.2504   -3.9094   -0.0145 H   0  0  0  0  0  0  0  0  0  0  0  0
    9.7575   -4.3612    0.0195 H   0  0  0  0  0  0  0  0  0  0  0  0
    8.2197   -4.4284    0.9025 H   0  0  0  0  0  0  0  0  0  0  0  0
    8.2360   -4.4365   -0.8908 H   0  0  0  0  0  0  0  0  0  0  0  0
    8.1901   -0.1187   -0.0123 H   0  0  0  0  0  0  0  0  0  0  0  0
    6.0016    0.9981   -0.0360 H   0  0  0  0  0  0  0  0  0  0  0  0
    1.1119    3.9145   -0.0872 H   0  0  0  0  0  0  0  0  0  0  0  0
   -1.9137    3.7448   -0.1193 H   0  0  0  0  0  0  0  0  0  0  0  0
    1.1426    5.9762   -0.0959 H   0  0  0  0  0  0  0  0  0  0  0  0
    1.0338    8.4175   -0.1064 H   0  0  0  0  0  0  0  0  0  0  0  0
   -1.1416    9.5583   -0.1329 H   0  0  0  0  0  0  0  0  0  0  0  0
   -3.2170    8.2424   -0.1489 H   0  0  0  0  0  0  0  0  0  0  0  0
   -3.1177    5.7912   -0.1384 H   0  0  0  0  0  0  0  0  0  0  0  0
   -3.2950   -4.3875   -0.1107 H   0  0  0  0  0  0  0  0  0  0  0  0
   -5.4674   -5.4856   -0.1282 H   0  0  0  0  0  0  0  0  0  0  0  0
  1  2  1  0  0  0  0
  2  3  1  0  0  0  0
  3  4  2  0  0  0  0
  4  5  1  0  0  0  0
  5  6  2  0  0  0  0
  6  7  1  0  0  0  0
  7  8  2  0  0  0  0
  8  9  1  0  0  0  0
  9 10  2  0  0  0  0
 10 11  1  0  0  0  0
 11 12  1  0  0  0  0
 12 13  2  0  0  0  0
 13 14  1  0  0  0  0
 14 15  2  0  0  0  0
 15 16  1  0  0  0  0
 16 17  2  0  0  0  0
 17 18  1  0  0  0  0
 18 19  1  0  0  0  0
 17 20  1  0  0  0  0
 20 21  2  0  0  0  0
 11 22  2  0  0  0  0
 22 23  1  0  0  0  0
 23 24  1  0  0  0  0
 24 25  2  0  0  0  0
 25 26  1  0  0  0  0
 26 27  2  0  0  0  0
 27 28  1  0  0  0  0
 28 29  2  0  0  0  0
 29 30  1  0  0  0  0
 30 31  2  0  0  0  0
 23 32  2  0  0  0  0
  6 33  1  0  0  0  0
 33 34  2  0  0  0  0
 34  3  1  0  0  0  0
 32  9  1  0  0  0  0
 21 14  1  0  0  0  0
 31 26  1  0  0  0  0
  1 35  1  0  0  0  0
  1 36  1  0  0  0  0
  1 37  1  0  0  0  0
  4 38  1  0  0  0  0
  5 39  1  0  0  0  0
  7 40  1  0  0  0  0
  8 41  1  0  0  0  0
 10 42  1  0  0  0  0
 12 43  1  0  0  0  0
 13 44  1  0  0  0  0
 15 45  1  0  0  0  0
 16 46  1  0  0  0  0
 19 47  1  0  0  0  0
 19 48  1  0  0  0  0
 19 49  1  0  0  0  0
 20 50  1  0  0  0  0
 21 51  1  0  0  0  0
 24 52  1  0  0  0  0
 25 53  1  0  0  0  0
 27 54  1  0  0  0  0
 28 55  1  0  0  0  0
 29 56  1  0  0  0  0
 30 57  1  0  0  0  0
 31 58  1  0  0  0  0
 33 59  1  0  0  0  0
 34 60  1  0  0  0  0
M  END
