
  xtb     03012221293D
 energy: -7.408613733533 gnorm: 0.000353779000 xtb: 6.4.1 (afa7bdf)
 37 39  0     0  0            999 V2000
    5.2181   -2.1873   -0.3289 C   0  0  0  0  0  0  0  0  0  0  0  0
    3.8733   -2.0127    0.1555 N   0  0  0  0  0  0  0  0  0  0  0  0
    3.0914   -0.9113   -0.1974 C   0  0  0  0  0  0  0  0  0  0  0  0
    3.5570   -0.1376   -1.2173 N   0  0  0  0  0  0  0  0  0  0  0  0
    2.8395    0.8935   -1.5555 C   0  0  0  0  0  0  0  0  0  0  0  0
    1.6484    1.1873   -0.8898 C   0  0  0  0  0  0  0  0  0  0  0  0
    0.7089    2.1583   -1.0669 N   0  0  0  0  0  0  0  0  0  0  0  0
   -0.2337    1.9318   -0.1717 C   0  0  0  0  0  0  0  0  0  0  0  0
   -1.4652    2.7243   -0.0310 C   0  0  0  0  0  0  0  0  0  0  0  0
   -2.3124    2.3892    0.7784 O   0  0  0  0  0  0  0  0  0  0  0  0
   -1.5881    3.8157   -0.8448 O   0  0  0  0  0  0  0  0  0  0  0  0
   -2.7941    4.4593   -0.5897 C   0  0  0  0  0  0  0  0  0  0  0  0
    0.0806    0.8227    0.6185 N   0  0  0  0  0  0  0  0  0  0  0  0
   -0.7594    0.1718    1.6192 C   0  0  0  0  0  0  0  0  0  0  0  0
   -1.6232   -0.8742    0.9996 C   0  0  0  0  0  0  0  0  0  0  0  0
   -1.1414   -2.1553    0.7913 C   0  0  0  0  0  0  0  0  0  0  0  0
   -1.9321   -3.1087    0.1870 C   0  0  0  0  0  0  0  0  0  0  0  0
   -3.2053   -2.7868   -0.2320 C   0  0  0  0  0  0  0  0  0  0  0  0
   -3.6814   -1.5050   -0.0595 C   0  0  0  0  0  0  0  0  0  0  0  0
   -2.8909   -0.5526    0.5451 C   0  0  0  0  0  0  0  0  0  0  0  0
    1.2768    0.3270    0.1480 C   0  0  0  0  0  0  0  0  0  0  0  0
    1.9857   -0.7419    0.5126 N   0  0  0  0  0  0  0  0  0  0  0  0
    5.2721   -1.8567   -1.3669 H   0  0  0  0  0  0  0  0  0  0  0  0
    5.9144   -1.5867    0.2585 H   0  0  0  0  0  0  0  0  0  0  0  0
    5.5210   -3.2348   -0.2844 H   0  0  0  0  0  0  0  0  0  0  0  0
    3.6541   -2.4859    1.0324 H   0  0  0  0  0  0  0  0  0  0  0  0
    3.1735    1.5193   -2.3652 H   0  0  0  0  0  0  0  0  0  0  0  0
   -3.6150    3.7696   -0.7990 H   0  0  0  0  0  0  0  0  0  0  0  0
   -2.8708    5.3405   -1.2299 H   0  0  0  0  0  0  0  0  0  0  0  0
   -2.8216    4.7541    0.4621 H   0  0  0  0  0  0  0  0  0  0  0  0
   -0.1132   -0.2642    2.3853 H   0  0  0  0  0  0  0  0  0  0  0  0
   -1.3698    0.9384    2.1051 H   0  0  0  0  0  0  0  0  0  0  0  0
   -0.1302   -2.3859    1.0765 H   0  0  0  0  0  0  0  0  0  0  0  0
   -1.5492   -4.1048    0.0317 H   0  0  0  0  0  0  0  0  0  0  0  0
   -3.8218   -3.5323   -0.7077 H   0  0  0  0  0  0  0  0  0  0  0  0
   -4.6680   -1.2435   -0.4077 H   0  0  0  0  0  0  0  0  0  0  0  0
   -3.2277    0.4652    0.6383 H   0  0  0  0  0  0  0  0  0  0  0  0
  1  2  1  0  0  0  0
  2  3  1  0  0  0  0
  3  4  2  0  0  0  0
  4  5  1  0  0  0  0
  5  6  2  0  0  0  0
  6  7  1  0  0  0  0
  7  8  2  0  0  0  0
  8  9  1  0  0  0  0
  9 10  2  0  0  0  0
  9 11  1  0  0  0  0
 11 12  1  0  0  0  0
  8 13  1  0  0  0  0
 13 14  1  0  0  0  0
 14 15  1  0  0  0  0
 15 16  2  0  0  0  0
 16 17  1  0  0  0  0
 17 18  2  0  0  0  0
 18 19  1  0  0  0  0
 19 20  2  0  0  0  0
 13 21  1  0  0  0  0
 21 22  2  0  0  0  0
 22  3  1  0  0  0  0
 21  6  1  0  0  0  0
 20 15  1  0  0  0  0
  1 23  1  0  0  0  0
  1 24  1  0  0  0  0
  1 25  1  0  0  0  0
  2 26  1  0  0  0  0
  5 27  1  0  0  0  0
 12 28  1  0  0  0  0
 12 29  1  0  0  0  0
 12 30  1  0  0  0  0
 14 31  1  0  0  0  0
 14 32  1  0  0  0  0
 16 33  1  0  0  0  0
 17 34  1  0  0  0  0
 18 35  1  0  0  0  0
 19 36  1  0  0  0  0
 20 37  1  0  0  0  0
M  END
