
  xtb     03012221313D
 energy: -13.125009380354 gnorm: 0.000117134765 xtb: 6.4.1 (afa7bdf)
 63 69  0     0  0            999 V2000
    6.9946   -0.5017    2.0697 C   0  0  0  0  0  0  0  0  0  0  0  0
    6.0331    0.6832    1.8627 C   0  0  0  0  0  0  0  0  0  0  0  0
    4.8707    0.5466    2.8655 C   0  0  0  0  0  0  0  0  0  0  0  0
    6.7681    2.0058    2.1484 C   0  0  0  0  0  0  0  0  0  0  0  0
    5.5338    0.6818    0.4096 C   0  0  0  0  0  0  0  0  0  0  0  0
    6.4648    0.8029   -0.6382 C   0  0  0  0  0  0  0  0  0  0  0  0
    6.0913    0.7926   -1.9576 C   0  0  0  0  0  0  0  0  0  0  0  0
    4.7412    0.6561   -2.2827 C   0  0  0  0  0  0  0  0  0  0  0  0
    4.1134    0.6008   -3.5152 O   0  0  0  0  0  0  0  0  0  0  0  0
    2.7565    0.4405   -3.2857 C   0  0  0  0  0  0  0  0  0  0  0  0
    1.7996    0.3229   -4.2091 N   0  0  0  0  0  0  0  0  0  0  0  0
    0.5688    0.1639   -3.7160 C   0  0  0  0  0  0  0  0  0  0  0  0
   -0.5951   -0.0053   -4.4466 O   0  0  0  0  0  0  0  0  0  0  0  0
   -1.6365   -0.1489   -3.5452 C   0  0  0  0  0  0  0  0  0  0  0  0
   -3.0004   -0.3658   -3.7626 C   0  0  0  0  0  0  0  0  0  0  0  0
   -3.8379   -0.4863   -2.6866 C   0  0  0  0  0  0  0  0  0  0  0  0
   -3.3611   -0.3856   -1.3659 C   0  0  0  0  0  0  0  0  0  0  0  0
   -4.2732   -0.5160   -0.2567 N   0  0  0  0  0  0  0  0  0  0  0  0
   -4.9688   -1.7544   -0.0752 C   0  0  0  0  0  0  0  0  0  0  0  0
   -6.2477   -1.7912    0.4747 C   0  0  0  0  0  0  0  0  0  0  0  0
   -6.9071   -2.9884    0.6388 C   0  0  0  0  0  0  0  0  0  0  0  0
   -6.3048   -4.1702    0.2530 C   0  0  0  0  0  0  0  0  0  0  0  0
   -5.0407   -4.1494   -0.3034 C   0  0  0  0  0  0  0  0  0  0  0  0
   -4.3800   -2.9535   -0.4690 C   0  0  0  0  0  0  0  0  0  0  0  0
   -4.4451    0.5915    0.6343 C   0  0  0  0  0  0  0  0  0  0  0  0
   -4.3077    1.8961    0.1666 C   0  0  0  0  0  0  0  0  0  0  0  0
   -4.4675    2.9681    1.0148 C   0  0  0  0  0  0  0  0  0  0  0  0
   -4.7613    2.7579    2.3480 C   0  0  0  0  0  0  0  0  0  0  0  0
   -4.8899    1.4697    2.8301 C   0  0  0  0  0  0  0  0  0  0  0  0
   -4.7312    0.3961    1.9831 C   0  0  0  0  0  0  0  0  0  0  0  0
   -2.0157   -0.1679   -1.1362 C   0  0  0  0  0  0  0  0  0  0  0  0
   -1.1552   -0.0574   -2.2246 C   0  0  0  0  0  0  0  0  0  0  0  0
    0.2592    0.1352   -2.3265 C   0  0  0  0  0  0  0  0  0  0  0  0
    1.2485    0.2572   -1.3712 C   0  0  0  0  0  0  0  0  0  0  0  0
    2.5240    0.4083   -1.8790 C   0  0  0  0  0  0  0  0  0  0  0  0
    3.8008    0.5414   -1.2450 C   0  0  0  0  0  0  0  0  0  0  0  0
    4.1957    0.5537    0.0925 C   0  0  0  0  0  0  0  0  0  0  0  0
    7.3504   -0.5400    3.0985 H   0  0  0  0  0  0  0  0  0  0  0  0
    7.8643   -0.4246    1.4193 H   0  0  0  0  0  0  0  0  0  0  0  0
    6.4953   -1.4445    1.8498 H   0  0  0  0  0  0  0  0  0  0  0  0
    4.1682    1.3730    2.7659 H   0  0  0  0  0  0  0  0  0  0  0  0
    5.2419    0.5511    3.8897 H   0  0  0  0  0  0  0  0  0  0  0  0
    4.3312   -0.3876    2.7152 H   0  0  0  0  0  0  0  0  0  0  0  0
    7.1156    2.0431    3.1801 H   0  0  0  0  0  0  0  0  0  0  0  0
    7.6353    2.1254    1.5011 H   0  0  0  0  0  0  0  0  0  0  0  0
    6.1074    2.8559    1.9836 H   0  0  0  0  0  0  0  0  0  0  0  0
    7.5079    0.9032   -0.3945 H   0  0  0  0  0  0  0  0  0  0  0  0
    6.8131    0.8817   -2.7492 H   0  0  0  0  0  0  0  0  0  0  0  0
   -3.3645   -0.4391   -4.7713 H   0  0  0  0  0  0  0  0  0  0  0  0
   -4.8896   -0.6570   -2.8352 H   0  0  0  0  0  0  0  0  0  0  0  0
   -6.7215   -0.8665    0.7551 H   0  0  0  0  0  0  0  0  0  0  0  0
   -7.8964   -3.0033    1.0667 H   0  0  0  0  0  0  0  0  0  0  0  0
   -6.8215   -5.1067    0.3828 H   0  0  0  0  0  0  0  0  0  0  0  0
   -4.5706   -5.0705   -0.6080 H   0  0  0  0  0  0  0  0  0  0  0  0
   -3.3937   -2.9310   -0.8990 H   0  0  0  0  0  0  0  0  0  0  0  0
   -4.0822    2.0535   -0.8739 H   0  0  0  0  0  0  0  0  0  0  0  0
   -4.3643    3.9727    0.6376 H   0  0  0  0  0  0  0  0  0  0  0  0
   -4.8876    3.5974    3.0114 H   0  0  0  0  0  0  0  0  0  0  0  0
   -5.1129    1.3046    3.8718 H   0  0  0  0  0  0  0  0  0  0  0  0
   -4.8108   -0.6091    2.3592 H   0  0  0  0  0  0  0  0  0  0  0  0
   -1.6417   -0.0950   -0.1325 H   0  0  0  0  0  0  0  0  0  0  0  0
    1.0438    0.2266   -0.3177 H   0  0  0  0  0  0  0  0  0  0  0  0
    3.4455    0.4565    0.8542 H   0  0  0  0  0  0  0  0  0  0  0  0
  1  2  1  0  0  0  0
  2  3  1  0  0  0  0
  2  4  1  0  0  0  0
  2  5  1  0  0  0  0
  5  6  2  0  0  0  0
  6  7  1  0  0  0  0
  7  8  2  0  0  0  0
  8  9  1  0  0  0  0
  9 10  1  0  0  0  0
 10 11  2  0  0  0  0
 11 12  1  0  0  0  0
 12 13  1  0  0  0  0
 13 14  1  0  0  0  0
 14 15  2  0  0  0  0
 15 16  1  0  0  0  0
 16 17  2  0  0  0  0
 17 18  1  0  0  0  0
 18 19  1  0  0  0  0
 19 20  2  0  0  0  0
 20 21  1  0  0  0  0
 21 22  2  0  0  0  0
 22 23  1  0  0  0  0
 23 24  2  0  0  0  0
 18 25  1  0  0  0  0
 25 26  2  0  0  0  0
 26 27  1  0  0  0  0
 27 28  2  0  0  0  0
 28 29  1  0  0  0  0
 29 30  2  0  0  0  0
 17 31  1  0  0  0  0
 31 32  2  0  0  0  0
 32 33  1  0  0  0  0
 33 34  1  0  0  0  0
 34 35  2  0  0  0  0
 35 36  1  0  0  0  0
 36 37  2  0  0  0  0
 37  5  1  0  0  0  0
 36  8  1  0  0  0  0
 35 10  1  0  0  0  0
 33 12  2  0  0  0  0
 32 14  1  0  0  0  0
 24 19  1  0  0  0  0
 30 25  1  0  0  0  0
  1 38  1  0  0  0  0
  1 39  1  0  0  0  0
  1 40  1  0  0  0  0
  3 41  1  0  0  0  0
  3 42  1  0  0  0  0
  3 43  1  0  0  0  0
  4 44  1  0  0  0  0
  4 45  1  0  0  0  0
  4 46  1  0  0  0  0
  6 47  1  0  0  0  0
  7 48  1  0  0  0  0
 15 49  1  0  0  0  0
 16 50  1  0  0  0  0
 20 51  1  0  0  0  0
 21 52  1  0  0  0  0
 22 53  1  0  0  0  0
 23 54  1  0  0  0  0
 24 55  1  0  0  0  0
 26 56  1  0  0  0  0
 27 57  1  0  0  0  0
 28 58  1  0  0  0  0
 29 59  1  0  0  0  0
 30 60  1  0  0  0  0
 31 61  1  0  0  0  0
 34 62  1  0  0  0  0
 37 63  1  0  0  0  0
M  END
