
  xtb     03012221233D
 energy: -14.499314737916 gnorm: 0.000313389156 xtb: 6.4.1 (afa7bdf)
 70 77  0     0  0            999 V2000
    7.4558   -0.1744   -0.7519 C   0  0  0  0  0  0  0  0  0  0  0  0
    5.9873   -0.1208   -0.5099 C   0  0  0  0  0  0  0  0  0  0  0  0
    5.4434    0.8550    0.3108 C   0  0  0  0  0  0  0  0  0  0  0  0
    4.0888    0.9055    0.5774 C   0  0  0  0  0  0  0  0  0  0  0  0
    3.5482    1.9709    1.4656 C   0  0  0  0  0  0  0  0  0  0  0  0
    3.2337   -0.0461   -0.0104 C   0  0  0  0  0  0  0  0  0  0  0  0
    1.7736   -0.0110    0.2477 C   0  0  0  0  0  0  0  0  0  0  0  0
    0.9330    0.9701   -0.3212 C   0  0  0  0  0  0  0  0  0  0  0  0
    1.3246    2.0244   -1.1888 C   0  0  0  0  0  0  0  0  0  0  0  0
    0.2117    2.7411   -1.5078 C   0  0  0  0  0  0  0  0  0  0  0  0
   -0.9227    2.1781   -0.8553 C   0  0  0  0  0  0  0  0  0  0  0  0
   -2.2714    2.6821   -0.9888 C   0  0  0  0  0  0  0  0  0  0  0  0
   -3.2488    2.4019   -0.0336 C   0  0  0  0  0  0  0  0  0  0  0  0
   -4.5279    2.8832   -0.1373 C   0  0  0  0  0  0  0  0  0  0  0  0
   -4.8840    3.6814   -1.2163 C   0  0  0  0  0  0  0  0  0  0  0  0
   -3.9585    3.9925   -2.1732 C   0  0  0  0  0  0  0  0  0  0  0  0
   -2.6372    3.5133   -2.0925 C   0  0  0  0  0  0  0  0  0  0  0  0
   -1.7348    3.8353   -3.0618 O   0  0  0  0  0  0  0  0  0  0  0  0
   -0.4436    1.0980   -0.1547 N   0  0  0  0  0  4  0  0  0  0  0  0
   -1.1804   -0.1234    0.4685 B   0  0  0  0  0  4  0  0  0  0  0  0
   -1.6438   -1.0573   -0.7543 C   0  0  0  0  0  0  0  0  0  0  0  0
   -1.0078   -2.2494   -1.0072 C   0  0  0  0  0  0  0  0  0  0  0  0
   -1.4029   -3.0317   -2.0718 C   0  0  0  0  0  0  0  0  0  0  0  0
   -2.4394   -2.6159   -2.8823 C   0  0  0  0  0  0  0  0  0  0  0  0
   -3.0775   -1.4197   -2.6241 C   0  0  0  0  0  0  0  0  0  0  0  0
   -2.6771   -0.6415   -1.5584 C   0  0  0  0  0  0  0  0  0  0  0  0
   -2.3723    0.1543    1.3271 O   0  0  0  0  0  0  0  0  0  0  0  0
   -2.8056   -0.7671    2.2343 C   0  0  0  0  0  0  0  0  0  0  0  0
   -4.1258   -0.7204    2.7094 C   0  0  0  0  0  0  0  0  0  0  0  0
   -4.5783   -1.6370    3.6195 C   0  0  0  0  0  0  0  0  0  0  0  0
   -3.7304   -2.6314    4.0994 C   0  0  0  0  0  0  0  0  0  0  0  0
   -2.4290   -2.7007    3.6673 C   0  0  0  0  0  0  0  0  0  0  0  0
   -1.9440   -1.7845    2.7345 C   0  0  0  0  0  0  0  0  0  0  0  0
   -0.5854   -1.7603    2.2913 C   0  0  0  0  0  0  0  0  0  0  0  0
    0.6028   -2.4293    2.7193 C   0  0  0  0  0  0  0  0  0  0  0  0
    1.6634   -1.9231    2.0103 C   0  0  0  0  0  0  0  0  0  0  0  0
    1.1627   -0.9202    1.1230 C   0  0  0  0  0  0  0  0  0  0  0  0
   -0.1890   -0.9026    1.3279 N   0  0  0  0  0  0  0  0  0  0  0  0
    3.7788   -1.0424   -0.8421 C   0  0  0  0  0  0  0  0  0  0  0  0
    2.8971   -2.0688   -1.4627 C   0  0  0  0  0  0  0  0  0  0  0  0
    5.1419   -1.0681   -1.0665 C   0  0  0  0  0  0  0  0  0  0  0  0
    7.8848    0.8279   -0.7864 H   0  0  0  0  0  0  0  0  0  0  0  0
    7.6819   -0.6634   -1.7003 H   0  0  0  0  0  0  0  0  0  0  0  0
    7.9588   -0.7290    0.0412 H   0  0  0  0  0  0  0  0  0  0  0  0
    6.0934    1.5870    0.7558 H   0  0  0  0  0  0  0  0  0  0  0  0
    3.3162    2.8706    0.8952 H   0  0  0  0  0  0  0  0  0  0  0  0
    4.2669    2.2387    2.2407 H   0  0  0  0  0  0  0  0  0  0  0  0
    2.6345    1.6439    1.9627 H   0  0  0  0  0  0  0  0  0  0  0  0
    2.3257    2.2044   -1.5414 H   0  0  0  0  0  0  0  0  0  0  0  0
    0.1758    3.5928   -2.1652 H   0  0  0  0  0  0  0  0  0  0  0  0
   -2.9799    1.7972    0.8095 H   0  0  0  0  0  0  0  0  0  0  0  0
   -5.2575    2.6436    0.6184 H   0  0  0  0  0  0  0  0  0  0  0  0
   -5.8905    4.0584   -1.2956 H   0  0  0  0  0  0  0  0  0  0  0  0
   -4.2333    4.6141   -3.0064 H   0  0  0  0  0  0  0  0  0  0  0  0
   -2.1649    4.3978   -3.7438 H   0  0  0  0  0  0  0  0  0  0  0  0
   -0.2071   -2.5613   -0.3626 H   0  0  0  0  0  0  0  0  0  0  0  0
   -0.9023   -3.9663   -2.2695 H   0  0  0  0  0  0  0  0  0  0  0  0
   -2.7500   -3.2238   -3.7157 H   0  0  0  0  0  0  0  0  0  0  0  0
   -3.8865   -1.0904   -3.2568 H   0  0  0  0  0  0  0  0  0  0  0  0
   -3.1594    0.2951   -1.3490 H   0  0  0  0  0  0  0  0  0  0  0  0
   -4.7748    0.0516    2.3342 H   0  0  0  0  0  0  0  0  0  0  0  0
   -5.5962   -1.5888    3.9688 H   0  0  0  0  0  0  0  0  0  0  0  0
   -4.0966   -3.3457    4.8184 H   0  0  0  0  0  0  0  0  0  0  0  0
   -1.7688   -3.4609    4.0471 H   0  0  0  0  0  0  0  0  0  0  0  0
    0.6540   -3.1821    3.4886 H   0  0  0  0  0  0  0  0  0  0  0  0
    2.6989   -2.2001    2.1178 H   0  0  0  0  0  0  0  0  0  0  0  0
    1.9806   -1.6160   -1.8428 H   0  0  0  0  0  0  0  0  0  0  0  0
    2.6184   -2.8313   -0.7348 H   0  0  0  0  0  0  0  0  0  0  0  0
    3.3914   -2.5655   -2.2981 H   0  0  0  0  0  0  0  0  0  0  0  0
    5.5575   -1.8385   -1.6908 H   0  0  0  0  0  0  0  0  0  0  0  0
  1  2  1  0  0  0  0
  2  3  2  0  0  0  0
  3  4  1  0  0  0  0
  4  5  1  0  0  0  0
  4  6  2  0  0  0  0
  6  7  1  0  0  0  0
  7  8  2  0  0  0  0
  8  9  1  0  0  0  0
  9 10  2  0  0  0  0
 10 11  1  0  0  0  0
 11 12  1  0  0  0  0
 12 13  2  0  0  0  0
 13 14  1  0  0  0  0
 14 15  2  0  0  0  0
 15 16  1  0  0  0  0
 16 17  2  0  0  0  0
 17 18  1  0  0  0  0
 11 19  2  0  0  0  0
 19 20  1  0  0  0  0
 20 21  1  0  0  0  0
 21 22  2  0  0  0  0
 22 23  1  0  0  0  0
 23 24  2  0  0  0  0
 24 25  1  0  0  0  0
 25 26  2  0  0  0  0
 20 27  1  0  0  0  0
 27 28  1  0  0  0  0
 28 29  2  0  0  0  0
 29 30  1  0  0  0  0
 30 31  2  0  0  0  0
 31 32  1  0  0  0  0
 32 33  2  0  0  0  0
 33 34  1  0  0  0  0
 34 35  2  0  0  0  0
 35 36  1  0  0  0  0
 36 37  2  0  0  0  0
 37 38  1  0  0  0  0
  6 39  1  0  0  0  0
 39 40  1  0  0  0  0
 39 41  2  0  0  0  0
 41  2  1  0  0  0  0
 37  7  1  0  0  0  0
 19  8  1  0  0  0  0
 38 20  1  0  0  0  0
 17 12  1  0  0  0  0
 26 21  1  0  0  0  0
 33 28  1  0  0  0  0
 38 34  1  0  0  0  0
  1 42  1  0  0  0  0
  1 43  1  0  0  0  0
  1 44  1  0  0  0  0
  3 45  1  0  0  0  0
  5 46  1  0  0  0  0
  5 47  1  0  0  0  0
  5 48  1  0  0  0  0
  9 49  1  0  0  0  0
 10 50  1  0  0  0  0
 13 51  1  0  0  0  0
 14 52  1  0  0  0  0
 15 53  1  0  0  0  0
 16 54  1  0  0  0  0
 18 55  1  0  0  0  0
 22 56  1  0  0  0  0
 23 57  1  0  0  0  0
 24 58  1  0  0  0  0
 25 59  1  0  0  0  0
 26 60  1  0  0  0  0
 29 61  1  0  0  0  0
 30 62  1  0  0  0  0
 31 63  1  0  0  0  0
 32 64  1  0  0  0  0
 35 65  1  0  0  0  0
 36 66  1  0  0  0  0
 40 67  1  0  0  0  0
 40 68  1  0  0  0  0
 40 69  1  0  0  0  0
 41 70  1  0  0  0  0
M  CHG  1  19   1
M  CHG  1  20  -1
M  END
