
  xtb     03012221273D
 energy: -14.643088596348 gnorm: 0.000212774452 xtb: 6.4.1 (afa7bdf)
 83 86  0     0  0            999 V2000
   -3.4337    6.4526   -1.3368 C   0  0  0  0  0  0  0  0  0  0  0  0
   -3.9390    6.3571    0.0925 C   0  0  0  0  0  0  0  0  0  0  0  0
   -3.5176    5.0688    0.8022 C   0  0  0  0  0  0  0  0  0  0  0  0
   -4.1381    3.8092    0.2001 C   0  0  0  0  0  0  0  0  0  0  0  0
   -3.7300    2.5366    0.9396 C   0  0  0  0  0  0  0  0  0  0  0  0
   -4.3214    1.2702    0.3291 C   0  0  0  0  0  0  0  0  0  0  0  0
   -3.8166    0.0107    1.0304 C   0  0  0  0  0  0  0  0  0  0  0  0
   -4.3995   -1.2732    0.4437 C   0  0  0  0  0  0  0  0  0  0  0  0
   -3.8836   -2.5138    1.1671 C   0  0  0  0  0  0  0  0  0  0  0  0
   -4.3130   -3.8304    0.5154 C   0  0  0  0  0  0  0  0  0  0  0  0
   -3.6623   -4.0687   -0.8477 C   0  0  0  0  0  0  0  0  0  0  0  0
   -4.0802   -5.3874   -1.5020 C   0  0  0  0  0  0  0  0  0  0  0  0
   -3.5984   -6.6163   -0.7505 C   0  0  0  0  0  0  0  0  0  0  0  0
   -2.3526   -0.0336    1.0010 N   0  0  0  0  0  0  0  0  0  0  0  0
   -1.6834    0.0401    2.2295 C   0  0  0  0  0  0  0  0  0  0  0  0
   -2.2950    0.1326    3.2808 O   0  0  0  0  0  0  0  0  0  0  0  0
   -0.2171    0.0026    2.2107 C   0  0  0  0  0  0  0  0  0  0  0  0
    0.4907    0.0386    3.3872 C   0  0  0  0  0  0  0  0  0  0  0  0
    1.8787   -0.0095    3.3817 C   0  0  0  0  0  0  0  0  0  0  0  0
    2.5655   -0.0768    2.2027 C   0  0  0  0  0  0  0  0  0  0  0  0
    1.8904   -0.0926    0.9665 C   0  0  0  0  0  0  0  0  0  0  0  0
    2.5801   -0.1559   -0.2891 C   0  0  0  0  0  0  0  0  0  0  0  0
    4.0545   -0.1057   -0.3728 C   0  0  0  0  0  0  0  0  0  0  0  0
    4.7766    0.8736    0.3023 C   0  0  0  0  0  0  0  0  0  0  0  0
    6.1582    0.9454    0.2249 C   0  0  0  0  0  0  0  0  0  0  0  0
    6.9199    1.9131    0.8928 O   0  0  0  0  0  0  0  0  0  0  0  0
    6.1884    2.7801    1.7278 C   0  0  0  0  0  0  0  0  0  0  0  0
    6.8581    0.0045   -0.5729 C   0  0  0  0  0  0  0  0  0  0  0  0
    8.2463    0.1301   -0.6010 O   0  0  0  0  0  0  0  0  0  0  0  0
    8.8939   -0.4950   -1.6792 C   0  0  0  0  0  0  0  0  0  0  0  0
    6.1333   -0.9950   -1.2723 C   0  0  0  0  0  0  0  0  0  0  0  0
    6.8435   -1.9257   -2.0434 O   0  0  0  0  0  0  0  0  0  0  0  0
    6.0599   -2.9165   -2.6666 C   0  0  0  0  0  0  0  0  0  0  0  0
    4.7500   -1.0191   -1.1598 C   0  0  0  0  0  0  0  0  0  0  0  0
    1.8330   -0.2502   -1.4521 C   0  0  0  0  0  0  0  0  0  0  0  0
    0.4489   -0.2475   -1.4292 C   0  0  0  0  0  0  0  0  0  0  0  0
   -0.2411   -0.1526   -0.2428 C   0  0  0  0  0  0  0  0  0  0  0  0
    0.4737   -0.0765    0.9766 C   0  0  0  0  0  0  0  0  0  0  0  0
   -1.7065   -0.1359   -0.2403 C   0  0  0  0  0  0  0  0  0  0  0  0
   -2.3306   -0.2075   -1.2868 O   0  0  0  0  0  0  0  0  0  0  0  0
   -3.7066    7.4008   -1.8043 H   0  0  0  0  0  0  0  0  0  0  0  0
   -2.3467    6.3688   -1.3760 H   0  0  0  0  0  0  0  0  0  0  0  0
   -3.8410    5.6563   -1.9605 H   0  0  0  0  0  0  0  0  0  0  0  0
   -5.0354    6.4358    0.1090 H   0  0  0  0  0  0  0  0  0  0  0  0
   -3.5841    7.2265    0.6663 H   0  0  0  0  0  0  0  0  0  0  0  0
   -2.4250    4.9813    0.7821 H   0  0  0  0  0  0  0  0  0  0  0  0
   -3.7811    5.1221    1.8662 H   0  0  0  0  0  0  0  0  0  0  0  0
   -5.2304    3.8996    0.1971 H   0  0  0  0  0  0  0  0  0  0  0  0
   -3.8545    3.7200   -0.8543 H   0  0  0  0  0  0  0  0  0  0  0  0
   -2.6363    2.4535    0.9510 H   0  0  0  0  0  0  0  0  0  0  0  0
   -4.0180    2.6070    1.9954 H   0  0  0  0  0  0  0  0  0  0  0  0
   -4.0429    1.2091   -0.7281 H   0  0  0  0  0  0  0  0  0  0  0  0
   -5.4156    1.3083    0.3519 H   0  0  0  0  0  0  0  0  0  0  0  0
   -4.0965    0.0669    2.0945 H   0  0  0  0  0  0  0  0  0  0  0  0
   -5.4941   -1.2436    0.4647 H   0  0  0  0  0  0  0  0  0  0  0  0
   -4.1201   -1.3138   -0.6129 H   0  0  0  0  0  0  0  0  0  0  0  0
   -2.7885   -2.4716    1.2109 H   0  0  0  0  0  0  0  0  0  0  0  0
   -4.2105   -2.4784    2.2143 H   0  0  0  0  0  0  0  0  0  0  0  0
   -4.0727   -4.6669    1.1820 H   0  0  0  0  0  0  0  0  0  0  0  0
   -5.4037   -3.8487    0.4103 H   0  0  0  0  0  0  0  0  0  0  0  0
   -2.5717   -4.0440   -0.7390 H   0  0  0  0  0  0  0  0  0  0  0  0
   -3.8997   -3.2329   -1.5165 H   0  0  0  0  0  0  0  0  0  0  0  0
   -3.7050   -5.4197   -2.5361 H   0  0  0  0  0  0  0  0  0  0  0  0
   -5.1751   -5.4111   -1.5977 H   0  0  0  0  0  0  0  0  0  0  0  0
   -4.0288   -6.6701    0.2500 H   0  0  0  0  0  0  0  0  0  0  0  0
   -3.8649   -7.5410   -1.2663 H   0  0  0  0  0  0  0  0  0  0  0  0
   -2.5136   -6.6063   -0.6351 H   0  0  0  0  0  0  0  0  0  0  0  0
   -0.0542    0.0952    4.3147 H   0  0  0  0  0  0  0  0  0  0  0  0
    2.4156    0.0026    4.3169 H   0  0  0  0  0  0  0  0  0  0  0  0
    3.6377   -0.1416    2.2154 H   0  0  0  0  0  0  0  0  0  0  0  0
    4.2346    1.6025    0.8731 H   0  0  0  0  0  0  0  0  0  0  0  0
    5.4945    3.3735    1.1314 H   0  0  0  0  0  0  0  0  0  0  0  0
    5.6528    2.2053    2.4844 H   0  0  0  0  0  0  0  0  0  0  0  0
    6.8898    3.4510    2.2250 H   0  0  0  0  0  0  0  0  0  0  0  0
    8.8618   -1.5756   -1.5326 H   0  0  0  0  0  0  0  0  0  0  0  0
    9.9309   -0.1593   -1.7133 H   0  0  0  0  0  0  0  0  0  0  0  0
    8.3882   -0.2303   -2.6088 H   0  0  0  0  0  0  0  0  0  0  0  0
    5.5222   -3.4936   -1.9135 H   0  0  0  0  0  0  0  0  0  0  0  0
    5.3642   -2.4552   -3.3684 H   0  0  0  0  0  0  0  0  0  0  0  0
    6.7213   -3.5864   -3.2169 H   0  0  0  0  0  0  0  0  0  0  0  0
    4.1849   -1.7697   -1.6772 H   0  0  0  0  0  0  0  0  0  0  0  0
    2.3483   -0.2977   -2.3954 H   0  0  0  0  0  0  0  0  0  0  0  0
   -0.1137   -0.3089   -2.3440 H   0  0  0  0  0  0  0  0  0  0  0  0
  1  2  1  0  0  0  0
  2  3  1  0  0  0  0
  3  4  1  0  0  0  0
  4  5  1  0  0  0  0
  5  6  1  0  0  0  0
  6  7  1  0  0  0  0
  7  8  1  0  0  0  0
  8  9  1  0  0  0  0
  9 10  1  0  0  0  0
 10 11  1  0  0  0  0
 11 12  1  0  0  0  0
 12 13  1  0  0  0  0
  7 14  1  0  0  0  0
 14 15  1  0  0  0  0
 15 16  2  0  0  0  0
 15 17  1  0  0  0  0
 17 18  1  0  0  0  0
 18 19  2  0  0  0  0
 19 20  1  0  0  0  0
 20 21  2  0  0  0  0
 21 22  1  0  0  0  0
 22 23  1  0  0  0  0
 23 24  2  0  0  0  0
 24 25  1  0  0  0  0
 25 26  1  0  0  0  0
 26 27  1  0  0  0  0
 25 28  2  0  0  0  0
 28 29  1  0  0  0  0
 29 30  1  0  0  0  0
 28 31  1  0  0  0  0
 31 32  1  0  0  0  0
 32 33  1  0  0  0  0
 31 34  2  0  0  0  0
 22 35  2  0  0  0  0
 35 36  1  0  0  0  0
 36 37  2  0  0  0  0
 37 38  1  0  0  0  0
 37 39  1  0  0  0  0
 39 40  2  0  0  0  0
 39 14  1  0  0  0  0
 38 17  2  0  0  0  0
 38 21  1  0  0  0  0
 34 23  1  0  0  0  0
  1 41  1  0  0  0  0
  1 42  1  0  0  0  0
  1 43  1  0  0  0  0
  2 44  1  0  0  0  0
  2 45  1  0  0  0  0
  3 46  1  0  0  0  0
  3 47  1  0  0  0  0
  4 48  1  0  0  0  0
  4 49  1  0  0  0  0
  5 50  1  0  0  0  0
  5 51  1  0  0  0  0
  6 52  1  0  0  0  0
  6 53  1  0  0  0  0
  7 54  1  0  0  0  0
  8 55  1  0  0  0  0
  8 56  1  0  0  0  0
  9 57  1  0  0  0  0
  9 58  1  0  0  0  0
 10 59  1  0  0  0  0
 10 60  1  0  0  0  0
 11 61  1  0  0  0  0
 11 62  1  0  0  0  0
 12 63  1  0  0  0  0
 12 64  1  0  0  0  0
 13 65  1  0  0  0  0
 13 66  1  0  0  0  0
 13 67  1  0  0  0  0
 18 68  1  0  0  0  0
 19 69  1  0  0  0  0
 20 70  1  0  0  0  0
 24 71  1  0  0  0  0
 27 72  1  0  0  0  0
 27 73  1  0  0  0  0
 27 74  1  0  0  0  0
 30 75  1  0  0  0  0
 30 76  1  0  0  0  0
 30 77  1  0  0  0  0
 33 78  1  0  0  0  0
 33 79  1  0  0  0  0
 33 80  1  0  0  0  0
 34 81  1  0  0  0  0
 35 82  1  0  0  0  0
 36 83  1  0  0  0  0
M  END
