
  xtb     03012221293D
 energy: -8.671199320031 gnorm: 0.000190906114 xtb: 6.4.1 (afa7bdf)
 45 48  0     0  0            999 V2000
    7.3496    0.4885   -1.2151 C   0  0  0  0  0  0  0  0  0  0  0  0
    6.4508    0.6113   -0.0672 N   0  0  0  0  0  0  0  0  0  0  0  0
    7.0398    1.0867    1.1847 C   0  0  0  0  0  0  0  0  0  0  0  0
    5.0857    0.2655   -0.1578 C   0  0  0  0  0  0  0  0  0  0  0  0
    4.5109   -0.0930   -1.3819 C   0  0  0  0  0  0  0  0  0  0  0  0
    3.1853   -0.4325   -1.4713 C   0  0  0  0  0  0  0  0  0  0  0  0
    2.3678   -0.4294   -0.3383 C   0  0  0  0  0  0  0  0  0  0  0  0
    1.0296   -0.7772   -0.4308 C   0  0  0  0  0  0  0  0  0  0  0  0
   -0.1587   -1.0992   -0.5325 C   0  0  0  0  0  0  0  0  0  0  0  0
   -1.4718   -1.4881   -0.6727 C   0  0  0  0  0  0  0  0  0  0  0  0
   -2.5246   -0.6210   -0.3543 C   0  0  0  0  0  0  0  0  0  0  0  0
   -2.2716    0.7979    0.0669 C   0  0  0  0  0  0  0  0  0  0  0  0
   -3.3536    1.3687    1.0056 C   0  0  0  0  0  0  0  0  0  0  0  0
   -4.7444    0.9264    0.6523 C   0  0  0  0  0  0  0  0  0  0  0  0
   -5.8448    1.6755    1.0217 C   0  0  0  0  0  0  0  0  0  0  0  0
   -7.1282    1.2406    0.7426 C   0  0  0  0  0  0  0  0  0  0  0  0
   -7.3281    0.0367    0.0932 C   0  0  0  0  0  0  0  0  0  0  0  0
   -6.2493   -0.7249   -0.2818 C   0  0  0  0  0  0  0  0  0  0  0  0
   -4.9468   -0.2937   -0.0207 C   0  0  0  0  0  0  0  0  0  0  0  0
   -3.8317   -1.1071   -0.4384 C   0  0  0  0  0  0  0  0  0  0  0  0
   -4.0921   -2.3594   -0.9061 O   0  0  0  0  0  3  0  0  0  0  0  0
   -3.0501   -2.9346   -1.7581 B   0  0  0  0  0  4  0  0  0  0  0  0
   -3.2958   -4.2783   -1.9858 F   0  0  0  0  0  0  0  0  0  0  0  0
   -3.0477   -2.2314   -2.9556 F   0  0  0  0  0  0  0  0  0  0  0  0
   -1.7411   -2.7487   -1.1242 O   0  0  0  0  0  0  0  0  0  0  0  0
    2.9363   -0.0725    0.8870 C   0  0  0  0  0  0  0  0  0  0  0  0
    4.2623    0.2666    0.9734 C   0  0  0  0  0  0  0  0  0  0  0  0
    7.0785    1.2138   -1.9791 H   0  0  0  0  0  0  0  0  0  0  0  0
    8.3824    0.6652   -0.9243 H   0  0  0  0  0  0  0  0  0  0  0  0
    7.2844   -0.5135   -1.6332 H   0  0  0  0  0  0  0  0  0  0  0  0
    8.0530    1.4486    1.0271 H   0  0  0  0  0  0  0  0  0  0  0  0
    7.0715    0.2778    1.9111 H   0  0  0  0  0  0  0  0  0  0  0  0
    6.4495    1.9067    1.5874 H   0  0  0  0  0  0  0  0  0  0  0  0
    5.1195   -0.0970   -2.2700 H   0  0  0  0  0  0  0  0  0  0  0  0
    2.7566   -0.7092   -2.4189 H   0  0  0  0  0  0  0  0  0  0  0  0
   -2.2026    1.4150   -0.8361 H   0  0  0  0  0  0  0  0  0  0  0  0
   -1.2865    0.8616    0.5439 H   0  0  0  0  0  0  0  0  0  0  0  0
   -3.1456    1.0622    2.0367 H   0  0  0  0  0  0  0  0  0  0  0  0
   -3.3154    2.4643    1.0084 H   0  0  0  0  0  0  0  0  0  0  0  0
   -5.6941    2.6053    1.5424 H   0  0  0  0  0  0  0  0  0  0  0  0
   -7.9743    1.8386    1.0378 H   0  0  0  0  0  0  0  0  0  0  0  0
   -8.3282   -0.3035   -0.1188 H   0  0  0  0  0  0  0  0  0  0  0  0
   -6.3832   -1.6652   -0.7897 H   0  0  0  0  0  0  0  0  0  0  0  0
    2.3162   -0.0722    1.7665 H   0  0  0  0  0  0  0  0  0  0  0  0
    4.6807    0.5277    1.9303 H   0  0  0  0  0  0  0  0  0  0  0  0
  1  2  1  0  0  0  0
  2  3  1  0  0  0  0
  2  4  1  0  0  0  0
  4  5  2  0  0  0  0
  5  6  1  0  0  0  0
  6  7  2  0  0  0  0
  7  8  1  0  0  0  0
  8  9  3  0  0  0  0
  9 10  1  0  0  0  0
 10 11  2  0  0  0  0
 11 12  1  0  0  0  0
 12 13  1  0  0  0  0
 13 14  1  0  0  0  0
 14 15  2  0  0  0  0
 15 16  1  0  0  0  0
 16 17  2  0  0  0  0
 17 18  1  0  0  0  0
 18 19  2  0  0  0  0
 19 20  1  0  0  0  0
 20 21  2  0  0  0  0
 21 22  1  0  0  0  0
 22 23  1  0  0  0  0
 22 24  1  0  0  0  0
 22 25  1  0  0  0  0
  7 26  1  0  0  0  0
 26 27  2  0  0  0  0
 27  4  1  0  0  0  0
 25 10  1  0  0  0  0
 20 11  1  0  0  0  0
 19 14  1  0  0  0  0
  1 28  1  0  0  0  0
  1 29  1  0  0  0  0
  1 30  1  0  0  0  0
  3 31  1  0  0  0  0
  3 32  1  0  0  0  0
  3 33  1  0  0  0  0
  5 34  1  0  0  0  0
  6 35  1  0  0  0  0
 12 36  1  0  0  0  0
 12 37  1  0  0  0  0
 13 38  1  0  0  0  0
 13 39  1  0  0  0  0
 15 40  1  0  0  0  0
 16 41  1  0  0  0  0
 17 42  1  0  0  0  0
 18 43  1  0  0  0  0
 26 44  1  0  0  0  0
 27 45  1  0  0  0  0
M  CHG  1  21   1
M  CHG  1  22  -1
M  END
