
  xtb     03012221223D
 energy: -12.219422967485 gnorm: 0.000116550401 xtb: 6.4.1 (afa7bdf)
 63 66  0     0  0            999 V2000
   -7.8393   -0.8694    0.9297 C   0  0  0  0  0  0  0  0  0  0  0  0
   -6.9736   -1.8624    1.6276 C   0  0  0  0  0  0  0  0  0  0  0  0
   -7.4770   -2.8101    2.1878 O   0  0  0  0  0  0  0  0  0  0  0  0
   -5.5143   -1.6875    1.6333 C   0  0  0  0  0  0  0  0  0  0  0  0
   -4.7309   -2.6300    2.3477 C   0  0  0  0  0  0  0  0  0  0  0  0
   -3.3857   -2.5175    2.4125 C   0  0  0  0  0  0  0  0  0  0  0  0
   -2.7619   -1.4690    1.7647 N   0  0  0  0  0  0  0  0  0  0  0  0
   -1.4347   -1.0789    1.6764 C   0  0  0  0  0  0  0  0  0  0  0  0
   -1.3345    0.0708    0.9046 C   0  0  0  0  0  0  0  0  0  0  0  0
   -2.6174    0.4282    0.4673 C   0  0  0  0  0  0  0  0  0  0  0  0
   -2.9540    1.5518   -0.4130 C   0  0  0  0  0  0  0  0  0  0  0  0
   -2.2330    2.7447   -0.3511 C   0  0  0  0  0  0  0  0  0  0  0  0
   -2.5363    3.7953   -1.1825 C   0  0  0  0  0  0  0  0  0  0  0  0
   -3.5659    3.6933   -2.1108 C   0  0  0  0  0  0  0  0  0  0  0  0
   -3.8723    4.7655   -2.9597 C   0  0  0  0  0  0  0  0  0  0  0  0
   -4.1256    5.6543   -3.6637 N   0  0  0  0  0  0  0  0  0  0  0  0
   -4.2810    2.5037   -2.1833 C   0  0  0  0  0  0  0  0  0  0  0  0
   -3.9814    1.4518   -1.3522 C   0  0  0  0  0  0  0  0  0  0  0  0
   -3.4978   -0.5388    1.0318 C   0  0  0  0  0  0  0  0  0  0  0  0
   -4.8952   -0.6476    0.9810 C   0  0  0  0  0  0  0  0  0  0  0  0
    0.1126    0.4629    0.8019 C   0  0  0  0  0  0  0  0  0  0  0  0
    0.7727   -0.5932    1.6085 N   0  0  0  0  0  0  0  0  0  0  0  0
    2.2123   -0.7197    1.8306 C   0  0  0  0  0  0  0  0  0  0  0  0
    2.7306   -2.0658    1.3557 C   0  0  0  0  0  0  0  0  0  0  0  0
    2.4743   -2.2668   -0.1293 C   0  0  0  0  0  0  0  0  0  0  0  0
    3.0292   -1.1905   -0.9320 N   0  0  0  0  0  0  0  0  0  0  0  0
    4.3561   -0.8140   -0.8320 C   0  0  0  0  0  0  0  0  0  0  0  0
    5.0965   -1.3623   -0.0340 O   0  0  0  0  0  0  0  0  0  0  0  0
    4.7402    0.2003   -1.6694 O   0  0  0  0  0  0  0  0  0  0  0  0
    6.1351    0.5827   -1.5466 C   0  0  0  0  0  0  0  0  0  0  0  0
    6.4159    1.0873   -0.1257 C   0  0  0  0  0  0  0  0  0  0  0  0
    6.3850    1.7170   -2.5502 C   0  0  0  0  0  0  0  0  0  0  0  0
    7.0341   -0.6115   -1.8898 C   0  0  0  0  0  0  0  0  0  0  0  0
   -0.1180   -1.5279    2.1279 C   0  0  0  0  0  0  0  0  0  0  0  0
    0.1433   -2.5149    2.7915 O   0  0  0  0  0  0  0  0  0  0  0  0
   -8.8859   -1.1469    1.0516 H   0  0  0  0  0  0  0  0  0  0  0  0
   -7.7062    0.1294    1.3451 H   0  0  0  0  0  0  0  0  0  0  0  0
   -7.6218   -0.8395   -0.1378 H   0  0  0  0  0  0  0  0  0  0  0  0
   -5.2426   -3.4352    2.8462 H   0  0  0  0  0  0  0  0  0  0  0  0
   -2.7733   -3.2144    2.9575 H   0  0  0  0  0  0  0  0  0  0  0  0
   -1.4410    2.8396    0.3695 H   0  0  0  0  0  0  0  0  0  0  0  0
   -1.9785    4.7153   -1.1249 H   0  0  0  0  0  0  0  0  0  0  0  0
   -5.0730    2.4176   -2.9087 H   0  0  0  0  0  0  0  0  0  0  0  0
   -4.5180    0.5251   -1.4458 H   0  0  0  0  0  0  0  0  0  0  0  0
   -5.4705    0.0933    0.4600 H   0  0  0  0  0  0  0  0  0  0  0  0
    0.4701    0.4360   -0.2299 H   0  0  0  0  0  0  0  0  0  0  0  0
    0.3048    1.4470    1.2348 H   0  0  0  0  0  0  0  0  0  0  0  0
    2.4036   -0.5710    2.8964 H   0  0  0  0  0  0  0  0  0  0  0  0
    2.7129    0.0896    1.2946 H   0  0  0  0  0  0  0  0  0  0  0  0
    3.8084   -2.1409    1.5470 H   0  0  0  0  0  0  0  0  0  0  0  0
    2.2518   -2.8648    1.9361 H   0  0  0  0  0  0  0  0  0  0  0  0
    1.3950   -2.3328   -0.3132 H   0  0  0  0  0  0  0  0  0  0  0  0
    2.9102   -3.2104   -0.4788 H   0  0  0  0  0  0  0  0  0  0  0  0
    2.4281   -0.7586   -1.6341 H   0  0  0  0  0  0  0  0  0  0  0  0
    5.7571    1.9185    0.1181 H   0  0  0  0  0  0  0  0  0  0  0  0
    6.2360    0.2948    0.5984 H   0  0  0  0  0  0  0  0  0  0  0  0
    7.4474    1.4200   -0.0216 H   0  0  0  0  0  0  0  0  0  0  0  0
    6.1659    1.3804   -3.5617 H   0  0  0  0  0  0  0  0  0  0  0  0
    7.4188    2.0572   -2.5142 H   0  0  0  0  0  0  0  0  0  0  0  0
    5.7345    2.5622   -2.3335 H   0  0  0  0  0  0  0  0  0  0  0  0
    6.8144   -0.9745   -2.8920 H   0  0  0  0  0  0  0  0  0  0  0  0
    8.0874   -0.3402   -1.8414 H   0  0  0  0  0  0  0  0  0  0  0  0
    6.8563   -1.4289   -1.1931 H   0  0  0  0  0  0  0  0  0  0  0  0
  1  2  1  0  0  0  0
  2  3  2  0  0  0  0
  2  4  1  0  0  0  0
  4  5  1  0  0  0  0
  5  6  2  0  0  0  0
  6  7  1  0  0  0  0
  7  8  1  0  0  0  0
  8  9  2  0  0  0  0
  9 10  1  0  0  0  0
 10 11  1  0  0  0  0
 11 12  2  0  0  0  0
 12 13  1  0  0  0  0
 13 14  2  0  0  0  0
 14 15  1  0  0  0  0
 15 16  3  0  0  0  0
 14 17  1  0  0  0  0
 17 18  2  0  0  0  0
 10 19  2  0  0  0  0
 19 20  1  0  0  0  0
  9 21  1  0  0  0  0
 21 22  1  0  0  0  0
 22 23  1  0  0  0  0
 23 24  1  0  0  0  0
 24 25  1  0  0  0  0
 25 26  1  0  0  0  0
 26 27  1  0  0  0  0
 27 28  2  0  0  0  0
 27 29  1  0  0  0  0
 29 30  1  0  0  0  0
 30 31  1  0  0  0  0
 30 32  1  0  0  0  0
 30 33  1  0  0  0  0
 22 34  1  0  0  0  0
 34 35  2  0  0  0  0
 20  4  2  0  0  0  0
 19  7  1  0  0  0  0
 34  8  1  0  0  0  0
 18 11  1  0  0  0  0
  1 36  1  0  0  0  0
  1 37  1  0  0  0  0
  1 38  1  0  0  0  0
  5 39  1  0  0  0  0
  6 40  1  0  0  0  0
 12 41  1  0  0  0  0
 13 42  1  0  0  0  0
 17 43  1  0  0  0  0
 18 44  1  0  0  0  0
 20 45  1  0  0  0  0
 21 46  1  0  0  0  0
 21 47  1  0  0  0  0
 23 48  1  0  0  0  0
 23 49  1  0  0  0  0
 24 50  1  0  0  0  0
 24 51  1  0  0  0  0
 25 52  1  0  0  0  0
 25 53  1  0  0  0  0
 26 54  1  0  0  0  0
 31 55  1  0  0  0  0
 31 56  1  0  0  0  0
 31 57  1  0  0  0  0
 32 58  1  0  0  0  0
 32 59  1  0  0  0  0
 32 60  1  0  0  0  0
 33 61  1  0  0  0  0
 33 62  1  0  0  0  0
 33 63  1  0  0  0  0
M  END
