
  xtb     03012221273D
 energy: -6.635920757535 gnorm: 0.000275846060 xtb: 6.4.1 (afa7bdf)
 32 35  0     0  0            999 V2000
   -4.3732   -0.2719   -0.2033 C   0  0  0  0  0  0  0  0  0  0  0  0
   -3.0567    0.3942    0.0104 C   0  0  0  0  0  0  0  0  0  0  0  0
   -3.0121    1.7343    0.3681 C   0  0  0  0  0  0  0  0  0  0  0  0
   -1.8175    2.3890    0.5772 C   0  0  0  0  0  0  0  0  0  0  0  0
   -0.6042    1.7191    0.4353 C   0  0  0  0  0  0  0  0  0  0  0  0
    0.6522    2.3693    0.6458 C   0  0  0  0  0  0  0  0  0  0  0  0
    1.8182    1.7032    0.5063 C   0  0  0  0  0  0  0  0  0  0  0  0
    1.8509    0.3172    0.1412 C   0  0  0  0  0  0  0  0  0  0  0  0
    3.0566   -0.3951   -0.0072 C   0  0  0  0  0  0  0  0  0  0  0  0
    4.3728    0.2686    0.2160 C   0  0  0  0  0  0  0  0  0  0  0  0
    3.0122   -1.7346   -0.3673 C   0  0  0  0  0  0  0  0  0  0  0  0
    1.8177   -2.3877   -0.5821 C   0  0  0  0  0  0  0  0  0  0  0  0
    0.6044   -1.7172   -0.4424 C   0  0  0  0  0  0  0  0  0  0  0  0
   -0.6518   -2.3668   -0.6556 C   0  0  0  0  0  0  0  0  0  0  0  0
   -1.8179   -1.7013   -0.5137 C   0  0  0  0  0  0  0  0  0  0  0  0
   -1.8508   -0.3166   -0.1442 C   0  0  0  0  0  0  0  0  0  0  0  0
   -0.6176    0.3520    0.0715 C   0  0  0  0  0  0  0  0  0  0  0  0
    0.6177   -0.3506   -0.0768 C   0  0  0  0  0  0  0  0  0  0  0  0
   -4.4567   -0.6533   -1.2216 H   0  0  0  0  0  0  0  0  0  0  0  0
   -4.5046   -1.1062    0.4867 H   0  0  0  0  0  0  0  0  0  0  0  0
   -5.2003    0.4207   -0.0428 H   0  0  0  0  0  0  0  0  0  0  0  0
   -3.9378    2.2716    0.4841 H   0  0  0  0  0  0  0  0  0  0  0  0
   -1.8110    3.4294    0.8538 H   0  0  0  0  0  0  0  0  0  0  0  0
    0.6516    3.4101    0.9205 H   0  0  0  0  0  0  0  0  0  0  0  0
    2.7481    2.2184    0.6712 H   0  0  0  0  0  0  0  0  0  0  0  0
    4.5135    1.0989   -0.4770 H   0  0  0  0  0  0  0  0  0  0  0  0
    4.4470    0.6553    1.2330 H   0  0  0  0  0  0  0  0  0  0  0  0
    5.1996   -0.4270    0.0681 H   0  0  0  0  0  0  0  0  0  0  0  0
    3.9378   -2.2726   -0.4805 H   0  0  0  0  0  0  0  0  0  0  0  0
    1.8114   -3.4275   -0.8608 H   0  0  0  0  0  0  0  0  0  0  0  0
   -0.6511   -3.4067   -0.9338 H   0  0  0  0  0  0  0  0  0  0  0  0
   -2.7477   -2.2162   -0.6802 H   0  0  0  0  0  0  0  0  0  0  0  0
  1  2  1  0  0  0  0
  2  3  2  0  0  0  0
  3  4  1  0  0  0  0
  4  5  2  0  0  0  0
  5  6  1  0  0  0  0
  6  7  2  0  0  0  0
  7  8  1  0  0  0  0
  8  9  2  0  0  0  0
  9 10  1  0  0  0  0
  9 11  1  0  0  0  0
 11 12  2  0  0  0  0
 12 13  1  0  0  0  0
 13 14  2  0  0  0  0
 14 15  1  0  0  0  0
 15 16  2  0  0  0  0
 16 17  1  0  0  0  0
 17 18  2  0  0  0  0
 16  2  1  0  0  0  0
 17  5  1  0  0  0  0
 18  8  1  0  0  0  0
 18 13  1  0  0  0  0
  1 19  1  0  0  0  0
  1 20  1  0  0  0  0
  1 21  1  0  0  0  0
  3 22  1  0  0  0  0
  4 23  1  0  0  0  0
  6 24  1  0  0  0  0
  7 25  1  0  0  0  0
 10 26  1  0  0  0  0
 10 27  1  0  0  0  0
 10 28  1  0  0  0  0
 11 29  1  0  0  0  0
 12 30  1  0  0  0  0
 14 31  1  0  0  0  0
 15 32  1  0  0  0  0
M  END
