
  xtb     03012221303D
 energy: -8.319979765340 gnorm: 0.000230979320 xtb: 6.4.1 (afa7bdf)
 36 41  0     0  0            999 V2000
    2.3568   -3.0880   -0.8976 O   0  0  0  0  0  0  0  0  0  0  0  0
    1.1958   -2.7519   -0.7718 C   0  0  0  0  0  0  0  0  0  0  0  0
    0.0551   -3.5296   -0.9439 N   0  0  0  0  0  0  0  0  0  0  0  0
   -1.1091   -2.8036   -0.7139 C   0  0  0  0  0  0  0  0  0  0  0  0
   -2.2587   -3.1914   -0.7817 O   0  0  0  0  0  0  0  0  0  0  0  0
   -0.6687   -1.4486   -0.3659 C   0  0  0  0  0  0  0  0  0  0  0  0
    0.7134   -1.4176   -0.4006 C   0  0  0  0  0  0  0  0  0  0  0  0
    1.4074   -0.2171   -0.1017 C   0  0  0  0  0  0  0  0  0  0  0  0
    2.8002    0.1099   -0.0577 C   0  0  0  0  0  0  0  0  0  0  0  0
    3.9491   -0.6463   -0.2953 C   0  0  0  0  0  0  0  0  0  0  0  0
    5.1700   -0.0384   -0.1710 C   0  0  0  0  0  0  0  0  0  0  0  0
    5.2679    1.3122    0.1865 C   0  0  0  0  0  0  0  0  0  0  0  0
    4.1500    2.0703    0.4237 C   0  0  0  0  0  0  0  0  0  0  0  0
    2.8946    1.4690    0.3022 C   0  0  0  0  0  0  0  0  0  0  0  0
    1.6066    1.9675    0.4753 N   0  0  0  0  0  0  0  0  0  0  0  0
    0.6975    0.9522    0.2325 C   0  0  0  0  0  0  0  0  0  0  0  0
   -0.7267    0.9204    0.2683 C   0  0  0  0  0  0  0  0  0  0  0  0
   -1.6670    1.8943    0.5575 N   0  0  0  0  0  0  0  0  0  0  0  0
   -2.9385    1.3385    0.4486 C   0  0  0  0  0  0  0  0  0  0  0  0
   -4.2119    1.8831    0.6336 C   0  0  0  0  0  0  0  0  0  0  0  0
   -5.3052    1.0755    0.4520 C   0  0  0  0  0  0  0  0  0  0  0  0
   -5.1651   -0.2699    0.0885 C   0  0  0  0  0  0  0  0  0  0  0  0
   -3.9260   -0.8226   -0.0976 C   0  0  0  0  0  0  0  0  0  0  0  0
   -2.8017   -0.0154    0.0830 C   0  0  0  0  0  0  0  0  0  0  0  0
   -1.3996   -0.2798   -0.0312 C   0  0  0  0  0  0  0  0  0  0  0  0
    0.0706   -4.5072   -1.2054 H   0  0  0  0  0  0  0  0  0  0  0  0
    3.8444   -1.6818   -0.5685 H   0  0  0  0  0  0  0  0  0  0  0  0
    6.0675   -0.6067   -0.3506 H   0  0  0  0  0  0  0  0  0  0  0  0
    6.2427    1.7632    0.2766 H   0  0  0  0  0  0  0  0  0  0  0  0
    4.2204    3.1073    0.6983 H   0  0  0  0  0  0  0  0  0  0  0  0
    1.3702    2.9241    0.7380 H   0  0  0  0  0  0  0  0  0  0  0  0
   -1.4608    2.8608    0.8091 H   0  0  0  0  0  0  0  0  0  0  0  0
   -4.3149    2.9162    0.9126 H   0  0  0  0  0  0  0  0  0  0  0  0
   -6.2935    1.4824    0.5913 H   0  0  0  0  0  0  0  0  0  0  0  0
   -6.0441   -0.8781   -0.0466 H   0  0  0  0  0  0  0  0  0  0  0  0
   -3.7888   -1.8527   -0.3768 H   0  0  0  0  0  0  0  0  0  0  0  0
  1  2  2  0  0  0  0
  2  3  1  0  0  0  0
  3  4  1  0  0  0  0
  4  5  2  0  0  0  0
  4  6  1  0  0  0  0
  6  7  2  0  0  0  0
  7  8  1  0  0  0  0
  8  9  1  0  0  0  0
  9 10  2  0  0  0  0
 10 11  1  0  0  0  0
 11 12  2  0  0  0  0
 12 13  1  0  0  0  0
 13 14  2  0  0  0  0
 14 15  1  0  0  0  0
 15 16  1  0  0  0  0
 16 17  1  0  0  0  0
 17 18  1  0  0  0  0
 18 19  1  0  0  0  0
 19 20  2  0  0  0  0
 20 21  1  0  0  0  0
 21 22  2  0  0  0  0
 22 23  1  0  0  0  0
 23 24  2  0  0  0  0
 24 25  1  0  0  0  0
  7  2  1  0  0  0  0
 16  8  2  0  0  0  0
 25 17  2  0  0  0  0
 25  6  1  0  0  0  0
 14  9  1  0  0  0  0
 24 19  1  0  0  0  0
  3 26  1  0  0  0  0
 10 27  1  0  0  0  0
 11 28  1  0  0  0  0
 12 29  1  0  0  0  0
 13 30  1  0  0  0  0
 15 31  1  0  0  0  0
 18 32  1  0  0  0  0
 20 33  1  0  0  0  0
 21 34  1  0  0  0  0
 22 35  1  0  0  0  0
 23 36  1  0  0  0  0
M  END
