
  xtb     03012221293D
 energy: -15.445000806377 gnorm: 0.000249035342 xtb: 6.4.1 (afa7bdf)
 85 89  0     0  0            999 V2000
    2.6199   -5.5869    1.9481 C   0  0  0  0  0  0  0  0  0  0  0  0
    3.8688   -5.5642    1.0811 C   0  0  0  0  0  0  0  0  0  0  0  0
    3.6216   -4.9722   -0.3118 C   0  0  0  0  0  0  0  0  0  0  0  0
    3.1933   -3.5400   -0.2636 C   0  0  0  0  0  0  0  0  0  0  0  0
    4.0199   -2.4712   -0.1031 C   0  0  0  0  0  0  0  0  0  0  0  0
    3.1817   -1.3238   -0.0223 C   0  0  0  0  0  0  0  0  0  0  0  0
    1.8957   -1.6797   -0.1210 N   0  0  0  0  0  0  0  0  0  0  0  0
    1.8467   -3.0151   -0.2697 C   0  0  0  0  0  0  0  0  0  0  0  0
    0.6720   -3.8006   -0.4130 C   0  0  0  0  0  0  0  0  0  0  0  0
   -0.6549   -3.4390   -0.4239 C   0  0  0  0  0  0  0  0  0  0  0  0
   -1.2763   -2.1723   -0.2818 C   0  0  0  0  0  0  0  0  0  0  0  0
   -0.6814   -0.9530   -0.0876 N   0  0  0  0  0  0  0  0  0  0  0  0
   -1.6007    0.0506    0.0080 C   0  0  0  0  0  0  0  0  0  0  0  0
   -1.2086    1.4087    0.2508 C   0  0  0  0  0  0  0  0  0  0  0  0
    0.0821    1.7651    0.2659 N   0  0  0  0  0  0  0  0  0  0  0  0
    0.1515    3.0808    0.5422 C   0  0  0  0  0  0  0  0  0  0  0  0
    1.3312    3.8670    0.6665 C   0  0  0  0  0  0  0  0  0  0  0  0
    2.6622    3.5248    0.6061 C   0  0  0  0  0  0  0  0  0  0  0  0
    3.2808    2.2615    0.4378 C   0  0  0  0  0  0  0  0  0  0  0  0
    2.6612    1.0496    0.2786 N   0  0  0  0  0  0  0  0  0  0  0  0
    3.5685    0.0399    0.1585 C   0  0  0  0  0  0  0  0  0  0  0  0
    4.8495    0.6289    0.2424 C   0  0  0  0  0  0  0  0  0  0  0  0
    4.6844    1.9866    0.4157 C   0  0  0  0  0  0  0  0  0  0  0  0
    5.7865    2.9948    0.4817 C   0  0  0  0  0  0  0  0  0  0  0  0
    5.9978    3.7334   -0.8448 C   0  0  0  0  0  0  0  0  0  0  0  0
    6.4052    2.8051   -1.9772 C   0  0  0  0  0  0  0  0  0  0  0  0
   -1.1854    3.5981    0.7088 C   0  0  0  0  0  0  0  0  0  0  0  0
   -1.5637    4.9999    1.0807 C   0  0  0  0  0  0  0  0  0  0  0  0
   -3.0127    5.3736    0.7435 C   0  0  0  0  0  0  0  0  0  0  0  0
   -3.2964    5.3490   -0.7499 C   0  0  0  0  0  0  0  0  0  0  0  0
   -2.0247    2.5401    0.5427 C   0  0  0  0  0  0  0  0  0  0  0  0
   -2.8786   -0.5552   -0.1617 C   0  0  0  0  0  0  0  0  0  0  0  0
   -4.2124    0.1049   -0.1685 C   0  0  0  0  0  0  0  0  0  0  0  0
   -4.9911   -0.1468    1.0821 N   0  0  0  0  0  0  0  0  0  0  0  0
   -6.3570    0.3890    1.0593 C   0  0  0  0  0  0  0  0  0  0  0  0
   -4.2855    0.2529    2.3058 C   0  0  0  0  0  0  0  0  0  0  0  0
   -2.6798   -1.9163   -0.3108 C   0  0  0  0  0  0  0  0  0  0  0  0
   -3.7562   -2.9294   -0.5327 C   0  0  0  0  0  0  0  0  0  0  0  0
   -3.9865   -3.2305   -2.0139 C   0  0  0  0  0  0  0  0  0  0  0  0
   -5.0899   -4.2496   -2.2438 C   0  0  0  0  0  0  0  0  0  0  0  0
    2.2196   -4.5811    2.0898 H   0  0  0  0  0  0  0  0  0  0  0  0
    1.8307   -6.1853    1.4890 H   0  0  0  0  0  0  0  0  0  0  0  0
    2.8142   -6.0043    2.9388 H   0  0  0  0  0  0  0  0  0  0  0  0
    4.6553   -4.9828    1.5806 H   0  0  0  0  0  0  0  0  0  0  0  0
    4.2766   -6.5804    0.9885 H   0  0  0  0  0  0  0  0  0  0  0  0
    2.8677   -5.5637   -0.8408 H   0  0  0  0  0  0  0  0  0  0  0  0
    4.5288   -5.0455   -0.9236 H   0  0  0  0  0  0  0  0  0  0  0  0
    5.0936   -2.4914   -0.0270 H   0  0  0  0  0  0  0  0  0  0  0  0
    0.8643   -4.8535   -0.5357 H   0  0  0  0  0  0  0  0  0  0  0  0
   -1.3531   -4.2493   -0.5620 H   0  0  0  0  0  0  0  0  0  0  0  0
    0.3264   -0.8394   -0.0298 H   0  0  0  0  0  0  0  0  0  0  0  0
    1.1349    4.9116    0.8485 H   0  0  0  0  0  0  0  0  0  0  0  0
    3.3599    4.3382    0.7266 H   0  0  0  0  0  0  0  0  0  0  0  0
    1.6512    0.9528    0.2397 H   0  0  0  0  0  0  0  0  0  0  0  0
    5.7888    0.1090    0.1686 H   0  0  0  0  0  0  0  0  0  0  0  0
    5.5748    3.7035    1.2907 H   0  0  0  0  0  0  0  0  0  0  0  0
    6.7137    2.4883    0.7718 H   0  0  0  0  0  0  0  0  0  0  0  0
    5.0733    4.2616   -1.1137 H   0  0  0  0  0  0  0  0  0  0  0  0
    6.7533    4.5215   -0.7177 H   0  0  0  0  0  0  0  0  0  0  0  0
    6.5584    3.3431   -2.9160 H   0  0  0  0  0  0  0  0  0  0  0  0
    7.3337    2.2803   -1.7430 H   0  0  0  0  0  0  0  0  0  0  0  0
    5.6428    2.0442   -2.1568 H   0  0  0  0  0  0  0  0  0  0  0  0
   -0.8912    5.6963    0.5687 H   0  0  0  0  0  0  0  0  0  0  0  0
   -1.3749    5.1368    2.1521 H   0  0  0  0  0  0  0  0  0  0  0  0
   -3.2426    6.3701    1.1467 H   0  0  0  0  0  0  0  0  0  0  0  0
   -3.6951    4.6924    1.2688 H   0  0  0  0  0  0  0  0  0  0  0  0
   -2.6554    6.0531   -1.2841 H   0  0  0  0  0  0  0  0  0  0  0  0
   -3.1077    4.3613   -1.1744 H   0  0  0  0  0  0  0  0  0  0  0  0
   -4.3329    5.6104   -0.9760 H   0  0  0  0  0  0  0  0  0  0  0  0
   -3.0925    2.5599    0.6565 H   0  0  0  0  0  0  0  0  0  0  0  0
   -4.1164    1.1790   -0.3272 H   0  0  0  0  0  0  0  0  0  0  0  0
   -4.7970   -0.2700   -1.0125 H   0  0  0  0  0  0  0  0  0  0  0  0
   -6.8932    0.0091    0.1917 H   0  0  0  0  0  0  0  0  0  0  0  0
   -6.3382    1.4762    1.0103 H   0  0  0  0  0  0  0  0  0  0  0  0
   -6.8964    0.0864    1.9548 H   0  0  0  0  0  0  0  0  0  0  0  0
   -4.1765    1.3345    2.3497 H   0  0  0  0  0  0  0  0  0  0  0  0
   -4.8376   -0.0787    3.1830 H   0  0  0  0  0  0  0  0  0  0  0  0
   -3.2967   -0.2006    2.3338 H   0  0  0  0  0  0  0  0  0  0  0  0
   -4.6861   -2.5734   -0.0758 H   0  0  0  0  0  0  0  0  0  0  0  0
   -3.5090   -3.8507    0.0055 H   0  0  0  0  0  0  0  0  0  0  0  0
   -3.0465   -3.5793   -2.4622 H   0  0  0  0  0  0  0  0  0  0  0  0
   -4.2179   -2.2946   -2.5402 H   0  0  0  0  0  0  0  0  0  0  0  0
   -4.8582   -5.1985   -1.7564 H   0  0  0  0  0  0  0  0  0  0  0  0
   -6.0399   -3.9011   -1.8343 H   0  0  0  0  0  0  0  0  0  0  0  0
   -5.2449   -4.4545   -3.3055 H   0  0  0  0  0  0  0  0  0  0  0  0
  1  2  1  0  0  0  0
  2  3  1  0  0  0  0
  3  4  1  0  0  0  0
  4  5  2  0  0  0  0
  5  6  1  0  0  0  0
  6  7  2  0  0  0  0
  7  8  1  0  0  0  0
  8  9  2  0  0  0  0
  9 10  1  0  0  0  0
 10 11  2  0  0  0  0
 11 12  1  0  0  0  0
 12 13  1  0  0  0  0
 13 14  2  0  0  0  0
 14 15  1  0  0  0  0
 15 16  2  0  0  0  0
 16 17  1  0  0  0  0
 17 18  2  0  0  0  0
 18 19  1  0  0  0  0
 19 20  1  0  0  0  0
 20 21  1  0  0  0  0
 21 22  2  0  0  0  0
 22 23  1  0  0  0  0
 23 24  1  0  0  0  0
 24 25  1  0  0  0  0
 25 26  1  0  0  0  0
 16 27  1  0  0  0  0
 27 28  1  0  0  0  0
 28 29  1  0  0  0  0
 29 30  1  0  0  0  0
 27 31  2  0  0  0  0
 13 32  1  0  0  0  0
 32 33  1  0  0  0  0
 33 34  1  0  0  0  0
 34 35  1  0  0  0  0
 34 36  1  0  0  0  0
 32 37  2  0  0  0  0
 37 38  1  0  0  0  0
 38 39  1  0  0  0  0
 39 40  1  0  0  0  0
  8  4  1  0  0  0  0
 37 11  1  0  0  0  0
 21  6  1  0  0  0  0
 31 14  1  0  0  0  0
 23 19  2  0  0  0  0
  1 41  1  0  0  0  0
  1 42  1  0  0  0  0
  1 43  1  0  0  0  0
  2 44  1  0  0  0  0
  2 45  1  0  0  0  0
  3 46  1  0  0  0  0
  3 47  1  0  0  0  0
  5 48  1  0  0  0  0
  9 49  1  0  0  0  0
 10 50  1  0  0  0  0
 12 51  1  0  0  0  0
 17 52  1  0  0  0  0
 18 53  1  0  0  0  0
 20 54  1  0  0  0  0
 22 55  1  0  0  0  0
 24 56  1  0  0  0  0
 24 57  1  0  0  0  0
 25 58  1  0  0  0  0
 25 59  1  0  0  0  0
 26 60  1  0  0  0  0
 26 61  1  0  0  0  0
 26 62  1  0  0  0  0
 28 63  1  0  0  0  0
 28 64  1  0  0  0  0
 29 65  1  0  0  0  0
 29 66  1  0  0  0  0
 30 67  1  0  0  0  0
 30 68  1  0  0  0  0
 30 69  1  0  0  0  0
 31 70  1  0  0  0  0
 33 71  1  0  0  0  0
 33 72  1  0  0  0  0
 35 73  1  0  0  0  0
 35 74  1  0  0  0  0
 35 75  1  0  0  0  0
 36 76  1  0  0  0  0
 36 77  1  0  0  0  0
 36 78  1  0  0  0  0
 38 79  1  0  0  0  0
 38 80  1  0  0  0  0
 39 81  1  0  0  0  0
 39 82  1  0  0  0  0
 40 83  1  0  0  0  0
 40 84  1  0  0  0  0
 40 85  1  0  0  0  0
M  END
