
  xtb     03012221323D
 energy: -12.108334390222 gnorm: 0.000363773701 xtb: 6.4.1 (afa7bdf)
 65 68  0     0  0            999 V2000
   -5.3289   -0.4582   -5.8343 C   0  0  0  0  0  0  0  0  0  0  0  0
   -5.4707   -0.4773   -4.3507 C   0  0  0  0  0  0  0  0  0  0  0  0
   -6.5599   -0.6538   -3.8528 O   0  0  0  0  0  0  0  0  0  0  0  0
   -4.2944   -0.2848   -3.4954 C   0  0  0  0  0  0  0  0  0  0  0  0
   -2.9844   -0.1087   -4.0233 C   0  0  0  0  0  0  0  0  0  0  0  0
   -1.9253    0.0764   -3.2036 C   0  0  0  0  0  0  0  0  0  0  0  0
   -2.1178    0.0867   -1.8332 N   0  0  0  0  0  0  0  0  0  0  0  0
   -1.2500    0.2653   -0.7684 C   0  0  0  0  0  0  0  0  0  0  0  0
   -1.9524    0.1899    0.4267 C   0  0  0  0  0  0  0  0  0  0  0  0
   -3.3013   -0.0534    0.1357 C   0  0  0  0  0  0  0  0  0  0  0  0
   -4.3842   -0.2308    1.1093 C   0  0  0  0  0  0  0  0  0  0  0  0
   -4.3819    0.4820    2.3076 C   0  0  0  0  0  0  0  0  0  0  0  0
   -5.3859    0.3091    3.2299 C   0  0  0  0  0  0  0  0  0  0  0  0
   -6.4108   -0.5815    2.9872 C   0  0  0  0  0  0  0  0  0  0  0  0
   -7.5165   -0.7565    4.0118 C   0  0  0  0  0  0  0  0  0  0  0  0
   -6.9691   -0.7438    5.2442 F   0  0  0  0  0  0  0  0  0  0  0  0
   -8.1400   -1.9317    3.7914 F   0  0  0  0  0  0  0  0  0  0  0  0
   -8.3861    0.2652    3.8793 F   0  0  0  0  0  0  0  0  0  0  0  0
   -6.4282   -1.2939    1.8055 C   0  0  0  0  0  0  0  0  0  0  0  0
   -5.4280   -1.1263    0.8773 C   0  0  0  0  0  0  0  0  0  0  0  0
   -3.3837   -0.1030   -1.2835 C   0  0  0  0  0  0  0  0  0  0  0  0
   -4.4825   -0.2763   -2.1382 C   0  0  0  0  0  0  0  0  0  0  0  0
   -0.9856    0.3633    1.5664 C   0  0  0  0  0  0  0  0  0  0  0  0
    0.3002    0.5479    0.8535 N   0  0  0  0  0  0  0  0  0  0  0  0
    1.6155    0.7563    1.4613 C   0  0  0  0  0  0  0  0  0  0  0  0
    2.2235    2.0883    1.0381 C   0  0  0  0  0  0  0  0  0  0  0  0
    3.7319    2.1189    1.2284 C   0  0  0  0  0  0  0  0  0  0  0  0
    4.3885    1.1080    0.4290 N   0  0  0  0  0  0  0  0  0  0  0  0
    5.6841    0.7097    0.6920 C   0  0  0  0  0  0  0  0  0  0  0  0
    6.2783    1.1627    1.6548 O   0  0  0  0  0  0  0  0  0  0  0  0
    6.2145   -0.1964   -0.1864 O   0  0  0  0  0  0  0  0  0  0  0  0
    7.5827   -0.5816    0.1044 C   0  0  0  0  0  0  0  0  0  0  0  0
    7.6535   -1.2505    1.4827 C   0  0  0  0  0  0  0  0  0  0  0  0
    8.4929    0.6517    0.0469 C   0  0  0  0  0  0  0  0  0  0  0  0
    8.0090   -1.5851   -0.9761 C   0  0  0  0  0  0  0  0  0  0  0  0
    0.1733    0.4977   -0.5307 C   0  0  0  0  0  0  0  0  0  0  0  0
    1.0580    0.6273   -1.3586 O   0  0  0  0  0  0  0  0  0  0  0  0
   -4.9169    0.4902   -6.1782 H   0  0  0  0  0  0  0  0  0  0  0  0
   -6.3075   -0.5867   -6.2958 H   0  0  0  0  0  0  0  0  0  0  0  0
   -4.6860   -1.2681   -6.1779 H   0  0  0  0  0  0  0  0  0  0  0  0
   -2.8405   -0.1197   -5.0889 H   0  0  0  0  0  0  0  0  0  0  0  0
   -0.9263    0.2175   -3.5745 H   0  0  0  0  0  0  0  0  0  0  0  0
   -3.5906    1.1840    2.4987 H   0  0  0  0  0  0  0  0  0  0  0  0
   -5.3899    0.8609    4.1562 H   0  0  0  0  0  0  0  0  0  0  0  0
   -7.2360   -1.9868    1.6319 H   0  0  0  0  0  0  0  0  0  0  0  0
   -5.4300   -1.7128   -0.0235 H   0  0  0  0  0  0  0  0  0  0  0  0
   -5.4784   -0.3810   -1.7462 H   0  0  0  0  0  0  0  0  0  0  0  0
   -0.9470   -0.5227    2.2066 H   0  0  0  0  0  0  0  0  0  0  0  0
   -1.2145    1.2459    2.1702 H   0  0  0  0  0  0  0  0  0  0  0  0
    2.2533   -0.0642    1.1252 H   0  0  0  0  0  0  0  0  0  0  0  0
    1.5388    0.6736    2.5475 H   0  0  0  0  0  0  0  0  0  0  0  0
    1.9997    2.2466   -0.0239 H   0  0  0  0  0  0  0  0  0  0  0  0
    1.7351    2.9134    1.5693 H   0  0  0  0  0  0  0  0  0  0  0  0
    4.1551    3.0943    0.9612 H   0  0  0  0  0  0  0  0  0  0  0  0
    3.9970    1.9402    2.2765 H   0  0  0  0  0  0  0  0  0  0  0  0
    3.8895    0.7770   -0.3957 H   0  0  0  0  0  0  0  0  0  0  0  0
    8.6648   -1.5846    1.7084 H   0  0  0  0  0  0  0  0  0  0  0  0
    6.9869   -2.1099    1.5205 H   0  0  0  0  0  0  0  0  0  0  0  0
    7.3403   -0.5518    2.2566 H   0  0  0  0  0  0  0  0  0  0  0  0
    9.5334    0.3839    0.2228 H   0  0  0  0  0  0  0  0  0  0  0  0
    8.4173    1.1319   -0.9268 H   0  0  0  0  0  0  0  0  0  0  0  0
    8.1912    1.3774    0.8003 H   0  0  0  0  0  0  0  0  0  0  0  0
    7.9351   -1.1301   -1.9620 H   0  0  0  0  0  0  0  0  0  0  0  0
    7.3538   -2.4539   -0.9624 H   0  0  0  0  0  0  0  0  0  0  0  0
    9.0338   -1.9202   -0.8243 H   0  0  0  0  0  0  0  0  0  0  0  0
  1  2  1  0  0  0  0
  2  3  2  0  0  0  0
  2  4  1  0  0  0  0
  4  5  1  0  0  0  0
  5  6  2  0  0  0  0
  6  7  1  0  0  0  0
  7  8  1  0  0  0  0
  8  9  2  0  0  0  0
  9 10  1  0  0  0  0
 10 11  1  0  0  0  0
 11 12  2  0  0  0  0
 12 13  1  0  0  0  0
 13 14  2  0  0  0  0
 14 15  1  0  0  0  0
 15 16  1  0  0  0  0
 15 17  1  0  0  0  0
 15 18  1  0  0  0  0
 14 19  1  0  0  0  0
 19 20  2  0  0  0  0
 10 21  2  0  0  0  0
 21 22  1  0  0  0  0
  9 23  1  0  0  0  0
 23 24  1  0  0  0  0
 24 25  1  0  0  0  0
 25 26  1  0  0  0  0
 26 27  1  0  0  0  0
 27 28  1  0  0  0  0
 28 29  1  0  0  0  0
 29 30  2  0  0  0  0
 29 31  1  0  0  0  0
 31 32  1  0  0  0  0
 32 33  1  0  0  0  0
 32 34  1  0  0  0  0
 32 35  1  0  0  0  0
 24 36  1  0  0  0  0
 36 37  2  0  0  0  0
 22  4  2  0  0  0  0
 21  7  1  0  0  0  0
 36  8  1  0  0  0  0
 20 11  1  0  0  0  0
  1 38  1  0  0  0  0
  1 39  1  0  0  0  0
  1 40  1  0  0  0  0
  5 41  1  0  0  0  0
  6 42  1  0  0  0  0
 12 43  1  0  0  0  0
 13 44  1  0  0  0  0
 19 45  1  0  0  0  0
 20 46  1  0  0  0  0
 22 47  1  0  0  0  0
 23 48  1  0  0  0  0
 23 49  1  0  0  0  0
 25 50  1  0  0  0  0
 25 51  1  0  0  0  0
 26 52  1  0  0  0  0
 26 53  1  0  0  0  0
 27 54  1  0  0  0  0
 27 55  1  0  0  0  0
 28 56  1  0  0  0  0
 33 57  1  0  0  0  0
 33 58  1  0  0  0  0
 33 59  1  0  0  0  0
 34 60  1  0  0  0  0
 34 61  1  0  0  0  0
 34 62  1  0  0  0  0
 35 63  1  0  0  0  0
 35 64  1  0  0  0  0
 35 65  1  0  0  0  0
M  END
