
  xtb     03012221303D
 energy: -16.977007582860 gnorm: 0.000237656212 xtb: 6.4.1 (afa7bdf)
 79 89  0     0  0            999 V2000
   -0.1070   -5.1729    0.9920 C   0  0  0  0  0  0  0  0  0  0  0  0
   -0.1679   -5.2519   -0.3881 C   0  0  0  0  0  0  0  0  0  0  0  0
   -0.1713   -4.1048   -1.1580 C   0  0  0  0  0  0  0  0  0  0  0  0
   -0.1129   -2.8746   -0.5312 C   0  0  0  0  0  0  0  0  0  0  0  0
   -0.0514   -2.7951    0.8582 C   0  0  0  0  0  0  0  0  0  0  0  0
   -0.0484   -3.9457    1.6237 C   0  0  0  0  0  0  0  0  0  0  0  0
    0.0052   -1.3635    1.3146 C   0  0  0  0  0  0  0  0  0  0  0  0
   -0.0206   -0.4828    0.0263 C   0  0  0  0  0  0  0  0  0  0  0  0
   -0.1050   -1.5045   -1.1506 C   0  0  0  0  0  0  0  0  0  0  0  0
    1.2017    0.4237   -0.0800 C   0  0  0  0  0  0  0  0  0  0  0  0
    2.5367    0.1037   -0.1204 C   0  0  0  0  0  0  0  0  0  0  0  0
    3.4860    1.1269   -0.2060 C   0  0  0  0  0  0  0  0  0  0  0  0
    4.8959    0.8178   -0.2772 N   0  0  0  0  0  0  0  0  0  0  0  0
    5.5964    0.3689    0.8901 C   0  0  0  0  0  0  0  0  0  0  0  0
    4.8961   -0.1466    1.9764 C   0  0  0  0  0  0  0  0  0  0  0  0
    5.5544   -0.6177    3.0931 C   0  0  0  0  0  0  0  0  0  0  0  0
    6.9304   -0.5765    3.1492 C   0  0  0  0  0  0  0  0  0  0  0  0
    7.6426   -0.0478    2.0881 C   0  0  0  0  0  0  0  0  0  0  0  0
    6.9924    0.4333    0.9685 C   0  0  0  0  0  0  0  0  0  0  0  0
    7.9736    1.1554   -0.3139 S   0  0  0  0  0  0  0  0  0  0  0  0
    6.9126    0.8991   -1.7040 C   0  0  0  0  0  0  0  0  0  0  0  0
    7.4844    0.8324   -2.9595 C   0  0  0  0  0  0  0  0  0  0  0  0
    6.7003    0.6685   -4.0872 C   0  0  0  0  0  0  0  0  0  0  0  0
    5.3316    0.5724   -3.9589 C   0  0  0  0  0  0  0  0  0  0  0  0
    4.7513    0.6328   -2.7091 C   0  0  0  0  0  0  0  0  0  0  0  0
    5.5255    0.7891   -1.5638 C   0  0  0  0  0  0  0  0  0  0  0  0
    3.0559    2.4591   -0.2703 C   0  0  0  0  0  0  0  0  0  0  0  0
    1.7195    2.7825   -0.2360 C   0  0  0  0  0  0  0  0  0  0  0  0
    0.7820    1.7587   -0.1377 C   0  0  0  0  0  0  0  0  0  0  0  0
   -0.6787    1.8087   -0.0803 C   0  0  0  0  0  0  0  0  0  0  0  0
   -1.5487    2.8946   -0.1077 C   0  0  0  0  0  0  0  0  0  0  0  0
   -2.9027    2.6636   -0.0379 C   0  0  0  0  0  0  0  0  0  0  0  0
   -3.4168    1.3634    0.0572 C   0  0  0  0  0  0  0  0  0  0  0  0
   -4.8430    1.1549    0.1630 N   0  0  0  0  0  0  0  0  0  0  0  0
   -5.4629    1.3104    1.4452 C   0  0  0  0  0  0  0  0  0  0  0  0
   -4.6879    1.2506    2.5991 C   0  0  0  0  0  0  0  0  0  0  0  0
   -5.2594    1.3685    3.8488 C   0  0  0  0  0  0  0  0  0  0  0  0
   -6.6202    1.5499    3.9684 C   0  0  0  0  0  0  0  0  0  0  0  0
   -7.4046    1.6199    2.8312 C   0  0  0  0  0  0  0  0  0  0  0  0
   -6.8413    1.5084    1.5751 C   0  0  0  0  0  0  0  0  0  0  0  0
   -7.9015    1.6549    0.1686 S   0  0  0  0  0  0  0  0  0  0  0  0
   -6.9674    0.7467   -1.0277 C   0  0  0  0  0  0  0  0  0  0  0  0
   -7.6504    0.1804   -2.0864 C   0  0  0  0  0  0  0  0  0  0  0  0
   -6.9748   -0.4978   -3.0845 C   0  0  0  0  0  0  0  0  0  0  0  0
   -5.6025   -0.6046   -3.0271 C   0  0  0  0  0  0  0  0  0  0  0  0
   -4.9119   -0.0492   -1.9702 C   0  0  0  0  0  0  0  0  0  0  0  0
   -5.5761    0.6182   -0.9456 C   0  0  0  0  0  0  0  0  0  0  0  0
   -2.5350    0.2789    0.0962 C   0  0  0  0  0  0  0  0  0  0  0  0
   -1.1826    0.5057    0.0209 C   0  0  0  0  0  0  0  0  0  0  0  0
   -0.1052   -6.0767    1.5800 H   0  0  0  0  0  0  0  0  0  0  0  0
   -0.2130   -6.2167   -0.8673 H   0  0  0  0  0  0  0  0  0  0  0  0
   -0.2186   -4.1554   -2.2316 H   0  0  0  0  0  0  0  0  0  0  0  0
   -0.0012   -3.8736    2.6960 H   0  0  0  0  0  0  0  0  0  0  0  0
   -0.8466   -1.1298    1.9603 H   0  0  0  0  0  0  0  0  0  0  0  0
    0.9154   -1.1777    1.8924 H   0  0  0  0  0  0  0  0  0  0  0  0
   -1.0123   -1.3418   -1.7400 H   0  0  0  0  0  0  0  0  0  0  0  0
    0.7490   -1.3898   -1.8248 H   0  0  0  0  0  0  0  0  0  0  0  0
    2.8512   -0.9235   -0.0985 H   0  0  0  0  0  0  0  0  0  0  0  0
    3.8227   -0.1777    1.9396 H   0  0  0  0  0  0  0  0  0  0  0  0
    4.9926   -1.0199    3.9205 H   0  0  0  0  0  0  0  0  0  0  0  0
    7.4491   -0.9461    4.0182 H   0  0  0  0  0  0  0  0  0  0  0  0
    8.7182    0.0061    2.1277 H   0  0  0  0  0  0  0  0  0  0  0  0
    8.5549    0.9185   -3.0484 H   0  0  0  0  0  0  0  0  0  0  0  0
    7.1584    0.6202   -5.0612 H   0  0  0  0  0  0  0  0  0  0  0  0
    4.7149    0.4475   -4.8341 H   0  0  0  0  0  0  0  0  0  0  0  0
    3.6840    0.5489   -2.6064 H   0  0  0  0  0  0  0  0  0  0  0  0
    3.8008    3.2314   -0.3481 H   0  0  0  0  0  0  0  0  0  0  0  0
    1.3926    3.8060   -0.2835 H   0  0  0  0  0  0  0  0  0  0  0  0
   -1.1569    3.8934   -0.1822 H   0  0  0  0  0  0  0  0  0  0  0  0
   -3.5965    3.4856   -0.0546 H   0  0  0  0  0  0  0  0  0  0  0  0
   -3.6272    1.1003    2.5047 H   0  0  0  0  0  0  0  0  0  0  0  0
   -4.6422    1.3164    4.7309 H   0  0  0  0  0  0  0  0  0  0  0  0
   -7.0715    1.6410    4.9425 H   0  0  0  0  0  0  0  0  0  0  0  0
   -8.4685    1.7714    2.9121 H   0  0  0  0  0  0  0  0  0  0  0  0
   -8.7221    0.2856   -2.1292 H   0  0  0  0  0  0  0  0  0  0  0  0
   -7.5189   -0.9326   -3.9066 H   0  0  0  0  0  0  0  0  0  0  0  0
   -5.0686   -1.1236   -3.8066 H   0  0  0  0  0  0  0  0  0  0  0  0
   -3.8414   -0.1323   -1.9322 H   0  0  0  0  0  0  0  0  0  0  0  0
   -2.9147   -0.7214    0.1956 H   0  0  0  0  0  0  0  0  0  0  0  0
  1  2  2  0  0  0  0
  2  3  1  0  0  0  0
  3  4  2  0  0  0  0
  4  5  1  0  0  0  0
  5  6  2  0  0  0  0
  5  7  1  0  0  0  0
  7  8  1  0  0  0  0
  8  9  1  0  0  0  0
  8 10  1  0  0  0  0
 10 11  2  0  0  0  0
 11 12  1  0  0  0  0
 12 13  1  0  0  0  0
 13 14  1  0  0  0  0
 14 15  2  0  0  0  0
 15 16  1  0  0  0  0
 16 17  2  0  0  0  0
 17 18  1  0  0  0  0
 18 19  2  0  0  0  0
 19 20  1  0  0  0  0
 20 21  1  0  0  0  0
 21 22  2  0  0  0  0
 22 23  1  0  0  0  0
 23 24  2  0  0  0  0
 24 25  1  0  0  0  0
 25 26  2  0  0  0  0
 12 27  2  0  0  0  0
 27 28  1  0  0  0  0
 28 29  2  0  0  0  0
 29 30  1  0  0  0  0
 30 31  2  0  0  0  0
 31 32  1  0  0  0  0
 32 33  2  0  0  0  0
 33 34  1  0  0  0  0
 34 35  1  0  0  0  0
 35 36  2  0  0  0  0
 36 37  1  0  0  0  0
 37 38  2  0  0  0  0
 38 39  1  0  0  0  0
 39 40  2  0  0  0  0
 40 41  1  0  0  0  0
 41 42  1  0  0  0  0
 42 43  2  0  0  0  0
 43 44  1  0  0  0  0
 44 45  2  0  0  0  0
 45 46  1  0  0  0  0
 46 47  2  0  0  0  0
 33 48  1  0  0  0  0
 48 49  2  0  0  0  0
  6  1  1  0  0  0  0
 49  8  1  0  0  0  0
  9  4  1  0  0  0  0
 29 10  1  0  0  0  0
 49 30  1  0  0  0  0
 26 13  1  0  0  0  0
 47 34  1  0  0  0  0
 19 14  1  0  0  0  0
 26 21  1  0  0  0  0
 40 35  1  0  0  0  0
 47 42  1  0  0  0  0
  1 50  1  0  0  0  0
  2 51  1  0  0  0  0
  3 52  1  0  0  0  0
  6 53  1  0  0  0  0
  7 54  1  0  0  0  0
  7 55  1  0  0  0  0
  9 56  1  0  0  0  0
  9 57  1  0  0  0  0
 11 58  1  0  0  0  0
 15 59  1  0  0  0  0
 16 60  1  0  0  0  0
 17 61  1  0  0  0  0
 18 62  1  0  0  0  0
 22 63  1  0  0  0  0
 23 64  1  0  0  0  0
 24 65  1  0  0  0  0
 25 66  1  0  0  0  0
 27 67  1  0  0  0  0
 28 68  1  0  0  0  0
 31 69  1  0  0  0  0
 32 70  1  0  0  0  0
 36 71  1  0  0  0  0
 37 72  1  0  0  0  0
 38 73  1  0  0  0  0
 39 74  1  0  0  0  0
 43 75  1  0  0  0  0
 44 76  1  0  0  0  0
 45 77  1  0  0  0  0
 46 78  1  0  0  0  0
 48 79  1  0  0  0  0
M  END
