
  xtb     03012221223D
 energy: -9.443818343818 gnorm: 0.000349799199 xtb: 6.4.1 (afa7bdf)
 47 50  0     0  0            999 V2000
    7.0213    1.4031    1.6895 C   0  0  0  0  0  0  0  0  0  0  0  0
    5.8943    2.2200    1.4856 O   0  0  0  0  0  0  0  0  0  0  0  0
    4.7577    1.5511    1.0296 C   0  0  0  0  0  0  0  0  0  0  0  0
    3.6090    2.3146    0.7997 C   0  0  0  0  0  0  0  0  0  0  0  0
    2.4495    1.7393    0.3493 C   0  0  0  0  0  0  0  0  0  0  0  0
    2.3788    0.3665    0.1057 C   0  0  0  0  0  0  0  0  0  0  0  0
    1.1616   -0.2694   -0.3695 C   0  0  0  0  0  0  0  0  0  0  0  0
   -0.0177    0.3467   -0.6680 C   0  0  0  0  0  0  0  0  0  0  0  0
   -1.0441   -0.5369   -1.1060 C   0  0  0  0  0  0  0  0  0  0  0  0
   -0.6602   -1.8679   -1.1418 C   0  0  0  0  0  0  0  0  0  0  0  0
    1.0119   -1.9867   -0.6401 S   0  0  0  0  0  0  0  0  0  0  0  0
   -1.5816   -2.8798   -1.5316 C   0  0  0  0  0  0  0  0  0  0  0  0
   -1.2590   -4.3157   -1.6093 C   0  0  0  0  0  0  0  0  0  0  0  0
    0.1413   -4.7939   -1.4404 C   0  0  0  0  0  0  0  0  0  0  0  0
   -2.1412   -5.1193   -1.8110 O   0  0  0  0  0  0  0  0  0  0  0  0
   -2.8582   -2.5045   -1.8327 C   0  0  0  0  0  0  0  0  0  0  0  0
   -3.2921   -1.1428   -1.7916 C   0  0  0  0  0  0  0  0  0  0  0  0
   -4.4613   -0.8348   -2.0288 O   0  0  0  0  0  0  0  0  0  0  0  0
   -2.3514   -0.1695   -1.4598 N   0  0  0  0  0  0  0  0  0  0  0  0
   -2.8009    1.2221   -1.4155 C   0  0  0  0  0  0  0  0  0  0  0  0
   -3.3111    1.5946   -0.0633 C   0  0  0  0  0  0  0  0  0  0  0  0
   -2.6971    2.5698    0.7056 C   0  0  0  0  0  0  0  0  0  0  0  0
   -3.1761    2.8755    1.9619 C   0  0  0  0  0  0  0  0  0  0  0  0
   -4.2737    2.2074    2.4640 C   0  0  0  0  0  0  0  0  0  0  0  0
   -4.8918    1.2327    1.7093 C   0  0  0  0  0  0  0  0  0  0  0  0
   -4.4093    0.9308    0.4549 C   0  0  0  0  0  0  0  0  0  0  0  0
    3.5243   -0.3957    0.3371 C   0  0  0  0  0  0  0  0  0  0  0  0
    4.6862    0.1759    0.7870 C   0  0  0  0  0  0  0  0  0  0  0  0
    6.8022    0.6515    2.4486 H   0  0  0  0  0  0  0  0  0  0  0  0
    7.8422    2.0303    2.0383 H   0  0  0  0  0  0  0  0  0  0  0  0
    7.3107    0.9298    0.7505 H   0  0  0  0  0  0  0  0  0  0  0  0
    3.6598    3.3726    0.9865 H   0  0  0  0  0  0  0  0  0  0  0  0
    1.5807    2.3525    0.1830 H   0  0  0  0  0  0  0  0  0  0  0  0
   -0.1720    1.4063   -0.5694 H   0  0  0  0  0  0  0  0  0  0  0  0
    0.4694   -4.6769   -0.4080 H   0  0  0  0  0  0  0  0  0  0  0  0
    0.2038   -5.8505   -1.6976 H   0  0  0  0  0  0  0  0  0  0  0  0
    0.8238   -4.2454   -2.0889 H   0  0  0  0  0  0  0  0  0  0  0  0
   -3.5736   -3.2594   -2.1044 H   0  0  0  0  0  0  0  0  0  0  0  0
   -1.9882    1.8789   -1.7311 H   0  0  0  0  0  0  0  0  0  0  0  0
   -3.5997    1.3337   -2.1540 H   0  0  0  0  0  0  0  0  0  0  0  0
   -1.8398    3.0901    0.3124 H   0  0  0  0  0  0  0  0  0  0  0  0
   -2.6920    3.6357    2.5520 H   0  0  0  0  0  0  0  0  0  0  0  0
   -4.6469    2.4457    3.4464 H   0  0  0  0  0  0  0  0  0  0  0  0
   -5.7469    0.7062    2.0992 H   0  0  0  0  0  0  0  0  0  0  0  0
   -4.8734    0.1639   -0.1439 H   0  0  0  0  0  0  0  0  0  0  0  0
    3.4817   -1.4562    0.1549 H   0  0  0  0  0  0  0  0  0  0  0  0
    5.5491   -0.4420    0.9553 H   0  0  0  0  0  0  0  0  0  0  0  0
  1  2  1  0  0  0  0
  2  3  1  0  0  0  0
  3  4  2  0  0  0  0
  4  5  1  0  0  0  0
  5  6  2  0  0  0  0
  6  7  1  0  0  0  0
  7  8  2  0  0  0  0
  8  9  1  0  0  0  0
  9 10  2  0  0  0  0
 10 11  1  0  0  0  0
 10 12  1  0  0  0  0
 12 13  1  0  0  0  0
 13 14  1  0  0  0  0
 13 15  2  0  0  0  0
 12 16  2  0  0  0  0
 16 17  1  0  0  0  0
 17 18  2  0  0  0  0
 17 19  1  0  0  0  0
 19 20  1  0  0  0  0
 20 21  1  0  0  0  0
 21 22  2  0  0  0  0
 22 23  1  0  0  0  0
 23 24  2  0  0  0  0
 24 25  1  0  0  0  0
 25 26  2  0  0  0  0
  6 27  1  0  0  0  0
 27 28  2  0  0  0  0
 28  3  1  0  0  0  0
 11  7  1  0  0  0  0
 26 21  1  0  0  0  0
 19  9  1  0  0  0  0
  1 29  1  0  0  0  0
  1 30  1  0  0  0  0
  1 31  1  0  0  0  0
  4 32  1  0  0  0  0
  5 33  1  0  0  0  0
  8 34  1  0  0  0  0
 14 35  1  0  0  0  0
 14 36  1  0  0  0  0
 14 37  1  0  0  0  0
 16 38  1  0  0  0  0
 20 39  1  0  0  0  0
 20 40  1  0  0  0  0
 22 41  1  0  0  0  0
 23 42  1  0  0  0  0
 24 43  1  0  0  0  0
 25 44  1  0  0  0  0
 26 45  1  0  0  0  0
 27 46  1  0  0  0  0
 28 47  1  0  0  0  0
M  END
