
  xtb     03012221263D
 energy: -9.229695598279 gnorm: 0.000155226804 xtb: 6.4.1 (afa7bdf)
 42 46  0     0  0            999 V2000
    8.8077   -0.1390    1.4251 O   0  0  0  0  0  0  0  0  0  0  0  0
    8.2957   -0.2733    0.3042 N   0  0  0  0  0  4  0  0  0  0  0  0
    8.9604   -0.4395   -0.7288 O   0  0  0  0  0  1  0  0  0  0  0  0
    6.8398   -0.2339    0.1956 C   0  0  0  0  0  0  0  0  0  0  0  0
    6.2303   -0.3795   -1.0353 C   0  0  0  0  0  0  0  0  0  0  0  0
    4.8610   -0.3427   -1.1393 C   0  0  0  0  0  0  0  0  0  0  0  0
    4.0617   -0.1582   -0.0090 C   0  0  0  0  0  0  0  0  0  0  0  0
    2.6206   -0.1239   -0.1515 C   0  0  0  0  0  0  0  0  0  0  0  0
    1.7365    0.0451    0.8423 C   0  0  0  0  0  0  0  0  0  0  0  0
    0.3188    0.0657    0.6061 C   0  0  0  0  0  0  0  0  0  0  0  0
   -0.2291   -0.0789   -0.5998 N   0  0  0  0  0  0  0  0  0  0  0  0
   -1.5533   -0.0015   -0.3949 C   0  0  0  0  0  0  0  0  0  0  0  0
   -2.6369   -0.0908   -1.3426 C   0  0  0  0  0  0  0  0  0  0  0  0
   -2.3807   -0.2860   -2.6992 C   0  0  0  0  0  0  0  0  0  0  0  0
   -3.4111   -0.3704   -3.5968 C   0  0  0  0  0  0  0  0  0  0  0  0
   -4.7206   -0.2611   -3.1553 C   0  0  0  0  0  0  0  0  0  0  0  0
   -4.9936   -0.0688   -1.8242 C   0  0  0  0  0  0  0  0  0  0  0  0
   -3.9664    0.0225   -0.8771 C   0  0  0  0  0  0  0  0  0  0  0  0
   -4.2306    0.2281    0.5525 C   0  0  0  0  0  0  0  0  0  0  0  0
   -5.5267    0.3471    1.0691 C   0  0  0  0  0  0  0  0  0  0  0  0
   -5.7441    0.5389    2.4106 C   0  0  0  0  0  0  0  0  0  0  0  0
   -4.6778    0.6199    3.2930 C   0  0  0  0  0  0  0  0  0  0  0  0
   -3.3966    0.5079    2.8243 C   0  0  0  0  0  0  0  0  0  0  0  0
   -3.1561    0.3129    1.4653 C   0  0  0  0  0  0  0  0  0  0  0  0
   -1.8090    0.1957    0.9759 C   0  0  0  0  0  0  0  0  0  0  0  0
   -0.6088    0.2378    1.6107 O   0  0  0  0  0  0  0  0  0  0  0  0
    4.6950   -0.0126    1.2277 C   0  0  0  0  0  0  0  0  0  0  0  0
    6.0649   -0.0505    1.3240 C   0  0  0  0  0  0  0  0  0  0  0  0
    6.8498   -0.5216   -1.9047 H   0  0  0  0  0  0  0  0  0  0  0  0
    4.3918   -0.4568   -2.1013 H   0  0  0  0  0  0  0  0  0  0  0  0
    2.2261   -0.2451   -1.1442 H   0  0  0  0  0  0  0  0  0  0  0  0
    2.0640    0.1716    1.8558 H   0  0  0  0  0  0  0  0  0  0  0  0
   -1.3582   -0.3687   -3.0249 H   0  0  0  0  0  0  0  0  0  0  0  0
   -3.2057   -0.5213   -4.6434 H   0  0  0  0  0  0  0  0  0  0  0  0
   -5.5292   -0.3280   -3.8645 H   0  0  0  0  0  0  0  0  0  0  0  0
   -6.0176    0.0125   -1.5099 H   0  0  0  0  0  0  0  0  0  0  0  0
   -6.3719    0.2883    0.4087 H   0  0  0  0  0  0  0  0  0  0  0  0
   -6.7513    0.6275    2.7835 H   0  0  0  0  0  0  0  0  0  0  0  0
   -4.8575    0.7705    4.3445 H   0  0  0  0  0  0  0  0  0  0  0  0
   -2.5557    0.5682    3.4939 H   0  0  0  0  0  0  0  0  0  0  0  0
    4.1070    0.1309    2.1162 H   0  0  0  0  0  0  0  0  0  0  0  0
    6.5576    0.0612    2.2752 H   0  0  0  0  0  0  0  0  0  0  0  0
  1  2  2  0  0  0  0
  2  3  1  0  0  0  0
  2  4  1  0  0  0  0
  4  5  2  0  0  0  0
  5  6  1  0  0  0  0
  6  7  2  0  0  0  0
  7  8  1  0  0  0  0
  8  9  2  0  0  0  0
  9 10  1  0  0  0  0
 10 11  2  0  0  0  0
 11 12  1  0  0  0  0
 12 13  2  0  0  0  0
 13 14  1  0  0  0  0
 14 15  2  0  0  0  0
 15 16  1  0  0  0  0
 16 17  2  0  0  0  0
 17 18  1  0  0  0  0
 18 19  2  0  0  0  0
 19 20  1  0  0  0  0
 20 21  2  0  0  0  0
 21 22  1  0  0  0  0
 22 23  2  0  0  0  0
 23 24  1  0  0  0  0
 24 25  2  0  0  0  0
 25 26  1  0  0  0  0
  7 27  1  0  0  0  0
 27 28  2  0  0  0  0
 28  4  1  0  0  0  0
 26 10  1  0  0  0  0
 25 12  1  0  0  0  0
 18 13  1  0  0  0  0
 24 19  1  0  0  0  0
  5 29  1  0  0  0  0
  6 30  1  0  0  0  0
  8 31  1  0  0  0  0
  9 32  1  0  0  0  0
 14 33  1  0  0  0  0
 15 34  1  0  0  0  0
 16 35  1  0  0  0  0
 17 36  1  0  0  0  0
 20 37  1  0  0  0  0
 21 38  1  0  0  0  0
 22 39  1  0  0  0  0
 23 40  1  0  0  0  0
 27 41  1  0  0  0  0
 28 42  1  0  0  0  0
M  CHG  1   2   1
M  CHG  1   3  -1
M  END
