
  xtb     03012221223D
 energy: -15.148153290303 gnorm: 0.000210181670 xtb: 6.4.1 (afa7bdf)
 71 78  0     0  0            999 V2000
   -0.1781   -1.9883   -0.9008 F   0  0  0  0  0  0  0  0  0  0  0  0
   -0.1161   -1.0750    0.1500 B   0  0  0  0  0  4  0  0  0  0  0  0
   -0.2179   -1.6781    1.4023 F   0  0  0  0  0  0  0  0  0  0  0  0
   -1.2910   -0.0986   -0.0351 N   0  0  0  0  0  0  0  0  0  0  0  0
   -1.0645    1.2665   -0.1892 C   0  0  0  0  0  0  0  0  0  0  0  0
   -2.3371    1.8585   -0.2864 C   0  0  0  0  0  0  0  0  0  0  0  0
   -3.2974    0.8577   -0.2196 C   0  0  0  0  0  0  0  0  0  0  0  0
   -4.7460    1.0991   -0.2010 C   0  0  0  0  0  0  0  0  0  0  0  0
   -5.5955    0.3381    0.6061 C   0  0  0  0  0  0  0  0  0  0  0  0
   -6.9496    0.5791    0.6284 C   0  0  0  0  0  0  0  0  0  0  0  0
   -7.4871    1.5878   -0.1461 C   0  0  0  0  0  0  0  0  0  0  0  0
   -6.6626    2.3597   -0.9404 C   0  0  0  0  0  0  0  0  0  0  0  0
   -5.3072    2.1239   -0.9663 C   0  0  0  0  0  0  0  0  0  0  0  0
   -2.6118   -0.4080   -0.0992 C   0  0  0  0  0  0  0  0  0  0  0  0
   -3.2024   -1.7383   -0.2127 C   0  0  0  0  0  0  0  0  0  0  0  0
   -4.3782   -1.9435   -0.9421 C   0  0  0  0  0  0  0  0  0  0  0  0
   -4.9315   -3.1971   -1.0605 C   0  0  0  0  0  0  0  0  0  0  0  0
   -4.3233   -4.2833   -0.4635 C   0  0  0  0  0  0  0  0  0  0  0  0
   -3.1523   -4.1091    0.2461 C   0  0  0  0  0  0  0  0  0  0  0  0
   -2.5992   -2.8563    0.3653 C   0  0  0  0  0  0  0  0  0  0  0  0
    0.2022    1.8727   -0.2447 C   0  0  0  0  0  0  0  0  0  0  0  0
    0.3589    3.3265   -0.4416 C   0  0  0  0  0  0  0  0  0  0  0  0
   -0.3506    3.9981   -1.4411 C   0  0  0  0  0  0  0  0  0  0  0  0
   -0.2027    5.3533   -1.6219 C   0  0  0  0  0  0  0  0  0  0  0  0
    0.6537    6.0723   -0.8132 C   0  0  0  0  0  0  0  0  0  0  0  0
    1.3638    5.4290    0.1798 C   0  0  0  0  0  0  0  0  0  0  0  0
    1.2209    4.0739    0.3658 C   0  0  0  0  0  0  0  0  0  0  0  0
    1.3116    1.0216   -0.1034 C   0  0  0  0  0  0  0  0  0  0  0  0
    2.6824    1.3376   -0.1276 C   0  0  0  0  0  0  0  0  0  0  0  0
    3.4090    0.1750    0.0942 C   0  0  0  0  0  0  0  0  0  0  0  0
    4.8743    0.0913    0.0438 C   0  0  0  0  0  0  0  0  0  0  0  0
    5.5161   -1.0162   -0.5163 C   0  0  0  0  0  0  0  0  0  0  0  0
    6.8889   -1.0796   -0.5767 C   0  0  0  0  0  0  0  0  0  0  0  0
    7.6530   -0.0389   -0.0877 C   0  0  0  0  0  0  0  0  0  0  0  0
    7.0376    1.0698    0.4586 C   0  0  0  0  0  0  0  0  0  0  0  0
    5.6647    1.1393    0.5210 C   0  0  0  0  0  0  0  0  0  0  0  0
    2.4695   -0.9047    0.2893 C   0  0  0  0  0  0  0  0  0  0  0  0
    2.7714   -2.2541    0.7574 C   0  0  0  0  0  0  0  0  0  0  0  0
    3.8985   -2.5062    1.5465 C   0  0  0  0  0  0  0  0  0  0  0  0
    4.1812   -3.7746    1.9971 C   0  0  0  0  0  0  0  0  0  0  0  0
    3.3434   -4.8259    1.6823 C   0  0  0  0  0  0  0  0  0  0  0  0
    2.2149   -4.5987    0.9207 C   0  0  0  0  0  0  0  0  0  0  0  0
    1.9321   -3.3314    0.4695 C   0  0  0  0  0  0  0  0  0  0  0  0
    1.2419   -0.3526    0.1096 N   0  0  0  0  0  4  0  0  0  0  0  0
   -2.5365    2.9127   -0.3531 H   0  0  0  0  0  0  0  0  0  0  0  0
   -5.1736   -0.4389    1.2192 H   0  0  0  0  0  0  0  0  0  0  0  0
   -7.5921   -0.0197    1.2532 H   0  0  0  0  0  0  0  0  0  0  0  0
   -8.5491    1.7745   -0.1282 H   0  0  0  0  0  0  0  0  0  0  0  0
   -7.0822    3.1493   -1.5423 H   0  0  0  0  0  0  0  0  0  0  0  0
   -4.6658    2.7213   -1.5902 H   0  0  0  0  0  0  0  0  0  0  0  0
   -4.8429   -1.1050   -1.4293 H   0  0  0  0  0  0  0  0  0  0  0  0
   -5.8396   -3.3326   -1.6249 H   0  0  0  0  0  0  0  0  0  0  0  0
   -4.7564   -5.2653   -0.5588 H   0  0  0  0  0  0  0  0  0  0  0  0
   -2.6666   -4.9567    0.7015 H   0  0  0  0  0  0  0  0  0  0  0  0
   -1.6762   -2.7247    0.8951 H   0  0  0  0  0  0  0  0  0  0  0  0
   -1.0014    3.4347   -2.0865 H   0  0  0  0  0  0  0  0  0  0  0  0
   -0.7551    5.8550   -2.4003 H   0  0  0  0  0  0  0  0  0  0  0  0
    0.7677    7.1352   -0.9570 H   0  0  0  0  0  0  0  0  0  0  0  0
    2.0304    5.9912    0.8143 H   0  0  0  0  0  0  0  0  0  0  0  0
    1.7577    3.5772    1.1548 H   0  0  0  0  0  0  0  0  0  0  0  0
    3.1005    2.3062   -0.3340 H   0  0  0  0  0  0  0  0  0  0  0  0
    4.9192   -1.8202   -0.9099 H   0  0  0  0  0  0  0  0  0  0  0  0
    7.3687   -1.9424   -1.0092 H   0  0  0  0  0  0  0  0  0  0  0  0
    8.7292   -0.0903   -0.1358 H   0  0  0  0  0  0  0  0  0  0  0  0
    7.6346    1.8836    0.8372 H   0  0  0  0  0  0  0  0  0  0  0  0
    5.1856    2.0010    0.9516 H   0  0  0  0  0  0  0  0  0  0  0  0
    4.5418   -1.6870    1.8138 H   0  0  0  0  0  0  0  0  0  0  0  0
    5.0569   -3.9477    2.6011 H   0  0  0  0  0  0  0  0  0  0  0  0
    3.5648   -5.8188    2.0374 H   0  0  0  0  0  0  0  0  0  0  0  0
    1.5505   -5.4141    0.6849 H   0  0  0  0  0  0  0  0  0  0  0  0
    1.0426   -3.1502   -0.1012 H   0  0  0  0  0  0  0  0  0  0  0  0
  1  2  1  0  0  0  0
  2  3  1  0  0  0  0
  2  4  1  0  0  0  0
  4  5  1  0  0  0  0
  5  6  2  0  0  0  0
  6  7  1  0  0  0  0
  7  8  1  0  0  0  0
  8  9  2  0  0  0  0
  9 10  1  0  0  0  0
 10 11  2  0  0  0  0
 11 12  1  0  0  0  0
 12 13  2  0  0  0  0
  7 14  2  0  0  0  0
 14 15  1  0  0  0  0
 15 16  2  0  0  0  0
 16 17  1  0  0  0  0
 17 18  2  0  0  0  0
 18 19  1  0  0  0  0
 19 20  2  0  0  0  0
  5 21  1  0  0  0  0
 21 22  1  0  0  0  0
 22 23  2  0  0  0  0
 23 24  1  0  0  0  0
 24 25  2  0  0  0  0
 25 26  1  0  0  0  0
 26 27  2  0  0  0  0
 21 28  2  0  0  0  0
 28 29  1  0  0  0  0
 29 30  2  0  0  0  0
 30 31  1  0  0  0  0
 31 32  2  0  0  0  0
 32 33  1  0  0  0  0
 33 34  2  0  0  0  0
 34 35  1  0  0  0  0
 35 36  2  0  0  0  0
 30 37  1  0  0  0  0
 37 38  1  0  0  0  0
 38 39  2  0  0  0  0
 39 40  1  0  0  0  0
 40 41  2  0  0  0  0
 41 42  1  0  0  0  0
 42 43  2  0  0  0  0
 37 44  2  0  0  0  0
 44  2  1  0  0  0  0
 14  4  1  0  0  0  0
 20 15  1  0  0  0  0
 27 22  1  0  0  0  0
 44 28  1  0  0  0  0
 13  8  1  0  0  0  0
 36 31  1  0  0  0  0
 43 38  1  0  0  0  0
  6 45  1  0  0  0  0
  9 46  1  0  0  0  0
 10 47  1  0  0  0  0
 11 48  1  0  0  0  0
 12 49  1  0  0  0  0
 13 50  1  0  0  0  0
 16 51  1  0  0  0  0
 17 52  1  0  0  0  0
 18 53  1  0  0  0  0
 19 54  1  0  0  0  0
 20 55  1  0  0  0  0
 23 56  1  0  0  0  0
 24 57  1  0  0  0  0
 25 58  1  0  0  0  0
 26 59  1  0  0  0  0
 27 60  1  0  0  0  0
 29 61  1  0  0  0  0
 32 62  1  0  0  0  0
 33 63  1  0  0  0  0
 34 64  1  0  0  0  0
 35 65  1  0  0  0  0
 36 66  1  0  0  0  0
 39 67  1  0  0  0  0
 40 68  1  0  0  0  0
 41 69  1  0  0  0  0
 42 70  1  0  0  0  0
 43 71  1  0  0  0  0
M  CHG  1   2  -1
M  CHG  1  44   1
M  END
