
  xtb     03012221333D
 energy: -6.413137466884 gnorm: 0.000303506042 xtb: 6.4.1 (afa7bdf)
 30 32  0     0  0            999 V2000
   -0.4924   -1.9183   -1.7955 N   0  0  0  0  0  0  0  0  0  0  0  0
    0.3929   -1.1685   -1.2460 C   0  0  0  0  0  0  0  0  0  0  0  0
    1.7068   -1.2965   -1.6748 O   0  0  0  0  0  0  0  0  0  0  0  0
    2.6761   -0.5019   -1.0968 C   0  0  0  0  0  0  0  0  0  0  0  0
    4.0036   -0.6154   -1.5197 C   0  0  0  0  0  0  0  0  0  0  0  0
    4.9882    0.1569   -0.9603 C   0  0  0  0  0  0  0  0  0  0  0  0
    4.6785    1.0678    0.0399 C   0  0  0  0  0  0  0  0  0  0  0  0
    3.3836    1.2020    0.4750 C   0  0  0  0  0  0  0  0  0  0  0  0
    2.3623    0.4260   -0.0816 C   0  0  0  0  0  0  0  0  0  0  0  0
    1.0119    0.5387    0.3410 C   0  0  0  0  0  0  0  0  0  0  0  0
    0.0245   -0.2155   -0.2079 C   0  0  0  0  0  0  0  0  0  0  0  0
   -1.3685   -0.0784    0.2499 C   0  0  0  0  0  0  0  0  0  0  0  0
   -1.8157    1.0918    0.8713 C   0  0  0  0  0  0  0  0  0  0  0  0
   -3.1052    1.2001    1.3330 C   0  0  0  0  0  0  0  0  0  0  0  0
   -3.9898    0.1488    1.1903 C   0  0  0  0  0  0  0  0  0  0  0  0
   -5.3553    0.2662    1.6873 N   0  0  0  0  0  4  0  0  0  0  0  0
   -6.1170   -0.6996    1.5535 O   0  0  0  0  0  0  0  0  0  0  0  0
   -5.6987    1.3270    2.2242 O   0  0  0  0  0  1  0  0  0  0  0  0
   -3.5741   -1.0110    0.5665 C   0  0  0  0  0  0  0  0  0  0  0  0
   -2.2875   -1.1186    0.0998 C   0  0  0  0  0  0  0  0  0  0  0  0
   -0.1930   -2.5370   -2.4960 H   0  0  0  0  0  0  0  0  0  0  0  0
    4.2317   -1.3256   -2.2943 H   0  0  0  0  0  0  0  0  0  0  0  0
    6.0068    0.0565   -1.2973 H   0  0  0  0  0  0  0  0  0  0  0  0
    5.4581    1.6707    0.4749 H   0  0  0  0  0  0  0  0  0  0  0  0
    3.1420    1.9080    1.2497 H   0  0  0  0  0  0  0  0  0  0  0  0
    0.7859    1.2256    1.1347 H   0  0  0  0  0  0  0  0  0  0  0  0
   -1.1489    1.9295    0.9698 H   0  0  0  0  0  0  0  0  0  0  0  0
   -3.4504    2.1015    1.8105 H   0  0  0  0  0  0  0  0  0  0  0  0
   -4.2790   -1.8168    0.4503 H   0  0  0  0  0  0  0  0  0  0  0  0
   -1.9775   -2.0142   -0.4053 H   0  0  0  0  0  0  0  0  0  0  0  0
  1  2  2  0  0  0  0
  2  3  1  0  0  0  0
  3  4  1  0  0  0  0
  4  5  2  0  0  0  0
  5  6  1  0  0  0  0
  6  7  2  0  0  0  0
  7  8  1  0  0  0  0
  8  9  2  0  0  0  0
  9 10  1  0  0  0  0
 10 11  2  0  0  0  0
 11 12  1  0  0  0  0
 12 13  2  0  0  0  0
 13 14  1  0  0  0  0
 14 15  2  0  0  0  0
 15 16  1  0  0  0  0
 16 17  2  0  0  0  0
 16 18  1  0  0  0  0
 15 19  1  0  0  0  0
 19 20  2  0  0  0  0
 11  2  1  0  0  0  0
 20 12  1  0  0  0  0
  9  4  1  0  0  0  0
  1 21  1  0  0  0  0
  5 22  1  0  0  0  0
  6 23  1  0  0  0  0
  7 24  1  0  0  0  0
  8 25  1  0  0  0  0
 10 26  1  0  0  0  0
 13 27  1  0  0  0  0
 14 28  1  0  0  0  0
 19 29  1  0  0  0  0
 20 30  1  0  0  0  0
M  CHG  1  16   1
M  CHG  1  18  -1
M  END
