
  xtb     03012221243D
 energy: -6.759435326962 gnorm: 0.000246589089 xtb: 6.4.1 (afa7bdf)
 34 36  0     0  0            999 V2000
    0.0327    0.6211    1.7740 C   0  0  0  0  0  0  0  0  0  0  0  0
   -0.3190    0.1474    0.4098 C   0  0  0  0  0  0  0  0  0  0  0  0
    0.6113   -0.2650   -0.4832 C   0  0  0  0  0  0  0  0  0  0  0  0
    2.0627   -0.2740   -0.3111 C   0  0  0  0  0  0  0  0  0  0  0  0
    2.8146   -1.3248   -0.8384 C   0  0  0  0  0  0  0  0  0  0  0  0
    4.1845   -1.3534   -0.7033 C   0  0  0  0  0  0  0  0  0  0  0  0
    4.8569   -0.3283   -0.0531 C   0  0  0  0  0  0  0  0  0  0  0  0
    6.3358   -0.3677    0.1136 C   0  0  0  0  0  0  0  0  0  0  0  0
    4.1165    0.7242    0.4653 C   0  0  0  0  0  0  0  0  0  0  0  0
    2.7462    0.7573    0.3344 C   0  0  0  0  0  0  0  0  0  0  0  0
   -1.7148    0.1164    0.0520 C   0  0  0  0  0  0  0  0  0  0  0  0
   -2.6675    0.4817    0.8655 N   0  0  0  0  0  0  0  0  0  0  0  0
   -3.9172    0.3603    0.2851 C   0  0  0  0  0  0  0  0  0  0  0  0
   -5.1356    0.6743    0.9040 C   0  0  0  0  0  0  0  0  0  0  0  0
   -6.3083    0.5082    0.2116 C   0  0  0  0  0  0  0  0  0  0  0  0
   -6.3023    0.0320   -1.0989 C   0  0  0  0  0  0  0  0  0  0  0  0
   -5.1186   -0.2813   -1.7224 C   0  0  0  0  0  0  0  0  0  0  0  0
   -3.9257   -0.1182   -1.0317 C   0  0  0  0  0  0  0  0  0  0  0  0
   -2.2916   -0.4218   -1.5325 S   0  0  0  0  0  0  0  0  0  0  0  0
   -0.7888    0.4329    2.4663 H   0  0  0  0  0  0  0  0  0  0  0  0
    0.2251    1.6941    1.7776 H   0  0  0  0  0  0  0  0  0  0  0  0
    0.9130    0.1059    2.1598 H   0  0  0  0  0  0  0  0  0  0  0  0
    0.2471   -0.6603   -1.4154 H   0  0  0  0  0  0  0  0  0  0  0  0
    2.3052   -2.1257   -1.3464 H   0  0  0  0  0  0  0  0  0  0  0  0
    4.7483   -2.1784   -1.1043 H   0  0  0  0  0  0  0  0  0  0  0  0
    6.6044   -0.7558    1.0972 H   0  0  0  0  0  0  0  0  0  0  0  0
    6.8021   -1.0059   -0.6384 H   0  0  0  0  0  0  0  0  0  0  0  0
    6.7680    0.6292    0.0151 H   0  0  0  0  0  0  0  0  0  0  0  0
    4.6292    1.5245    0.9713 H   0  0  0  0  0  0  0  0  0  0  0  0
    2.1949    1.6030    0.7054 H   0  0  0  0  0  0  0  0  0  0  0  0
   -5.1293    1.0408    1.9150 H   0  0  0  0  0  0  0  0  0  0  0  0
   -7.2461    0.7483    0.6854 H   0  0  0  0  0  0  0  0  0  0  0  0
   -7.2340   -0.0911   -1.6261 H   0  0  0  0  0  0  0  0  0  0  0  0
   -5.0995   -0.6498   -2.7335 H   0  0  0  0  0  0  0  0  0  0  0  0
  1  2  1  0  0  0  0
  2  3  2  0  0  0  0
  3  4  1  0  0  0  0
  4  5  2  0  0  0  0
  5  6  1  0  0  0  0
  6  7  2  0  0  0  0
  7  8  1  0  0  0  0
  7  9  1  0  0  0  0
  9 10  2  0  0  0  0
  2 11  1  0  0  0  0
 11 12  2  0  0  0  0
 12 13  1  0  0  0  0
 13 14  2  0  0  0  0
 14 15  1  0  0  0  0
 15 16  2  0  0  0  0
 16 17  1  0  0  0  0
 17 18  2  0  0  0  0
 18 19  1  0  0  0  0
 10  4  1  0  0  0  0
 19 11  1  0  0  0  0
 18 13  1  0  0  0  0
  1 20  1  0  0  0  0
  1 21  1  0  0  0  0
  1 22  1  0  0  0  0
  3 23  1  0  0  0  0
  5 24  1  0  0  0  0
  6 25  1  0  0  0  0
  8 26  1  0  0  0  0
  8 27  1  0  0  0  0
  8 28  1  0  0  0  0
  9 29  1  0  0  0  0
 10 30  1  0  0  0  0
 14 31  1  0  0  0  0
 15 32  1  0  0  0  0
 16 33  1  0  0  0  0
 17 34  1  0  0  0  0
M  END
