
  xtb     03012221213D
 energy: -5.009195908361 gnorm: 0.000468390140 xtb: 6.4.1 (afa7bdf)
 27 27  0     0  0            999 V2000
   -3.5559    1.7547   -0.4134 C   0  0  0  0  0  0  0  0  0  0  0  0
   -2.9153    0.4381   -0.4035 N   0  0  0  0  0  0  0  0  0  0  0  0
   -3.7948   -0.7288   -0.4971 C   0  0  0  0  0  0  0  0  0  0  0  0
   -1.5196    0.3011   -0.3207 C   0  0  0  0  0  0  0  0  0  0  0  0
   -0.9130   -0.9587   -0.3622 C   0  0  0  0  0  0  0  0  0  0  0  0
    0.4494   -1.0935   -0.2832 C   0  0  0  0  0  0  0  0  0  0  0  0
    1.2778    0.0254   -0.1578 C   0  0  0  0  0  0  0  0  0  0  0  0
    2.7198   -0.0797   -0.0705 C   0  0  0  0  0  0  0  0  0  0  0  0
    3.4254   -1.2154   -0.0750 C   0  0  0  0  0  0  0  0  0  0  0  0
    4.8778   -1.2110    0.0209 C   0  0  0  0  0  0  0  0  0  0  0  0
    5.4988   -2.2587    0.0183 O   0  0  0  0  0  0  0  0  0  0  0  0
    5.4944   -0.0049    0.1122 O   0  0  0  0  0  0  0  0  0  0  0  0
    0.6728    1.2844   -0.1158 C   0  0  0  0  0  0  0  0  0  0  0  0
   -0.6892    1.4196   -0.1950 C   0  0  0  0  0  0  0  0  0  0  0  0
   -3.1711    2.3491   -1.2392 H   0  0  0  0  0  0  0  0  0  0  0  0
   -4.6331    1.6660   -0.5327 H   0  0  0  0  0  0  0  0  0  0  0  0
   -3.3575    2.2715    0.5229 H   0  0  0  0  0  0  0  0  0  0  0  0
   -3.6311   -1.3869    0.3531 H   0  0  0  0  0  0  0  0  0  0  0  0
   -3.5924   -1.2738   -1.4161 H   0  0  0  0  0  0  0  0  0  0  0  0
   -4.8408   -0.4326   -0.4989 H   0  0  0  0  0  0  0  0  0  0  0  0
   -1.5270   -1.8358   -0.4610 H   0  0  0  0  0  0  0  0  0  0  0  0
    0.8859   -2.0753   -0.3204 H   0  0  0  0  0  0  0  0  0  0  0  0
    3.2739    0.8397    0.0076 H   0  0  0  0  0  0  0  0  0  0  0  0
    2.9445   -2.1706   -0.1465 H   0  0  0  0  0  0  0  0  0  0  0  0
    6.4533   -0.1824    0.1693 H   0  0  0  0  0  0  0  0  0  0  0  0
    1.2946    2.1577   -0.0181 H   0  0  0  0  0  0  0  0  0  0  0  0
   -1.1276    2.4006   -0.1565 H   0  0  0  0  0  0  0  0  0  0  0  0
  1  2  1  0  0  0  0
  2  3  1  0  0  0  0
  2  4  1  0  0  0  0
  4  5  2  0  0  0  0
  5  6  1  0  0  0  0
  6  7  2  0  0  0  0
  7  8  1  0  0  0  0
  8  9  2  0  0  0  0
  9 10  1  0  0  0  0
 10 11  2  0  0  0  0
 10 12  1  0  0  0  0
  7 13  1  0  0  0  0
 13 14  2  0  0  0  0
 14  4  1  0  0  0  0
  1 15  1  0  0  0  0
  1 16  1  0  0  0  0
  1 17  1  0  0  0  0
  3 18  1  0  0  0  0
  3 19  1  0  0  0  0
  3 20  1  0  0  0  0
  5 21  1  0  0  0  0
  6 22  1  0  0  0  0
  8 23  1  0  0  0  0
  9 24  1  0  0  0  0
 12 25  1  0  0  0  0
 13 26  1  0  0  0  0
 14 27  1  0  0  0  0
M  END
