
  xtb     03012221263D
 energy: -10.252896165311 gnorm: 0.000115906233 xtb: 6.4.1 (afa7bdf)
 50 53  0     0  0            999 V2000
    3.5801   -3.3523    1.4407 C   0  0  0  0  0  0  0  0  0  0  0  0
    3.6436   -2.0250    0.9764 O   0  0  0  0  0  0  0  0  0  0  0  0
    2.4184   -1.4239    0.7021 C   0  0  0  0  0  0  0  0  0  0  0  0
    1.2024   -2.0503    0.9034 C   0  0  0  0  0  0  0  0  0  0  0  0
   -0.0176   -1.4170    0.6156 C   0  0  0  0  0  0  0  0  0  0  0  0
   -1.2538   -2.0533    0.8145 C   0  0  0  0  0  0  0  0  0  0  0  0
   -2.4540   -1.4255    0.5372 C   0  0  0  0  0  0  0  0  0  0  0  0
   -3.6944   -2.0281    0.7267 O   0  0  0  0  0  0  0  0  0  0  0  0
   -3.6643   -3.3217    1.2806 C   0  0  0  0  0  0  0  0  0  0  0  0
   -2.4326   -0.0787    0.0335 C   0  0  0  0  0  0  0  0  0  0  0  0
   -3.6891    0.6317   -0.2641 C   0  0  0  0  0  0  0  0  0  0  0  0
   -4.8118   -0.0512   -0.7308 C   0  0  0  0  0  0  0  0  0  0  0  0
   -5.9768    0.6141   -1.0248 C   0  0  0  0  0  0  0  0  0  0  0  0
   -6.0544    1.9826   -0.8584 C   0  0  0  0  0  0  0  0  0  0  0  0
   -7.2922    2.6902   -1.1705 N   0  0  0  0  0  4  0  0  0  0  0  0
   -7.3284    3.9156   -1.0055 O   0  0  0  0  0  0  0  0  0  0  0  0
   -8.2557    2.0367   -1.5886 O   0  0  0  0  0  1  0  0  0  0  0  0
   -4.9570    2.6780   -0.3903 C   0  0  0  0  0  0  0  0  0  0  0  0
   -3.7903    2.0143   -0.0966 C   0  0  0  0  0  0  0  0  0  0  0  0
   -1.2226    0.5423   -0.1683 C   0  0  0  0  0  0  0  0  0  0  0  0
   -0.0010   -0.0965    0.1097 C   0  0  0  0  0  0  0  0  0  0  0  0
    1.2368    0.5377   -0.0992 C   0  0  0  0  0  0  0  0  0  0  0  0
    2.4310   -0.0851    0.1774 C   0  0  0  0  0  0  0  0  0  0  0  0
    3.7052    0.6159   -0.0614 C   0  0  0  0  0  0  0  0  0  0  0  0
    4.8136    0.3972    0.7559 C   0  0  0  0  0  0  0  0  0  0  0  0
    5.9951    1.0648    0.5443 C   0  0  0  0  0  0  0  0  0  0  0  0
    6.1038    1.9695   -0.4931 C   0  0  0  0  0  0  0  0  0  0  0  0
    7.3590    2.6795   -0.7182 N   0  0  0  0  0  4  0  0  0  0  0  0
    7.4229    3.4802   -1.6590 O   0  0  0  0  0  0  0  0  0  0  0  0
    8.3090    2.4532    0.0411 O   0  0  0  0  0  1  0  0  0  0  0  0
    5.0210    2.1958   -1.3196 C   0  0  0  0  0  0  0  0  0  0  0  0
    3.8378    1.5297   -1.1089 C   0  0  0  0  0  0  0  0  0  0  0  0
    3.0933   -3.9814    0.6956 H   0  0  0  0  0  0  0  0  0  0  0  0
    4.5986   -3.7087    1.5939 H   0  0  0  0  0  0  0  0  0  0  0  0
    3.0455   -3.3879    2.3898 H   0  0  0  0  0  0  0  0  0  0  0  0
    1.1733   -3.0511    1.2915 H   0  0  0  0  0  0  0  0  0  0  0  0
   -1.2500   -3.0582    1.1930 H   0  0  0  0  0  0  0  0  0  0  0  0
   -4.6920   -3.6629    1.4056 H   0  0  0  0  0  0  0  0  0  0  0  0
   -3.1446   -4.0018    0.6058 H   0  0  0  0  0  0  0  0  0  0  0  0
   -3.1792   -3.2948    2.2563 H   0  0  0  0  0  0  0  0  0  0  0  0
   -4.7565   -1.1204   -0.8471 H   0  0  0  0  0  0  0  0  0  0  0  0
   -6.8443    0.0863   -1.3822 H   0  0  0  0  0  0  0  0  0  0  0  0
   -5.0391    3.7433   -0.2586 H   0  0  0  0  0  0  0  0  0  0  0  0
   -2.9479    2.5626    0.2894 H   0  0  0  0  0  0  0  0  0  0  0  0
   -1.1999    1.5382   -0.5690 H   0  0  0  0  0  0  0  0  0  0  0  0
    1.2395    1.5467   -0.4665 H   0  0  0  0  0  0  0  0  0  0  0  0
    4.7339   -0.3187    1.5565 H   0  0  0  0  0  0  0  0  0  0  0  0
    6.8516    0.8939    1.1738 H   0  0  0  0  0  0  0  0  0  0  0  0
    5.1272    2.8982   -2.1285 H   0  0  0  0  0  0  0  0  0  0  0  0
    3.0067    1.6965   -1.7726 H   0  0  0  0  0  0  0  0  0  0  0  0
  1  2  1  0  0  0  0
  2  3  1  0  0  0  0
  3  4  2  0  0  0  0
  4  5  1  0  0  0  0
  5  6  2  0  0  0  0
  6  7  1  0  0  0  0
  7  8  1  0  0  0  0
  8  9  1  0  0  0  0
  7 10  2  0  0  0  0
 10 11  1  0  0  0  0
 11 12  2  0  0  0  0
 12 13  1  0  0  0  0
 13 14  2  0  0  0  0
 14 15  1  0  0  0  0
 15 16  2  0  0  0  0
 15 17  1  0  0  0  0
 14 18  1  0  0  0  0
 18 19  2  0  0  0  0
 10 20  1  0  0  0  0
 20 21  2  0  0  0  0
 21 22  1  0  0  0  0
 22 23  2  0  0  0  0
 23 24  1  0  0  0  0
 24 25  2  0  0  0  0
 25 26  1  0  0  0  0
 26 27  2  0  0  0  0
 27 28  1  0  0  0  0
 28 29  2  0  0  0  0
 28 30  1  0  0  0  0
 27 31  1  0  0  0  0
 31 32  2  0  0  0  0
 23  3  1  0  0  0  0
 32 24  1  0  0  0  0
 21  5  1  0  0  0  0
 19 11  1  0  0  0  0
  1 33  1  0  0  0  0
  1 34  1  0  0  0  0
  1 35  1  0  0  0  0
  4 36  1  0  0  0  0
  6 37  1  0  0  0  0
  9 38  1  0  0  0  0
  9 39  1  0  0  0  0
  9 40  1  0  0  0  0
 12 41  1  0  0  0  0
 13 42  1  0  0  0  0
 18 43  1  0  0  0  0
 19 44  1  0  0  0  0
 20 45  1  0  0  0  0
 22 46  1  0  0  0  0
 25 47  1  0  0  0  0
 26 48  1  0  0  0  0
 31 49  1  0  0  0  0
 32 50  1  0  0  0  0
M  CHG  1  15   1
M  CHG  1  17  -1
M  CHG  1  28   1
M  CHG  1  30  -1
M  END
