
  xtb     03012221213D
 energy: -9.628022485637 gnorm: 0.000191261659 xtb: 6.4.1 (afa7bdf)
 50 53  0     0  0            999 V2000
    6.3978   -0.0884   -1.2816 C   0  0  0  0  0  0  0  0  0  0  0  0
    5.7281    0.6985   -0.1481 C   0  0  0  0  0  0  0  0  0  0  0  0
    6.4130    0.4135    1.1940 C   0  0  0  0  0  0  0  0  0  0  0  0
    5.8042    2.2007   -0.4543 C   0  0  0  0  0  0  0  0  0  0  0  0
    4.3238    0.3450   -0.0666 O   0  0  0  0  0  0  0  0  0  0  0  0
    4.0965   -0.9796    0.1935 C   0  0  0  0  0  0  0  0  0  0  0  0
    4.9689   -1.8171    0.3551 O   0  0  0  0  0  0  0  0  0  0  0  0
    2.6987   -1.3783    0.2718 C   0  0  0  0  0  0  0  0  0  0  0  0
    1.6996   -0.4931    0.1428 C   0  0  0  0  0  0  0  0  0  0  0  0
    0.3069   -0.8251    0.1966 C   0  0  0  0  0  0  0  0  0  0  0  0
   -0.7545    0.0965    0.0965 C   0  0  0  0  0  0  0  0  0  0  0  0
   -1.9537   -0.6111    0.1840 C   0  0  0  0  0  0  0  0  0  0  0  0
   -3.2962   -0.1705    0.1641 C   0  0  0  0  0  0  0  0  0  0  0  0
   -3.6470    1.2498   -0.0047 C   0  0  0  0  0  0  0  0  0  0  0  0
   -3.0290    2.0312   -0.9835 C   0  0  0  0  0  0  0  0  0  0  0  0
   -3.3573    3.3588   -1.1363 C   0  0  0  0  0  0  0  0  0  0  0  0
   -4.3063    3.9379   -0.3181 C   0  0  0  0  0  0  0  0  0  0  0  0
   -4.9283    3.1825    0.6554 C   0  0  0  0  0  0  0  0  0  0  0  0
   -4.6051    1.8541    0.8122 C   0  0  0  0  0  0  0  0  0  0  0  0
   -4.2720   -1.1656    0.3160 C   0  0  0  0  0  0  0  0  0  0  0  0
   -5.6858   -1.0981    0.2925 C   0  0  0  0  0  0  0  0  0  0  0  0
   -6.1745   -2.3822    0.4558 C   0  0  0  0  0  0  0  0  0  0  0  0
   -5.0918   -3.2675    0.5768 C   0  0  0  0  0  0  0  0  0  0  0  0
   -3.9841   -2.5249    0.4868 N   0  0  0  0  0  0  0  0  0  0  0  0
   -2.5699   -3.0990    0.5308 B   0  0  0  0  0  4  0  0  0  0  0  0
   -2.3577   -3.6887    1.7696 F   0  0  0  0  0  0  0  0  0  0  0  0
   -2.4154   -4.0035   -0.5111 F   0  0  0  0  0  0  0  0  0  0  0  0
   -1.5758   -1.9555    0.3482 N   0  0  0  0  0  4  0  0  0  0  0  0
   -0.2571   -2.1183    0.3579 C   0  0  0  0  0  0  0  0  0  0  0  0
    6.3405   -1.1573   -1.0831 H   0  0  0  0  0  0  0  0  0  0  0  0
    5.8913    0.1023   -2.2258 H   0  0  0  0  0  0  0  0  0  0  0  0
    7.4461    0.1861   -1.3879 H   0  0  0  0  0  0  0  0  0  0  0  0
    7.4630    0.7008    1.1709 H   0  0  0  0  0  0  0  0  0  0  0  0
    6.3511   -0.6475    1.4301 H   0  0  0  0  0  0  0  0  0  0  0  0
    5.9203    0.9620    1.9946 H   0  0  0  0  0  0  0  0  0  0  0  0
    6.8371    2.5376   -0.5284 H   0  0  0  0  0  0  0  0  0  0  0  0
    5.3095    2.7715    0.3293 H   0  0  0  0  0  0  0  0  0  0  0  0
    5.3008    2.4204   -1.3939 H   0  0  0  0  0  0  0  0  0  0  0  0
    2.4901   -2.4173    0.4386 H   0  0  0  0  0  0  0  0  0  0  0  0
    1.9598    0.5382   -0.0147 H   0  0  0  0  0  0  0  0  0  0  0  0
   -0.6528    1.1613   -0.0062 H   0  0  0  0  0  0  0  0  0  0  0  0
   -2.3065    1.5742   -1.6360 H   0  0  0  0  0  0  0  0  0  0  0  0
   -2.8746    3.9479   -1.8988 H   0  0  0  0  0  0  0  0  0  0  0  0
   -4.5612    4.9785   -0.4392 H   0  0  0  0  0  0  0  0  0  0  0  0
   -5.6664    3.6357    1.2965 H   0  0  0  0  0  0  0  0  0  0  0  0
   -5.0729    1.2713    1.5857 H   0  0  0  0  0  0  0  0  0  0  0  0
   -6.2721   -0.2080    0.1459 H   0  0  0  0  0  0  0  0  0  0  0  0
   -7.2158   -2.6618    0.4756 H   0  0  0  0  0  0  0  0  0  0  0  0
   -5.1076   -4.3367    0.7036 H   0  0  0  0  0  0  0  0  0  0  0  0
    0.2442   -3.0616    0.4755 H   0  0  0  0  0  0  0  0  0  0  0  0
  1  2  1  0  0  0  0
  2  3  1  0  0  0  0
  2  4  1  0  0  0  0
  2  5  1  0  0  0  0
  5  6  1  0  0  0  0
  6  7  2  0  0  0  0
  6  8  1  0  0  0  0
  8  9  2  0  0  0  0
  9 10  1  0  0  0  0
 10 11  2  0  0  0  0
 11 12  1  0  0  0  0
 12 13  2  0  0  0  0
 13 14  1  0  0  0  0
 14 15  2  0  0  0  0
 15 16  1  0  0  0  0
 16 17  2  0  0  0  0
 17 18  1  0  0  0  0
 18 19  2  0  0  0  0
 13 20  1  0  0  0  0
 20 21  2  0  0  0  0
 21 22  1  0  0  0  0
 22 23  2  0  0  0  0
 23 24  1  0  0  0  0
 24 25  1  0  0  0  0
 25 26  1  0  0  0  0
 25 27  1  0  0  0  0
 25 28  1  0  0  0  0
 28 29  2  0  0  0  0
 29 10  1  0  0  0  0
 28 12  1  0  0  0  0
 19 14  1  0  0  0  0
 24 20  1  0  0  0  0
  1 30  1  0  0  0  0
  1 31  1  0  0  0  0
  1 32  1  0  0  0  0
  3 33  1  0  0  0  0
  3 34  1  0  0  0  0
  3 35  1  0  0  0  0
  4 36  1  0  0  0  0
  4 37  1  0  0  0  0
  4 38  1  0  0  0  0
  8 39  1  0  0  0  0
  9 40  1  0  0  0  0
 11 41  1  0  0  0  0
 15 42  1  0  0  0  0
 16 43  1  0  0  0  0
 17 44  1  0  0  0  0
 18 45  1  0  0  0  0
 19 46  1  0  0  0  0
 21 47  1  0  0  0  0
 22 48  1  0  0  0  0
 23 49  1  0  0  0  0
 29 50  1  0  0  0  0
M  CHG  1  25  -1
M  CHG  1  28   1
M  END
