
  xtb     03012221253D
 energy: -8.829068816099 gnorm: 0.000551173230 xtb: 6.4.1 (afa7bdf)
 47 50  0     0  0            999 V2000
    3.2879   -1.5763    1.8970 C   0  0  0  0  0  0  0  0  0  0  0  0
    2.2060   -1.0605    1.1572 O   0  0  0  0  0  0  0  0  0  0  0  0
    2.5424   -0.4940   -0.0393 C   0  0  0  0  0  0  0  0  0  0  0  0
    3.8547   -0.4584   -0.5657 C   0  0  0  0  0  0  0  0  0  0  0  0
    4.1183    0.1385   -1.7629 C   0  0  0  0  0  0  0  0  0  0  0  0
    3.0966    0.7313   -2.5008 C   0  0  0  0  0  0  0  0  0  0  0  0
    1.8114    0.7183   -2.0270 C   0  0  0  0  0  0  0  0  0  0  0  0
    1.4894    0.1134   -0.8047 C   0  0  0  0  0  0  0  0  0  0  0  0
    0.1034    0.1312   -0.3038 C   0  0  0  0  0  0  0  0  0  0  0  0
   -0.5546    1.3441    0.0260 C   0  0  0  0  0  0  0  0  0  0  0  0
   -0.0842    2.6838    0.1014 C   0  0  0  0  0  0  0  0  0  0  0  0
    1.2938    3.1713   -0.1515 C   0  0  0  0  0  0  0  0  0  0  0  0
   -1.1603    3.4809    0.4854 C   0  0  0  0  0  0  0  0  0  0  0  0
   -2.2887    2.6690    0.6755 C   0  0  0  0  0  0  0  0  0  0  0  0
   -3.6408    3.0620    1.1098 C   0  0  0  0  0  0  0  0  0  0  0  0
   -1.8927    1.4146    0.4067 N   0  0  0  0  0  4  0  0  0  0  0  0
   -2.8158    0.2082    0.5512 B   0  0  0  0  0  4  0  0  0  0  0  0
   -3.2970    0.1464    1.8553 F   0  0  0  0  0  0  0  0  0  0  0  0
   -3.8551    0.3132   -0.3681 F   0  0  0  0  0  0  0  0  0  0  0  0
   -2.0014   -1.0469    0.2489 N   0  0  0  0  0  0  0  0  0  0  0  0
   -2.5345   -2.2785    0.2854 C   0  0  0  0  0  0  0  0  0  0  0  0
   -3.9253   -2.5958    0.6547 C   0  0  0  0  0  0  0  0  0  0  0  0
   -1.5196   -3.1528   -0.1313 C   0  0  0  0  0  0  0  0  0  0  0  0
   -0.3739   -2.4153   -0.4215 C   0  0  0  0  0  0  0  0  0  0  0  0
    0.9081   -2.9802   -0.9062 C   0  0  0  0  0  0  0  0  0  0  0  0
   -0.6689   -1.0496   -0.1592 C   0  0  0  0  0  0  0  0  0  0  0  0
    2.9032   -1.9755    2.8365 H   0  0  0  0  0  0  0  0  0  0  0  0
    3.7728   -2.3820    1.3441 H   0  0  0  0  0  0  0  0  0  0  0  0
    4.0000   -0.7797    2.1183 H   0  0  0  0  0  0  0  0  0  0  0  0
    4.6586   -0.9084   -0.0141 H   0  0  0  0  0  0  0  0  0  0  0  0
    5.1270    0.1544   -2.1446 H   0  0  0  0  0  0  0  0  0  0  0  0
    3.3194    1.1996   -3.4444 H   0  0  0  0  0  0  0  0  0  0  0  0
    1.0194    1.1706   -2.5989 H   0  0  0  0  0  0  0  0  0  0  0  0
    1.4679    4.1241    0.3488 H   0  0  0  0  0  0  0  0  0  0  0  0
    2.0322    2.4619    0.2220 H   0  0  0  0  0  0  0  0  0  0  0  0
    1.4666    3.3165   -1.2177 H   0  0  0  0  0  0  0  0  0  0  0  0
   -1.1284    4.5463    0.6343 H   0  0  0  0  0  0  0  0  0  0  0  0
   -4.3051    2.1968    1.0872 H   0  0  0  0  0  0  0  0  0  0  0  0
   -3.6247    3.4492    2.1287 H   0  0  0  0  0  0  0  0  0  0  0  0
   -4.0556    3.8275    0.4539 H   0  0  0  0  0  0  0  0  0  0  0  0
   -3.9590   -3.3464    1.4444 H   0  0  0  0  0  0  0  0  0  0  0  0
   -4.4287   -1.6980    1.0158 H   0  0  0  0  0  0  0  0  0  0  0  0
   -4.4798   -2.9714   -0.2052 H   0  0  0  0  0  0  0  0  0  0  0  0
   -1.6184   -4.2203   -0.2265 H   0  0  0  0  0  0  0  0  0  0  0  0
    1.2986   -2.3993   -1.7417 H   0  0  0  0  0  0  0  0  0  0  0  0
    0.7820   -4.0093   -1.2429 H   0  0  0  0  0  0  0  0  0  0  0  0
    1.6525   -2.9746   -0.1105 H   0  0  0  0  0  0  0  0  0  0  0  0
  1  2  1  0  0  0  0
  2  3  1  0  0  0  0
  3  4  2  0  0  0  0
  4  5  1  0  0  0  0
  5  6  2  0  0  0  0
  6  7  1  0  0  0  0
  7  8  2  0  0  0  0
  8  9  1  0  0  0  0
  9 10  2  0  0  0  0
 10 11  1  0  0  0  0
 11 12  1  0  0  0  0
 11 13  2  0  0  0  0
 13 14  1  0  0  0  0
 14 15  1  0  0  0  0
 14 16  2  0  0  0  0
 16 17  1  0  0  0  0
 17 18  1  0  0  0  0
 17 19  1  0  0  0  0
 17 20  1  0  0  0  0
 20 21  1  0  0  0  0
 21 22  1  0  0  0  0
 21 23  2  0  0  0  0
 23 24  1  0  0  0  0
 24 25  1  0  0  0  0
 24 26  2  0  0  0  0
  8  3  1  0  0  0  0
 26  9  1  0  0  0  0
 16 10  1  0  0  0  0
 26 20  1  0  0  0  0
  1 27  1  0  0  0  0
  1 28  1  0  0  0  0
  1 29  1  0  0  0  0
  4 30  1  0  0  0  0
  5 31  1  0  0  0  0
  6 32  1  0  0  0  0
  7 33  1  0  0  0  0
 12 34  1  0  0  0  0
 12 35  1  0  0  0  0
 12 36  1  0  0  0  0
 13 37  1  0  0  0  0
 15 38  1  0  0  0  0
 15 39  1  0  0  0  0
 15 40  1  0  0  0  0
 22 41  1  0  0  0  0
 22 42  1  0  0  0  0
 22 43  1  0  0  0  0
 23 44  1  0  0  0  0
 25 45  1  0  0  0  0
 25 46  1  0  0  0  0
 25 47  1  0  0  0  0
M  CHG  1  16   1
M  CHG  1  17  -1
M  END
