
  xtb     03012221323D
 energy: -14.886004233920 gnorm: 0.000092335746 xtb: 6.4.1 (afa7bdf)
 85 87  0     0  0            999 V2000
   10.0478   -2.6730    2.4385 C   0  0  0  0  0  0  0  0  0  0  0  0
    9.2673   -2.1245    1.2541 C   0  0  0  0  0  0  0  0  0  0  0  0
    8.0430   -2.9742    0.9094 C   0  0  0  0  0  0  0  0  0  0  0  0
    7.2774   -2.4784   -0.3208 C   0  0  0  0  0  0  0  0  0  0  0  0
    6.6892   -1.0715   -0.1738 C   0  0  0  0  0  0  0  0  0  0  0  0
    5.7005   -0.9216    0.9872 C   0  0  0  0  0  0  0  0  0  0  0  0
    4.4766   -1.8369    0.8932 C   0  0  0  0  0  0  0  0  0  0  0  0
    3.6042   -1.6497   -0.3562 C   0  0  0  0  0  0  0  0  0  0  0  0
    2.8861   -0.2880   -0.4426 C   0  0  0  0  0  0  0  0  0  0  0  0
    3.6843    0.8063   -1.1553 C   0  0  0  0  0  0  0  0  0  0  0  0
    2.9612    2.1552   -1.1961 C   0  0  0  0  0  0  0  0  0  0  0  0
    1.7000    2.1468   -2.0589 C   0  0  0  0  0  0  0  0  0  0  0  0
    1.0401    3.5212   -2.1899 C   0  0  0  0  0  0  0  0  0  0  0  0
    0.4661    4.0490   -0.8745 C   0  0  0  0  0  0  0  0  0  0  0  0
   -0.2681    5.3805   -1.0193 C   0  0  0  0  0  0  0  0  0  0  0  0
   -1.5757    5.2599   -1.7928 C   0  0  0  0  0  0  0  0  0  0  0  0
   -2.4770    4.3555   -1.1859 O   0  0  0  0  0  0  0  0  0  0  0  0
   -2.4807    3.1396   -1.8232 C   0  0  0  0  0  0  0  0  0  0  0  0
   -1.7918    2.8696   -2.7906 O   0  0  0  0  0  0  0  0  0  0  0  0
   -3.3898    2.1185   -1.2618 C   0  0  0  0  0  0  0  0  0  0  0  0
   -4.1974    2.4117   -0.1706 C   0  0  0  0  0  0  0  0  0  0  0  0
   -5.0460    1.4630    0.3443 C   0  0  0  0  0  0  0  0  0  0  0  0
   -5.1131    0.1873   -0.2155 C   0  0  0  0  0  0  0  0  0  0  0  0
   -6.0036   -0.7982    0.3141 N   0  0  0  0  0  0  0  0  0  0  0  0
   -5.6511   -2.1884    0.2728 C   0  0  0  0  0  0  0  0  0  0  0  0
   -6.6135   -3.1582    0.0031 C   0  0  0  0  0  0  0  0  0  0  0  0
   -6.2780   -4.4919   -0.0327 C   0  0  0  0  0  0  0  0  0  0  0  0
   -4.9731   -4.8816    0.2021 C   0  0  0  0  0  0  0  0  0  0  0  0
   -4.0053   -3.9331    0.4732 C   0  0  0  0  0  0  0  0  0  0  0  0
   -4.3416   -2.5994    0.5085 C   0  0  0  0  0  0  0  0  0  0  0  0
   -7.2630   -0.4053    0.8784 C   0  0  0  0  0  0  0  0  0  0  0  0
   -8.0086    0.6250    0.3109 C   0  0  0  0  0  0  0  0  0  0  0  0
   -9.2190    0.9970    0.8487 C   0  0  0  0  0  0  0  0  0  0  0  0
   -9.7081    0.3443    1.9643 C   0  0  0  0  0  0  0  0  0  0  0  0
   -8.9828   -0.6820    2.5393 C   0  0  0  0  0  0  0  0  0  0  0  0
   -7.7723   -1.0532    2.0010 C   0  0  0  0  0  0  0  0  0  0  0  0
   -4.2958   -0.1017   -1.3081 C   0  0  0  0  0  0  0  0  0  0  0  0
   -3.4496    0.8495   -1.8224 C   0  0  0  0  0  0  0  0  0  0  0  0
   10.4027   -3.6864    2.2426 H   0  0  0  0  0  0  0  0  0  0  0  0
    9.4257   -2.7179    3.3343 H   0  0  0  0  0  0  0  0  0  0  0  0
   10.9204   -2.0599    2.6750 H   0  0  0  0  0  0  0  0  0  0  0  0
    8.9542   -1.0928    1.4601 H   0  0  0  0  0  0  0  0  0  0  0  0
    9.9184   -2.0535    0.3725 H   0  0  0  0  0  0  0  0  0  0  0  0
    8.3637   -4.0127    0.7545 H   0  0  0  0  0  0  0  0  0  0  0  0
    7.3726   -3.0159    1.7756 H   0  0  0  0  0  0  0  0  0  0  0  0
    6.4717   -3.1831   -0.5634 H   0  0  0  0  0  0  0  0  0  0  0  0
    7.9474   -2.5071   -1.1903 H   0  0  0  0  0  0  0  0  0  0  0  0
    7.5061   -0.3480   -0.0576 H   0  0  0  0  0  0  0  0  0  0  0  0
    6.1972   -0.7828   -1.1108 H   0  0  0  0  0  0  0  0  0  0  0  0
    6.2274   -1.1109    1.9313 H   0  0  0  0  0  0  0  0  0  0  0  0
    5.3690    0.1204    1.0702 H   0  0  0  0  0  0  0  0  0  0  0  0
    3.8484   -1.6997    1.7834 H   0  0  0  0  0  0  0  0  0  0  0  0
    4.8123   -2.8805    0.9493 H   0  0  0  0  0  0  0  0  0  0  0  0
    4.2027   -1.8041   -1.2607 H   0  0  0  0  0  0  0  0  0  0  0  0
    2.8547   -2.4533   -0.3809 H   0  0  0  0  0  0  0  0  0  0  0  0
    2.6149    0.0476    0.5665 H   0  0  0  0  0  0  0  0  0  0  0  0
    1.9262   -0.4116   -0.9622 H   0  0  0  0  0  0  0  0  0  0  0  0
    4.6592    0.9281   -0.6731 H   0  0  0  0  0  0  0  0  0  0  0  0
    3.9122    0.4829   -2.1776 H   0  0  0  0  0  0  0  0  0  0  0  0
    3.6407    2.9337   -1.5697 H   0  0  0  0  0  0  0  0  0  0  0  0
    2.7102    2.4616   -0.1731 H   0  0  0  0  0  0  0  0  0  0  0  0
    1.9517    1.7566   -3.0535 H   0  0  0  0  0  0  0  0  0  0  0  0
    0.9713    1.4381   -1.6492 H   0  0  0  0  0  0  0  0  0  0  0  0
    0.2362    3.4676   -2.9337 H   0  0  0  0  0  0  0  0  0  0  0  0
    1.7605    4.2425   -2.5930 H   0  0  0  0  0  0  0  0  0  0  0  0
    1.2727    4.1445   -0.1377 H   0  0  0  0  0  0  0  0  0  0  0  0
   -0.2232    3.3055   -0.4575 H   0  0  0  0  0  0  0  0  0  0  0  0
   -0.4946    5.7845   -0.0245 H   0  0  0  0  0  0  0  0  0  0  0  0
    0.3908    6.1162   -1.4970 H   0  0  0  0  0  0  0  0  0  0  0  0
   -2.0900    6.2275   -1.8540 H   0  0  0  0  0  0  0  0  0  0  0  0
   -1.4069    4.9347   -2.8262 H   0  0  0  0  0  0  0  0  0  0  0  0
   -4.1460    3.3962    0.2607 H   0  0  0  0  0  0  0  0  0  0  0  0
   -5.6637    1.6907    1.1950 H   0  0  0  0  0  0  0  0  0  0  0  0
   -7.6263   -2.8443   -0.1866 H   0  0  0  0  0  0  0  0  0  0  0  0
   -7.0319   -5.2316   -0.2446 H   0  0  0  0  0  0  0  0  0  0  0  0
   -4.7100   -5.9266    0.1743 H   0  0  0  0  0  0  0  0  0  0  0  0
   -2.9888   -4.2376    0.6586 H   0  0  0  0  0  0  0  0  0  0  0  0
   -3.5962   -1.8541    0.7305 H   0  0  0  0  0  0  0  0  0  0  0  0
   -7.6259    1.1197   -0.5662 H   0  0  0  0  0  0  0  0  0  0  0  0
   -9.7856    1.7953    0.3993 H   0  0  0  0  0  0  0  0  0  0  0  0
  -10.6564    0.6355    2.3858 H   0  0  0  0  0  0  0  0  0  0  0  0
   -9.3644   -1.1904    3.4090 H   0  0  0  0  0  0  0  0  0  0  0  0
   -7.1965   -1.8468    2.4470 H   0  0  0  0  0  0  0  0  0  0  0  0
   -4.3502   -1.0790   -1.7543 H   0  0  0  0  0  0  0  0  0  0  0  0
   -2.8234    0.6317   -2.6701 H   0  0  0  0  0  0  0  0  0  0  0  0
  1  2  1  0  0  0  0
  2  3  1  0  0  0  0
  3  4  1  0  0  0  0
  4  5  1  0  0  0  0
  5  6  1  0  0  0  0
  6  7  1  0  0  0  0
  7  8  1  0  0  0  0
  8  9  1  0  0  0  0
  9 10  1  0  0  0  0
 10 11  1  0  0  0  0
 11 12  1  0  0  0  0
 12 13  1  0  0  0  0
 13 14  1  0  0  0  0
 14 15  1  0  0  0  0
 15 16  1  0  0  0  0
 16 17  1  0  0  0  0
 17 18  1  0  0  0  0
 18 19  2  0  0  0  0
 18 20  1  0  0  0  0
 20 21  2  0  0  0  0
 21 22  1  0  0  0  0
 22 23  2  0  0  0  0
 23 24  1  0  0  0  0
 24 25  1  0  0  0  0
 25 26  2  0  0  0  0
 26 27  1  0  0  0  0
 27 28  2  0  0  0  0
 28 29  1  0  0  0  0
 29 30  2  0  0  0  0
 24 31  1  0  0  0  0
 31 32  2  0  0  0  0
 32 33  1  0  0  0  0
 33 34  2  0  0  0  0
 34 35  1  0  0  0  0
 35 36  2  0  0  0  0
 23 37  1  0  0  0  0
 37 38  2  0  0  0  0
 38 20  1  0  0  0  0
 30 25  1  0  0  0  0
 36 31  1  0  0  0  0
  1 39  1  0  0  0  0
  1 40  1  0  0  0  0
  1 41  1  0  0  0  0
  2 42  1  0  0  0  0
  2 43  1  0  0  0  0
  3 44  1  0  0  0  0
  3 45  1  0  0  0  0
  4 46  1  0  0  0  0
  4 47  1  0  0  0  0
  5 48  1  0  0  0  0
  5 49  1  0  0  0  0
  6 50  1  0  0  0  0
  6 51  1  0  0  0  0
  7 52  1  0  0  0  0
  7 53  1  0  0  0  0
  8 54  1  0  0  0  0
  8 55  1  0  0  0  0
  9 56  1  0  0  0  0
  9 57  1  0  0  0  0
 10 58  1  0  0  0  0
 10 59  1  0  0  0  0
 11 60  1  0  0  0  0
 11 61  1  0  0  0  0
 12 62  1  0  0  0  0
 12 63  1  0  0  0  0
 13 64  1  0  0  0  0
 13 65  1  0  0  0  0
 14 66  1  0  0  0  0
 14 67  1  0  0  0  0
 15 68  1  0  0  0  0
 15 69  1  0  0  0  0
 16 70  1  0  0  0  0
 16 71  1  0  0  0  0
 21 72  1  0  0  0  0
 22 73  1  0  0  0  0
 26 74  1  0  0  0  0
 27 75  1  0  0  0  0
 28 76  1  0  0  0  0
 29 77  1  0  0  0  0
 30 78  1  0  0  0  0
 32 79  1  0  0  0  0
 33 80  1  0  0  0  0
 34 81  1  0  0  0  0
 35 82  1  0  0  0  0
 36 83  1  0  0  0  0
 37 84  1  0  0  0  0
 38 85  1  0  0  0  0
M  END
