
  xtb     03012221233D
 energy: -19.650675583734 gnorm: 0.000164191284 xtb: 6.4.1 (afa7bdf)
 91100  0     0  0            999 V2000
  -13.5508   -1.3238   -2.2868 C   0  0  0  0  0  0  0  0  0  0  0  0
  -12.2507   -1.5827   -2.6751 C   0  0  0  0  0  0  0  0  0  0  0  0
  -11.2216   -1.4545   -1.7697 C   0  0  0  0  0  0  0  0  0  0  0  0
  -11.4743   -1.0637   -0.4572 C   0  0  0  0  0  0  0  0  0  0  0  0
  -10.4027   -0.9343    0.4890 N   0  0  0  0  0  0  0  0  0  0  0  0
  -10.6096   -1.3228    1.8555 C   0  0  0  0  0  0  0  0  0  0  0  0
  -10.0477   -0.5881    2.8966 C   0  0  0  0  0  0  0  0  0  0  0  0
  -10.2504   -0.9582    4.2070 C   0  0  0  0  0  0  0  0  0  0  0  0
  -11.0182   -2.0679    4.5021 C   0  0  0  0  0  0  0  0  0  0  0  0
  -11.5830   -2.8066    3.4806 C   0  0  0  0  0  0  0  0  0  0  0  0
  -11.3816   -2.4384    2.1694 C   0  0  0  0  0  0  0  0  0  0  0  0
   -9.1350   -0.4145    0.0750 C   0  0  0  0  0  0  0  0  0  0  0  0
   -7.9514   -0.8845    0.6421 C   0  0  0  0  0  0  0  0  0  0  0  0
   -6.7373   -0.3802    0.2488 C   0  0  0  0  0  0  0  0  0  0  0  0
   -6.6494    0.6183   -0.7243 C   0  0  0  0  0  0  0  0  0  0  0  0
   -5.3522    1.1414   -1.1161 C   0  0  0  0  0  0  0  0  0  0  0  0
   -5.1065    2.1777   -1.9788 C   0  0  0  0  0  0  0  0  0  0  0  0
   -3.7378    2.4631   -2.1581 C   0  0  0  0  0  0  0  0  0  0  0  0
   -2.8927    1.6547   -1.4446 C   0  0  0  0  0  0  0  0  0  0  0  0
   -1.4543    1.7223   -1.4396 C   0  0  0  0  0  0  0  0  0  0  0  0
   -0.7028    0.8281   -0.6988 C   0  0  0  0  0  0  0  0  0  0  0  0
    0.6911    0.8622   -0.6664 C   0  0  0  0  0  0  0  0  0  0  0  0
    1.4313    1.7955   -1.3693 C   0  0  0  0  0  0  0  0  0  0  0  0
    2.8699    1.8008   -1.3043 C   0  0  0  0  0  0  0  0  0  0  0  0
    3.7035    2.6937   -1.9243 C   0  0  0  0  0  0  0  0  0  0  0  0
    5.0751    2.4722   -1.6863 C   0  0  0  0  0  0  0  0  0  0  0  0
    5.3348    1.3966   -0.8776 C   0  0  0  0  0  0  0  0  0  0  0  0
    6.6386    0.9165   -0.4536 C   0  0  0  0  0  0  0  0  0  0  0  0
    7.8173    1.5984   -0.7708 C   0  0  0  0  0  0  0  0  0  0  0  0
    9.0382    1.1253   -0.3576 C   0  0  0  0  0  0  0  0  0  0  0  0
    9.1375   -0.0497    0.3866 C   0  0  0  0  0  0  0  0  0  0  0  0
   10.4121   -0.5414    0.8136 N   0  0  0  0  0  0  0  0  0  0  0  0
   11.4580    0.3773    1.1646 C   0  0  0  0  0  0  0  0  0  0  0  0
   11.1697    1.5570    1.8460 C   0  0  0  0  0  0  0  0  0  0  0  0
   12.1740    2.4346    2.1873 C   0  0  0  0  0  0  0  0  0  0  0  0
   13.4843    2.1504    1.8549 C   0  0  0  0  0  0  0  0  0  0  0  0
   13.7865    0.9839    1.1796 C   0  0  0  0  0  0  0  0  0  0  0  0
   12.7838    0.1048    0.8375 C   0  0  0  0  0  0  0  0  0  0  0  0
   10.6511   -1.9545    0.8941 C   0  0  0  0  0  0  0  0  0  0  0  0
   11.4299   -2.4868    1.9184 C   0  0  0  0  0  0  0  0  0  0  0  0
   11.6638   -3.8416    1.9916 C   0  0  0  0  0  0  0  0  0  0  0  0
   11.1253   -4.6894    1.0433 C   0  0  0  0  0  0  0  0  0  0  0  0
   10.3514   -4.1767    0.0205 C   0  0  0  0  0  0  0  0  0  0  0  0
   10.1161   -2.8223   -0.0545 C   0  0  0  0  0  0  0  0  0  0  0  0
    7.9647   -0.7328    0.7049 C   0  0  0  0  0  0  0  0  0  0  0  0
    6.7439   -0.2581    0.2954 C   0  0  0  0  0  0  0  0  0  0  0  0
    3.8283    0.6510   -0.4071 S   0  0  0  0  0  0  0  0  0  0  0  0
    0.7096    2.7599   -2.1626 C   0  0  0  0  0  0  0  0  0  0  0  0
    1.2135    3.7254   -2.8997 N   0  0  0  0  0  0  0  0  0  0  0  0
   -0.0285    4.5393   -3.6022 S   0  0  0  0  0  0  0  0  0  0  0  0
   -1.2602    3.6589   -2.9647 N   0  0  0  0  0  0  0  0  0  0  0  0
   -0.7446    2.7212   -2.2003 C   0  0  0  0  0  0  0  0  0  0  0  0
   -3.8360    0.5109   -0.5243 S   0  0  0  0  0  0  0  0  0  0  0  0
   -7.8388    1.0854   -1.2922 C   0  0  0  0  0  0  0  0  0  0  0  0
   -9.0531    0.5778   -0.9013 C   0  0  0  0  0  0  0  0  0  0  0  0
  -12.7903   -0.8074   -0.0811 C   0  0  0  0  0  0  0  0  0  0  0  0
  -13.8180   -0.9362   -0.9881 C   0  0  0  0  0  0  0  0  0  0  0  0
  -14.3557   -1.4246   -2.9960 H   0  0  0  0  0  0  0  0  0  0  0  0
  -12.0418   -1.8871   -3.6875 H   0  0  0  0  0  0  0  0  0  0  0  0
  -10.2080   -1.6658   -2.0627 H   0  0  0  0  0  0  0  0  0  0  0  0
   -9.4600    0.2816    2.6601 H   0  0  0  0  0  0  0  0  0  0  0  0
   -9.8111   -0.3802    5.0034 H   0  0  0  0  0  0  0  0  0  0  0  0
  -11.1766   -2.3566    5.5281 H   0  0  0  0  0  0  0  0  0  0  0  0
  -12.1812   -3.6731    3.7103 H   0  0  0  0  0  0  0  0  0  0  0  0
  -11.8116   -3.0140    1.3686 H   0  0  0  0  0  0  0  0  0  0  0  0
   -8.0041   -1.6588    1.3870 H   0  0  0  0  0  0  0  0  0  0  0  0
   -5.8296   -0.7508    0.6918 H   0  0  0  0  0  0  0  0  0  0  0  0
   -5.8868    2.7357   -2.4720 H   0  0  0  0  0  0  0  0  0  0  0  0
   -3.3739    3.2491   -2.7982 H   0  0  0  0  0  0  0  0  0  0  0  0
   -1.2238    0.0795   -0.1280 H   0  0  0  0  0  0  0  0  0  0  0  0
    1.2209    0.1392   -0.0714 H   0  0  0  0  0  0  0  0  0  0  0  0
    3.3294    3.4951   -2.5389 H   0  0  0  0  0  0  0  0  0  0  0  0
    5.8472    3.0943   -2.1108 H   0  0  0  0  0  0  0  0  0  0  0  0
    7.7648    2.5076   -1.3430 H   0  0  0  0  0  0  0  0  0  0  0  0
    9.9401    1.6521   -0.6151 H   0  0  0  0  0  0  0  0  0  0  0  0
   10.1483    1.7668    2.1117 H   0  0  0  0  0  0  0  0  0  0  0  0
   11.9378    3.3434    2.7160 H   0  0  0  0  0  0  0  0  0  0  0  0
   14.2698    2.8377    2.1228 H   0  0  0  0  0  0  0  0  0  0  0  0
   14.8085    0.7621    0.9194 H   0  0  0  0  0  0  0  0  0  0  0  0
   13.0110   -0.8018    0.3044 H   0  0  0  0  0  0  0  0  0  0  0  0
   11.8399   -1.8217    2.6582 H   0  0  0  0  0  0  0  0  0  0  0  0
   12.2672   -4.2411    2.7901 H   0  0  0  0  0  0  0  0  0  0  0  0
   11.3092   -5.7496    1.1010 H   0  0  0  0  0  0  0  0  0  0  0  0
    9.9328   -4.8374   -0.7208 H   0  0  0  0  0  0  0  0  0  0  0  0
    9.5238   -2.4152   -0.8553 H   0  0  0  0  0  0  0  0  0  0  0  0
    8.0305   -1.6336    1.2893 H   0  0  0  0  0  0  0  0  0  0  0  0
    5.8445   -0.7914    0.5488 H   0  0  0  0  0  0  0  0  0  0  0  0
   -7.7994    1.8507   -2.0470 H   0  0  0  0  0  0  0  0  0  0  0  0
   -9.9634    0.9519   -1.3359 H   0  0  0  0  0  0  0  0  0  0  0  0
  -12.9905   -0.4980    0.9298 H   0  0  0  0  0  0  0  0  0  0  0  0
  -14.8319   -0.7336   -0.6846 H   0  0  0  0  0  0  0  0  0  0  0  0
  1  2  2  0  0  0  0
  2  3  1  0  0  0  0
  3  4  2  0  0  0  0
  4  5  1  0  0  0  0
  5  6  1  0  0  0  0
  6  7  2  0  0  0  0
  7  8  1  0  0  0  0
  8  9  2  0  0  0  0
  9 10  1  0  0  0  0
 10 11  2  0  0  0  0
  5 12  1  0  0  0  0
 12 13  2  0  0  0  0
 13 14  1  0  0  0  0
 14 15  2  0  0  0  0
 15 16  1  0  0  0  0
 16 17  2  0  0  0  0
 17 18  1  0  0  0  0
 18 19  2  0  0  0  0
 19 20  1  0  0  0  0
 20 21  2  0  0  0  0
 21 22  1  0  0  0  0
 22 23  2  0  0  0  0
 23 24  1  0  0  0  0
 24 25  2  0  0  0  0
 25 26  1  0  0  0  0
 26 27  2  0  0  0  0
 27 28  1  0  0  0  0
 28 29  2  0  0  0  0
 29 30  1  0  0  0  0
 30 31  2  0  0  0  0
 31 32  1  0  0  0  0
 32 33  1  0  0  0  0
 33 34  2  0  0  0  0
 34 35  1  0  0  0  0
 35 36  2  0  0  0  0
 36 37  1  0  0  0  0
 37 38  2  0  0  0  0
 32 39  1  0  0  0  0
 39 40  2  0  0  0  0
 40 41  1  0  0  0  0
 41 42  2  0  0  0  0
 42 43  1  0  0  0  0
 43 44  2  0  0  0  0
 31 45  1  0  0  0  0
 45 46  2  0  0  0  0
 27 47  1  0  0  0  0
 23 48  1  0  0  0  0
 48 49  2  0  0  0  0
 49 50  1  0  0  0  0
 50 51  1  0  0  0  0
 51 52  2  0  0  0  0
 19 53  1  0  0  0  0
 15 54  1  0  0  0  0
 54 55  2  0  0  0  0
  4 56  1  0  0  0  0
 56 57  2  0  0  0  0
 57  1  1  0  0  0  0
 11  6  1  0  0  0  0
 55 12  1  0  0  0  0
 53 16  1  0  0  0  0
 52 20  1  0  0  0  0
 47 24  1  0  0  0  0
 52 48  1  0  0  0  0
 46 28  1  0  0  0  0
 38 33  1  0  0  0  0
 44 39  1  0  0  0  0
  1 58  1  0  0  0  0
  2 59  1  0  0  0  0
  3 60  1  0  0  0  0
  7 61  1  0  0  0  0
  8 62  1  0  0  0  0
  9 63  1  0  0  0  0
 10 64  1  0  0  0  0
 11 65  1  0  0  0  0
 13 66  1  0  0  0  0
 14 67  1  0  0  0  0
 17 68  1  0  0  0  0
 18 69  1  0  0  0  0
 21 70  1  0  0  0  0
 22 71  1  0  0  0  0
 25 72  1  0  0  0  0
 26 73  1  0  0  0  0
 29 74  1  0  0  0  0
 30 75  1  0  0  0  0
 34 76  1  0  0  0  0
 35 77  1  0  0  0  0
 36 78  1  0  0  0  0
 37 79  1  0  0  0  0
 38 80  1  0  0  0  0
 40 81  1  0  0  0  0
 41 82  1  0  0  0  0
 42 83  1  0  0  0  0
 43 84  1  0  0  0  0
 44 85  1  0  0  0  0
 45 86  1  0  0  0  0
 46 87  1  0  0  0  0
 54 88  1  0  0  0  0
 55 89  1  0  0  0  0
 56 90  1  0  0  0  0
 57 91  1  0  0  0  0
M  END
