
  xtb     03012221243D
 energy: -10.601706255892 gnorm: 0.000206305238 xtb: 6.4.1 (afa7bdf)
 60 63  0     0  0            999 V2000
    4.0408   -3.6193    0.3973 C   0  0  0  0  0  0  0  0  0  0  0  0
    5.0794   -2.6997    0.1585 O   0  0  0  0  0  0  0  0  0  0  0  0
    4.6781   -1.3602    0.0546 C   0  0  0  0  0  0  0  0  0  0  0  0
    3.3502   -0.9592    0.0704 C   0  0  0  0  0  0  0  0  0  0  0  0
    2.9842    0.3831   -0.0254 C   0  0  0  0  0  0  0  0  0  0  0  0
    1.6069    0.8095   -0.0143 C   0  0  0  0  0  0  0  0  0  0  0  0
    0.5353    0.0117    0.1838 C   0  0  0  0  0  0  0  0  0  0  0  0
   -0.8267    0.4241    0.1836 C   0  0  0  0  0  0  0  0  0  0  0  0
   -1.7370   -0.5152    0.4321 N   0  0  0  0  0  0  0  0  0  0  0  0
   -3.0280   -0.1761    0.3900 C   0  0  0  0  0  0  0  0  0  0  0  0
   -3.9687   -1.2189    0.6205 N   0  0  0  0  0  0  0  0  0  0  0  0
   -5.0772   -1.5038   -0.3143 C   0  0  0  0  0  0  0  0  0  0  0  0
   -4.8266   -2.8112   -1.0705 C   0  0  0  0  0  0  0  0  0  0  0  0
   -3.4610   -3.1867   -1.0010 O   0  0  0  0  0  0  0  0  0  0  0  0
   -3.0361   -3.4722    0.3268 C   0  0  0  0  0  0  0  0  0  0  0  0
   -3.5063   -2.4128    1.3256 C   0  0  0  0  0  0  0  0  0  0  0  0
   -3.4616    1.1506    0.1739 C   0  0  0  0  0  0  0  0  0  0  0  0
   -2.5217    2.1182   -0.0585 C   0  0  0  0  0  0  0  0  0  0  0  0
   -1.1797    1.7595   -0.0666 N   0  0  0  0  0  4  0  0  0  0  0  0
   -0.2991    2.6480   -0.2896 O   0  0  0  0  0  1  0  0  0  0  0  0
   -2.8363    3.5677   -0.2556 C   0  0  0  0  0  0  0  0  0  0  0  0
   -4.3400    3.9008   -0.2648 C   0  0  0  0  0  0  0  0  0  0  0  0
   -5.1208    2.9883    0.6887 C   0  0  0  0  0  0  0  0  0  0  0  0
   -4.9159    1.5161    0.3000 C   0  0  0  0  0  0  0  0  0  0  0  0
    3.9931    1.3379   -0.1432 C   0  0  0  0  0  0  0  0  0  0  0  0
    5.3338    0.9864   -0.1638 C   0  0  0  0  0  0  0  0  0  0  0  0
    6.3816    1.9095   -0.2875 O   0  0  0  0  0  0  0  0  0  0  0  0
    5.9935    3.2617   -0.2559 C   0  0  0  0  0  0  0  0  0  0  0  0
    5.6866   -0.3781   -0.0673 C   0  0  0  0  0  0  0  0  0  0  0  0
    7.0524   -0.7046   -0.0844 O   0  0  0  0  0  0  0  0  0  0  0  0
    7.3587   -1.8650   -0.8141 C   0  0  0  0  0  0  0  0  0  0  0  0
    4.4786   -4.6101    0.5225 H   0  0  0  0  0  0  0  0  0  0  0  0
    3.3596   -3.6395   -0.4542 H   0  0  0  0  0  0  0  0  0  0  0  0
    3.5096   -3.3500    1.3111 H   0  0  0  0  0  0  0  0  0  0  0  0
    2.5827   -1.7029    0.1466 H   0  0  0  0  0  0  0  0  0  0  0  0
    1.4276    1.8556   -0.1759 H   0  0  0  0  0  0  0  0  0  0  0  0
    0.6959   -1.0342    0.3661 H   0  0  0  0  0  0  0  0  0  0  0  0
   -6.0209   -1.5252    0.2407 H   0  0  0  0  0  0  0  0  0  0  0  0
   -5.1420   -0.6797   -1.0290 H   0  0  0  0  0  0  0  0  0  0  0  0
   -5.4125   -3.6360   -0.6490 H   0  0  0  0  0  0  0  0  0  0  0  0
   -5.0965   -2.7345   -2.1308 H   0  0  0  0  0  0  0  0  0  0  0  0
   -3.3884   -4.4767    0.5888 H   0  0  0  0  0  0  0  0  0  0  0  0
   -1.9405   -3.5137    0.2902 H   0  0  0  0  0  0  0  0  0  0  0  0
   -2.7065   -2.1252    2.0171 H   0  0  0  0  0  0  0  0  0  0  0  0
   -4.3333   -2.7870    1.9388 H   0  0  0  0  0  0  0  0  0  0  0  0
   -2.3601    3.8971   -1.1866 H   0  0  0  0  0  0  0  0  0  0  0  0
   -2.3344    4.1310    0.5390 H   0  0  0  0  0  0  0  0  0  0  0  0
   -4.5063    4.9576   -0.0131 H   0  0  0  0  0  0  0  0  0  0  0  0
   -4.7344    3.7775   -1.2814 H   0  0  0  0  0  0  0  0  0  0  0  0
   -6.1879    3.2492    0.6987 H   0  0  0  0  0  0  0  0  0  0  0  0
   -4.7660    3.1456    1.7144 H   0  0  0  0  0  0  0  0  0  0  0  0
   -5.3940    0.8542    1.0327 H   0  0  0  0  0  0  0  0  0  0  0  0
   -5.4166    1.3293   -0.6564 H   0  0  0  0  0  0  0  0  0  0  0  0
    3.7117    2.3705   -0.2235 H   0  0  0  0  0  0  0  0  0  0  0  0
    5.3755    3.4901   -1.1250 H   0  0  0  0  0  0  0  0  0  0  0  0
    6.8936    3.8766   -0.2888 H   0  0  0  0  0  0  0  0  0  0  0  0
    5.4542    3.4713    0.6687 H   0  0  0  0  0  0  0  0  0  0  0  0
    7.1023   -2.7376   -0.2121 H   0  0  0  0  0  0  0  0  0  0  0  0
    8.4268   -1.8715   -1.0337 H   0  0  0  0  0  0  0  0  0  0  0  0
    6.7900   -1.8721   -1.7449 H   0  0  0  0  0  0  0  0  0  0  0  0
  1  2  1  0  0  0  0
  2  3  1  0  0  0  0
  3  4  2  0  0  0  0
  4  5  1  0  0  0  0
  5  6  1  0  0  0  0
  6  7  2  0  0  0  0
  7  8  1  0  0  0  0
  8  9  2  0  0  0  0
  9 10  1  0  0  0  0
 10 11  1  0  0  0  0
 11 12  1  0  0  0  0
 12 13  1  0  0  0  0
 13 14  1  0  0  0  0
 14 15  1  0  0  0  0
 15 16  1  0  0  0  0
 10 17  2  0  0  0  0
 17 18  1  0  0  0  0
 18 19  2  0  0  0  0
 19 20  1  0  0  0  0
 18 21  1  0  0  0  0
 21 22  1  0  0  0  0
 22 23  1  0  0  0  0
 23 24  1  0  0  0  0
  5 25  2  0  0  0  0
 25 26  1  0  0  0  0
 26 27  1  0  0  0  0
 27 28  1  0  0  0  0
 26 29  2  0  0  0  0
 29 30  1  0  0  0  0
 30 31  1  0  0  0  0
 29  3  1  0  0  0  0
 19  8  1  0  0  0  0
 16 11  1  0  0  0  0
 24 17  1  0  0  0  0
  1 32  1  0  0  0  0
  1 33  1  0  0  0  0
  1 34  1  0  0  0  0
  4 35  1  0  0  0  0
  6 36  1  0  0  0  0
  7 37  1  0  0  0  0
 12 38  1  0  0  0  0
 12 39  1  0  0  0  0
 13 40  1  0  0  0  0
 13 41  1  0  0  0  0
 15 42  1  0  0  0  0
 15 43  1  0  0  0  0
 16 44  1  0  0  0  0
 16 45  1  0  0  0  0
 21 46  1  0  0  0  0
 21 47  1  0  0  0  0
 22 48  1  0  0  0  0
 22 49  1  0  0  0  0
 23 50  1  0  0  0  0
 23 51  1  0  0  0  0
 24 52  1  0  0  0  0
 24 53  1  0  0  0  0
 25 54  1  0  0  0  0
 28 55  1  0  0  0  0
 28 56  1  0  0  0  0
 28 57  1  0  0  0  0
 31 58  1  0  0  0  0
 31 59  1  0  0  0  0
 31 60  1  0  0  0  0
M  CHG  1  19   1
M  CHG  1  20  -1
M  END
