
  xtb     03012221313D
 energy: -5.610393854865 gnorm: 0.000235133904 xtb: 6.4.1 (afa7bdf)
 26 29  0     0  0            999 V2000
   -5.0982   -0.2638    0.5370 C   0  0  0  0  0  0  0  0  0  0  0  0
   -5.1305   -0.0437   -0.7971 C   0  0  0  0  0  0  0  0  0  0  0  0
   -3.5281    0.1249   -1.4132 S   0  0  0  0  0  0  0  0  0  0  0  0
   -2.8058   -0.1045    0.1495 C   0  0  0  0  0  0  0  0  0  0  0  0
   -1.3722   -0.0730    0.3180 C   0  0  0  0  0  0  0  0  0  0  0  0
   -0.7196   -0.2452    1.5188 C   0  0  0  0  0  0  0  0  0  0  0  0
    0.6141   -0.2211    1.7069 N   0  0  0  0  0  0  0  0  0  0  0  0
    1.3992   -0.0140    0.6548 C   0  0  0  0  0  0  0  0  0  0  0  0
    2.8301    0.0155    0.8344 C   0  0  0  0  0  0  0  0  0  0  0  0
    3.7674    0.2158   -0.1385 C   0  0  0  0  0  0  0  0  0  0  0  0
    5.1031    0.1920    0.3388 C   0  0  0  0  0  0  0  0  0  0  0  0
    5.1947   -0.0250    1.6692 C   0  0  0  0  0  0  0  0  0  0  0  0
    3.6255   -0.2060    2.3683 S   0  0  0  0  0  0  0  0  0  0  0  0
    0.8383    0.1781   -0.6428 C   0  0  0  0  0  0  0  0  0  0  0  0
    1.3812    0.3993   -1.8402 N   0  0  0  0  0  0  0  0  0  0  0  0
    0.3653    0.5019   -2.7124 O   0  0  0  0  0  0  0  0  0  0  0  0
   -0.8155    0.3512   -2.0989 N   0  0  0  0  0  0  0  0  0  0  0  0
   -0.5450    0.1485   -0.8101 C   0  0  0  0  0  0  0  0  0  0  0  0
   -3.7843   -0.2996    1.0810 C   0  0  0  0  0  0  0  0  0  0  0  0
   -5.9863   -0.4002    1.1373 H   0  0  0  0  0  0  0  0  0  0  0  0
   -6.0154    0.0199   -1.4013 H   0  0  0  0  0  0  0  0  0  0  0  0
   -1.3106   -0.4163    2.4021 H   0  0  0  0  0  0  0  0  0  0  0  0
    3.5060    0.3765   -1.1721 H   0  0  0  0  0  0  0  0  0  0  0  0
    5.9609    0.3340   -0.3026 H   0  0  0  0  0  0  0  0  0  0  0  0
    6.1074   -0.0804    2.2314 H   0  0  0  0  0  0  0  0  0  0  0  0
   -3.5817   -0.4649    2.1275 H   0  0  0  0  0  0  0  0  0  0  0  0
  1  2  2  0  0  0  0
  2  3  1  0  0  0  0
  3  4  1  0  0  0  0
  4  5  1  0  0  0  0
  5  6  2  0  0  0  0
  6  7  1  0  0  0  0
  7  8  2  0  0  0  0
  8  9  1  0  0  0  0
  9 10  2  0  0  0  0
 10 11  1  0  0  0  0
 11 12  2  0  0  0  0
 12 13  1  0  0  0  0
  8 14  1  0  0  0  0
 14 15  2  0  0  0  0
 15 16  1  0  0  0  0
 16 17  1  0  0  0  0
 17 18  2  0  0  0  0
  4 19  2  0  0  0  0
 19  1  1  0  0  0  0
 18  5  1  0  0  0  0
 13  9  1  0  0  0  0
 18 14  1  0  0  0  0
  1 20  1  0  0  0  0
  2 21  1  0  0  0  0
  6 22  1  0  0  0  0
 10 23  1  0  0  0  0
 11 24  1  0  0  0  0
 12 25  1  0  0  0  0
 19 26  1  0  0  0  0
M  END
