
  xtb     03012221273D
 energy: -8.776027872709 gnorm: 0.000112916403 xtb: 6.4.1 (afa7bdf)
 48 50  0     0  0            999 V2000
    6.1407   -0.9299    0.6364 C   0  0  0  0  0  0  0  0  0  0  0  0
    5.7859    0.0528   -0.4685 C   0  0  0  0  0  0  0  0  0  0  0  0
    4.5148   -0.3279   -1.2354 C   0  0  0  0  0  0  0  0  0  0  0  0
    3.2464   -0.3756   -0.3773 C   0  0  0  0  0  0  0  0  0  0  0  0
    2.8634    0.9759    0.2263 C   0  0  0  0  0  0  0  0  0  0  0  0
    1.6013    0.9243    1.0909 C   0  0  0  0  0  0  0  0  0  0  0  0
    0.3318    0.6065    0.3025 C   0  0  0  0  0  0  0  0  0  0  0  0
   -0.9167    0.5822    1.1719 C   0  0  0  0  0  0  0  0  0  0  0  0
   -2.1200    0.2134    0.4029 N   0  0  0  0  0  0  0  0  0  0  0  0
   -2.4649   -1.1491    0.2813 C   0  0  0  0  0  0  0  0  0  0  0  0
   -1.6352   -2.1773    0.7466 C   0  0  0  0  0  0  0  0  0  0  0  0
   -2.0030   -3.4945    0.6320 C   0  0  0  0  0  0  0  0  0  0  0  0
   -3.2119   -3.8352    0.0464 C   0  0  0  0  0  0  0  0  0  0  0  0
   -4.0391   -2.8488   -0.4283 C   0  0  0  0  0  0  0  0  0  0  0  0
   -3.6821   -1.5094   -0.3254 C   0  0  0  0  0  0  0  0  0  0  0  0
   -4.5751   -0.4876   -0.8588 C   0  0  0  0  0  0  0  0  0  0  0  0
   -5.6508   -0.7842   -1.3577 O   0  0  0  0  0  0  0  0  0  0  0  0
   -4.1302    0.8994   -0.7912 C   0  0  0  0  0  0  0  0  0  0  0  0
   -4.9236    1.8977   -1.3444 C   0  0  0  0  0  0  0  0  0  0  0  0
   -4.5229    3.2096   -1.3174 C   0  0  0  0  0  0  0  0  0  0  0  0
   -3.3098    3.5451   -0.7376 C   0  0  0  0  0  0  0  0  0  0  0  0
   -2.5146    2.5740   -0.1822 C   0  0  0  0  0  0  0  0  0  0  0  0
   -2.9053    1.2290   -0.1822 C   0  0  0  0  0  0  0  0  0  0  0  0
    6.2482   -1.9429    0.2439 H   0  0  0  0  0  0  0  0  0  0  0  0
    7.0795   -0.6689    1.1305 H   0  0  0  0  0  0  0  0  0  0  0  0
    5.3697   -0.9626    1.4080 H   0  0  0  0  0  0  0  0  0  0  0  0
    5.6777    1.0617   -0.0513 H   0  0  0  0  0  0  0  0  0  0  0  0
    6.6271    0.1318   -1.1715 H   0  0  0  0  0  0  0  0  0  0  0  0
    4.3573    0.3762   -2.0630 H   0  0  0  0  0  0  0  0  0  0  0  0
    4.6707   -1.3036   -1.7146 H   0  0  0  0  0  0  0  0  0  0  0  0
    3.3668   -1.1116    0.4256 H   0  0  0  0  0  0  0  0  0  0  0  0
    2.4113   -0.7525   -0.9802 H   0  0  0  0  0  0  0  0  0  0  0  0
    2.7274    1.7096   -0.5783 H   0  0  0  0  0  0  0  0  0  0  0  0
    3.7018    1.3570    0.8234 H   0  0  0  0  0  0  0  0  0  0  0  0
    1.7326    0.1794    1.8846 H   0  0  0  0  0  0  0  0  0  0  0  0
    1.4647    1.8794    1.6139 H   0  0  0  0  0  0  0  0  0  0  0  0
    0.2022    1.3348   -0.5065 H   0  0  0  0  0  0  0  0  0  0  0  0
    0.4329   -0.3591   -0.2047 H   0  0  0  0  0  0  0  0  0  0  0  0
   -0.7988   -0.1162    2.0043 H   0  0  0  0  0  0  0  0  0  0  0  0
   -1.0771    1.5485    1.6562 H   0  0  0  0  0  0  0  0  0  0  0  0
   -0.6842   -1.9387    1.1866 H   0  0  0  0  0  0  0  0  0  0  0  0
   -1.3491   -4.2694    0.9973 H   0  0  0  0  0  0  0  0  0  0  0  0
   -3.4984   -4.8702   -0.0401 H   0  0  0  0  0  0  0  0  0  0  0  0
   -4.9796   -3.0921   -0.8930 H   0  0  0  0  0  0  0  0  0  0  0  0
   -5.8584    1.6142   -1.7977 H   0  0  0  0  0  0  0  0  0  0  0  0
   -5.1457    3.9748   -1.7503 H   0  0  0  0  0  0  0  0  0  0  0  0
   -2.9901    4.5743   -0.7255 H   0  0  0  0  0  0  0  0  0  0  0  0
   -1.5676    2.8552    0.2406 H   0  0  0  0  0  0  0  0  0  0  0  0
  1  2  1  0  0  0  0
  2  3  1  0  0  0  0
  3  4  1  0  0  0  0
  4  5  1  0  0  0  0
  5  6  1  0  0  0  0
  6  7  1  0  0  0  0
  7  8  1  0  0  0  0
  8  9  1  0  0  0  0
  9 10  1  0  0  0  0
 10 11  2  0  0  0  0
 11 12  1  0  0  0  0
 12 13  2  0  0  0  0
 13 14  1  0  0  0  0
 14 15  2  0  0  0  0
 15 16  1  0  0  0  0
 16 17  2  0  0  0  0
 16 18  1  0  0  0  0
 18 19  2  0  0  0  0
 19 20  1  0  0  0  0
 20 21  2  0  0  0  0
 21 22  1  0  0  0  0
 22 23  2  0  0  0  0
 23  9  1  0  0  0  0
 15 10  1  0  0  0  0
 23 18  1  0  0  0  0
  1 24  1  0  0  0  0
  1 25  1  0  0  0  0
  1 26  1  0  0  0  0
  2 27  1  0  0  0  0
  2 28  1  0  0  0  0
  3 29  1  0  0  0  0
  3 30  1  0  0  0  0
  4 31  1  0  0  0  0
  4 32  1  0  0  0  0
  5 33  1  0  0  0  0
  5 34  1  0  0  0  0
  6 35  1  0  0  0  0
  6 36  1  0  0  0  0
  7 37  1  0  0  0  0
  7 38  1  0  0  0  0
  8 39  1  0  0  0  0
  8 40  1  0  0  0  0
 11 41  1  0  0  0  0
 12 42  1  0  0  0  0
 13 43  1  0  0  0  0
 14 44  1  0  0  0  0
 19 45  1  0  0  0  0
 20 46  1  0  0  0  0
 21 47  1  0  0  0  0
 22 48  1  0  0  0  0
M  END
