
  xtb     03012221253D
 energy: -4.937659109599 gnorm: 0.000326813839 xtb: 6.4.1 (afa7bdf)
 24 25  0     0  0            999 V2000
   -4.0030   -1.3649    0.2766 O   0  0  0  0  0  0  0  0  0  0  0  0
   -2.9717   -0.7661    0.0600 C   0  0  0  0  0  0  0  0  0  0  0  0
   -3.0125    0.6133   -0.4992 C   0  0  0  0  0  0  0  0  0  0  0  0
   -2.3773    1.6078    0.4088 C   0  0  0  0  0  0  0  0  0  0  0  0
   -3.0285    2.5284    0.8540 O   0  0  0  0  0  0  0  0  0  0  0  0
   -1.0385    1.4764    0.7161 N   0  0  0  0  0  0  0  0  0  0  0  0
   -0.1008    0.4955    0.3141 C   0  0  0  0  0  0  0  0  0  0  0  0
    1.2239    0.8766    0.1806 C   0  0  0  0  0  0  0  0  0  0  0  0
    2.2158   -0.0363   -0.1311 C   0  0  0  0  0  0  0  0  0  0  0  0
    3.6082    0.4221   -0.2714 C   0  0  0  0  0  0  0  0  0  0  0  0
    3.8737    1.5982   -0.1208 O   0  0  0  0  0  0  0  0  0  0  0  0
    4.5492   -0.5030   -0.5672 O   0  0  0  0  0  0  0  0  0  0  0  0
    1.8813   -1.3695   -0.2986 C   0  0  0  0  0  0  0  0  0  0  0  0
    0.5765   -1.7750   -0.1609 C   0  0  0  0  0  0  0  0  0  0  0  0
   -0.4372   -0.8666    0.1334 C   0  0  0  0  0  0  0  0  0  0  0  0
   -1.7484   -1.3603    0.3025 N   0  0  0  0  0  0  0  0  0  0  0  0
   -4.0587    0.8974   -0.6484 H   0  0  0  0  0  0  0  0  0  0  0  0
   -2.5270    0.6361   -1.4780 H   0  0  0  0  0  0  0  0  0  0  0  0
   -0.6837    2.2336    1.2895 H   0  0  0  0  0  0  0  0  0  0  0  0
    1.5038    1.9065    0.3177 H   0  0  0  0  0  0  0  0  0  0  0  0
    5.4047   -0.0394   -0.6225 H   0  0  0  0  0  0  0  0  0  0  0  0
    2.6620   -2.0739   -0.5335 H   0  0  0  0  0  0  0  0  0  0  0  0
    0.3200   -2.8124   -0.2898 H   0  0  0  0  0  0  0  0  0  0  0  0
   -1.8321   -2.3244    0.6047 H   0  0  0  0  0  0  0  0  0  0  0  0
  1  2  2  0  0  0  0
  2  3  1  0  0  0  0
  3  4  1  0  0  0  0
  4  5  2  0  0  0  0
  4  6  1  0  0  0  0
  6  7  1  0  0  0  0
  7  8  2  0  0  0  0
  8  9  1  0  0  0  0
  9 10  1  0  0  0  0
 10 11  2  0  0  0  0
 10 12  1  0  0  0  0
  9 13  2  0  0  0  0
 13 14  1  0  0  0  0
 14 15  2  0  0  0  0
 15 16  1  0  0  0  0
 16  2  1  0  0  0  0
 15  7  1  0  0  0  0
  3 17  1  0  0  0  0
  3 18  1  0  0  0  0
  6 19  1  0  0  0  0
  8 20  1  0  0  0  0
 12 21  1  0  0  0  0
 13 22  1  0  0  0  0
 14 23  1  0  0  0  0
 16 24  1  0  0  0  0
M  END
