
  xtb     03012221273D
 energy: -11.698455773452 gnorm: 0.000249641179 xtb: 6.4.1 (afa7bdf)
 62 65  0     0  0            999 V2000
   -7.4441    2.1083    0.8955 C   0  0  0  0  0  0  0  0  0  0  0  0
   -6.4821    2.9016    0.0788 C   0  0  0  0  0  0  0  0  0  0  0  0
   -6.7946    3.9998   -0.3236 O   0  0  0  0  0  0  0  0  0  0  0  0
   -5.1556    2.3470   -0.2370 C   0  0  0  0  0  0  0  0  0  0  0  0
   -4.2622    3.1438   -0.9975 C   0  0  0  0  0  0  0  0  0  0  0  0
   -3.0248    2.7027   -1.3099 C   0  0  0  0  0  0  0  0  0  0  0  0
   -2.6230    1.4502   -0.8881 N   0  0  0  0  0  0  0  0  0  0  0  0
   -1.4380    0.7462   -1.0314 C   0  0  0  0  0  0  0  0  0  0  0  0
   -1.5476   -0.4881   -0.4055 C   0  0  0  0  0  0  0  0  0  0  0  0
   -2.8313   -0.5963    0.1455 C   0  0  0  0  0  0  0  0  0  0  0  0
   -3.3745   -1.7523    0.8688 C   0  0  0  0  0  0  0  0  0  0  0  0
   -2.5621   -2.5080    1.7136 C   0  0  0  0  0  0  0  0  0  0  0  0
   -3.0660   -3.5949    2.3875 C   0  0  0  0  0  0  0  0  0  0  0  0
   -4.3910   -3.9657    2.2354 C   0  0  0  0  0  0  0  0  0  0  0  0
   -4.8860   -5.0388    2.9031 F   0  0  0  0  0  0  0  0  0  0  0  0
   -5.2037   -3.2281    1.3916 C   0  0  0  0  0  0  0  0  0  0  0  0
   -4.7061   -2.1387    0.7172 C   0  0  0  0  0  0  0  0  0  0  0  0
   -3.4841    0.6321   -0.1578 C   0  0  0  0  0  0  0  0  0  0  0  0
   -4.7625    1.0980    0.1810 C   0  0  0  0  0  0  0  0  0  0  0  0
   -0.2659   -1.2467   -0.5967 C   0  0  0  0  0  0  0  0  0  0  0  0
    0.5401   -0.2907   -1.3970 N   0  0  0  0  0  0  0  0  0  0  0  0
    1.9352   -0.5299   -1.7870 C   0  0  0  0  0  0  0  0  0  0  0  0
    2.4254    0.3779   -2.9035 C   0  0  0  0  0  0  0  0  0  0  0  0
    3.9160    0.2326   -3.1791 C   0  0  0  0  0  0  0  0  0  0  0  0
    4.7236    0.8395   -2.1385 N   0  0  0  0  0  0  0  0  0  0  0  0
    4.9753    0.1963   -0.9396 C   0  0  0  0  0  0  0  0  0  0  0  0
    4.5703   -0.9378   -0.7511 O   0  0  0  0  0  0  0  0  0  0  0  0
    5.6775    0.9288   -0.0187 O   0  0  0  0  0  0  0  0  0  0  0  0
    5.9355    0.2381    1.2317 C   0  0  0  0  0  0  0  0  0  0  0  0
    6.7371    1.1982    2.1220 C   0  0  0  0  0  0  0  0  0  0  0  0
    6.7632   -1.0258    0.9678 C   0  0  0  0  0  0  0  0  0  0  0  0
    4.6099   -0.1096    1.9200 C   0  0  0  0  0  0  0  0  0  0  0  0
   -0.1244    0.9099   -1.6537 C   0  0  0  0  0  0  0  0  0  0  0  0
    0.2758    1.8896   -2.2554 O   0  0  0  0  0  0  0  0  0  0  0  0
   -7.0315    1.8803    1.8782 H   0  0  0  0  0  0  0  0  0  0  0  0
   -8.3601    2.6801    1.0405 H   0  0  0  0  0  0  0  0  0  0  0  0
   -7.7059    1.1747    0.3979 H   0  0  0  0  0  0  0  0  0  0  0  0
   -4.5986    4.1159   -1.3135 H   0  0  0  0  0  0  0  0  0  0  0  0
   -2.3276    3.2935   -1.8790 H   0  0  0  0  0  0  0  0  0  0  0  0
   -1.5345   -2.2209    1.8453 H   0  0  0  0  0  0  0  0  0  0  0  0
   -2.4427   -4.1755    3.0454 H   0  0  0  0  0  0  0  0  0  0  0  0
   -6.2293   -3.5317    1.2719 H   0  0  0  0  0  0  0  0  0  0  0  0
   -5.3370   -1.5924    0.0394 H   0  0  0  0  0  0  0  0  0  0  0  0
   -5.4122    0.4889    0.7787 H   0  0  0  0  0  0  0  0  0  0  0  0
    0.2305   -1.4602    0.3516 H   0  0  0  0  0  0  0  0  0  0  0  0
   -0.4208   -2.1754   -1.1493 H   0  0  0  0  0  0  0  0  0  0  0  0
    2.5557   -0.3982   -0.9003 H   0  0  0  0  0  0  0  0  0  0  0  0
    2.0389   -1.5786   -2.0737 H   0  0  0  0  0  0  0  0  0  0  0  0
    2.2162    1.4176   -2.6236 H   0  0  0  0  0  0  0  0  0  0  0  0
    1.8333    0.1912   -3.8074 H   0  0  0  0  0  0  0  0  0  0  0  0
    4.1892   -0.8269   -3.2405 H   0  0  0  0  0  0  0  0  0  0  0  0
    4.1876    0.6779   -4.1446 H   0  0  0  0  0  0  0  0  0  0  0  0
    4.9500    1.8282   -2.2426 H   0  0  0  0  0  0  0  0  0  0  0  0
    7.6688    1.4759    1.6330 H   0  0  0  0  0  0  0  0  0  0  0  0
    6.9719    0.7442    3.0834 H   0  0  0  0  0  0  0  0  0  0  0  0
    6.1702    2.1103    2.2983 H   0  0  0  0  0  0  0  0  0  0  0  0
    7.0019   -1.5429    1.8957 H   0  0  0  0  0  0  0  0  0  0  0  0
    6.2119   -1.7092    0.3243 H   0  0  0  0  0  0  0  0  0  0  0  0
    7.6929   -0.7703    0.4630 H   0  0  0  0  0  0  0  0  0  0  0  0
    4.7792   -0.5815    2.8865 H   0  0  0  0  0  0  0  0  0  0  0  0
    4.0315   -0.7930    1.3014 H   0  0  0  0  0  0  0  0  0  0  0  0
    4.0152    0.7892    2.0717 H   0  0  0  0  0  0  0  0  0  0  0  0
  1  2  1  0  0  0  0
  2  3  2  0  0  0  0
  2  4  1  0  0  0  0
  4  5  1  0  0  0  0
  5  6  2  0  0  0  0
  6  7  1  0  0  0  0
  7  8  1  0  0  0  0
  8  9  2  0  0  0  0
  9 10  1  0  0  0  0
 10 11  1  0  0  0  0
 11 12  2  0  0  0  0
 12 13  1  0  0  0  0
 13 14  2  0  0  0  0
 14 15  1  0  0  0  0
 14 16  1  0  0  0  0
 16 17  2  0  0  0  0
 10 18  2  0  0  0  0
 18 19  1  0  0  0  0
  9 20  1  0  0  0  0
 20 21  1  0  0  0  0
 21 22  1  0  0  0  0
 22 23  1  0  0  0  0
 23 24  1  0  0  0  0
 24 25  1  0  0  0  0
 25 26  1  0  0  0  0
 26 27  2  0  0  0  0
 26 28  1  0  0  0  0
 28 29  1  0  0  0  0
 29 30  1  0  0  0  0
 29 31  1  0  0  0  0
 29 32  1  0  0  0  0
 21 33  1  0  0  0  0
 33 34  2  0  0  0  0
 19  4  2  0  0  0  0
 18  7  1  0  0  0  0
 33  8  1  0  0  0  0
 17 11  1  0  0  0  0
  1 35  1  0  0  0  0
  1 36  1  0  0  0  0
  1 37  1  0  0  0  0
  5 38  1  0  0  0  0
  6 39  1  0  0  0  0
 12 40  1  0  0  0  0
 13 41  1  0  0  0  0
 16 42  1  0  0  0  0
 17 43  1  0  0  0  0
 19 44  1  0  0  0  0
 20 45  1  0  0  0  0
 20 46  1  0  0  0  0
 22 47  1  0  0  0  0
 22 48  1  0  0  0  0
 23 49  1  0  0  0  0
 23 50  1  0  0  0  0
 24 51  1  0  0  0  0
 24 52  1  0  0  0  0
 25 53  1  0  0  0  0
 30 54  1  0  0  0  0
 30 55  1  0  0  0  0
 30 56  1  0  0  0  0
 31 57  1  0  0  0  0
 31 58  1  0  0  0  0
 31 59  1  0  0  0  0
 32 60  1  0  0  0  0
 32 61  1  0  0  0  0
 32 62  1  0  0  0  0
M  END
