
  xtb     03012221293D
 energy: -6.389547975213 gnorm: 0.000394388719 xtb: 6.4.1 (afa7bdf)
 33 34  0     0  0            999 V2000
   -1.8551    3.3438   -1.9150 C   0  0  0  0  0  0  0  0  0  0  0  0
   -1.3969    2.5206   -0.8957 O   0  0  0  0  0  0  0  0  0  0  0  0
   -0.8233    1.4093   -1.4423 C   0  0  0  0  0  0  0  0  0  0  0  0
   -0.7457    1.2247   -2.6412 O   0  0  0  0  0  0  0  0  0  0  0  0
   -0.2791    0.3959   -0.4907 C   0  0  0  0  0  0  0  0  0  0  0  0
    1.0329    0.3632    0.0145 C   0  0  0  0  0  0  0  0  0  0  0  0
    2.1110    1.3296   -0.2286 C   0  0  0  0  0  0  0  0  0  0  0  0
    1.9086    2.3405   -0.8765 O   0  0  0  0  0  0  0  0  0  0  0  0
    3.3304    1.0313    0.3151 O   0  0  0  0  0  0  0  0  0  0  0  0
    4.2384    2.0305   -0.0138 C   0  0  0  0  0  0  0  0  0  0  0  0
    1.1280   -0.7751    0.8238 C   0  0  0  0  0  0  0  0  0  0  0  0
    2.1823   -1.3033    1.5687 C   0  0  0  0  0  0  0  0  0  0  0  0
    1.9215   -2.4416    2.2553 C   0  0  0  0  0  0  0  0  0  0  0  0
    0.6463   -3.0157    2.1900 C   0  0  0  0  0  0  0  0  0  0  0  0
   -0.3546   -2.5458    1.5065 N   0  0  0  0  0  0  0  0  0  0  0  0
   -0.0949   -1.4227    0.8224 N   0  0  0  0  0  0  0  0  0  0  0  0
   -0.9675   -0.7037    0.0146 C   0  0  0  0  0  0  0  0  0  0  0  0
   -2.3668   -1.0635   -0.2297 C   0  0  0  0  0  0  0  0  0  0  0  0
   -3.1070   -0.3052   -0.8294 O   0  0  0  0  0  0  0  0  0  0  0  0
   -2.7845   -2.2724    0.2490 O   0  0  0  0  0  0  0  0  0  0  0  0
   -4.1221   -2.4651   -0.0731 C   0  0  0  0  0  0  0  0  0  0  0  0
   -2.3096    4.2315   -1.4756 H   0  0  0  0  0  0  0  0  0  0  0  0
   -2.5871    2.7853   -2.5012 H   0  0  0  0  0  0  0  0  0  0  0  0
   -1.0049    3.6163   -2.5428 H   0  0  0  0  0  0  0  0  0  0  0  0
    3.8734    2.9796    0.3847 H   0  0  0  0  0  0  0  0  0  0  0  0
    4.3079    2.0947   -1.1021 H   0  0  0  0  0  0  0  0  0  0  0  0
    5.2115    1.7865    0.4155 H   0  0  0  0  0  0  0  0  0  0  0  0
    3.1408   -0.8151    1.5763 H   0  0  0  0  0  0  0  0  0  0  0  0
    2.6907   -2.9049    2.8492 H   0  0  0  0  0  0  0  0  0  0  0  0
    0.4552   -3.9214    2.7433 H   0  0  0  0  0  0  0  0  0  0  0  0
   -4.4442   -3.4336    0.3135 H   0  0  0  0  0  0  0  0  0  0  0  0
   -4.7089   -1.6605    0.3757 H   0  0  0  0  0  0  0  0  0  0  0  0
   -4.2264   -2.4339   -1.1602 H   0  0  0  0  0  0  0  0  0  0  0  0
  1  2  1  0  0  0  0
  2  3  1  0  0  0  0
  3  4  2  0  0  0  0
  3  5  1  0  0  0  0
  5  6  1  0  0  0  0
  6  7  1  0  0  0  0
  7  8  2  0  0  0  0
  7  9  1  0  0  0  0
  9 10  1  0  0  0  0
  6 11  2  0  0  0  0
 11 12  1  0  0  0  0
 12 13  2  0  0  0  0
 13 14  1  0  0  0  0
 14 15  2  0  0  0  0
 15 16  1  0  0  0  0
 16 17  1  0  0  0  0
 17 18  1  0  0  0  0
 18 19  2  0  0  0  0
 18 20  1  0  0  0  0
 20 21  1  0  0  0  0
 17  5  2  0  0  0  0
 16 11  1  0  0  0  0
  1 22  1  0  0  0  0
  1 23  1  0  0  0  0
  1 24  1  0  0  0  0
 10 25  1  0  0  0  0
 10 26  1  0  0  0  0
 10 27  1  0  0  0  0
 12 28  1  0  0  0  0
 13 29  1  0  0  0  0
 14 30  1  0  0  0  0
 21 31  1  0  0  0  0
 21 32  1  0  0  0  0
 21 33  1  0  0  0  0
M  END
