
  xtb     03012221263D
 energy: -8.411595188341 gnorm: 0.000300711934 xtb: 6.4.1 (afa7bdf)
 40 43  0     0  0            999 V2000
    1.2431   -1.6194    0.2854 C   0  0  0  0  0  0  0  0  0  0  0  0
    0.1315   -2.0548    0.0232 C   0  0  0  0  0  0  0  0  0  0  0  0
   -1.1732   -2.4713   -0.2838 C   0  0  0  0  0  0  0  0  0  0  0  0
   -1.7177   -3.6077    0.2977 C   0  0  0  0  0  0  0  0  0  0  0  0
   -3.0087   -3.9984    0.0160 C   0  0  0  0  0  0  0  0  0  0  0  0
   -3.7795   -3.2557   -0.8577 C   0  0  0  0  0  0  0  0  0  0  0  0
   -3.2653   -2.1253   -1.4450 C   0  0  0  0  0  0  0  0  0  0  0  0
   -1.9614   -1.7044   -1.1705 C   0  0  0  0  0  0  0  0  0  0  0  0
   -1.4063   -0.5539   -1.7620 O   0  0  0  0  0  0  0  0  0  0  0  0
   -2.2475    0.6083   -1.7359 C   0  0  0  0  0  0  0  0  0  0  0  0
   -1.6203    1.7367   -0.9798 C   0  0  0  0  0  0  0  0  0  0  0  0
   -2.0976    3.0324   -1.0833 C   0  0  0  0  0  0  0  0  0  0  0  0
   -1.5083    4.0507   -0.3621 C   0  0  0  0  0  0  0  0  0  0  0  0
   -0.4418    3.7845    0.4721 C   0  0  0  0  0  0  0  0  0  0  0  0
    0.0415    2.4929    0.5968 C   0  0  0  0  0  0  0  0  0  0  0  0
   -0.5558    1.4855   -0.1360 C   0  0  0  0  0  0  0  0  0  0  0  0
    1.2079    2.1744    1.4776 C   0  0  0  0  0  0  0  0  0  0  0  0
    1.3208    0.7666    1.7309 O   0  0  0  0  0  0  0  0  0  0  0  0
    2.5269    0.1798    1.3036 C   0  0  0  0  0  0  0  0  0  0  0  0
    3.7708    0.7541    1.5778 C   0  0  0  0  0  0  0  0  0  0  0  0
    4.9322    0.1563    1.1528 C   0  0  0  0  0  0  0  0  0  0  0  0
    4.8860   -1.0295    0.4451 C   0  0  0  0  0  0  0  0  0  0  0  0
    3.6718   -1.6185    0.1667 C   0  0  0  0  0  0  0  0  0  0  0  0
    2.4839   -1.0371    0.5872 C   0  0  0  0  0  0  0  0  0  0  0  0
   -1.1149   -4.1808    0.9811 H   0  0  0  0  0  0  0  0  0  0  0  0
   -3.4164   -4.8832    0.4756 H   0  0  0  0  0  0  0  0  0  0  0  0
   -4.7870   -3.5676   -1.0826 H   0  0  0  0  0  0  0  0  0  0  0  0
   -3.8551   -1.5654   -2.1479 H   0  0  0  0  0  0  0  0  0  0  0  0
   -3.2088    0.3523   -1.2802 H   0  0  0  0  0  0  0  0  0  0  0  0
   -2.4374    0.8987   -2.7742 H   0  0  0  0  0  0  0  0  0  0  0  0
   -2.9314    3.2365   -1.7327 H   0  0  0  0  0  0  0  0  0  0  0  0
   -1.8820    5.0574   -0.4510 H   0  0  0  0  0  0  0  0  0  0  0  0
    0.0224    4.5774    1.0329 H   0  0  0  0  0  0  0  0  0  0  0  0
   -0.1821    0.4812   -0.0480 H   0  0  0  0  0  0  0  0  0  0  0  0
    2.1288    2.5347    1.0094 H   0  0  0  0  0  0  0  0  0  0  0  0
    1.1077    2.6750    2.4459 H   0  0  0  0  0  0  0  0  0  0  0  0
    3.8087    1.6608    2.1540 H   0  0  0  0  0  0  0  0  0  0  0  0
    5.8840    0.6114    1.3759 H   0  0  0  0  0  0  0  0  0  0  0  0
    5.7992   -1.4941    0.1124 H   0  0  0  0  0  0  0  0  0  0  0  0
    3.6308   -2.5404   -0.3874 H   0  0  0  0  0  0  0  0  0  0  0  0
  1  2  3  0  0  0  0
  2  3  1  0  0  0  0
  3  4  2  0  0  0  0
  4  5  1  0  0  0  0
  5  6  2  0  0  0  0
  6  7  1  0  0  0  0
  7  8  2  0  0  0  0
  8  9  1  0  0  0  0
  9 10  1  0  0  0  0
 10 11  1  0  0  0  0
 11 12  2  0  0  0  0
 12 13  1  0  0  0  0
 13 14  2  0  0  0  0
 14 15  1  0  0  0  0
 15 16  2  0  0  0  0
 15 17  1  0  0  0  0
 17 18  1  0  0  0  0
 18 19  1  0  0  0  0
 19 20  2  0  0  0  0
 20 21  1  0  0  0  0
 21 22  2  0  0  0  0
 22 23  1  0  0  0  0
 23 24  2  0  0  0  0
 24  1  1  0  0  0  0
  8  3  1  0  0  0  0
 16 11  1  0  0  0  0
 24 19  1  0  0  0  0
  4 25  1  0  0  0  0
  5 26  1  0  0  0  0
  6 27  1  0  0  0  0
  7 28  1  0  0  0  0
 10 29  1  0  0  0  0
 10 30  1  0  0  0  0
 12 31  1  0  0  0  0
 13 32  1  0  0  0  0
 14 33  1  0  0  0  0
 16 34  1  0  0  0  0
 17 35  1  0  0  0  0
 17 36  1  0  0  0  0
 20 37  1  0  0  0  0
 21 38  1  0  0  0  0
 22 39  1  0  0  0  0
 23 40  1  0  0  0  0
M  END
