
  xtb     03012221253D
 energy: -4.856184048821 gnorm: 0.000442665120 xtb: 6.4.1 (afa7bdf)
 26 27  0     0  0            999 V2000
    5.7882   -0.2851   -0.3263 C   0  0  0  0  0  0  0  0  0  0  0  0
    4.8468    0.5501   -0.8980 O   0  0  0  0  0  0  0  0  0  0  0  0
    3.5070   -0.0904   -0.8353 O   0  0  0  0  0  0  0  0  0  0  0  0
    2.7077    0.5952    0.0814 C   0  0  0  0  0  0  0  0  0  0  0  0
    1.3836   -0.0479    0.2999 C   0  0  0  0  0  0  0  0  0  0  0  0
    1.1912   -1.3058    0.6818 N   0  0  0  0  0  0  0  0  0  0  0  0
   -0.1229   -1.5380    0.7967 O   0  0  0  0  0  0  0  0  0  0  0  0
   -0.8034   -0.3813    0.4766 C   0  0  0  0  0  0  0  0  0  0  0  0
   -2.2475   -0.2308    0.4811 C   0  0  0  0  0  0  0  0  0  0  0  0
   -3.0463   -1.3174    0.8221 C   0  0  0  0  0  0  0  0  0  0  0  0
   -4.4173   -1.2033    0.8327 C   0  0  0  0  0  0  0  0  0  0  0  0
   -5.0142   -0.0031    0.5031 C   0  0  0  0  0  0  0  0  0  0  0  0
   -4.2349    1.0839    0.1624 C   0  0  0  0  0  0  0  0  0  0  0  0
   -2.8650    0.9722    0.1513 C   0  0  0  0  0  0  0  0  0  0  0  0
    0.1511    0.5735    0.1642 C   0  0  0  0  0  0  0  0  0  0  0  0
   -0.1058    2.2423   -0.2778 Cl  0  0  0  0  0  0  0  0  0  0  0  0
    5.5331   -0.4414    0.7219 H   0  0  0  0  0  0  0  0  0  0  0  0
    5.7651   -1.2366   -0.8585 H   0  0  0  0  0  0  0  0  0  0  0  0
    6.7740    0.1730   -0.4128 H   0  0  0  0  0  0  0  0  0  0  0  0
    2.5802    1.6071   -0.3166 H   0  0  0  0  0  0  0  0  0  0  0  0
    3.2645    0.6638    1.0205 H   0  0  0  0  0  0  0  0  0  0  0  0
   -2.5679   -2.2482    1.0756 H   0  0  0  0  0  0  0  0  0  0  0  0
   -5.0258   -2.0528    1.0982 H   0  0  0  0  0  0  0  0  0  0  0  0
   -6.0880    0.0846    0.5110 H   0  0  0  0  0  0  0  0  0  0  0  0
   -4.7005    2.0214   -0.0957 H   0  0  0  0  0  0  0  0  0  0  0  0
   -2.2529    1.8150   -0.1134 H   0  0  0  0  0  0  0  0  0  0  0  0
  1  2  1  0  0  0  0
  2  3  1  0  0  0  0
  3  4  1  0  0  0  0
  4  5  1  0  0  0  0
  5  6  2  0  0  0  0
  6  7  1  0  0  0  0
  7  8  1  0  0  0  0
  8  9  1  0  0  0  0
  9 10  2  0  0  0  0
 10 11  1  0  0  0  0
 11 12  2  0  0  0  0
 12 13  1  0  0  0  0
 13 14  2  0  0  0  0
  8 15  2  0  0  0  0
 15 16  1  0  0  0  0
 15  5  1  0  0  0  0
 14  9  1  0  0  0  0
  1 17  1  0  0  0  0
  1 18  1  0  0  0  0
  1 19  1  0  0  0  0
  4 20  1  0  0  0  0
  4 21  1  0  0  0  0
 10 22  1  0  0  0  0
 11 23  1  0  0  0  0
 12 24  1  0  0  0  0
 13 25  1  0  0  0  0
 14 26  1  0  0  0  0
M  END
