
  xtb     03012221293D
 energy: -6.248049351566 gnorm: 0.000165655394 xtb: 6.4.1 (afa7bdf)
 32 33  0     0  0            999 V2000
   -4.7724   -0.2374   -0.2344 C   0  0  0  0  0  0  0  0  0  0  0  0
   -3.6298    0.0782    0.6216 N   0  0  0  0  0  0  0  0  0  0  0  0
   -3.9221    0.4370    2.0085 C   0  0  0  0  0  0  0  0  0  0  0  0
   -2.3155    0.0529    0.1304 C   0  0  0  0  0  0  0  0  0  0  0  0
   -1.2325    0.4099    0.9427 C   0  0  0  0  0  0  0  0  0  0  0  0
    0.0520    0.3837    0.4623 C   0  0  0  0  0  0  0  0  0  0  0  0
    0.3150   -0.0071   -0.8500 C   0  0  0  0  0  0  0  0  0  0  0  0
    1.6784   -0.0299   -1.4133 C   0  0  0  0  0  0  0  0  0  0  0  0
    1.8383   -0.0146   -2.6203 O   0  0  0  0  0  0  0  0  0  0  0  0
    2.8581   -0.0641   -0.5145 C   0  0  0  0  0  0  0  0  0  0  0  0
    2.8895   -0.8570    0.6280 C   0  0  0  0  0  0  0  0  0  0  0  0
    4.0081   -0.8817    1.4307 C   0  0  0  0  0  0  0  0  0  0  0  0
    5.1144   -0.1255    1.1001 C   0  0  0  0  0  0  0  0  0  0  0  0
    5.1025    0.6506   -0.0411 C   0  0  0  0  0  0  0  0  0  0  0  0
    3.9842    0.6774   -0.8443 C   0  0  0  0  0  0  0  0  0  0  0  0
   -0.7579   -0.3489   -1.6661 C   0  0  0  0  0  0  0  0  0  0  0  0
   -2.0441   -0.3239   -1.1902 C   0  0  0  0  0  0  0  0  0  0  0  0
   -5.7114   -0.1150    0.3013 H   0  0  0  0  0  0  0  0  0  0  0  0
   -4.7076   -1.2681   -0.5778 H   0  0  0  0  0  0  0  0  0  0  0  0
   -4.7864    0.4264   -1.0969 H   0  0  0  0  0  0  0  0  0  0  0  0
   -3.6318    1.4692    2.1953 H   0  0  0  0  0  0  0  0  0  0  0  0
   -3.3753   -0.2159    2.6863 H   0  0  0  0  0  0  0  0  0  0  0  0
   -4.9833    0.3359    2.2262 H   0  0  0  0  0  0  0  0  0  0  0  0
   -1.4129    0.7172    1.9570 H   0  0  0  0  0  0  0  0  0  0  0  0
    0.8692    0.6847    1.0941 H   0  0  0  0  0  0  0  0  0  0  0  0
    2.0340   -1.4641    0.8700 H   0  0  0  0  0  0  0  0  0  0  0  0
    4.0210   -1.4968    2.3159 H   0  0  0  0  0  0  0  0  0  0  0  0
    5.9896   -0.1474    1.7281 H   0  0  0  0  0  0  0  0  0  0  0  0
    5.9697    1.2330   -0.3069 H   0  0  0  0  0  0  0  0  0  0  0  0
    3.9670    1.2662   -1.7458 H   0  0  0  0  0  0  0  0  0  0  0  0
   -0.5526   -0.6286   -2.6856 H   0  0  0  0  0  0  0  0  0  0  0  0
   -2.8557   -0.5962   -1.8405 H   0  0  0  0  0  0  0  0  0  0  0  0
  1  2  1  0  0  0  0
  2  3  1  0  0  0  0
  2  4  1  0  0  0  0
  4  5  2  0  0  0  0
  5  6  1  0  0  0  0
  6  7  2  0  0  0  0
  7  8  1  0  0  0  0
  8  9  2  0  0  0  0
  8 10  1  0  0  0  0
 10 11  2  0  0  0  0
 11 12  1  0  0  0  0
 12 13  2  0  0  0  0
 13 14  1  0  0  0  0
 14 15  2  0  0  0  0
  7 16  1  0  0  0  0
 16 17  2  0  0  0  0
 17  4  1  0  0  0  0
 15 10  1  0  0  0  0
  1 18  1  0  0  0  0
  1 19  1  0  0  0  0
  1 20  1  0  0  0  0
  3 21  1  0  0  0  0
  3 22  1  0  0  0  0
  3 23  1  0  0  0  0
  5 24  1  0  0  0  0
  6 25  1  0  0  0  0
 11 26  1  0  0  0  0
 12 27  1  0  0  0  0
 13 28  1  0  0  0  0
 14 29  1  0  0  0  0
 15 30  1  0  0  0  0
 16 31  1  0  0  0  0
 17 32  1  0  0  0  0
M  END
