
  xtb     03012221233D
 energy: -6.611426981418 gnorm: 0.000294707435 xtb: 6.4.1 (afa7bdf)
 36 38  0     0  0            999 V2000
   -2.3266    3.1766   -0.2493 C   0  0  0  0  0  0  0  0  0  0  0  0
   -1.5958    1.8991   -0.0898 C   0  0  0  0  0  0  0  0  0  0  0  0
   -0.2793    1.8127    0.1758 N   0  0  0  0  0  0  0  0  0  0  0  0
    0.0207    0.5240    0.2527 C   0  0  0  0  0  0  0  0  0  0  0  0
    1.3881    0.0478    0.4581 C   0  0  0  0  0  0  0  0  0  0  0  0
    2.4282    0.8169   -0.0432 C   0  0  0  0  0  0  0  0  0  0  0  0
    3.7414    0.4360    0.1061 C   0  0  0  0  0  0  0  0  0  0  0  0
    4.8511    1.2879   -0.4774 C   0  0  0  0  0  0  0  0  0  0  0  0
    4.2996    2.2737   -1.2125 F   0  0  0  0  0  0  0  0  0  0  0  0
    5.6300    0.5075   -1.2515 F   0  0  0  0  0  0  0  0  0  0  0  0
    5.5723    1.8064    0.5352 F   0  0  0  0  0  0  0  0  0  0  0  0
    4.0429   -0.7253    0.7877 C   0  0  0  0  0  0  0  0  0  0  0  0
    3.0381   -1.4967    1.3201 C   0  0  0  0  0  0  0  0  0  0  0  0
    1.6975   -1.1331    1.1780 C   0  0  0  0  0  0  0  0  0  0  0  0
    0.7038   -1.8971    1.7495 O   0  0  0  0  0  0  0  0  0  0  0  0
   -1.1122   -0.2453   -0.0011 N   0  0  0  0  0  0  0  0  0  0  0  0
   -2.1383    0.6311   -0.2110 C   0  0  0  0  0  0  0  0  0  0  0  0
   -3.5316    0.2222   -0.5534 C   0  0  0  0  0  0  0  0  0  0  0  0
   -3.7249   -1.2979   -0.4179 C   0  0  0  0  0  0  0  0  0  0  0  0
   -2.5054   -2.0803   -0.9322 C   0  0  0  0  0  0  0  0  0  0  0  0
   -1.2262   -1.7044   -0.1778 C   0  0  0  0  0  0  0  0  0  0  0  0
   -2.8092    3.2310   -1.2261 H   0  0  0  0  0  0  0  0  0  0  0  0
   -1.6381    4.0184   -0.1643 H   0  0  0  0  0  0  0  0  0  0  0  0
   -3.0919    3.2859    0.5205 H   0  0  0  0  0  0  0  0  0  0  0  0
    2.2086    1.7338   -0.5635 H   0  0  0  0  0  0  0  0  0  0  0  0
    5.0770   -1.0080    0.8957 H   0  0  0  0  0  0  0  0  0  0  0  0
    3.2808   -2.3939    1.8601 H   0  0  0  0  0  0  0  0  0  0  0  0
    1.1027   -2.6263    2.2712 H   0  0  0  0  0  0  0  0  0  0  0  0
   -4.2343    0.7660    0.0916 H   0  0  0  0  0  0  0  0  0  0  0  0
   -3.7531    0.5421   -1.5791 H   0  0  0  0  0  0  0  0  0  0  0  0
   -3.8861   -1.5466    0.6371 H   0  0  0  0  0  0  0  0  0  0  0  0
   -4.6361   -1.6196   -0.9384 H   0  0  0  0  0  0  0  0  0  0  0  0
   -2.6851   -3.1636   -0.8703 H   0  0  0  0  0  0  0  0  0  0  0  0
   -2.3663   -1.8670   -2.0002 H   0  0  0  0  0  0  0  0  0  0  0  0
   -1.2131   -2.1586    0.8170 H   0  0  0  0  0  0  0  0  0  0  0  0
   -0.3292   -2.0556   -0.6977 H   0  0  0  0  0  0  0  0  0  0  0  0
  1  2  1  0  0  0  0
  2  3  1  0  0  0  0
  3  4  2  0  0  0  0
  4  5  1  0  0  0  0
  5  6  2  0  0  0  0
  6  7  1  0  0  0  0
  7  8  1  0  0  0  0
  8  9  1  0  0  0  0
  8 10  1  0  0  0  0
  8 11  1  0  0  0  0
  7 12  2  0  0  0  0
 12 13  1  0  0  0  0
 13 14  2  0  0  0  0
 14 15  1  0  0  0  0
  4 16  1  0  0  0  0
 16 17  1  0  0  0  0
 17 18  1  0  0  0  0
 18 19  1  0  0  0  0
 19 20  1  0  0  0  0
 20 21  1  0  0  0  0
 17  2  2  0  0  0  0
 14  5  1  0  0  0  0
 21 16  1  0  0  0  0
  1 22  1  0  0  0  0
  1 23  1  0  0  0  0
  1 24  1  0  0  0  0
  6 25  1  0  0  0  0
 12 26  1  0  0  0  0
 13 27  1  0  0  0  0
 15 28  1  0  0  0  0
 18 29  1  0  0  0  0
 18 30  1  0  0  0  0
 19 31  1  0  0  0  0
 19 32  1  0  0  0  0
 20 33  1  0  0  0  0
 20 34  1  0  0  0  0
 21 35  1  0  0  0  0
 21 36  1  0  0  0  0
M  END
