
  xtb     03012221333D
 energy: -9.601632840773 gnorm: 0.000341167569 xtb: 6.4.1 (afa7bdf)
 47 50  0     0  0            999 V2000
    4.6226    4.7570   -0.4683 C   0  0  0  0  0  0  0  0  0  0  0  0
    3.4315    4.6103    0.2643 O   0  0  0  0  0  0  0  0  0  0  0  0
    2.8258    3.3534    0.1531 C   0  0  0  0  0  0  0  0  0  0  0  0
    3.3349    2.2893   -0.5968 C   0  0  0  0  0  0  0  0  0  0  0  0
    2.6678    1.0907   -0.6562 C   0  0  0  0  0  0  0  0  0  0  0  0
    1.4641    0.9011    0.0174 C   0  0  0  0  0  0  0  0  0  0  0  0
    0.7852   -0.3988   -0.0577 C   0  0  0  0  0  0  0  0  0  0  0  0
    1.4489   -1.5634   -0.2030 N   0  0  0  0  0  0  0  0  0  0  0  0
    0.5392   -2.5296   -0.1739 C   0  0  0  0  0  0  0  0  0  0  0  0
    0.8606   -3.9478   -0.3036 C   0  0  0  0  0  0  0  0  0  0  0  0
   -0.1287   -4.9272   -0.2677 C   0  0  0  0  0  0  0  0  0  0  0  0
    0.2026   -6.2584   -0.3926 C   0  0  0  0  0  0  0  0  0  0  0  0
    1.5215   -6.6348   -0.5545 C   0  0  0  0  0  0  0  0  0  0  0  0
    2.5120   -5.6734   -0.5914 C   0  0  0  0  0  0  0  0  0  0  0  0
    2.1856   -4.3414   -0.4671 C   0  0  0  0  0  0  0  0  0  0  0  0
   -0.7324   -2.0102   -0.0136 N   0  0  0  0  0  0  0  0  0  0  0  0
   -0.6019   -0.6532    0.0413 C   0  0  0  0  0  0  0  0  0  0  0  0
   -1.7169    0.2938    0.1052 C   0  0  0  0  0  0  0  0  0  0  0  0
   -2.8457    0.0019    0.8697 C   0  0  0  0  0  0  0  0  0  0  0  0
   -3.9046    0.8728    0.9331 C   0  0  0  0  0  0  0  0  0  0  0  0
   -3.8848    2.0771    0.2224 C   0  0  0  0  0  0  0  0  0  0  0  0
   -4.9144    3.0234    0.2314 O   0  0  0  0  0  0  0  0  0  0  0  0
   -6.0156    2.6898    1.0400 C   0  0  0  0  0  0  0  0  0  0  0  0
   -2.7582    2.3595   -0.5557 C   0  0  0  0  0  0  0  0  0  0  0  0
   -1.7018    1.4878   -0.6165 C   0  0  0  0  0  0  0  0  0  0  0  0
    0.9651    1.9536    0.7827 C   0  0  0  0  0  0  0  0  0  0  0  0
    1.6282    3.1528    0.8448 C   0  0  0  0  0  0  0  0  0  0  0  0
    4.9963    5.7710   -0.3209 H   0  0  0  0  0  0  0  0  0  0  0  0
    5.3700    4.0487   -0.1083 H   0  0  0  0  0  0  0  0  0  0  0  0
    4.4273    4.6032   -1.5304 H   0  0  0  0  0  0  0  0  0  0  0  0
    4.2592    2.4069   -1.1308 H   0  0  0  0  0  0  0  0  0  0  0  0
    3.0683    0.2715   -1.2292 H   0  0  0  0  0  0  0  0  0  0  0  0
   -1.1553   -4.6365   -0.1407 H   0  0  0  0  0  0  0  0  0  0  0  0
   -0.5699   -7.0097   -0.3637 H   0  0  0  0  0  0  0  0  0  0  0  0
    1.7776   -7.6771   -0.6516 H   0  0  0  0  0  0  0  0  0  0  0  0
    3.5418   -5.9659   -0.7174 H   0  0  0  0  0  0  0  0  0  0  0  0
    2.9490   -3.5843   -0.4941 H   0  0  0  0  0  0  0  0  0  0  0  0
   -1.6134   -2.5258   -0.0239 H   0  0  0  0  0  0  0  0  0  0  0  0
   -2.8695   -0.9207    1.4246 H   0  0  0  0  0  0  0  0  0  0  0  0
   -4.7576    0.6245    1.5367 H   0  0  0  0  0  0  0  0  0  0  0  0
   -5.6964    2.5841    2.0775 H   0  0  0  0  0  0  0  0  0  0  0  0
   -6.4730    1.7665    0.6827 H   0  0  0  0  0  0  0  0  0  0  0  0
   -6.7479    3.4953    0.9756 H   0  0  0  0  0  0  0  0  0  0  0  0
   -2.7418    3.2812   -1.1086 H   0  0  0  0  0  0  0  0  0  0  0  0
   -0.8479    1.7139   -1.2325 H   0  0  0  0  0  0  0  0  0  0  0  0
    0.0536    1.8112    1.3377 H   0  0  0  0  0  0  0  0  0  0  0  0
    1.2388    3.9657    1.4305 H   0  0  0  0  0  0  0  0  0  0  0  0
  1  2  1  0  0  0  0
  2  3  1  0  0  0  0
  3  4  2  0  0  0  0
  4  5  1  0  0  0  0
  5  6  2  0  0  0  0
  6  7  1  0  0  0  0
  7  8  1  0  0  0  0
  8  9  2  0  0  0  0
  9 10  1  0  0  0  0
 10 11  2  0  0  0  0
 11 12  1  0  0  0  0
 12 13  2  0  0  0  0
 13 14  1  0  0  0  0
 14 15  2  0  0  0  0
  9 16  1  0  0  0  0
 16 17  1  0  0  0  0
 17 18  1  0  0  0  0
 18 19  2  0  0  0  0
 19 20  1  0  0  0  0
 20 21  2  0  0  0  0
 21 22  1  0  0  0  0
 22 23  1  0  0  0  0
 21 24  1  0  0  0  0
 24 25  2  0  0  0  0
  6 26  1  0  0  0  0
 26 27  2  0  0  0  0
 27  3  1  0  0  0  0
 17  7  2  0  0  0  0
 25 18  1  0  0  0  0
 15 10  1  0  0  0  0
  1 28  1  0  0  0  0
  1 29  1  0  0  0  0
  1 30  1  0  0  0  0
  4 31  1  0  0  0  0
  5 32  1  0  0  0  0
 11 33  1  0  0  0  0
 12 34  1  0  0  0  0
 13 35  1  0  0  0  0
 14 36  1  0  0  0  0
 15 37  1  0  0  0  0
 16 38  1  0  0  0  0
 19 39  1  0  0  0  0
 20 40  1  0  0  0  0
 23 41  1  0  0  0  0
 23 42  1  0  0  0  0
 23 43  1  0  0  0  0
 24 44  1  0  0  0  0
 25 45  1  0  0  0  0
 26 46  1  0  0  0  0
 27 47  1  0  0  0  0
M  END
