
  xtb     03012221233D
 energy: -15.124695646567 gnorm: 0.000112191679 xtb: 6.4.1 (afa7bdf)
 74 80  0     0  0            999 V2000
   -0.4739    3.8892    4.1071 C   0  0  0  0  0  0  0  0  0  0  0  0
   -0.9155    2.4794    4.4398 C   0  0  0  0  0  0  0  0  0  0  0  0
   -1.5582    1.8260    3.3483 O   0  0  0  0  0  0  0  0  0  0  0  0
   -0.7297    1.4415    2.2920 C   0  0  0  0  0  0  0  0  0  0  0  0
    0.6570    1.4727    2.3170 C   0  0  0  0  0  0  0  0  0  0  0  0
    1.4376    1.0617    1.2321 C   0  0  0  0  0  0  0  0  0  0  0  0
    2.8782    1.0705    1.3385 C   0  0  0  0  0  0  0  0  0  0  0  0
    3.7537    0.1494    0.8134 C   0  0  0  0  0  0  0  0  0  0  0  0
    3.4851   -1.1948    0.2967 C   0  0  0  0  0  0  0  0  0  0  0  0
    2.3154   -1.9494    0.2280 C   0  0  0  0  0  0  0  0  0  0  0  0
    2.3616   -3.2201   -0.2984 C   0  0  0  0  0  0  0  0  0  0  0  0
    3.5608   -3.7663   -0.7423 C   0  0  0  0  0  0  0  0  0  0  0  0
    4.7342   -3.0508   -0.6531 C   0  0  0  0  0  0  0  0  0  0  0  0
    4.6982   -1.7650   -0.1261 C   0  0  0  0  0  0  0  0  0  0  0  0
    5.7680   -0.8159    0.1461 C   0  0  0  0  0  0  0  0  0  0  0  0
    7.1398   -0.8956   -0.0626 C   0  0  0  0  0  0  0  0  0  0  0  0
    7.9311    0.1676    0.3132 C   0  0  0  0  0  0  0  0  0  0  0  0
    7.3715    1.3025    0.8919 C   0  0  0  0  0  0  0  0  0  0  0  0
    6.0140    1.3936    1.1054 C   0  0  0  0  0  0  0  0  0  0  0  0
    5.2005    0.3255    0.7346 C   0  0  0  0  0  0  0  0  0  0  0  0
    0.7853    0.7017    0.0126 C   0  0  0  0  0  0  0  0  0  0  0  0
    1.5714    0.4529   -1.1074 O   0  0  0  0  0  0  0  0  0  0  0  0
    0.8887   -0.1147   -2.2224 C   0  0  0  0  0  0  0  0  0  0  0  0
    1.8569   -0.5793   -3.2878 C   0  0  0  0  0  0  0  0  0  0  0  0
   -0.6018    0.6471    0.0008 C   0  0  0  0  0  0  0  0  0  0  0  0
   -1.3749    0.9652    1.1112 C   0  0  0  0  0  0  0  0  0  0  0  0
   -2.8096    0.9017    1.0861 C   0  0  0  0  0  0  0  0  0  0  0  0
   -3.5940    0.1965    0.2091 C   0  0  0  0  0  0  0  0  0  0  0  0
   -5.0576    0.3825    0.2391 C   0  0  0  0  0  0  0  0  0  0  0  0
   -5.7401    0.3185    1.4554 C   0  0  0  0  0  0  0  0  0  0  0  0
   -7.0988    0.5145    1.5217 C   0  0  0  0  0  0  0  0  0  0  0  0
   -7.8116    0.7903    0.3718 C   0  0  0  0  0  0  0  0  0  0  0  0
   -7.1608    0.8683   -0.8374 C   0  0  0  0  0  0  0  0  0  0  0  0
   -5.7841    0.6605   -0.9405 C   0  0  0  0  0  0  0  0  0  0  0  0
   -5.1516    0.8288   -2.2433 C   0  0  0  0  0  0  0  0  0  0  0  0
   -4.0638    0.2019   -2.7290 C   0  0  0  0  0  0  0  0  0  0  0  0
   -3.2568   -0.8184   -2.0760 C   0  0  0  0  0  0  0  0  0  0  0  0
   -2.6289   -1.7847   -2.8642 C   0  0  0  0  0  0  0  0  0  0  0  0
   -1.8443   -2.7681   -2.3078 C   0  0  0  0  0  0  0  0  0  0  0  0
   -1.6592   -2.8104   -0.9403 C   0  0  0  0  0  0  0  0  0  0  0  0
   -2.2469   -1.8597   -0.1409 C   0  0  0  0  0  0  0  0  0  0  0  0
   -3.0372   -0.8427   -0.6821 C   0  0  0  0  0  0  0  0  0  0  0  0
   -1.3269    4.4952    3.7997 H   0  0  0  0  0  0  0  0  0  0  0  0
    0.2347    3.8987    3.2789 H   0  0  0  0  0  0  0  0  0  0  0  0
   -0.0003    4.3830    4.9577 H   0  0  0  0  0  0  0  0  0  0  0  0
   -1.6455    2.4890    5.2591 H   0  0  0  0  0  0  0  0  0  0  0  0
   -0.0899    1.8492    4.7891 H   0  0  0  0  0  0  0  0  0  0  0  0
    1.1671    1.7838    3.2079 H   0  0  0  0  0  0  0  0  0  0  0  0
    3.3116    1.8845    1.8979 H   0  0  0  0  0  0  0  0  0  0  0  0
    1.3888   -1.5313    0.5755 H   0  0  0  0  0  0  0  0  0  0  0  0
    1.4558   -3.8001   -0.3683 H   0  0  0  0  0  0  0  0  0  0  0  0
    3.5734   -4.7638   -1.1509 H   0  0  0  0  0  0  0  0  0  0  0  0
    5.6709   -3.4719   -0.9749 H   0  0  0  0  0  0  0  0  0  0  0  0
    7.5639   -1.7778   -0.5101 H   0  0  0  0  0  0  0  0  0  0  0  0
    8.9966    0.1202    0.1566 H   0  0  0  0  0  0  0  0  0  0  0  0
    8.0101    2.1236    1.1757 H   0  0  0  0  0  0  0  0  0  0  0  0
    5.5798    2.2734    1.5456 H   0  0  0  0  0  0  0  0  0  0  0  0
    0.2011    0.6433   -2.6163 H   0  0  0  0  0  0  0  0  0  0  0  0
    0.2870   -0.9551   -1.8568 H   0  0  0  0  0  0  0  0  0  0  0  0
    2.5440   -1.3235   -2.8831 H   0  0  0  0  0  0  0  0  0  0  0  0
    1.3465   -1.0212   -4.1457 H   0  0  0  0  0  0  0  0  0  0  0  0
    2.4632    0.2534   -3.6458 H   0  0  0  0  0  0  0  0  0  0  0  0
   -1.1032    0.3859   -0.9090 H   0  0  0  0  0  0  0  0  0  0  0  0
   -3.3114    1.4921    1.8335 H   0  0  0  0  0  0  0  0  0  0  0  0
   -5.1846    0.1008    2.3514 H   0  0  0  0  0  0  0  0  0  0  0  0
   -7.6071    0.4560    2.4708 H   0  0  0  0  0  0  0  0  0  0  0  0
   -8.8766    0.9496    0.4231 H   0  0  0  0  0  0  0  0  0  0  0  0
   -7.7187    1.0938   -1.7308 H   0  0  0  0  0  0  0  0  0  0  0  0
   -5.6655    1.5053   -2.9088 H   0  0  0  0  0  0  0  0  0  0  0  0
   -3.7831    0.4184   -3.7482 H   0  0  0  0  0  0  0  0  0  0  0  0
   -2.7757   -1.7581   -3.9310 H   0  0  0  0  0  0  0  0  0  0  0  0
   -1.3755   -3.5067   -2.9378 H   0  0  0  0  0  0  0  0  0  0  0  0
   -1.0507   -3.5839   -0.5006 H   0  0  0  0  0  0  0  0  0  0  0  0
   -2.0899   -1.8794    0.9240 H   0  0  0  0  0  0  0  0  0  0  0  0
  1  2  1  0  0  0  0
  2  3  1  0  0  0  0
  3  4  1  0  0  0  0
  4  5  2  0  0  0  0
  5  6  1  0  0  0  0
  6  7  1  0  0  0  0
  7  8  2  0  0  0  0
  8  9  1  0  0  0  0
  9 10  2  0  0  0  0
 10 11  1  0  0  0  0
 11 12  2  0  0  0  0
 12 13  1  0  0  0  0
 13 14  2  0  0  0  0
 14 15  1  0  0  0  0
 15 16  2  0  0  0  0
 16 17  1  0  0  0  0
 17 18  2  0  0  0  0
 18 19  1  0  0  0  0
 19 20  2  0  0  0  0
  6 21  2  0  0  0  0
 21 22  1  0  0  0  0
 22 23  1  0  0  0  0
 23 24  1  0  0  0  0
 21 25  1  0  0  0  0
 25 26  2  0  0  0  0
 26 27  1  0  0  0  0
 27 28  2  0  0  0  0
 28 29  1  0  0  0  0
 29 30  2  0  0  0  0
 30 31  1  0  0  0  0
 31 32  2  0  0  0  0
 32 33  1  0  0  0  0
 33 34  2  0  0  0  0
 34 35  1  0  0  0  0
 35 36  2  0  0  0  0
 36 37  1  0  0  0  0
 37 38  2  0  0  0  0
 38 39  1  0  0  0  0
 39 40  2  0  0  0  0
 40 41  1  0  0  0  0
 41 42  2  0  0  0  0
 26  4  1  0  0  0  0
 42 28  1  0  0  0  0
 20  8  1  0  0  0  0
 34 29  1  0  0  0  0
 42 37  1  0  0  0  0
 14  9  1  0  0  0  0
 20 15  1  0  0  0  0
  1 43  1  0  0  0  0
  1 44  1  0  0  0  0
  1 45  1  0  0  0  0
  2 46  1  0  0  0  0
  2 47  1  0  0  0  0
  5 48  1  0  0  0  0
  7 49  1  0  0  0  0
 10 50  1  0  0  0  0
 11 51  1  0  0  0  0
 12 52  1  0  0  0  0
 13 53  1  0  0  0  0
 16 54  1  0  0  0  0
 17 55  1  0  0  0  0
 18 56  1  0  0  0  0
 19 57  1  0  0  0  0
 23 58  1  0  0  0  0
 23 59  1  0  0  0  0
 24 60  1  0  0  0  0
 24 61  1  0  0  0  0
 24 62  1  0  0  0  0
 25 63  1  0  0  0  0
 27 64  1  0  0  0  0
 30 65  1  0  0  0  0
 31 66  1  0  0  0  0
 32 67  1  0  0  0  0
 33 68  1  0  0  0  0
 35 69  1  0  0  0  0
 36 70  1  0  0  0  0
 38 71  1  0  0  0  0
 39 72  1  0  0  0  0
 40 73  1  0  0  0  0
 41 74  1  0  0  0  0
M  END
