
  xtb     03012221263D
 energy: -6.600305482000 gnorm: 0.000373426829 xtb: 6.4.1 (afa7bdf)
 32 34  0     0  0            999 V2000
   -7.1784    0.7188    0.1072 C   0  0  0  0  0  0  0  0  0  0  0  0
   -6.3323   -0.1685    0.7953 O   0  0  0  0  0  0  0  0  0  0  0  0
   -4.9724   -0.0036    0.5427 C   0  0  0  0  0  0  0  0  0  0  0  0
   -4.0875   -0.8555    1.2138 C   0  0  0  0  0  0  0  0  0  0  0  0
   -2.7344   -0.7621    1.0247 C   0  0  0  0  0  0  0  0  0  0  0  0
   -2.2047    0.1870    0.1556 C   0  0  0  0  0  0  0  0  0  0  0  0
   -0.8432    0.2802   -0.0343 N   0  0  0  0  0  0  0  0  0  0  0  0
   -0.0719   -0.4701    0.5848 N   0  0  0  0  0  0  0  0  0  0  0  0
    1.2729   -0.3795    0.3981 C   0  0  0  0  0  0  0  0  0  0  0  0
    2.1499   -1.1202    1.0155 N   0  0  0  0  0  0  0  0  0  0  0  0
    3.4383   -0.8177    0.6365 C   0  0  0  0  0  0  0  0  0  0  0  0
    4.5977   -1.4413    1.1223 C   0  0  0  0  0  0  0  0  0  0  0  0
    5.8206   -1.0415    0.6547 C   0  0  0  0  0  0  0  0  0  0  0  0
    5.9282   -0.0257   -0.2957 C   0  0  0  0  0  0  0  0  0  0  0  0
    7.2431    0.3837   -0.7767 N   0  0  0  0  0  4  0  0  0  0  0  0
    8.2423   -0.1852   -0.3193 O   0  0  0  0  0  0  0  0  0  0  0  0
    7.3061    1.2839   -1.6236 O   0  0  0  0  0  1  0  0  0  0  0  0
    4.8007    0.5954   -0.7816 C   0  0  0  0  0  0  0  0  0  0  0  0
    3.5585    0.2015   -0.3172 C   0  0  0  0  0  0  0  0  0  0  0  0
    1.9764    0.7791   -0.7266 S   0  0  0  0  0  0  0  0  0  0  0  0
   -3.0770    1.0401   -0.5177 C   0  0  0  0  0  0  0  0  0  0  0  0
   -4.4317    0.9485   -0.3300 C   0  0  0  0  0  0  0  0  0  0  0  0
   -6.9441    1.7461    0.3884 H   0  0  0  0  0  0  0  0  0  0  0  0
   -8.2077    0.4980    0.3920 H   0  0  0  0  0  0  0  0  0  0  0  0
   -7.0680    0.5753   -0.9683 H   0  0  0  0  0  0  0  0  0  0  0  0
   -4.5002   -1.5881    1.8850 H   0  0  0  0  0  0  0  0  0  0  0  0
   -2.0564   -1.4180    1.5416 H   0  0  0  0  0  0  0  0  0  0  0  0
    4.5050   -2.2236    1.8545 H   0  0  0  0  0  0  0  0  0  0  0  0
    6.7258   -1.5039    1.0121 H   0  0  0  0  0  0  0  0  0  0  0  0
    4.8920    1.3779   -1.5137 H   0  0  0  0  0  0  0  0  0  0  0  0
   -2.6630    1.7725   -1.1881 H   0  0  0  0  0  0  0  0  0  0  0  0
   -5.0847    1.6165   -0.8613 H   0  0  0  0  0  0  0  0  0  0  0  0
  1  2  1  0  0  0  0
  2  3  1  0  0  0  0
  3  4  2  0  0  0  0
  4  5  1  0  0  0  0
  5  6  2  0  0  0  0
  6  7  1  0  0  0  0
  7  8  2  0  0  0  0
  8  9  1  0  0  0  0
  9 10  2  0  0  0  0
 10 11  1  0  0  0  0
 11 12  2  0  0  0  0
 12 13  1  0  0  0  0
 13 14  2  0  0  0  0
 14 15  1  0  0  0  0
 15 16  2  0  0  0  0
 15 17  1  0  0  0  0
 14 18  1  0  0  0  0
 18 19  2  0  0  0  0
 19 20  1  0  0  0  0
  6 21  1  0  0  0  0
 21 22  2  0  0  0  0
 22  3  1  0  0  0  0
 20  9  1  0  0  0  0
 19 11  1  0  0  0  0
  1 23  1  0  0  0  0
  1 24  1  0  0  0  0
  1 25  1  0  0  0  0
  4 26  1  0  0  0  0
  5 27  1  0  0  0  0
 12 28  1  0  0  0  0
 13 29  1  0  0  0  0
 18 30  1  0  0  0  0
 21 31  1  0  0  0  0
 22 32  1  0  0  0  0
M  CHG  1  15   1
M  CHG  1  17  -1
M  END
