
  xtb     03012221263D
 energy: -13.501334900546 gnorm: 0.000402203318 xtb: 6.4.1 (afa7bdf)
 70 75  0     0  0            999 V2000
   -4.4604    1.4975   -2.5508 C   0  0  0  0  0  0  0  0  0  0  0  0
   -5.2305    0.3267   -1.9635 C   0  0  0  0  0  0  0  0  0  0  0  0
   -4.3846   -0.5573   -1.0430 C   0  0  0  0  0  0  0  0  0  0  0  0
   -3.8405    0.1710    0.1793 C   0  0  0  0  0  0  0  0  0  0  0  0
   -3.2241   -0.7607    1.1401 N   0  0  0  0  0  0  0  0  0  0  0  0
   -3.9846   -1.7911    1.7185 C   0  0  0  0  0  0  0  0  0  0  0  0
   -5.3596   -1.8908    1.9589 C   0  0  0  0  0  0  0  0  0  0  0  0
   -5.8554   -3.0539    2.4903 C   0  0  0  0  0  0  0  0  0  0  0  0
   -5.0114   -4.1324    2.7831 C   0  0  0  0  0  0  0  0  0  0  0  0
   -3.6624   -4.0588    2.5449 C   0  0  0  0  0  0  0  0  0  0  0  0
   -3.1398   -2.8769    2.0075 C   0  0  0  0  0  0  0  0  0  0  0  0
   -1.8160   -2.5003    1.6039 C   0  0  0  0  0  0  0  0  0  0  0  0
   -0.6212   -3.2580    1.5806 C   0  0  0  0  0  0  0  0  0  0  0  0
    0.5230   -2.6923    1.1027 C   0  0  0  0  0  0  0  0  0  0  0  0
    0.5062   -1.3434    0.6758 C   0  0  0  0  0  0  0  0  0  0  0  0
    1.5948   -0.4898    0.2931 C   0  0  0  0  0  0  0  0  0  0  0  0
    2.9594   -0.7343    0.1320 C   0  0  0  0  0  0  0  0  0  0  0  0
    3.8132    0.3186   -0.1574 C   0  0  0  0  0  0  0  0  0  0  0  0
    5.2621    0.0841   -0.3295 C   0  0  0  0  0  0  0  0  0  0  0  0
    5.7339   -1.0692   -0.9583 C   0  0  0  0  0  0  0  0  0  0  0  0
    7.0794   -1.2947   -1.1166 C   0  0  0  0  0  0  0  0  0  0  0  0
    8.0214   -0.3729   -0.6498 C   0  0  0  0  0  0  0  0  0  0  0  0
    9.4074   -0.5224   -0.7664 O   0  0  0  0  0  0  0  0  0  0  0  0
    9.8211   -1.7088   -1.4004 C   0  0  0  0  0  0  0  0  0  0  0  0
    7.5463    0.7814   -0.0206 C   0  0  0  0  0  0  0  0  0  0  0  0
    6.2013    1.0052    0.1359 C   0  0  0  0  0  0  0  0  0  0  0  0
    3.2783    1.6239   -0.2706 C   0  0  0  0  0  0  0  0  0  0  0  0
    1.9431    1.8770   -0.1071 C   0  0  0  0  0  0  0  0  0  0  0  0
    1.0775    0.8117    0.1676 C   0  0  0  0  0  0  0  0  0  0  0  0
   -0.2995    0.7752    0.4271 N   0  0  0  0  0  0  0  0  0  0  0  0
   -1.0614    1.9789    0.7936 C   0  0  0  0  0  0  0  0  0  0  0  0
   -1.3940    2.8545   -0.4083 C   0  0  0  0  0  0  0  0  0  0  0  0
   -2.3156    4.0229   -0.0598 C   0  0  0  0  0  0  0  0  0  0  0  0
   -2.5984    4.9260   -1.2499 C   0  0  0  0  0  0  0  0  0  0  0  0
   -0.6614   -0.5566    0.7070 C   0  0  0  0  0  0  0  0  0  0  0  0
   -1.8771   -1.1768    1.1270 C   0  0  0  0  0  0  0  0  0  0  0  0
   -3.5670    1.1586   -3.0784 H   0  0  0  0  0  0  0  0  0  0  0  0
   -4.1365    2.1875   -1.7712 H   0  0  0  0  0  0  0  0  0  0  0  0
   -5.0628    2.0713   -3.2587 H   0  0  0  0  0  0  0  0  0  0  0  0
   -5.6502   -0.2837   -2.7755 H   0  0  0  0  0  0  0  0  0  0  0  0
   -6.1016    0.6971   -1.4067 H   0  0  0  0  0  0  0  0  0  0  0  0
   -4.9748   -1.4195   -0.7088 H   0  0  0  0  0  0  0  0  0  0  0  0
   -3.5476   -0.9896   -1.6043 H   0  0  0  0  0  0  0  0  0  0  0  0
   -4.6363    0.7175    0.6930 H   0  0  0  0  0  0  0  0  0  0  0  0
   -3.1028    0.9092   -0.1276 H   0  0  0  0  0  0  0  0  0  0  0  0
   -6.0040   -1.0604    1.7313 H   0  0  0  0  0  0  0  0  0  0  0  0
   -6.9118   -3.1414    2.6845 H   0  0  0  0  0  0  0  0  0  0  0  0
   -5.4303   -5.0346    3.1981 H   0  0  0  0  0  0  0  0  0  0  0  0
   -3.0091   -4.8860    2.7579 H   0  0  0  0  0  0  0  0  0  0  0  0
   -0.6342   -4.2756    1.9289 H   0  0  0  0  0  0  0  0  0  0  0  0
    1.4465   -3.2426    1.0794 H   0  0  0  0  0  0  0  0  0  0  0  0
    3.3430   -1.7290    0.2584 H   0  0  0  0  0  0  0  0  0  0  0  0
    5.0232   -1.7836   -1.3372 H   0  0  0  0  0  0  0  0  0  0  0  0
    7.4102   -2.1910   -1.6084 H   0  0  0  0  0  0  0  0  0  0  0  0
    9.4414   -1.7364   -2.4224 H   0  0  0  0  0  0  0  0  0  0  0  0
   10.9111   -1.7260   -1.4284 H   0  0  0  0  0  0  0  0  0  0  0  0
    9.4693   -2.5739   -0.8373 H   0  0  0  0  0  0  0  0  0  0  0  0
    8.2662    1.4926    0.3433 H   0  0  0  0  0  0  0  0  0  0  0  0
    5.8598    1.8929    0.6400 H   0  0  0  0  0  0  0  0  0  0  0  0
    3.9470    2.4345   -0.5009 H   0  0  0  0  0  0  0  0  0  0  0  0
    1.5585    2.8780   -0.1758 H   0  0  0  0  0  0  0  0  0  0  0  0
   -0.4724    2.5435    1.5228 H   0  0  0  0  0  0  0  0  0  0  0  0
   -1.9636    1.6747    1.3299 H   0  0  0  0  0  0  0  0  0  0  0  0
   -0.4701    3.2373   -0.8555 H   0  0  0  0  0  0  0  0  0  0  0  0
   -1.8416    2.2429   -1.1991 H   0  0  0  0  0  0  0  0  0  0  0  0
   -1.8670    4.6048    0.7565 H   0  0  0  0  0  0  0  0  0  0  0  0
   -3.2555    3.6338    0.3543 H   0  0  0  0  0  0  0  0  0  0  0  0
   -3.0688    4.3737   -2.0650 H   0  0  0  0  0  0  0  0  0  0  0  0
   -3.2617    5.7534   -0.9888 H   0  0  0  0  0  0  0  0  0  0  0  0
   -1.6769    5.3569   -1.6453 H   0  0  0  0  0  0  0  0  0  0  0  0
  1  2  1  0  0  0  0
  2  3  1  0  0  0  0
  3  4  1  0  0  0  0
  4  5  1  0  0  0  0
  5  6  1  0  0  0  0
  6  7  2  0  0  0  0
  7  8  1  0  0  0  0
  8  9  2  0  0  0  0
  9 10  1  0  0  0  0
 10 11  2  0  0  0  0
 11 12  1  0  0  0  0
 12 13  2  0  0  0  0
 13 14  1  0  0  0  0
 14 15  2  0  0  0  0
 15 16  1  0  0  0  0
 16 17  2  0  0  0  0
 17 18  1  0  0  0  0
 18 19  1  0  0  0  0
 19 20  2  0  0  0  0
 20 21  1  0  0  0  0
 21 22  2  0  0  0  0
 22 23  1  0  0  0  0
 23 24  1  0  0  0  0
 22 25  1  0  0  0  0
 25 26  2  0  0  0  0
 18 27  2  0  0  0  0
 27 28  1  0  0  0  0
 28 29  2  0  0  0  0
 29 30  1  0  0  0  0
 30 31  1  0  0  0  0
 31 32  1  0  0  0  0
 32 33  1  0  0  0  0
 33 34  1  0  0  0  0
 30 35  1  0  0  0  0
 35 36  2  0  0  0  0
 36  5  1  0  0  0  0
 11  6  1  0  0  0  0
 36 12  1  0  0  0  0
 35 15  1  0  0  0  0
 29 16  1  0  0  0  0
 26 19  1  0  0  0  0
  1 37  1  0  0  0  0
  1 38  1  0  0  0  0
  1 39  1  0  0  0  0
  2 40  1  0  0  0  0
  2 41  1  0  0  0  0
  3 42  1  0  0  0  0
  3 43  1  0  0  0  0
  4 44  1  0  0  0  0
  4 45  1  0  0  0  0
  7 46  1  0  0  0  0
  8 47  1  0  0  0  0
  9 48  1  0  0  0  0
 10 49  1  0  0  0  0
 13 50  1  0  0  0  0
 14 51  1  0  0  0  0
 17 52  1  0  0  0  0
 20 53  1  0  0  0  0
 21 54  1  0  0  0  0
 24 55  1  0  0  0  0
 24 56  1  0  0  0  0
 24 57  1  0  0  0  0
 25 58  1  0  0  0  0
 26 59  1  0  0  0  0
 27 60  1  0  0  0  0
 28 61  1  0  0  0  0
 31 62  1  0  0  0  0
 31 63  1  0  0  0  0
 32 64  1  0  0  0  0
 32 65  1  0  0  0  0
 33 66  1  0  0  0  0
 33 67  1  0  0  0  0
 34 68  1  0  0  0  0
 34 69  1  0  0  0  0
 34 70  1  0  0  0  0
M  END
