
  xtb     03012221333D
 energy: -6.693816025983 gnorm: 0.000273453146 xtb: 6.4.1 (afa7bdf)
 33 34  0     0  0            999 V2000
    4.9662    1.8427    0.4277 C   0  0  0  0  0  0  0  0  0  0  0  0
    3.9001    0.9424   -0.0693 C   0  0  0  0  0  0  0  0  0  0  0  0
    4.1208   -0.3906   -0.1880 C   0  0  0  0  0  0  0  0  0  0  0  0
    3.1020   -1.2509   -0.6380 C   0  0  0  0  0  0  0  0  0  0  0  0
    3.3729   -2.5770   -0.7560 O   0  0  0  0  0  0  0  0  0  0  0  0
    1.8453   -0.7098   -0.9348 C   0  0  0  0  0  0  0  0  0  0  0  0
    0.7498   -1.5997   -1.3353 C   0  0  0  0  0  0  0  0  0  0  0  0
    0.9861   -2.6999   -1.8100 O   0  0  0  0  0  0  0  0  0  0  0  0
   -0.6595   -1.2313   -1.1527 C   0  0  0  0  0  0  0  0  0  0  0  0
   -1.1237   -0.4935   -0.1361 C   0  0  0  0  0  0  0  0  0  0  0  0
   -2.5155   -0.1486    0.0884 C   0  0  0  0  0  0  0  0  0  0  0  0
   -3.4612   -0.2491   -0.9302 C   0  0  0  0  0  0  0  0  0  0  0  0
   -4.7718    0.1022   -0.7143 C   0  0  0  0  0  0  0  0  0  0  0  0
   -5.1766    0.5667    0.5177 C   0  0  0  0  0  0  0  0  0  0  0  0
   -4.2584    0.6759    1.5326 C   0  0  0  0  0  0  0  0  0  0  0  0
   -2.9396    0.3249    1.3374 C   0  0  0  0  0  0  0  0  0  0  0  0
   -2.0247    0.4545    2.4688 N   0  0  0  0  0  4  0  0  0  0  0  0
   -1.0548   -0.3117    2.5486 O   0  0  0  0  0  0  0  0  0  0  0  0
   -2.2629    1.3261    3.3171 O   0  0  0  0  0  1  0  0  0  0  0  0
    1.6764    0.7267   -0.8590 C   0  0  0  0  0  0  0  0  0  0  0  0
    0.6135    1.2249   -1.2120 O   0  0  0  0  0  0  0  0  0  0  0  0
    2.7093    1.5194   -0.4004 O   0  0  0  0  0  0  0  0  0  0  0  0
    5.2826    1.5562    1.4303 H   0  0  0  0  0  0  0  0  0  0  0  0
    4.5922    2.8655    0.4689 H   0  0  0  0  0  0  0  0  0  0  0  0
    5.8328    1.8233   -0.2325 H   0  0  0  0  0  0  0  0  0  0  0  0
    5.0738   -0.8140    0.0642 H   0  0  0  0  0  0  0  0  0  0  0  0
    2.5871   -3.0102   -1.1417 H   0  0  0  0  0  0  0  0  0  0  0  0
   -1.3505   -1.6874   -1.8380 H   0  0  0  0  0  0  0  0  0  0  0  0
   -0.4136   -0.1104    0.5784 H   0  0  0  0  0  0  0  0  0  0  0  0
   -3.1555   -0.5807   -1.9056 H   0  0  0  0  0  0  0  0  0  0  0  0
   -5.4882    0.0210   -1.5187 H   0  0  0  0  0  0  0  0  0  0  0  0
   -6.2032    0.8456    0.6828 H   0  0  0  0  0  0  0  0  0  0  0  0
   -4.5516    1.0463    2.5037 H   0  0  0  0  0  0  0  0  0  0  0  0
  1  2  1  0  0  0  0
  2  3  2  0  0  0  0
  3  4  1  0  0  0  0
  4  5  1  0  0  0  0
  4  6  2  0  0  0  0
  6  7  1  0  0  0  0
  7  8  2  0  0  0  0
  7  9  1  0  0  0  0
  9 10  2  0  0  0  0
 10 11  1  0  0  0  0
 11 12  2  0  0  0  0
 12 13  1  0  0  0  0
 13 14  2  0  0  0  0
 14 15  1  0  0  0  0
 15 16  2  0  0  0  0
 16 17  1  0  0  0  0
 17 18  2  0  0  0  0
 17 19  1  0  0  0  0
  6 20  1  0  0  0  0
 20 21  2  0  0  0  0
 20 22  1  0  0  0  0
 22  2  1  0  0  0  0
 16 11  1  0  0  0  0
  1 23  1  0  0  0  0
  1 24  1  0  0  0  0
  1 25  1  0  0  0  0
  3 26  1  0  0  0  0
  5 27  1  0  0  0  0
  9 28  1  0  0  0  0
 10 29  1  0  0  0  0
 12 30  1  0  0  0  0
 13 31  1  0  0  0  0
 14 32  1  0  0  0  0
 15 33  1  0  0  0  0
M  CHG  1  17   1
M  CHG  1  19  -1
M  END
