
  xtb     03012221273D
 energy: -6.808314624001 gnorm: 0.000448180346 xtb: 6.4.1 (afa7bdf)
 34 37  0     0  0            999 V2000
   -1.7180    0.9876    1.5127 O   0  0  0  0  0  0  0  0  0  0  0  0
   -1.7883    0.3566    0.4755 C   0  0  0  0  0  0  0  0  0  0  0  0
   -0.6487   -0.1021   -0.2952 C   0  0  0  0  0  0  0  0  0  0  0  0
    0.6487    0.1030    0.0163 C   0  0  0  0  0  0  0  0  0  0  0  0
    1.1907    0.9734    1.4275 S   0  0  0  0  0  0  0  0  0  0  0  0
    2.8947    0.7708    1.0628 C   0  0  0  0  0  0  0  0  0  0  0  0
    3.9974    1.2172    1.7674 C   0  0  0  0  0  0  0  0  0  0  0  0
    5.2571    0.9360    1.2842 C   0  0  0  0  0  0  0  0  0  0  0  0
    5.4135    0.2190    0.1124 C   0  0  0  0  0  0  0  0  0  0  0  0
    7.0576   -0.1223   -0.4884 S   0  0  0  0  0  6  0  0  0  0  0  0
    8.0006    0.0809    0.6540 O   0  0  0  0  0  0  0  0  0  0  0  0
    6.9611   -1.2901   -1.4163 O   0  0  0  0  0  0  0  0  0  0  0  0
    7.0311    1.5758   -1.5976 Cl  0  0  0  0  0  0  0  0  0  0  0  0
    4.3283   -0.2347   -0.5945 C   0  0  0  0  0  0  0  0  0  0  0  0
    3.0545    0.0457   -0.1178 C   0  0  0  0  0  0  0  0  0  0  0  0
    1.7880   -0.3565   -0.7544 C   0  0  0  0  0  0  0  0  0  0  0  0
    1.7175   -0.9888   -1.7908 O   0  0  0  0  0  0  0  0  0  0  0  0
   -1.1900   -0.9725   -1.7067 S   0  0  0  0  0  0  0  0  0  0  0  0
   -2.8941   -0.7695   -1.3430 C   0  0  0  0  0  0  0  0  0  0  0  0
   -3.9962   -1.2148   -2.0491 C   0  0  0  0  0  0  0  0  0  0  0  0
   -5.2562   -0.9345   -1.5663 C   0  0  0  0  0  0  0  0  0  0  0  0
   -5.4134   -0.2195   -0.3933 C   0  0  0  0  0  0  0  0  0  0  0  0
   -7.0581    0.1196    0.2069 S   0  0  0  0  0  6  0  0  0  0  0  0
   -6.9620    1.2882    1.1339 O   0  0  0  0  0  0  0  0  0  0  0  0
   -8.0025   -0.0798   -0.9349 O   0  0  0  0  0  0  0  0  0  0  0  0
   -7.0318   -1.5802    1.3132 Cl  0  0  0  0  0  0  0  0  0  0  0  0
   -4.3287    0.2335    0.3148 C   0  0  0  0  0  0  0  0  0  0  0  0
   -3.0545   -0.0457   -0.1617 C   0  0  0  0  0  0  0  0  0  0  0  0
    3.8603    1.7730    2.6801 H   0  0  0  0  0  0  0  0  0  0  0  0
    6.1382    1.2606    1.8172 H   0  0  0  0  0  0  0  0  0  0  0  0
    4.4545   -0.8092   -1.4991 H   0  0  0  0  0  0  0  0  0  0  0  0
   -3.8585   -1.7689   -2.9627 H   0  0  0  0  0  0  0  0  0  0  0  0
   -6.1369   -1.2585   -2.1003 H   0  0  0  0  0  0  0  0  0  0  0  0
   -4.4556    0.8068    1.2200 H   0  0  0  0  0  0  0  0  0  0  0  0
  1  2  2  0  0  0  0
  2  3  1  0  0  0  0
  3  4  2  0  0  0  0
  4  5  1  0  0  0  0
  5  6  1  0  0  0  0
  6  7  2  0  0  0  0
  7  8  1  0  0  0  0
  8  9  2  0  0  0  0
  9 10  1  0  0  0  0
 10 11  2  0  0  0  0
 10 12  2  0  0  0  0
 10 13  1  0  0  0  0
  9 14  1  0  0  0  0
 14 15  2  0  0  0  0
 15 16  1  0  0  0  0
 16 17  2  0  0  0  0
  3 18  1  0  0  0  0
 18 19  1  0  0  0  0
 19 20  2  0  0  0  0
 20 21  1  0  0  0  0
 21 22  2  0  0  0  0
 22 23  1  0  0  0  0
 23 24  2  0  0  0  0
 23 25  2  0  0  0  0
 23 26  1  0  0  0  0
 22 27  1  0  0  0  0
 27 28  2  0  0  0  0
 28  2  1  0  0  0  0
 16  4  1  0  0  0  0
 28 19  1  0  0  0  0
 15  6  1  0  0  0  0
  7 29  1  0  0  0  0
  8 30  1  0  0  0  0
 14 31  1  0  0  0  0
 20 32  1  0  0  0  0
 21 33  1  0  0  0  0
 27 34  1  0  0  0  0
M  END
