
  xtb     03012221223D
 energy: -7.583262605346 gnorm: 0.000116843351 xtb: 6.4.1 (afa7bdf)
 37 39  0     0  0            999 V2000
   -6.9954    1.8355    0.8076 C   0  0  0  0  0  0  0  0  0  0  0  0
   -5.8117    2.1435    0.1136 O   0  0  0  0  0  0  0  0  0  0  0  0
   -4.7175    1.3312    0.4236 C   0  0  0  0  0  0  0  0  0  0  0  0
   -4.7464    0.2650    1.3269 C   0  0  0  0  0  0  0  0  0  0  0  0
   -3.6206   -0.4812    1.5752 C   0  0  0  0  0  0  0  0  0  0  0  0
   -2.4169   -0.1973    0.9344 C   0  0  0  0  0  0  0  0  0  0  0  0
   -1.1852   -0.9689    1.1802 C   0  0  0  0  0  0  0  0  0  0  0  0
   -1.0867   -2.0158    2.0514 C   0  0  0  0  0  0  0  0  0  0  0  0
    0.5105   -2.6277    2.0507 S   0  0  0  0  0  0  0  0  0  0  0  0
    0.9731   -1.4247    0.8670 C   0  0  0  0  0  0  0  0  0  0  0  0
    2.3147   -1.3250    0.3529 C   0  0  0  0  0  0  0  0  0  0  0  0
    3.2493   -2.2578    0.8188 C   0  0  0  0  0  0  0  0  0  0  0  0
    3.9805   -3.0667    1.2221 N   0  0  0  0  0  0  0  0  0  0  0  0
    2.5923   -0.3964   -0.6031 C   0  0  0  0  0  0  0  0  0  0  0  0
    3.8866   -0.1334   -1.2085 C   0  0  0  0  0  0  0  0  0  0  0  0
    3.9754    0.1004   -2.5891 C   0  0  0  0  0  0  0  0  0  0  0  0
    5.1859    0.3253   -3.1941 C   0  0  0  0  0  0  0  0  0  0  0  0
    6.3533    0.3387   -2.4387 C   0  0  0  0  0  0  0  0  0  0  0  0
    7.8744    0.6149   -3.2000 Cl  0  0  0  0  0  0  0  0  0  0  0  0
    6.2918    0.1468   -1.0716 C   0  0  0  0  0  0  0  0  0  0  0  0
    5.0767   -0.0629   -0.4507 C   0  0  0  0  0  0  0  0  0  0  0  0
    5.0155   -0.0141    1.2680 Cl  0  0  0  0  0  0  0  0  0  0  0  0
   -0.0180   -0.6494    0.5179 N   0  0  0  0  0  0  0  0  0  0  0  0
   -2.3857    0.8614    0.0337 C   0  0  0  0  0  0  0  0  0  0  0  0
   -3.5079    1.6089   -0.2178 C   0  0  0  0  0  0  0  0  0  0  0  0
   -7.7687    2.5379    0.4951 H   0  0  0  0  0  0  0  0  0  0  0  0
   -7.3157    0.8224    0.5621 H   0  0  0  0  0  0  0  0  0  0  0  0
   -6.8331    1.9403    1.8809 H   0  0  0  0  0  0  0  0  0  0  0  0
   -5.6620    0.0238    1.8359 H   0  0  0  0  0  0  0  0  0  0  0  0
   -3.6674   -1.2963    2.2749 H   0  0  0  0  0  0  0  0  0  0  0  0
   -1.8773   -2.4113    2.6561 H   0  0  0  0  0  0  0  0  0  0  0  0
    1.7545    0.1664   -0.9785 H   0  0  0  0  0  0  0  0  0  0  0  0
    3.0751    0.0748   -3.1784 H   0  0  0  0  0  0  0  0  0  0  0  0
    5.2517    0.4875   -4.2563 H   0  0  0  0  0  0  0  0  0  0  0  0
    7.1921    0.1910   -0.4840 H   0  0  0  0  0  0  0  0  0  0  0  0
   -1.4580    1.0854   -0.4632 H   0  0  0  0  0  0  0  0  0  0  0  0
   -3.4789    2.4282   -0.9146 H   0  0  0  0  0  0  0  0  0  0  0  0
  1  2  1  0  0  0  0
  2  3  1  0  0  0  0
  3  4  2  0  0  0  0
  4  5  1  0  0  0  0
  5  6  2  0  0  0  0
  6  7  1  0  0  0  0
  7  8  2  0  0  0  0
  8  9  1  0  0  0  0
  9 10  1  0  0  0  0
 10 11  1  0  0  0  0
 11 12  1  0  0  0  0
 12 13  3  0  0  0  0
 11 14  2  0  0  0  0
 14 15  1  0  0  0  0
 15 16  2  0  0  0  0
 16 17  1  0  0  0  0
 17 18  2  0  0  0  0
 18 19  1  0  0  0  0
 18 20  1  0  0  0  0
 20 21  2  0  0  0  0
 21 22  1  0  0  0  0
 10 23  2  0  0  0  0
  6 24  1  0  0  0  0
 24 25  2  0  0  0  0
 25  3  1  0  0  0  0
 23  7  1  0  0  0  0
 21 15  1  0  0  0  0
  1 26  1  0  0  0  0
  1 27  1  0  0  0  0
  1 28  1  0  0  0  0
  4 29  1  0  0  0  0
  5 30  1  0  0  0  0
  8 31  1  0  0  0  0
 14 32  1  0  0  0  0
 16 33  1  0  0  0  0
 17 34  1  0  0  0  0
 20 35  1  0  0  0  0
 24 36  1  0  0  0  0
 25 37  1  0  0  0  0
M  END
