
  xtb     03022211563D
 energy: -20.829802253273 gnorm: 0.000248816832 xtb: 6.4.1 (afa7bdf)
105111  0     0  0            999 V2000
    1.0996   -0.8831   -5.5687 C   0  0  0  0  0  0  0  0  0  0  0  0
    0.0443   -1.2242   -4.5287 C   0  0  0  0  0  0  0  0  0  0  0  0
    0.4398   -0.7810   -3.1193 C   0  0  0  0  0  0  0  0  0  0  0  0
   -0.6121   -1.1371   -2.0712 C   0  0  0  0  0  0  0  0  0  0  0  0
   -0.3066   -0.6736   -0.6226 C   0  0  0  0  0  0  0  0  0  0  0  0
   -0.2492    0.8701   -0.5181 C   0  0  0  0  0  0  0  0  0  0  0  0
   -0.0345    1.3758    0.9077 C   0  0  0  0  0  0  0  0  0  0  0  0
    0.0348    2.9019    1.0109 C   0  0  0  0  0  0  0  0  0  0  0  0
    1.2520    3.4945    0.3174 C   0  0  0  0  0  0  0  0  0  0  0  0
   -1.3776   -1.2462    0.3116 C   0  0  0  0  0  0  0  0  0  0  0  0
   -2.7337   -1.0022    0.3615 C   0  0  0  0  0  0  0  0  0  0  0  0
   -3.5173   -1.6499    1.3159 C   0  0  0  0  0  0  0  0  0  0  0  0
   -4.9031   -1.4000    1.3865 C   0  0  0  0  0  0  0  0  0  0  0  0
   -6.1013   -1.1692    1.4479 C   0  0  0  0  0  0  0  0  0  0  0  0
   -7.4816   -0.8926    1.5205 C   0  0  0  0  0  0  0  0  0  0  0  0
   -8.3537   -1.7721    2.1545 C   0  0  0  0  0  0  0  0  0  0  0  0
   -9.7007   -1.5002    2.2273 C   0  0  0  0  0  0  0  0  0  0  0  0
  -10.2277   -0.3309    1.6762 C   0  0  0  0  0  0  0  0  0  0  0  0
  -11.6686   -0.0681    1.7566 C   0  0  0  0  0  0  0  0  0  0  0  0
  -12.2514    1.1075    2.0757 C   0  0  0  0  0  0  0  0  0  0  0  0
  -11.4386    2.3029    2.4362 C   0  0  0  0  0  0  0  0  0  0  0  0
  -13.7228    1.2315    2.0845 C   0  0  0  0  0  0  0  0  0  0  0  0
  -14.5401    0.1643    2.4640 C   0  0  0  0  0  0  0  0  0  0  0  0
  -15.9122    0.2910    2.4723 C   0  0  0  0  0  0  0  0  0  0  0  0
  -16.5008    1.4840    2.1039 C   0  0  0  0  0  0  0  0  0  0  0  0
  -15.7119    2.5528    1.7287 C   0  0  0  0  0  0  0  0  0  0  0  0
  -14.3395    2.4302    1.7199 C   0  0  0  0  0  0  0  0  0  0  0  0
   -9.3519    0.5406    1.0267 C   0  0  0  0  0  0  0  0  0  0  0  0
   -8.0055    0.2657    0.9548 C   0  0  0  0  0  0  0  0  0  0  0  0
   -2.9106   -2.5411    2.2049 C   0  0  0  0  0  0  0  0  0  0  0  0
   -1.5551   -2.7901    2.1606 C   0  0  0  0  0  0  0  0  0  0  0  0
   -0.7849   -2.1388    1.2069 C   0  0  0  0  0  0  0  0  0  0  0  0
    0.6625   -2.1740    0.9673 C   0  0  0  0  0  0  0  0  0  0  0  0
    1.6652   -2.8483    1.6507 C   0  0  0  0  0  0  0  0  0  0  0  0
    2.9780   -2.6359    1.2874 C   0  0  0  0  0  0  0  0  0  0  0  0
    3.3141   -1.7502    0.2607 C   0  0  0  0  0  0  0  0  0  0  0  0
    4.6642   -1.5135   -0.0694 C   0  0  0  0  0  0  0  0  0  0  0  0
    5.8325   -1.2824   -0.3425 C   0  0  0  0  0  0  0  0  0  0  0  0
    7.1792   -0.9899   -0.6386 C   0  0  0  0  0  0  0  0  0  0  0  0
    8.0205   -1.9572   -1.1798 C   0  0  0  0  0  0  0  0  0  0  0  0
    9.3365   -1.6698   -1.4615 C   0  0  0  0  0  0  0  0  0  0  0  0
    9.8657   -0.4040   -1.2035 C   0  0  0  0  0  0  0  0  0  0  0  0
   11.2694   -0.1162   -1.5182 C   0  0  0  0  0  0  0  0  0  0  0  0
   12.1477    0.5335   -0.7244 C   0  0  0  0  0  0  0  0  0  0  0  0
   11.7608    1.0034    0.6355 C   0  0  0  0  0  0  0  0  0  0  0  0
   13.5264    0.7874   -1.1881 C   0  0  0  0  0  0  0  0  0  0  0  0
   14.2050    1.9463   -0.8053 C   0  0  0  0  0  0  0  0  0  0  0  0
   15.4926    2.1880   -1.2325 C   0  0  0  0  0  0  0  0  0  0  0  0
   16.1339    1.2785   -2.0491 C   0  0  0  0  0  0  0  0  0  0  0  0
   15.4835    0.1240   -2.4362 C   0  0  0  0  0  0  0  0  0  0  0  0
   14.1956   -0.1208   -2.0116 C   0  0  0  0  0  0  0  0  0  0  0  0
    9.0139    0.5682   -0.6769 C   0  0  0  0  0  0  0  0  0  0  0  0
    7.6983    0.2783   -0.3970 C   0  0  0  0  0  0  0  0  0  0  0  0
    2.2982   -1.0814   -0.4208 C   0  0  0  0  0  0  0  0  0  0  0  0
    0.9800   -1.3061   -0.0813 C   0  0  0  0  0  0  0  0  0  0  0  0
    2.0524   -1.3627   -5.3361 H   0  0  0  0  0  0  0  0  0  0  0  0
    0.8070   -1.2031   -6.5714 H   0  0  0  0  0  0  0  0  0  0  0  0
    1.2825    0.1924   -5.6077 H   0  0  0  0  0  0  0  0  0  0  0  0
   -0.9155   -0.7637   -4.7980 H   0  0  0  0  0  0  0  0  0  0  0  0
   -0.1503   -2.3048   -4.5276 H   0  0  0  0  0  0  0  0  0  0  0  0
    0.6248    0.2992   -3.1170 H   0  0  0  0  0  0  0  0  0  0  0  0
    1.3983   -1.2411   -2.8541 H   0  0  0  0  0  0  0  0  0  0  0  0
   -0.7559   -2.2231   -2.0587 H   0  0  0  0  0  0  0  0  0  0  0  0
   -1.5799   -0.7210   -2.3705 H   0  0  0  0  0  0  0  0  0  0  0  0
   -1.1749    1.2905   -0.9246 H   0  0  0  0  0  0  0  0  0  0  0  0
    0.5535    1.2375   -1.1632 H   0  0  0  0  0  0  0  0  0  0  0  0
    0.8869    0.9403    1.3131 H   0  0  0  0  0  0  0  0  0  0  0  0
   -0.8376    0.9899    1.5488 H   0  0  0  0  0  0  0  0  0  0  0  0
   -0.8833    3.3342    0.5919 H   0  0  0  0  0  0  0  0  0  0  0  0
    0.0341    3.2001    2.0687 H   0  0  0  0  0  0  0  0  0  0  0  0
    1.2385    3.2998   -0.7562 H   0  0  0  0  0  0  0  0  0  0  0  0
    1.3106    4.5777    0.4478 H   0  0  0  0  0  0  0  0  0  0  0  0
    2.1764    3.0669    0.7105 H   0  0  0  0  0  0  0  0  0  0  0  0
   -3.1855   -0.3123   -0.3281 H   0  0  0  0  0  0  0  0  0  0  0  0
   -7.9571   -2.6735    2.5901 H   0  0  0  0  0  0  0  0  0  0  0  0
  -10.3653   -2.1877    2.7218 H   0  0  0  0  0  0  0  0  0  0  0  0
  -12.3115   -0.9040    1.5409 H   0  0  0  0  0  0  0  0  0  0  0  0
  -10.4965    2.0148    2.9046 H   0  0  0  0  0  0  0  0  0  0  0  0
  -11.9722    2.9357    3.1471 H   0  0  0  0  0  0  0  0  0  0  0  0
  -11.2133    2.9058    1.5556 H   0  0  0  0  0  0  0  0  0  0  0  0
  -14.0877   -0.7611    2.7760 H   0  0  0  0  0  0  0  0  0  0  0  0
  -16.5275   -0.5422    2.7708 H   0  0  0  0  0  0  0  0  0  0  0  0
  -17.5744    1.5816    2.1111 H   0  0  0  0  0  0  0  0  0  0  0  0
  -16.1707    3.4848    1.4411 H   0  0  0  0  0  0  0  0  0  0  0  0
  -13.7288    3.2632    1.4167 H   0  0  0  0  0  0  0  0  0  0  0  0
   -9.7448    1.4248    0.5563 H   0  0  0  0  0  0  0  0  0  0  0  0
   -7.3386    0.9460    0.4527 H   0  0  0  0  0  0  0  0  0  0  0  0
   -3.5244   -3.0345    2.9393 H   0  0  0  0  0  0  0  0  0  0  0  0
   -1.0908   -3.4698    2.8525 H   0  0  0  0  0  0  0  0  0  0  0  0
    1.4115   -3.5107    2.4590 H   0  0  0  0  0  0  0  0  0  0  0  0
    3.7704   -3.1447    1.8099 H   0  0  0  0  0  0  0  0  0  0  0  0
    7.6253   -2.9397   -1.3747 H   0  0  0  0  0  0  0  0  0  0  0  0
    9.9786   -2.4270   -1.8777 H   0  0  0  0  0  0  0  0  0  0  0  0
   11.6187   -0.4629   -2.4755 H   0  0  0  0  0  0  0  0  0  0  0  0
   11.3756    2.0234    0.6048 H   0  0  0  0  0  0  0  0  0  0  0  0
   10.9952    0.3614    1.0733 H   0  0  0  0  0  0  0  0  0  0  0  0
   12.6182    0.9895    1.3101 H   0  0  0  0  0  0  0  0  0  0  0  0
   13.7049    2.6637   -0.1776 H   0  0  0  0  0  0  0  0  0  0  0  0
   15.9997    3.0897   -0.9297 H   0  0  0  0  0  0  0  0  0  0  0  0
   17.1414    1.4684   -2.3822 H   0  0  0  0  0  0  0  0  0  0  0  0
   15.9860   -0.5892   -3.0692 H   0  0  0  0  0  0  0  0  0  0  0  0
   13.7041   -1.0347   -2.2972 H   0  0  0  0  0  0  0  0  0  0  0  0
    9.3914    1.5620   -0.5115 H   0  0  0  0  0  0  0  0  0  0  0  0
    7.0506    1.0353    0.0119 H   0  0  0  0  0  0  0  0  0  0  0  0
    2.5500   -0.3712   -1.1873 H   0  0  0  0  0  0  0  0  0  0  0  0
  1  2  1  0  0  0  0
  1 56  1  0  0  0  0
  1 57  1  0  0  0  0
  1 58  1  0  0  0  0
  2  3  1  0  0  0  0
  2 59  1  0  0  0  0
  2 60  1  0  0  0  0
  3  4  1  0  0  0  0
  3 61  1  0  0  0  0
  3 62  1  0  0  0  0
  4  5  1  0  0  0  0
  4 63  1  0  0  0  0
  4 64  1  0  0  0  0
  5  6  1  0  0  0  0
  5 10  1  0  0  0  0
  6  7  1  0  0  0  0
  6 65  1  0  0  0  0
  6 66  1  0  0  0  0
  7  8  1  0  0  0  0
  7 67  1  0  0  0  0
  7 68  1  0  0  0  0
  8  9  1  0  0  0  0
  8 69  1  0  0  0  0
  8 70  1  0  0  0  0
  9 71  1  0  0  0  0
  9 72  1  0  0  0  0
  9 73  1  0  0  0  0
 10 11  2  0  0  0  0
 11 12  1  0  0  0  0
 11 74  1  0  0  0  0
 12 13  1  0  0  0  0
 12 30  2  0  0  0  0
 13 14  3  0  0  0  0
 14 15  1  0  0  0  0
 15 16  2  0  0  0  0
 16 17  1  0  0  0  0
 16 75  1  0  0  0  0
 17 18  2  0  0  0  0
 17 76  1  0  0  0  0
 18 19  1  0  0  0  0
 18 28  1  0  0  0  0
 19 20  2  0  0  0  0
 19 77  1  0  0  0  0
 20 21  1  0  0  0  0
 20 22  1  0  0  0  0
 21 78  1  0  0  0  0
 21 79  1  0  0  0  0
 21 80  1  0  0  0  0
 22 23  2  0  0  0  0
 23 24  1  0  0  0  0
 23 81  1  0  0  0  0
 24 25  2  0  0  0  0
 24 82  1  0  0  0  0
 25 26  1  0  0  0  0
 25 83  1  0  0  0  0
 26 27  2  0  0  0  0
 26 84  1  0  0  0  0
 27 22  1  0  0  0  0
 27 85  1  0  0  0  0
 28 29  2  0  0  0  0
 28 86  1  0  0  0  0
 29 15  1  0  0  0  0
 29 87  1  0  0  0  0
 30 31  1  0  0  0  0
 30 88  1  0  0  0  0
 31 32  2  0  0  0  0
 31 89  1  0  0  0  0
 32 33  1  0  0  0  0
 32 10  1  0  0  0  0
 33 34  2  0  0  0  0
 34 35  1  0  0  0  0
 34 90  1  0  0  0  0
 35 36  2  0  0  0  0
 35 91  1  0  0  0  0
 36 37  1  0  0  0  0
 36 54  1  0  0  0  0
 37 38  3  0  0  0  0
 38 39  1  0  0  0  0
 39 40  2  0  0  0  0
 40 41  1  0  0  0  0
 40 92  1  0  0  0  0
 41 42  2  0  0  0  0
 41 93  1  0  0  0  0
 42 43  1  0  0  0  0
 42 52  1  0  0  0  0
 43 44  2  0  0  0  0
 43 94  1  0  0  0  0
 44 45  1  0  0  0  0
 44 46  1  0  0  0  0
 45 95  1  0  0  0  0
 45 96  1  0  0  0  0
 45 97  1  0  0  0  0
 46 47  2  0  0  0  0
 47 48  1  0  0  0  0
 47 98  1  0  0  0  0
 48 49  2  0  0  0  0
 48 99  1  0  0  0  0
 49 50  1  0  0  0  0
 49100  1  0  0  0  0
 50 51  2  0  0  0  0
 50101  1  0  0  0  0
 51 46  1  0  0  0  0
 51102  1  0  0  0  0
 52 53  2  0  0  0  0
 52103  1  0  0  0  0
 53 39  1  0  0  0  0
 53104  1  0  0  0  0
 54 55  2  0  0  0  0
 54105  1  0  0  0  0
 55  5  1  0  0  0  0
 55 33  1  0  0  0  0
M  END
