
  xtb     03012221213D
 energy: -16.792956144218 gnorm: 0.000209318366 xtb: 6.4.1 (afa7bdf)
 92 96  0     0  0            999 V2000
    9.6548    2.0169    2.8587 C   0  0  0  0  0  0  0  0  0  0  0  0
    8.1541    2.2178    2.8751 C   0  0  0  0  0  0  0  0  0  0  0  0
    7.4923    1.3744    1.9642 O   0  0  0  0  0  0  0  0  0  0  0  0
    6.1495    1.6049    2.0244 C   0  0  0  0  0  0  0  0  0  0  0  0
    5.6238    2.4206    2.7505 O   0  0  0  0  0  0  0  0  0  0  0  0
    5.2946    0.7840    1.1035 C   0  0  0  0  0  0  0  0  0  0  0  0
    4.5682    1.6624    0.0922 C   0  0  0  0  0  0  0  0  0  0  0  0
    3.6490    0.8813   -0.8450 C   0  0  0  0  0  0  0  0  0  0  0  0
    4.3956   -0.0468   -1.7965 C   0  0  0  0  0  0  0  0  0  0  0  0
    3.4662   -0.8790   -2.6714 C   0  0  0  0  0  0  0  0  0  0  0  0
    2.5830   -1.7484   -1.8701 N   0  0  0  0  0  0  0  0  0  0  0  0
    3.0974   -2.9674   -1.3664 C   0  0  0  0  0  0  0  0  0  0  0  0
    4.4101   -3.3834   -1.6113 C   0  0  0  0  0  0  0  0  0  0  0  0
    4.8918   -4.5656   -1.1144 C   0  0  0  0  0  0  0  0  0  0  0  0
    4.0846   -5.4089   -0.3388 C   0  0  0  0  0  0  0  0  0  0  0  0
    4.4943   -6.6334    0.2076 O   0  0  0  0  0  0  0  0  0  0  0  0
    5.8233   -6.9936   -0.0769 C   0  0  0  0  0  0  0  0  0  0  0  0
    2.7817   -4.9997   -0.0930 C   0  0  0  0  0  0  0  0  0  0  0  0
    2.2819   -3.8053   -0.5883 C   0  0  0  0  0  0  0  0  0  0  0  0
    0.9100   -3.4337   -0.2848 C   0  0  0  0  0  0  0  0  0  0  0  0
    0.1878   -4.1541    0.3909 O   0  0  0  0  0  0  0  0  0  0  0  0
    0.4239   -2.1676   -0.8033 C   0  0  0  0  0  0  0  0  0  0  0  0
   -0.8715   -1.7812   -0.5076 C   0  0  0  0  0  0  0  0  0  0  0  0
   -1.3943   -0.5708   -0.9416 C   0  0  0  0  0  0  0  0  0  0  0  0
   -0.5506    0.2713   -1.6936 C   0  0  0  0  0  0  0  0  0  0  0  0
    0.7374   -0.1253   -2.0073 C   0  0  0  0  0  0  0  0  0  0  0  0
    1.2618   -1.3391   -1.5794 C   0  0  0  0  0  0  0  0  0  0  0  0
   -1.0115    1.5788   -2.1281 C   0  0  0  0  0  0  0  0  0  0  0  0
   -0.2834    2.3168   -2.7783 O   0  0  0  0  0  0  0  0  0  0  0  0
   -2.3553    1.9838   -1.7451 C   0  0  0  0  0  0  0  0  0  0  0  0
   -2.8060    3.2453   -2.1065 C   0  0  0  0  0  0  0  0  0  0  0  0
   -4.0696    3.6973   -1.7511 C   0  0  0  0  0  0  0  0  0  0  0  0
   -4.5917    4.9562   -2.0784 O   0  0  0  0  0  0  0  0  0  0  0  0
   -3.7231    5.7775   -2.8192 C   0  0  0  0  0  0  0  0  0  0  0  0
   -4.8795    2.8297   -1.0085 C   0  0  0  0  0  0  0  0  0  0  0  0
   -4.4509    1.5810   -0.6504 C   0  0  0  0  0  0  0  0  0  0  0  0
   -3.1819    1.1187   -1.0081 C   0  0  0  0  0  0  0  0  0  0  0  0
   -2.7137   -0.1674   -0.6494 N   0  0  0  0  0  0  0  0  0  0  0  0
   -3.6097   -1.0947    0.0644 C   0  0  0  0  0  0  0  0  0  0  0  0
   -3.4843   -0.9502    1.5766 C   0  0  0  0  0  0  0  0  0  0  0  0
   -4.5777   -1.6763    2.3606 C   0  0  0  0  0  0  0  0  0  0  0  0
   -5.9840   -1.1414    2.0902 C   0  0  0  0  0  0  0  0  0  0  0  0
   -6.1867    0.3080    2.5306 C   0  0  0  0  0  0  0  0  0  0  0  0
   -7.3998    0.9050    1.8795 C   0  0  0  0  0  0  0  0  0  0  0  0
   -8.4694    0.8731    2.4482 O   0  0  0  0  0  0  0  0  0  0  0  0
   -7.1898    1.4244    0.6349 O   0  0  0  0  0  0  0  0  0  0  0  0
   -8.3983    1.9192    0.1045 C   0  0  0  0  0  0  0  0  0  0  0  0
   -8.8460    3.2034    0.7700 C   0  0  0  0  0  0  0  0  0  0  0  0
   10.1657    2.6709    3.5672 H   0  0  0  0  0  0  0  0  0  0  0  0
   10.0570    2.2140    1.8650 H   0  0  0  0  0  0  0  0  0  0  0  0
    9.9060    0.9860    3.1084 H   0  0  0  0  0  0  0  0  0  0  0  0
    7.7275    2.0157    3.8676 H   0  0  0  0  0  0  0  0  0  0  0  0
    7.8793    3.2499    2.6159 H   0  0  0  0  0  0  0  0  0  0  0  0
    4.5747    0.2164    1.7003 H   0  0  0  0  0  0  0  0  0  0  0  0
    5.9277    0.0482    0.6008 H   0  0  0  0  0  0  0  0  0  0  0  0
    3.9966    2.4227    0.6400 H   0  0  0  0  0  0  0  0  0  0  0  0
    5.3036    2.2248   -0.4944 H   0  0  0  0  0  0  0  0  0  0  0  0
    3.0318    1.5772   -1.4297 H   0  0  0  0  0  0  0  0  0  0  0  0
    2.9377    0.2943   -0.2493 H   0  0  0  0  0  0  0  0  0  0  0  0
    5.0825    0.5402   -2.4172 H   0  0  0  0  0  0  0  0  0  0  0  0
    5.0323   -0.7190   -1.2135 H   0  0  0  0  0  0  0  0  0  0  0  0
    4.0276   -1.5057   -3.3683 H   0  0  0  0  0  0  0  0  0  0  0  0
    2.8647   -0.2372   -3.3148 H   0  0  0  0  0  0  0  0  0  0  0  0
    5.0627   -2.7665   -2.1997 H   0  0  0  0  0  0  0  0  0  0  0  0
    5.9074   -4.8519   -1.3237 H   0  0  0  0  0  0  0  0  0  0  0  0
    6.0266   -7.9555    0.3947 H   0  0  0  0  0  0  0  0  0  0  0  0
    5.9577   -7.0907   -1.1546 H   0  0  0  0  0  0  0  0  0  0  0  0
    6.5046   -6.2466    0.3316 H   0  0  0  0  0  0  0  0  0  0  0  0
    2.1400   -5.6271    0.5003 H   0  0  0  0  0  0  0  0  0  0  0  0
   -1.4568   -2.4494    0.0934 H   0  0  0  0  0  0  0  0  0  0  0  0
    1.3237    0.5605   -2.5854 H   0  0  0  0  0  0  0  0  0  0  0  0
   -2.1390    3.8706   -2.6712 H   0  0  0  0  0  0  0  0  0  0  0  0
   -2.8170    5.9707   -2.2437 H   0  0  0  0  0  0  0  0  0  0  0  0
   -4.2278    6.7237   -3.0166 H   0  0  0  0  0  0  0  0  0  0  0  0
   -3.4815    5.2983   -3.7686 H   0  0  0  0  0  0  0  0  0  0  0  0
   -5.8579    3.1721   -0.7193 H   0  0  0  0  0  0  0  0  0  0  0  0
   -5.1117    0.9604   -0.0767 H   0  0  0  0  0  0  0  0  0  0  0  0
   -3.4054   -2.1193   -0.2528 H   0  0  0  0  0  0  0  0  0  0  0  0
   -4.6297   -0.9108   -0.2721 H   0  0  0  0  0  0  0  0  0  0  0  0
   -3.4876    0.1144    1.8293 H   0  0  0  0  0  0  0  0  0  0  0  0
   -2.4943   -1.3012    1.8908 H   0  0  0  0  0  0  0  0  0  0  0  0
   -4.5335   -2.7480    2.1221 H   0  0  0  0  0  0  0  0  0  0  0  0
   -4.3717   -1.6097    3.4377 H   0  0  0  0  0  0  0  0  0  0  0  0
   -6.7392   -1.7729    2.5751 H   0  0  0  0  0  0  0  0  0  0  0  0
   -6.2079   -1.2205    1.0210 H   0  0  0  0  0  0  0  0  0  0  0  0
   -5.3237    0.9236    2.2673 H   0  0  0  0  0  0  0  0  0  0  0  0
   -6.2853    0.3757    3.6180 H   0  0  0  0  0  0  0  0  0  0  0  0
   -8.2433    2.0588   -0.9737 H   0  0  0  0  0  0  0  0  0  0  0  0
   -9.1490    1.1246    0.2192 H   0  0  0  0  0  0  0  0  0  0  0  0
   -8.0845    3.9769    0.6699 H   0  0  0  0  0  0  0  0  0  0  0  0
   -9.0022    3.0379    1.8367 H   0  0  0  0  0  0  0  0  0  0  0  0
   -9.7767    3.5846    0.3471 H   0  0  0  0  0  0  0  0  0  0  0  0
  1  2  1  0  0  0  0
  2  3  1  0  0  0  0
  3  4  1  0  0  0  0
  4  5  2  0  0  0  0
  4  6  1  0  0  0  0
  6  7  1  0  0  0  0
  7  8  1  0  0  0  0
  8  9  1  0  0  0  0
  9 10  1  0  0  0  0
 10 11  1  0  0  0  0
 11 12  1  0  0  0  0
 12 13  2  0  0  0  0
 13 14  1  0  0  0  0
 14 15  2  0  0  0  0
 15 16  1  0  0  0  0
 16 17  1  0  0  0  0
 15 18  1  0  0  0  0
 18 19  2  0  0  0  0
 19 20  1  0  0  0  0
 20 21  2  0  0  0  0
 20 22  1  0  0  0  0
 22 23  2  0  0  0  0
 23 24  1  0  0  0  0
 24 25  2  0  0  0  0
 25 26  1  0  0  0  0
 26 27  2  0  0  0  0
 25 28  1  0  0  0  0
 28 29  2  0  0  0  0
 28 30  1  0  0  0  0
 30 31  2  0  0  0  0
 31 32  1  0  0  0  0
 32 33  1  0  0  0  0
 33 34  1  0  0  0  0
 32 35  2  0  0  0  0
 35 36  1  0  0  0  0
 36 37  2  0  0  0  0
 37 38  1  0  0  0  0
 38 39  1  0  0  0  0
 39 40  1  0  0  0  0
 40 41  1  0  0  0  0
 41 42  1  0  0  0  0
 42 43  1  0  0  0  0
 43 44  1  0  0  0  0
 44 45  2  0  0  0  0
 44 46  1  0  0  0  0
 46 47  1  0  0  0  0
 47 48  1  0  0  0  0
 27 11  1  0  0  0  0
 37 30  1  0  0  0  0
 19 12  1  0  0  0  0
 27 22  1  0  0  0  0
 38 24  1  0  0  0  0
  1 49  1  0  0  0  0
  1 50  1  0  0  0  0
  1 51  1  0  0  0  0
  2 52  1  0  0  0  0
  2 53  1  0  0  0  0
  6 54  1  0  0  0  0
  6 55  1  0  0  0  0
  7 56  1  0  0  0  0
  7 57  1  0  0  0  0
  8 58  1  0  0  0  0
  8 59  1  0  0  0  0
  9 60  1  0  0  0  0
  9 61  1  0  0  0  0
 10 62  1  0  0  0  0
 10 63  1  0  0  0  0
 13 64  1  0  0  0  0
 14 65  1  0  0  0  0
 17 66  1  0  0  0  0
 17 67  1  0  0  0  0
 17 68  1  0  0  0  0
 18 69  1  0  0  0  0
 23 70  1  0  0  0  0
 26 71  1  0  0  0  0
 31 72  1  0  0  0  0
 34 73  1  0  0  0  0
 34 74  1  0  0  0  0
 34 75  1  0  0  0  0
 35 76  1  0  0  0  0
 36 77  1  0  0  0  0
 39 78  1  0  0  0  0
 39 79  1  0  0  0  0
 40 80  1  0  0  0  0
 40 81  1  0  0  0  0
 41 82  1  0  0  0  0
 41 83  1  0  0  0  0
 42 84  1  0  0  0  0
 42 85  1  0  0  0  0
 43 86  1  0  0  0  0
 43 87  1  0  0  0  0
 47 88  1  0  0  0  0
 47 89  1  0  0  0  0
 48 90  1  0  0  0  0
 48 91  1  0  0  0  0
 48 92  1  0  0  0  0
M  END
