
  xtb     03012221213D
 energy: -7.104378199922 gnorm: 0.000447698949 xtb: 6.4.1 (afa7bdf)
 36 38  0     0  0            999 V2000
   -5.9868    0.9606   -0.0321 C   0  0  0  0  0  0  0  0  0  0  0  0
   -5.1928   -0.1933    0.3909 N   0  0  0  0  0  0  0  0  0  0  0  0
   -5.9301   -1.3649    0.8645 C   0  0  0  0  0  0  0  0  0  0  0  0
   -3.7894   -0.1780    0.3404 C   0  0  0  0  0  0  0  0  0  0  0  0
   -3.0962    0.9178   -0.1871 C   0  0  0  0  0  0  0  0  0  0  0  0
   -1.7258    0.9349   -0.2361 C   0  0  0  0  0  0  0  0  0  0  0  0
   -0.9735   -0.1447    0.2407 C   0  0  0  0  0  0  0  0  0  0  0  0
    0.4707   -0.1630    0.2045 C   0  0  0  0  0  0  0  0  0  0  0  0
    1.2644    0.8199   -0.2628 C   0  0  0  0  0  0  0  0  0  0  0  0
    2.6831    0.7083   -0.2604 C   0  0  0  0  0  0  0  0  0  0  0  0
    3.3259   -0.3376    0.1835 N   0  0  0  0  0  0  0  0  0  0  0  0
    4.6941   -0.1829    0.0664 C   0  0  0  0  0  0  0  0  0  0  0  0
    5.6560   -1.1280    0.4517 C   0  0  0  0  0  0  0  0  0  0  0  0
    6.9876   -0.8468    0.2783 C   0  0  0  0  0  0  0  0  0  0  0  0
    7.3948    0.3661   -0.2756 C   0  0  0  0  0  0  0  0  0  0  0  0
    6.4673    1.3050   -0.6594 C   0  0  0  0  0  0  0  0  0  0  0  0
    5.1174    1.0326   -0.4896 C   0  0  0  0  0  0  0  0  0  0  0  0
    3.7259    2.0005   -0.8705 S   0  0  0  0  0  0  0  0  0  0  0  0
   -1.6659   -1.2407    0.7676 C   0  0  0  0  0  0  0  0  0  0  0  0
   -3.0360   -1.2575    0.8162 C   0  0  0  0  0  0  0  0  0  0  0  0
   -5.6654    1.8517    0.5033 H   0  0  0  0  0  0  0  0  0  0  0  0
   -5.8667    1.1238   -1.1013 H   0  0  0  0  0  0  0  0  0  0  0  0
   -7.0439    0.8074    0.1743 H   0  0  0  0  0  0  0  0  0  0  0  0
   -7.0019   -1.2355    0.7300 H   0  0  0  0  0  0  0  0  0  0  0  0
   -5.7343   -1.5261    1.9228 H   0  0  0  0  0  0  0  0  0  0  0  0
   -5.6257   -2.2482    0.3064 H   0  0  0  0  0  0  0  0  0  0  0  0
   -3.6505    1.7578   -0.5660 H   0  0  0  0  0  0  0  0  0  0  0  0
   -1.2227    1.7906   -0.6494 H   0  0  0  0  0  0  0  0  0  0  0  0
    0.9562   -1.0438    0.5857 H   0  0  0  0  0  0  0  0  0  0  0  0
    0.8378    1.7242   -0.6540 H   0  0  0  0  0  0  0  0  0  0  0  0
    5.3314   -2.0605    0.8778 H   0  0  0  0  0  0  0  0  0  0  0  0
    7.7285   -1.5717    0.5734 H   0  0  0  0  0  0  0  0  0  0  0  0
    8.4454    0.5681   -0.4036 H   0  0  0  0  0  0  0  0  0  0  0  0
    6.7683    2.2451   -1.0884 H   0  0  0  0  0  0  0  0  0  0  0  0
   -1.1046   -2.0808    1.1395 H   0  0  0  0  0  0  0  0  0  0  0  0
   -3.5421   -2.1106    1.2313 H   0  0  0  0  0  0  0  0  0  0  0  0
  1  2  1  0  0  0  0
  2  3  1  0  0  0  0
  2  4  1  0  0  0  0
  4  5  2  0  0  0  0
  5  6  1  0  0  0  0
  6  7  2  0  0  0  0
  7  8  1  0  0  0  0
  8  9  2  0  0  0  0
  9 10  1  0  0  0  0
 10 11  2  0  0  0  0
 11 12  1  0  0  0  0
 12 13  2  0  0  0  0
 13 14  1  0  0  0  0
 14 15  2  0  0  0  0
 15 16  1  0  0  0  0
 16 17  2  0  0  0  0
 17 18  1  0  0  0  0
  7 19  1  0  0  0  0
 19 20  2  0  0  0  0
 20  4  1  0  0  0  0
 18 10  1  0  0  0  0
 17 12  1  0  0  0  0
  1 21  1  0  0  0  0
  1 22  1  0  0  0  0
  1 23  1  0  0  0  0
  3 24  1  0  0  0  0
  3 25  1  0  0  0  0
  3 26  1  0  0  0  0
  5 27  1  0  0  0  0
  6 28  1  0  0  0  0
  8 29  1  0  0  0  0
  9 30  1  0  0  0  0
 13 31  1  0  0  0  0
 14 32  1  0  0  0  0
 15 33  1  0  0  0  0
 16 34  1  0  0  0  0
 19 35  1  0  0  0  0
 20 36  1  0  0  0  0
M  END
