
  xtb     03012221233D
 energy: -8.886650129858 gnorm: 0.000260475469 xtb: 6.4.1 (afa7bdf)
 42 46  0     0  0            999 V2000
   -4.9447   -2.4514    1.4932 C   0  0  0  0  0  0  0  0  0  0  0  0
   -4.2885   -3.0764    0.4517 C   0  0  0  0  0  0  0  0  0  0  0  0
   -2.9952   -2.7222    0.1345 C   0  0  0  0  0  0  0  0  0  0  0  0
   -2.3291   -1.7307    0.8577 C   0  0  0  0  0  0  0  0  0  0  0  0
   -0.9674   -1.3356    0.5409 C   0  0  0  0  0  0  0  0  0  0  0  0
   -0.2048   -1.7190   -0.4978 C   0  0  0  0  0  0  0  0  0  0  0  0
    1.1234   -1.0908   -0.5733 C   0  0  0  0  0  0  0  0  0  0  0  0
    2.0665   -1.2884   -1.5619 C   0  0  0  0  0  0  0  0  0  0  0  0
    3.2893   -0.5819   -1.5236 C   0  0  0  0  0  0  0  0  0  0  0  0
    4.2804   -0.7566   -2.5171 C   0  0  0  0  0  0  0  0  0  0  0  0
    5.4501   -0.0615   -2.4625 C   0  0  0  0  0  0  0  0  0  0  0  0
    5.6923    0.8413   -1.4197 C   0  0  0  0  0  0  0  0  0  0  0  0
    4.7611    1.0365   -0.4444 C   0  0  0  0  0  0  0  0  0  0  0  0
    3.5370    0.3339   -0.4658 C   0  0  0  0  0  0  0  0  0  0  0  0
    2.5501    0.5191    0.5366 C   0  0  0  0  0  0  0  0  0  0  0  0
    1.3926   -0.1807    0.4693 C   0  0  0  0  0  0  0  0  0  0  0  0
   -0.0407   -0.1553    1.5482 P   0  0  0  0  0  0  0  0  0  0  0  0
   -0.7999    1.3589    0.9253 C   0  0  0  0  0  0  0  0  0  0  0  0
   -1.2540    2.2729    1.8491 C   0  0  0  0  0  0  0  0  0  0  0  0
   -1.8528    3.4446    1.4206 C   0  0  0  0  0  0  0  0  0  0  0  0
   -1.9919    3.6918    0.0692 C   0  0  0  0  0  0  0  0  0  0  0  0
   -1.5342    2.7724   -0.8537 C   0  0  0  0  0  0  0  0  0  0  0  0
   -0.9370    1.6028   -0.4221 C   0  0  0  0  0  0  0  0  0  0  0  0
   -3.0118   -1.1113    1.9057 C   0  0  0  0  0  0  0  0  0  0  0  0
   -4.3042   -1.4678    2.2197 C   0  0  0  0  0  0  0  0  0  0  0  0
   -5.9567   -2.7304    1.7383 H   0  0  0  0  0  0  0  0  0  0  0  0
   -4.7896   -3.8443   -0.1154 H   0  0  0  0  0  0  0  0  0  0  0  0
   -2.4887   -3.2163   -0.6759 H   0  0  0  0  0  0  0  0  0  0  0  0
   -0.5410   -2.4132   -1.2525 H   0  0  0  0  0  0  0  0  0  0  0  0
    1.8668   -1.9745   -2.3644 H   0  0  0  0  0  0  0  0  0  0  0  0
    4.0956   -1.4497   -3.3197 H   0  0  0  0  0  0  0  0  0  0  0  0
    6.1970   -0.2045   -3.2265 H   0  0  0  0  0  0  0  0  0  0  0  0
    6.6230    1.3845   -1.3916 H   0  0  0  0  0  0  0  0  0  0  0  0
    4.9485    1.7313    0.3564 H   0  0  0  0  0  0  0  0  0  0  0  0
    2.7167    1.2136    1.3408 H   0  0  0  0  0  0  0  0  0  0  0  0
   -1.1385    2.0652    2.9019 H   0  0  0  0  0  0  0  0  0  0  0  0
   -2.2102    4.1620    2.1412 H   0  0  0  0  0  0  0  0  0  0  0  0
   -2.4585    4.6040   -0.2659 H   0  0  0  0  0  0  0  0  0  0  0  0
   -1.6428    2.9646   -1.9087 H   0  0  0  0  0  0  0  0  0  0  0  0
   -0.5776    0.8775   -1.1330 H   0  0  0  0  0  0  0  0  0  0  0  0
   -2.5145   -0.3376    2.4639 H   0  0  0  0  0  0  0  0  0  0  0  0
   -4.8166   -0.9772    3.0315 H   0  0  0  0  0  0  0  0  0  0  0  0
  1  2  2  0  0  0  0
  2  3  1  0  0  0  0
  3  4  2  0  0  0  0
  4  5  1  0  0  0  0
  5  6  2  0  0  0  0
  6  7  1  0  0  0  0
  7  8  2  0  0  0  0
  8  9  1  0  0  0  0
  9 10  2  0  0  0  0
 10 11  1  0  0  0  0
 11 12  2  0  0  0  0
 12 13  1  0  0  0  0
 13 14  2  0  0  0  0
 14 15  1  0  0  0  0
 15 16  2  0  0  0  0
 16 17  1  0  0  0  0
 17 18  1  0  0  0  0
 18 19  2  0  0  0  0
 19 20  1  0  0  0  0
 20 21  2  0  0  0  0
 21 22  1  0  0  0  0
 22 23  2  0  0  0  0
  4 24  1  0  0  0  0
 24 25  2  0  0  0  0
 25  1  1  0  0  0  0
 17  5  1  0  0  0  0
 23 18  1  0  0  0  0
 16  7  1  0  0  0  0
 14  9  1  0  0  0  0
  1 26  1  0  0  0  0
  2 27  1  0  0  0  0
  3 28  1  0  0  0  0
  6 29  1  0  0  0  0
  8 30  1  0  0  0  0
 10 31  1  0  0  0  0
 11 32  1  0  0  0  0
 12 33  1  0  0  0  0
 13 34  1  0  0  0  0
 15 35  1  0  0  0  0
 19 36  1  0  0  0  0
 20 37  1  0  0  0  0
 21 38  1  0  0  0  0
 22 39  1  0  0  0  0
 23 40  1  0  0  0  0
 24 41  1  0  0  0  0
 25 42  1  0  0  0  0
M  END
