
  xtb     03012221283D
 energy: -9.642909875647 gnorm: 0.000306060045 xtb: 6.4.1 (afa7bdf)
 52 55  0     0  0            999 V2000
    0.3706   -1.5846    1.6919 O   0  0  0  0  0  1  0  0  0  0  0  0
   -0.5554   -1.0776    0.9984 N   0  0  0  0  0  4  0  0  0  0  0  0
   -0.2805   -0.1966   -0.0652 C   0  0  0  0  0  0  0  0  0  0  0  0
    1.0538    0.1456   -0.4012 C   0  0  0  0  0  0  0  0  0  0  0  0
    2.1742   -0.3028    0.2183 C   0  0  0  0  0  0  0  0  0  0  0  0
    3.4848    0.0757   -0.1573 C   0  0  0  0  0  0  0  0  0  0  0  0
    4.5907   -0.3879    0.4693 C   0  0  0  0  0  0  0  0  0  0  0  0
    5.9536   -0.0416    0.1405 C   0  0  0  0  0  0  0  0  0  0  0  0
    6.2768    0.8573   -0.8815 C   0  0  0  0  0  0  0  0  0  0  0  0
    7.5887    1.1628   -1.1635 C   0  0  0  0  0  0  0  0  0  0  0  0
    8.6103    0.5824   -0.4371 C   0  0  0  0  0  0  0  0  0  0  0  0
    8.3136   -0.3078    0.5765 C   0  0  0  0  0  0  0  0  0  0  0  0
    7.0040   -0.6168    0.8632 C   0  0  0  0  0  0  0  0  0  0  0  0
   -1.2503    0.3537   -0.7980 N   0  0  0  0  0  0  0  0  0  0  0  0
   -2.5185    0.0787   -0.4831 C   0  0  0  0  0  0  0  0  0  0  0  0
   -3.5265    0.7439   -1.2349 N   0  0  0  0  0  0  0  0  0  0  0  0
   -4.5105    1.6411   -0.5849 C   0  0  0  0  0  0  0  0  0  0  0  0
   -4.2207    3.1047   -0.9235 C   0  0  0  0  0  0  0  0  0  0  0  0
   -2.8911    3.2701   -1.3892 O   0  0  0  0  0  0  0  0  0  0  0  0
   -2.6480    2.5824   -2.6119 C   0  0  0  0  0  0  0  0  0  0  0  0
   -3.2043    1.1578   -2.6016 C   0  0  0  0  0  0  0  0  0  0  0  0
   -2.8767   -0.8488    0.5281 C   0  0  0  0  0  0  0  0  0  0  0  0
   -1.8790   -1.4078    1.2771 C   0  0  0  0  0  0  0  0  0  0  0  0
   -2.1209   -2.3914    2.3746 C   0  0  0  0  0  0  0  0  0  0  0  0
   -3.4771   -3.1036    2.2587 C   0  0  0  0  0  0  0  0  0  0  0  0
   -4.5919   -2.0951    1.9578 C   0  0  0  0  0  0  0  0  0  0  0  0
   -4.3051   -1.3162    0.6618 C   0  0  0  0  0  0  0  0  0  0  0  0
    1.1708    0.8286   -1.2240 H   0  0  0  0  0  0  0  0  0  0  0  0
    2.0663   -0.9825    1.0427 H   0  0  0  0  0  0  0  0  0  0  0  0
    3.5880    0.7605   -0.9779 H   0  0  0  0  0  0  0  0  0  0  0  0
    4.4514   -1.0760    1.2848 H   0  0  0  0  0  0  0  0  0  0  0  0
    5.4923    1.3188   -1.4542 H   0  0  0  0  0  0  0  0  0  0  0  0
    7.8206    1.8584   -1.9539 H   0  0  0  0  0  0  0  0  0  0  0  0
    9.6364    0.8240   -0.6604 H   0  0  0  0  0  0  0  0  0  0  0  0
    9.1101   -0.7613    1.1440 H   0  0  0  0  0  0  0  0  0  0  0  0
    6.7754   -1.3112    1.6539 H   0  0  0  0  0  0  0  0  0  0  0  0
   -4.4354    1.4975    0.4969 H   0  0  0  0  0  0  0  0  0  0  0  0
   -5.5208    1.3448   -0.8842 H   0  0  0  0  0  0  0  0  0  0  0  0
   -4.3533    3.7635   -0.0566 H   0  0  0  0  0  0  0  0  0  0  0  0
   -4.8890    3.4726   -1.7105 H   0  0  0  0  0  0  0  0  0  0  0  0
   -3.0627    3.1843   -3.4291 H   0  0  0  0  0  0  0  0  0  0  0  0
   -1.5585    2.5731   -2.7401 H   0  0  0  0  0  0  0  0  0  0  0  0
   -4.1178    1.0864   -3.2006 H   0  0  0  0  0  0  0  0  0  0  0  0
   -2.4921    0.4425   -3.0261 H   0  0  0  0  0  0  0  0  0  0  0  0
   -2.0526   -1.8661    3.3340 H   0  0  0  0  0  0  0  0  0  0  0  0
   -1.2967   -3.1157    2.3770 H   0  0  0  0  0  0  0  0  0  0  0  0
   -3.7002   -3.6723    3.1724 H   0  0  0  0  0  0  0  0  0  0  0  0
   -3.4307   -3.8459    1.4522 H   0  0  0  0  0  0  0  0  0  0  0  0
   -4.6757   -1.3897    2.7936 H   0  0  0  0  0  0  0  0  0  0  0  0
   -5.5661   -2.6003    1.9012 H   0  0  0  0  0  0  0  0  0  0  0  0
   -4.5380   -1.9475   -0.2036 H   0  0  0  0  0  0  0  0  0  0  0  0
   -4.9860   -0.4640    0.5849 H   0  0  0  0  0  0  0  0  0  0  0  0
  1  2  1  0  0  0  0
  2  3  2  0  0  0  0
  3  4  1  0  0  0  0
  4  5  2  0  0  0  0
  5  6  1  0  0  0  0
  6  7  2  0  0  0  0
  7  8  1  0  0  0  0
  8  9  2  0  0  0  0
  9 10  1  0  0  0  0
 10 11  2  0  0  0  0
 11 12  1  0  0  0  0
 12 13  2  0  0  0  0
  3 14  1  0  0  0  0
 14 15  2  0  0  0  0
 15 16  1  0  0  0  0
 16 17  1  0  0  0  0
 17 18  1  0  0  0  0
 18 19  1  0  0  0  0
 19 20  1  0  0  0  0
 20 21  1  0  0  0  0
 15 22  1  0  0  0  0
 22 23  2  0  0  0  0
 23 24  1  0  0  0  0
 24 25  1  0  0  0  0
 25 26  1  0  0  0  0
 26 27  1  0  0  0  0
 23  2  1  0  0  0  0
 13  8  1  0  0  0  0
 21 16  1  0  0  0  0
 27 22  1  0  0  0  0
  4 28  1  0  0  0  0
  5 29  1  0  0  0  0
  6 30  1  0  0  0  0
  7 31  1  0  0  0  0
  9 32  1  0  0  0  0
 10 33  1  0  0  0  0
 11 34  1  0  0  0  0
 12 35  1  0  0  0  0
 13 36  1  0  0  0  0
 17 37  1  0  0  0  0
 17 38  1  0  0  0  0
 18 39  1  0  0  0  0
 18 40  1  0  0  0  0
 20 41  1  0  0  0  0
 20 42  1  0  0  0  0
 21 43  1  0  0  0  0
 21 44  1  0  0  0  0
 24 45  1  0  0  0  0
 24 46  1  0  0  0  0
 25 47  1  0  0  0  0
 25 48  1  0  0  0  0
 26 49  1  0  0  0  0
 26 50  1  0  0  0  0
 27 51  1  0  0  0  0
 27 52  1  0  0  0  0
M  CHG  1   1  -1
M  CHG  1   2   1
M  END
