
  xtb     03012221243D
 energy: -8.674867957753 gnorm: 0.000267892467 xtb: 6.4.1 (afa7bdf)
 46 49  0     0  0            999 V2000
    7.2617   -0.7905    0.2782 C   0  0  0  0  0  0  0  0  0  0  0  0
    6.4306    0.3971    0.0681 N   0  0  0  0  0  0  0  0  0  0  0  0
    7.1308    1.6663   -0.1445 C   0  0  0  0  0  0  0  0  0  0  0  0
    5.0267    0.3227    0.0690 C   0  0  0  0  0  0  0  0  0  0  0  0
    4.3689   -0.9107    0.1501 C   0  0  0  0  0  0  0  0  0  0  0  0
    3.0001   -0.9821    0.1499 C   0  0  0  0  0  0  0  0  0  0  0  0
    2.2285    0.1756    0.0695 C   0  0  0  0  0  0  0  0  0  0  0  0
    0.7778    0.1208    0.0666 C   0  0  0  0  0  0  0  0  0  0  0  0
    0.1962   -1.0414    0.1359 N   0  0  0  0  0  0  0  0  0  0  0  0
   -1.1665   -1.0345    0.1276 C   0  0  0  0  0  0  0  0  0  0  0  0
   -1.8148   -2.2822    0.1983 C   0  0  0  0  0  0  0  0  0  0  0  0
   -3.1661   -2.3619    0.1985 C   0  0  0  0  0  0  0  0  0  0  0  0
   -3.9442   -1.1929    0.1269 C   0  0  0  0  0  0  0  0  0  0  0  0
   -5.3458   -1.2283    0.1255 C   0  0  0  0  0  0  0  0  0  0  0  0
   -6.0865   -2.5461    0.2030 C   0  0  0  0  0  0  0  0  0  0  0  0
   -5.7309   -3.3000   -0.8517 F   0  0  0  0  0  0  0  0  0  0  0  0
   -5.7361   -3.1679    1.3421 F   0  0  0  0  0  0  0  0  0  0  0  0
   -7.4102   -2.3111    0.1857 F   0  0  0  0  0  0  0  0  0  0  0  0
   -6.0080   -0.0445    0.0534 C   0  0  0  0  0  0  0  0  0  0  0  0
   -5.2937    1.1479   -0.0156 C   0  0  0  0  0  0  0  0  0  0  0  0
   -6.0651    2.4500   -0.0961 C   0  0  0  0  0  0  0  0  0  0  0  0
   -5.7464    3.0764   -1.2425 F   0  0  0  0  0  0  0  0  0  0  0  0
   -5.7385    3.2177    0.9585 F   0  0  0  0  0  0  0  0  0  0  0  0
   -7.3820    2.1806   -0.0741 F   0  0  0  0  0  0  0  0  0  0  0  0
   -3.9855    1.2211   -0.0162 N   0  0  0  0  0  0  0  0  0  0  0  0
   -3.2992    0.0589    0.0545 C   0  0  0  0  0  0  0  0  0  0  0  0
   -1.9242    0.0807    0.0582 N   0  0  0  0  0  4  0  0  0  0  0  0
   -1.2904    1.4576   -0.0179 B   0  0  0  0  0  4  0  0  0  0  0  0
   -1.6937    2.0623   -1.1984 F   0  0  0  0  0  0  0  0  0  0  0  0
   -1.6936    2.1873    1.0894 F   0  0  0  0  0  0  0  0  0  0  0  0
    0.1496    1.3163   -0.0105 O   0  0  0  0  0  0  0  0  0  0  0  0
    2.8753    1.4063   -0.0106 C   0  0  0  0  0  0  0  0  0  0  0  0
    4.2436    1.4803   -0.0117 C   0  0  0  0  0  0  0  0  0  0  0  0
    6.9419   -1.3139    1.1761 H   0  0  0  0  0  0  0  0  0  0  0  0
    8.3066   -0.5173    0.4027 H   0  0  0  0  0  0  0  0  0  0  0  0
    7.1786   -1.4574   -0.5766 H   0  0  0  0  0  0  0  0  0  0  0  0
    6.9745    2.3235    0.7077 H   0  0  0  0  0  0  0  0  0  0  0  0
    6.7594    2.1496   -1.0449 H   0  0  0  0  0  0  0  0  0  0  0  0
    8.1992    1.5063   -0.2653 H   0  0  0  0  0  0  0  0  0  0  0  0
    4.9461   -1.8161    0.2037 H   0  0  0  0  0  0  0  0  0  0  0  0
    2.4983   -1.9327    0.2103 H   0  0  0  0  0  0  0  0  0  0  0  0
   -1.2095   -3.1711    0.2529 H   0  0  0  0  0  0  0  0  0  0  0  0
   -3.6682   -3.3135    0.2534 H   0  0  0  0  0  0  0  0  0  0  0  0
   -7.0876   -0.0272    0.0501 H   0  0  0  0  0  0  0  0  0  0  0  0
    2.2708    2.2967   -0.0707 H   0  0  0  0  0  0  0  0  0  0  0  0
    4.7213    2.4419   -0.0665 H   0  0  0  0  0  0  0  0  0  0  0  0
  1  2  1  0  0  0  0
  2  3  1  0  0  0  0
  2  4  1  0  0  0  0
  4  5  2  0  0  0  0
  5  6  1  0  0  0  0
  6  7  2  0  0  0  0
  7  8  1  0  0  0  0
  8  9  2  0  0  0  0
  9 10  1  0  0  0  0
 10 11  2  0  0  0  0
 11 12  1  0  0  0  0
 12 13  2  0  0  0  0
 13 14  1  0  0  0  0
 14 15  1  0  0  0  0
 15 16  1  0  0  0  0
 15 17  1  0  0  0  0
 15 18  1  0  0  0  0
 14 19  2  0  0  0  0
 19 20  1  0  0  0  0
 20 21  1  0  0  0  0
 21 22  1  0  0  0  0
 21 23  1  0  0  0  0
 21 24  1  0  0  0  0
 20 25  2  0  0  0  0
 25 26  1  0  0  0  0
 26 27  2  0  0  0  0
 27 28  1  0  0  0  0
 28 29  1  0  0  0  0
 28 30  1  0  0  0  0
 28 31  1  0  0  0  0
  7 32  1  0  0  0  0
 32 33  2  0  0  0  0
 33  4  1  0  0  0  0
 31  8  1  0  0  0  0
 27 10  1  0  0  0  0
 26 13  1  0  0  0  0
  1 34  1  0  0  0  0
  1 35  1  0  0  0  0
  1 36  1  0  0  0  0
  3 37  1  0  0  0  0
  3 38  1  0  0  0  0
  3 39  1  0  0  0  0
  5 40  1  0  0  0  0
  6 41  1  0  0  0  0
 11 42  1  0  0  0  0
 12 43  1  0  0  0  0
 19 44  1  0  0  0  0
 32 45  1  0  0  0  0
 33 46  1  0  0  0  0
M  CHG  1  27   1
M  CHG  1  28  -1
M  END
