
  xtb     03012221203D
 energy: -3.866085377444 gnorm: 0.000128410331 xtb: 6.4.1 (afa7bdf)
 18 19  0     0  0            999 V2000
    1.0193   -2.7478   -0.0141 O   0  0  0  0  0  0  0  0  0  0  0  0
    1.1074   -1.5373    0.0160 C   0  0  0  0  0  0  0  0  0  0  0  0
    2.4005   -0.8709    0.0880 C   0  0  0  0  0  0  0  0  0  0  0  0
    2.5105    0.4590    0.1217 C   0  0  0  0  0  0  0  0  0  0  0  0
    1.3449    1.3316    0.0887 C   0  0  0  0  0  0  0  0  0  0  0  0
    1.4570    2.5400    0.1198 O   0  0  0  0  0  0  0  0  0  0  0  0
    0.0160    0.7004    0.0159 C   0  0  0  0  0  0  0  0  0  0  0  0
   -1.1291    1.4789   -0.0183 C   0  0  0  0  0  0  0  0  0  0  0  0
   -2.3716    0.8919   -0.0863 C   0  0  0  0  0  0  0  0  0  0  0  0
   -2.4855   -0.4845   -0.1211 C   0  0  0  0  0  0  0  0  0  0  0  0
   -1.3566   -1.2704   -0.0879 C   0  0  0  0  0  0  0  0  0  0  0  0
   -0.0993   -0.6934   -0.0194 C   0  0  0  0  0  0  0  0  0  0  0  0
    3.2732   -1.4991    0.1133 H   0  0  0  0  0  0  0  0  0  0  0  0
    3.4746    0.9328    0.1749 H   0  0  0  0  0  0  0  0  0  0  0  0
   -1.0204    2.5503    0.0098 H   0  0  0  0  0  0  0  0  0  0  0  0
   -3.2561    1.5067   -0.1124 H   0  0  0  0  0  0  0  0  0  0  0  0
   -3.4591   -0.9431   -0.1744 H   0  0  0  0  0  0  0  0  0  0  0  0
   -1.4257   -2.3452   -0.1142 H   0  0  0  0  0  0  0  0  0  0  0  0
  1  2  2  0  0  0  0
  2  3  1  0  0  0  0
  3  4  2  0  0  0  0
  4  5  1  0  0  0  0
  5  6  2  0  0  0  0
  5  7  1  0  0  0  0
  7  8  2  0  0  0  0
  8  9  1  0  0  0  0
  9 10  2  0  0  0  0
 10 11  1  0  0  0  0
 11 12  2  0  0  0  0
 12  2  1  0  0  0  0
 12  7  1  0  0  0  0
  3 13  1  0  0  0  0
  4 14  1  0  0  0  0
  8 15  1  0  0  0  0
  9 16  1  0  0  0  0
 10 17  1  0  0  0  0
 11 18  1  0  0  0  0
M  END
