
  xtb     03012221223D
 energy: -18.416126568227 gnorm: 0.000276313755 xtb: 6.4.1 (afa7bdf)
 84 94  0     0  0            999 V2000
   -1.7821   -0.9394   -2.0499 C   0  0  0  0  0  0  0  0  0  0  0  0
   -1.4939    0.1781   -1.1123 C   0  0  0  0  0  0  0  0  0  0  0  0
   -0.2116    0.6906   -1.0487 C   0  0  0  0  0  0  0  0  0  0  0  0
    0.1242    1.7327   -0.1930 C   0  0  0  0  0  0  0  0  0  0  0  0
    1.4714    2.2239   -0.1366 N   0  0  0  0  0  0  0  0  0  0  0  0
    1.8721    3.5759   -0.1802 C   0  0  0  0  0  0  0  0  0  0  0  0
    1.1276    4.7489   -0.3043 C   0  0  0  0  0  0  0  0  0  0  0  0
    1.7871    5.9524   -0.3365 C   0  0  0  0  0  0  0  0  0  0  0  0
    3.1810    6.0098   -0.2514 C   0  0  0  0  0  0  0  0  0  0  0  0
    3.9325    4.8644   -0.1381 C   0  0  0  0  0  0  0  0  0  0  0  0
    3.2740    3.6352   -0.1053 C   0  0  0  0  0  0  0  0  0  0  0  0
    3.7587    2.2778   -0.0092 C   0  0  0  0  0  0  0  0  0  0  0  0
    5.0482    1.7550    0.1022 C   0  0  0  0  0  0  0  0  0  0  0  0
    5.1851    0.3887    0.1971 C   0  0  0  0  0  0  0  0  0  0  0  0
    4.0534   -0.4624    0.1880 C   0  0  0  0  0  0  0  0  0  0  0  0
    2.7821    0.0483    0.0774 C   0  0  0  0  0  0  0  0  0  0  0  0
    2.6336    1.4314   -0.0301 C   0  0  0  0  0  0  0  0  0  0  0  0
    4.4263   -1.9380    0.3199 C   0  0  0  0  0  0  0  0  0  0  0  0
    5.2464   -2.0480    1.6046 C   0  0  0  0  0  0  0  0  0  0  0  0
    4.9806   -2.8591    2.6912 C   0  0  0  0  0  0  0  0  0  0  0  0
    5.8279   -2.8320    3.7811 C   0  0  0  0  0  0  0  0  0  0  0  0
    6.9335   -2.0013    3.7888 C   0  0  0  0  0  0  0  0  0  0  0  0
    7.2062   -1.1871    2.7072 C   0  0  0  0  0  0  0  0  0  0  0  0
    6.3630   -1.2089    1.6126 C   0  0  0  0  0  0  0  0  0  0  0  0
    6.4978   -0.3817    0.3347 C   0  0  0  0  0  0  0  0  0  0  0  0
    6.5149   -1.3886   -0.8148 C   0  0  0  0  0  0  0  0  0  0  0  0
    7.4901   -1.5232   -1.7847 C   0  0  0  0  0  0  0  0  0  0  0  0
    7.3483   -2.4923   -2.7582 C   0  0  0  0  0  0  0  0  0  0  0  0
    6.2421   -3.3223   -2.7668 C   0  0  0  0  0  0  0  0  0  0  0  0
    5.2636   -3.1940   -1.8011 C   0  0  0  0  0  0  0  0  0  0  0  0
    5.3983   -2.2275   -0.8227 C   0  0  0  0  0  0  0  0  0  0  0  0
   -0.8649    2.2747    0.6154 C   0  0  0  0  0  0  0  0  0  0  0  0
   -2.1435    1.7812    0.5653 C   0  0  0  0  0  0  0  0  0  0  0  0
   -2.4918    0.7328   -0.2872 C   0  0  0  0  0  0  0  0  0  0  0  0
   -3.8882    0.2633   -0.2658 C   0  0  0  0  0  0  0  0  0  0  0  0
   -4.2559   -0.7066   -1.0874 N   0  0  0  0  0  0  0  0  0  0  0  0
   -5.5254   -1.0677   -0.9950 C   0  0  0  0  0  0  0  0  0  0  0  0
   -6.0004   -2.1447   -1.8787 C   0  0  0  0  0  0  0  0  0  0  0  0
   -5.1504   -2.7451   -2.8030 C   0  0  0  0  0  0  0  0  0  0  0  0
   -5.6053   -3.7527   -3.6244 C   0  0  0  0  0  0  0  0  0  0  0  0
   -6.9157   -4.1786   -3.5376 C   0  0  0  0  0  0  0  0  0  0  0  0
   -7.7713   -3.5931   -2.6262 C   0  0  0  0  0  0  0  0  0  0  0  0
   -7.3189   -2.5851   -1.8040 C   0  0  0  0  0  0  0  0  0  0  0  0
   -6.4116   -0.5407   -0.1668 N   0  0  0  0  0  0  0  0  0  0  0  0
   -5.9395    0.4222    0.6055 C   0  0  0  0  0  0  0  0  0  0  0  0
   -6.8751    1.0530    1.5487 C   0  0  0  0  0  0  0  0  0  0  0  0
   -6.4520    2.0782    2.3896 C   0  0  0  0  0  0  0  0  0  0  0  0
   -7.3293    2.6676    3.2725 C   0  0  0  0  0  0  0  0  0  0  0  0
   -8.6421    2.2437    3.3308 C   0  0  0  0  0  0  0  0  0  0  0  0
   -9.0760    1.2275    2.5028 C   0  0  0  0  0  0  0  0  0  0  0  0
   -8.2011    0.6362    1.6187 C   0  0  0  0  0  0  0  0  0  0  0  0
   -4.6934    0.8627    0.5987 N   0  0  0  0  0  0  0  0  0  0  0  0
   -2.5135   -0.6307   -2.7969 H   0  0  0  0  0  0  0  0  0  0  0  0
   -2.1887   -1.7950   -1.5104 H   0  0  0  0  0  0  0  0  0  0  0  0
   -0.8844   -1.2688   -2.5737 H   0  0  0  0  0  0  0  0  0  0  0  0
    0.5529    0.2849   -1.6857 H   0  0  0  0  0  0  0  0  0  0  0  0
    0.0556    4.6955   -0.3834 H   0  0  0  0  0  0  0  0  0  0  0  0
    1.2238    6.8655   -0.4310 H   0  0  0  0  0  0  0  0  0  0  0  0
    3.6739    6.9682   -0.2789 H   0  0  0  0  0  0  0  0  0  0  0  0
    5.0054    4.9004   -0.0778 H   0  0  0  0  0  0  0  0  0  0  0  0
    5.9056    2.4009    0.1182 H   0  0  0  0  0  0  0  0  0  0  0  0
    1.9236   -0.5977    0.0882 H   0  0  0  0  0  0  0  0  0  0  0  0
    3.5517   -2.6011    0.3142 H   0  0  0  0  0  0  0  0  0  0  0  0
    4.1169   -3.5014    2.6775 H   0  0  0  0  0  0  0  0  0  0  0  0
    5.6252   -3.4620    4.6316 H   0  0  0  0  0  0  0  0  0  0  0  0
    7.5873   -1.9881    4.6458 H   0  0  0  0  0  0  0  0  0  0  0  0
    8.0636   -0.5369    2.7061 H   0  0  0  0  0  0  0  0  0  0  0  0
    7.3780    0.2733    0.3413 H   0  0  0  0  0  0  0  0  0  0  0  0
    8.3480   -0.8737   -1.7712 H   0  0  0  0  0  0  0  0  0  0  0  0
    8.1060   -2.6022   -3.5171 H   0  0  0  0  0  0  0  0  0  0  0  0
    6.1425   -4.0742   -3.5322 H   0  0  0  0  0  0  0  0  0  0  0  0
    4.3992   -3.8356   -1.8003 H   0  0  0  0  0  0  0  0  0  0  0  0
   -0.6088    3.0694    1.2935 H   0  0  0  0  0  0  0  0  0  0  0  0
   -2.9076    2.1986    1.1967 H   0  0  0  0  0  0  0  0  0  0  0  0
   -4.1323   -2.4087   -2.8666 H   0  0  0  0  0  0  0  0  0  0  0  0
   -4.9371   -4.2092   -4.3363 H   0  0  0  0  0  0  0  0  0  0  0  0
   -7.2703   -4.9673   -4.1810 H   0  0  0  0  0  0  0  0  0  0  0  0
   -8.7945   -3.9250   -2.5577 H   0  0  0  0  0  0  0  0  0  0  0  0
   -7.9773   -2.1227   -1.0907 H   0  0  0  0  0  0  0  0  0  0  0  0
   -5.4276    2.4006    2.3364 H   0  0  0  0  0  0  0  0  0  0  0  0
   -6.9905    3.4608    3.9188 H   0  0  0  0  0  0  0  0  0  0  0  0
   -9.3277    2.7057    4.0223 H   0  0  0  0  0  0  0  0  0  0  0  0
  -10.1007    0.8963    2.5484 H   0  0  0  0  0  0  0  0  0  0  0  0
   -8.5284   -0.1560    0.9694 H   0  0  0  0  0  0  0  0  0  0  0  0
  1  2  1  0  0  0  0
  2  3  2  0  0  0  0
  3  4  1  0  0  0  0
  4  5  1  0  0  0  0
  5  6  1  0  0  0  0
  6  7  2  0  0  0  0
  7  8  1  0  0  0  0
  8  9  2  0  0  0  0
  9 10  1  0  0  0  0
 10 11  2  0  0  0  0
 11 12  1  0  0  0  0
 12 13  2  0  0  0  0
 13 14  1  0  0  0  0
 14 15  2  0  0  0  0
 15 16  1  0  0  0  0
 16 17  2  0  0  0  0
 15 18  1  0  0  0  0
 18 19  1  0  0  0  0
 19 20  2  0  0  0  0
 20 21  1  0  0  0  0
 21 22  2  0  0  0  0
 22 23  1  0  0  0  0
 23 24  2  0  0  0  0
 24 25  1  0  0  0  0
 25 26  1  0  0  0  0
 26 27  2  0  0  0  0
 27 28  1  0  0  0  0
 28 29  2  0  0  0  0
 29 30  1  0  0  0  0
 30 31  2  0  0  0  0
  4 32  2  0  0  0  0
 32 33  1  0  0  0  0
 33 34  2  0  0  0  0
 34 35  1  0  0  0  0
 35 36  2  0  0  0  0
 36 37  1  0  0  0  0
 37 38  1  0  0  0  0
 38 39  2  0  0  0  0
 39 40  1  0  0  0  0
 40 41  2  0  0  0  0
 41 42  1  0  0  0  0
 42 43  2  0  0  0  0
 37 44  2  0  0  0  0
 44 45  1  0  0  0  0
 45 46  1  0  0  0  0
 46 47  2  0  0  0  0
 47 48  1  0  0  0  0
 48 49  2  0  0  0  0
 49 50  1  0  0  0  0
 50 51  2  0  0  0  0
 45 52  2  0  0  0  0
 34  2  1  0  0  0  0
 52 35  1  0  0  0  0
 17  5  1  0  0  0  0
 31 18  1  0  0  0  0
 43 38  1  0  0  0  0
 51 46  1  0  0  0  0
 11  6  1  0  0  0  0
 17 12  1  0  0  0  0
 24 19  1  0  0  0  0
 31 26  1  0  0  0  0
 25 14  1  0  0  0  0
  1 53  1  0  0  0  0
  1 54  1  0  0  0  0
  1 55  1  0  0  0  0
  3 56  1  0  0  0  0
  7 57  1  0  0  0  0
  8 58  1  0  0  0  0
  9 59  1  0  0  0  0
 10 60  1  0  0  0  0
 13 61  1  0  0  0  0
 16 62  1  0  0  0  0
 18 63  1  0  0  0  0
 20 64  1  0  0  0  0
 21 65  1  0  0  0  0
 22 66  1  0  0  0  0
 23 67  1  0  0  0  0
 25 68  1  0  0  0  0
 27 69  1  0  0  0  0
 28 70  1  0  0  0  0
 29 71  1  0  0  0  0
 30 72  1  0  0  0  0
 32 73  1  0  0  0  0
 33 74  1  0  0  0  0
 39 75  1  0  0  0  0
 40 76  1  0  0  0  0
 41 77  1  0  0  0  0
 42 78  1  0  0  0  0
 43 79  1  0  0  0  0
 47 80  1  0  0  0  0
 48 81  1  0  0  0  0
 49 82  1  0  0  0  0
 50 83  1  0  0  0  0
 51 84  1  0  0  0  0
M  END
