
  xtb     03012221293D
 energy: -10.353823391870 gnorm: 0.000097923619 xtb: 6.4.1 (afa7bdf)
 50 54  0     0  0            999 V2000
   -8.6683   -1.3602   -2.1246 C   0  0  0  0  0  0  0  0  0  0  0  0
   -7.4768   -1.5270   -2.8515 O   0  0  0  0  0  0  0  0  0  0  0  0
   -6.3276   -1.0893   -2.2006 C   0  0  0  0  0  0  0  0  0  0  0  0
   -5.1052   -1.2230   -2.8888 C   0  0  0  0  0  0  0  0  0  0  0  0
   -3.9298   -0.8164   -2.3293 C   0  0  0  0  0  0  0  0  0  0  0  0
   -3.9091   -0.2525   -1.0453 C   0  0  0  0  0  0  0  0  0  0  0  0
   -2.7170    0.1863   -0.4313 C   0  0  0  0  0  0  0  0  0  0  0  0
   -2.7115    0.7254    0.8147 C   0  0  0  0  0  0  0  0  0  0  0  0
   -1.4541    1.1843    1.4241 C   0  0  0  0  0  0  0  0  0  0  0  0
   -1.4342    2.1221    2.4538 C   0  0  0  0  0  0  0  0  0  0  0  0
   -0.2478    2.5921    2.9664 C   0  0  0  0  0  0  0  0  0  0  0  0
    0.9510    2.1324    2.4712 C   0  0  0  0  0  0  0  0  0  0  0  0
    0.9867    1.1740    1.4574 C   0  0  0  0  0  0  0  0  0  0  0  0
    2.2556    0.6566    0.9215 C   0  0  0  0  0  0  0  0  0  0  0  0
    3.3972    0.7194    1.6525 C   0  0  0  0  0  0  0  0  0  0  0  0
    4.6252    0.2327    1.1544 C   0  0  0  0  0  0  0  0  0  0  0  0
    5.8154    0.2942    1.8941 C   0  0  0  0  0  0  0  0  0  0  0  0
    6.9811   -0.1867    1.3743 C   0  0  0  0  0  0  0  0  0  0  0  0
    7.0275   -0.7577    0.0871 C   0  0  0  0  0  0  0  0  0  0  0  0
    8.2603   -1.2220   -0.3611 O   0  0  0  0  0  0  0  0  0  0  0  0
    8.2482   -1.7803   -1.6513 C   0  0  0  0  0  0  0  0  0  0  0  0
    5.8482   -0.8188   -0.6434 C   0  0  0  0  0  0  0  0  0  0  0  0
    4.6475   -0.3351   -0.1352 C   0  0  0  0  0  0  0  0  0  0  0  0
    3.5056   -0.4267   -0.9082 O   0  0  0  0  0  0  0  0  0  0  0  0
    2.3081    0.0505   -0.4182 C   0  0  0  0  0  0  0  0  0  0  0  0
    1.2829   -0.0232   -1.0790 O   0  0  0  0  0  0  0  0  0  0  0  0
   -0.2286    0.7202    0.9607 C   0  0  0  0  0  0  0  0  0  0  0  0
   -3.9890    0.8650    1.5277 C   0  0  0  0  0  0  0  0  0  0  0  0
   -3.9930    1.3620    2.6435 O   0  0  0  0  0  0  0  0  0  0  0  0
   -5.1576    0.4400    0.9307 O   0  0  0  0  0  0  0  0  0  0  0  0
   -5.1188   -0.1111   -0.3364 C   0  0  0  0  0  0  0  0  0  0  0  0
   -6.3044   -0.5327   -0.9285 C   0  0  0  0  0  0  0  0  0  0  0  0
   -8.6206   -1.9363   -1.1995 H   0  0  0  0  0  0  0  0  0  0  0  0
   -8.8279   -0.3016   -1.9146 H   0  0  0  0  0  0  0  0  0  0  0  0
   -9.4945   -1.7308   -2.7326 H   0  0  0  0  0  0  0  0  0  0  0  0
   -5.1261   -1.6560   -3.8730 H   0  0  0  0  0  0  0  0  0  0  0  0
   -3.0045   -0.9248   -2.8673 H   0  0  0  0  0  0  0  0  0  0  0  0
   -1.8021    0.1073   -0.9884 H   0  0  0  0  0  0  0  0  0  0  0  0
   -2.3722    2.4707    2.8523 H   0  0  0  0  0  0  0  0  0  0  0  0
   -0.2582    3.3243    3.7557 H   0  0  0  0  0  0  0  0  0  0  0  0
    1.8723    2.5321    2.8587 H   0  0  0  0  0  0  0  0  0  0  0  0
    3.3781    1.1273    2.6455 H   0  0  0  0  0  0  0  0  0  0  0  0
    5.7974    0.7274    2.8784 H   0  0  0  0  0  0  0  0  0  0  0  0
    7.8958   -0.1408    1.9379 H   0  0  0  0  0  0  0  0  0  0  0  0
    9.2606   -2.1064   -1.8927 H   0  0  0  0  0  0  0  0  0  0  0  0
    7.5814   -2.6434   -1.6744 H   0  0  0  0  0  0  0  0  0  0  0  0
    7.9340   -1.0284   -2.3766 H   0  0  0  0  0  0  0  0  0  0  0  0
    5.8336   -1.2453   -1.6271 H   0  0  0  0  0  0  0  0  0  0  0  0
   -0.2059   -0.0201    0.1826 H   0  0  0  0  0  0  0  0  0  0  0  0
   -7.2092   -0.4112   -0.3660 H   0  0  0  0  0  0  0  0  0  0  0  0
  1  2  1  0  0  0  0
  2  3  1  0  0  0  0
  3  4  2  0  0  0  0
  4  5  1  0  0  0  0
  5  6  2  0  0  0  0
  6  7  1  0  0  0  0
  7  8  2  0  0  0  0
  8  9  1  0  0  0  0
  9 10  2  0  0  0  0
 10 11  1  0  0  0  0
 11 12  2  0  0  0  0
 12 13  1  0  0  0  0
 13 14  1  0  0  0  0
 14 15  2  0  0  0  0
 15 16  1  0  0  0  0
 16 17  2  0  0  0  0
 17 18  1  0  0  0  0
 18 19  2  0  0  0  0
 19 20  1  0  0  0  0
 20 21  1  0  0  0  0
 19 22  1  0  0  0  0
 22 23  2  0  0  0  0
 23 24  1  0  0  0  0
 24 25  1  0  0  0  0
 25 26  2  0  0  0  0
 13 27  2  0  0  0  0
  8 28  1  0  0  0  0
 28 29  2  0  0  0  0
 28 30  1  0  0  0  0
 30 31  1  0  0  0  0
 31 32  2  0  0  0  0
 32  3  1  0  0  0  0
 31  6  1  0  0  0  0
 27  9  1  0  0  0  0
 25 14  1  0  0  0  0
 23 16  1  0  0  0  0
  1 33  1  0  0  0  0
  1 34  1  0  0  0  0
  1 35  1  0  0  0  0
  4 36  1  0  0  0  0
  5 37  1  0  0  0  0
  7 38  1  0  0  0  0
 10 39  1  0  0  0  0
 11 40  1  0  0  0  0
 12 41  1  0  0  0  0
 15 42  1  0  0  0  0
 17 43  1  0  0  0  0
 18 44  1  0  0  0  0
 21 45  1  0  0  0  0
 21 46  1  0  0  0  0
 21 47  1  0  0  0  0
 22 48  1  0  0  0  0
 27 49  1  0  0  0  0
 32 50  1  0  0  0  0
M  END
