
  xtb     03012221313D
 energy: -16.787794783788 gnorm: 0.000340489522 xtb: 6.4.1 (afa7bdf)
 81 91  0     0  0            999 V2000
   -0.0013    1.1943    1.2513 F   0  0  0  0  0  0  0  0  0  0  0  0
    0.0230    0.5145    0.0385 B   0  0  0  0  0  4  0  0  0  0  0  0
    0.0968    1.3900   -1.0400 F   0  0  0  0  0  0  0  0  0  0  0  0
    1.2653   -0.3939    0.0162 N   0  0  0  0  0  0  0  0  0  0  0  0
    1.1356   -1.7597   -0.0626 C   0  0  0  0  0  0  0  0  0  0  0  0
    2.4767   -2.2966   -0.0670 C   0  0  0  0  0  0  0  0  0  0  0  0
    2.8264   -3.7245   -0.1525 C   0  0  0  0  0  0  0  0  0  0  0  0
    2.2457   -4.5400   -1.1250 C   0  0  0  0  0  0  0  0  0  0  0  0
    2.5585   -5.8773   -1.2020 C   0  0  0  0  0  0  0  0  0  0  0  0
    3.4540   -6.4314   -0.3101 C   0  0  0  0  0  0  0  0  0  0  0  0
    4.0345   -5.6430    0.6626 C   0  0  0  0  0  0  0  0  0  0  0  0
    3.7251   -4.3048    0.7438 C   0  0  0  0  0  0  0  0  0  0  0  0
    3.3434   -1.2139    0.0027 C   0  0  0  0  0  0  0  0  0  0  0  0
    2.5750   -0.0181    0.0520 C   0  0  0  0  0  0  0  0  0  0  0  0
    3.1741    1.2811    0.0878 C   0  0  0  0  0  0  0  0  0  0  0  0
    2.4541    2.4112    0.2438 C   0  0  0  0  0  0  0  0  0  0  0  0
    3.0892    3.6778    0.3060 C   0  0  0  0  0  0  0  0  0  0  0  0
    2.3586    4.8649    0.3749 C   0  0  0  0  0  0  0  0  0  0  0  0
    2.9953    6.0751    0.4821 C   0  0  0  0  0  0  0  0  0  0  0  0
    4.3829    6.1336    0.5340 C   0  0  0  0  0  0  0  0  0  0  0  0
    5.1218    4.9844    0.4751 C   0  0  0  0  0  0  0  0  0  0  0  0
    4.5046    3.7270    0.3531 C   0  0  0  0  0  0  0  0  0  0  0  0
    5.2967    2.5999    0.3108 O   0  0  0  0  0  0  0  0  0  0  0  0
    4.6703    1.3680   -0.1341 C   0  0  0  0  0  0  0  0  0  0  0  0
    5.4097    0.1492    0.4653 C   0  0  0  0  0  0  0  0  0  0  0  0
    4.8403   -1.2017   -0.0155 C   0  0  0  0  0  0  0  0  0  0  0  0
   -0.0738   -2.4218   -0.1275 C   0  0  0  0  0  0  0  0  0  0  0  0
   -1.2378   -1.6792   -0.1356 C   0  0  0  0  0  0  0  0  0  0  0  0
   -2.6097   -2.1181   -0.2530 C   0  0  0  0  0  0  0  0  0  0  0  0
   -3.0676   -3.5137   -0.3128 C   0  0  0  0  0  0  0  0  0  0  0  0
   -4.0694   -3.9073   -1.2009 C   0  0  0  0  0  0  0  0  0  0  0  0
   -4.4876   -5.2170   -1.2559 C   0  0  0  0  0  0  0  0  0  0  0  0
   -3.9182   -6.1622   -0.4272 C   0  0  0  0  0  0  0  0  0  0  0  0
   -2.9272   -5.7928    0.4591 C   0  0  0  0  0  0  0  0  0  0  0  0
   -2.5053   -4.4848    0.5173 C   0  0  0  0  0  0  0  0  0  0  0  0
   -3.3951   -0.9739   -0.2836 C   0  0  0  0  0  0  0  0  0  0  0  0
   -4.8863   -0.8608   -0.3413 C   0  0  0  0  0  0  0  0  0  0  0  0
   -5.3743    0.5122    0.1643 C   0  0  0  0  0  0  0  0  0  0  0  0
   -4.5423    1.6895   -0.3959 C   0  0  0  0  0  0  0  0  0  0  0  0
   -5.1038    2.9520    0.0503 O   0  0  0  0  0  0  0  0  0  0  0  0
   -4.2411    4.0198    0.1686 C   0  0  0  0  0  0  0  0  0  0  0  0
   -4.7799    5.3098    0.3187 C   0  0  0  0  0  0  0  0  0  0  0  0
   -3.9713    6.4042    0.4551 C   0  0  0  0  0  0  0  0  0  0  0  0
   -2.5895    6.2555    0.4551 C   0  0  0  0  0  0  0  0  0  0  0  0
   -2.0288    5.0109    0.3209 C   0  0  0  0  0  0  0  0  0  0  0  0
   -2.8313    3.8787    0.1729 C   0  0  0  0  0  0  0  0  0  0  0  0
   -2.2773    2.5763    0.0837 C   0  0  0  0  0  0  0  0  0  0  0  0
   -3.0620    1.5007   -0.1330 C   0  0  0  0  0  0  0  0  0  0  0  0
   -2.5503    0.1645   -0.1686 C   0  0  0  0  0  0  0  0  0  0  0  0
   -1.2738   -0.3055   -0.0855 N   0  0  0  0  0  4  0  0  0  0  0  0
    1.5578   -4.1033   -1.8284 H   0  0  0  0  0  0  0  0  0  0  0  0
    2.1044   -6.4929   -1.9615 H   0  0  0  0  0  0  0  0  0  0  0  0
    3.6978   -7.4802   -0.3713 H   0  0  0  0  0  0  0  0  0  0  0  0
    4.7277   -6.0779    1.3643 H   0  0  0  0  0  0  0  0  0  0  0  0
    4.1514   -3.6990    1.5242 H   0  0  0  0  0  0  0  0  0  0  0  0
    1.3885    2.3503    0.3497 H   0  0  0  0  0  0  0  0  0  0  0  0
    1.2848    4.8171    0.3446 H   0  0  0  0  0  0  0  0  0  0  0  0
    2.4172    6.9844    0.5323 H   0  0  0  0  0  0  0  0  0  0  0  0
    4.8759    7.0868    0.6237 H   0  0  0  0  0  0  0  0  0  0  0  0
    6.1972    5.0171    0.5184 H   0  0  0  0  0  0  0  0  0  0  0  0
    4.8272    1.3639   -1.2244 H   0  0  0  0  0  0  0  0  0  0  0  0
    5.3336    0.2177    1.5552 H   0  0  0  0  0  0  0  0  0  0  0  0
    6.4802    0.2304    0.2427 H   0  0  0  0  0  0  0  0  0  0  0  0
    5.1830   -1.4118   -1.0349 H   0  0  0  0  0  0  0  0  0  0  0  0
    5.2229   -2.0205    0.6033 H   0  0  0  0  0  0  0  0  0  0  0  0
   -0.1053   -3.4915   -0.1986 H   0  0  0  0  0  0  0  0  0  0  0  0
   -4.4981   -3.1763   -1.8635 H   0  0  0  0  0  0  0  0  0  0  0  0
   -5.2594   -5.5060   -1.9508 H   0  0  0  0  0  0  0  0  0  0  0  0
   -4.2478   -7.1882   -0.4719 H   0  0  0  0  0  0  0  0  0  0  0  0
   -2.4850   -6.5300    1.1096 H   0  0  0  0  0  0  0  0  0  0  0  0
   -1.7490   -4.1928    1.2250 H   0  0  0  0  0  0  0  0  0  0  0  0
   -5.2173   -1.0134   -1.3744 H   0  0  0  0  0  0  0  0  0  0  0  0
   -5.3327   -1.6725    0.2457 H   0  0  0  0  0  0  0  0  0  0  0  0
   -5.3119    0.5501    1.2566 H   0  0  0  0  0  0  0  0  0  0  0  0
   -6.4327    0.6709   -0.0733 H   0  0  0  0  0  0  0  0  0  0  0  0
   -4.6674    1.7100   -1.4901 H   0  0  0  0  0  0  0  0  0  0  0  0
   -5.8518    5.4120    0.3223 H   0  0  0  0  0  0  0  0  0  0  0  0
   -4.4049    7.3836    0.5663 H   0  0  0  0  0  0  0  0  0  0  0  0
   -1.9563    7.1215    0.5673 H   0  0  0  0  0  0  0  0  0  0  0  0
   -0.9601    4.8929    0.3325 H   0  0  0  0  0  0  0  0  0  0  0  0
   -1.2222    2.4436    0.2230 H   0  0  0  0  0  0  0  0  0  0  0  0
  1  2  1  0  0  0  0
  2  3  1  0  0  0  0
  2  4  1  0  0  0  0
  4  5  1  0  0  0  0
  5  6  2  0  0  0  0
  6  7  1  0  0  0  0
  7  8  2  0  0  0  0
  8  9  1  0  0  0  0
  9 10  2  0  0  0  0
 10 11  1  0  0  0  0
 11 12  2  0  0  0  0
  6 13  1  0  0  0  0
 13 14  2  0  0  0  0
 14 15  1  0  0  0  0
 15 16  2  0  0  0  0
 16 17  1  0  0  0  0
 17 18  2  0  0  0  0
 18 19  1  0  0  0  0
 19 20  2  0  0  0  0
 20 21  1  0  0  0  0
 21 22  2  0  0  0  0
 22 23  1  0  0  0  0
 23 24  1  0  0  0  0
 24 25  1  0  0  0  0
 25 26  1  0  0  0  0
  5 27  1  0  0  0  0
 27 28  2  0  0  0  0
 28 29  1  0  0  0  0
 29 30  1  0  0  0  0
 30 31  2  0  0  0  0
 31 32  1  0  0  0  0
 32 33  2  0  0  0  0
 33 34  1  0  0  0  0
 34 35  2  0  0  0  0
 29 36  2  0  0  0  0
 36 37  1  0  0  0  0
 37 38  1  0  0  0  0
 38 39  1  0  0  0  0
 39 40  1  0  0  0  0
 40 41  1  0  0  0  0
 41 42  2  0  0  0  0
 42 43  1  0  0  0  0
 43 44  2  0  0  0  0
 44 45  1  0  0  0  0
 45 46  2  0  0  0  0
 46 47  1  0  0  0  0
 47 48  2  0  0  0  0
 48 49  1  0  0  0  0
 49 50  2  0  0  0  0
 50  2  1  0  0  0  0
 14  4  1  0  0  0  0
 24 15  1  0  0  0  0
 50 28  1  0  0  0  0
 12  7  1  0  0  0  0
 26 13  1  0  0  0  0
 35 30  1  0  0  0  0
 49 36  1  0  0  0  0
 22 17  1  0  0  0  0
 48 39  1  0  0  0  0
 46 41  1  0  0  0  0
  8 51  1  0  0  0  0
  9 52  1  0  0  0  0
 10 53  1  0  0  0  0
 11 54  1  0  0  0  0
 12 55  1  0  0  0  0
 16 56  1  0  0  0  0
 18 57  1  0  0  0  0
 19 58  1  0  0  0  0
 20 59  1  0  0  0  0
 21 60  1  0  0  0  0
 24 61  1  0  0  0  0
 25 62  1  0  0  0  0
 25 63  1  0  0  0  0
 26 64  1  0  0  0  0
 26 65  1  0  0  0  0
 27 66  1  0  0  0  0
 31 67  1  0  0  0  0
 32 68  1  0  0  0  0
 33 69  1  0  0  0  0
 34 70  1  0  0  0  0
 35 71  1  0  0  0  0
 37 72  1  0  0  0  0
 37 73  1  0  0  0  0
 38 74  1  0  0  0  0
 38 75  1  0  0  0  0
 39 76  1  0  0  0  0
 42 77  1  0  0  0  0
 43 78  1  0  0  0  0
 44 79  1  0  0  0  0
 45 80  1  0  0  0  0
 47 81  1  0  0  0  0
M  CHG  1   2  -1
M  CHG  1  50   1
M  END
