
  xtb     03012221213D
 energy: -6.115516491901 gnorm: 0.000244514752 xtb: 6.4.1 (afa7bdf)
 29 31  0     0  0            999 V2000
    6.6047   -0.8058    0.2752 Cl  0  0  0  0  0  0  0  0  0  0  0  0
    4.9760   -0.2211    0.2160 C   0  0  0  0  0  0  0  0  0  0  0  0
    4.6853    0.9526   -0.4586 C   0  0  0  0  0  0  0  0  0  0  0  0
    3.3911    1.4164   -0.5084 C   0  0  0  0  0  0  0  0  0  0  0  0
    2.3584    0.7086    0.1068 C   0  0  0  0  0  0  0  0  0  0  0  0
    1.0303    1.2104    0.0574 N   0  0  0  0  0  0  0  0  0  0  0  0
   -0.1854    0.5178   -0.0340 C   0  0  0  0  0  0  0  0  0  0  0  0
   -0.1956   -0.8482   -0.3678 C   0  0  0  0  0  0  0  0  0  0  0  0
   -1.3684   -1.5161   -0.4763 C   0  0  0  0  0  0  0  0  0  0  0  0
   -2.5646   -0.8140   -0.2540 C   0  0  0  0  0  0  0  0  0  0  0  0
   -3.8318   -1.4256   -0.3466 C   0  0  0  0  0  0  0  0  0  0  0  0
   -4.9684   -0.7026   -0.1326 C   0  0  0  0  0  0  0  0  0  0  0  0
   -4.8887    0.6562    0.1813 C   0  0  0  0  0  0  0  0  0  0  0  0
   -3.6756    1.2735    0.2768 C   0  0  0  0  0  0  0  0  0  0  0  0
   -2.4761    0.5630    0.0632 C   0  0  0  0  0  0  0  0  0  0  0  0
   -1.2939    1.2190    0.1642 N   0  0  0  0  0  0  0  0  0  0  0  0
    2.6688   -0.4636    0.7961 C   0  0  0  0  0  0  0  0  0  0  0  0
    3.9639   -0.9247    0.8469 C   0  0  0  0  0  0  0  0  0  0  0  0
    5.4847    1.4907   -0.9391 H   0  0  0  0  0  0  0  0  0  0  0  0
    3.1576    2.3257   -1.0335 H   0  0  0  0  0  0  0  0  0  0  0  0
    0.9186    2.2213    0.1064 H   0  0  0  0  0  0  0  0  0  0  0  0
    0.7353   -1.3467   -0.5688 H   0  0  0  0  0  0  0  0  0  0  0  0
   -1.3966   -2.5604   -0.7352 H   0  0  0  0  0  0  0  0  0  0  0  0
   -3.8897   -2.4722   -0.5906 H   0  0  0  0  0  0  0  0  0  0  0  0
   -5.9327   -1.1783   -0.2063 H   0  0  0  0  0  0  0  0  0  0  0  0
   -5.7927    1.2183    0.3480 H   0  0  0  0  0  0  0  0  0  0  0  0
   -3.6094    2.3198    0.5175 H   0  0  0  0  0  0  0  0  0  0  0  0
    1.8862   -0.9863    1.3167 H   0  0  0  0  0  0  0  0  0  0  0  0
    4.2092   -1.8280    1.3791 H   0  0  0  0  0  0  0  0  0  0  0  0
  1  2  1  0  0  0  0
  2  3  2  0  0  0  0
  3  4  1  0  0  0  0
  4  5  2  0  0  0  0
  5  6  1  0  0  0  0
  6  7  1  0  0  0  0
  7  8  2  0  0  0  0
  8  9  1  0  0  0  0
  9 10  2  0  0  0  0
 10 11  1  0  0  0  0
 11 12  2  0  0  0  0
 12 13  1  0  0  0  0
 13 14  2  0  0  0  0
 14 15  1  0  0  0  0
 15 16  2  0  0  0  0
  5 17  1  0  0  0  0
 17 18  2  0  0  0  0
 18  2  1  0  0  0  0
 16  7  1  0  0  0  0
 15 10  1  0  0  0  0
  3 19  1  0  0  0  0
  4 20  1  0  0  0  0
  6 21  1  0  0  0  0
  8 22  1  0  0  0  0
  9 23  1  0  0  0  0
 11 24  1  0  0  0  0
 12 25  1  0  0  0  0
 13 26  1  0  0  0  0
 14 27  1  0  0  0  0
 17 28  1  0  0  0  0
 18 29  1  0  0  0  0
M  END
