
  xtb     03012221213D
 energy: -4.840664927635 gnorm: 0.000310741061 xtb: 6.4.1 (afa7bdf)
 23 24  0     0  0            999 V2000
    3.9098   -0.5952    1.0664 C   0  0  0  0  0  0  0  0  0  0  0  0
    3.3309   -1.1190   -0.1033 O   0  0  0  0  0  0  0  0  0  0  0  0
    1.9859   -0.8028   -0.2894 C   0  0  0  0  0  0  0  0  0  0  0  0
    1.3698   -1.2762   -1.4596 C   0  0  0  0  0  0  0  0  0  0  0  0
    0.0547   -1.0127   -1.7249 C   0  0  0  0  0  0  0  0  0  0  0  0
   -0.7160   -0.2609   -0.8326 C   0  0  0  0  0  0  0  0  0  0  0  0
   -2.0821    0.0380   -1.0713 C   0  0  0  0  0  0  0  0  0  0  0  0
   -2.7988    0.7705   -0.1883 C   0  0  0  0  0  0  0  0  0  0  0  0
   -4.1399    1.0601   -0.4367 C   0  0  0  0  0  0  0  0  0  0  0  0
   -5.2591    1.3132   -0.6217 N   0  0  0  0  0  0  0  0  0  0  0  0
   -2.1650    1.2573    1.0225 C   0  0  0  0  0  0  0  0  0  0  0  0
   -2.8411    1.9566    1.8649 N   0  0  0  0  0  0  0  0  0  0  0  0
   -0.8283    0.9702    1.2747 O   0  0  0  0  0  0  0  0  0  0  0  0
   -0.1183    0.2238    0.3517 C   0  0  0  0  0  0  0  0  0  0  0  0
    1.2205   -0.0564    0.5985 C   0  0  0  0  0  0  0  0  0  0  0  0
    3.8466    0.4931    1.0535 H   0  0  0  0  0  0  0  0  0  0  0  0
    3.4054   -1.0041    1.9422 H   0  0  0  0  0  0  0  0  0  0  0  0
    4.9589   -0.8909    1.0887 H   0  0  0  0  0  0  0  0  0  0  0  0
    1.9648   -1.8536   -2.1447 H   0  0  0  0  0  0  0  0  0  0  0  0
   -0.4012   -1.3823   -2.6270 H   0  0  0  0  0  0  0  0  0  0  0  0
   -2.5544   -0.3212   -1.9681 H   0  0  0  0  0  0  0  0  0  0  0  0
   -3.7905    2.1677    1.6989 H   0  0  0  0  0  0  0  0  0  0  0  0
    1.6474    0.3246    1.5056 H   0  0  0  0  0  0  0  0  0  0  0  0
  1  2  1  0  0  0  0
  2  3  1  0  0  0  0
  3  4  2  0  0  0  0
  4  5  1  0  0  0  0
  5  6  2  0  0  0  0
  6  7  1  0  0  0  0
  7  8  2  0  0  0  0
  8  9  1  0  0  0  0
  9 10  3  0  0  0  0
  8 11  1  0  0  0  0
 11 12  2  0  0  0  0
 11 13  1  0  0  0  0
 13 14  1  0  0  0  0
 14 15  2  0  0  0  0
 15  3  1  0  0  0  0
 14  6  1  0  0  0  0
  1 16  1  0  0  0  0
  1 17  1  0  0  0  0
  1 18  1  0  0  0  0
  4 19  1  0  0  0  0
  5 20  1  0  0  0  0
  7 21  1  0  0  0  0
 12 22  1  0  0  0  0
 15 23  1  0  0  0  0
M  END
