
  xtb     03012221283D
 energy: -6.820992054073 gnorm: 0.000323248468 xtb: 6.4.1 (afa7bdf)
 35 36  0     0  0            999 V2000
   -7.0361   -0.0255   -0.0258 C   0  0  0  0  0  0  0  0  0  0  0  0
   -5.8588   -0.5971   -0.5351 O   0  0  0  0  0  0  0  0  0  0  0  0
   -4.6742   -0.0195   -0.0661 C   0  0  0  0  0  0  0  0  0  0  0  0
   -4.6098    1.0453    0.8349 C   0  0  0  0  0  0  0  0  0  0  0  0
   -3.3942    1.5417    1.2368 C   0  0  0  0  0  0  0  0  0  0  0  0
   -2.2200    1.0037    0.7631 C   0  0  0  0  0  0  0  0  0  0  0  0
   -2.2431   -0.0594   -0.1379 C   0  0  0  0  0  0  0  0  0  0  0  0
   -1.0266   -0.6581   -0.6621 C   0  0  0  0  0  0  0  0  0  0  0  0
    0.2146   -0.2810   -0.3537 C   0  0  0  0  0  0  0  0  0  0  0  0
    1.3785   -0.9436   -0.9304 C   0  0  0  0  0  0  0  0  0  0  0  0
    1.1639   -1.8627   -1.7029 O   0  0  0  0  0  0  0  0  0  0  0  0
    2.7311   -0.5103   -0.5851 C   0  0  0  0  0  0  0  0  0  0  0  0
    3.8360   -1.1492   -1.1611 C   0  0  0  0  0  0  0  0  0  0  0  0
    3.7033   -2.1721   -2.0462 O   0  0  0  0  0  0  0  0  0  0  0  0
    5.1294   -0.7121   -0.8084 C   0  0  0  0  0  0  0  0  0  0  0  0
    5.3071    0.3046    0.0700 C   0  0  0  0  0  0  0  0  0  0  0  0
    6.6710    0.7547    0.4315 C   0  0  0  0  0  0  0  0  0  0  0  0
    4.2627    0.9561    0.6545 O   0  0  0  0  0  0  0  0  0  0  0  0
    2.9697    0.5760    0.3490 C   0  0  0  0  0  0  0  0  0  0  0  0
    2.0212    1.1561    0.8668 O   0  0  0  0  0  0  0  0  0  0  0  0
   -3.4770   -0.5539   -0.5388 C   0  0  0  0  0  0  0  0  0  0  0  0
   -7.0636   -0.1361    1.0594 H   0  0  0  0  0  0  0  0  0  0  0  0
   -7.8878   -0.5531   -0.4579 H   0  0  0  0  0  0  0  0  0  0  0  0
   -7.0903    1.0269   -0.3092 H   0  0  0  0  0  0  0  0  0  0  0  0
   -5.5141    1.4799    1.2170 H   0  0  0  0  0  0  0  0  0  0  0  0
   -3.3580    2.3653    1.9345 H   0  0  0  0  0  0  0  0  0  0  0  0
   -1.2798    1.4068    1.0912 H   0  0  0  0  0  0  0  0  0  0  0  0
   -1.1306   -1.4740   -1.3557 H   0  0  0  0  0  0  0  0  0  0  0  0
    0.3749    0.5253    0.3328 H   0  0  0  0  0  0  0  0  0  0  0  0
    4.5805   -2.4980   -2.3450 H   0  0  0  0  0  0  0  0  0  0  0  0
    5.9845   -1.1930   -1.2427 H   0  0  0  0  0  0  0  0  0  0  0  0
    7.1976    1.1412   -0.4408 H   0  0  0  0  0  0  0  0  0  0  0  0
    6.6118    1.5509    1.1731 H   0  0  0  0  0  0  0  0  0  0  0  0
    7.2529   -0.0633    0.8556 H   0  0  0  0  0  0  0  0  0  0  0  0
   -3.5271   -1.3723   -1.2316 H   0  0  0  0  0  0  0  0  0  0  0  0
  1  2  1  0  0  0  0
  2  3  1  0  0  0  0
  3  4  2  0  0  0  0
  4  5  1  0  0  0  0
  5  6  2  0  0  0  0
  6  7  1  0  0  0  0
  7  8  1  0  0  0  0
  8  9  2  0  0  0  0
  9 10  1  0  0  0  0
 10 11  2  0  0  0  0
 10 12  1  0  0  0  0
 12 13  2  0  0  0  0
 13 14  1  0  0  0  0
 13 15  1  0  0  0  0
 15 16  2  0  0  0  0
 16 17  1  0  0  0  0
 16 18  1  0  0  0  0
 18 19  1  0  0  0  0
 19 20  2  0  0  0  0
  7 21  2  0  0  0  0
 21  3  1  0  0  0  0
 19 12  1  0  0  0  0
  1 22  1  0  0  0  0
  1 23  1  0  0  0  0
  1 24  1  0  0  0  0
  4 25  1  0  0  0  0
  5 26  1  0  0  0  0
  6 27  1  0  0  0  0
  8 28  1  0  0  0  0
  9 29  1  0  0  0  0
 14 30  1  0  0  0  0
 15 31  1  0  0  0  0
 17 32  1  0  0  0  0
 17 33  1  0  0  0  0
 17 34  1  0  0  0  0
 21 35  1  0  0  0  0
M  END
