
  xtb     03012221323D
 energy: -10.929343344999 gnorm: 0.000196448573 xtb: 6.4.1 (afa7bdf)
 53 56  0     0  0            999 V2000
    9.6508   -1.9626   -0.2133 C   0  0  0  0  0  0  0  0  0  0  0  0
    8.8586   -1.4362   -1.3625 C   0  0  0  0  0  0  0  0  0  0  0  0
    9.3818   -1.2955   -2.4447 O   0  0  0  0  0  0  0  0  0  0  0  0
    7.4371   -1.0890   -1.1704 C   0  0  0  0  0  0  0  0  0  0  0  0
    6.7205   -0.5886   -2.2489 C   0  0  0  0  0  0  0  0  0  0  0  0
    5.3938   -0.2470   -2.1204 C   0  0  0  0  0  0  0  0  0  0  0  0
    4.7386   -0.3966   -0.9026 C   0  0  0  0  0  0  0  0  0  0  0  0
    3.3820   -0.0417   -0.7649 C   0  0  0  0  0  0  0  0  0  0  0  0
    2.2086    0.2744   -0.6428 C   0  0  0  0  0  0  0  0  0  0  0  0
    0.8575    0.6509   -0.4964 C   0  0  0  0  0  0  0  0  0  0  0  0
    0.4495    1.9674   -0.7838 C   0  0  0  0  0  0  0  0  0  0  0  0
   -0.8547    2.3459   -0.6496 C   0  0  0  0  0  0  0  0  0  0  0  0
   -1.8409    1.4329   -0.2316 C   0  0  0  0  0  0  0  0  0  0  0  0
   -3.2227    1.8002   -0.0834 C   0  0  0  0  0  0  0  0  0  0  0  0
   -3.7079    3.0623   -0.5015 N   0  0  0  0  0  0  0  0  0  0  0  0
   -3.3660    3.6321   -1.8097 C   0  0  0  0  0  0  0  0  0  0  0  0
   -4.9001    3.6480    0.1078 C   0  0  0  0  0  0  0  0  0  0  0  0
   -4.0948    0.8726    0.4597 C   0  0  0  0  0  0  0  0  0  0  0  0
   -3.6961   -0.4245    0.8136 C   0  0  0  0  0  0  0  0  0  0  0  0
   -4.6771   -1.3833    1.3723 C   0  0  0  0  0  0  0  0  0  0  0  0
   -4.3347   -2.2211    2.4325 C   0  0  0  0  0  0  0  0  0  0  0  0
   -5.2498   -3.1104    2.9529 C   0  0  0  0  0  0  0  0  0  0  0  0
   -6.5233   -3.1807    2.4257 C   0  0  0  0  0  0  0  0  0  0  0  0
   -6.8809   -2.3593    1.3758 C   0  0  0  0  0  0  0  0  0  0  0  0
   -5.9681   -1.4689    0.8534 C   0  0  0  0  0  0  0  0  0  0  0  0
   -2.3810   -0.7901    0.6205 C   0  0  0  0  0  0  0  0  0  0  0  0
   -1.4344    0.1175    0.1064 C   0  0  0  0  0  0  0  0  0  0  0  0
   -0.0795   -0.2484   -0.0524 C   0  0  0  0  0  0  0  0  0  0  0  0
    5.4555   -0.8998    0.1784 C   0  0  0  0  0  0  0  0  0  0  0  0
    6.7826   -1.2407    0.0490 C   0  0  0  0  0  0  0  0  0  0  0  0
    9.6826   -1.2429    0.6045 H   0  0  0  0  0  0  0  0  0  0  0  0
    9.2314   -2.8978    0.1574 H   0  0  0  0  0  0  0  0  0  0  0  0
   10.6751   -2.1563   -0.5299 H   0  0  0  0  0  0  0  0  0  0  0  0
    7.2305   -0.4729   -3.1903 H   0  0  0  0  0  0  0  0  0  0  0  0
    4.8482    0.1420   -2.9627 H   0  0  0  0  0  0  0  0  0  0  0  0
    1.1914    2.6775   -1.1061 H   0  0  0  0  0  0  0  0  0  0  0  0
   -1.1317    3.3682   -0.8287 H   0  0  0  0  0  0  0  0  0  0  0  0
   -2.8419    4.5777   -1.6855 H   0  0  0  0  0  0  0  0  0  0  0  0
   -4.2712    3.8119   -2.3866 H   0  0  0  0  0  0  0  0  0  0  0  0
   -2.7399    2.9451   -2.3755 H   0  0  0  0  0  0  0  0  0  0  0  0
   -5.7987    3.2320   -0.3438 H   0  0  0  0  0  0  0  0  0  0  0  0
   -4.9125    3.4460    1.1771 H   0  0  0  0  0  0  0  0  0  0  0  0
   -4.9042    4.7269   -0.0352 H   0  0  0  0  0  0  0  0  0  0  0  0
   -5.1257    1.1425    0.5894 H   0  0  0  0  0  0  0  0  0  0  0  0
   -3.3456   -2.1572    2.8521 H   0  0  0  0  0  0  0  0  0  0  0  0
   -4.9717   -3.7505    3.7736 H   0  0  0  0  0  0  0  0  0  0  0  0
   -7.2383   -3.8766    2.8337 H   0  0  0  0  0  0  0  0  0  0  0  0
   -7.8744   -2.4160    0.9630 H   0  0  0  0  0  0  0  0  0  0  0  0
   -6.2432   -0.8380    0.0259 H   0  0  0  0  0  0  0  0  0  0  0  0
   -2.0671   -1.7869    0.8709 H   0  0  0  0  0  0  0  0  0  0  0  0
    0.2268   -1.2501    0.1889 H   0  0  0  0  0  0  0  0  0  0  0  0
    4.9546   -1.0177    1.1239 H   0  0  0  0  0  0  0  0  0  0  0  0
    7.3207   -1.6267    0.8969 H   0  0  0  0  0  0  0  0  0  0  0  0
  1  2  1  0  0  0  0
  2  3  2  0  0  0  0
  2  4  1  0  0  0  0
  4  5  2  0  0  0  0
  5  6  1  0  0  0  0
  6  7  2  0  0  0  0
  7  8  1  0  0  0  0
  8  9  3  0  0  0  0
  9 10  1  0  0  0  0
 10 11  2  0  0  0  0
 11 12  1  0  0  0  0
 12 13  2  0  0  0  0
 13 14  1  0  0  0  0
 14 15  1  0  0  0  0
 15 16  1  0  0  0  0
 15 17  1  0  0  0  0
 14 18  2  0  0  0  0
 18 19  1  0  0  0  0
 19 20  1  0  0  0  0
 20 21  2  0  0  0  0
 21 22  1  0  0  0  0
 22 23  2  0  0  0  0
 23 24  1  0  0  0  0
 24 25  2  0  0  0  0
 19 26  2  0  0  0  0
 26 27  1  0  0  0  0
 27 28  2  0  0  0  0
  7 29  1  0  0  0  0
 29 30  2  0  0  0  0
 30  4  1  0  0  0  0
 28 10  1  0  0  0  0
 27 13  1  0  0  0  0
 25 20  1  0  0  0  0
  1 31  1  0  0  0  0
  1 32  1  0  0  0  0
  1 33  1  0  0  0  0
  5 34  1  0  0  0  0
  6 35  1  0  0  0  0
 11 36  1  0  0  0  0
 12 37  1  0  0  0  0
 16 38  1  0  0  0  0
 16 39  1  0  0  0  0
 16 40  1  0  0  0  0
 17 41  1  0  0  0  0
 17 42  1  0  0  0  0
 17 43  1  0  0  0  0
 18 44  1  0  0  0  0
 21 45  1  0  0  0  0
 22 46  1  0  0  0  0
 23 47  1  0  0  0  0
 24 48  1  0  0  0  0
 25 49  1  0  0  0  0
 26 50  1  0  0  0  0
 28 51  1  0  0  0  0
 29 52  1  0  0  0  0
 30 53  1  0  0  0  0
M  END
