
  xtb     03012221263D
 energy: -5.392250441355 gnorm: 0.000073178081 xtb: 6.4.1 (afa7bdf)
 30 30  0     0  0            999 V2000
   -3.5817    1.1386    2.2472 C   0  0  0  0  0  0  0  0  0  0  0  0
   -2.6403    1.3317    1.0784 C   0  0  0  0  0  0  0  0  0  0  0  0
   -2.1053    0.1163    0.6191 O   0  0  0  0  0  0  0  0  0  0  0  0
   -1.2644    0.3597   -0.4298 C   0  0  0  0  0  0  0  0  0  0  0  0
   -1.0804    1.4645   -0.9040 O   0  0  0  0  0  0  0  0  0  0  0  0
   -0.5898   -0.8353   -1.0159 C   0  0  0  0  0  0  0  0  0  0  0  0
   -1.3751   -1.8611   -1.5180 C   0  0  0  0  0  0  0  0  0  0  0  0
   -0.8027   -2.9608   -2.1159 C   0  0  0  0  0  0  0  0  0  0  0  0
    0.5694   -3.0489   -2.2245 C   0  0  0  0  0  0  0  0  0  0  0  0
    1.3633   -2.0432   -1.7218 C   0  0  0  0  0  0  0  0  0  0  0  0
    0.8048   -0.9364   -1.1037 C   0  0  0  0  0  0  0  0  0  0  0  0
    1.7166    0.0990   -0.5460 C   0  0  0  0  0  0  0  0  0  0  0  0
    2.7547    0.3512   -1.1271 O   0  0  0  0  0  0  0  0  0  0  0  0
    1.3463    0.6838    0.6331 O   0  0  0  0  0  0  0  0  0  0  0  0
    2.2463    1.7089    0.9781 C   0  0  0  0  0  0  0  0  0  0  0  0
    3.5803    1.1821    1.4601 C   0  0  0  0  0  0  0  0  0  0  0  0
   -3.9959    2.0832    2.6028 H   0  0  0  0  0  0  0  0  0  0  0  0
   -3.0649    0.6599    3.0789 H   0  0  0  0  0  0  0  0  0  0  0  0
   -4.4108    0.4888    1.9672 H   0  0  0  0  0  0  0  0  0  0  0  0
   -1.7873    1.9729    1.3426 H   0  0  0  0  0  0  0  0  0  0  0  0
   -3.1426    1.8055    0.2233 H   0  0  0  0  0  0  0  0  0  0  0  0
   -2.4457   -1.7774   -1.4395 H   0  0  0  0  0  0  0  0  0  0  0  0
   -1.4264   -3.7477   -2.5058 H   0  0  0  0  0  0  0  0  0  0  0  0
    1.0195   -3.9037   -2.7009 H   0  0  0  0  0  0  0  0  0  0  0  0
    2.4358   -2.0976   -1.8033 H   0  0  0  0  0  0  0  0  0  0  0  0
    1.7520    2.3180    1.7466 H   0  0  0  0  0  0  0  0  0  0  0  0
    2.3583    2.3428    0.0865 H   0  0  0  0  0  0  0  0  0  0  0  0
    3.4479    0.5335    2.3259 H   0  0  0  0  0  0  0  0  0  0  0  0
    4.2661    1.9847    1.7350 H   0  0  0  0  0  0  0  0  0  0  0  0
    4.0518    0.5869    0.6772 H   0  0  0  0  0  0  0  0  0  0  0  0
  1  2  1  0  0  0  0
  2  3  1  0  0  0  0
  3  4  1  0  0  0  0
  4  5  2  0  0  0  0
  4  6  1  0  0  0  0
  6  7  2  0  0  0  0
  7  8  1  0  0  0  0
  8  9  2  0  0  0  0
  9 10  1  0  0  0  0
 10 11  2  0  0  0  0
 11 12  1  0  0  0  0
 12 13  2  0  0  0  0
 12 14  1  0  0  0  0
 14 15  1  0  0  0  0
 15 16  1  0  0  0  0
 11  6  1  0  0  0  0
  1 17  1  0  0  0  0
  1 18  1  0  0  0  0
  1 19  1  0  0  0  0
  2 20  1  0  0  0  0
  2 21  1  0  0  0  0
  7 22  1  0  0  0  0
  8 23  1  0  0  0  0
  9 24  1  0  0  0  0
 10 25  1  0  0  0  0
 15 26  1  0  0  0  0
 15 27  1  0  0  0  0
 16 28  1  0  0  0  0
 16 29  1  0  0  0  0
 16 30  1  0  0  0  0
M  END
