
  xtb     03012221293D
 energy: -4.970741994866 gnorm: 0.000275811528 xtb: 6.4.1 (afa7bdf)
 24 25  0     0  0            999 V2000
    5.9990    0.1492    0.2908 Cl  0  0  0  0  0  0  0  0  0  0  0  0
    4.2876    0.0211    0.1402 C   0  0  0  0  0  0  0  0  0  0  0  0
    3.4627    0.9172    0.8027 C   0  0  0  0  0  0  0  0  0  0  0  0
    2.0978    0.8170    0.6841 C   0  0  0  0  0  0  0  0  0  0  0  0
    1.5177   -0.1853   -0.1027 C   0  0  0  0  0  0  0  0  0  0  0  0
    0.0828   -0.3255   -0.2541 C   0  0  0  0  0  0  0  0  0  0  0  0
   -0.8394    0.4633    0.3232 C   0  0  0  0  0  0  0  0  0  0  0  0
   -2.2747    0.3357    0.1814 C   0  0  0  0  0  0  0  0  0  0  0  0
   -2.8590   -0.6529   -0.5952 C   0  0  0  0  0  0  0  0  0  0  0  0
   -4.2200   -0.6934   -0.6678 C   0  0  0  0  0  0  0  0  0  0  0  0
   -4.9921    0.1639   -0.0333 N   0  0  0  0  0  0  0  0  0  0  0  0
   -4.3370    1.0590    0.6737 C   0  0  0  0  0  0  0  0  0  0  0  0
   -3.0412    1.2133    0.8317 N   0  0  0  0  0  0  0  0  0  0  0  0
    2.3679   -1.0799   -0.7633 C   0  0  0  0  0  0  0  0  0  0  0  0
    3.7321   -0.9784   -0.6437 C   0  0  0  0  0  0  0  0  0  0  0  0
    3.9106    1.6874    1.4074 H   0  0  0  0  0  0  0  0  0  0  0  0
    1.4723    1.5195    1.2041 H   0  0  0  0  0  0  0  0  0  0  0  0
   -0.2498   -1.1308   -0.8823 H   0  0  0  0  0  0  0  0  0  0  0  0
   -0.5154    1.2702    0.9524 H   0  0  0  0  0  0  0  0  0  0  0  0
   -2.2606   -1.3698   -1.1271 H   0  0  0  0  0  0  0  0  0  0  0  0
   -4.7110   -1.4492   -1.2629 H   0  0  0  0  0  0  0  0  0  0  0  0
   -4.9549    1.7719    1.2021 H   0  0  0  0  0  0  0  0  0  0  0  0
    1.9389   -1.8567   -1.3724 H   0  0  0  0  0  0  0  0  0  0  0  0
    4.3857   -1.6668   -1.1520 H   0  0  0  0  0  0  0  0  0  0  0  0
  1  2  1  0  0  0  0
  2  3  2  0  0  0  0
  3  4  1  0  0  0  0
  4  5  2  0  0  0  0
  5  6  1  0  0  0  0
  6  7  2  0  0  0  0
  7  8  1  0  0  0  0
  8  9  2  0  0  0  0
  9 10  1  0  0  0  0
 10 11  2  0  0  0  0
 11 12  1  0  0  0  0
 12 13  2  0  0  0  0
  5 14  1  0  0  0  0
 14 15  2  0  0  0  0
 15  2  1  0  0  0  0
 13  8  1  0  0  0  0
  3 16  1  0  0  0  0
  4 17  1  0  0  0  0
  6 18  1  0  0  0  0
  7 19  1  0  0  0  0
  9 20  1  0  0  0  0
 10 21  1  0  0  0  0
 12 22  1  0  0  0  0
 14 23  1  0  0  0  0
 15 24  1  0  0  0  0
M  END
