
  xtb     03012221253D
 energy: -12.006861803150 gnorm: 0.000273665908 xtb: 6.4.1 (afa7bdf)
 60 64  0     0  0            999 V2000
   -8.7549    0.4778   -1.4208 C   0  0  0  0  0  0  0  0  0  0  0  0
   -8.4996    0.1965    0.0445 C   0  0  0  0  0  0  0  0  0  0  0  0
   -7.4838   -0.8572    0.2357 N   0  0  0  0  0  0  0  0  0  0  0  0
   -8.0184   -2.2070    0.4991 C   0  0  0  0  0  0  0  0  0  0  0  0
   -8.0501   -2.5230    1.9788 C   0  0  0  0  0  0  0  0  0  0  0  0
   -6.1064   -0.5906    0.1741 C   0  0  0  0  0  0  0  0  0  0  0  0
   -5.1550   -1.6049    0.3961 C   0  0  0  0  0  0  0  0  0  0  0  0
   -3.8165   -1.3451    0.3272 C   0  0  0  0  0  0  0  0  0  0  0  0
   -3.3507   -0.0552    0.0316 C   0  0  0  0  0  0  0  0  0  0  0  0
   -1.9800    0.2586   -0.0568 C   0  0  0  0  0  0  0  0  0  0  0  0
   -1.5550    1.5134   -0.3491 C   0  0  0  0  0  0  0  0  0  0  0  0
   -0.1237    1.7556   -0.4290 C   0  0  0  0  0  0  0  0  0  0  0  0
    0.7528    0.7875   -0.2120 N   0  0  0  0  0  0  0  0  0  0  0  0
    1.9705    1.3515   -0.3687 C   0  0  0  0  0  0  0  0  0  0  0  0
    3.2480    0.7937   -0.2595 C   0  0  0  0  0  0  0  0  0  0  0  0
    4.3514    1.5930   -0.4673 C   0  0  0  0  0  0  0  0  0  0  0  0
    5.7267    1.0538   -0.3742 C   0  0  0  0  0  0  0  0  0  0  0  0
    6.6319    1.6276   -0.9541 O   0  0  0  0  0  0  0  0  0  0  0  0
    5.9354   -0.0913    0.3928 N   0  0  0  0  0  0  0  0  0  0  0  0
    7.1620   -0.7511    0.5781 C   0  0  0  0  0  0  0  0  0  0  0  0
    7.2357   -1.8742    1.3981 C   0  0  0  0  0  0  0  0  0  0  0  0
    8.4304   -2.5325    1.5752 C   0  0  0  0  0  0  0  0  0  0  0  0
    9.5731   -2.0836    0.9425 C   0  0  0  0  0  0  0  0  0  0  0  0
    9.5343   -0.9613    0.1264 C   0  0  0  0  0  0  0  0  0  0  0  0
   10.7541   -0.4819   -0.5796 C   0  0  0  0  0  0  0  0  0  0  0  0
    8.3247   -0.3157   -0.0488 C   0  0  0  0  0  0  0  0  0  0  0  0
    4.1808    2.9533   -0.8030 C   0  0  0  0  0  0  0  0  0  0  0  0
    2.9445    3.5195   -0.9161 C   0  0  0  0  0  0  0  0  0  0  0  0
    1.8122    2.7221   -0.6969 C   0  0  0  0  0  0  0  0  0  0  0  0
    0.4713    2.9605   -0.7282 O   0  0  0  0  0  0  0  0  0  0  0  0
   -2.5408    2.5741   -0.5756 C   0  0  0  0  0  0  0  0  0  0  0  0
   -2.1653    3.7068   -0.8345 O   0  0  0  0  0  0  0  0  0  0  0  0
   -3.8851    2.2693   -0.4904 O   0  0  0  0  0  0  0  0  0  0  0  0
   -4.2815    0.9753   -0.1920 C   0  0  0  0  0  0  0  0  0  0  0  0
   -5.6387    0.6860   -0.1139 C   0  0  0  0  0  0  0  0  0  0  0  0
   -7.8407    0.7878   -1.9296 H   0  0  0  0  0  0  0  0  0  0  0  0
   -9.4986    1.2648   -1.5658 H   0  0  0  0  0  0  0  0  0  0  0  0
   -9.1135   -0.4168   -1.9330 H   0  0  0  0  0  0  0  0  0  0  0  0
   -9.4207   -0.1159    0.5455 H   0  0  0  0  0  0  0  0  0  0  0  0
   -8.1755    1.0948    0.5771 H   0  0  0  0  0  0  0  0  0  0  0  0
   -7.4210   -2.9349   -0.0564 H   0  0  0  0  0  0  0  0  0  0  0  0
   -9.0216   -2.2716    0.0671 H   0  0  0  0  0  0  0  0  0  0  0  0
   -8.4367   -3.5250    2.1784 H   0  0  0  0  0  0  0  0  0  0  0  0
   -8.6793   -1.8112    2.5161 H   0  0  0  0  0  0  0  0  0  0  0  0
   -7.0532   -2.4575    2.4178 H   0  0  0  0  0  0  0  0  0  0  0  0
   -5.4858   -2.6007    0.6280 H   0  0  0  0  0  0  0  0  0  0  0  0
   -3.1010   -2.1305    0.4986 H   0  0  0  0  0  0  0  0  0  0  0  0
   -1.2495   -0.5136    0.1076 H   0  0  0  0  0  0  0  0  0  0  0  0
    3.3463   -0.2514   -0.0419 H   0  0  0  0  0  0  0  0  0  0  0  0
    5.1465   -0.4607    0.9119 H   0  0  0  0  0  0  0  0  0  0  0  0
    6.3438   -2.2227    1.8891 H   0  0  0  0  0  0  0  0  0  0  0  0
    8.4748   -3.4030    2.2088 H   0  0  0  0  0  0  0  0  0  0  0  0
   10.5054   -2.6037    1.0777 H   0  0  0  0  0  0  0  0  0  0  0  0
   11.6600   -0.7975   -0.0617 H   0  0  0  0  0  0  0  0  0  0  0  0
   10.7685    0.6067   -0.6390 H   0  0  0  0  0  0  0  0  0  0  0  0
   10.7917   -0.8752   -1.5957 H   0  0  0  0  0  0  0  0  0  0  0  0
    8.2677    0.5485   -0.6839 H   0  0  0  0  0  0  0  0  0  0  0  0
    5.0657    3.5400   -0.9785 H   0  0  0  0  0  0  0  0  0  0  0  0
    2.8153    4.5561   -1.1727 H   0  0  0  0  0  0  0  0  0  0  0  0
   -6.3229    1.4922   -0.2925 H   0  0  0  0  0  0  0  0  0  0  0  0
  1  2  1  0  0  0  0
  2  3  1  0  0  0  0
  3  4  1  0  0  0  0
  4  5  1  0  0  0  0
  3  6  1  0  0  0  0
  6  7  2  0  0  0  0
  7  8  1  0  0  0  0
  8  9  2  0  0  0  0
  9 10  1  0  0  0  0
 10 11  2  0  0  0  0
 11 12  1  0  0  0  0
 12 13  2  0  0  0  0
 13 14  1  0  0  0  0
 14 15  2  0  0  0  0
 15 16  1  0  0  0  0
 16 17  1  0  0  0  0
 17 18  2  0  0  0  0
 17 19  1  0  0  0  0
 19 20  1  0  0  0  0
 20 21  2  0  0  0  0
 21 22  1  0  0  0  0
 22 23  2  0  0  0  0
 23 24  1  0  0  0  0
 24 25  1  0  0  0  0
 24 26  2  0  0  0  0
 16 27  2  0  0  0  0
 27 28  1  0  0  0  0
 28 29  2  0  0  0  0
 29 30  1  0  0  0  0
 11 31  1  0  0  0  0
 31 32  2  0  0  0  0
 31 33  1  0  0  0  0
 33 34  1  0  0  0  0
 34 35  2  0  0  0  0
 35  6  1  0  0  0  0
 34  9  1  0  0  0  0
 30 12  1  0  0  0  0
 29 14  1  0  0  0  0
 26 20  1  0  0  0  0
  1 36  1  0  0  0  0
  1 37  1  0  0  0  0
  1 38  1  0  0  0  0
  2 39  1  0  0  0  0
  2 40  1  0  0  0  0
  4 41  1  0  0  0  0
  4 42  1  0  0  0  0
  5 43  1  0  0  0  0
  5 44  1  0  0  0  0
  5 45  1  0  0  0  0
  7 46  1  0  0  0  0
  8 47  1  0  0  0  0
 10 48  1  0  0  0  0
 15 49  1  0  0  0  0
 19 50  1  0  0  0  0
 21 51  1  0  0  0  0
 22 52  1  0  0  0  0
 23 53  1  0  0  0  0
 25 54  1  0  0  0  0
 25 55  1  0  0  0  0
 25 56  1  0  0  0  0
 26 57  1  0  0  0  0
 27 58  1  0  0  0  0
 28 59  1  0  0  0  0
 35 60  1  0  0  0  0
M  END
