
  xtb     03012221223D
 energy: -15.752035631520 gnorm: 0.000366998634 xtb: 6.4.1 (afa7bdf)
 85 89  0     0  0            999 V2000
    8.2052   -3.2010   -0.3181 C   0  0  0  0  0  0  0  0  0  0  0  0
    7.4170   -2.7186    0.7435 O   0  0  0  0  0  0  0  0  0  0  0  0
    6.0865   -2.4132    0.3382 C   0  0  0  0  0  0  0  0  0  0  0  0
    5.2425   -1.8768    1.4853 C   0  0  0  0  0  0  0  0  0  0  0  0
    3.8501   -1.5401    1.0664 C   0  0  0  0  0  0  0  0  0  0  0  0
    2.7449   -2.3231    1.2198 C   0  0  0  0  0  0  0  0  0  0  0  0
    1.6710   -1.6091    0.6287 C   0  0  0  0  0  0  0  0  0  0  0  0
    2.1051   -0.4465    0.1256 N   0  0  0  0  0  0  0  0  0  0  0  0
    3.4178   -0.3585    0.3659 C   0  0  0  0  0  0  0  0  0  0  0  0
    4.2686    0.7318    0.0027 C   0  0  0  0  0  0  0  0  0  0  0  0
    3.9645    1.9200   -0.5983 C   0  0  0  0  0  0  0  0  0  0  0  0
    2.7181    2.4341   -1.0721 C   0  0  0  0  0  0  0  0  0  0  0  0
    1.5163    1.7755   -1.1657 N   0  0  0  0  0  0  0  0  0  0  0  0
    0.5191    2.6040   -1.5882 C   0  0  0  0  0  0  0  0  0  0  0  0
    1.1093    3.8544   -1.8096 C   0  0  0  0  0  0  0  0  0  0  0  0
    2.4636    3.7535   -1.5218 C   0  0  0  0  0  0  0  0  0  0  0  0
    3.4457    4.8751   -1.6149 C   0  0  0  0  0  0  0  0  0  0  0  0
    3.8279    5.4363   -0.2499 C   0  0  0  0  0  0  0  0  0  0  0  0
    4.5870    4.5106    0.5184 O   0  0  0  0  0  0  0  0  0  0  0  0
    4.8131    4.9549    1.8348 C   0  0  0  0  0  0  0  0  0  0  0  0
   -0.8637    2.1960   -1.6443 C   0  0  0  0  0  0  0  0  0  0  0  0
   -1.2314    0.9101   -1.6114 N   0  0  0  0  0  0  0  0  0  0  0  0
   -2.5700    0.8685   -1.5144 C   0  0  0  0  0  0  0  0  0  0  0  0
   -3.3741   -0.3515   -1.4814 C   0  0  0  0  0  0  0  0  0  0  0  0
   -4.5587   -0.3311   -2.1756 N   0  0  0  0  0  0  0  0  0  0  0  0
   -5.5447   -1.3246   -2.2621 C   0  0  0  0  0  0  0  0  0  0  0  0
   -6.7373   -1.0355   -3.1071 C   0  0  0  0  0  0  0  0  0  0  0  0
   -5.4631   -2.3907   -1.6987 O   0  0  0  0  0  0  0  0  0  0  0  0
   -3.0233   -1.5358   -0.8103 C   0  0  0  0  0  0  0  0  0  0  0  0
   -1.8532   -1.9208   -0.1593 C   0  0  0  0  0  0  0  0  0  0  0  0
   -0.6371   -1.2656   -0.1290 N   0  0  0  0  0  0  0  0  0  0  0  0
    0.3006   -2.0097    0.5122 C   0  0  0  0  0  0  0  0  0  0  0  0
   -0.3375   -3.1929    0.9558 C   0  0  0  0  0  0  0  0  0  0  0  0
   -1.6460   -3.1562    0.5451 C   0  0  0  0  0  0  0  0  0  0  0  0
   -2.6830   -4.1845    0.8544 C   0  0  0  0  0  0  0  0  0  0  0  0
   -3.5384   -3.7933    2.0503 C   0  0  0  0  0  0  0  0  0  0  0  0
   -4.5513   -4.7317    2.3776 O   0  0  0  0  0  0  0  0  0  0  0  0
   -4.0463   -5.9787    2.7821 C   0  0  0  0  0  0  0  0  0  0  0  0
   -3.0867    2.2094   -1.4889 C   0  0  0  0  0  0  0  0  0  0  0  0
   -4.4718    2.6510   -1.1478 C   0  0  0  0  0  0  0  0  0  0  0  0
   -4.7168    2.6006    0.3556 C   0  0  0  0  0  0  0  0  0  0  0  0
   -4.6222    1.2736    0.8614 O   0  0  0  0  0  0  0  0  0  0  0  0
   -4.7265    1.2070    2.2637 C   0  0  0  0  0  0  0  0  0  0  0  0
   -2.0003    3.0337   -1.5753 C   0  0  0  0  0  0  0  0  0  0  0  0
    7.7680   -4.1159   -0.7200 H   0  0  0  0  0  0  0  0  0  0  0  0
    9.2056   -3.4172    0.0586 H   0  0  0  0  0  0  0  0  0  0  0  0
    8.2732   -2.4466   -1.1031 H   0  0  0  0  0  0  0  0  0  0  0  0
    6.1378   -1.6831   -0.4775 H   0  0  0  0  0  0  0  0  0  0  0  0
    5.6379   -3.3236   -0.0756 H   0  0  0  0  0  0  0  0  0  0  0  0
    5.7249   -0.9943    1.9154 H   0  0  0  0  0  0  0  0  0  0  0  0
    5.2157   -2.6153    2.2921 H   0  0  0  0  0  0  0  0  0  0  0  0
    2.6988   -3.2914    1.6860 H   0  0  0  0  0  0  0  0  0  0  0  0
    5.3000    0.5935    0.2800 H   0  0  0  0  0  0  0  0  0  0  0  0
    4.7815    2.6173   -0.6994 H   0  0  0  0  0  0  0  0  0  0  0  0
    1.3552    0.8360   -0.8167 H   0  0  0  0  0  0  0  0  0  0  0  0
    0.5975    4.7422   -2.1408 H   0  0  0  0  0  0  0  0  0  0  0  0
    3.0256    5.6642   -2.2484 H   0  0  0  0  0  0  0  0  0  0  0  0
    4.3460    4.5245   -2.1284 H   0  0  0  0  0  0  0  0  0  0  0  0
    2.9270    5.6924    0.3189 H   0  0  0  0  0  0  0  0  0  0  0  0
    4.4257    6.3506   -0.3471 H   0  0  0  0  0  0  0  0  0  0  0  0
    5.4209    4.2136    2.3548 H   0  0  0  0  0  0  0  0  0  0  0  0
    5.3431    5.9079    1.8205 H   0  0  0  0  0  0  0  0  0  0  0  0
    3.8618    5.0663    2.3564 H   0  0  0  0  0  0  0  0  0  0  0  0
   -4.7058    0.4789   -2.7698 H   0  0  0  0  0  0  0  0  0  0  0  0
   -7.6448   -1.3328   -2.5839 H   0  0  0  0  0  0  0  0  0  0  0  0
   -6.8120    0.0248   -3.3446 H   0  0  0  0  0  0  0  0  0  0  0  0
   -6.6862   -1.5964   -4.0392 H   0  0  0  0  0  0  0  0  0  0  0  0
   -3.7948   -2.2815   -0.8182 H   0  0  0  0  0  0  0  0  0  0  0  0
   -0.4777   -0.3780   -0.5982 H   0  0  0  0  0  0  0  0  0  0  0  0
    0.1258   -3.9865    1.5146 H   0  0  0  0  0  0  0  0  0  0  0  0
   -3.3231   -4.3483   -0.0174 H   0  0  0  0  0  0  0  0  0  0  0  0
   -2.1888   -5.1413    1.0421 H   0  0  0  0  0  0  0  0  0  0  0  0
   -2.9194   -3.6338    2.9409 H   0  0  0  0  0  0  0  0  0  0  0  0
   -4.0483   -2.8417    1.8555 H   0  0  0  0  0  0  0  0  0  0  0  0
   -3.2913   -5.8472    3.5586 H   0  0  0  0  0  0  0  0  0  0  0  0
   -3.6180   -6.5051    1.9286 H   0  0  0  0  0  0  0  0  0  0  0  0
   -4.8695   -6.5723    3.1820 H   0  0  0  0  0  0  0  0  0  0  0  0
   -5.2053    2.0155   -1.6476 H   0  0  0  0  0  0  0  0  0  0  0  0
   -4.6336    3.6633   -1.5333 H   0  0  0  0  0  0  0  0  0  0  0  0
   -3.9763    3.2133    0.8821 H   0  0  0  0  0  0  0  0  0  0  0  0
   -5.7097    2.9871    0.6145 H   0  0  0  0  0  0  0  0  0  0  0  0
   -4.6756    0.1607    2.5647 H   0  0  0  0  0  0  0  0  0  0  0  0
   -5.6787    1.6282    2.5854 H   0  0  0  0  0  0  0  0  0  0  0  0
   -3.9020    1.7532    2.7217 H   0  0  0  0  0  0  0  0  0  0  0  0
   -2.0011    4.1078   -1.5073 H   0  0  0  0  0  0  0  0  0  0  0  0
  1  2  1  0  0  0  0
  2  3  1  0  0  0  0
  3  4  1  0  0  0  0
  4  5  1  0  0  0  0
  5  6  2  0  0  0  0
  6  7  1  0  0  0  0
  7  8  2  0  0  0  0
  8  9  1  0  0  0  0
  9 10  2  0  0  0  0
 10 11  1  0  0  0  0
 11 12  2  0  0  0  0
 12 13  1  0  0  0  0
 13 14  1  0  0  0  0
 14 15  1  0  0  0  0
 15 16  2  0  0  0  0
 16 17  1  0  0  0  0
 17 18  1  0  0  0  0
 18 19  1  0  0  0  0
 19 20  1  0  0  0  0
 14 21  2  0  0  0  0
 21 22  1  0  0  0  0
 22 23  2  0  0  0  0
 23 24  1  0  0  0  0
 24 25  1  0  0  0  0
 25 26  1  0  0  0  0
 26 27  1  0  0  0  0
 26 28  2  0  0  0  0
 24 29  2  0  0  0  0
 29 30  1  0  0  0  0
 30 31  1  0  0  0  0
 31 32  1  0  0  0  0
 32 33  2  0  0  0  0
 33 34  1  0  0  0  0
 34 35  1  0  0  0  0
 35 36  1  0  0  0  0
 36 37  1  0  0  0  0
 37 38  1  0  0  0  0
 23 39  1  0  0  0  0
 39 40  1  0  0  0  0
 40 41  1  0  0  0  0
 41 42  1  0  0  0  0
 42 43  1  0  0  0  0
 39 44  2  0  0  0  0
  9  5  1  0  0  0  0
 16 12  1  0  0  0  0
 44 21  1  0  0  0  0
 32  7  1  0  0  0  0
 34 30  2  0  0  0  0
  1 45  1  0  0  0  0
  1 46  1  0  0  0  0
  1 47  1  0  0  0  0
  3 48  1  0  0  0  0
  3 49  1  0  0  0  0
  4 50  1  0  0  0  0
  4 51  1  0  0  0  0
  6 52  1  0  0  0  0
 10 53  1  0  0  0  0
 11 54  1  0  0  0  0
 13 55  1  0  0  0  0
 15 56  1  0  0  0  0
 17 57  1  0  0  0  0
 17 58  1  0  0  0  0
 18 59  1  0  0  0  0
 18 60  1  0  0  0  0
 20 61  1  0  0  0  0
 20 62  1  0  0  0  0
 20 63  1  0  0  0  0
 25 64  1  0  0  0  0
 27 65  1  0  0  0  0
 27 66  1  0  0  0  0
 27 67  1  0  0  0  0
 29 68  1  0  0  0  0
 31 69  1  0  0  0  0
 33 70  1  0  0  0  0
 35 71  1  0  0  0  0
 35 72  1  0  0  0  0
 36 73  1  0  0  0  0
 36 74  1  0  0  0  0
 38 75  1  0  0  0  0
 38 76  1  0  0  0  0
 38 77  1  0  0  0  0
 40 78  1  0  0  0  0
 40 79  1  0  0  0  0
 41 80  1  0  0  0  0
 41 81  1  0  0  0  0
 43 82  1  0  0  0  0
 43 83  1  0  0  0  0
 43 84  1  0  0  0  0
 44 85  1  0  0  0  0
M  END
