
  xtb     03012221233D
 energy: -6.665313866756 gnorm: 0.000294369841 xtb: 6.4.1 (afa7bdf)
 31 35  0     0  0            999 V2000
   -1.7924   -2.6417   -0.4561 F   0  0  0  0  0  0  0  0  0  0  0  0
   -1.8283   -1.6281    0.4913 B   0  0  0  0  0  4  0  0  0  0  0  0
   -1.8032   -2.1151    1.7909 F   0  0  0  0  0  0  0  0  0  0  0  0
   -3.0594   -0.7299    0.2754 N   0  0  0  0  0  0  0  0  0  0  0  0
   -4.4036   -0.7472    0.2740 C   0  0  0  0  0  0  0  0  0  0  0  0
   -4.8084    0.5571   -0.0317 C   0  0  0  0  0  0  0  0  0  0  0  0
   -3.6796    1.3508   -0.2118 C   0  0  0  0  0  0  0  0  0  0  0  0
   -2.5663    0.5218   -0.0139 C   0  0  0  0  0  0  0  0  0  0  0  0
   -1.1289    0.5595   -0.0165 C   0  0  0  0  0  0  0  0  0  0  0  0
   -0.6497   -0.6715    0.2726 N   0  0  0  0  0  4  0  0  0  0  0  0
    0.6982   -0.9283    0.3374 C   0  0  0  0  0  0  0  0  0  0  0  0
    1.1983   -2.1891    0.6331 C   0  0  0  0  0  0  0  0  0  0  0  0
    2.5643   -2.4043    0.6883 C   0  0  0  0  0  0  0  0  0  0  0  0
    3.4484   -1.3781    0.4524 C   0  0  0  0  0  0  0  0  0  0  0  0
    2.9864   -0.0808    0.1483 C   0  0  0  0  0  0  0  0  0  0  0  0
    3.8483    1.0050   -0.1016 C   0  0  0  0  0  0  0  0  0  0  0  0
    3.3423    2.2482   -0.3933 C   0  0  0  0  0  0  0  0  0  0  0  0
    1.9749    2.4671   -0.4495 C   0  0  0  0  0  0  0  0  0  0  0  0
    1.0799    1.4300   -0.2111 C   0  0  0  0  0  0  0  0  0  0  0  0
    1.5907    0.1425    0.0911 C   0  0  0  0  0  0  0  0  0  0  0  0
   -0.2953    1.6046   -0.2571 N   0  0  0  0  0  0  0  0  0  0  0  0
   -5.0148   -1.6118    0.4733 H   0  0  0  0  0  0  0  0  0  0  0  0
   -5.8305    0.8912   -0.1137 H   0  0  0  0  0  0  0  0  0  0  0  0
   -3.6540    2.3991   -0.4559 H   0  0  0  0  0  0  0  0  0  0  0  0
    0.4984   -2.9860    0.8161 H   0  0  0  0  0  0  0  0  0  0  0  0
    2.9368   -3.3885    0.9190 H   0  0  0  0  0  0  0  0  0  0  0  0
    4.5084   -1.5555    0.4976 H   0  0  0  0  0  0  0  0  0  0  0  0
    4.9116    0.8470   -0.0608 H   0  0  0  0  0  0  0  0  0  0  0  0
    4.0175    3.0662   -0.5815 H   0  0  0  0  0  0  0  0  0  0  0  0
    1.5898    3.4448   -0.6789 H   0  0  0  0  0  0  0  0  0  0  0  0
   -0.6798    2.5210   -0.4725 H   0  0  0  0  0  0  0  0  0  0  0  0
  1  2  1  0  0  0  0
  2  3  1  0  0  0  0
  2  4  1  0  0  0  0
  4  5  1  0  0  0  0
  5  6  2  0  0  0  0
  6  7  1  0  0  0  0
  7  8  2  0  0  0  0
  8  9  1  0  0  0  0
  9 10  2  0  0  0  0
 10 11  1  0  0  0  0
 11 12  2  0  0  0  0
 12 13  1  0  0  0  0
 13 14  2  0  0  0  0
 14 15  1  0  0  0  0
 15 16  2  0  0  0  0
 16 17  1  0  0  0  0
 17 18  2  0  0  0  0
 18 19  1  0  0  0  0
 19 20  2  0  0  0  0
 19 21  1  0  0  0  0
 10  2  1  0  0  0  0
 20 11  1  0  0  0  0
  8  4  1  0  0  0  0
 21  9  1  0  0  0  0
 20 15  1  0  0  0  0
  5 22  1  0  0  0  0
  6 23  1  0  0  0  0
  7 24  1  0  0  0  0
 12 25  1  0  0  0  0
 13 26  1  0  0  0  0
 14 27  1  0  0  0  0
 16 28  1  0  0  0  0
 17 29  1  0  0  0  0
 18 30  1  0  0  0  0
 21 31  1  0  0  0  0
M  CHG  1   2  -1
M  CHG  1  10   1
M  END
