
  xtb     03012221203D
 energy: -12.719599039528 gnorm: 0.000194797475 xtb: 6.4.1 (afa7bdf)
 56 61  0     0  0            999 V2000
   -1.3930   -4.6189   -2.2980 N   0  0  0  0  0  0  0  0  0  0  0  0
   -0.5462   -3.8891   -1.9717 C   0  0  0  0  0  0  0  0  0  0  0  0
    0.4283   -2.9978   -1.5434 C   0  0  0  0  0  0  0  0  0  0  0  0
    1.7377   -3.4596   -1.6264 C   0  0  0  0  0  0  0  0  0  0  0  0
    2.8481   -3.8055   -1.6892 N   0  0  0  0  0  0  0  0  0  0  0  0
    0.1663   -1.7469   -1.0297 C   0  0  0  0  0  0  0  0  0  0  0  0
    1.3077   -0.9067   -0.5866 C   0  0  0  0  0  0  0  0  0  0  0  0
    2.3568   -0.5997   -1.4554 C   0  0  0  0  0  0  0  0  0  0  0  0
    3.4209    0.1573   -1.0346 C   0  0  0  0  0  0  0  0  0  0  0  0
    3.4769    0.6375    0.2680 C   0  0  0  0  0  0  0  0  0  0  0  0
    4.6099    1.4006    0.7163 N   0  0  0  0  0  0  0  0  0  0  0  0
    4.5727    2.5938    1.4366 C   0  0  0  0  0  0  0  0  0  0  0  0
    5.8431    3.0220    1.6708 C   0  0  0  0  0  0  0  0  0  0  0  0
    6.7371    2.0758    1.0943 C   0  0  0  0  0  0  0  0  0  0  0  0
    8.1377    2.0030    1.0437 C   0  0  0  0  0  0  0  0  0  0  0  0
    8.7173    0.9304    0.4184 C   0  0  0  0  0  0  0  0  0  0  0  0
    7.9359   -0.0814   -0.1574 C   0  0  0  0  0  0  0  0  0  0  0  0
    6.5671   -0.0266   -0.1189 C   0  0  0  0  0  0  0  0  0  0  0  0
    5.9580    1.0660    0.5054 C   0  0  0  0  0  0  0  0  0  0  0  0
    2.4290    0.3515    1.1347 C   0  0  0  0  0  0  0  0  0  0  0  0
    1.3645   -0.4083    0.7169 C   0  0  0  0  0  0  0  0  0  0  0  0
   -1.1905   -1.1810   -0.8898 C   0  0  0  0  0  0  0  0  0  0  0  0
   -2.3569   -1.9506   -0.9132 C   0  0  0  0  0  0  0  0  0  0  0  0
   -3.5938   -1.3805   -0.7439 C   0  0  0  0  0  0  0  0  0  0  0  0
   -3.7251   -0.0123   -0.5494 C   0  0  0  0  0  0  0  0  0  0  0  0
   -5.0206    0.5871   -0.3787 N   0  0  0  0  0  0  0  0  0  0  0  0
   -5.4686    1.7539   -0.9968 C   0  0  0  0  0  0  0  0  0  0  0  0
   -6.7529    2.0029   -0.6229 C   0  0  0  0  0  0  0  0  0  0  0  0
   -7.1549    0.9716    0.2719 C   0  0  0  0  0  0  0  0  0  0  0  0
   -8.3528    0.7319    0.9627 C   0  0  0  0  0  0  0  0  0  0  0  0
   -8.4305   -0.3637    1.7815 C   0  0  0  0  0  0  0  0  0  0  0  0
   -7.3393   -1.2302    1.9361 C   0  0  0  0  0  0  0  0  0  0  0  0
   -6.1621   -1.0123    1.2688 C   0  0  0  0  0  0  0  0  0  0  0  0
   -6.0668    0.0951    0.4207 C   0  0  0  0  0  0  0  0  0  0  0  0
   -2.5782    0.7695   -0.5425 C   0  0  0  0  0  0  0  0  0  0  0  0
   -1.3414    0.1969   -0.7079 C   0  0  0  0  0  0  0  0  0  0  0  0
    2.3265   -0.9798   -2.4619 H   0  0  0  0  0  0  0  0  0  0  0  0
    4.2240    0.3918   -1.7112 H   0  0  0  0  0  0  0  0  0  0  0  0
    3.6658    3.0883    1.7386 H   0  0  0  0  0  0  0  0  0  0  0  0
    6.1315    3.9136    2.2011 H   0  0  0  0  0  0  0  0  0  0  0  0
    8.7306    2.7794    1.4938 H   0  0  0  0  0  0  0  0  0  0  0  0
    9.7912    0.8589    0.3715 H   0  0  0  0  0  0  0  0  0  0  0  0
    8.4208   -0.9169   -0.6348 H   0  0  0  0  0  0  0  0  0  0  0  0
    5.9622   -0.8080   -0.5429 H   0  0  0  0  0  0  0  0  0  0  0  0
    2.4762    0.7177    2.1454 H   0  0  0  0  0  0  0  0  0  0  0  0
    0.5654   -0.6441    1.3981 H   0  0  0  0  0  0  0  0  0  0  0  0
   -2.2989   -3.0083   -1.0848 H   0  0  0  0  0  0  0  0  0  0  0  0
   -4.4821   -1.9862   -0.7891 H   0  0  0  0  0  0  0  0  0  0  0  0
   -4.8777    2.3414   -1.6781 H   0  0  0  0  0  0  0  0  0  0  0  0
   -7.3653    2.8289   -0.9425 H   0  0  0  0  0  0  0  0  0  0  0  0
   -9.1837    1.4042    0.8422 H   0  0  0  0  0  0  0  0  0  0  0  0
   -9.3429   -0.5627    2.3185 H   0  0  0  0  0  0  0  0  0  0  0  0
   -7.4287   -2.0802    2.5923 H   0  0  0  0  0  0  0  0  0  0  0  0
   -5.3176   -1.6652    1.3960 H   0  0  0  0  0  0  0  0  0  0  0  0
   -2.6737    1.8313   -0.3963 H   0  0  0  0  0  0  0  0  0  0  0  0
   -0.4649    0.8205   -0.7041 H   0  0  0  0  0  0  0  0  0  0  0  0
  1  2  3  0  0  0  0
  2  3  1  0  0  0  0
  3  4  1  0  0  0  0
  4  5  3  0  0  0  0
  3  6  2  0  0  0  0
  6  7  1  0  0  0  0
  7  8  2  0  0  0  0
  8  9  1  0  0  0  0
  9 10  2  0  0  0  0
 10 11  1  0  0  0  0
 11 12  1  0  0  0  0
 12 13  2  0  0  0  0
 13 14  1  0  0  0  0
 14 15  2  0  0  0  0
 15 16  1  0  0  0  0
 16 17  2  0  0  0  0
 17 18  1  0  0  0  0
 18 19  2  0  0  0  0
 10 20  1  0  0  0  0
 20 21  2  0  0  0  0
  6 22  1  0  0  0  0
 22 23  2  0  0  0  0
 23 24  1  0  0  0  0
 24 25  2  0  0  0  0
 25 26  1  0  0  0  0
 26 27  1  0  0  0  0
 27 28  2  0  0  0  0
 28 29  1  0  0  0  0
 29 30  2  0  0  0  0
 30 31  1  0  0  0  0
 31 32  2  0  0  0  0
 32 33  1  0  0  0  0
 33 34  2  0  0  0  0
 25 35  1  0  0  0  0
 35 36  2  0  0  0  0
 21  7  1  0  0  0  0
 36 22  1  0  0  0  0
 19 11  1  0  0  0  0
 34 26  1  0  0  0  0
 19 14  1  0  0  0  0
 34 29  1  0  0  0  0
  8 37  1  0  0  0  0
  9 38  1  0  0  0  0
 12 39  1  0  0  0  0
 13 40  1  0  0  0  0
 15 41  1  0  0  0  0
 16 42  1  0  0  0  0
 17 43  1  0  0  0  0
 18 44  1  0  0  0  0
 20 45  1  0  0  0  0
 21 46  1  0  0  0  0
 23 47  1  0  0  0  0
 24 48  1  0  0  0  0
 27 49  1  0  0  0  0
 28 50  1  0  0  0  0
 30 51  1  0  0  0  0
 31 52  1  0  0  0  0
 32 53  1  0  0  0  0
 33 54  1  0  0  0  0
 35 55  1  0  0  0  0
 36 56  1  0  0  0  0
M  END
