
  xtb     03012221233D
 energy: -8.598781699066 gnorm: 0.000368862197 xtb: 6.4.1 (afa7bdf)
 43 45  0     0  0            999 V2000
    6.9633   -0.2207   -0.4918 C   0  0  0  0  0  0  0  0  0  0  0  0
    5.8546    0.6789   -0.9929 C   0  0  0  0  0  0  0  0  0  0  0  0
    4.5817    0.1160   -0.7879 O   0  0  0  0  0  0  0  0  0  0  0  0
    4.1971    0.2894    0.5137 C   0  0  0  0  0  0  0  0  0  0  0  0
    4.9827    0.5116    1.4164 O   0  0  0  0  0  0  0  0  0  0  0  0
    2.7469    0.1995    0.7710 C   0  0  0  0  0  0  0  0  0  0  0  0
    2.2959    0.2952    2.0854 C   0  0  0  0  0  0  0  0  0  0  0  0
    1.8437    0.3669    3.1539 N   0  0  0  0  0  0  0  0  0  0  0  0
    1.9168    0.0583   -0.2885 C   0  0  0  0  0  0  0  0  0  0  0  0
    0.4773   -0.0097   -0.3003 C   0  0  0  0  0  0  0  0  0  0  0  0
   -0.2965    0.0508    0.8513 C   0  0  0  0  0  0  0  0  0  0  0  0
   -1.6768   -0.0198    0.7598 C   0  0  0  0  0  0  0  0  0  0  0  0
   -2.7116    0.0148    1.7617 C   0  0  0  0  0  0  0  0  0  0  0  0
   -2.6629    0.1296    3.1503 C   0  0  0  0  0  0  0  0  0  0  0  0
   -3.8423    0.1325    3.8516 C   0  0  0  0  0  0  0  0  0  0  0  0
   -5.0684    0.0229    3.1897 C   0  0  0  0  0  0  0  0  0  0  0  0
   -5.1348   -0.0915    1.8217 C   0  0  0  0  0  0  0  0  0  0  0  0
   -3.9451   -0.0969    1.0954 C   0  0  0  0  0  0  0  0  0  0  0  0
   -3.6879   -0.2002   -0.2835 N   0  0  0  0  0  0  0  0  0  0  0  0
   -4.6880   -0.3217   -1.3374 C   0  0  0  0  0  0  0  0  0  0  0  0
   -2.3065   -0.1517   -0.4917 C   0  0  0  0  0  0  0  0  0  0  0  0
   -1.5505   -0.2148   -1.6559 C   0  0  0  0  0  0  0  0  0  0  0  0
   -0.1654   -0.1452   -1.5806 C   0  0  0  0  0  0  0  0  0  0  0  0
    0.6743   -0.1979   -2.6915 O   0  0  0  0  0  0  0  0  0  0  0  0
    0.0187   -0.3252   -3.9294 C   0  0  0  0  0  0  0  0  0  0  0  0
    6.9270   -1.1902   -0.9895 H   0  0  0  0  0  0  0  0  0  0  0  0
    7.9526    0.2111   -0.6528 H   0  0  0  0  0  0  0  0  0  0  0  0
    6.8398   -0.4011    0.5776 H   0  0  0  0  0  0  0  0  0  0  0  0
    5.8671    1.6532   -0.4846 H   0  0  0  0  0  0  0  0  0  0  0  0
    5.9486    0.8751   -2.0690 H   0  0  0  0  0  0  0  0  0  0  0  0
    2.3848   -0.0105   -1.2574 H   0  0  0  0  0  0  0  0  0  0  0  0
    0.1466    0.1521    1.8213 H   0  0  0  0  0  0  0  0  0  0  0  0
   -1.7110    0.2134    3.6476 H   0  0  0  0  0  0  0  0  0  0  0  0
   -3.8234    0.2201    4.9246 H   0  0  0  0  0  0  0  0  0  0  0  0
   -5.9797    0.0282    3.7655 H   0  0  0  0  0  0  0  0  0  0  0  0
   -6.0780   -0.1749    1.3143 H   0  0  0  0  0  0  0  0  0  0  0  0
   -4.4632   -1.1822   -1.9630 H   0  0  0  0  0  0  0  0  0  0  0  0
   -5.6793   -0.4514   -0.9117 H   0  0  0  0  0  0  0  0  0  0  0  0
   -4.6852    0.5745   -1.9533 H   0  0  0  0  0  0  0  0  0  0  0  0
   -2.0511   -0.3155   -2.5984 H   0  0  0  0  0  0  0  0  0  0  0  0
    0.7736   -0.3505   -4.7161 H   0  0  0  0  0  0  0  0  0  0  0  0
   -0.5502   -1.2554   -3.9532 H   0  0  0  0  0  0  0  0  0  0  0  0
   -0.6351    0.5324   -4.0927 H   0  0  0  0  0  0  0  0  0  0  0  0
  1  2  1  0  0  0  0
  2  3  1  0  0  0  0
  3  4  1  0  0  0  0
  4  5  2  0  0  0  0
  4  6  1  0  0  0  0
  6  7  1  0  0  0  0
  7  8  3  0  0  0  0
  6  9  2  0  0  0  0
  9 10  1  0  0  0  0
 10 11  2  0  0  0  0
 11 12  1  0  0  0  0
 12 13  1  0  0  0  0
 13 14  2  0  0  0  0
 14 15  1  0  0  0  0
 15 16  2  0  0  0  0
 16 17  1  0  0  0  0
 17 18  2  0  0  0  0
 18 19  1  0  0  0  0
 19 20  1  0  0  0  0
 19 21  1  0  0  0  0
 21 22  1  0  0  0  0
 22 23  2  0  0  0  0
 23 24  1  0  0  0  0
 24 25  1  0  0  0  0
 23 10  1  0  0  0  0
 21 12  2  0  0  0  0
 18 13  1  0  0  0  0
  1 26  1  0  0  0  0
  1 27  1  0  0  0  0
  1 28  1  0  0  0  0
  2 29  1  0  0  0  0
  2 30  1  0  0  0  0
  9 31  1  0  0  0  0
 11 32  1  0  0  0  0
 14 33  1  0  0  0  0
 15 34  1  0  0  0  0
 16 35  1  0  0  0  0
 17 36  1  0  0  0  0
 20 37  1  0  0  0  0
 20 38  1  0  0  0  0
 20 39  1  0  0  0  0
 22 40  1  0  0  0  0
 25 41  1  0  0  0  0
 25 42  1  0  0  0  0
 25 43  1  0  0  0  0
M  END
