
  xtb     03012221263D
 energy: -11.913804071167 gnorm: 0.000267242842 xtb: 6.4.1 (afa7bdf)
 64 69  0     0  0            999 V2000
   -0.4651   -0.5239   -3.0647 C   0  0  0  0  0  0  0  0  0  0  0  0
    0.6328   -0.3801   -2.0800 C   0  0  0  0  0  0  0  0  0  0  0  0
    0.5488    0.2408   -0.7680 C   0  0  0  0  0  0  0  0  0  0  0  0
   -0.6120    0.7441   -0.1244 C   0  0  0  0  0  0  0  0  0  0  0  0
   -0.7335    1.9737    0.6418 C   0  0  0  0  0  0  0  0  0  0  0  0
    0.3080    3.0123    0.8223 C   0  0  0  0  0  0  0  0  0  0  0  0
   -2.0358    2.0934    1.0656 C   0  0  0  0  0  0  0  0  0  0  0  0
   -2.6458    3.1974    1.8276 C   0  0  0  0  0  0  0  0  0  0  0  0
   -2.7224    0.9981    0.5908 N   0  0  0  0  0  4  0  0  0  0  0  0
   -1.9354    0.1438   -0.1250 C   0  0  0  0  0  0  0  0  0  0  0  0
   -2.3790   -1.0781   -0.6062 C   0  0  0  0  0  0  0  0  0  0  0  0
   -3.7031   -1.4127   -0.4147 C   0  0  0  0  0  0  0  0  0  0  0  0
   -4.4351   -2.5693   -0.7915 C   0  0  0  0  0  0  0  0  0  0  0  0
   -5.7343   -2.4065   -0.3563 C   0  0  0  0  0  0  0  0  0  0  0  0
   -6.8452   -3.3729   -0.5296 C   0  0  0  0  0  0  0  0  0  0  0  0
   -5.8309   -1.1448    0.3057 C   0  0  0  0  0  0  0  0  0  0  0  0
   -7.0153   -0.5425    0.9441 C   0  0  0  0  0  0  0  0  0  0  0  0
   -4.6179   -0.5925    0.2500 N   0  0  0  0  0  0  0  0  0  0  0  0
   -4.2156    0.7596    0.8547 B   0  0  0  0  0  4  0  0  0  0  0  0
   -4.9583    1.7780    0.2437 F   0  0  0  0  0  0  0  0  0  0  0  0
   -4.4396    0.7285    2.2373 F   0  0  0  0  0  0  0  0  0  0  0  0
    1.9081    0.2713   -0.2551 C   0  0  0  0  0  0  0  0  0  0  0  0
    2.4033    0.6488    0.9832 C   0  0  0  0  0  0  0  0  0  0  0  0
    3.7569    0.5171    1.2120 C   0  0  0  0  0  0  0  0  0  0  0  0
    4.5420    0.8231    2.3546 C   0  0  0  0  0  0  0  0  0  0  0  0
    5.8512    0.4971    2.0665 C   0  0  0  0  0  0  0  0  0  0  0  0
    7.0153    0.6857    2.9646 C   0  0  0  0  0  0  0  0  0  0  0  0
    5.9038   -0.0100    0.7321 C   0  0  0  0  0  0  0  0  0  0  0  0
    7.0825   -0.4898   -0.0121 C   0  0  0  0  0  0  0  0  0  0  0  0
    4.6536    0.0125    0.2673 N   0  0  0  0  0  0  0  0  0  0  0  0
    4.1979   -0.4714   -1.1161 B   0  0  0  0  0  4  0  0  0  0  0  0
    4.8269    0.2967   -2.1041 F   0  0  0  0  0  0  0  0  0  0  0  0
    4.5122   -1.8298   -1.2535 F   0  0  0  0  0  0  0  0  0  0  0  0
    2.6779   -0.2915   -1.2310 N   0  0  0  0  0  4  0  0  0  0  0  0
    1.9482   -0.6941   -2.3273 C   0  0  0  0  0  0  0  0  0  0  0  0
    2.5267   -1.2935   -3.5429 C   0  0  0  0  0  0  0  0  0  0  0  0
   -0.7256   -1.5721   -3.2102 H   0  0  0  0  0  0  0  0  0  0  0  0
   -1.3576    0.0120   -2.7429 H   0  0  0  0  0  0  0  0  0  0  0  0
   -0.1711   -0.1151   -4.0314 H   0  0  0  0  0  0  0  0  0  0  0  0
   -0.0756    3.9941    0.5450 H   0  0  0  0  0  0  0  0  0  0  0  0
    0.6353    3.0622    1.8606 H   0  0  0  0  0  0  0  0  0  0  0  0
    1.1772    2.8138    0.1959 H   0  0  0  0  0  0  0  0  0  0  0  0
   -2.0766    3.4102    2.7344 H   0  0  0  0  0  0  0  0  0  0  0  0
   -2.6937    4.1066    1.2258 H   0  0  0  0  0  0  0  0  0  0  0  0
   -3.6644    2.9328    2.1195 H   0  0  0  0  0  0  0  0  0  0  0  0
   -1.7039   -1.7652   -1.0778 H   0  0  0  0  0  0  0  0  0  0  0  0
   -4.0436   -3.4190   -1.3210 H   0  0  0  0  0  0  0  0  0  0  0  0
   -7.2070   -3.7247    0.4367 H   0  0  0  0  0  0  0  0  0  0  0  0
   -7.6810   -2.9125   -1.0570 H   0  0  0  0  0  0  0  0  0  0  0  0
   -6.5232   -4.2415   -1.1044 H   0  0  0  0  0  0  0  0  0  0  0  0
   -7.8172   -0.3976    0.2206 H   0  0  0  0  0  0  0  0  0  0  0  0
   -6.7574    0.4300    1.3647 H   0  0  0  0  0  0  0  0  0  0  0  0
   -7.3858   -1.1736    1.7515 H   0  0  0  0  0  0  0  0  0  0  0  0
    1.7489    0.9949    1.7592 H   0  0  0  0  0  0  0  0  0  0  0  0
    4.1788    1.2390    3.2770 H   0  0  0  0  0  0  0  0  0  0  0  0
    6.7003    0.7364    4.0070 H   0  0  0  0  0  0  0  0  0  0  0  0
    7.5421    1.6099    2.7259 H   0  0  0  0  0  0  0  0  0  0  0  0
    7.7203   -0.1403    2.8683 H   0  0  0  0  0  0  0  0  0  0  0  0
    7.4916   -1.3900    0.4458 H   0  0  0  0  0  0  0  0  0  0  0  0
    7.8626    0.2706   -0.0412 H   0  0  0  0  0  0  0  0  0  0  0  0
    6.8025   -0.7298   -1.0383 H   0  0  0  0  0  0  0  0  0  0  0  0
    3.5856   -1.5096   -3.3861 H   0  0  0  0  0  0  0  0  0  0  0  0
    2.4441   -0.6119   -4.3914 H   0  0  0  0  0  0  0  0  0  0  0  0
    2.0234   -2.2279   -3.7974 H   0  0  0  0  0  0  0  0  0  0  0  0
  1  2  1  0  0  0  0
  2  3  2  0  0  0  0
  3  4  1  0  0  0  0
  4  5  2  0  0  0  0
  5  6  1  0  0  0  0
  5  7  1  0  0  0  0
  7  8  1  0  0  0  0
  7  9  2  0  0  0  0
  9 10  1  0  0  0  0
 10 11  2  0  0  0  0
 11 12  1  0  0  0  0
 12 13  2  0  0  0  0
 13 14  1  0  0  0  0
 14 15  1  0  0  0  0
 14 16  2  0  0  0  0
 16 17  1  0  0  0  0
 16 18  1  0  0  0  0
 18 19  1  0  0  0  0
 19 20  1  0  0  0  0
 19 21  1  0  0  0  0
  3 22  1  0  0  0  0
 22 23  2  0  0  0  0
 23 24  1  0  0  0  0
 24 25  2  0  0  0  0
 25 26  1  0  0  0  0
 26 27  1  0  0  0  0
 26 28  2  0  0  0  0
 28 29  1  0  0  0  0
 28 30  1  0  0  0  0
 30 31  1  0  0  0  0
 31 32  1  0  0  0  0
 31 33  1  0  0  0  0
 31 34  1  0  0  0  0
 34 35  2  0  0  0  0
 35 36  1  0  0  0  0
 35  2  1  0  0  0  0
 10  4  1  0  0  0  0
 18 12  1  0  0  0  0
 34 22  1  0  0  0  0
 19  9  1  0  0  0  0
 30 24  1  0  0  0  0
  1 37  1  0  0  0  0
  1 38  1  0  0  0  0
  1 39  1  0  0  0  0
  6 40  1  0  0  0  0
  6 41  1  0  0  0  0
  6 42  1  0  0  0  0
  8 43  1  0  0  0  0
  8 44  1  0  0  0  0
  8 45  1  0  0  0  0
 11 46  1  0  0  0  0
 13 47  1  0  0  0  0
 15 48  1  0  0  0  0
 15 49  1  0  0  0  0
 15 50  1  0  0  0  0
 17 51  1  0  0  0  0
 17 52  1  0  0  0  0
 17 53  1  0  0  0  0
 23 54  1  0  0  0  0
 25 55  1  0  0  0  0
 27 56  1  0  0  0  0
 27 57  1  0  0  0  0
 27 58  1  0  0  0  0
 29 59  1  0  0  0  0
 29 60  1  0  0  0  0
 29 61  1  0  0  0  0
 36 62  1  0  0  0  0
 36 63  1  0  0  0  0
 36 64  1  0  0  0  0
M  CHG  1   9   1
M  CHG  1  19  -1
M  CHG  1  31  -1
M  CHG  1  34   1
M  END
