
  xtb     03012221273D
 energy: -9.743035777846 gnorm: 0.000356426178 xtb: 6.4.1 (afa7bdf)
 48 52  0     0  0            999 V2000
   -5.2560   -0.0408   -3.1141 C   0  0  0  0  0  0  0  0  0  0  0  0
   -3.9495    0.0829   -2.4145 C   0  0  0  0  0  0  0  0  0  0  0  0
   -3.8071    1.0107   -1.3642 C   0  0  0  0  0  0  0  0  0  0  0  0
   -2.6225    1.1680   -0.6922 C   0  0  0  0  0  0  0  0  0  0  0  0
   -1.5384    0.3830   -1.0769 C   0  0  0  0  0  0  0  0  0  0  0  0
   -1.6560   -0.5457   -2.1142 C   0  0  0  0  0  0  0  0  0  0  0  0
   -2.8744   -0.6951   -2.7869 C   0  0  0  0  0  0  0  0  0  0  0  0
   -0.4505   -1.1717   -2.2732 N   0  0  0  0  0  0  0  0  0  0  0  0
    0.3671   -0.6935   -1.4398 N   0  0  0  0  0  0  0  0  0  0  0  0
   -0.2160    0.2426   -0.6637 N   0  0  0  0  0  0  0  0  0  0  0  0
    0.4538    0.9228    0.3965 C   0  0  0  0  0  0  0  0  0  0  0  0
    0.3604    2.2766    0.6855 C   0  0  0  0  0  0  0  0  0  0  0  0
   -0.3738    3.2706    0.0399 C   0  0  0  0  0  0  0  0  0  0  0  0
   -0.9757    4.1521   -0.4185 N   0  0  0  0  0  0  0  0  0  0  0  0
    1.1757    2.5034    1.8302 C   0  0  0  0  0  0  0  0  0  0  0  0
    1.4709    3.6617    2.5797 C   0  0  0  0  0  0  0  0  0  0  0  0
    0.9116    4.8702    2.2256 N   0  0  0  0  0  0  0  0  0  0  0  0
    2.2827    3.5535    3.6208 N   0  0  0  0  0  0  0  0  0  0  0  0
    2.7546    2.3313    3.8774 C   0  0  0  0  0  0  0  0  0  0  0  0
    2.5533    1.1855    3.2754 N   0  0  0  0  0  0  0  0  0  0  0  0
    1.7442    1.2957    2.2180 C   0  0  0  0  0  0  0  0  0  0  0  0
    1.2831    0.3270    1.3327 N   0  0  0  0  0  0  0  0  0  0  0  0
    1.6876   -1.0855    1.4194 C   0  0  0  0  0  0  0  0  0  0  0  0
    0.5015   -2.0626    1.2453 C   0  0  0  0  0  0  0  0  0  0  0  0
    0.9740   -3.0492    0.1610 C   0  0  0  0  0  0  0  0  0  0  0  0
    0.6816   -4.4047    0.4416 O   0  0  0  0  0  0  0  0  0  0  0  0
    2.5031   -2.7839    0.0500 C   0  0  0  0  0  0  0  0  0  0  0  0
    3.0958   -3.0630   -1.3331 C   0  0  0  0  0  0  0  0  0  0  0  0
    2.7631   -2.0995   -2.3005 O   0  0  0  0  0  0  0  0  0  0  0  0
    2.7080   -1.4256    0.4596 O   0  0  0  0  0  0  0  0  0  0  0  0
   -5.5356    0.9040   -3.5807 H   0  0  0  0  0  0  0  0  0  0  0  0
   -6.0450   -0.3197   -2.4153 H   0  0  0  0  0  0  0  0  0  0  0  0
   -5.2185   -0.8001   -3.8954 H   0  0  0  0  0  0  0  0  0  0  0  0
   -4.6565    1.6141   -1.0931 H   0  0  0  0  0  0  0  0  0  0  0  0
   -2.5144    1.8882    0.0979 H   0  0  0  0  0  0  0  0  0  0  0  0
   -2.9553   -1.4084   -3.5861 H   0  0  0  0  0  0  0  0  0  0  0  0
    1.1565    5.7321    2.6870 H   0  0  0  0  0  0  0  0  0  0  0  0
    0.3256    4.9844    1.4050 H   0  0  0  0  0  0  0  0  0  0  0  0
    3.4140    2.2800    4.7335 H   0  0  0  0  0  0  0  0  0  0  0  0
    2.1615   -1.2224    2.4028 H   0  0  0  0  0  0  0  0  0  0  0  0
   -0.3991   -1.5241    0.9392 H   0  0  0  0  0  0  0  0  0  0  0  0
    0.2659   -2.5921    2.1721 H   0  0  0  0  0  0  0  0  0  0  0  0
    0.4776   -2.8308   -0.7926 H   0  0  0  0  0  0  0  0  0  0  0  0
    1.0781   -4.6628    1.3015 H   0  0  0  0  0  0  0  0  0  0  0  0
    3.0094   -3.4083    0.8005 H   0  0  0  0  0  0  0  0  0  0  0  0
    4.1922   -3.0750   -1.2851 H   0  0  0  0  0  0  0  0  0  0  0  0
    2.7722   -4.0452   -1.7006 H   0  0  0  0  0  0  0  0  0  0  0  0
    1.9193   -1.6307   -2.0575 H   0  0  0  0  0  0  0  0  0  0  0  0
  1  2  1  0  0  0  0
  2  3  2  0  0  0  0
  3  4  1  0  0  0  0
  4  5  2  0  0  0  0
  5  6  1  0  0  0  0
  6  7  2  0  0  0  0
  6  8  1  0  0  0  0
  8  9  2  0  0  0  0
  9 10  1  0  0  0  0
 10 11  1  0  0  0  0
 11 12  2  0  0  0  0
 12 13  1  0  0  0  0
 13 14  3  0  0  0  0
 12 15  1  0  0  0  0
 15 16  2  0  0  0  0
 16 17  1  0  0  0  0
 16 18  1  0  0  0  0
 18 19  2  0  0  0  0
 19 20  1  0  0  0  0
 20 21  2  0  0  0  0
 21 22  1  0  0  0  0
 22 23  1  0  0  0  0
 23 24  1  0  0  0  0
 24 25  1  0  0  0  0
 25 26  1  0  0  0  0
 25 27  1  0  0  0  0
 27 28  1  0  0  0  0
 28 29  1  0  0  0  0
 27 30  1  0  0  0  0
  7  2  1  0  0  0  0
 22 11  1  0  0  0  0
 30 23  1  0  0  0  0
 10  5  1  0  0  0  0
 21 15  1  0  0  0  0
  1 31  1  0  0  0  0
  1 32  1  0  0  0  0
  1 33  1  0  0  0  0
  3 34  1  0  0  0  0
  4 35  1  0  0  0  0
  7 36  1  0  0  0  0
 17 37  1  0  0  0  0
 17 38  1  0  0  0  0
 19 39  1  0  0  0  0
 23 40  1  0  0  0  0
 24 41  1  0  0  0  0
 24 42  1  0  0  0  0
 25 43  1  0  0  0  0
 26 44  1  0  0  0  0
 27 45  1  0  0  0  0
 28 46  1  0  0  0  0
 28 47  1  0  0  0  0
 29 48  1  0  0  0  0
M  END
