
  xtb     03012221283D
 energy: -9.712526046729 gnorm: 0.000188683763 xtb: 6.4.1 (afa7bdf)
 52 54  0     0  0            999 V2000
    7.8165    1.1461   -1.2885 C   0  0  0  0  0  0  0  0  0  0  0  0
    7.6699   -0.2602   -0.7468 C   0  0  0  0  0  0  0  0  0  0  0  0
    6.6797   -0.3608    0.2509 O   0  0  0  0  0  0  0  0  0  0  0  0
    5.4357   -0.2621   -0.3013 C   0  0  0  0  0  0  0  0  0  0  0  0
    5.2192   -0.1016   -1.4834 O   0  0  0  0  0  0  0  0  0  0  0  0
    4.2944   -0.3678    0.6742 C   0  0  0  0  0  0  0  0  0  0  0  0
    2.9362   -0.2112    0.0018 C   0  0  0  0  0  0  0  0  0  0  0  0
    1.7667   -0.3152    0.9761 C   0  0  0  0  0  0  0  0  0  0  0  0
    0.4089   -0.1633    0.2993 C   0  0  0  0  0  0  0  0  0  0  0  0
   -0.7537   -0.2616    1.2745 C   0  0  0  0  0  0  0  0  0  0  0  0
   -2.0578   -0.1240    0.6048 N   0  0  0  0  0  0  0  0  0  0  0  0
   -2.7200   -1.2813    0.1344 C   0  0  0  0  0  0  0  0  0  0  0  0
   -2.1197   -2.5460    0.1431 C   0  0  0  0  0  0  0  0  0  0  0  0
   -2.7936   -3.6552   -0.2980 C   0  0  0  0  0  0  0  0  0  0  0  0
   -4.1073   -3.5607   -0.7758 C   0  0  0  0  0  0  0  0  0  0  0  0
   -4.7936   -4.6879   -1.2218 N   0  0  0  0  0  0  0  0  0  0  0  0
   -4.7051   -2.3105   -0.7980 C   0  0  0  0  0  0  0  0  0  0  0  0
   -4.0326   -1.1780   -0.3608 C   0  0  0  0  0  0  0  0  0  0  0  0
   -4.6979    0.1111   -0.4344 C   0  0  0  0  0  0  0  0  0  0  0  0
   -5.8485    0.2077   -0.8442 O   0  0  0  0  0  0  0  0  0  0  0  0
   -3.9458    1.2840   -0.0242 C   0  0  0  0  0  0  0  0  0  0  0  0
   -4.5333    2.5361   -0.1380 C   0  0  0  0  0  0  0  0  0  0  0  0
   -3.8506    3.6902    0.2126 C   0  0  0  0  0  0  0  0  0  0  0  0
   -4.4519    4.9406    0.0887 N   0  0  0  0  0  0  0  0  0  0  0  0
   -2.5394    3.5618    0.6892 C   0  0  0  0  0  0  0  0  0  0  0  0
   -1.9491    2.3310    0.8133 C   0  0  0  0  0  0  0  0  0  0  0  0
   -2.6347    1.1597    0.4701 C   0  0  0  0  0  0  0  0  0  0  0  0
    8.5936    1.2160   -2.0513 H   0  0  0  0  0  0  0  0  0  0  0  0
    8.0612    1.8442   -0.4880 H   0  0  0  0  0  0  0  0  0  0  0  0
    6.8769    1.4774   -1.7321 H   0  0  0  0  0  0  0  0  0  0  0  0
    7.4010   -0.9713   -1.5405 H   0  0  0  0  0  0  0  0  0  0  0  0
    8.6081   -0.6172   -0.3015 H   0  0  0  0  0  0  0  0  0  0  0  0
    4.4228    0.3915    1.4511 H   0  0  0  0  0  0  0  0  0  0  0  0
    4.3554   -1.3336    1.1844 H   0  0  0  0  0  0  0  0  0  0  0  0
    2.9014    0.7504   -0.5240 H   0  0  0  0  0  0  0  0  0  0  0  0
    2.8349   -0.9655   -0.7876 H   0  0  0  0  0  0  0  0  0  0  0  0
    1.8743    0.4437    1.7620 H   0  0  0  0  0  0  0  0  0  0  0  0
    1.8109   -1.2778    1.5021 H   0  0  0  0  0  0  0  0  0  0  0  0
    0.3628    0.7937   -0.2306 H   0  0  0  0  0  0  0  0  0  0  0  0
    0.2964   -0.9219   -0.4822 H   0  0  0  0  0  0  0  0  0  0  0  0
   -0.7290   -1.2100    1.8176 H   0  0  0  0  0  0  0  0  0  0  0  0
   -0.6722    0.4964    2.0580 H   0  0  0  0  0  0  0  0  0  0  0  0
   -1.1069   -2.6529    0.4831 H   0  0  0  0  0  0  0  0  0  0  0  0
   -2.3198   -4.6218   -0.2828 H   0  0  0  0  0  0  0  0  0  0  0  0
   -4.2914   -5.5303   -1.4634 H   0  0  0  0  0  0  0  0  0  0  0  0
   -5.6198   -4.5875   -1.7938 H   0  0  0  0  0  0  0  0  0  0  0  0
   -5.7105   -2.2031   -1.1622 H   0  0  0  0  0  0  0  0  0  0  0  0
   -5.5395    2.6002   -0.5099 H   0  0  0  0  0  0  0  0  0  0  0  0
   -5.2771    5.0533   -0.4818 H   0  0  0  0  0  0  0  0  0  0  0  0
   -3.8893    5.7789    0.0749 H   0  0  0  0  0  0  0  0  0  0  0  0
   -2.0005    4.4538    0.9597 H   0  0  0  0  0  0  0  0  0  0  0  0
   -0.9360    2.2722    1.1642 H   0  0  0  0  0  0  0  0  0  0  0  0
  1  2  1  0  0  0  0
  2  3  1  0  0  0  0
  3  4  1  0  0  0  0
  4  5  2  0  0  0  0
  4  6  1  0  0  0  0
  6  7  1  0  0  0  0
  7  8  1  0  0  0  0
  8  9  1  0  0  0  0
  9 10  1  0  0  0  0
 10 11  1  0  0  0  0
 11 12  1  0  0  0  0
 12 13  2  0  0  0  0
 13 14  1  0  0  0  0
 14 15  2  0  0  0  0
 15 16  1  0  0  0  0
 15 17  1  0  0  0  0
 17 18  2  0  0  0  0
 18 19  1  0  0  0  0
 19 20  2  0  0  0  0
 19 21  1  0  0  0  0
 21 22  2  0  0  0  0
 22 23  1  0  0  0  0
 23 24  1  0  0  0  0
 23 25  2  0  0  0  0
 25 26  1  0  0  0  0
 26 27  2  0  0  0  0
 27 11  1  0  0  0  0
 18 12  1  0  0  0  0
 27 21  1  0  0  0  0
  1 28  1  0  0  0  0
  1 29  1  0  0  0  0
  1 30  1  0  0  0  0
  2 31  1  0  0  0  0
  2 32  1  0  0  0  0
  6 33  1  0  0  0  0
  6 34  1  0  0  0  0
  7 35  1  0  0  0  0
  7 36  1  0  0  0  0
  8 37  1  0  0  0  0
  8 38  1  0  0  0  0
  9 39  1  0  0  0  0
  9 40  1  0  0  0  0
 10 41  1  0  0  0  0
 10 42  1  0  0  0  0
 13 43  1  0  0  0  0
 14 44  1  0  0  0  0
 16 45  1  0  0  0  0
 16 46  1  0  0  0  0
 17 47  1  0  0  0  0
 22 48  1  0  0  0  0
 24 49  1  0  0  0  0
 24 50  1  0  0  0  0
 25 51  1  0  0  0  0
 26 52  1  0  0  0  0
M  END
