
  xtb     03012221253D
 energy: -19.496267320857 gnorm: 0.000274741003 xtb: 6.4.1 (afa7bdf)
 90100  0     0  0            999 V2000
    2.0079   -5.2090   -2.2316 C   0  0  0  0  0  0  0  0  0  0  0  0
    2.0480   -4.8349   -0.9032 C   0  0  0  0  0  0  0  0  0  0  0  0
    2.1538   -3.5049   -0.5633 C   0  0  0  0  0  0  0  0  0  0  0  0
    2.2229   -2.5207   -1.5493 C   0  0  0  0  0  0  0  0  0  0  0  0
    2.2632   -1.0820   -1.1785 C   0  0  0  0  0  0  0  0  0  0  0  0
    1.1442   -0.2894   -1.3636 C   0  0  0  0  0  0  0  0  0  0  0  0
    1.1232    1.0565   -0.9360 C   0  0  0  0  0  0  0  0  0  0  0  0
    2.2214    1.6284   -0.3187 C   0  0  0  0  0  0  0  0  0  0  0  0
    2.1368    3.0164    0.2063 C   0  0  0  0  0  0  0  0  0  0  0  0
    2.1041    4.1100   -0.6587 C   0  0  0  0  0  0  0  0  0  0  0  0
    1.9547    5.3882   -0.1689 C   0  0  0  0  0  0  0  0  0  0  0  0
    1.8347    5.6004    1.1904 C   0  0  0  0  0  0  0  0  0  0  0  0
    1.8672    4.5293    2.0611 C   0  0  0  0  0  0  0  0  0  0  0  0
    2.0162    3.2493    1.5763 C   0  0  0  0  0  0  0  0  0  0  0  0
    3.4131    0.8463   -0.1370 C   0  0  0  0  0  0  0  0  0  0  0  0
    4.5481    1.3860    0.4593 C   0  0  0  0  0  0  0  0  0  0  0  0
    5.7067    0.6331    0.6449 C   0  0  0  0  0  0  0  0  0  0  0  0
    6.8709    1.1752    1.2531 C   0  0  0  0  0  0  0  0  0  0  0  0
    7.9834    0.4145    1.4197 C   0  0  0  0  0  0  0  0  0  0  0  0
    8.0051   -0.9270    0.9926 C   0  0  0  0  0  0  0  0  0  0  0  0
    6.9137   -1.4839    0.4069 C   0  0  0  0  0  0  0  0  0  0  0  0
    5.7284   -0.7245    0.2132 C   0  0  0  0  0  0  0  0  0  0  0  0
    4.5902   -1.2657   -0.3829 C   0  0  0  0  0  0  0  0  0  0  0  0
    3.4342   -0.5143   -0.5686 C   0  0  0  0  0  0  0  0  0  0  0  0
   -0.1731    1.8108   -1.0734 C   0  0  0  0  0  0  0  0  0  0  0  0
   -1.3569    0.9496   -0.7195 C   0  0  0  0  0  0  0  0  0  0  0  0
   -1.3354   -0.3958   -1.1480 C   0  0  0  0  0  0  0  0  0  0  0  0
   -2.3343   -1.2799   -0.7812 C   0  0  0  0  0  0  0  0  0  0  0  0
   -2.2338   -2.7113   -1.1696 C   0  0  0  0  0  0  0  0  0  0  0  0
   -1.8424   -3.6723   -0.2374 C   0  0  0  0  0  0  0  0  0  0  0  0
   -1.6750   -4.9867   -0.6114 C   0  0  0  0  0  0  0  0  0  0  0  0
   -1.8941   -5.3677   -1.9204 C   0  0  0  0  0  0  0  0  0  0  0  0
   -2.2846   -4.4299   -2.8557 C   0  0  0  0  0  0  0  0  0  0  0  0
   -2.4529   -3.1140   -2.4867 C   0  0  0  0  0  0  0  0  0  0  0  0
   -3.4273   -0.8116    0.0256 C   0  0  0  0  0  0  0  0  0  0  0  0
   -4.4641   -1.6596    0.4012 C   0  0  0  0  0  0  0  0  0  0  0  0
   -5.5254   -1.2149    1.1884 C   0  0  0  0  0  0  0  0  0  0  0  0
   -6.5897   -2.0728    1.5768 C   0  0  0  0  0  0  0  0  0  0  0  0
   -7.6084   -1.6082    2.3453 C   0  0  0  0  0  0  0  0  0  0  0  0
   -7.6302   -0.2668    2.7725 C   0  0  0  0  0  0  0  0  0  0  0  0
   -6.6327    0.5861    2.4237 C   0  0  0  0  0  0  0  0  0  0  0  0
   -5.5475    0.1424    1.6207 C   0  0  0  0  0  0  0  0  0  0  0  0
   -4.5073    0.9917    1.2457 C   0  0  0  0  0  0  0  0  0  0  0  0
   -3.4491    0.5485    0.4590 C   0  0  0  0  0  0  0  0  0  0  0  0
   -2.3778    1.4292    0.0818 C   0  0  0  0  0  0  0  0  0  0  0  0
   -2.3242    2.8233    0.5943 C   0  0  0  0  0  0  0  0  0  0  0  0
   -2.5212    3.9091   -0.2585 C   0  0  0  0  0  0  0  0  0  0  0  0
   -2.3983    5.1992    0.2072 C   0  0  0  0  0  0  0  0  0  0  0  0
   -2.0771    5.4311    1.5301 C   0  0  0  0  0  0  0  0  0  0  0  0
   -1.8813    4.3678    2.3889 C   0  0  0  0  0  0  0  0  0  0  0  0
   -2.0027    3.0762    1.9278 C   0  0  0  0  0  0  0  0  0  0  0  0
   -0.1316   -0.8599   -1.9248 C   0  0  0  0  0  0  0  0  0  0  0  0
    2.1838   -2.9167   -2.8860 C   0  0  0  0  0  0  0  0  0  0  0  0
    2.0771   -4.2481   -3.2209 C   0  0  0  0  0  0  0  0  0  0  0  0
    1.9196   -6.2501   -2.4959 H   0  0  0  0  0  0  0  0  0  0  0  0
    1.9891   -5.5846   -0.1308 H   0  0  0  0  0  0  0  0  0  0  0  0
    2.1673   -3.2061    0.4709 H   0  0  0  0  0  0  0  0  0  0  0  0
    2.1875    3.9379   -1.7181 H   0  0  0  0  0  0  0  0  0  0  0  0
    1.9263    6.2246   -0.8485 H   0  0  0  0  0  0  0  0  0  0  0  0
    1.7128    6.6012    1.5713 H   0  0  0  0  0  0  0  0  0  0  0  0
    1.7681    4.6945    3.1218 H   0  0  0  0  0  0  0  0  0  0  0  0
    2.0239    2.4087    2.2489 H   0  0  0  0  0  0  0  0  0  0  0  0
    4.5337    2.4098    0.7853 H   0  0  0  0  0  0  0  0  0  0  0  0
    6.8566    2.2003    1.5807 H   0  0  0  0  0  0  0  0  0  0  0  0
    8.8601    0.8372    1.8827 H   0  0  0  0  0  0  0  0  0  0  0  0
    8.8983   -1.5133    1.1341 H   0  0  0  0  0  0  0  0  0  0  0  0
    6.9327   -2.5097    0.0818 H   0  0  0  0  0  0  0  0  0  0  0  0
    4.6087   -2.2899   -0.7074 H   0  0  0  0  0  0  0  0  0  0  0  0
   -0.1556    2.6981   -0.4342 H   0  0  0  0  0  0  0  0  0  0  0  0
   -0.2784    2.1761   -2.1003 H   0  0  0  0  0  0  0  0  0  0  0  0
   -1.6547   -3.3656    0.7774 H   0  0  0  0  0  0  0  0  0  0  0  0
   -1.3643   -5.7178    0.1173 H   0  0  0  0  0  0  0  0  0  0  0  0
   -1.7572   -6.3960   -2.2126 H   0  0  0  0  0  0  0  0  0  0  0  0
   -2.4524   -4.7274   -3.8782 H   0  0  0  0  0  0  0  0  0  0  0  0
   -2.7454   -2.3764   -3.2144 H   0  0  0  0  0  0  0  0  0  0  0  0
   -4.4484   -2.6837    0.0764 H   0  0  0  0  0  0  0  0  0  0  0  0
   -6.5753   -3.0986    1.2515 H   0  0  0  0  0  0  0  0  0  0  0  0
   -8.4099   -2.2688    2.6334 H   0  0  0  0  0  0  0  0  0  0  0  0
   -8.4479    0.0818    3.3820 H   0  0  0  0  0  0  0  0  0  0  0  0
   -6.6514    1.6109    2.7519 H   0  0  0  0  0  0  0  0  0  0  0  0
   -4.5257    2.0149    1.5732 H   0  0  0  0  0  0  0  0  0  0  0  0
   -2.7608    3.7226   -1.2914 H   0  0  0  0  0  0  0  0  0  0  0  0
   -2.5481    6.0296   -0.4637 H   0  0  0  0  0  0  0  0  0  0  0  0
   -1.9763    6.4415    1.8913 H   0  0  0  0  0  0  0  0  0  0  0  0
   -1.6254    4.5490    3.4203 H   0  0  0  0  0  0  0  0  0  0  0  0
   -1.8328    2.2431    2.5884 H   0  0  0  0  0  0  0  0  0  0  0  0
   -0.0847   -1.9525   -1.9189 H   0  0  0  0  0  0  0  0  0  0  0  0
   -0.2357   -0.5644   -2.9740 H   0  0  0  0  0  0  0  0  0  0  0  0
    2.2282   -2.1628   -3.6533 H   0  0  0  0  0  0  0  0  0  0  0  0
    2.0429   -4.5403   -4.2580 H   0  0  0  0  0  0  0  0  0  0  0  0
  1  2  2  0  0  0  0
  2  3  1  0  0  0  0
  3  4  2  0  0  0  0
  4  5  1  0  0  0  0
  5  6  2  0  0  0  0
  6  7  1  0  0  0  0
  7  8  2  0  0  0  0
  8  9  1  0  0  0  0
  9 10  2  0  0  0  0
 10 11  1  0  0  0  0
 11 12  2  0  0  0  0
 12 13  1  0  0  0  0
 13 14  2  0  0  0  0
  8 15  1  0  0  0  0
 15 16  2  0  0  0  0
 16 17  1  0  0  0  0
 17 18  2  0  0  0  0
 18 19  1  0  0  0  0
 19 20  2  0  0  0  0
 20 21  1  0  0  0  0
 21 22  2  0  0  0  0
 22 23  1  0  0  0  0
 23 24  2  0  0  0  0
  7 25  1  0  0  0  0
 25 26  1  0  0  0  0
 26 27  2  0  0  0  0
 27 28  1  0  0  0  0
 28 29  1  0  0  0  0
 29 30  2  0  0  0  0
 30 31  1  0  0  0  0
 31 32  2  0  0  0  0
 32 33  1  0  0  0  0
 33 34  2  0  0  0  0
 28 35  2  0  0  0  0
 35 36  1  0  0  0  0
 36 37  2  0  0  0  0
 37 38  1  0  0  0  0
 38 39  2  0  0  0  0
 39 40  1  0  0  0  0
 40 41  2  0  0  0  0
 41 42  1  0  0  0  0
 42 43  2  0  0  0  0
 43 44  1  0  0  0  0
 44 45  2  0  0  0  0
 45 46  1  0  0  0  0
 46 47  2  0  0  0  0
 47 48  1  0  0  0  0
 48 49  2  0  0  0  0
 49 50  1  0  0  0  0
 50 51  2  0  0  0  0
 27 52  1  0  0  0  0
  4 53  1  0  0  0  0
 53 54  2  0  0  0  0
 54  1  1  0  0  0  0
 24  5  1  0  0  0  0
 45 26  1  0  0  0  0
 51 46  1  0  0  0  0
 52  6  1  0  0  0  0
 14  9  1  0  0  0  0
 24 15  1  0  0  0  0
 34 29  1  0  0  0  0
 44 35  1  0  0  0  0
 22 17  1  0  0  0  0
 42 37  1  0  0  0  0
  1 55  1  0  0  0  0
  2 56  1  0  0  0  0
  3 57  1  0  0  0  0
 10 58  1  0  0  0  0
 11 59  1  0  0  0  0
 12 60  1  0  0  0  0
 13 61  1  0  0  0  0
 14 62  1  0  0  0  0
 16 63  1  0  0  0  0
 18 64  1  0  0  0  0
 19 65  1  0  0  0  0
 20 66  1  0  0  0  0
 21 67  1  0  0  0  0
 23 68  1  0  0  0  0
 25 69  1  0  0  0  0
 25 70  1  0  0  0  0
 30 71  1  0  0  0  0
 31 72  1  0  0  0  0
 32 73  1  0  0  0  0
 33 74  1  0  0  0  0
 34 75  1  0  0  0  0
 36 76  1  0  0  0  0
 38 77  1  0  0  0  0
 39 78  1  0  0  0  0
 40 79  1  0  0  0  0
 41 80  1  0  0  0  0
 43 81  1  0  0  0  0
 47 82  1  0  0  0  0
 48 83  1  0  0  0  0
 49 84  1  0  0  0  0
 50 85  1  0  0  0  0
 51 86  1  0  0  0  0
 52 87  1  0  0  0  0
 52 88  1  0  0  0  0
 53 89  1  0  0  0  0
 54 90  1  0  0  0  0
M  END
