
  xtb     03012221293D
 energy: -7.671641837246 gnorm: 0.000428528191 xtb: 6.4.1 (afa7bdf)
 38 41  0     0  0            999 V2000
   -6.1369    1.9239    0.5128 C   0  0  0  0  0  0  0  0  0  0  0  0
   -4.7831    1.5602    0.4239 O   0  0  0  0  0  0  0  0  0  0  0  0
   -4.5423    0.1906    0.3863 C   0  0  0  0  0  0  0  0  0  0  0  0
   -5.5064   -0.8009    0.4432 C   0  0  0  0  0  0  0  0  0  0  0  0
   -5.1785   -2.1621    0.4028 C   0  0  0  0  0  0  0  0  0  0  0  0
   -3.8827   -2.5774    0.3041 C   0  0  0  0  0  0  0  0  0  0  0  0
   -2.8689   -1.6013    0.2421 C   0  0  0  0  0  0  0  0  0  0  0  0
   -1.4756   -1.6914    0.1399 C   0  0  0  0  0  0  0  0  0  0  0  0
   -0.9806   -0.3978    0.1194 C   0  0  0  0  0  0  0  0  0  0  0  0
    0.4370   -0.0445    0.0214 C   0  0  0  0  0  0  0  0  0  0  0  0
    1.3823   -1.0083   -0.0822 C   0  0  0  0  0  0  0  0  0  0  0  0
    2.7596   -0.6924   -0.1752 C   0  0  0  0  0  0  0  0  0  0  0  0
    3.7448   -1.6841   -0.2808 C   0  0  0  0  0  0  0  0  0  0  0  0
    5.0659   -1.3430   -0.3665 C   0  0  0  0  0  0  0  0  0  0  0  0
    5.4497   -0.0112   -0.3500 C   0  0  0  0  0  0  0  0  0  0  0  0
    4.5137    1.0046   -0.2474 C   0  0  0  0  0  0  0  0  0  0  0  0
    4.8210    2.3635   -0.2242 O   0  0  0  0  0  0  0  0  0  0  0  0
    6.1904    2.6721   -0.3013 C   0  0  0  0  0  0  0  0  0  0  0  0
    3.1362    0.6559   -0.1582 C   0  0  0  0  0  0  0  0  0  0  0  0
    2.2016    1.6649   -0.0559 O   0  0  0  0  0  0  0  0  0  0  0  0
    0.8601    1.3600    0.0347 C   0  0  0  0  0  0  0  0  0  0  0  0
    0.0211    2.2436    0.1266 O   0  0  0  0  0  0  0  0  0  0  0  0
   -2.0234    0.4955    0.2054 O   0  0  0  0  0  0  0  0  0  0  0  0
   -3.1839   -0.2310    0.2814 C   0  0  0  0  0  0  0  0  0  0  0  0
   -6.5662    1.5309    1.4357 H   0  0  0  0  0  0  0  0  0  0  0  0
   -6.6781    1.5518   -0.3583 H   0  0  0  0  0  0  0  0  0  0  0  0
   -6.1932    3.0136    0.5290 H   0  0  0  0  0  0  0  0  0  0  0  0
   -6.5408   -0.5219    0.5225 H   0  0  0  0  0  0  0  0  0  0  0  0
   -5.9672   -2.8944    0.4518 H   0  0  0  0  0  0  0  0  0  0  0  0
   -3.6248   -3.6206    0.2735 H   0  0  0  0  0  0  0  0  0  0  0  0
   -0.9137   -2.6055    0.0899 H   0  0  0  0  0  0  0  0  0  0  0  0
    1.0969   -2.0431   -0.0959 H   0  0  0  0  0  0  0  0  0  0  0  0
    3.4474   -2.7192   -0.2932 H   0  0  0  0  0  0  0  0  0  0  0  0
    5.8145   -2.1134   -0.4471 H   0  0  0  0  0  0  0  0  0  0  0  0
    6.4936    0.2332   -0.4186 H   0  0  0  0  0  0  0  0  0  0  0  0
    6.2938    3.7578   -0.2680 H   0  0  0  0  0  0  0  0  0  0  0  0
    6.7163    2.2375    0.5500 H   0  0  0  0  0  0  0  0  0  0  0  0
    6.6006    2.3039   -1.2427 H   0  0  0  0  0  0  0  0  0  0  0  0
  1  2  1  0  0  0  0
  2  3  1  0  0  0  0
  3  4  2  0  0  0  0
  4  5  1  0  0  0  0
  5  6  2  0  0  0  0
  6  7  1  0  0  0  0
  7  8  1  0  0  0  0
  8  9  2  0  0  0  0
  9 10  1  0  0  0  0
 10 11  2  0  0  0  0
 11 12  1  0  0  0  0
 12 13  2  0  0  0  0
 13 14  1  0  0  0  0
 14 15  2  0  0  0  0
 15 16  1  0  0  0  0
 16 17  1  0  0  0  0
 17 18  1  0  0  0  0
 16 19  2  0  0  0  0
 19 20  1  0  0  0  0
 20 21  1  0  0  0  0
 21 22  2  0  0  0  0
  9 23  1  0  0  0  0
 23 24  1  0  0  0  0
 24  3  1  0  0  0  0
 24  7  2  0  0  0  0
 21 10  1  0  0  0  0
 19 12  1  0  0  0  0
  1 25  1  0  0  0  0
  1 26  1  0  0  0  0
  1 27  1  0  0  0  0
  4 28  1  0  0  0  0
  5 29  1  0  0  0  0
  6 30  1  0  0  0  0
  8 31  1  0  0  0  0
 11 32  1  0  0  0  0
 13 33  1  0  0  0  0
 14 34  1  0  0  0  0
 15 35  1  0  0  0  0
 18 36  1  0  0  0  0
 18 37  1  0  0  0  0
 18 38  1  0  0  0  0
M  END
