
  xtb     03012221293D
 energy: -6.016850524109 gnorm: 0.000200882041 xtb: 6.4.1 (afa7bdf)
 28 31  0     0  0            999 V2000
   -1.2345   -2.2781    0.0128 O   0  0  0  0  0  0  0  0  0  0  0  0
   -1.5786   -1.1097    0.0230 C   0  0  0  0  0  0  0  0  0  0  0  0
   -0.6736    0.0275    0.0800 C   0  0  0  0  0  0  0  0  0  0  0  0
    0.6739   -0.0318    0.1299 C   0  0  0  0  0  0  0  0  0  0  0  0
    1.5903   -1.5176    0.1350 S   0  0  0  0  0  0  0  0  0  0  0  0
    3.1502   -0.7177    0.2101 C   0  0  0  0  0  0  0  0  0  0  0  0
    4.4152   -1.2729    0.2471 C   0  0  0  0  0  0  0  0  0  0  0  0
    5.5125   -0.4412    0.3052 C   0  0  0  0  0  0  0  0  0  0  0  0
    5.3535    0.9366    0.3267 C   0  0  0  0  0  0  0  0  0  0  0  0
    4.0961    1.4961    0.2901 C   0  0  0  0  0  0  0  0  0  0  0  0
    2.9862    0.6650    0.2315 C   0  0  0  0  0  0  0  0  0  0  0  0
    1.5776    1.1064    0.1868 C   0  0  0  0  0  0  0  0  0  0  0  0
    1.2327    2.2745    0.1970 O   0  0  0  0  0  0  0  0  0  0  0  0
   -1.5883    1.5144    0.0750 S   0  0  0  0  0  0  0  0  0  0  0  0
   -3.1489    0.7164   -0.0001 C   0  0  0  0  0  0  0  0  0  0  0  0
   -4.4128    1.2738   -0.0368 C   0  0  0  0  0  0  0  0  0  0  0  0
   -5.5114    0.4441   -0.0950 C   0  0  0  0  0  0  0  0  0  0  0  0
   -5.3547   -0.9340   -0.1165 C   0  0  0  0  0  0  0  0  0  0  0  0
   -4.0982   -1.4957   -0.0801 C   0  0  0  0  0  0  0  0  0  0  0  0
   -2.9868   -0.6665   -0.0215 C   0  0  0  0  0  0  0  0  0  0  0  0
    4.5262   -2.3433    0.2300 H   0  0  0  0  0  0  0  0  0  0  0  0
    6.5031   -0.8652    0.3344 H   0  0  0  0  0  0  0  0  0  0  0  0
    6.2205    1.5746    0.3723 H   0  0  0  0  0  0  0  0  0  0  0  0
    3.9514    2.5625    0.3059 H   0  0  0  0  0  0  0  0  0  0  0  0
   -4.5216    2.3445   -0.0196 H   0  0  0  0  0  0  0  0  0  0  0  0
   -6.5012    0.8700   -0.1240 H   0  0  0  0  0  0  0  0  0  0  0  0
   -6.2228   -1.5705   -0.1621 H   0  0  0  0  0  0  0  0  0  0  0  0
   -3.9556   -2.5624   -0.0960 H   0  0  0  0  0  0  0  0  0  0  0  0
  1  2  2  0  0  0  0
  2  3  1  0  0  0  0
  3  4  2  0  0  0  0
  4  5  1  0  0  0  0
  5  6  1  0  0  0  0
  6  7  2  0  0  0  0
  7  8  1  0  0  0  0
  8  9  2  0  0  0  0
  9 10  1  0  0  0  0
 10 11  2  0  0  0  0
 11 12  1  0  0  0  0
 12 13  2  0  0  0  0
  3 14  1  0  0  0  0
 14 15  1  0  0  0  0
 15 16  2  0  0  0  0
 16 17  1  0  0  0  0
 17 18  2  0  0  0  0
 18 19  1  0  0  0  0
 19 20  2  0  0  0  0
 20  2  1  0  0  0  0
 12  4  1  0  0  0  0
 20 15  1  0  0  0  0
 11  6  1  0  0  0  0
  7 21  1  0  0  0  0
  8 22  1  0  0  0  0
  9 23  1  0  0  0  0
 10 24  1  0  0  0  0
 16 25  1  0  0  0  0
 17 26  1  0  0  0  0
 18 27  1  0  0  0  0
 19 28  1  0  0  0  0
M  END
