
  xtb     03012221273D
 energy: -9.800335430799 gnorm: 0.000204192505 xtb: 6.4.1 (afa7bdf)
 45 50  0     0  0            999 V2000
    7.2899    0.9221   -1.2671 C   0  0  0  0  0  0  0  0  0  0  0  0
    7.3081   -0.4754   -1.2599 O   0  0  0  0  0  0  0  0  0  0  0  0
    6.0425   -1.0044   -1.0459 C   0  0  0  0  0  0  0  0  0  0  0  0
    5.9385   -2.3280   -1.0096 N   0  0  0  0  0  0  0  0  0  0  0  0
    4.7190   -2.7829   -0.8036 C   0  0  0  0  0  0  0  0  0  0  0  0
    4.5104   -4.5189   -0.7416 Cl  0  0  0  0  0  0  0  0  0  0  0  0
    3.6409   -2.0449   -0.6397 N   0  0  0  0  0  0  0  0  0  0  0  0
    3.8525   -0.7396   -0.6943 C   0  0  0  0  0  0  0  0  0  0  0  0
    2.7665    0.1354   -0.5354 N   0  0  0  0  0  0  0  0  0  0  0  0
    1.4220   -0.1400   -0.3304 C   0  0  0  0  0  0  0  0  0  0  0  0
    0.9817   -1.4518   -0.2548 C   0  0  0  0  0  0  0  0  0  0  0  0
   -0.3398   -1.7682   -0.0586 C   0  0  0  0  0  0  0  0  0  0  0  0
   -1.3160   -0.7832    0.0759 C   0  0  0  0  0  0  0  0  0  0  0  0
   -2.7158   -1.1171    0.2816 C   0  0  0  0  0  0  0  0  0  0  0  0
   -3.1624   -2.4317    0.3545 C   0  0  0  0  0  0  0  0  0  0  0  0
   -4.5006   -2.7406    0.5511 C   0  0  0  0  0  0  0  0  0  0  0  0
   -5.4276   -1.7465    0.6801 C   0  0  0  0  0  0  0  0  0  0  0  0
   -5.0403   -0.3940    0.6155 C   0  0  0  0  0  0  0  0  0  0  0  0
   -5.9848    0.6424    0.7468 C   0  0  0  0  0  0  0  0  0  0  0  0
   -5.5941    1.9486    0.6819 C   0  0  0  0  0  0  0  0  0  0  0  0
   -4.2590    2.2731    0.4850 C   0  0  0  0  0  0  0  0  0  0  0  0
   -3.2801    1.2976    0.3481 C   0  0  0  0  0  0  0  0  0  0  0  0
   -1.8746    1.6294    0.1405 C   0  0  0  0  0  0  0  0  0  0  0  0
   -1.4384    2.9446    0.0673 C   0  0  0  0  0  0  0  0  0  0  0  0
   -0.1047    3.2528   -0.1292 C   0  0  0  0  0  0  0  0  0  0  0  0
    0.8272    2.2608   -0.2583 C   0  0  0  0  0  0  0  0  0  0  0  0
    0.4563    0.9097   -0.1954 C   0  0  0  0  0  0  0  0  0  0  0  0
   -0.9141    0.5829    0.0075 C   0  0  0  0  0  0  0  0  0  0  0  0
   -3.6731   -0.0692    0.4143 C   0  0  0  0  0  0  0  0  0  0  0  0
    5.0289   -0.1685   -0.8928 N   0  0  0  0  0  0  0  0  0  0  0  0
    6.6270    1.2660   -2.0632 H   0  0  0  0  0  0  0  0  0  0  0  0
    8.3030    1.2876   -1.4428 H   0  0  0  0  0  0  0  0  0  0  0  0
    6.9275    1.2793   -0.3014 H   0  0  0  0  0  0  0  0  0  0  0  0
    3.0487    1.1098   -0.5938 H   0  0  0  0  0  0  0  0  0  0  0  0
    1.7059   -2.2363   -0.3553 H   0  0  0  0  0  0  0  0  0  0  0  0
   -0.6148   -2.8055   -0.0100 H   0  0  0  0  0  0  0  0  0  0  0  0
   -2.4625   -3.2418    0.2572 H   0  0  0  0  0  0  0  0  0  0  0  0
   -4.8091   -3.7713    0.6021 H   0  0  0  0  0  0  0  0  0  0  0  0
   -6.4661   -1.9870    0.8327 H   0  0  0  0  0  0  0  0  0  0  0  0
   -7.0206    0.3908    0.8994 H   0  0  0  0  0  0  0  0  0  0  0  0
   -6.3252    2.7329    0.7838 H   0  0  0  0  0  0  0  0  0  0  0  0
   -3.9897    3.3128    0.4395 H   0  0  0  0  0  0  0  0  0  0  0  0
   -2.1409    3.7506    0.1639 H   0  0  0  0  0  0  0  0  0  0  0  0
    0.2026    4.2857   -0.1809 H   0  0  0  0  0  0  0  0  0  0  0  0
    1.8549    2.5320   -0.4086 H   0  0  0  0  0  0  0  0  0  0  0  0
  1  2  1  0  0  0  0
  2  3  1  0  0  0  0
  3  4  2  0  0  0  0
  4  5  1  0  0  0  0
  5  6  1  0  0  0  0
  5  7  2  0  0  0  0
  7  8  1  0  0  0  0
  8  9  1  0  0  0  0
  9 10  1  0  0  0  0
 10 11  2  0  0  0  0
 11 12  1  0  0  0  0
 12 13  2  0  0  0  0
 13 14  1  0  0  0  0
 14 15  2  0  0  0  0
 15 16  1  0  0  0  0
 16 17  2  0  0  0  0
 17 18  1  0  0  0  0
 18 19  2  0  0  0  0
 19 20  1  0  0  0  0
 20 21  2  0  0  0  0
 21 22  1  0  0  0  0
 22 23  1  0  0  0  0
 23 24  1  0  0  0  0
 24 25  2  0  0  0  0
 25 26  1  0  0  0  0
 26 27  2  0  0  0  0
 27 28  1  0  0  0  0
 22 29  2  0  0  0  0
  8 30  2  0  0  0  0
 30  3  1  0  0  0  0
 27 10  1  0  0  0  0
 28 13  1  0  0  0  0
 29 14  1  0  0  0  0
 29 18  1  0  0  0  0
 28 23  2  0  0  0  0
  1 31  1  0  0  0  0
  1 32  1  0  0  0  0
  1 33  1  0  0  0  0
  9 34  1  0  0  0  0
 11 35  1  0  0  0  0
 12 36  1  0  0  0  0
 15 37  1  0  0  0  0
 16 38  1  0  0  0  0
 17 39  1  0  0  0  0
 19 40  1  0  0  0  0
 20 41  1  0  0  0  0
 21 42  1  0  0  0  0
 24 43  1  0  0  0  0
 25 44  1  0  0  0  0
 26 45  1  0  0  0  0
M  END
