
  xtb     03012221333D
 energy: -19.835421559323 gnorm: 0.000249280358 xtb: 6.4.1 (afa7bdf)
114119  0     0  0            999 V2000
  -10.9802   -0.9986   -0.1624 C   0  0  0  0  0  0  0  0  0  0  0  0
   -9.4829   -0.7874   -0.0018 C   0  0  0  0  0  0  0  0  0  0  0  0
   -8.9071   -1.0982    1.4094 C   0  0  0  0  0  0  0  0  0  0  0  0
   -9.2003   -2.5656    1.7614 C   0  0  0  0  0  0  0  0  0  0  0  0
   -9.5725   -0.1744    2.4418 C   0  0  0  0  0  0  0  0  0  0  0  0
   -7.3864   -0.8721    1.4493 C   0  0  0  0  0  0  0  0  0  0  0  0
   -6.6873   -1.1205    2.6300 C   0  0  0  0  0  0  0  0  0  0  0  0
   -5.3253   -0.9240    2.7266 C   0  0  0  0  0  0  0  0  0  0  0  0
   -4.6322   -0.4774    1.6128 C   0  0  0  0  0  0  0  0  0  0  0  0
   -5.3063   -0.2411    0.4154 C   0  0  0  0  0  0  0  0  0  0  0  0
   -6.6736   -0.4188    0.3421 C   0  0  0  0  0  0  0  0  0  0  0  0
   -4.3127    0.2657   -0.6403 C   0  0  0  0  0  0  0  0  0  0  0  0
   -4.7345    1.6888   -1.0864 C   0  0  0  0  0  0  0  0  0  0  0  0
   -3.8399    2.3482   -2.1243 C   0  0  0  0  0  0  0  0  0  0  0  0
   -4.3429    3.5928   -2.5930 O   0  0  0  0  0  0  0  0  0  0  0  0
   -4.3688    4.5906   -1.6014 C   0  0  0  0  0  0  0  0  0  0  0  0
   -4.1866   -0.7290   -1.8219 C   0  0  0  0  0  0  0  0  0  0  0  0
   -5.4355   -0.9058   -2.6715 C   0  0  0  0  0  0  0  0  0  0  0  0
   -5.2263   -1.7150   -3.8217 O   0  0  0  0  0  0  0  0  0  0  0  0
   -4.9113   -3.0507   -3.5120 C   0  0  0  0  0  0  0  0  0  0  0  0
   -2.9894    0.2883    0.1376 C   0  0  0  0  0  0  0  0  0  0  0  0
   -1.7149    0.6100   -0.2742 C   0  0  0  0  0  0  0  0  0  0  0  0
   -0.6480    0.5286    0.6224 C   0  0  0  0  0  0  0  0  0  0  0  0
    0.7183    0.8931    0.1967 C   0  0  0  0  0  0  0  0  0  0  0  0
    0.9346    1.9931   -0.6398 C   0  0  0  0  0  0  0  0  0  0  0  0
    2.1990    2.3485   -1.0485 C   0  0  0  0  0  0  0  0  0  0  0  0
    3.2808    1.5984   -0.6082 C   0  0  0  0  0  0  0  0  0  0  0  0
    3.0898    0.5064    0.2420 C   0  0  0  0  0  0  0  0  0  0  0  0
    1.8168    0.1460    0.6256 C   0  0  0  0  0  0  0  0  0  0  0  0
    4.4449   -0.1495    0.5420 C   0  0  0  0  0  0  0  0  0  0  0  0
    4.7937   -0.0821    2.0503 C   0  0  0  0  0  0  0  0  0  0  0  0
    3.8926   -0.8869    2.9740 C   0  0  0  0  0  0  0  0  0  0  0  0
    4.3504   -0.8555    4.3229 O   0  0  0  0  0  0  0  0  0  0  0  0
    3.5253   -1.6008    5.1874 C   0  0  0  0  0  0  0  0  0  0  0  0
    4.4314   -1.6007   -0.0028 C   0  0  0  0  0  0  0  0  0  0  0  0
    5.7185   -2.3876    0.1869 C   0  0  0  0  0  0  0  0  0  0  0  0
    5.6516   -3.7148   -0.3201 O   0  0  0  0  0  0  0  0  0  0  0  0
    4.7757   -4.5448    0.4042 C   0  0  0  0  0  0  0  0  0  0  0  0
    5.4223    0.7409   -0.2395 C   0  0  0  0  0  0  0  0  0  0  0  0
    6.8010    0.7093   -0.3097 C   0  0  0  0  0  0  0  0  0  0  0  0
    7.4896    1.6527   -1.0675 C   0  0  0  0  0  0  0  0  0  0  0  0
    9.0206    1.6306   -1.1945 C   0  0  0  0  0  0  0  0  0  0  0  0
    9.6458    0.6074   -0.2303 C   0  0  0  0  0  0  0  0  0  0  0  0
    9.5795    3.0200   -0.8438 C   0  0  0  0  0  0  0  0  0  0  0  0
    9.3810    1.2524   -2.6564 C   0  0  0  0  0  0  0  0  0  0  0  0
   10.8676    1.1908   -2.9647 C   0  0  0  0  0  0  0  0  0  0  0  0
    6.7553    2.6237   -1.7465 C   0  0  0  0  0  0  0  0  0  0  0  0
    5.3796    2.6848   -1.6653 C   0  0  0  0  0  0  0  0  0  0  0  0
    4.7109    1.7414   -0.9013 C   0  0  0  0  0  0  0  0  0  0  0  0
   -0.8959    0.0991    1.9303 C   0  0  0  0  0  0  0  0  0  0  0  0
   -2.1607   -0.2463    2.3466 C   0  0  0  0  0  0  0  0  0  0  0  0
   -3.2113   -0.1543    1.4440 C   0  0  0  0  0  0  0  0  0  0  0  0
  -11.5529   -0.3721    0.5221 H   0  0  0  0  0  0  0  0  0  0  0  0
  -11.2652   -2.0342    0.0260 H   0  0  0  0  0  0  0  0  0  0  0  0
  -11.3154   -0.7556   -1.1731 H   0  0  0  0  0  0  0  0  0  0  0  0
   -8.9491   -1.4068   -0.7335 H   0  0  0  0  0  0  0  0  0  0  0  0
   -9.2357    0.2521   -0.2511 H   0  0  0  0  0  0  0  0  0  0  0  0
  -10.2721   -2.7598    1.8002 H   0  0  0  0  0  0  0  0  0  0  0  0
   -8.7593   -3.2351    1.0221 H   0  0  0  0  0  0  0  0  0  0  0  0
   -8.7895   -2.8291    2.7360 H   0  0  0  0  0  0  0  0  0  0  0  0
   -9.1718   -0.3452    3.4410 H   0  0  0  0  0  0  0  0  0  0  0  0
  -10.6485   -0.3410    2.4912 H   0  0  0  0  0  0  0  0  0  0  0  0
   -9.4015    0.8727    2.1893 H   0  0  0  0  0  0  0  0  0  0  0  0
   -7.2255   -1.4670    3.4950 H   0  0  0  0  0  0  0  0  0  0  0  0
   -4.8001   -1.1062    3.6473 H   0  0  0  0  0  0  0  0  0  0  0  0
   -7.1773   -0.1752   -0.5733 H   0  0  0  0  0  0  0  0  0  0  0  0
   -5.7566    1.6542   -1.4724 H   0  0  0  0  0  0  0  0  0  0  0  0
   -4.7858    2.3180   -0.1937 H   0  0  0  0  0  0  0  0  0  0  0  0
   -3.7324    1.7090   -3.0074 H   0  0  0  0  0  0  0  0  0  0  0  0
   -2.8320    2.5211   -1.7350 H   0  0  0  0  0  0  0  0  0  0  0  0
   -4.5956    5.5464   -2.0748 H   0  0  0  0  0  0  0  0  0  0  0  0
   -3.3978    4.6586   -1.1094 H   0  0  0  0  0  0  0  0  0  0  0  0
   -5.1434    4.3701   -0.8670 H   0  0  0  0  0  0  0  0  0  0  0  0
   -3.8815   -1.6965   -1.4140 H   0  0  0  0  0  0  0  0  0  0  0  0
   -3.3611   -0.4160   -2.4664 H   0  0  0  0  0  0  0  0  0  0  0  0
   -6.2531   -1.3507   -2.0958 H   0  0  0  0  0  0  0  0  0  0  0  0
   -5.7964    0.0612   -3.0381 H   0  0  0  0  0  0  0  0  0  0  0  0
   -5.6370   -3.4556   -2.8056 H   0  0  0  0  0  0  0  0  0  0  0  0
   -3.9079   -3.1114   -3.0905 H   0  0  0  0  0  0  0  0  0  0  0  0
   -4.9422   -3.6380   -4.4303 H   0  0  0  0  0  0  0  0  0  0  0  0
   -1.5307    0.8876   -1.2963 H   0  0  0  0  0  0  0  0  0  0  0  0
    0.0867    2.5759   -0.9597 H   0  0  0  0  0  0  0  0  0  0  0  0
    2.3582    3.1905   -1.6975 H   0  0  0  0  0  0  0  0  0  0  0  0
    1.6606   -0.7331    1.2243 H   0  0  0  0  0  0  0  0  0  0  0  0
    4.7832    0.9653    2.3654 H   0  0  0  0  0  0  0  0  0  0  0  0
    5.8264   -0.4111    2.1926 H   0  0  0  0  0  0  0  0  0  0  0  0
    3.8456   -1.9354    2.6623 H   0  0  0  0  0  0  0  0  0  0  0  0
    2.8709   -0.4948    2.9627 H   0  0  0  0  0  0  0  0  0  0  0  0
    3.5064   -2.6456    4.8750 H   0  0  0  0  0  0  0  0  0  0  0  0
    3.9277   -1.5372    6.1989 H   0  0  0  0  0  0  0  0  0  0  0  0
    2.5134   -1.1942    5.1785 H   0  0  0  0  0  0  0  0  0  0  0  0
    3.6017   -2.1358    0.4641 H   0  0  0  0  0  0  0  0  0  0  0  0
    4.1880   -1.5698   -1.0688 H   0  0  0  0  0  0  0  0  0  0  0  0
    6.5460   -1.9043   -0.3419 H   0  0  0  0  0  0  0  0  0  0  0  0
    6.0074   -2.4423    1.2417 H   0  0  0  0  0  0  0  0  0  0  0  0
    3.7415   -4.2585    0.2140 H   0  0  0  0  0  0  0  0  0  0  0  0
    4.9899   -4.4793    1.4716 H   0  0  0  0  0  0  0  0  0  0  0  0
    4.9201   -5.5743    0.0753 H   0  0  0  0  0  0  0  0  0  0  0  0
    7.3339   -0.0361    0.2487 H   0  0  0  0  0  0  0  0  0  0  0  0
    9.3409    0.8052    0.7981 H   0  0  0  0  0  0  0  0  0  0  0  0
   10.7346    0.6537   -0.2576 H   0  0  0  0  0  0  0  0  0  0  0  0
    9.3518   -0.4104   -0.4893 H   0  0  0  0  0  0  0  0  0  0  0  0
    9.2270    3.3372    0.1385 H   0  0  0  0  0  0  0  0  0  0  0  0
    9.2700    3.7716   -1.5699 H   0  0  0  0  0  0  0  0  0  0  0  0
   10.6694    3.0137   -0.8171 H   0  0  0  0  0  0  0  0  0  0  0  0
    8.8936    1.9689   -3.3291 H   0  0  0  0  0  0  0  0  0  0  0  0
    8.9114    0.2862   -2.8812 H   0  0  0  0  0  0  0  0  0  0  0  0
   11.0540    0.9334   -4.0095 H   0  0  0  0  0  0  0  0  0  0  0  0
   11.3561    2.1479   -2.7781 H   0  0  0  0  0  0  0  0  0  0  0  0
   11.3747    0.4415   -2.3559 H   0  0  0  0  0  0  0  0  0  0  0  0
    7.2751    3.3494   -2.3473 H   0  0  0  0  0  0  0  0  0  0  0  0
    4.8251    3.4499   -2.1790 H   0  0  0  0  0  0  0  0  0  0  0  0
   -0.0733    0.0496    2.6244 H   0  0  0  0  0  0  0  0  0  0  0  0
   -2.3439   -0.5823    3.3511 H   0  0  0  0  0  0  0  0  0  0  0  0
  1  2  1  0  0  0  0
  2  3  1  0  0  0  0
  3  4  1  0  0  0  0
  3  5  1  0  0  0  0
  3  6  1  0  0  0  0
  6  7  2  0  0  0  0
  7  8  1  0  0  0  0
  8  9  2  0  0  0  0
  9 10  1  0  0  0  0
 10 11  2  0  0  0  0
 10 12  1  0  0  0  0
 12 13  1  0  0  0  0
 13 14  1  0  0  0  0
 14 15  1  0  0  0  0
 15 16  1  0  0  0  0
 12 17  1  0  0  0  0
 17 18  1  0  0  0  0
 18 19  1  0  0  0  0
 19 20  1  0  0  0  0
 12 21  1  0  0  0  0
 21 22  2  0  0  0  0
 22 23  1  0  0  0  0
 23 24  1  0  0  0  0
 24 25  2  0  0  0  0
 25 26  1  0  0  0  0
 26 27  2  0  0  0  0
 27 28  1  0  0  0  0
 28 29  2  0  0  0  0
 28 30  1  0  0  0  0
 30 31  1  0  0  0  0
 31 32  1  0  0  0  0
 32 33  1  0  0  0  0
 33 34  1  0  0  0  0
 30 35  1  0  0  0  0
 35 36  1  0  0  0  0
 36 37  1  0  0  0  0
 37 38  1  0  0  0  0
 30 39  1  0  0  0  0
 39 40  2  0  0  0  0
 40 41  1  0  0  0  0
 41 42  1  0  0  0  0
 42 43  1  0  0  0  0
 42 44  1  0  0  0  0
 42 45  1  0  0  0  0
 45 46  1  0  0  0  0
 41 47  2  0  0  0  0
 47 48  1  0  0  0  0
 48 49  2  0  0  0  0
 23 50  2  0  0  0  0
 50 51  1  0  0  0  0
 51 52  2  0  0  0  0
 11  6  1  0  0  0  0
 52 21  1  0  0  0  0
 52  9  1  0  0  0  0
 29 24  1  0  0  0  0
 49 39  1  0  0  0  0
 49 27  1  0  0  0  0
  1 53  1  0  0  0  0
  1 54  1  0  0  0  0
  1 55  1  0  0  0  0
  2 56  1  0  0  0  0
  2 57  1  0  0  0  0
  4 58  1  0  0  0  0
  4 59  1  0  0  0  0
  4 60  1  0  0  0  0
  5 61  1  0  0  0  0
  5 62  1  0  0  0  0
  5 63  1  0  0  0  0
  7 64  1  0  0  0  0
  8 65  1  0  0  0  0
 11 66  1  0  0  0  0
 13 67  1  0  0  0  0
 13 68  1  0  0  0  0
 14 69  1  0  0  0  0
 14 70  1  0  0  0  0
 16 71  1  0  0  0  0
 16 72  1  0  0  0  0
 16 73  1  0  0  0  0
 17 74  1  0  0  0  0
 17 75  1  0  0  0  0
 18 76  1  0  0  0  0
 18 77  1  0  0  0  0
 20 78  1  0  0  0  0
 20 79  1  0  0  0  0
 20 80  1  0  0  0  0
 22 81  1  0  0  0  0
 25 82  1  0  0  0  0
 26 83  1  0  0  0  0
 29 84  1  0  0  0  0
 31 85  1  0  0  0  0
 31 86  1  0  0  0  0
 32 87  1  0  0  0  0
 32 88  1  0  0  0  0
 34 89  1  0  0  0  0
 34 90  1  0  0  0  0
 34 91  1  0  0  0  0
 35 92  1  0  0  0  0
 35 93  1  0  0  0  0
 36 94  1  0  0  0  0
 36 95  1  0  0  0  0
 38 96  1  0  0  0  0
 38 97  1  0  0  0  0
 38 98  1  0  0  0  0
 40 99  1  0  0  0  0
 43100  1  0  0  0  0
 43101  1  0  0  0  0
 43102  1  0  0  0  0
 44103  1  0  0  0  0
 44104  1  0  0  0  0
 44105  1  0  0  0  0
 45106  1  0  0  0  0
 45107  1  0  0  0  0
 46108  1  0  0  0  0
 46109  1  0  0  0  0
 46110  1  0  0  0  0
 47111  1  0  0  0  0
 48112  1  0  0  0  0
 50113  1  0  0  0  0
 51114  1  0  0  0  0
M  END
