
  xtb     03012221203D
 energy: -2.886822586160 gnorm: 0.000157242417 xtb: 6.4.1 (afa7bdf)
 10  9  0     0  0            999 V2000
   -1.1755    0.9427    2.5551 N   0  0  0  0  0  0  0  0  0  0  0  0
   -0.8891    0.6902    1.4565 C   0  0  0  0  0  0  0  0  0  0  0  0
   -0.5418    0.3852    0.1428 C   0  0  0  0  0  0  0  0  0  0  0  0
   -1.3500    0.9031   -0.8662 C   0  0  0  0  0  0  0  0  0  0  0  0
   -2.0220    1.3341   -1.7119 N   0  0  0  0  0  0  0  0  0  0  0  0
    0.5415   -0.3859   -0.1432 C   0  0  0  0  0  0  0  0  0  0  0  0
    1.3491   -0.9037    0.8663 C   0  0  0  0  0  0  0  0  0  0  0  0
    2.0207   -1.3343    1.7126 N   0  0  0  0  0  0  0  0  0  0  0  0
    0.8897   -0.6900   -1.4568 C   0  0  0  0  0  0  0  0  0  0  0  0
    1.1773   -0.9414   -2.5553 N   0  0  0  0  0  0  0  0  0  0  0  0
  1  2  3  0  0  0  0
  2  3  1  0  0  0  0
  3  4  1  0  0  0  0
  4  5  3  0  0  0  0
  3  6  2  0  0  0  0
  6  7  1  0  0  0  0
  7  8  3  0  0  0  0
  6  9  1  0  0  0  0
  9 10  3  0  0  0  0
M  END
