
  xtb     03012221243D
 energy: -10.559951734951 gnorm: 0.000350032958 xtb: 6.4.1 (afa7bdf)
 53 56  0     0  0            999 V2000
   -5.1809   -1.6382    2.2105 C   0  0  0  0  0  0  0  0  0  0  0  0
   -4.1470   -2.3750    1.3877 C   0  0  0  0  0  0  0  0  0  0  0  0
   -2.9911   -1.6075    1.1527 O   0  0  0  0  0  0  0  0  0  0  0  0
   -3.2350   -0.6381    0.2162 C   0  0  0  0  0  0  0  0  0  0  0  0
   -4.3383   -0.4355   -0.2537 O   0  0  0  0  0  0  0  0  0  0  0  0
   -2.0659    0.1700   -0.1874 C   0  0  0  0  0  0  0  0  0  0  0  0
   -0.7572   -0.2657   -0.1539 C   0  0  0  0  0  0  0  0  0  0  0  0
   -0.3228   -1.6624    0.1382 C   0  0  0  0  0  0  0  0  0  0  0  0
   -0.6536   -2.5706   -0.6021 O   0  0  0  0  0  0  0  0  0  0  0  0
    0.4555   -1.8535    1.2467 O   0  0  0  0  0  0  0  0  0  0  0  0
    0.6799   -3.2129    1.4241 C   0  0  0  0  0  0  0  0  0  0  0  0
    0.0457    0.8487   -0.5375 C   0  0  0  0  0  0  0  0  0  0  0  0
    1.4960    0.9196   -0.6825 C   0  0  0  0  0  0  0  0  0  0  0  0
    2.2957   -0.1100   -0.3170 C   0  0  0  0  0  0  0  0  0  0  0  0
    3.6991   -0.0567   -0.4802 C   0  0  0  0  0  0  0  0  0  0  0  0
    4.5297   -1.1181   -0.1189 C   0  0  0  0  0  0  0  0  0  0  0  0
    5.9058   -1.0502   -0.2922 C   0  0  0  0  0  0  0  0  0  0  0  0
    6.7996   -2.0742    0.0449 O   0  0  0  0  0  0  0  0  0  0  0  0
    6.2011   -3.2290    0.5768 C   0  0  0  0  0  0  0  0  0  0  0  0
    6.4439    0.1234   -0.8433 C   0  0  0  0  0  0  0  0  0  0  0  0
    5.6439    1.1711   -1.2007 C   0  0  0  0  0  0  0  0  0  0  0  0
    4.2589    1.1069   -1.0281 C   0  0  0  0  0  0  0  0  0  0  0  0
    3.4799    2.1898   -1.3960 O   0  0  0  0  0  0  0  0  0  0  0  0
    2.1157    2.1371   -1.2301 C   0  0  0  0  0  0  0  0  0  0  0  0
    1.4102    3.0896   -1.5273 O   0  0  0  0  0  0  0  0  0  0  0  0
   -0.7375    1.8792   -0.7869 N   0  0  0  0  0  0  0  0  0  0  0  0
   -1.9892    1.5044   -0.5968 N   0  0  0  0  0  0  0  0  0  0  0  0
   -2.9826    2.5309   -0.8223 C   0  0  0  0  0  0  0  0  0  0  0  0
   -2.5285    3.8087   -1.1102 C   0  0  0  0  0  0  0  0  0  0  0  0
   -3.4135    4.8346   -1.3441 C   0  0  0  0  0  0  0  0  0  0  0  0
   -4.7704    4.5981   -1.2987 C   0  0  0  0  0  0  0  0  0  0  0  0
   -5.2341    3.3295   -1.0245 C   0  0  0  0  0  0  0  0  0  0  0  0
   -4.3480    2.3047   -0.7901 C   0  0  0  0  0  0  0  0  0  0  0  0
   -4.7631   -1.3358    3.1705 H   0  0  0  0  0  0  0  0  0  0  0  0
   -5.4937   -0.7313    1.6921 H   0  0  0  0  0  0  0  0  0  0  0  0
   -6.0677   -2.2448    2.3983 H   0  0  0  0  0  0  0  0  0  0  0  0
   -3.8167   -3.2968    1.8853 H   0  0  0  0  0  0  0  0  0  0  0  0
   -4.5409   -2.6629    0.4020 H   0  0  0  0  0  0  0  0  0  0  0  0
    1.2999   -3.3628    2.3097 H   0  0  0  0  0  0  0  0  0  0  0  0
   -0.2851   -3.7088    1.5517 H   0  0  0  0  0  0  0  0  0  0  0  0
    1.1794   -3.6122    0.5387 H   0  0  0  0  0  0  0  0  0  0  0  0
    1.8659   -0.9828    0.1335 H   0  0  0  0  0  0  0  0  0  0  0  0
    4.0808   -2.0009    0.2992 H   0  0  0  0  0  0  0  0  0  0  0  0
    5.5150   -3.6607   -0.1538 H   0  0  0  0  0  0  0  0  0  0  0  0
    6.9875   -3.9529    0.7960 H   0  0  0  0  0  0  0  0  0  0  0  0
    5.6774   -2.9828    1.5018 H   0  0  0  0  0  0  0  0  0  0  0  0
    7.5092    0.1754   -0.9776 H   0  0  0  0  0  0  0  0  0  0  0  0
    6.0600    2.0696   -1.6224 H   0  0  0  0  0  0  0  0  0  0  0  0
   -1.4653    3.9681   -1.1646 H   0  0  0  0  0  0  0  0  0  0  0  0
   -3.0435    5.8236   -1.5684 H   0  0  0  0  0  0  0  0  0  0  0  0
   -5.4657    5.4001   -1.4838 H   0  0  0  0  0  0  0  0  0  0  0  0
   -6.2961    3.1375   -0.9989 H   0  0  0  0  0  0  0  0  0  0  0  0
   -4.7025    1.3120   -0.6002 H   0  0  0  0  0  0  0  0  0  0  0  0
  1  2  1  0  0  0  0
  2  3  1  0  0  0  0
  3  4  1  0  0  0  0
  4  5  2  0  0  0  0
  4  6  1  0  0  0  0
  6  7  2  0  0  0  0
  7  8  1  0  0  0  0
  8  9  2  0  0  0  0
  8 10  1  0  0  0  0
 10 11  1  0  0  0  0
  7 12  1  0  0  0  0
 12 13  1  0  0  0  0
 13 14  2  0  0  0  0
 14 15  1  0  0  0  0
 15 16  2  0  0  0  0
 16 17  1  0  0  0  0
 17 18  1  0  0  0  0
 18 19  1  0  0  0  0
 17 20  2  0  0  0  0
 20 21  1  0  0  0  0
 21 22  2  0  0  0  0
 22 23  1  0  0  0  0
 23 24  1  0  0  0  0
 24 25  2  0  0  0  0
 12 26  2  0  0  0  0
 26 27  1  0  0  0  0
 27 28  1  0  0  0  0
 28 29  2  0  0  0  0
 29 30  1  0  0  0  0
 30 31  2  0  0  0  0
 31 32  1  0  0  0  0
 32 33  2  0  0  0  0
 27  6  1  0  0  0  0
 33 28  1  0  0  0  0
 24 13  1  0  0  0  0
 22 15  1  0  0  0  0
  1 34  1  0  0  0  0
  1 35  1  0  0  0  0
  1 36  1  0  0  0  0
  2 37  1  0  0  0  0
  2 38  1  0  0  0  0
 11 39  1  0  0  0  0
 11 40  1  0  0  0  0
 11 41  1  0  0  0  0
 14 42  1  0  0  0  0
 16 43  1  0  0  0  0
 19 44  1  0  0  0  0
 19 45  1  0  0  0  0
 19 46  1  0  0  0  0
 20 47  1  0  0  0  0
 21 48  1  0  0  0  0
 29 49  1  0  0  0  0
 30 50  1  0  0  0  0
 31 51  1  0  0  0  0
 32 52  1  0  0  0  0
 33 53  1  0  0  0  0
M  END
