
  xtb     03012221233D
 energy: -16.552531796832 gnorm: 0.000770804981 xtb: 6.4.1 (afa7bdf)
100101  0     0  0            999 V2000
    8.7738   -4.4276    3.5120 C   0  0  0  0  0  0  0  0  0  0  0  0
    9.6677   -3.6644    2.5469 C   0  0  0  0  0  0  0  0  0  0  0  0
    8.9739   -2.4591    1.9039 C   0  0  0  0  0  0  0  0  0  0  0  0
    7.8108   -2.8425    0.9874 C   0  0  0  0  0  0  0  0  0  0  0  0
    7.1851   -1.6448    0.2690 C   0  0  0  0  0  0  0  0  0  0  0  0
    6.4994   -0.6643    1.2112 C   0  0  0  0  0  0  0  0  0  0  0  0
    5.8374    0.4437    0.4894 N   0  0  0  0  0  0  0  0  0  0  0  0
    6.7083    1.3527   -0.2843 C   0  0  0  0  0  0  0  0  0  0  0  0
    7.9285    1.8439    0.4863 C   0  0  0  0  0  0  0  0  0  0  0  0
    8.7537    2.8834   -0.2768 C   0  0  0  0  0  0  0  0  0  0  0  0
    9.4347    2.3184   -1.5242 C   0  0  0  0  0  0  0  0  0  0  0  0
   10.2752    3.3503   -2.2840 C   0  0  0  0  0  0  0  0  0  0  0  0
   11.4904    3.8307   -1.5050 C   0  0  0  0  0  0  0  0  0  0  0  0
    4.4324    0.4500    0.2951 C   0  0  0  0  0  0  0  0  0  0  0  0
    3.8696    0.9118   -0.8993 C   0  0  0  0  0  0  0  0  0  0  0  0
    2.5081    0.9099   -1.0878 C   0  0  0  0  0  0  0  0  0  0  0  0
    1.6478    0.4511   -0.0926 C   0  0  0  0  0  0  0  0  0  0  0  0
    0.2535    0.4497   -0.2796 C   0  0  0  0  0  0  0  0  0  0  0  0
   -0.9617    0.4392   -0.4197 C   0  0  0  0  0  0  0  0  0  0  0  0
   -2.3622    0.4273   -0.5526 C   0  0  0  0  0  0  0  0  0  0  0  0
   -2.9659    0.2337   -1.7927 C   0  0  0  0  0  0  0  0  0  0  0  0
   -4.3347    0.2175   -1.9183 C   0  0  0  0  0  0  0  0  0  0  0  0
   -5.1658    0.3915   -0.8069 C   0  0  0  0  0  0  0  0  0  0  0  0
   -6.5703    0.3654   -0.9315 N   0  0  0  0  0  0  0  0  0  0  0  0
   -7.2433    0.0952   -2.2148 C   0  0  0  0  0  0  0  0  0  0  0  0
   -7.2056   -1.3828   -2.5829 C   0  0  0  0  0  0  0  0  0  0  0  0
   -7.8497   -2.2639   -1.5162 C   0  0  0  0  0  0  0  0  0  0  0  0
   -7.7800   -3.7544   -1.8477 C   0  0  0  0  0  0  0  0  0  0  0  0
   -8.4443   -4.6450   -0.7930 C   0  0  0  0  0  0  0  0  0  0  0  0
   -7.7411   -4.6068    0.5554 C   0  0  0  0  0  0  0  0  0  0  0  0
   -7.4640    0.6309    0.2112 C   0  0  0  0  0  0  0  0  0  0  0  0
   -7.5926    2.1185    0.5042 C   0  0  0  0  0  0  0  0  0  0  0  0
   -8.4569    2.4269    1.7288 C   0  0  0  0  0  0  0  0  0  0  0  0
   -9.9049    1.9391    1.6135 C   0  0  0  0  0  0  0  0  0  0  0  0
  -10.6719    2.5199    0.4208 C   0  0  0  0  0  0  0  0  0  0  0  0
  -10.8070    4.0337    0.4713 C   0  0  0  0  0  0  0  0  0  0  0  0
   -4.5529    0.5905    0.4345 C   0  0  0  0  0  0  0  0  0  0  0  0
   -3.1841    0.6076    0.5571 C   0  0  0  0  0  0  0  0  0  0  0  0
    2.2038   -0.0057    1.1004 C   0  0  0  0  0  0  0  0  0  0  0  0
    3.5646   -0.0072    1.2919 C   0  0  0  0  0  0  0  0  0  0  0  0
    8.3976   -3.7746    4.3021 H   0  0  0  0  0  0  0  0  0  0  0  0
    7.9056   -4.8527    3.0052 H   0  0  0  0  0  0  0  0  0  0  0  0
    9.3024   -5.2537    3.9942 H   0  0  0  0  0  0  0  0  0  0  0  0
   10.0276   -4.3378    1.7577 H   0  0  0  0  0  0  0  0  0  0  0  0
   10.5744   -3.3316    3.0719 H   0  0  0  0  0  0  0  0  0  0  0  0
    8.6177   -1.7851    2.6918 H   0  0  0  0  0  0  0  0  0  0  0  0
    9.7003   -1.8693    1.3294 H   0  0  0  0  0  0  0  0  0  0  0  0
    7.0373   -3.3612    1.5661 H   0  0  0  0  0  0  0  0  0  0  0  0
    8.1629   -3.5785    0.2525 H   0  0  0  0  0  0  0  0  0  0  0  0
    7.9557   -1.1225   -0.3101 H   0  0  0  0  0  0  0  0  0  0  0  0
    6.4523   -1.9867   -0.4739 H   0  0  0  0  0  0  0  0  0  0  0  0
    5.7585   -1.1967    1.8116 H   0  0  0  0  0  0  0  0  0  0  0  0
    7.2068   -0.2411    1.9282 H   0  0  0  0  0  0  0  0  0  0  0  0
    6.1112    2.2160   -0.5912 H   0  0  0  0  0  0  0  0  0  0  0  0
    7.0028    0.8426   -1.2050 H   0  0  0  0  0  0  0  0  0  0  0  0
    7.5929    2.2570    1.4464 H   0  0  0  0  0  0  0  0  0  0  0  0
    8.5721    0.9953    0.7451 H   0  0  0  0  0  0  0  0  0  0  0  0
    9.5132    3.3126    0.3887 H   0  0  0  0  0  0  0  0  0  0  0  0
    8.1115    3.7262   -0.5606 H   0  0  0  0  0  0  0  0  0  0  0  0
   10.0679    1.4690   -1.2396 H   0  0  0  0  0  0  0  0  0  0  0  0
    8.6734    1.8962   -2.1922 H   0  0  0  0  0  0  0  0  0  0  0  0
   10.6009    2.9250   -3.2440 H   0  0  0  0  0  0  0  0  0  0  0  0
    9.6406    4.2053   -2.5529 H   0  0  0  0  0  0  0  0  0  0  0  0
   11.2029    4.3481   -0.5879 H   0  0  0  0  0  0  0  0  0  0  0  0
   12.1300    2.9940   -1.2165 H   0  0  0  0  0  0  0  0  0  0  0  0
   12.1019    4.5244   -2.0875 H   0  0  0  0  0  0  0  0  0  0  0  0
    4.5165    1.2436   -1.6918 H   0  0  0  0  0  0  0  0  0  0  0  0
    2.0877    1.2622   -2.0148 H   0  0  0  0  0  0  0  0  0  0  0  0
   -2.3398    0.0958   -2.6583 H   0  0  0  0  0  0  0  0  0  0  0  0
   -4.7710    0.0744   -2.8900 H   0  0  0  0  0  0  0  0  0  0  0  0
   -6.7863    0.7182   -2.9895 H   0  0  0  0  0  0  0  0  0  0  0  0
   -8.2801    0.4371   -2.1425 H   0  0  0  0  0  0  0  0  0  0  0  0
   -6.1665   -1.7015   -2.7264 H   0  0  0  0  0  0  0  0  0  0  0  0
   -7.6973   -1.5507   -3.5500 H   0  0  0  0  0  0  0  0  0  0  0  0
   -8.8951   -1.9651   -1.3706 H   0  0  0  0  0  0  0  0  0  0  0  0
   -7.3608   -2.0748   -0.5535 H   0  0  0  0  0  0  0  0  0  0  0  0
   -6.7309   -4.0511   -1.9690 H   0  0  0  0  0  0  0  0  0  0  0  0
   -8.2411   -3.9240   -2.8296 H   0  0  0  0  0  0  0  0  0  0  0  0
   -9.4941   -4.3444   -0.6759 H   0  0  0  0  0  0  0  0  0  0  0  0
   -8.4837   -5.6815   -1.1573 H   0  0  0  0  0  0  0  0  0  0  0  0
   -8.2000   -5.2881    1.2763 H   0  0  0  0  0  0  0  0  0  0  0  0
   -6.6909   -4.8904    0.4607 H   0  0  0  0  0  0  0  0  0  0  0  0
   -7.7668   -3.6079    0.9951 H   0  0  0  0  0  0  0  0  0  0  0  0
   -7.0981    0.0882    1.0868 H   0  0  0  0  0  0  0  0  0  0  0  0
   -8.4448    0.1977   -0.0026 H   0  0  0  0  0  0  0  0  0  0  0  0
   -7.9953    2.6256   -0.3804 H   0  0  0  0  0  0  0  0  0  0  0  0
   -6.5895    2.5451    0.6328 H   0  0  0  0  0  0  0  0  0  0  0  0
   -8.4521    3.5075    1.9222 H   0  0  0  0  0  0  0  0  0  0  0  0
   -7.9879    1.9793    2.6155 H   0  0  0  0  0  0  0  0  0  0  0  0
   -9.9141    0.8426    1.5611 H   0  0  0  0  0  0  0  0  0  0  0  0
  -10.4481    2.1810    2.5368 H   0  0  0  0  0  0  0  0  0  0  0  0
  -10.1820    2.2190   -0.5142 H   0  0  0  0  0  0  0  0  0  0  0  0
  -11.6711    2.0640    0.3701 H   0  0  0  0  0  0  0  0  0  0  0  0
   -9.8334    4.5255    0.4302 H   0  0  0  0  0  0  0  0  0  0  0  0
  -11.3986    4.4205   -0.3624 H   0  0  0  0  0  0  0  0  0  0  0  0
  -11.2920    4.3560    1.3951 H   0  0  0  0  0  0  0  0  0  0  0  0
   -5.1596    0.7331    1.3102 H   0  0  0  0  0  0  0  0  0  0  0  0
   -2.7268    0.7613    1.5203 H   0  0  0  0  0  0  0  0  0  0  0  0
    1.5457   -0.3548    1.8783 H   0  0  0  0  0  0  0  0  0  0  0  0
    3.9677   -0.3275    2.2359 H   0  0  0  0  0  0  0  0  0  0  0  0
  1  2  1  0  0  0  0
  2  3  1  0  0  0  0
  3  4  1  0  0  0  0
  4  5  1  0  0  0  0
  5  6  1  0  0  0  0
  6  7  1  0  0  0  0
  7  8  1  0  0  0  0
  8  9  1  0  0  0  0
  9 10  1  0  0  0  0
 10 11  1  0  0  0  0
 11 12  1  0  0  0  0
 12 13  1  0  0  0  0
  7 14  1  0  0  0  0
 14 15  2  0  0  0  0
 15 16  1  0  0  0  0
 16 17  2  0  0  0  0
 17 18  1  0  0  0  0
 18 19  3  0  0  0  0
 19 20  1  0  0  0  0
 20 21  2  0  0  0  0
 21 22  1  0  0  0  0
 22 23  2  0  0  0  0
 23 24  1  0  0  0  0
 24 25  1  0  0  0  0
 25 26  1  0  0  0  0
 26 27  1  0  0  0  0
 27 28  1  0  0  0  0
 28 29  1  0  0  0  0
 29 30  1  0  0  0  0
 24 31  1  0  0  0  0
 31 32  1  0  0  0  0
 32 33  1  0  0  0  0
 33 34  1  0  0  0  0
 34 35  1  0  0  0  0
 35 36  1  0  0  0  0
 23 37  1  0  0  0  0
 37 38  2  0  0  0  0
 17 39  1  0  0  0  0
 39 40  2  0  0  0  0
 40 14  1  0  0  0  0
 38 20  1  0  0  0  0
  1 41  1  0  0  0  0
  1 42  1  0  0  0  0
  1 43  1  0  0  0  0
  2 44  1  0  0  0  0
  2 45  1  0  0  0  0
  3 46  1  0  0  0  0
  3 47  1  0  0  0  0
  4 48  1  0  0  0  0
  4 49  1  0  0  0  0
  5 50  1  0  0  0  0
  5 51  1  0  0  0  0
  6 52  1  0  0  0  0
  6 53  1  0  0  0  0
  8 54  1  0  0  0  0
  8 55  1  0  0  0  0
  9 56  1  0  0  0  0
  9 57  1  0  0  0  0
 10 58  1  0  0  0  0
 10 59  1  0  0  0  0
 11 60  1  0  0  0  0
 11 61  1  0  0  0  0
 12 62  1  0  0  0  0
 12 63  1  0  0  0  0
 13 64  1  0  0  0  0
 13 65  1  0  0  0  0
 13 66  1  0  0  0  0
 15 67  1  0  0  0  0
 16 68  1  0  0  0  0
 21 69  1  0  0  0  0
 22 70  1  0  0  0  0
 25 71  1  0  0  0  0
 25 72  1  0  0  0  0
 26 73  1  0  0  0  0
 26 74  1  0  0  0  0
 27 75  1  0  0  0  0
 27 76  1  0  0  0  0
 28 77  1  0  0  0  0
 28 78  1  0  0  0  0
 29 79  1  0  0  0  0
 29 80  1  0  0  0  0
 30 81  1  0  0  0  0
 30 82  1  0  0  0  0
 30 83  1  0  0  0  0
 31 84  1  0  0  0  0
 31 85  1  0  0  0  0
 32 86  1  0  0  0  0
 32 87  1  0  0  0  0
 33 88  1  0  0  0  0
 33 89  1  0  0  0  0
 34 90  1  0  0  0  0
 34 91  1  0  0  0  0
 35 92  1  0  0  0  0
 35 93  1  0  0  0  0
 36 94  1  0  0  0  0
 36 95  1  0  0  0  0
 36 96  1  0  0  0  0
 37 97  1  0  0  0  0
 38 98  1  0  0  0  0
 39 99  1  0  0  0  0
 40100  1  0  0  0  0
M  END
