
  xtb     03012221253D
 energy: -15.005608792952 gnorm: 0.000144269619 xtb: 6.4.1 (afa7bdf)
 76 82  0     0  0            999 V2000
    4.9361    3.6643   -0.3792 C   0  0  0  0  0  0  0  0  0  0  0  0
    5.8551    2.5126   -0.3948 C   0  0  0  0  0  0  0  0  0  0  0  0
    5.4894    1.2183   -0.2935 C   0  0  0  0  0  0  0  0  0  0  0  0
    6.5794    0.2794   -0.3316 C   0  0  0  0  0  0  0  0  0  0  0  0
    6.3773   -1.1704   -0.2400 C   0  0  0  0  0  0  0  0  0  0  0  0
    5.3038   -1.7976    0.2844 C   0  0  0  0  0  0  0  0  0  0  0  0
    4.1365   -1.1695    0.9261 C   0  0  0  0  0  0  0  0  0  0  0  0
    4.1811   -0.5875    2.1644 C   0  0  0  0  0  0  0  0  0  0  0  0
    5.3729   -0.5256    3.0297 C   0  0  0  0  0  0  0  0  0  0  0  0
    2.6318    0.0676    2.5516 S   0  0  0  0  0  0  0  0  0  0  0  0
    1.8957   -0.5039    1.0792 C   0  0  0  0  0  0  0  0  0  0  0  0
    0.4754   -0.3190    0.7862 C   0  0  0  0  0  0  0  0  0  0  0  0
   -0.1776    0.8471    1.1855 C   0  0  0  0  0  0  0  0  0  0  0  0
   -1.5132    1.0309    0.9349 C   0  0  0  0  0  0  0  0  0  0  0  0
   -2.2545    0.0510    0.2768 C   0  0  0  0  0  0  0  0  0  0  0  0
   -3.6718    0.2646    0.0218 C   0  0  0  0  0  0  0  0  0  0  0  0
   -4.3409    1.3421    0.4185 N   0  0  0  0  0  0  0  0  0  0  0  0
   -5.6147    1.1834    0.0090 C   0  0  0  0  0  0  0  0  0  0  0  0
   -6.6525    2.2011    0.2204 C   0  0  0  0  0  0  0  0  0  0  0  0
   -6.5718    3.0449    1.3247 C   0  0  0  0  0  0  0  0  0  0  0  0
   -7.5216    4.0186    1.5384 C   0  0  0  0  0  0  0  0  0  0  0  0
   -8.5639    4.1737    0.6471 C   0  0  0  0  0  0  0  0  0  0  0  0
   -8.6510    3.3572   -0.4621 C   0  0  0  0  0  0  0  0  0  0  0  0
   -7.7030    2.3824   -0.6776 C   0  0  0  0  0  0  0  0  0  0  0  0
   -5.7465   -0.0568   -0.6565 C   0  0  0  0  0  0  0  0  0  0  0  0
   -6.9481   -0.7034   -1.1936 C   0  0  0  0  0  0  0  0  0  0  0  0
   -8.1661   -0.6492   -0.5161 C   0  0  0  0  0  0  0  0  0  0  0  0
   -9.2812   -1.2765   -1.0240 C   0  0  0  0  0  0  0  0  0  0  0  0
   -9.2009   -1.9750   -2.2116 C   0  0  0  0  0  0  0  0  0  0  0  0
   -8.0008   -2.0496   -2.8893 C   0  0  0  0  0  0  0  0  0  0  0  0
   -6.8830   -1.4240   -2.3844 C   0  0  0  0  0  0  0  0  0  0  0  0
   -4.5022   -0.6116   -0.6504 N   0  0  0  0  0  0  0  0  0  0  0  0
   -1.6108   -1.1236   -0.1117 C   0  0  0  0  0  0  0  0  0  0  0  0
   -0.2752   -1.3045    0.1433 C   0  0  0  0  0  0  0  0  0  0  0  0
    2.8383   -1.1192    0.3011 C   0  0  0  0  0  0  0  0  0  0  0  0
    2.6004   -1.6964   -1.0492 C   0  0  0  0  0  0  0  0  0  0  0  0
    5.4244   -3.3016    0.1664 C   0  0  0  0  0  0  0  0  0  0  0  0
    5.7375   -3.8232    1.3662 F   0  0  0  0  0  0  0  0  0  0  0  0
    4.2895   -3.8322   -0.3199 F   0  0  0  0  0  0  0  0  0  0  0  0
    6.5885   -3.5320   -0.8334 C   0  0  0  0  0  0  0  0  0  0  0  0
    7.3664   -4.5454   -0.4377 F   0  0  0  0  0  0  0  0  0  0  0  0
    6.0924   -3.7260   -2.0624 F   0  0  0  0  0  0  0  0  0  0  0  0
    7.3619   -2.1843   -0.7871 C   0  0  0  0  0  0  0  0  0  0  0  0
    8.4087   -2.2980    0.0493 F   0  0  0  0  0  0  0  0  0  0  0  0
    7.7534   -1.8384   -2.0257 F   0  0  0  0  0  0  0  0  0  0  0  0
    7.7934    0.8987   -0.4765 C   0  0  0  0  0  0  0  0  0  0  0  0
    9.1164    0.2545   -0.5611 C   0  0  0  0  0  0  0  0  0  0  0  0
    7.5811    2.6192   -0.5492 S   0  0  0  0  0  0  0  0  0  0  0  0
    4.3465    3.6789    0.5381 H   0  0  0  0  0  0  0  0  0  0  0  0
    5.4896    4.6019   -0.4397 H   0  0  0  0  0  0  0  0  0  0  0  0
    4.2483    3.6238   -1.2245 H   0  0  0  0  0  0  0  0  0  0  0  0
    4.4611    0.9150   -0.1927 H   0  0  0  0  0  0  0  0  0  0  0  0
    6.0828    0.2156    2.6615 H   0  0  0  0  0  0  0  0  0  0  0  0
    5.0990   -0.2578    4.0504 H   0  0  0  0  0  0  0  0  0  0  0  0
    5.8777   -1.4928    3.0566 H   0  0  0  0  0  0  0  0  0  0  0  0
    0.3885    1.6069    1.6987 H   0  0  0  0  0  0  0  0  0  0  0  0
   -2.0097    1.9336    1.2439 H   0  0  0  0  0  0  0  0  0  0  0  0
   -5.7505    2.9217    2.0090 H   0  0  0  0  0  0  0  0  0  0  0  0
   -7.4497    4.6611    2.3999 H   0  0  0  0  0  0  0  0  0  0  0  0
   -9.3068    4.9366    0.8144 H   0  0  0  0  0  0  0  0  0  0  0  0
   -9.4598    3.4851   -1.1620 H   0  0  0  0  0  0  0  0  0  0  0  0
   -7.7590    1.7579   -1.5516 H   0  0  0  0  0  0  0  0  0  0  0  0
   -8.2214   -0.1153    0.4165 H   0  0  0  0  0  0  0  0  0  0  0  0
  -10.2166   -1.2250   -0.4924 H   0  0  0  0  0  0  0  0  0  0  0  0
  -10.0748   -2.4661   -2.6079 H   0  0  0  0  0  0  0  0  0  0  0  0
   -7.9386   -2.5989   -3.8138 H   0  0  0  0  0  0  0  0  0  0  0  0
   -5.9456   -1.4777   -2.9099 H   0  0  0  0  0  0  0  0  0  0  0  0
   -4.2574   -1.5310   -1.0205 H   0  0  0  0  0  0  0  0  0  0  0  0
   -2.1726   -1.8952   -0.6055 H   0  0  0  0  0  0  0  0  0  0  0  0
    0.2006   -2.2333   -0.1237 H   0  0  0  0  0  0  0  0  0  0  0  0
    3.4906   -1.5988   -1.6720 H   0  0  0  0  0  0  0  0  0  0  0  0
    1.7797   -1.1943   -1.5613 H   0  0  0  0  0  0  0  0  0  0  0  0
    2.3755   -2.7612   -0.9766 H   0  0  0  0  0  0  0  0  0  0  0  0
    9.9096    0.9978   -0.6428 H   0  0  0  0  0  0  0  0  0  0  0  0
    9.1710   -0.4007   -1.4316 H   0  0  0  0  0  0  0  0  0  0  0  0
    9.3067   -0.3546    0.3233 H   0  0  0  0  0  0  0  0  0  0  0  0
  1  2  1  0  0  0  0
  2  3  2  0  0  0  0
  3  4  1  0  0  0  0
  4  5  1  0  0  0  0
  5  6  2  0  0  0  0
  6  7  1  0  0  0  0
  7  8  2  0  0  0  0
  8  9  1  0  0  0  0
  8 10  1  0  0  0  0
 10 11  1  0  0  0  0
 11 12  1  0  0  0  0
 12 13  2  0  0  0  0
 13 14  1  0  0  0  0
 14 15  2  0  0  0  0
 15 16  1  0  0  0  0
 16 17  2  0  0  0  0
 17 18  1  0  0  0  0
 18 19  1  0  0  0  0
 19 20  2  0  0  0  0
 20 21  1  0  0  0  0
 21 22  2  0  0  0  0
 22 23  1  0  0  0  0
 23 24  2  0  0  0  0
 18 25  2  0  0  0  0
 25 26  1  0  0  0  0
 26 27  2  0  0  0  0
 27 28  1  0  0  0  0
 28 29  2  0  0  0  0
 29 30  1  0  0  0  0
 30 31  2  0  0  0  0
 25 32  1  0  0  0  0
 15 33  1  0  0  0  0
 33 34  2  0  0  0  0
 11 35  2  0  0  0  0
 35 36  1  0  0  0  0
  6 37  1  0  0  0  0
 37 38  1  0  0  0  0
 37 39  1  0  0  0  0
 37 40  1  0  0  0  0
 40 41  1  0  0  0  0
 40 42  1  0  0  0  0
 40 43  1  0  0  0  0
 43 44  1  0  0  0  0
 43 45  1  0  0  0  0
  4 46  2  0  0  0  0
 46 47  1  0  0  0  0
 46 48  1  0  0  0  0
 48  2  1  0  0  0  0
 43  5  1  0  0  0  0
 35  7  1  0  0  0  0
 34 12  1  0  0  0  0
 32 16  1  0  0  0  0
 24 19  1  0  0  0  0
 31 26  1  0  0  0  0
  1 49  1  0  0  0  0
  1 50  1  0  0  0  0
  1 51  1  0  0  0  0
  3 52  1  0  0  0  0
  9 53  1  0  0  0  0
  9 54  1  0  0  0  0
  9 55  1  0  0  0  0
 13 56  1  0  0  0  0
 14 57  1  0  0  0  0
 20 58  1  0  0  0  0
 21 59  1  0  0  0  0
 22 60  1  0  0  0  0
 23 61  1  0  0  0  0
 24 62  1  0  0  0  0
 27 63  1  0  0  0  0
 28 64  1  0  0  0  0
 29 65  1  0  0  0  0
 30 66  1  0  0  0  0
 31 67  1  0  0  0  0
 32 68  1  0  0  0  0
 33 69  1  0  0  0  0
 34 70  1  0  0  0  0
 36 71  1  0  0  0  0
 36 72  1  0  0  0  0
 36 73  1  0  0  0  0
 47 74  1  0  0  0  0
 47 75  1  0  0  0  0
 47 76  1  0  0  0  0
M  END
