
  xtb     03012221203D
 energy: -8.091735675593 gnorm: 0.000164951198 xtb: 6.4.1 (afa7bdf)
 39 42  0     0  0            999 V2000
    7.3125   -1.3051    0.5216 C   0  0  0  0  0  0  0  0  0  0  0  0
    6.1958   -2.0655    0.1350 O   0  0  0  0  0  0  0  0  0  0  0  0
    4.9787   -1.3925    0.2027 C   0  0  0  0  0  0  0  0  0  0  0  0
    3.8259   -2.1036   -0.1726 C   0  0  0  0  0  0  0  0  0  0  0  0
    2.5945   -1.5179   -0.1349 C   0  0  0  0  0  0  0  0  0  0  0  0
    2.4380   -0.1922    0.2781 C   0  0  0  0  0  0  0  0  0  0  0  0
    1.1623    0.4626    0.3324 C   0  0  0  0  0  0  0  0  0  0  0  0
   -0.0683   -0.2096   -0.0425 C   0  0  0  0  0  0  0  0  0  0  0  0
   -1.2513    0.3732   -0.0054 N   0  0  0  0  0  0  0  0  0  0  0  0
   -2.1091   -0.5663   -0.4195 C   0  0  0  0  0  0  0  0  0  0  0  0
   -3.5446   -0.3635   -0.5376 C   0  0  0  0  0  0  0  0  0  0  0  0
   -4.3810   -1.3857   -0.9693 C   0  0  0  0  0  0  0  0  0  0  0  0
   -5.7364   -1.1797   -1.0716 C   0  0  0  0  0  0  0  0  0  0  0  0
   -6.2742    0.0500   -0.7468 C   0  0  0  0  0  0  0  0  0  0  0  0
   -5.4628    1.0926   -0.3200 C   0  0  0  0  0  0  0  0  0  0  0  0
   -6.0376    2.4146    0.0513 C   0  0  0  0  0  0  0  0  0  0  0  0
   -4.1028    0.8675   -0.2150 C   0  0  0  0  0  0  0  0  0  0  0  0
   -1.4766   -1.7118   -0.7091 N   0  0  0  0  0  0  0  0  0  0  0  0
   -0.1867   -1.5066   -0.4776 O   0  0  0  0  0  0  0  0  0  0  0  0
    1.1129    1.7510    0.7474 C   0  0  0  0  0  0  0  0  0  0  0  0
    2.2879    2.4815    1.1333 C   0  0  0  0  0  0  0  0  0  0  0  0
    2.1494    3.6432    1.4961 O   0  0  0  0  0  0  0  0  0  0  0  0
    3.5140    1.8575    1.0823 O   0  0  0  0  0  0  0  0  0  0  0  0
    3.5810    0.5402    0.6595 C   0  0  0  0  0  0  0  0  0  0  0  0
    4.8276   -0.0753    0.6132 C   0  0  0  0  0  0  0  0  0  0  0  0
    7.4173   -0.4410   -0.1366 H   0  0  0  0  0  0  0  0  0  0  0  0
    7.2042   -0.9905    1.5608 H   0  0  0  0  0  0  0  0  0  0  0  0
    8.2010   -1.9316    0.4305 H   0  0  0  0  0  0  0  0  0  0  0  0
    3.9417   -3.1242   -0.4911 H   0  0  0  0  0  0  0  0  0  0  0  0
    1.7207   -2.0738   -0.4251 H   0  0  0  0  0  0  0  0  0  0  0  0
   -3.9494   -2.3411   -1.2197 H   0  0  0  0  0  0  0  0  0  0  0  0
   -6.3785   -1.9776   -1.4037 H   0  0  0  0  0  0  0  0  0  0  0  0
   -7.3365    0.2091   -0.8225 H   0  0  0  0  0  0  0  0  0  0  0  0
   -6.0940    2.5213    1.1349 H   0  0  0  0  0  0  0  0  0  0  0  0
   -7.0432    2.5373   -0.3515 H   0  0  0  0  0  0  0  0  0  0  0  0
   -5.4243    3.2290   -0.3357 H   0  0  0  0  0  0  0  0  0  0  0  0
   -3.4536    1.6567    0.1238 H   0  0  0  0  0  0  0  0  0  0  0  0
    0.1680    2.2592    0.7950 H   0  0  0  0  0  0  0  0  0  0  0  0
    5.6773    0.5086    0.9088 H   0  0  0  0  0  0  0  0  0  0  0  0
  1  2  1  0  0  0  0
  2  3  1  0  0  0  0
  3  4  2  0  0  0  0
  4  5  1  0  0  0  0
  5  6  2  0  0  0  0
  6  7  1  0  0  0  0
  7  8  1  0  0  0  0
  8  9  2  0  0  0  0
  9 10  1  0  0  0  0
 10 11  1  0  0  0  0
 11 12  2  0  0  0  0
 12 13  1  0  0  0  0
 13 14  2  0  0  0  0
 14 15  1  0  0  0  0
 15 16  1  0  0  0  0
 15 17  2  0  0  0  0
 10 18  2  0  0  0  0
 18 19  1  0  0  0  0
  7 20  2  0  0  0  0
 20 21  1  0  0  0  0
 21 22  2  0  0  0  0
 21 23  1  0  0  0  0
 23 24  1  0  0  0  0
 24 25  2  0  0  0  0
 25  3  1  0  0  0  0
 24  6  1  0  0  0  0
 19  8  1  0  0  0  0
 17 11  1  0  0  0  0
  1 26  1  0  0  0  0
  1 27  1  0  0  0  0
  1 28  1  0  0  0  0
  4 29  1  0  0  0  0
  5 30  1  0  0  0  0
 12 31  1  0  0  0  0
 13 32  1  0  0  0  0
 14 33  1  0  0  0  0
 16 34  1  0  0  0  0
 16 35  1  0  0  0  0
 16 36  1  0  0  0  0
 17 37  1  0  0  0  0
 20 38  1  0  0  0  0
 25 39  1  0  0  0  0
M  END
