
  xtb     03012221283D
 energy: -15.143532346999 gnorm: 0.000209746640 xtb: 6.4.1 (afa7bdf)
 76 80  0     0  0            999 V2000
   -5.2994    4.9634    2.5789 C   0  0  0  0  0  0  0  0  0  0  0  0
   -5.4073    4.1423    1.4626 O   0  0  0  0  0  0  0  0  0  0  0  0
   -4.9219    2.9078    1.7648 C   0  0  0  0  0  0  0  0  0  0  0  0
   -4.4567    2.5858    2.8350 O   0  0  0  0  0  0  0  0  0  0  0  0
   -4.9601    1.8795    0.6544 C   0  0  0  0  0  0  0  0  0  0  0  0
   -5.6676    0.6980    1.1146 N   0  0  0  0  0  0  0  0  0  0  0  0
   -6.1576   -0.2464    0.2302 C   0  0  0  0  0  0  0  0  0  0  0  0
   -6.1429   -0.0331   -0.9702 O   0  0  0  0  0  0  0  0  0  0  0  0
   -6.6252   -1.3959    0.8085 O   0  0  0  0  0  0  0  0  0  0  0  0
   -7.1047   -2.3887   -0.1354 C   0  0  0  0  0  0  0  0  0  0  0  0
   -5.9581   -2.8189   -1.0610 C   0  0  0  0  0  0  0  0  0  0  0  0
   -8.2777   -1.8153   -0.9421 C   0  0  0  0  0  0  0  0  0  0  0  0
   -7.5851   -3.5966    0.6836 C   0  0  0  0  0  0  0  0  0  0  0  0
   -3.5833    1.5312    0.1605 C   0  0  0  0  0  0  0  0  0  0  0  0
   -3.4095    1.0808   -1.1641 C   0  0  0  0  0  0  0  0  0  0  0  0
   -2.1852    0.7157   -1.6433 C   0  0  0  0  0  0  0  0  0  0  0  0
   -1.0744    0.7735   -0.7893 C   0  0  0  0  0  0  0  0  0  0  0  0
    0.2499    0.4831   -0.9368 O   0  0  0  0  0  0  0  0  0  0  0  0
    0.8154    0.7313    0.2950 C   0  0  0  0  0  0  0  0  0  0  0  0
    2.2237    0.5454    0.6268 C   0  0  0  0  0  0  0  0  0  0  0  0
    2.6556    0.7448    1.9322 C   0  0  0  0  0  0  0  0  0  0  0  0
    3.9697    0.5636    2.2773 C   0  0  0  0  0  0  0  0  0  0  0  0
    4.9143    0.1750    1.3279 C   0  0  0  0  0  0  0  0  0  0  0  0
    6.2672   -0.0389    1.5870 O   0  0  0  0  0  0  0  0  0  0  0  0
    6.7461    0.1232    2.8655 C   0  0  0  0  0  0  0  0  0  0  0  0
    6.0933    0.4520    3.8324 O   0  0  0  0  0  0  0  0  0  0  0  0
    8.1945   -0.1392    3.0308 C   0  0  0  0  0  0  0  0  0  0  0  0
    8.9705   -0.5109    1.9452 C   0  0  0  0  0  0  0  0  0  0  0  0
   10.3162   -0.7548    2.1055 C   0  0  0  0  0  0  0  0  0  0  0  0
   10.8991   -0.6301    3.3500 C   0  0  0  0  0  0  0  0  0  0  0  0
   10.1310   -0.2601    4.4350 C   0  0  0  0  0  0  0  0  0  0  0  0
    8.7851   -0.0156    4.2773 C   0  0  0  0  0  0  0  0  0  0  0  0
    4.4849   -0.0175    0.0216 C   0  0  0  0  0  0  0  0  0  0  0  0
    3.1628    0.1582   -0.3552 C   0  0  0  0  0  0  0  0  0  0  0  0
    2.6969   -0.0192   -1.6486 O   0  0  0  0  0  0  0  0  0  0  0  0
    3.5437   -0.3818   -2.6665 C   0  0  0  0  0  0  0  0  0  0  0  0
    4.7331   -0.5888   -2.5712 O   0  0  0  0  0  0  0  0  0  0  0  0
    2.8545   -0.5072   -3.9700 C   0  0  0  0  0  0  0  0  0  0  0  0
    3.5487   -0.8447   -5.1187 C   0  0  0  0  0  0  0  0  0  0  0  0
    2.8822   -0.9495   -6.3182 C   0  0  0  0  0  0  0  0  0  0  0  0
    1.5239   -0.7192   -6.3813 C   0  0  0  0  0  0  0  0  0  0  0  0
    0.8295   -0.3832   -5.2385 C   0  0  0  0  0  0  0  0  0  0  0  0
    1.4898   -0.2773   -4.0369 C   0  0  0  0  0  0  0  0  0  0  0  0
   -0.0581    1.1585    1.1900 N   0  0  0  0  0  0  0  0  0  0  0  0
   -1.2446    1.2010    0.5494 C   0  0  0  0  0  0  0  0  0  0  0  0
   -2.5107    1.5749    1.0144 C   0  0  0  0  0  0  0  0  0  0  0  0
   -5.8641    4.5172    3.4017 H   0  0  0  0  0  0  0  0  0  0  0  0
   -4.2461    5.0439    2.8596 H   0  0  0  0  0  0  0  0  0  0  0  0
   -5.7011    5.9503    2.3386 H   0  0  0  0  0  0  0  0  0  0  0  0
   -5.5456    2.2974   -0.1772 H   0  0  0  0  0  0  0  0  0  0  0  0
   -5.5424    0.4768    2.1001 H   0  0  0  0  0  0  0  0  0  0  0  0
   -5.6015   -1.9679   -1.6381 H   0  0  0  0  0  0  0  0  0  0  0  0
   -6.2793   -3.5952   -1.7531 H   0  0  0  0  0  0  0  0  0  0  0  0
   -5.1227   -3.1982   -0.4759 H   0  0  0  0  0  0  0  0  0  0  0  0
   -8.6780   -2.5525   -1.6359 H   0  0  0  0  0  0  0  0  0  0  0  0
   -9.0753   -1.4965   -0.2741 H   0  0  0  0  0  0  0  0  0  0  0  0
   -7.9529   -0.9460   -1.5111 H   0  0  0  0  0  0  0  0  0  0  0  0
   -8.3791   -3.2974    1.3647 H   0  0  0  0  0  0  0  0  0  0  0  0
   -6.7677   -3.9945    1.2817 H   0  0  0  0  0  0  0  0  0  0  0  0
   -7.9608   -4.3887    0.0382 H   0  0  0  0  0  0  0  0  0  0  0  0
   -4.2807    0.9916   -1.7884 H   0  0  0  0  0  0  0  0  0  0  0  0
   -2.0545    0.3687   -2.6546 H   0  0  0  0  0  0  0  0  0  0  0  0
    1.9328    1.0422    2.6719 H   0  0  0  0  0  0  0  0  0  0  0  0
    4.2946    0.7156    3.2888 H   0  0  0  0  0  0  0  0  0  0  0  0
    8.5012   -0.6042    0.9816 H   0  0  0  0  0  0  0  0  0  0  0  0
   10.9151   -1.0440    1.2565 H   0  0  0  0  0  0  0  0  0  0  0  0
   11.9516   -0.8212    3.4744 H   0  0  0  0  0  0  0  0  0  0  0  0
   10.5848   -0.1622    5.4084 H   0  0  0  0  0  0  0  0  0  0  0  0
    8.1701    0.2739    5.1115 H   0  0  0  0  0  0  0  0  0  0  0  0
    5.2082   -0.3128   -0.7145 H   0  0  0  0  0  0  0  0  0  0  0  0
    4.6081   -1.0196   -5.0510 H   0  0  0  0  0  0  0  0  0  0  0  0
    3.4261   -1.2123   -7.2128 H   0  0  0  0  0  0  0  0  0  0  0  0
    1.0063   -0.8014   -7.3218 H   0  0  0  0  0  0  0  0  0  0  0  0
   -0.2334   -0.2016   -5.2854 H   0  0  0  0  0  0  0  0  0  0  0  0
    0.9709   -0.0164   -3.1281 H   0  0  0  0  0  0  0  0  0  0  0  0
   -2.6358    1.8860    2.0354 H   0  0  0  0  0  0  0  0  0  0  0  0
  1  2  1  0  0  0  0
  2  3  1  0  0  0  0
  3  4  2  0  0  0  0
  3  5  1  0  0  0  0
  5  6  1  0  0  0  0
  6  7  1  0  0  0  0
  7  8  2  0  0  0  0
  7  9  1  0  0  0  0
  9 10  1  0  0  0  0
 10 11  1  0  0  0  0
 10 12  1  0  0  0  0
 10 13  1  0  0  0  0
  5 14  1  0  0  0  0
 14 15  2  0  0  0  0
 15 16  1  0  0  0  0
 16 17  2  0  0  0  0
 17 18  1  0  0  0  0
 18 19  1  0  0  0  0
 19 20  1  0  0  0  0
 20 21  2  0  0  0  0
 21 22  1  0  0  0  0
 22 23  2  0  0  0  0
 23 24  1  0  0  0  0
 24 25  1  0  0  0  0
 25 26  2  0  0  0  0
 25 27  1  0  0  0  0
 27 28  2  0  0  0  0
 28 29  1  0  0  0  0
 29 30  2  0  0  0  0
 30 31  1  0  0  0  0
 31 32  2  0  0  0  0
 23 33  1  0  0  0  0
 33 34  2  0  0  0  0
 34 35  1  0  0  0  0
 35 36  1  0  0  0  0
 36 37  2  0  0  0  0
 36 38  1  0  0  0  0
 38 39  2  0  0  0  0
 39 40  1  0  0  0  0
 40 41  2  0  0  0  0
 41 42  1  0  0  0  0
 42 43  2  0  0  0  0
 19 44  2  0  0  0  0
 44 45  1  0  0  0  0
 45 46  2  0  0  0  0
 46 14  1  0  0  0  0
 45 17  1  0  0  0  0
 34 20  1  0  0  0  0
 43 38  1  0  0  0  0
 32 27  1  0  0  0  0
  1 47  1  0  0  0  0
  1 48  1  0  0  0  0
  1 49  1  0  0  0  0
  5 50  1  0  0  0  0
  6 51  1  0  0  0  0
 11 52  1  0  0  0  0
 11 53  1  0  0  0  0
 11 54  1  0  0  0  0
 12 55  1  0  0  0  0
 12 56  1  0  0  0  0
 12 57  1  0  0  0  0
 13 58  1  0  0  0  0
 13 59  1  0  0  0  0
 13 60  1  0  0  0  0
 15 61  1  0  0  0  0
 16 62  1  0  0  0  0
 21 63  1  0  0  0  0
 22 64  1  0  0  0  0
 28 65  1  0  0  0  0
 29 66  1  0  0  0  0
 30 67  1  0  0  0  0
 31 68  1  0  0  0  0
 32 69  1  0  0  0  0
 33 70  1  0  0  0  0
 39 71  1  0  0  0  0
 40 72  1  0  0  0  0
 41 73  1  0  0  0  0
 42 74  1  0  0  0  0
 43 75  1  0  0  0  0
 46 76  1  0  0  0  0
M  END
