
  xtb     03012221333D
 energy: -6.116816816841 gnorm: 0.000301107082 xtb: 6.4.1 (afa7bdf)
 28 31  0     0  0            999 V2000
   -3.8946   -0.5955   -0.0788 N   0  0  0  0  0  0  0  0  0  0  0  0
   -2.7452    0.1408    0.0213 C   0  0  0  0  0  0  0  0  0  0  0  0
   -2.8327    1.5308    0.2140 C   0  0  0  0  0  0  0  0  0  0  0  0
   -1.7183    2.3155    0.3215 C   0  0  0  0  0  0  0  0  0  0  0  0
   -0.4324    1.7575    0.2433 C   0  0  0  0  0  0  0  0  0  0  0  0
    0.7425    2.5531    0.3528 C   0  0  0  0  0  0  0  0  0  0  0  0
    1.9773    2.0000    0.2753 C   0  0  0  0  0  0  0  0  0  0  0  0
    2.1453    0.5969    0.0804 C   0  0  0  0  0  0  0  0  0  0  0  0
    3.4069    0.0006   -0.0036 C   0  0  0  0  0  0  0  0  0  0  0  0
    3.5338   -1.3602   -0.1934 C   0  0  0  0  0  0  0  0  0  0  0  0
    2.4181   -2.1631   -0.3046 C   0  0  0  0  0  0  0  0  0  0  0  0
    1.1330   -1.6166   -0.2274 C   0  0  0  0  0  0  0  0  0  0  0  0
   -0.0430   -2.4129   -0.3382 C   0  0  0  0  0  0  0  0  0  0  0  0
   -1.2777   -1.8568   -0.2601 C   0  0  0  0  0  0  0  0  0  0  0  0
   -1.4566   -0.4604   -0.0642 C   0  0  0  0  0  0  0  0  0  0  0  0
   -0.3055    0.3594    0.0490 C   0  0  0  0  0  0  0  0  0  0  0  0
    0.9933   -0.2212   -0.0325 C   0  0  0  0  0  0  0  0  0  0  0  0
   -3.9354   -1.5983   -0.1948 H   0  0  0  0  0  0  0  0  0  0  0  0
   -4.8175   -0.1897   -0.0042 H   0  0  0  0  0  0  0  0  0  0  0  0
   -3.8104    1.9755    0.2762 H   0  0  0  0  0  0  0  0  0  0  0  0
   -1.8162    3.3774    0.4681 H   0  0  0  0  0  0  0  0  0  0  0  0
    0.6335    3.6138    0.5002 H   0  0  0  0  0  0  0  0  0  0  0  0
    2.8548    2.6173    0.3605 H   0  0  0  0  0  0  0  0  0  0  0  0
    4.2837    0.6191    0.0818 H   0  0  0  0  0  0  0  0  0  0  0  0
    4.5153   -1.8002   -0.2554 H   0  0  0  0  0  0  0  0  0  0  0  0
    2.5268   -3.2237   -0.4526 H   0  0  0  0  0  0  0  0  0  0  0  0
    0.0658   -3.4734   -0.4862 H   0  0  0  0  0  0  0  0  0  0  0  0
   -2.1444   -2.4857   -0.3487 H   0  0  0  0  0  0  0  0  0  0  0  0
  1  2  1  0  0  0  0
  2  3  2  0  0  0  0
  3  4  1  0  0  0  0
  4  5  2  0  0  0  0
  5  6  1  0  0  0  0
  6  7  2  0  0  0  0
  7  8  1  0  0  0  0
  8  9  2  0  0  0  0
  9 10  1  0  0  0  0
 10 11  2  0  0  0  0
 11 12  1  0  0  0  0
 12 13  2  0  0  0  0
 13 14  1  0  0  0  0
 14 15  2  0  0  0  0
 15 16  1  0  0  0  0
 16 17  2  0  0  0  0
 15  2  1  0  0  0  0
 16  5  1  0  0  0  0
 17  8  1  0  0  0  0
 17 12  1  0  0  0  0
  1 18  1  0  0  0  0
  1 19  1  0  0  0  0
  3 20  1  0  0  0  0
  4 21  1  0  0  0  0
  6 22  1  0  0  0  0
  7 23  1  0  0  0  0
  9 24  1  0  0  0  0
 10 25  1  0  0  0  0
 11 26  1  0  0  0  0
 13 27  1  0  0  0  0
 14 28  1  0  0  0  0
M  END
