
  xtb     03012221213D
 energy: -5.633703463560 gnorm: 0.000284979483 xtb: 6.4.1 (afa7bdf)
 28 29  0     0  0            999 V2000
   -5.4363   -0.1747    1.4227 C   0  0  0  0  0  0  0  0  0  0  0  0
   -4.3160   -0.8239    1.9730 O   0  0  0  0  0  0  0  0  0  0  0  0
   -3.1001   -0.5133    1.3660 C   0  0  0  0  0  0  0  0  0  0  0  0
   -2.9440    0.3825    0.3028 C   0  0  0  0  0  0  0  0  0  0  0  0
   -1.7068    0.6255   -0.2366 C   0  0  0  0  0  0  0  0  0  0  0  0
   -0.5615   -0.0094    0.2533 C   0  0  0  0  0  0  0  0  0  0  0  0
    0.7260    0.2732   -0.3498 C   0  0  0  0  0  0  0  0  0  0  0  0
    1.8962   -0.2671    0.0319 C   0  0  0  0  0  0  0  0  0  0  0  0
    3.1894   -0.0006   -0.5604 C   0  0  0  0  0  0  0  0  0  0  0  0
    3.3531    0.8692   -1.6284 C   0  0  0  0  0  0  0  0  0  0  0  0
    4.6114    1.0557   -2.1203 C   0  0  0  0  0  0  0  0  0  0  0  0
    5.6671    0.4453   -1.6222 N   0  0  0  0  0  0  0  0  0  0  0  0
    5.4018   -0.3564   -0.6134 C   0  0  0  0  0  0  0  0  0  0  0  0
    4.2481   -0.6273   -0.0441 N   0  0  0  0  0  0  0  0  0  0  0  0
   -0.7168   -0.9028    1.3173 C   0  0  0  0  0  0  0  0  0  0  0  0
   -1.9532   -1.1458    1.8572 C   0  0  0  0  0  0  0  0  0  0  0  0
   -5.5430   -0.4460    0.3720 H   0  0  0  0  0  0  0  0  0  0  0  0
   -6.3244   -0.5012    1.9644 H   0  0  0  0  0  0  0  0  0  0  0  0
   -5.3306    0.9049    1.5332 H   0  0  0  0  0  0  0  0  0  0  0  0
   -3.8036    0.8880   -0.0977 H   0  0  0  0  0  0  0  0  0  0  0  0
   -1.6065    1.3177   -1.0550 H   0  0  0  0  0  0  0  0  0  0  0  0
    0.7231    0.9719   -1.1656 H   0  0  0  0  0  0  0  0  0  0  0  0
    1.9065   -0.9641    0.8478 H   0  0  0  0  0  0  0  0  0  0  0  0
    2.5137    1.3840   -2.0608 H   0  0  0  0  0  0  0  0  0  0  0  0
    4.7775    1.7248   -2.9510 H   0  0  0  0  0  0  0  0  0  0  0  0
    6.2564   -0.8666   -0.1914 H   0  0  0  0  0  0  0  0  0  0  0  0
    0.1414   -1.4089    1.7207 H   0  0  0  0  0  0  0  0  0  0  0  0
   -2.0687   -1.8345    2.6756 H   0  0  0  0  0  0  0  0  0  0  0  0
  1  2  1  0  0  0  0
  2  3  1  0  0  0  0
  3  4  2  0  0  0  0
  4  5  1  0  0  0  0
  5  6  2  0  0  0  0
  6  7  1  0  0  0  0
  7  8  2  0  0  0  0
  8  9  1  0  0  0  0
  9 10  2  0  0  0  0
 10 11  1  0  0  0  0
 11 12  2  0  0  0  0
 12 13  1  0  0  0  0
 13 14  2  0  0  0  0
  6 15  1  0  0  0  0
 15 16  2  0  0  0  0
 16  3  1  0  0  0  0
 14  9  1  0  0  0  0
  1 17  1  0  0  0  0
  1 18  1  0  0  0  0
  1 19  1  0  0  0  0
  4 20  1  0  0  0  0
  5 21  1  0  0  0  0
  7 22  1  0  0  0  0
  8 23  1  0  0  0  0
 10 24  1  0  0  0  0
 11 25  1  0  0  0  0
 13 26  1  0  0  0  0
 15 27  1  0  0  0  0
 16 28  1  0  0  0  0
M  END
