
  xtb     03012221273D
 energy: -11.100886310545 gnorm: 0.000263682962 xtb: 6.4.1 (afa7bdf)
 52 56  0     0  0            999 V2000
   -2.3397    3.6740   -0.5873 O   0  0  0  0  0  0  0  0  0  0  0  0
   -2.4665    2.4135   -1.1075 C   0  0  0  0  0  0  0  0  0  0  0  0
   -3.1810    2.2620   -2.3156 C   0  0  0  0  0  0  0  0  0  0  0  0
   -3.3298    1.0498   -2.9024 C   0  0  0  0  0  0  0  0  0  0  0  0
   -2.7745   -0.1118   -2.3168 C   0  0  0  0  0  0  0  0  0  0  0  0
   -2.9099   -1.3695   -2.9365 C   0  0  0  0  0  0  0  0  0  0  0  0
   -2.3660   -2.4874   -2.3778 C   0  0  0  0  0  0  0  0  0  0  0  0
   -1.6670   -2.3955   -1.1756 C   0  0  0  0  0  0  0  0  0  0  0  0
   -1.5214   -1.1929   -0.5491 C   0  0  0  0  0  0  0  0  0  0  0  0
   -2.0642   -0.0070   -1.0938 C   0  0  0  0  0  0  0  0  0  0  0  0
   -1.9029    1.2831   -0.4772 C   0  0  0  0  0  0  0  0  0  0  0  0
   -1.1507    1.4095    0.7346 C   0  0  0  0  0  0  0  0  0  0  0  0
   -0.8640    2.4917    1.3629 N   0  0  0  0  0  0  0  0  0  0  0  0
   -0.0416    2.5198    2.4833 C   0  0  0  0  0  0  0  0  0  0  0  0
   -0.2682    3.4609    3.4824 C   0  0  0  0  0  0  0  0  0  0  0  0
    0.5155    3.4948    4.6107 C   0  0  0  0  0  0  0  0  0  0  0  0
    1.5509    2.5917    4.7643 C   0  0  0  0  0  0  0  0  0  0  0  0
    1.8056    1.6598    3.7867 C   0  0  0  0  0  0  0  0  0  0  0  0
    1.0270    1.6048    2.6348 C   0  0  0  0  0  0  0  0  0  0  0  0
    1.2964    0.7050    1.6153 N   0  0  0  0  0  0  0  0  0  0  0  0
    1.7477   -0.4877    1.7750 C   0  0  0  0  0  0  0  0  0  0  0  0
    1.9372   -1.4268    0.7206 C   0  0  0  0  0  0  0  0  0  0  0  0
    2.2928   -2.7405    1.0749 C   0  0  0  0  0  0  0  0  0  0  0  0
    2.4879   -3.0544    2.3977 O   0  0  0  0  0  0  0  0  0  0  0  0
    2.4295   -3.7210    0.0663 C   0  0  0  0  0  0  0  0  0  0  0  0
    2.2139   -3.4232   -1.2398 C   0  0  0  0  0  0  0  0  0  0  0  0
    1.8574   -2.1133   -1.6406 C   0  0  0  0  0  0  0  0  0  0  0  0
    1.6142   -1.7990   -2.9924 C   0  0  0  0  0  0  0  0  0  0  0  0
    1.2689   -0.5334   -3.3664 C   0  0  0  0  0  0  0  0  0  0  0  0
    1.1597    0.4739   -2.4081 C   0  0  0  0  0  0  0  0  0  0  0  0
    1.3890    0.1977   -1.0932 C   0  0  0  0  0  0  0  0  0  0  0  0
    1.7328   -1.0981   -0.6600 C   0  0  0  0  0  0  0  0  0  0  0  0
   -1.8000    3.5704    0.2233 H   0  0  0  0  0  0  0  0  0  0  0  0
   -3.6007    3.1451   -2.7630 H   0  0  0  0  0  0  0  0  0  0  0  0
   -3.8728    0.9578   -3.8276 H   0  0  0  0  0  0  0  0  0  0  0  0
   -3.4493   -1.4362   -3.8662 H   0  0  0  0  0  0  0  0  0  0  0  0
   -2.4720   -3.4428   -2.8645 H   0  0  0  0  0  0  0  0  0  0  0  0
   -1.2278   -3.2816   -0.7457 H   0  0  0  0  0  0  0  0  0  0  0  0
   -0.9514   -1.1553    0.3596 H   0  0  0  0  0  0  0  0  0  0  0  0
   -0.7478    0.5133    1.1636 H   0  0  0  0  0  0  0  0  0  0  0  0
   -1.0785    4.1569    3.3579 H   0  0  0  0  0  0  0  0  0  0  0  0
    0.3231    4.2272    5.3781 H   0  0  0  0  0  0  0  0  0  0  0  0
    2.1651    2.6243    5.6498 H   0  0  0  0  0  0  0  0  0  0  0  0
    2.6294    0.9774    3.8925 H   0  0  0  0  0  0  0  0  0  0  0  0
    1.9132   -0.8383    2.7784 H   0  0  0  0  0  0  0  0  0  0  0  0
    2.7291   -4.0028    2.4832 H   0  0  0  0  0  0  0  0  0  0  0  0
    2.7012   -4.7207    0.3541 H   0  0  0  0  0  0  0  0  0  0  0  0
    2.3129   -4.1861   -1.9931 H   0  0  0  0  0  0  0  0  0  0  0  0
    1.7009   -2.5775   -3.7312 H   0  0  0  0  0  0  0  0  0  0  0  0
    1.0794   -0.3084   -4.4028 H   0  0  0  0  0  0  0  0  0  0  0  0
    0.8805    1.4710   -2.7087 H   0  0  0  0  0  0  0  0  0  0  0  0
    1.2861    0.9761   -0.3630 H   0  0  0  0  0  0  0  0  0  0  0  0
  1  2  1  0  0  0  0
  2  3  2  0  0  0  0
  3  4  1  0  0  0  0
  4  5  2  0  0  0  0
  5  6  1  0  0  0  0
  6  7  2  0  0  0  0
  7  8  1  0  0  0  0
  8  9  2  0  0  0  0
  9 10  1  0  0  0  0
 10 11  2  0  0  0  0
 11 12  1  0  0  0  0
 12 13  2  0  0  0  0
 13 14  1  0  0  0  0
 14 15  2  0  0  0  0
 15 16  1  0  0  0  0
 16 17  2  0  0  0  0
 17 18  1  0  0  0  0
 18 19  2  0  0  0  0
 19 20  1  0  0  0  0
 20 21  2  0  0  0  0
 21 22  1  0  0  0  0
 22 23  2  0  0  0  0
 23 24  1  0  0  0  0
 23 25  1  0  0  0  0
 25 26  2  0  0  0  0
 26 27  1  0  0  0  0
 27 28  2  0  0  0  0
 28 29  1  0  0  0  0
 29 30  2  0  0  0  0
 30 31  1  0  0  0  0
 31 32  2  0  0  0  0
 11  2  1  0  0  0  0
 19 14  1  0  0  0  0
 32 22  1  0  0  0  0
 10  5  1  0  0  0  0
 32 27  1  0  0  0  0
  1 33  1  0  0  0  0
  3 34  1  0  0  0  0
  4 35  1  0  0  0  0
  6 36  1  0  0  0  0
  7 37  1  0  0  0  0
  8 38  1  0  0  0  0
  9 39  1  0  0  0  0
 12 40  1  0  0  0  0
 15 41  1  0  0  0  0
 16 42  1  0  0  0  0
 17 43  1  0  0  0  0
 18 44  1  0  0  0  0
 21 45  1  0  0  0  0
 24 46  1  0  0  0  0
 25 47  1  0  0  0  0
 26 48  1  0  0  0  0
 28 49  1  0  0  0  0
 29 50  1  0  0  0  0
 30 51  1  0  0  0  0
 31 52  1  0  0  0  0
M  END
