
  xtb     03012221203D
 energy: -9.746805465611 gnorm: 0.000154827619 xtb: 6.4.1 (afa7bdf)
 48 52  0     0  0            999 V2000
    5.0843   -1.2029   -1.8188 C   0  0  0  0  0  0  0  0  0  0  0  0
    4.2392   -2.3005   -1.2114 C   0  0  0  0  0  0  0  0  0  0  0  0
    2.8672   -1.9900   -1.1980 O   0  0  0  0  0  0  0  0  0  0  0  0
    2.5857   -1.0729   -0.2204 C   0  0  0  0  0  0  0  0  0  0  0  0
    3.4423   -0.4839    0.4142 O   0  0  0  0  0  0  0  0  0  0  0  0
    1.1484   -0.7757    0.0081 C   0  0  0  0  0  0  0  0  0  0  0  0
    0.2081   -1.7825    0.0577 C   0  0  0  0  0  0  0  0  0  0  0  0
   -1.1633   -1.4518    0.1881 C   0  0  0  0  0  0  0  0  0  0  0  0
   -1.9478   -2.6090    0.2137 C   0  0  0  0  0  0  0  0  0  0  0  0
   -3.3218   -2.4832    0.3390 C   0  0  0  0  0  0  0  0  0  0  0  0
   -3.8689   -1.2186    0.4339 C   0  0  0  0  0  0  0  0  0  0  0  0
   -3.0921   -0.0422    0.4124 C   0  0  0  0  0  0  0  0  0  0  0  0
   -3.6363    1.2344    0.5115 O   0  0  0  0  0  0  0  0  0  0  0  0
   -5.0341    1.2788    0.6600 C   0  0  0  0  0  0  0  0  0  0  0  0
   -1.6787   -0.1613    0.2846 C   0  0  0  0  0  0  0  0  0  0  0  0
   -0.7081    0.9119    0.2597 C   0  0  0  0  0  0  0  0  0  0  0  0
   -1.0897    2.2362    0.3531 C   0  0  0  0  0  0  0  0  0  0  0  0
   -0.1590    3.2805    0.3421 C   0  0  0  0  0  0  0  0  0  0  0  0
   -0.5492    4.6372    0.4355 C   0  0  0  0  0  0  0  0  0  0  0  0
    0.3821    5.6275    0.4307 C   0  0  0  0  0  0  0  0  0  0  0  0
    1.7469    5.3206    0.3346 C   0  0  0  0  0  0  0  0  0  0  0  0
    2.1612    4.0299    0.2428 C   0  0  0  0  0  0  0  0  0  0  0  0
    1.2222    2.9708    0.2412 C   0  0  0  0  0  0  0  0  0  0  0  0
    1.6116    1.6322    0.1460 C   0  0  0  0  0  0  0  0  0  0  0  0
    0.6944    0.5939    0.1405 C   0  0  0  0  0  0  0  0  0  0  0  0
   -1.0649   -3.7014    0.1111 N   0  0  0  0  0  0  0  0  0  0  0  0
   -1.4258   -5.1028    0.1534 C   0  0  0  0  0  0  0  0  0  0  0  0
    0.2665   -3.2572    0.0423 C   0  0  0  0  0  0  0  0  0  0  0  0
    1.2415   -3.9859    0.0114 O   0  0  0  0  0  0  0  0  0  0  0  0
    4.9687   -0.2814   -1.2473 H   0  0  0  0  0  0  0  0  0  0  0  0
    4.7666   -0.9936   -2.8402 H   0  0  0  0  0  0  0  0  0  0  0  0
    6.1444   -1.4603   -1.8359 H   0  0  0  0  0  0  0  0  0  0  0  0
    4.5262   -2.5072   -0.1703 H   0  0  0  0  0  0  0  0  0  0  0  0
    4.3404   -3.2432   -1.7659 H   0  0  0  0  0  0  0  0  0  0  0  0
   -3.9385   -3.3640    0.3621 H   0  0  0  0  0  0  0  0  0  0  0  0
   -4.9350   -1.1341    0.5299 H   0  0  0  0  0  0  0  0  0  0  0  0
   -5.3282    0.7556    1.5711 H   0  0  0  0  0  0  0  0  0  0  0  0
   -5.5155    0.8363   -0.2133 H   0  0  0  0  0  0  0  0  0  0  0  0
   -5.3402    2.3227    0.7394 H   0  0  0  0  0  0  0  0  0  0  0  0
   -2.1321    2.4727    0.4401 H   0  0  0  0  0  0  0  0  0  0  0  0
   -1.5968    4.8736    0.5114 H   0  0  0  0  0  0  0  0  0  0  0  0
    0.0731    6.6577    0.5025 H   0  0  0  0  0  0  0  0  0  0  0  0
    2.4722    6.1191    0.3347 H   0  0  0  0  0  0  0  0  0  0  0  0
    3.2094    3.7971    0.1712 H   0  0  0  0  0  0  0  0  0  0  0  0
    2.6587    1.3966    0.1001 H   0  0  0  0  0  0  0  0  0  0  0  0
   -1.8894   -5.3393    1.1083 H   0  0  0  0  0  0  0  0  0  0  0  0
   -0.5274   -5.7059    0.0357 H   0  0  0  0  0  0  0  0  0  0  0  0
   -2.1184   -5.3347   -0.6524 H   0  0  0  0  0  0  0  0  0  0  0  0
  1  2  1  0  0  0  0
  2  3  1  0  0  0  0
  3  4  1  0  0  0  0
  4  5  2  0  0  0  0
  4  6  1  0  0  0  0
  6  7  2  0  0  0  0
  7  8  1  0  0  0  0
  8  9  2  0  0  0  0
  9 10  1  0  0  0  0
 10 11  2  0  0  0  0
 11 12  1  0  0  0  0
 12 13  1  0  0  0  0
 13 14  1  0  0  0  0
 12 15  2  0  0  0  0
 15 16  1  0  0  0  0
 16 17  2  0  0  0  0
 17 18  1  0  0  0  0
 18 19  2  0  0  0  0
 19 20  1  0  0  0  0
 20 21  2  0  0  0  0
 21 22  1  0  0  0  0
 22 23  2  0  0  0  0
 23 24  1  0  0  0  0
 24 25  2  0  0  0  0
  9 26  1  0  0  0  0
 26 27  1  0  0  0  0
 26 28  1  0  0  0  0
 28 29  2  0  0  0  0
 25  6  1  0  0  0  0
 28  7  1  0  0  0  0
 15  8  1  0  0  0  0
 25 16  1  0  0  0  0
 23 18  1  0  0  0  0
  1 30  1  0  0  0  0
  1 31  1  0  0  0  0
  1 32  1  0  0  0  0
  2 33  1  0  0  0  0
  2 34  1  0  0  0  0
 10 35  1  0  0  0  0
 11 36  1  0  0  0  0
 14 37  1  0  0  0  0
 14 38  1  0  0  0  0
 14 39  1  0  0  0  0
 17 40  1  0  0  0  0
 19 41  1  0  0  0  0
 20 42  1  0  0  0  0
 21 43  1  0  0  0  0
 22 44  1  0  0  0  0
 24 45  1  0  0  0  0
 27 46  1  0  0  0  0
 27 47  1  0  0  0  0
 27 48  1  0  0  0  0
M  END
