
  xtb     03012221303D
 energy: -5.941424445184 gnorm: 0.000323773036 xtb: 6.4.1 (afa7bdf)
 28 31  0     0  0            999 V2000
    1.6121    2.9550   -0.3508 O   0  0  0  0  0  0  0  0  0  0  0  0
    1.4359    1.7641   -0.2163 C   0  0  0  0  0  0  0  0  0  0  0  0
    2.4778    0.7340   -0.1192 C   0  0  0  0  0  0  0  0  0  0  0  0
    3.8557    0.8295   -0.1520 C   0  0  0  0  0  0  0  0  0  0  0  0
    4.5959   -0.3292   -0.0360 C   0  0  0  0  0  0  0  0  0  0  0  0
    3.9729   -1.5632    0.1103 C   0  0  0  0  0  0  0  0  0  0  0  0
    2.5981   -1.6651    0.1437 C   0  0  0  0  0  0  0  0  0  0  0  0
    1.8453   -0.5059    0.0279 C   0  0  0  0  0  0  0  0  0  0  0  0
    0.4053   -0.2848    0.0264 C   0  0  0  0  0  0  0  0  0  0  0  0
   -0.5156   -1.2285    0.1447 N   0  0  0  0  0  0  0  0  0  0  0  0
   -1.7991   -0.7834    0.1151 C   0  0  0  0  0  0  0  0  0  0  0  0
   -2.8361   -1.7105    0.2349 C   0  0  0  0  0  0  0  0  0  0  0  0
   -4.1441   -1.3014    0.2099 C   0  0  0  0  0  0  0  0  0  0  0  0
   -4.4443    0.0405    0.0650 C   0  0  0  0  0  0  0  0  0  0  0  0
   -3.4204    0.9434   -0.0520 C   0  0  0  0  0  0  0  0  0  0  0  0
   -2.1441    0.5316   -0.0262 N   0  0  0  0  0  4  0  0  0  0  0  0
   -1.1397    1.6611   -0.1674 B   0  0  0  0  0  4  0  0  0  0  0  0
   -1.3160    2.5363    0.8940 F   0  0  0  0  0  0  0  0  0  0  0  0
   -1.3480    2.2793   -1.3914 F   0  0  0  0  0  0  0  0  0  0  0  0
    0.2362    1.0480   -0.1180 N   0  0  0  0  0  0  0  0  0  0  0  0
    4.3193    1.7939   -0.2660 H   0  0  0  0  0  0  0  0  0  0  0  0
    5.6717   -0.2756   -0.0593 H   0  0  0  0  0  0  0  0  0  0  0  0
    4.5729   -2.4534    0.1989 H   0  0  0  0  0  0  0  0  0  0  0  0
    2.1032   -2.6134    0.2563 H   0  0  0  0  0  0  0  0  0  0  0  0
   -2.5846   -2.7506    0.3470 H   0  0  0  0  0  0  0  0  0  0  0  0
   -4.9380   -2.0237    0.3031 H   0  0  0  0  0  0  0  0  0  0  0  0
   -5.4690    0.3727    0.0442 H   0  0  0  0  0  0  0  0  0  0  0  0
   -3.6036    1.9992   -0.1667 H   0  0  0  0  0  0  0  0  0  0  0  0
  1  2  2  0  0  0  0
  2  3  1  0  0  0  0
  3  4  2  0  0  0  0
  4  5  1  0  0  0  0
  5  6  2  0  0  0  0
  6  7  1  0  0  0  0
  7  8  2  0  0  0  0
  8  9  1  0  0  0  0
  9 10  2  0  0  0  0
 10 11  1  0  0  0  0
 11 12  2  0  0  0  0
 12 13  1  0  0  0  0
 13 14  2  0  0  0  0
 14 15  1  0  0  0  0
 15 16  2  0  0  0  0
 16 17  1  0  0  0  0
 17 18  1  0  0  0  0
 17 19  1  0  0  0  0
 17 20  1  0  0  0  0
 20  2  1  0  0  0  0
  8  3  1  0  0  0  0
 20  9  1  0  0  0  0
 16 11  1  0  0  0  0
  4 21  1  0  0  0  0
  5 22  1  0  0  0  0
  6 23  1  0  0  0  0
  7 24  1  0  0  0  0
 12 25  1  0  0  0  0
 13 26  1  0  0  0  0
 14 27  1  0  0  0  0
 15 28  1  0  0  0  0
M  CHG  1  16   1
M  CHG  1  17  -1
M  END
