
  xtb     03012221273D
 energy: -13.415064132887 gnorm: 0.000268083434 xtb: 6.4.1 (afa7bdf)
 68 71  0     0  0            999 V2000
    7.6508   -4.8626    0.0162 C   0  0  0  0  0  0  0  0  0  0  0  0
    7.5289   -3.4045    0.0104 N   0  0  0  0  0  0  0  0  0  0  0  0
    8.7758   -2.6392   -0.0134 C   0  0  0  0  0  0  0  0  0  0  0  0
    6.2753   -2.7700    0.0323 C   0  0  0  0  0  0  0  0  0  0  0  0
    5.0884   -3.5084   -0.0391 C   0  0  0  0  0  0  0  0  0  0  0  0
    3.8657   -2.8878   -0.0204 C   0  0  0  0  0  0  0  0  0  0  0  0
    3.7609   -1.4958    0.0705 C   0  0  0  0  0  0  0  0  0  0  0  0
    2.4506   -0.8773    0.0867 C   0  0  0  0  0  0  0  0  0  0  0  0
    2.2183    0.4461    0.1461 C   0  0  0  0  0  0  0  0  0  0  0  0
    0.9174    1.0817    0.1648 C   0  0  0  0  0  0  0  0  0  0  0  0
   -0.2544    0.3515    0.1401 C   0  0  0  0  0  0  0  0  0  0  0  0
   -1.4639    1.0174    0.1620 C   0  0  0  0  0  0  0  0  0  0  0  0
   -2.7285    0.3124    0.1392 C   0  0  0  0  0  0  0  0  0  0  0  0
   -2.8907   -1.0213    0.0762 C   0  0  0  0  0  0  0  0  0  0  0  0
   -4.1674   -1.7063    0.0555 C   0  0  0  0  0  0  0  0  0  0  0  0
   -5.3893   -1.0275    0.1210 C   0  0  0  0  0  0  0  0  0  0  0  0
   -6.5791   -1.7097    0.0994 C   0  0  0  0  0  0  0  0  0  0  0  0
   -6.6140   -3.1063    0.0116 C   0  0  0  0  0  0  0  0  0  0  0  0
   -7.8340   -3.8032   -0.0088 N   0  0  0  0  0  0  0  0  0  0  0  0
   -9.1176   -3.1014   -0.0409 C   0  0  0  0  0  0  0  0  0  0  0  0
   -7.8824   -5.2655   -0.0007 C   0  0  0  0  0  0  0  0  0  0  0  0
   -5.3909   -3.7838   -0.0540 C   0  0  0  0  0  0  0  0  0  0  0  0
   -4.2011   -3.1021   -0.0325 C   0  0  0  0  0  0  0  0  0  0  0  0
   -1.5023    2.3504    0.2066 N   0  0  0  0  0  0  0  0  0  0  0  0
   -0.3255    2.9792    0.2269 C   0  0  0  0  0  0  0  0  0  0  0  0
   -0.3734    4.4237    0.2730 C   0  0  0  0  0  0  0  0  0  0  0  0
    0.7330    5.1802    0.2968 C   0  0  0  0  0  0  0  0  0  0  0  0
    0.7734    6.6315    0.3420 C   0  0  0  0  0  0  0  0  0  0  0  0
   -0.3839    7.4127    0.3652 C   0  0  0  0  0  0  0  0  0  0  0  0
   -0.3051    8.7873    0.4077 C   0  0  0  0  0  0  0  0  0  0  0  0
    0.9251    9.4131    0.4281 C   0  0  0  0  0  0  0  0  0  0  0  0
    2.0804    8.6582    0.4057 C   0  0  0  0  0  0  0  0  0  0  0  0
    2.0077    7.2837    0.3632 C   0  0  0  0  0  0  0  0  0  0  0  0
    0.8830    2.4149    0.2089 N   0  0  0  0  0  0  0  0  0  0  0  0
    4.9464   -0.7561    0.1441 C   0  0  0  0  0  0  0  0  0  0  0  0
    6.1695   -1.3773    0.1255 C   0  0  0  0  0  0  0  0  0  0  0  0
    7.0801   -5.2822    0.8424 H   0  0  0  0  0  0  0  0  0  0  0  0
    8.6878   -5.1694    0.1351 H   0  0  0  0  0  0  0  0  0  0  0  0
    7.2765   -5.2717   -0.9202 H   0  0  0  0  0  0  0  0  0  0  0  0
    8.9088   -2.1136    0.9301 H   0  0  0  0  0  0  0  0  0  0  0  0
    9.6334   -3.2908   -0.1676 H   0  0  0  0  0  0  0  0  0  0  0  0
    8.7547   -1.9152   -0.8256 H   0  0  0  0  0  0  0  0  0  0  0  0
    5.1383   -4.5802   -0.1180 H   0  0  0  0  0  0  0  0  0  0  0  0
    2.9651   -3.4748   -0.0785 H   0  0  0  0  0  0  0  0  0  0  0  0
    1.6116   -1.5474    0.0442 H   0  0  0  0  0  0  0  0  0  0  0  0
    3.0531    1.1194    0.1808 H   0  0  0  0  0  0  0  0  0  0  0  0
   -0.2256   -0.7198    0.1084 H   0  0  0  0  0  0  0  0  0  0  0  0
   -3.5978    0.9405    0.1738 H   0  0  0  0  0  0  0  0  0  0  0  0
   -2.0178   -1.6466    0.0346 H   0  0  0  0  0  0  0  0  0  0  0  0
   -5.4003    0.0450    0.1922 H   0  0  0  0  0  0  0  0  0  0  0  0
   -7.5042   -1.1635    0.1591 H   0  0  0  0  0  0  0  0  0  0  0  0
   -9.2781   -2.5747    0.8978 H   0  0  0  0  0  0  0  0  0  0  0  0
   -9.9413   -3.7963   -0.1902 H   0  0  0  0  0  0  0  0  0  0  0  0
   -9.1311   -2.3843   -0.8594 H   0  0  0  0  0  0  0  0  0  0  0  0
   -7.4876   -5.6568   -0.9363 H   0  0  0  0  0  0  0  0  0  0  0  0
   -8.9028   -5.6237    0.1178 H   0  0  0  0  0  0  0  0  0  0  0  0
   -7.2921   -5.6546    0.8265 H   0  0  0  0  0  0  0  0  0  0  0  0
   -5.3863   -4.8570   -0.1304 H   0  0  0  0  0  0  0  0  0  0  0  0
   -3.2717   -3.6428   -0.0857 H   0  0  0  0  0  0  0  0  0  0  0  0
   -1.3453    4.8783    0.2872 H   0  0  0  0  0  0  0  0  0  0  0  0
    1.6785    4.6679    0.2806 H   0  0  0  0  0  0  0  0  0  0  0  0
   -1.3484    6.9382    0.3496 H   0  0  0  0  0  0  0  0  0  0  0  0
   -1.2075    9.3770    0.4251 H   0  0  0  0  0  0  0  0  0  0  0  0
    0.9834   10.4886    0.4613 H   0  0  0  0  0  0  0  0  0  0  0  0
    3.0418    9.1458    0.4215 H   0  0  0  0  0  0  0  0  0  0  0  0
    2.9101    6.6970    0.3457 H   0  0  0  0  0  0  0  0  0  0  0  0
    4.9023    0.3152    0.2207 H   0  0  0  0  0  0  0  0  0  0  0  0
    7.0655   -0.7855    0.1930 H   0  0  0  0  0  0  0  0  0  0  0  0
  1  2  1  0  0  0  0
  2  3  1  0  0  0  0
  2  4  1  0  0  0  0
  4  5  2  0  0  0  0
  5  6  1  0  0  0  0
  6  7  2  0  0  0  0
  7  8  1  0  0  0  0
  8  9  2  0  0  0  0
  9 10  1  0  0  0  0
 10 11  2  0  0  0  0
 11 12  1  0  0  0  0
 12 13  1  0  0  0  0
 13 14  2  0  0  0  0
 14 15  1  0  0  0  0
 15 16  2  0  0  0  0
 16 17  1  0  0  0  0
 17 18  2  0  0  0  0
 18 19  1  0  0  0  0
 19 20  1  0  0  0  0
 19 21  1  0  0  0  0
 18 22  1  0  0  0  0
 22 23  2  0  0  0  0
 12 24  2  0  0  0  0
 24 25  1  0  0  0  0
 25 26  1  0  0  0  0
 26 27  2  0  0  0  0
 27 28  1  0  0  0  0
 28 29  2  0  0  0  0
 29 30  1  0  0  0  0
 30 31  2  0  0  0  0
 31 32  1  0  0  0  0
 32 33  2  0  0  0  0
 25 34  2  0  0  0  0
  7 35  1  0  0  0  0
 35 36  2  0  0  0  0
 36  4  1  0  0  0  0
 34 10  1  0  0  0  0
 23 15  1  0  0  0  0
 33 28  1  0  0  0  0
  1 37  1  0  0  0  0
  1 38  1  0  0  0  0
  1 39  1  0  0  0  0
  3 40  1  0  0  0  0
  3 41  1  0  0  0  0
  3 42  1  0  0  0  0
  5 43  1  0  0  0  0
  6 44  1  0  0  0  0
  8 45  1  0  0  0  0
  9 46  1  0  0  0  0
 11 47  1  0  0  0  0
 13 48  1  0  0  0  0
 14 49  1  0  0  0  0
 16 50  1  0  0  0  0
 17 51  1  0  0  0  0
 20 52  1  0  0  0  0
 20 53  1  0  0  0  0
 20 54  1  0  0  0  0
 21 55  1  0  0  0  0
 21 56  1  0  0  0  0
 21 57  1  0  0  0  0
 22 58  1  0  0  0  0
 23 59  1  0  0  0  0
 26 60  1  0  0  0  0
 27 61  1  0  0  0  0
 29 62  1  0  0  0  0
 30 63  1  0  0  0  0
 31 64  1  0  0  0  0
 32 65  1  0  0  0  0
 33 66  1  0  0  0  0
 35 67  1  0  0  0  0
 36 68  1  0  0  0  0
M  END
