
  xtb     03012221223D
 energy: -16.807128909131 gnorm: 0.000228519336 xtb: 6.4.1 (afa7bdf)
 90 96  0     0  0            999 V2000
   -6.3373   -0.8397   -0.4109 C   0  0  0  0  0  0  0  0  0  0  0  0
   -5.2119   -1.8509   -0.1327 C   0  0  0  0  0  0  0  0  0  0  0  0
   -5.4812   -2.4736    1.2500 C   0  0  0  0  0  0  0  0  0  0  0  0
   -5.2758   -2.9240   -1.2364 C   0  0  0  0  0  0  0  0  0  0  0  0
   -3.8306   -1.1847   -0.1409 C   0  0  0  0  0  0  0  0  0  0  0  0
   -2.5839   -1.8382    0.0588 C   0  0  0  0  0  0  0  0  0  0  0  0
   -2.3549   -3.2262    0.3638 C   0  0  0  0  0  0  0  0  0  0  0  0
   -1.1614   -3.8339    0.5973 C   0  0  0  0  0  0  0  0  0  0  0  0
    0.1585   -3.2358    0.6488 C   0  0  0  0  0  0  0  0  0  0  0  0
    0.4233   -1.9878    1.1892 N   0  0  0  0  0  0  0  0  0  0  0  0
    1.7270   -1.6643    0.9673 C   0  0  0  0  0  0  0  0  0  0  0  0
    2.3630   -2.7573    0.3247 C   0  0  0  0  0  0  0  0  0  0  0  0
    3.7139   -2.5948   -0.1155 C   0  0  0  0  0  0  0  0  0  0  0  0
    4.3431   -1.3826   -0.0342 C   0  0  0  0  0  0  0  0  0  0  0  0
    3.6744   -0.2504    0.5127 C   0  0  0  0  0  0  0  0  0  0  0  0
    3.9278    1.1393    0.5217 C   0  0  0  0  0  0  0  0  0  0  0  0
    5.1546    1.7920   -0.1257 C   0  0  0  0  0  0  0  0  0  0  0  0
    5.1570    3.3232    0.0172 C   0  0  0  0  0  0  0  0  0  0  0  0
    5.1667    1.4579   -1.6285 C   0  0  0  0  0  0  0  0  0  0  0  0
    6.4316    1.2578    0.5489 C   0  0  0  0  0  0  0  0  0  0  0  0
    2.7503    1.7266    1.0617 C   0  0  0  0  0  0  0  0  0  0  0  0
    2.4088    3.1388    1.1375 C   0  0  0  0  0  0  0  0  0  0  0  0
    1.2114    3.7300    0.8727 C   0  0  0  0  0  0  0  0  0  0  0  0
   -0.0079    3.1347    0.3897 C   0  0  0  0  0  0  0  0  0  0  0  0
   -0.1690    1.7805    0.1643 N   0  0  0  0  0  0  0  0  0  0  0  0
   -1.4607    1.5100   -0.1356 C   0  0  0  0  0  0  0  0  0  0  0  0
   -2.1895    2.7200   -0.1721 C   0  0  0  0  0  0  0  0  0  0  0  0
   -3.6037    2.6292   -0.3670 C   0  0  0  0  0  0  0  0  0  0  0  0
   -4.2396    1.4157   -0.4207 C   0  0  0  0  0  0  0  0  0  0  0  0
   -3.5178    0.1904   -0.2893 C   0  0  0  0  0  0  0  0  0  0  0  0
   -2.1043    0.2526   -0.1930 C   0  0  0  0  0  0  0  0  0  0  0  0
   -1.5595   -0.9537   -0.0146 N   0  0  0  0  0  0  0  0  0  0  0  0
   -1.2547    3.7577    0.1305 C   0  0  0  0  0  0  0  0  0  0  0  0
   -1.5260    5.2645    0.2272 C   0  0  0  0  0  0  0  0  0  0  0  0
   -2.9618    5.6225   -0.1926 C   0  0  0  0  0  0  0  0  0  0  0  0
   -0.5754    6.0224   -0.7193 C   0  0  0  0  0  0  0  0  0  0  0  0
   -1.3406    5.7357    1.6812 C   0  0  0  0  0  0  0  0  0  0  0  0
    1.8758    0.7665    1.4666 N   0  0  0  0  0  0  0  0  0  0  0  0
    2.3843   -0.4103    1.0831 C   0  0  0  0  0  0  0  0  0  0  0  0
    1.3718   -3.7668    0.1559 C   0  0  0  0  0  0  0  0  0  0  0  0
    1.5100   -5.1389   -0.5186 C   0  0  0  0  0  0  0  0  0  0  0  0
    1.2887   -6.2483    0.5252 C   0  0  0  0  0  0  0  0  0  0  0  0
    0.4837   -5.2636   -1.6604 C   0  0  0  0  0  0  0  0  0  0  0  0
    2.9037   -5.3523   -1.1308 C   0  0  0  0  0  0  0  0  0  0  0  0
   -7.3054   -1.3393   -0.4398 H   0  0  0  0  0  0  0  0  0  0  0  0
   -6.3858   -0.0860    0.3736 H   0  0  0  0  0  0  0  0  0  0  0  0
   -6.1926   -0.3505   -1.3733 H   0  0  0  0  0  0  0  0  0  0  0  0
   -5.4478   -1.7086    2.0250 H   0  0  0  0  0  0  0  0  0  0  0  0
   -6.4657   -2.9393    1.2804 H   0  0  0  0  0  0  0  0  0  0  0  0
   -4.7487   -3.2338    1.5086 H   0  0  0  0  0  0  0  0  0  0  0  0
   -5.1017   -2.4751   -2.2137 H   0  0  0  0  0  0  0  0  0  0  0  0
   -6.2547   -3.4020   -1.2564 H   0  0  0  0  0  0  0  0  0  0  0  0
   -4.5316   -3.7036   -1.0969 H   0  0  0  0  0  0  0  0  0  0  0  0
   -3.2241   -3.8572    0.3856 H   0  0  0  0  0  0  0  0  0  0  0  0
   -1.1961   -4.8999    0.7509 H   0  0  0  0  0  0  0  0  0  0  0  0
   -0.2899   -1.3310    1.5203 H   0  0  0  0  0  0  0  0  0  0  0  0
    4.2436   -3.4207   -0.5491 H   0  0  0  0  0  0  0  0  0  0  0  0
    5.3407   -1.2765   -0.4188 H   0  0  0  0  0  0  0  0  0  0  0  0
    5.1980    3.6170    1.0649 H   0  0  0  0  0  0  0  0  0  0  0  0
    6.0294    3.7532   -0.4740 H   0  0  0  0  0  0  0  0  0  0  0  0
    4.2740    3.7616   -0.4459 H   0  0  0  0  0  0  0  0  0  0  0  0
    4.2642    1.8324   -2.1102 H   0  0  0  0  0  0  0  0  0  0  0  0
    5.2122    0.3847   -1.7999 H   0  0  0  0  0  0  0  0  0  0  0  0
    6.0260    1.9107   -2.1219 H   0  0  0  0  0  0  0  0  0  0  0  0
    6.4263    1.4889    1.6136 H   0  0  0  0  0  0  0  0  0  0  0  0
    7.3211    1.7093    0.1107 H   0  0  0  0  0  0  0  0  0  0  0  0
    6.5222    0.1794    0.4457 H   0  0  0  0  0  0  0  0  0  0  0  0
    3.1971    3.7919    1.4751 H   0  0  0  0  0  0  0  0  0  0  0  0
    1.1752    4.7927    1.0293 H   0  0  0  0  0  0  0  0  0  0  0  0
    0.4637    1.0362    0.4415 H   0  0  0  0  0  0  0  0  0  0  0  0
   -4.1915    3.5225   -0.4546 H   0  0  0  0  0  0  0  0  0  0  0  0
   -5.3048    1.3962   -0.5497 H   0  0  0  0  0  0  0  0  0  0  0  0
   -3.6866    5.2050    0.5047 H   0  0  0  0  0  0  0  0  0  0  0  0
   -3.1761    5.2626   -1.1982 H   0  0  0  0  0  0  0  0  0  0  0  0
   -3.1042    6.7030   -0.1934 H   0  0  0  0  0  0  0  0  0  0  0  0
   -0.7558    7.0959   -0.6725 H   0  0  0  0  0  0  0  0  0  0  0  0
    0.4707    5.8543   -0.4775 H   0  0  0  0  0  0  0  0  0  0  0  0
   -0.7293    5.7012   -1.7490 H   0  0  0  0  0  0  0  0  0  0  0  0
   -0.3335    5.5564    2.0482 H   0  0  0  0  0  0  0  0  0  0  0  0
   -2.0282    5.2089    2.3422 H   0  0  0  0  0  0  0  0  0  0  0  0
   -1.5402    6.8031    1.7712 H   0  0  0  0  0  0  0  0  0  0  0  0
    1.3977   -7.2338    0.0733 H   0  0  0  0  0  0  0  0  0  0  0  0
    0.2988   -6.1977    0.9711 H   0  0  0  0  0  0  0  0  0  0  0  0
    2.0178   -6.1653    1.3307 H   0  0  0  0  0  0  0  0  0  0  0  0
   -0.5393   -5.2109   -1.2958 H   0  0  0  0  0  0  0  0  0  0  0  0
    0.5970   -6.2130   -2.1829 H   0  0  0  0  0  0  0  0  0  0  0  0
    0.6200   -4.4618   -2.3853 H   0  0  0  0  0  0  0  0  0  0  0  0
    3.6729   -5.3441   -0.3598 H   0  0  0  0  0  0  0  0  0  0  0  0
    3.1240   -4.5878   -1.8749 H   0  0  0  0  0  0  0  0  0  0  0  0
    2.9600   -6.3190   -1.6308 H   0  0  0  0  0  0  0  0  0  0  0  0
  1  2  1  0  0  0  0
  2  3  1  0  0  0  0
  2  4  1  0  0  0  0
  2  5  1  0  0  0  0
  5  6  1  0  0  0  0
  6  7  2  0  0  0  0
  7  8  1  0  0  0  0
  8  9  2  0  0  0  0
  9 10  1  0  0  0  0
 10 11  1  0  0  0  0
 11 12  1  0  0  0  0
 12 13  1  0  0  0  0
 13 14  2  0  0  0  0
 14 15  1  0  0  0  0
 15 16  2  0  0  0  0
 16 17  1  0  0  0  0
 17 18  1  0  0  0  0
 17 19  1  0  0  0  0
 17 20  1  0  0  0  0
 16 21  1  0  0  0  0
 21 22  1  0  0  0  0
 22 23  2  0  0  0  0
 23 24  1  0  0  0  0
 24 25  1  0  0  0  0
 25 26  1  0  0  0  0
 26 27  2  0  0  0  0
 27 28  1  0  0  0  0
 28 29  2  0  0  0  0
 29 30  1  0  0  0  0
 30 31  1  0  0  0  0
 31 32  2  0  0  0  0
 27 33  1  0  0  0  0
 33 34  1  0  0  0  0
 34 35  1  0  0  0  0
 34 36  1  0  0  0  0
 34 37  1  0  0  0  0
 21 38  2  0  0  0  0
 38 39  1  0  0  0  0
 12 40  2  0  0  0  0
 40 41  1  0  0  0  0
 41 42  1  0  0  0  0
 41 43  1  0  0  0  0
 41 44  1  0  0  0  0
 30  5  2  0  0  0  0
 32  6  1  0  0  0  0
 40  9  1  0  0  0  0
 39 11  2  0  0  0  0
 39 15  1  0  0  0  0
 33 24  2  0  0  0  0
 31 26  1  0  0  0  0
  1 45  1  0  0  0  0
  1 46  1  0  0  0  0
  1 47  1  0  0  0  0
  3 48  1  0  0  0  0
  3 49  1  0  0  0  0
  3 50  1  0  0  0  0
  4 51  1  0  0  0  0
  4 52  1  0  0  0  0
  4 53  1  0  0  0  0
  7 54  1  0  0  0  0
  8 55  1  0  0  0  0
 10 56  1  0  0  0  0
 13 57  1  0  0  0  0
 14 58  1  0  0  0  0
 18 59  1  0  0  0  0
 18 60  1  0  0  0  0
 18 61  1  0  0  0  0
 19 62  1  0  0  0  0
 19 63  1  0  0  0  0
 19 64  1  0  0  0  0
 20 65  1  0  0  0  0
 20 66  1  0  0  0  0
 20 67  1  0  0  0  0
 22 68  1  0  0  0  0
 23 69  1  0  0  0  0
 25 70  1  0  0  0  0
 28 71  1  0  0  0  0
 29 72  1  0  0  0  0
 35 73  1  0  0  0  0
 35 74  1  0  0  0  0
 35 75  1  0  0  0  0
 36 76  1  0  0  0  0
 36 77  1  0  0  0  0
 36 78  1  0  0  0  0
 37 79  1  0  0  0  0
 37 80  1  0  0  0  0
 37 81  1  0  0  0  0
 42 82  1  0  0  0  0
 42 83  1  0  0  0  0
 42 84  1  0  0  0  0
 43 85  1  0  0  0  0
 43 86  1  0  0  0  0
 43 87  1  0  0  0  0
 44 88  1  0  0  0  0
 44 89  1  0  0  0  0
 44 90  1  0  0  0  0
M  END
