
  xtb     03012221203D
 energy: -3.678230238434 gnorm: 0.000443238252 xtb: 6.4.1 (afa7bdf)
 16 17  0     0  0            999 V2000
   -3.3983    1.3913    1.9721 N   0  0  0  0  0  0  0  0  0  0  0  0
   -2.4600    0.9521    1.4435 C   0  0  0  0  0  0  0  0  0  0  0  0
   -1.3405    0.4086    0.8187 C   0  0  0  0  0  0  0  0  0  0  0  0
   -0.9978   -0.9154    0.9803 C   0  0  0  0  0  0  0  0  0  0  0  0
    0.1249   -1.4772    0.3596 C   0  0  0  0  0  0  0  0  0  0  0  0
    0.9592   -0.7315   -0.4560 C   0  0  0  0  0  0  0  0  0  0  0  0
    2.0610   -1.2691   -1.0721 N   0  0  0  0  0  0  0  0  0  0  0  0
    0.6250    0.6431   -0.6394 C   0  0  0  0  0  0  0  0  0  0  0  0
    1.2159    1.6012   -1.3464 N   0  0  0  0  0  0  0  0  0  0  0  0
    0.4935    2.7108   -1.1727 O   0  0  0  0  0  0  0  0  0  0  0  0
   -0.5513    2.4829   -0.3681 N   0  0  0  0  0  0  0  0  0  0  0  0
   -0.4987    1.2018   -0.0178 C   0  0  0  0  0  0  0  0  0  0  0  0
   -1.6213   -1.5303    1.6071 H   0  0  0  0  0  0  0  0  0  0  0  0
    0.3541   -2.5168    0.5131 H   0  0  0  0  0  0  0  0  0  0  0  0
    2.3559   -2.2297   -0.9680 H   0  0  0  0  0  0  0  0  0  0  0  0
    2.6782   -0.7216   -1.6539 H   0  0  0  0  0  0  0  0  0  0  0  0
  1  2  3  0  0  0  0
  2  3  1  0  0  0  0
  3  4  2  0  0  0  0
  4  5  1  0  0  0  0
  5  6  2  0  0  0  0
  6  7  1  0  0  0  0
  6  8  1  0  0  0  0
  8  9  2  0  0  0  0
  9 10  1  0  0  0  0
 10 11  1  0  0  0  0
 11 12  2  0  0  0  0
 12  3  1  0  0  0  0
 12  8  1  0  0  0  0
  4 13  1  0  0  0  0
  5 14  1  0  0  0  0
  7 15  1  0  0  0  0
  7 16  1  0  0  0  0
M  END
