
  xtb     03012221293D
 energy: -6.676018748120 gnorm: 0.000238415580 xtb: 6.4.1 (afa7bdf)
 36 39  0     0  0            999 V2000
    3.9731   -1.7065    0.1977 C   0  0  0  0  0  0  0  0  0  0  0  0
    3.3012   -0.4051   -0.0741 C   0  0  0  0  0  0  0  0  0  0  0  0
    4.0252    0.6838   -0.4028 C   0  0  0  0  0  0  0  0  0  0  0  0
    3.4198    1.9660   -0.6746 C   0  0  0  0  0  0  0  0  0  0  0  0
    4.1497    2.9051   -0.9686 O   0  0  0  0  0  0  0  0  0  0  0  0
    2.0503    2.0874   -0.5947 O   0  0  0  0  0  0  0  0  0  0  0  0
    1.2943    0.9761   -0.2553 C   0  0  0  0  0  0  0  0  0  0  0  0
   -0.0969    1.1291   -0.1791 C   0  0  0  0  0  0  0  0  0  0  0  0
   -0.9167    0.0466    0.1506 C   0  0  0  0  0  0  0  0  0  0  0  0
   -0.3264   -1.2137    0.4137 C   0  0  0  0  0  0  0  0  0  0  0  0
    1.0371   -1.3513    0.3427 C   0  0  0  0  0  0  0  0  0  0  0  0
    1.8749   -0.2790    0.0094 C   0  0  0  0  0  0  0  0  0  0  0  0
   -1.1761   -2.4000    0.7692 C   0  0  0  0  0  0  0  0  0  0  0  0
   -2.6242   -2.2604    0.2804 C   0  0  0  0  0  0  0  0  0  0  0  0
   -3.1932   -0.8928    0.6514 C   0  0  0  0  0  0  0  0  0  0  0  0
   -2.3085    0.2059    0.2109 N   0  0  0  0  0  0  0  0  0  0  0  0
   -2.9660    1.5041   -0.0593 C   0  0  0  0  0  0  0  0  0  0  0  0
   -2.1225    2.4051   -0.9609 C   0  0  0  0  0  0  0  0  0  0  0  0
   -0.6758    2.4794   -0.4560 C   0  0  0  0  0  0  0  0  0  0  0  0
    3.6167   -2.4788   -0.4843 H   0  0  0  0  0  0  0  0  0  0  0  0
    5.0534   -1.6294    0.0721 H   0  0  0  0  0  0  0  0  0  0  0  0
    3.7826   -2.0367    1.2191 H   0  0  0  0  0  0  0  0  0  0  0  0
    5.0945    0.6216   -0.4724 H   0  0  0  0  0  0  0  0  0  0  0  0
    1.4714   -2.3122    0.5497 H   0  0  0  0  0  0  0  0  0  0  0  0
   -0.7186   -3.3084    0.3575 H   0  0  0  0  0  0  0  0  0  0  0  0
   -1.1622   -2.5279    1.8578 H   0  0  0  0  0  0  0  0  0  0  0  0
   -3.2533   -3.0662    0.6858 H   0  0  0  0  0  0  0  0  0  0  0  0
   -2.6540   -2.3805   -0.8103 H   0  0  0  0  0  0  0  0  0  0  0  0
   -4.1876   -0.7480    0.2175 H   0  0  0  0  0  0  0  0  0  0  0  0
   -3.3119   -0.8101    1.7356 H   0  0  0  0  0  0  0  0  0  0  0  0
   -3.9476    1.3152   -0.5049 H   0  0  0  0  0  0  0  0  0  0  0  0
   -3.1495    1.9908    0.9027 H   0  0  0  0  0  0  0  0  0  0  0  0
   -2.5629    3.4095   -1.0272 H   0  0  0  0  0  0  0  0  0  0  0  0
   -2.1312    2.0080   -1.9832 H   0  0  0  0  0  0  0  0  0  0  0  0
   -0.6277    3.0762    0.4623 H   0  0  0  0  0  0  0  0  0  0  0  0
   -0.0313    2.9973   -1.1786 H   0  0  0  0  0  0  0  0  0  0  0  0
  1  2  1  0  0  0  0
  2  3  2  0  0  0  0
  3  4  1  0  0  0  0
  4  5  2  0  0  0  0
  4  6  1  0  0  0  0
  6  7  1  0  0  0  0
  7  8  2  0  0  0  0
  8  9  1  0  0  0  0
  9 10  2  0  0  0  0
 10 11  1  0  0  0  0
 11 12  2  0  0  0  0
 10 13  1  0  0  0  0
 13 14  1  0  0  0  0
 14 15  1  0  0  0  0
 15 16  1  0  0  0  0
 16 17  1  0  0  0  0
 17 18  1  0  0  0  0
 18 19  1  0  0  0  0
 12  2  1  0  0  0  0
 12  7  1  0  0  0  0
 19  8  1  0  0  0  0
 16  9  1  0  0  0  0
  1 20  1  0  0  0  0
  1 21  1  0  0  0  0
  1 22  1  0  0  0  0
  3 23  1  0  0  0  0
 11 24  1  0  0  0  0
 13 25  1  0  0  0  0
 13 26  1  0  0  0  0
 14 27  1  0  0  0  0
 14 28  1  0  0  0  0
 15 29  1  0  0  0  0
 15 30  1  0  0  0  0
 17 31  1  0  0  0  0
 17 32  1  0  0  0  0
 18 33  1  0  0  0  0
 18 34  1  0  0  0  0
 19 35  1  0  0  0  0
 19 36  1  0  0  0  0
M  END
