
  xtb     03012221253D
 energy: -6.581335091749 gnorm: 0.000452706821 xtb: 6.4.1 (afa7bdf)
 34 35  0     0  0            999 V2000
   -5.0759   -1.2164   -0.0869 C   0  0  0  0  0  0  0  0  0  0  0  0
   -4.4213    0.0762   -0.2888 N   0  0  0  0  0  0  0  0  0  0  0  0
   -5.2916    1.2417   -0.4436 C   0  0  0  0  0  0  0  0  0  0  0  0
   -3.0204    0.1940   -0.3296 C   0  0  0  0  0  0  0  0  0  0  0  0
   -2.1944   -0.9109   -0.0956 C   0  0  0  0  0  0  0  0  0  0  0  0
   -0.8269   -0.7963   -0.1355 C   0  0  0  0  0  0  0  0  0  0  0  0
   -0.2238    0.4302   -0.4076 C   0  0  0  0  0  0  0  0  0  0  0  0
    1.2410    0.6024   -0.4748 C   0  0  0  0  0  0  0  0  0  0  0  0
    1.6973    1.5761   -1.0537 O   0  0  0  0  0  0  0  0  0  0  0  0
    2.0548   -0.3443    0.1415 N   0  0  0  0  0  0  0  0  0  0  0  0
    3.4659   -0.3390    0.1621 C   0  0  0  0  0  0  0  0  0  0  0  0
    4.2006    0.6381   -0.5027 C   0  0  0  0  0  0  0  0  0  0  0  0
    5.5756    0.6279   -0.4819 C   0  0  0  0  0  0  0  0  0  0  0  0
    6.2459   -0.3662    0.2091 C   0  0  0  0  0  0  0  0  0  0  0  0
    7.9770   -0.3865    0.2359 Cl  0  0  0  0  0  0  0  0  0  0  0  0
    5.5318   -1.3456    0.8774 C   0  0  0  0  0  0  0  0  0  0  0  0
    4.1558   -1.3330    0.8542 C   0  0  0  0  0  0  0  0  0  0  0  0
   -1.0399    1.5289   -0.6541 C   0  0  0  0  0  0  0  0  0  0  0  0
   -2.4070    1.4186   -0.6136 C   0  0  0  0  0  0  0  0  0  0  0  0
   -4.7112   -1.9373   -0.8153 H   0  0  0  0  0  0  0  0  0  0  0  0
   -6.1534   -1.1327   -0.2079 H   0  0  0  0  0  0  0  0  0  0  0  0
   -4.8703   -1.5855    0.9154 H   0  0  0  0  0  0  0  0  0  0  0  0
   -5.2113    1.6347   -1.4544 H   0  0  0  0  0  0  0  0  0  0  0  0
   -6.3307    0.9819   -0.2580 H   0  0  0  0  0  0  0  0  0  0  0  0
   -5.0074    2.0165    0.2646 H   0  0  0  0  0  0  0  0  0  0  0  0
   -2.6401   -1.8651    0.1197 H   0  0  0  0  0  0  0  0  0  0  0  0
   -0.2150   -1.6666    0.0193 H   0  0  0  0  0  0  0  0  0  0  0  0
    1.6055   -1.0777    0.6785 H   0  0  0  0  0  0  0  0  0  0  0  0
    3.6655    1.4054   -1.0327 H   0  0  0  0  0  0  0  0  0  0  0  0
    6.1433    1.3840   -0.9962 H   0  0  0  0  0  0  0  0  0  0  0  0
    6.0689   -2.1112    1.4101 H   0  0  0  0  0  0  0  0  0  0  0  0
    3.5974   -2.0941    1.3705 H   0  0  0  0  0  0  0  0  0  0  0  0
   -0.5698    2.4699   -0.8851 H   0  0  0  0  0  0  0  0  0  0  0  0
   -3.0157    2.2817   -0.8134 H   0  0  0  0  0  0  0  0  0  0  0  0
  1  2  1  0  0  0  0
  2  3  1  0  0  0  0
  2  4  1  0  0  0  0
  4  5  2  0  0  0  0
  5  6  1  0  0  0  0
  6  7  2  0  0  0  0
  7  8  1  0  0  0  0
  8  9  2  0  0  0  0
  8 10  1  0  0  0  0
 10 11  1  0  0  0  0
 11 12  2  0  0  0  0
 12 13  1  0  0  0  0
 13 14  2  0  0  0  0
 14 15  1  0  0  0  0
 14 16  1  0  0  0  0
 16 17  2  0  0  0  0
  7 18  1  0  0  0  0
 18 19  2  0  0  0  0
 19  4  1  0  0  0  0
 17 11  1  0  0  0  0
  1 20  1  0  0  0  0
  1 21  1  0  0  0  0
  1 22  1  0  0  0  0
  3 23  1  0  0  0  0
  3 24  1  0  0  0  0
  3 25  1  0  0  0  0
  5 26  1  0  0  0  0
  6 27  1  0  0  0  0
 10 28  1  0  0  0  0
 12 29  1  0  0  0  0
 13 30  1  0  0  0  0
 16 31  1  0  0  0  0
 17 32  1  0  0  0  0
 18 33  1  0  0  0  0
 19 34  1  0  0  0  0
M  END
