
  xtb     03012221313D
 energy: -7.067251135638 gnorm: 0.000248396464 xtb: 6.4.1 (afa7bdf)
 36 37  0     0  0            999 V2000
   -1.0699   -1.3760   -0.2916 O   0  0  0  0  0  0  0  0  0  0  0  0
   -2.1620   -0.7220   -0.8221 C   0  0  0  0  0  0  0  0  0  0  0  0
   -3.0692   -1.4202   -1.6188 C   0  0  0  0  0  0  0  0  0  0  0  0
   -4.2004   -0.8081   -2.1042 C   0  0  0  0  0  0  0  0  0  0  0  0
   -4.4608    0.5167   -1.8028 C   0  0  0  0  0  0  0  0  0  0  0  0
   -3.5765    1.2342   -1.0294 C   0  0  0  0  0  0  0  0  0  0  0  0
   -2.4112    0.6448   -0.5516 C   0  0  0  0  0  0  0  0  0  0  0  0
   -1.4567    1.3881    0.2565 C   0  0  0  0  0  0  0  0  0  0  0  0
   -1.7420    1.9639    1.3551 N   0  0  0  0  0  0  0  0  0  0  0  0
   -0.7329    2.3148    2.2417 C   0  0  0  0  0  0  0  0  0  0  0  0
   -0.0108    1.0684    2.7705 C   0  0  0  0  0  0  0  0  0  0  0  0
    0.6007    0.3354    1.7571 N   0  0  0  0  0  0  0  0  0  0  0  0
    1.7888    0.5835    1.3730 C   0  0  0  0  0  0  0  0  0  0  0  0
    2.4789   -0.1898    0.3639 C   0  0  0  0  0  0  0  0  0  0  0  0
    2.0641   -1.4909    0.0973 C   0  0  0  0  0  0  0  0  0  0  0  0
    2.7011   -2.2694   -0.8415 C   0  0  0  0  0  0  0  0  0  0  0  0
    3.7818   -1.7630   -1.5374 C   0  0  0  0  0  0  0  0  0  0  0  0
    4.2156   -0.4825   -1.2955 C   0  0  0  0  0  0  0  0  0  0  0  0
    3.5809    0.3342   -0.3565 C   0  0  0  0  0  0  0  0  0  0  0  0
    4.0548    1.6197   -0.1895 O   0  0  0  0  0  0  0  0  0  0  0  0
   -0.5819   -0.7898    0.3460 H   0  0  0  0  0  0  0  0  0  0  0  0
   -2.8697   -2.4558   -1.8281 H   0  0  0  0  0  0  0  0  0  0  0  0
   -4.8930   -1.3658   -2.7134 H   0  0  0  0  0  0  0  0  0  0  0  0
   -5.3552    0.9877   -2.1756 H   0  0  0  0  0  0  0  0  0  0  0  0
   -3.7707    2.2657   -0.7911 H   0  0  0  0  0  0  0  0  0  0  0  0
   -0.4101    1.2604    0.0288 H   0  0  0  0  0  0  0  0  0  0  0  0
   -0.0262    2.9782    1.7301 H   0  0  0  0  0  0  0  0  0  0  0  0
   -1.1765    2.8940    3.0608 H   0  0  0  0  0  0  0  0  0  0  0  0
    0.7349    1.3297    3.5312 H   0  0  0  0  0  0  0  0  0  0  0  0
   -0.7375    0.4100    3.2609 H   0  0  0  0  0  0  0  0  0  0  0  0
    2.3028    1.4061    1.8385 H   0  0  0  0  0  0  0  0  0  0  0  0
    1.2384   -1.8944    0.6567 H   0  0  0  0  0  0  0  0  0  0  0  0
    2.3590   -3.2733   -1.0312 H   0  0  0  0  0  0  0  0  0  0  0  0
    4.2835   -2.3727   -2.2711 H   0  0  0  0  0  0  0  0  0  0  0  0
    5.0524   -0.0755   -1.8344 H   0  0  0  0  0  0  0  0  0  0  0  0
    3.4754    2.1264    0.4182 H   0  0  0  0  0  0  0  0  0  0  0  0
  1  2  1  0  0  0  0
  2  3  2  0  0  0  0
  3  4  1  0  0  0  0
  4  5  2  0  0  0  0
  5  6  1  0  0  0  0
  6  7  2  0  0  0  0
  7  8  1  0  0  0  0
  8  9  2  0  0  0  0
  9 10  1  0  0  0  0
 10 11  1  0  0  0  0
 11 12  1  0  0  0  0
 12 13  2  0  0  0  0
 13 14  1  0  0  0  0
 14 15  2  0  0  0  0
 15 16  1  0  0  0  0
 16 17  2  0  0  0  0
 17 18  1  0  0  0  0
 18 19  2  0  0  0  0
 19 20  1  0  0  0  0
  7  2  1  0  0  0  0
 19 14  1  0  0  0  0
  1 21  1  0  0  0  0
  3 22  1  0  0  0  0
  4 23  1  0  0  0  0
  5 24  1  0  0  0  0
  6 25  1  0  0  0  0
  8 26  1  0  0  0  0
 10 27  1  0  0  0  0
 10 28  1  0  0  0  0
 11 29  1  0  0  0  0
 11 30  1  0  0  0  0
 13 31  1  0  0  0  0
 15 32  1  0  0  0  0
 16 33  1  0  0  0  0
 17 34  1  0  0  0  0
 18 35  1  0  0  0  0
 20 36  1  0  0  0  0
M  END
