
  xtb     03012221253D
 energy: -6.883482439211 gnorm: 0.000234371436 xtb: 6.4.1 (afa7bdf)
 34 36  0     0  0            999 V2000
   -4.8206   -1.0465   -0.0796 C   0  0  0  0  0  0  0  0  0  0  0  0
   -3.8935    0.0793   -0.1942 N   0  0  0  0  0  0  0  0  0  0  0  0
   -4.4633    1.3662   -0.5930 C   0  0  0  0  0  0  0  0  0  0  0  0
   -2.5217   -0.0664    0.0769 C   0  0  0  0  0  0  0  0  0  0  0  0
   -1.6294    0.9941   -0.1177 C   0  0  0  0  0  0  0  0  0  0  0  0
   -0.2901    0.8505    0.1407 C   0  0  0  0  0  0  0  0  0  0  0  0
    0.2287   -0.3664    0.5949 C   0  0  0  0  0  0  0  0  0  0  0  0
    1.6576   -0.5487    0.9096 C   0  0  0  0  0  0  0  0  0  0  0  0
    1.9578   -1.2317    1.9986 N   0  0  0  0  0  0  0  0  0  0  0  0
    3.2517   -1.3286    2.2893 C   0  0  0  0  0  0  0  0  0  0  0  0
    4.2907   -0.8603    1.6659 N   0  0  0  0  0  0  0  0  0  0  0  0
    4.0130   -0.1962    0.5219 C   0  0  0  0  0  0  0  0  0  0  0  0
    5.0642    0.3139   -0.2641 C   0  0  0  0  0  0  0  0  0  0  0  0
    4.8140    0.9420   -1.4496 C   0  0  0  0  0  0  0  0  0  0  0  0
    3.5030    1.0779   -1.9068 C   0  0  0  0  0  0  0  0  0  0  0  0
    2.4634    0.6016   -1.1634 C   0  0  0  0  0  0  0  0  0  0  0  0
    2.6892   -0.0250    0.0802 C   0  0  0  0  0  0  0  0  0  0  0  0
   -0.6653   -1.4154    0.8192 C   0  0  0  0  0  0  0  0  0  0  0  0
   -2.0046   -1.2736    0.5604 C   0  0  0  0  0  0  0  0  0  0  0  0
   -4.4511   -1.8950   -0.6516 H   0  0  0  0  0  0  0  0  0  0  0  0
   -5.8039   -0.7853   -0.4640 H   0  0  0  0  0  0  0  0  0  0  0  0
   -4.9255   -1.3374    0.9635 H   0  0  0  0  0  0  0  0  0  0  0  0
   -5.5493    1.3188   -0.6324 H   0  0  0  0  0  0  0  0  0  0  0  0
   -4.1868    2.1354    0.1250 H   0  0  0  0  0  0  0  0  0  0  0  0
   -4.0957    1.6476   -1.5776 H   0  0  0  0  0  0  0  0  0  0  0  0
   -2.0025    1.9377   -0.4732 H   0  0  0  0  0  0  0  0  0  0  0  0
    0.3713    1.6926    0.0319 H   0  0  0  0  0  0  0  0  0  0  0  0
    3.4710   -1.8774    3.1944 H   0  0  0  0  0  0  0  0  0  0  0  0
    6.0725    0.1867    0.0899 H   0  0  0  0  0  0  0  0  0  0  0  0
    5.6297    1.3231   -2.0413 H   0  0  0  0  0  0  0  0  0  0  0  0
    3.3144    1.5556   -2.8545 H   0  0  0  0  0  0  0  0  0  0  0  0
    1.4604    0.6731   -1.5438 H   0  0  0  0  0  0  0  0  0  0  0  0
   -0.2790   -2.3440    1.2029 H   0  0  0  0  0  0  0  0  0  0  0  0
   -2.6704   -2.0981    0.7418 H   0  0  0  0  0  0  0  0  0  0  0  0
  1  2  1  0  0  0  0
  2  3  1  0  0  0  0
  2  4  1  0  0  0  0
  4  5  2  0  0  0  0
  5  6  1  0  0  0  0
  6  7  2  0  0  0  0
  7  8  1  0  0  0  0
  8  9  2  0  0  0  0
  9 10  1  0  0  0  0
 10 11  2  0  0  0  0
 11 12  1  0  0  0  0
 12 13  2  0  0  0  0
 13 14  1  0  0  0  0
 14 15  2  0  0  0  0
 15 16  1  0  0  0  0
 16 17  2  0  0  0  0
  7 18  1  0  0  0  0
 18 19  2  0  0  0  0
 19  4  1  0  0  0  0
 17  8  1  0  0  0  0
 17 12  1  0  0  0  0
  1 20  1  0  0  0  0
  1 21  1  0  0  0  0
  1 22  1  0  0  0  0
  3 23  1  0  0  0  0
  3 24  1  0  0  0  0
  3 25  1  0  0  0  0
  5 26  1  0  0  0  0
  6 27  1  0  0  0  0
 10 28  1  0  0  0  0
 13 29  1  0  0  0  0
 14 30  1  0  0  0  0
 15 31  1  0  0  0  0
 16 32  1  0  0  0  0
 18 33  1  0  0  0  0
 19 34  1  0  0  0  0
M  END
