
  xtb     03012221323D
 energy: -8.736687030235 gnorm: 0.000197221897 xtb: 6.4.1 (afa7bdf)
 40 44  0     0  0            999 V2000
    8.6277   -0.4189   -0.5265 F   0  0  0  0  0  0  0  0  0  0  0  0
    7.2736   -0.3982   -0.4603 C   0  0  0  0  0  0  0  0  0  0  0  0
    6.6110    0.7322   -0.0174 C   0  0  0  0  0  0  0  0  0  0  0  0
    5.2374    0.7577    0.0513 C   0  0  0  0  0  0  0  0  0  0  0  0
    4.4830   -0.3546   -0.3237 C   0  0  0  0  0  0  0  0  0  0  0  0
    3.0333   -0.3698   -0.2666 C   0  0  0  0  0  0  0  0  0  0  0  0
    2.2477    0.6378    0.1366 C   0  0  0  0  0  0  0  0  0  0  0  0
    0.8174    0.5028    0.1490 C   0  0  0  0  0  0  0  0  0  0  0  0
   -0.0151    1.4663    0.5381 N   0  0  0  0  0  0  0  0  0  0  0  0
   -1.2469    0.9494    0.4019 C   0  0  0  0  0  0  0  0  0  0  0  0
   -2.5310    1.5460    0.6760 C   0  0  0  0  0  0  0  0  0  0  0  0
   -2.6216    2.8516    1.1584 C   0  0  0  0  0  0  0  0  0  0  0  0
   -3.8426    3.4146    1.4176 C   0  0  0  0  0  0  0  0  0  0  0  0
   -4.9999    2.6827    1.1994 C   0  0  0  0  0  0  0  0  0  0  0  0
   -4.9320    1.3965    0.7250 C   0  0  0  0  0  0  0  0  0  0  0  0
   -3.7017    0.7871    0.4485 C   0  0  0  0  0  0  0  0  0  0  0  0
   -3.6009   -0.5871   -0.0595 C   0  0  0  0  0  0  0  0  0  0  0  0
   -4.7263   -1.3843   -0.3031 C   0  0  0  0  0  0  0  0  0  0  0  0
   -4.6024   -2.6662   -0.7782 C   0  0  0  0  0  0  0  0  0  0  0  0
   -3.3503   -3.2066   -1.0304 C   0  0  0  0  0  0  0  0  0  0  0  0
   -2.2273   -2.4570   -0.8042 C   0  0  0  0  0  0  0  0  0  0  0  0
   -2.3334   -1.1532   -0.3218 C   0  0  0  0  0  0  0  0  0  0  0  0
   -1.1525   -0.3673   -0.0848 C   0  0  0  0  0  0  0  0  0  0  0  0
    0.1688   -0.6462   -0.2441 O   0  0  0  0  0  0  0  0  0  0  0  0
    5.1643   -1.4880   -0.7686 C   0  0  0  0  0  0  0  0  0  0  0  0
    6.5374   -1.5071   -0.8350 C   0  0  0  0  0  0  0  0  0  0  0  0
    7.1947    1.5882    0.2712 H   0  0  0  0  0  0  0  0  0  0  0  0
    4.7417    1.6464    0.3985 H   0  0  0  0  0  0  0  0  0  0  0  0
    2.5433   -1.2757   -0.5775 H   0  0  0  0  0  0  0  0  0  0  0  0
    2.6643    1.5715    0.4608 H   0  0  0  0  0  0  0  0  0  0  0  0
   -1.7135    3.4055    1.3222 H   0  0  0  0  0  0  0  0  0  0  0  0
   -3.9048    4.4236    1.7901 H   0  0  0  0  0  0  0  0  0  0  0  0
   -5.9592    3.1289    1.4044 H   0  0  0  0  0  0  0  0  0  0  0  0
   -5.8445    0.8525    0.5651 H   0  0  0  0  0  0  0  0  0  0  0  0
   -5.7087   -0.9915   -0.1166 H   0  0  0  0  0  0  0  0  0  0  0  0
   -5.4841   -3.2594   -0.9576 H   0  0  0  0  0  0  0  0  0  0  0  0
   -3.2622   -4.2135   -1.4033 H   0  0  0  0  0  0  0  0  0  0  0  0
   -1.2469   -2.8592   -0.9940 H   0  0  0  0  0  0  0  0  0  0  0  0
    4.6000   -2.3564   -1.0625 H   0  0  0  0  0  0  0  0  0  0  0  0
    7.0624   -2.3809   -1.1780 H   0  0  0  0  0  0  0  0  0  0  0  0
  1  2  1  0  0  0  0
  2  3  2  0  0  0  0
  3  4  1  0  0  0  0
  4  5  2  0  0  0  0
  5  6  1  0  0  0  0
  6  7  2  0  0  0  0
  7  8  1  0  0  0  0
  8  9  2  0  0  0  0
  9 10  1  0  0  0  0
 10 11  2  0  0  0  0
 11 12  1  0  0  0  0
 12 13  2  0  0  0  0
 13 14  1  0  0  0  0
 14 15  2  0  0  0  0
 15 16  1  0  0  0  0
 16 17  2  0  0  0  0
 17 18  1  0  0  0  0
 18 19  2  0  0  0  0
 19 20  1  0  0  0  0
 20 21  2  0  0  0  0
 21 22  1  0  0  0  0
 22 23  2  0  0  0  0
 23 24  1  0  0  0  0
  5 25  1  0  0  0  0
 25 26  2  0  0  0  0
 26  2  1  0  0  0  0
 24  8  1  0  0  0  0
 23 10  1  0  0  0  0
 16 11  1  0  0  0  0
 22 17  1  0  0  0  0
  3 27  1  0  0  0  0
  4 28  1  0  0  0  0
  6 29  1  0  0  0  0
  7 30  1  0  0  0  0
 12 31  1  0  0  0  0
 13 32  1  0  0  0  0
 14 33  1  0  0  0  0
 15 34  1  0  0  0  0
 18 35  1  0  0  0  0
 19 36  1  0  0  0  0
 20 37  1  0  0  0  0
 21 38  1  0  0  0  0
 25 39  1  0  0  0  0
 26 40  1  0  0  0  0
M  END
