
  xtb     03012221293D
 energy: -15.026164957097 gnorm: 0.000079534797 xtb: 6.4.1 (afa7bdf)
 81 86  0     0  0            999 V2000
   -9.9523    5.3871   -1.2971 C   0  0  0  0  0  0  0  0  0  0  0  0
  -10.5403    4.1514   -0.6518 C   0  0  0  0  0  0  0  0  0  0  0  0
  -10.2155    2.9262   -1.4031 N   0  0  0  0  0  0  0  0  0  0  0  0
  -11.2602    2.4667   -2.3355 C   0  0  0  0  0  0  0  0  0  0  0  0
  -12.1065    1.3612   -1.7432 C   0  0  0  0  0  0  0  0  0  0  0  0
   -8.9933    2.2538   -1.2555 C   0  0  0  0  0  0  0  0  0  0  0  0
   -7.9872    2.7420   -0.3974 C   0  0  0  0  0  0  0  0  0  0  0  0
   -6.7944    2.0934   -0.2589 C   0  0  0  0  0  0  0  0  0  0  0  0
   -6.5332    0.9103   -0.9720 C   0  0  0  0  0  0  0  0  0  0  0  0
   -5.3163    0.2217   -0.8676 C   0  0  0  0  0  0  0  0  0  0  0  0
   -5.0875   -0.9272   -1.5834 C   0  0  0  0  0  0  0  0  0  0  0  0
   -3.8611   -1.6409   -1.5324 C   0  0  0  0  0  0  0  0  0  0  0  0
   -2.7689   -1.2829   -0.8112 C   0  0  0  0  0  0  0  0  0  0  0  0
   -1.5694   -2.0334   -0.8558 C   0  0  0  0  0  0  0  0  0  0  0  0
   -0.4253   -1.6349   -0.1623 C   0  0  0  0  0  0  0  0  0  0  0  0
   -0.1932   -0.4357    0.7035 C   0  0  0  0  0  0  0  0  0  0  0  0
    1.3111   -0.4753    1.0273 C   0  0  0  0  0  0  0  0  0  0  0  0
    1.8567   -1.6803    0.3160 C   0  0  0  0  0  0  0  0  0  0  0  0
    3.1359   -2.1466    0.1946 C   0  0  0  0  0  0  0  0  0  0  0  0
    4.3803   -1.6557    0.6960 C   0  0  0  0  0  0  0  0  0  0  0  0
    5.5265   -2.2628    0.2385 C   0  0  0  0  0  0  0  0  0  0  0  0
    6.8036   -1.8312    0.6227 C   0  0  0  0  0  0  0  0  0  0  0  0
    7.9829   -2.4278    0.1422 C   0  0  0  0  0  0  0  0  0  0  0  0
    9.2065   -1.9568    0.5224 C   0  0  0  0  0  0  0  0  0  0  0  0
    9.3316   -0.8646    1.4052 C   0  0  0  0  0  0  0  0  0  0  0  0
   10.5887   -0.3705    1.7829 N   0  0  0  0  0  0  0  0  0  0  0  0
   11.8471   -0.9095    1.2385 C   0  0  0  0  0  0  0  0  0  0  0  0
   12.3063   -2.1443    1.9820 C   0  0  0  0  0  0  0  0  0  0  0  0
   10.7441    0.7379    2.7416 C   0  0  0  0  0  0  0  0  0  0  0  0
   10.5639    2.0895    2.0856 C   0  0  0  0  0  0  0  0  0  0  0  0
    8.1597   -0.2845    1.8858 C   0  0  0  0  0  0  0  0  0  0  0  0
    6.9024   -0.7392    1.5132 C   0  0  0  0  0  0  0  0  0  0  0  0
    5.7780   -0.1117    2.0215 O   0  0  0  0  0  0  0  0  0  0  0  0
    4.5185   -0.5529    1.6599 C   0  0  0  0  0  0  0  0  0  0  0  0
    3.5232   -0.0372    2.1397 O   0  0  0  0  0  0  0  0  0  0  0  0
    0.7717   -2.3301   -0.3538 C   0  0  0  0  0  0  0  0  0  0  0  0
    0.8648   -3.4392   -1.1202 O   0  0  0  0  0  3  0  0  0  0  0  0
   -0.4276   -4.1174   -1.3112 B   0  0  0  0  0  4  0  0  0  0  0  0
   -0.3227   -5.0557   -2.3212 F   0  0  0  0  0  0  0  0  0  0  0  0
   -0.7538   -4.7291   -0.1107 F   0  0  0  0  0  0  0  0  0  0  0  0
   -1.5019   -3.1551   -1.6214 O   0  0  0  0  0  0  0  0  0  0  0  0
   -6.1424   -1.4431   -2.4596 C   0  0  0  0  0  0  0  0  0  0  0  0
   -5.9168   -2.4709   -3.0813 O   0  0  0  0  0  0  0  0  0  0  0  0
   -7.3401   -0.7675   -2.5639 O   0  0  0  0  0  0  0  0  0  0  0  0
   -7.5291    0.3959   -1.8356 C   0  0  0  0  0  0  0  0  0  0  0  0
   -8.7314    1.0791   -1.9573 C   0  0  0  0  0  0  0  0  0  0  0  0
   -8.8669    5.3128   -1.3758 H   0  0  0  0  0  0  0  0  0  0  0  0
  -10.3346    5.5165   -2.3108 H   0  0  0  0  0  0  0  0  0  0  0  0
  -10.1840    6.2947   -0.7358 H   0  0  0  0  0  0  0  0  0  0  0  0
  -10.1942    4.0317    0.3794 H   0  0  0  0  0  0  0  0  0  0  0  0
  -11.6299    4.2336   -0.5786 H   0  0  0  0  0  0  0  0  0  0  0  0
  -10.7817    2.1520   -3.2683 H   0  0  0  0  0  0  0  0  0  0  0  0
  -11.8817    3.3255   -2.6101 H   0  0  0  0  0  0  0  0  0  0  0  0
  -12.8733    1.0125   -2.4382 H   0  0  0  0  0  0  0  0  0  0  0  0
  -11.4954    0.5016   -1.4648 H   0  0  0  0  0  0  0  0  0  0  0  0
  -12.6090    1.6993   -0.8357 H   0  0  0  0  0  0  0  0  0  0  0  0
   -8.1591    3.6483    0.1556 H   0  0  0  0  0  0  0  0  0  0  0  0
   -6.0372    2.4829    0.3978 H   0  0  0  0  0  0  0  0  0  0  0  0
   -4.5590    0.6150   -0.2174 H   0  0  0  0  0  0  0  0  0  0  0  0
   -3.7908   -2.5312   -2.1367 H   0  0  0  0  0  0  0  0  0  0  0  0
   -2.7910   -0.3993   -0.2000 H   0  0  0  0  0  0  0  0  0  0  0  0
   -0.8106   -0.4938    1.6068 H   0  0  0  0  0  0  0  0  0  0  0  0
   -0.4725    0.4793    0.1696 H   0  0  0  0  0  0  0  0  0  0  0  0
    1.8373    0.4272    0.6924 H   0  0  0  0  0  0  0  0  0  0  0  0
    1.5012   -0.5669    2.1044 H   0  0  0  0  0  0  0  0  0  0  0  0
    3.2154   -3.0232   -0.4275 H   0  0  0  0  0  0  0  0  0  0  0  0
    5.4490   -3.0801   -0.4551 H   0  0  0  0  0  0  0  0  0  0  0  0
    7.9069   -3.2598   -0.5347 H   0  0  0  0  0  0  0  0  0  0  0  0
   10.0934   -2.4319    0.1425 H   0  0  0  0  0  0  0  0  0  0  0  0
   12.6085   -0.1237    1.2851 H   0  0  0  0  0  0  0  0  0  0  0  0
   11.7095   -1.1095    0.1714 H   0  0  0  0  0  0  0  0  0  0  0  0
   13.2338   -2.5503    1.5727 H   0  0  0  0  0  0  0  0  0  0  0  0
   11.5525   -2.9318    1.9424 H   0  0  0  0  0  0  0  0  0  0  0  0
   12.4772   -1.9228    3.0366 H   0  0  0  0  0  0  0  0  0  0  0  0
   10.0353    0.5910    3.5625 H   0  0  0  0  0  0  0  0  0  0  0  0
   11.7343    0.6602    3.2028 H   0  0  0  0  0  0  0  0  0  0  0  0
   11.3015    2.2408    1.2959 H   0  0  0  0  0  0  0  0  0  0  0  0
    9.5809    2.1755    1.6207 H   0  0  0  0  0  0  0  0  0  0  0  0
   10.6669    2.9100    2.7988 H   0  0  0  0  0  0  0  0  0  0  0  0
    8.2005    0.5478    2.5623 H   0  0  0  0  0  0  0  0  0  0  0  0
   -9.4661    0.6640   -2.6204 H   0  0  0  0  0  0  0  0  0  0  0  0
  1  2  1  0  0  0  0
  2  3  1  0  0  0  0
  3  4  1  0  0  0  0
  4  5  1  0  0  0  0
  3  6  1  0  0  0  0
  6  7  2  0  0  0  0
  7  8  1  0  0  0  0
  8  9  2  0  0  0  0
  9 10  1  0  0  0  0
 10 11  2  0  0  0  0
 11 12  1  0  0  0  0
 12 13  2  0  0  0  0
 13 14  1  0  0  0  0
 14 15  2  0  0  0  0
 15 16  1  0  0  0  0
 16 17  1  0  0  0  0
 17 18  1  0  0  0  0
 18 19  2  0  0  0  0
 19 20  1  0  0  0  0
 20 21  2  0  0  0  0
 21 22  1  0  0  0  0
 22 23  2  0  0  0  0
 23 24  1  0  0  0  0
 24 25  2  0  0  0  0
 25 26  1  0  0  0  0
 26 27  1  0  0  0  0
 27 28  1  0  0  0  0
 26 29  1  0  0  0  0
 29 30  1  0  0  0  0
 25 31  1  0  0  0  0
 31 32  2  0  0  0  0
 32 33  1  0  0  0  0
 33 34  1  0  0  0  0
 34 35  2  0  0  0  0
 18 36  1  0  0  0  0
 36 37  2  0  0  0  0
 37 38  1  0  0  0  0
 38 39  1  0  0  0  0
 38 40  1  0  0  0  0
 38 41  1  0  0  0  0
 11 42  1  0  0  0  0
 42 43  2  0  0  0  0
 42 44  1  0  0  0  0
 44 45  1  0  0  0  0
 45 46  2  0  0  0  0
 46  6  1  0  0  0  0
 45  9  1  0  0  0  0
 41 14  1  0  0  0  0
 36 15  1  0  0  0  0
 34 20  1  0  0  0  0
 32 22  1  0  0  0  0
  1 47  1  0  0  0  0
  1 48  1  0  0  0  0
  1 49  1  0  0  0  0
  2 50  1  0  0  0  0
  2 51  1  0  0  0  0
  4 52  1  0  0  0  0
  4 53  1  0  0  0  0
  5 54  1  0  0  0  0
  5 55  1  0  0  0  0
  5 56  1  0  0  0  0
  7 57  1  0  0  0  0
  8 58  1  0  0  0  0
 10 59  1  0  0  0  0
 12 60  1  0  0  0  0
 13 61  1  0  0  0  0
 16 62  1  0  0  0  0
 16 63  1  0  0  0  0
 17 64  1  0  0  0  0
 17 65  1  0  0  0  0
 19 66  1  0  0  0  0
 21 67  1  0  0  0  0
 23 68  1  0  0  0  0
 24 69  1  0  0  0  0
 27 70  1  0  0  0  0
 27 71  1  0  0  0  0
 28 72  1  0  0  0  0
 28 73  1  0  0  0  0
 28 74  1  0  0  0  0
 29 75  1  0  0  0  0
 29 76  1  0  0  0  0
 30 77  1  0  0  0  0
 30 78  1  0  0  0  0
 30 79  1  0  0  0  0
 31 80  1  0  0  0  0
 46 81  1  0  0  0  0
M  CHG  1  37   1
M  CHG  1  38  -1
M  END
