
  xtb     03012221303D
 energy: -11.470269821563 gnorm: 0.000245631094 xtb: 6.4.1 (afa7bdf)
 57 61  0     0  0            999 V2000
   -8.1481   -0.1776   -1.2257 C   0  0  0  0  0  0  0  0  0  0  0  0
   -7.9095   -0.1220    0.2683 C   0  0  0  0  0  0  0  0  0  0  0  0
   -6.8783    0.8694    0.6374 N   0  0  0  0  0  0  0  0  0  0  0  0
   -7.3761    2.1957    1.0548 C   0  0  0  0  0  0  0  0  0  0  0  0
   -7.2338    3.2335   -0.0383 C   0  0  0  0  0  0  0  0  0  0  0  0
   -5.5058    0.5857    0.5359 C   0  0  0  0  0  0  0  0  0  0  0  0
   -4.5335    1.5209    0.9394 C   0  0  0  0  0  0  0  0  0  0  0  0
   -3.2004    1.2442    0.8364 C   0  0  0  0  0  0  0  0  0  0  0  0
   -2.7608    0.0157    0.3217 C   0  0  0  0  0  0  0  0  0  0  0  0
   -1.3970   -0.3153    0.1966 C   0  0  0  0  0  0  0  0  0  0  0  0
   -0.9992   -1.5104   -0.3080 C   0  0  0  0  0  0  0  0  0  0  0  0
    0.4260   -1.7805   -0.4006 C   0  0  0  0  0  0  0  0  0  0  0  0
    1.3236   -0.9037    0.0215 N   0  0  0  0  0  0  0  0  0  0  0  0
    2.5284   -1.4692   -0.2088 C   0  0  0  0  0  0  0  0  0  0  0  0
    3.8177   -0.9902    0.0443 C   0  0  0  0  0  0  0  0  0  0  0  0
    4.9030   -1.7708   -0.2906 C   0  0  0  0  0  0  0  0  0  0  0  0
    6.2895   -1.3256   -0.0406 C   0  0  0  0  0  0  0  0  0  0  0  0
    7.1918   -2.1451   -0.0486 O   0  0  0  0  0  0  0  0  0  0  0  0
    6.5168    0.0271    0.1839 N   0  0  0  0  0  0  0  0  0  0  0  0
    7.7609    0.6231    0.4438 C   0  0  0  0  0  0  0  0  0  0  0  0
    8.9359   -0.1077    0.5337 C   0  0  0  0  0  0  0  0  0  0  0  0
   10.1387    0.5162    0.7944 C   0  0  0  0  0  0  0  0  0  0  0  0
   10.1852    1.8852    0.9696 C   0  0  0  0  0  0  0  0  0  0  0  0
    9.0261    2.6320    0.8838 C   0  0  0  0  0  0  0  0  0  0  0  0
    7.8227    2.0101    0.6235 C   0  0  0  0  0  0  0  0  0  0  0  0
    6.3669    2.9260    0.5142 Cl  0  0  0  0  0  0  0  0  0  0  0  0
    4.7014   -3.0423   -0.8690 C   0  0  0  0  0  0  0  0  0  0  0  0
    3.4535   -3.5316   -1.1244 C   0  0  0  0  0  0  0  0  0  0  0  0
    2.3403   -2.7457   -0.7973 C   0  0  0  0  0  0  0  0  0  0  0  0
    0.9947   -2.9246   -0.9130 O   0  0  0  0  0  0  0  0  0  0  0  0
   -2.0068   -2.4839   -0.7365 C   0  0  0  0  0  0  0  0  0  0  0  0
   -1.6549   -3.5586   -1.1969 O   0  0  0  0  0  0  0  0  0  0  0  0
   -3.3440   -2.1646   -0.6103 O   0  0  0  0  0  0  0  0  0  0  0  0
   -3.7128   -0.9351   -0.0883 C   0  0  0  0  0  0  0  0  0  0  0  0
   -5.0636   -0.6316    0.0314 C   0  0  0  0  0  0  0  0  0  0  0  0
   -8.8756   -0.9459   -1.4970 H   0  0  0  0  0  0  0  0  0  0  0  0
   -8.5225    0.7763   -1.5996 H   0  0  0  0  0  0  0  0  0  0  0  0
   -7.2252   -0.3898   -1.7676 H   0  0  0  0  0  0  0  0  0  0  0  0
   -7.6046   -1.0960    0.6612 H   0  0  0  0  0  0  0  0  0  0  0  0
   -8.8355    0.1193    0.7977 H   0  0  0  0  0  0  0  0  0  0  0  0
   -8.4226    2.1000    1.3575 H   0  0  0  0  0  0  0  0  0  0  0  0
   -6.8430    2.4930    1.9619 H   0  0  0  0  0  0  0  0  0  0  0  0
   -7.8164    2.9589   -0.9188 H   0  0  0  0  0  0  0  0  0  0  0  0
   -7.5714    4.2205    0.2857 H   0  0  0  0  0  0  0  0  0  0  0  0
   -6.1966    3.3285   -0.3627 H   0  0  0  0  0  0  0  0  0  0  0  0
   -4.8438    2.4674    1.3425 H   0  0  0  0  0  0  0  0  0  0  0  0
   -2.4694    1.9685    1.1509 H   0  0  0  0  0  0  0  0  0  0  0  0
   -0.6501    0.3929    0.5090 H   0  0  0  0  0  0  0  0  0  0  0  0
    3.9340   -0.0345    0.5161 H   0  0  0  0  0  0  0  0  0  0  0  0
    5.7357    0.6690    0.1110 H   0  0  0  0  0  0  0  0  0  0  0  0
    8.8842   -1.1727    0.3927 H   0  0  0  0  0  0  0  0  0  0  0  0
   11.0423   -0.0668    0.8605 H   0  0  0  0  0  0  0  0  0  0  0  0
   11.1246    2.3713    1.1730 H   0  0  0  0  0  0  0  0  0  0  0  0
    9.0447    3.7001    1.0177 H   0  0  0  0  0  0  0  0  0  0  0  0
    5.5739   -3.6292   -1.1005 H   0  0  0  0  0  0  0  0  0  0  0  0
    3.3017   -4.5009   -1.5642 H   0  0  0  0  0  0  0  0  0  0  0  0
   -5.7632   -1.3789   -0.2879 H   0  0  0  0  0  0  0  0  0  0  0  0
  1  2  1  0  0  0  0
  2  3  1  0  0  0  0
  3  4  1  0  0  0  0
  4  5  1  0  0  0  0
  3  6  1  0  0  0  0
  6  7  2  0  0  0  0
  7  8  1  0  0  0  0
  8  9  2  0  0  0  0
  9 10  1  0  0  0  0
 10 11  2  0  0  0  0
 11 12  1  0  0  0  0
 12 13  2  0  0  0  0
 13 14  1  0  0  0  0
 14 15  2  0  0  0  0
 15 16  1  0  0  0  0
 16 17  1  0  0  0  0
 17 18  2  0  0  0  0
 17 19  1  0  0  0  0
 19 20  1  0  0  0  0
 20 21  2  0  0  0  0
 21 22  1  0  0  0  0
 22 23  2  0  0  0  0
 23 24  1  0  0  0  0
 24 25  2  0  0  0  0
 25 26  1  0  0  0  0
 16 27  2  0  0  0  0
 27 28  1  0  0  0  0
 28 29  2  0  0  0  0
 29 30  1  0  0  0  0
 11 31  1  0  0  0  0
 31 32  2  0  0  0  0
 31 33  1  0  0  0  0
 33 34  1  0  0  0  0
 34 35  2  0  0  0  0
 35  6  1  0  0  0  0
 34  9  1  0  0  0  0
 30 12  1  0  0  0  0
 29 14  1  0  0  0  0
 25 20  1  0  0  0  0
  1 36  1  0  0  0  0
  1 37  1  0  0  0  0
  1 38  1  0  0  0  0
  2 39  1  0  0  0  0
  2 40  1  0  0  0  0
  4 41  1  0  0  0  0
  4 42  1  0  0  0  0
  5 43  1  0  0  0  0
  5 44  1  0  0  0  0
  5 45  1  0  0  0  0
  7 46  1  0  0  0  0
  8 47  1  0  0  0  0
 10 48  1  0  0  0  0
 15 49  1  0  0  0  0
 19 50  1  0  0  0  0
 21 51  1  0  0  0  0
 22 52  1  0  0  0  0
 23 53  1  0  0  0  0
 24 54  1  0  0  0  0
 27 55  1  0  0  0  0
 28 56  1  0  0  0  0
 35 57  1  0  0  0  0
M  END
