
  xtb     03012221243D
 energy: -13.975383120717 gnorm: 0.000388170855 xtb: 6.4.1 (afa7bdf)
 75 79  0     0  0            999 V2000
   -2.4002   -5.9574   -1.1622 C   0  0  0  0  0  0  0  0  0  0  0  0
   -1.0466   -6.2636   -0.5416 C   0  0  0  0  0  0  0  0  0  0  0  0
   -0.8577   -5.6050    0.8304 C   0  0  0  0  0  0  0  0  0  0  0  0
   -0.9077   -4.1118    0.7705 C   0  0  0  0  0  0  0  0  0  0  0  0
   -1.9764   -3.3285    1.0846 C   0  0  0  0  0  0  0  0  0  0  0  0
   -1.5846   -1.9879    0.8091 C   0  0  0  0  0  0  0  0  0  0  0  0
   -0.3323   -1.9596    0.3391 N   0  0  0  0  0  0  0  0  0  0  0  0
    0.1254   -3.2227    0.2927 C   0  0  0  0  0  0  0  0  0  0  0  0
    1.4115   -3.6407   -0.1453 C   0  0  0  0  0  0  0  0  0  0  0  0
    2.4728   -2.9216   -0.6457 C   0  0  0  0  0  0  0  0  0  0  0  0
    2.6119   -1.5338   -0.9014 C   0  0  0  0  0  0  0  0  0  0  0  0
    1.6800   -0.5510   -0.6883 N   0  0  0  0  0  0  0  0  0  0  0  0
    2.1675    0.6794   -1.0133 C   0  0  0  0  0  0  0  0  0  0  0  0
    3.4875    0.4847   -1.4736 C   0  0  0  0  0  0  0  0  0  0  0  0
    3.7644   -0.8634   -1.4229 C   0  0  0  0  0  0  0  0  0  0  0  0
    5.0817   -1.4739   -1.7652 C   0  0  0  0  0  0  0  0  0  0  0  0
    6.0889   -1.3049   -0.6357 C   0  0  0  0  0  0  0  0  0  0  0  0
    6.3876    0.0654   -0.3942 O   0  0  0  0  0  0  0  0  0  0  0  0
    7.1971    0.2480    0.7434 C   0  0  0  0  0  0  0  0  0  0  0  0
    1.4055    1.8785   -0.8533 C   0  0  0  0  0  0  0  0  0  0  0  0
    0.1524    1.8548   -0.3864 N   0  0  0  0  0  0  0  0  0  0  0  0
   -0.2958    3.1211   -0.3284 C   0  0  0  0  0  0  0  0  0  0  0  0
   -1.5769    3.5391    0.1245 C   0  0  0  0  0  0  0  0  0  0  0  0
   -2.6386    2.8164    0.6193 C   0  0  0  0  0  0  0  0  0  0  0  0
   -2.7854    1.4250    0.8494 C   0  0  0  0  0  0  0  0  0  0  0  0
   -1.8581    0.4390    0.6312 N   0  0  0  0  0  0  0  0  0  0  0  0
   -2.3491   -0.7893    0.9606 C   0  0  0  0  0  0  0  0  0  0  0  0
   -3.6692   -0.5909    1.4208 C   0  0  0  0  0  0  0  0  0  0  0  0
   -3.9427    0.7591    1.3633 C   0  0  0  0  0  0  0  0  0  0  0  0
   -5.2530    1.3948    1.7014 C   0  0  0  0  0  0  0  0  0  0  0  0
   -6.0974    1.7144    0.4629 C   0  0  0  0  0  0  0  0  0  0  0  0
   -6.4778    0.4731   -0.3272 C   0  0  0  0  0  0  0  0  0  0  0  0
    0.7446    4.0075   -0.7991 C   0  0  0  0  0  0  0  0  0  0  0  0
    0.7271    5.5023   -0.8461 C   0  0  0  0  0  0  0  0  0  0  0  0
    1.3898    6.1420    0.3802 C   0  0  0  0  0  0  0  0  0  0  0  0
    0.6777    5.8113    1.6822 C   0  0  0  0  0  0  0  0  0  0  0  0
    1.8067    3.2181   -1.1163 C   0  0  0  0  0  0  0  0  0  0  0  0
   -2.5331   -4.8838   -1.3078 H   0  0  0  0  0  0  0  0  0  0  0  0
   -3.2147   -6.2979   -0.5203 H   0  0  0  0  0  0  0  0  0  0  0  0
   -2.5245   -6.4375   -2.1355 H   0  0  0  0  0  0  0  0  0  0  0  0
   -0.2470   -5.9283   -1.2153 H   0  0  0  0  0  0  0  0  0  0  0  0
   -0.9130   -7.3509   -0.4553 H   0  0  0  0  0  0  0  0  0  0  0  0
    0.0925   -5.9131    1.2811 H   0  0  0  0  0  0  0  0  0  0  0  0
   -1.6347   -5.9578    1.5170 H   0  0  0  0  0  0  0  0  0  0  0  0
   -2.9321   -3.6575    1.4541 H   0  0  0  0  0  0  0  0  0  0  0  0
    1.5711   -4.7036   -0.0623 H   0  0  0  0  0  0  0  0  0  0  0  0
    3.3505   -3.4988   -0.8876 H   0  0  0  0  0  0  0  0  0  0  0  0
    0.7648   -0.7405   -0.2925 H   0  0  0  0  0  0  0  0  0  0  0  0
    4.1725    1.2557   -1.7804 H   0  0  0  0  0  0  0  0  0  0  0  0
    5.4707   -0.9932   -2.6684 H   0  0  0  0  0  0  0  0  0  0  0  0
    4.9496   -2.5307   -2.0188 H   0  0  0  0  0  0  0  0  0  0  0  0
    5.6914   -1.7334    0.2913 H   0  0  0  0  0  0  0  0  0  0  0  0
    7.0316   -1.8192   -0.8577 H   0  0  0  0  0  0  0  0  0  0  0  0
    6.6744   -0.1083    1.6318 H   0  0  0  0  0  0  0  0  0  0  0  0
    8.1360   -0.2938    0.6238 H   0  0  0  0  0  0  0  0  0  0  0  0
    7.4089    1.3115    0.8573 H   0  0  0  0  0  0  0  0  0  0  0  0
   -1.7322    4.6037    0.0670 H   0  0  0  0  0  0  0  0  0  0  0  0
   -3.5091    3.3937    0.8875 H   0  0  0  0  0  0  0  0  0  0  0  0
   -0.9370    0.6237    0.2473 H   0  0  0  0  0  0  0  0  0  0  0  0
   -4.3459   -1.3613    1.7470 H   0  0  0  0  0  0  0  0  0  0  0  0
   -5.0691    2.3012    2.2895 H   0  0  0  0  0  0  0  0  0  0  0  0
   -5.8117    0.7245    2.3636 H   0  0  0  0  0  0  0  0  0  0  0  0
   -5.5420    2.4080   -0.1824 H   0  0  0  0  0  0  0  0  0  0  0  0
   -7.0039    2.2605    0.7594 H   0  0  0  0  0  0  0  0  0  0  0  0
   -7.0836    0.7129   -1.2042 H   0  0  0  0  0  0  0  0  0  0  0  0
   -5.5906   -0.0583   -0.6774 H   0  0  0  0  0  0  0  0  0  0  0  0
   -7.0491   -0.2259    0.2868 H   0  0  0  0  0  0  0  0  0  0  0  0
   -0.3046    5.8548   -0.9395 H   0  0  0  0  0  0  0  0  0  0  0  0
    1.2292    5.8289   -1.7642 H   0  0  0  0  0  0  0  0  0  0  0  0
    2.4347    5.8081    0.4349 H   0  0  0  0  0  0  0  0  0  0  0  0
    1.4423    7.2320    0.2507 H   0  0  0  0  0  0  0  0  0  0  0  0
   -0.3556    6.1624    1.6676 H   0  0  0  0  0  0  0  0  0  0  0  0
    0.6494    4.7337    1.8534 H   0  0  0  0  0  0  0  0  0  0  0  0
    1.1672    6.2670    2.5459 H   0  0  0  0  0  0  0  0  0  0  0  0
    2.7660    3.5432   -1.4804 H   0  0  0  0  0  0  0  0  0  0  0  0
  1  2  1  0  0  0  0
  2  3  1  0  0  0  0
  3  4  1  0  0  0  0
  4  5  2  0  0  0  0
  5  6  1  0  0  0  0
  6  7  2  0  0  0  0
  7  8  1  0  0  0  0
  8  9  2  0  0  0  0
  9 10  1  0  0  0  0
 10 11  2  0  0  0  0
 11 12  1  0  0  0  0
 12 13  1  0  0  0  0
 13 14  1  0  0  0  0
 14 15  2  0  0  0  0
 15 16  1  0  0  0  0
 16 17  1  0  0  0  0
 17 18  1  0  0  0  0
 18 19  1  0  0  0  0
 13 20  2  0  0  0  0
 20 21  1  0  0  0  0
 21 22  2  0  0  0  0
 22 23  1  0  0  0  0
 23 24  2  0  0  0  0
 24 25  1  0  0  0  0
 25 26  1  0  0  0  0
 26 27  1  0  0  0  0
 27 28  2  0  0  0  0
 28 29  1  0  0  0  0
 29 30  1  0  0  0  0
 30 31  1  0  0  0  0
 31 32  1  0  0  0  0
 22 33  1  0  0  0  0
 33 34  1  0  0  0  0
 34 35  1  0  0  0  0
 35 36  1  0  0  0  0
 33 37  2  0  0  0  0
  8  4  1  0  0  0  0
 15 11  1  0  0  0  0
 37 20  1  0  0  0  0
 27  6  1  0  0  0  0
 29 25  2  0  0  0  0
  1 38  1  0  0  0  0
  1 39  1  0  0  0  0
  1 40  1  0  0  0  0
  2 41  1  0  0  0  0
  2 42  1  0  0  0  0
  3 43  1  0  0  0  0
  3 44  1  0  0  0  0
  5 45  1  0  0  0  0
  9 46  1  0  0  0  0
 10 47  1  0  0  0  0
 12 48  1  0  0  0  0
 14 49  1  0  0  0  0
 16 50  1  0  0  0  0
 16 51  1  0  0  0  0
 17 52  1  0  0  0  0
 17 53  1  0  0  0  0
 19 54  1  0  0  0  0
 19 55  1  0  0  0  0
 19 56  1  0  0  0  0
 23 57  1  0  0  0  0
 24 58  1  0  0  0  0
 26 59  1  0  0  0  0
 28 60  1  0  0  0  0
 30 61  1  0  0  0  0
 30 62  1  0  0  0  0
 31 63  1  0  0  0  0
 31 64  1  0  0  0  0
 32 65  1  0  0  0  0
 32 66  1  0  0  0  0
 32 67  1  0  0  0  0
 34 68  1  0  0  0  0
 34 69  1  0  0  0  0
 35 70  1  0  0  0  0
 35 71  1  0  0  0  0
 36 72  1  0  0  0  0
 36 73  1  0  0  0  0
 36 74  1  0  0  0  0
 37 75  1  0  0  0  0
M  END
