
  xtb     03012221213D
 energy: -7.035807231019 gnorm: 0.000657859204 xtb: 6.4.1 (afa7bdf)
 31 34  0     0  0            999 V2000
    5.6716    2.5804   -1.9928 N   0  0  0  0  0  0  0  0  0  0  0  0
    4.7465    1.9882   -1.6089 C   0  0  0  0  0  0  0  0  0  0  0  0
    3.6484    1.2957   -1.1406 C   0  0  0  0  0  0  0  0  0  0  0  0
    3.2411    1.3284    0.1363 C   0  0  0  0  0  0  0  0  0  0  0  0
    2.0939    0.5977    0.6715 C   0  0  0  0  0  0  0  0  0  0  0  0
    2.2291   -0.0394    1.9100 C   0  0  0  0  0  0  0  0  0  0  0  0
    1.2189   -0.7891    2.4554 C   0  0  0  0  0  0  0  0  0  0  0  0
   -0.0008   -0.9379    1.7904 C   0  0  0  0  0  0  0  0  0  0  0  0
   -1.0626   -1.7250    2.3287 C   0  0  0  0  0  0  0  0  0  0  0  0
   -2.2420   -1.8508    1.6805 C   0  0  0  0  0  0  0  0  0  0  0  0
   -2.4714   -1.1923    0.4338 C   0  0  0  0  0  0  0  0  0  0  0  0
   -3.6833   -1.2975   -0.2508 C   0  0  0  0  0  0  0  0  0  0  0  0
   -3.8770   -0.6397   -1.4477 C   0  0  0  0  0  0  0  0  0  0  0  0
   -2.8784    0.1394   -1.9935 C   0  0  0  0  0  0  0  0  0  0  0  0
   -1.6478    0.2752   -1.3485 C   0  0  0  0  0  0  0  0  0  0  0  0
   -0.5981    1.0881   -1.8715 C   0  0  0  0  0  0  0  0  0  0  0  0
    0.5869    1.1989   -1.2306 C   0  0  0  0  0  0  0  0  0  0  0  0
    0.8534    0.5031   -0.0116 C   0  0  0  0  0  0  0  0  0  0  0  0
   -0.1868   -0.2799    0.5516 C   0  0  0  0  0  0  0  0  0  0  0  0
   -1.4367   -0.4012   -0.1238 C   0  0  0  0  0  0  0  0  0  0  0  0
    3.1329    0.6672   -1.8454 H   0  0  0  0  0  0  0  0  0  0  0  0
    3.8357    1.8940    0.8347 H   0  0  0  0  0  0  0  0  0  0  0  0
    3.1671    0.0479    2.4309 H   0  0  0  0  0  0  0  0  0  0  0  0
    1.3598   -1.2788    3.4033 H   0  0  0  0  0  0  0  0  0  0  0  0
   -0.9062   -2.2234    3.2703 H   0  0  0  0  0  0  0  0  0  0  0  0
   -3.0313   -2.4491    2.1006 H   0  0  0  0  0  0  0  0  0  0  0  0
   -4.4705   -1.8990    0.1690 H   0  0  0  0  0  0  0  0  0  0  0  0
   -4.8203   -0.7329   -1.9605 H   0  0  0  0  0  0  0  0  0  0  0  0
   -3.0408    0.6535   -2.9246 H   0  0  0  0  0  0  0  0  0  0  0  0
   -0.7715    1.6249   -2.7880 H   0  0  0  0  0  0  0  0  0  0  0  0
    1.3404    1.8540   -1.6282 H   0  0  0  0  0  0  0  0  0  0  0  0
  1  2  3  0  0  0  0
  2  3  1  0  0  0  0
  3  4  2  0  0  0  0
  4  5  1  0  0  0  0
  5  6  2  0  0  0  0
  6  7  1  0  0  0  0
  7  8  2  0  0  0  0
  8  9  1  0  0  0  0
  9 10  2  0  0  0  0
 10 11  1  0  0  0  0
 11 12  2  0  0  0  0
 12 13  1  0  0  0  0
 13 14  2  0  0  0  0
 14 15  1  0  0  0  0
 15 16  2  0  0  0  0
 16 17  1  0  0  0  0
 17 18  2  0  0  0  0
 18 19  1  0  0  0  0
 19 20  2  0  0  0  0
 18  5  1  0  0  0  0
 19  8  1  0  0  0  0
 20 11  1  0  0  0  0
 20 15  1  0  0  0  0
  3 21  1  0  0  0  0
  4 22  1  0  0  0  0
  6 23  1  0  0  0  0
  7 24  1  0  0  0  0
  9 25  1  0  0  0  0
 10 26  1  0  0  0  0
 12 27  1  0  0  0  0
 13 28  1  0  0  0  0
 14 29  1  0  0  0  0
 16 30  1  0  0  0  0
 17 31  1  0  0  0  0
M  END
