
  xtb     03012221233D
 energy: -19.281466182605 gnorm: 0.000380100481 xtb: 6.4.1 (afa7bdf)
 99108  0     0  0            999 V2000
    5.2915    5.1355   -1.8159 C   0  0  0  0  0  0  0  0  0  0  0  0
    4.7255    4.4322   -0.5938 C   0  0  0  0  0  0  0  0  0  0  0  0
    3.2604    4.0332   -0.7695 C   0  0  0  0  0  0  0  0  0  0  0  0
    2.6938    3.2936    0.4374 C   0  0  0  0  0  0  0  0  0  0  0  0
    1.3192    2.8176    0.2118 N   0  0  0  0  0  0  0  0  0  0  0  0
    0.2257    3.6720    0.3416 C   0  0  0  0  0  0  0  0  0  0  0  0
    0.1826    5.0688    0.4097 C   0  0  0  0  0  0  0  0  0  0  0  0
   -1.0324    5.6906    0.4615 C   0  0  0  0  0  0  0  0  0  0  0  0
   -2.2366    4.9577    0.4418 C   0  0  0  0  0  0  0  0  0  0  0  0
   -3.5129    5.6673    0.4546 C   0  0  0  0  0  0  0  0  0  0  0  0
   -4.7438    5.1277    0.6930 C   0  0  0  0  0  0  0  0  0  0  0  0
   -5.8059    6.0717    0.6348 C   0  0  0  0  0  0  0  0  0  0  0  0
   -5.3945    7.3280    0.3553 C   0  0  0  0  0  0  0  0  0  0  0  0
   -3.6787    7.3826    0.1589 S   0  0  0  0  0  0  0  0  0  0  0  0
   -2.1837    3.5728    0.3954 C   0  0  0  0  0  0  0  0  0  0  0  0
   -0.9529    2.9012    0.3783 C   0  0  0  0  0  0  0  0  0  0  0  0
   -0.5457    1.5099    0.3541 C   0  0  0  0  0  0  0  0  0  0  0  0
    0.8513    1.4985    0.1495 C   0  0  0  0  0  0  0  0  0  0  0  0
    1.5594    0.2532    0.0210 C   0  0  0  0  0  0  0  0  0  0  0  0
    2.9376   -0.0750   -0.2466 C   0  0  0  0  0  0  0  0  0  0  0  0
    4.0477    0.6492   -0.7091 C   0  0  0  0  0  0  0  0  0  0  0  0
    5.2628    0.0303   -0.8322 C   0  0  0  0  0  0  0  0  0  0  0  0
    5.4349   -1.3358   -0.5151 C   0  0  0  0  0  0  0  0  0  0  0  0
    6.7322   -1.9937   -0.6235 C   0  0  0  0  0  0  0  0  0  0  0  0
    7.9243   -1.4141   -0.9526 C   0  0  0  0  0  0  0  0  0  0  0  0
    9.0169   -2.3239   -0.9739 C   0  0  0  0  0  0  0  0  0  0  0  0
    8.6660   -3.5918   -0.6636 C   0  0  0  0  0  0  0  0  0  0  0  0
    6.9731   -3.7014   -0.3345 S   0  0  0  0  0  0  0  0  0  0  0  0
    4.3322   -2.0684   -0.1135 C   0  0  0  0  0  0  0  0  0  0  0  0
    3.0858   -1.4538   -0.0081 C   0  0  0  0  0  0  0  0  0  0  0  0
    1.8318   -1.9942    0.2920 N   0  0  0  0  0  0  0  0  0  0  0  0
    1.6956   -3.3377    0.8785 C   0  0  0  0  0  0  0  0  0  0  0  0
    1.8525   -4.4465   -0.1566 C   0  0  0  0  0  0  0  0  0  0  0  0
    1.5849   -5.8394    0.4120 C   0  0  0  0  0  0  0  0  0  0  0  0
    1.7284   -6.9342   -0.6314 C   0  0  0  0  0  0  0  0  0  0  0  0
    0.8827   -0.9629    0.2384 C   0  0  0  0  0  0  0  0  0  0  0  0
   -0.5398   -0.9580    0.4315 C   0  0  0  0  0  0  0  0  0  0  0  0
   -1.5000   -2.0257    0.5404 C   0  0  0  0  0  0  0  0  0  0  0  0
   -1.4553   -3.4083    0.3082 C   0  0  0  0  0  0  0  0  0  0  0  0
   -2.5836   -4.1606    0.4908 C   0  0  0  0  0  0  0  0  0  0  0  0
   -3.8087   -3.5867    0.8940 C   0  0  0  0  0  0  0  0  0  0  0  0
   -4.9782   -4.4378    1.0858 C   0  0  0  0  0  0  0  0  0  0  0  0
   -6.2216   -4.0399    1.4876 C   0  0  0  0  0  0  0  0  0  0  0  0
   -7.1610   -5.1030    1.5848 C   0  0  0  0  0  0  0  0  0  0  0  0
   -6.6429   -6.3084    1.2600 C   0  0  0  0  0  0  0  0  0  0  0  0
   -4.9771   -6.1669    0.8237 S   0  0  0  0  0  0  0  0  0  0  0  0
   -3.8724   -2.2145    1.0745 C   0  0  0  0  0  0  0  0  0  0  0  0
   -2.7306   -1.4381    0.8776 C   0  0  0  0  0  0  0  0  0  0  0  0
   -2.5638   -0.0510    0.8951 N   0  0  0  0  0  0  0  0  0  0  0  0
   -3.6605    0.8397    1.2813 C   0  0  0  0  0  0  0  0  0  0  0  0
   -4.6925    0.9938    0.1576 C   0  0  0  0  0  0  0  0  0  0  0  0
   -4.0762    1.0320   -1.2419 C   0  0  0  0  0  0  0  0  0  0  0  0
   -5.1192    1.1887   -2.3351 C   0  0  0  0  0  0  0  0  0  0  0  0
   -1.2420    0.2619    0.5460 C   0  0  0  0  0  0  0  0  0  0  0  0
    5.2357    4.4966   -2.6999 H   0  0  0  0  0  0  0  0  0  0  0  0
    6.3386    5.4172   -1.6801 H   0  0  0  0  0  0  0  0  0  0  0  0
    4.7328    6.0463   -2.0417 H   0  0  0  0  0  0  0  0  0  0  0  0
    4.8224    5.0736    0.2922 H   0  0  0  0  0  0  0  0  0  0  0  0
    5.3220    3.5399   -0.3624 H   0  0  0  0  0  0  0  0  0  0  0  0
    2.6586    4.9255   -0.9740 H   0  0  0  0  0  0  0  0  0  0  0  0
    3.1414    3.4203   -1.6698 H   0  0  0  0  0  0  0  0  0  0  0  0
    3.3174    2.4470    0.7297 H   0  0  0  0  0  0  0  0  0  0  0  0
    2.6846    3.9509    1.3119 H   0  0  0  0  0  0  0  0  0  0  0  0
    1.0947    5.6368    0.4204 H   0  0  0  0  0  0  0  0  0  0  0  0
   -1.0872    6.7641    0.5047 H   0  0  0  0  0  0  0  0  0  0  0  0
   -4.8986    4.0870    0.9268 H   0  0  0  0  0  0  0  0  0  0  0  0
   -6.8406    5.8065    0.8007 H   0  0  0  0  0  0  0  0  0  0  0  0
   -6.0315    8.1878    0.2656 H   0  0  0  0  0  0  0  0  0  0  0  0
   -3.1013    3.0352    0.3003 H   0  0  0  0  0  0  0  0  0  0  0  0
    3.9276    1.6633   -1.0299 H   0  0  0  0  0  0  0  0  0  0  0  0
    6.1074    0.5918   -1.1897 H   0  0  0  0  0  0  0  0  0  0  0  0
    8.0338   -0.3637   -1.1720 H   0  0  0  0  0  0  0  0  0  0  0  0
   10.0277   -2.0272   -1.2141 H   0  0  0  0  0  0  0  0  0  0  0  0
    9.3350   -4.4308   -0.6214 H   0  0  0  0  0  0  0  0  0  0  0  0
    4.4432   -3.1090    0.1191 H   0  0  0  0  0  0  0  0  0  0  0  0
    0.7392   -3.3998    1.4011 H   0  0  0  0  0  0  0  0  0  0  0  0
    2.4528   -3.4427    1.6609 H   0  0  0  0  0  0  0  0  0  0  0  0
    1.1927   -4.2546   -1.0099 H   0  0  0  0  0  0  0  0  0  0  0  0
    2.8594   -4.4137   -0.5868 H   0  0  0  0  0  0  0  0  0  0  0  0
    2.2670   -6.0244    1.2524 H   0  0  0  0  0  0  0  0  0  0  0  0
    0.5795   -5.8669    0.8525 H   0  0  0  0  0  0  0  0  0  0  0  0
    1.5358   -7.9265   -0.2157 H   0  0  0  0  0  0  0  0  0  0  0  0
    1.0316   -6.7842   -1.4591 H   0  0  0  0  0  0  0  0  0  0  0  0
    2.7346   -6.9455   -1.0563 H   0  0  0  0  0  0  0  0  0  0  0  0
   -0.5634   -3.8591   -0.0747 H   0  0  0  0  0  0  0  0  0  0  0  0
   -2.5537   -5.2212    0.3155 H   0  0  0  0  0  0  0  0  0  0  0  0
   -6.4734   -3.0159    1.7146 H   0  0  0  0  0  0  0  0  0  0  0  0
   -8.1874   -4.9583    1.8895 H   0  0  0  0  0  0  0  0  0  0  0  0
   -7.1783   -7.2393    1.2670 H   0  0  0  0  0  0  0  0  0  0  0  0
   -4.7936   -1.7438    1.3560 H   0  0  0  0  0  0  0  0  0  0  0  0
   -4.1273    0.4311    2.1835 H   0  0  0  0  0  0  0  0  0  0  0  0
   -3.2280    1.7853    1.6076 H   0  0  0  0  0  0  0  0  0  0  0  0
   -5.3985    0.1549    0.1929 H   0  0  0  0  0  0  0  0  0  0  0  0
   -5.3118    1.8837    0.3220 H   0  0  0  0  0  0  0  0  0  0  0  0
   -3.3375    1.8384   -1.3111 H   0  0  0  0  0  0  0  0  0  0  0  0
   -3.4963    0.1134   -1.4016 H   0  0  0  0  0  0  0  0  0  0  0  0
   -5.6818    2.1171   -2.2133 H   0  0  0  0  0  0  0  0  0  0  0  0
   -5.8410    0.3693   -2.3130 H   0  0  0  0  0  0  0  0  0  0  0  0
   -4.6708    1.2048   -3.3318 H   0  0  0  0  0  0  0  0  0  0  0  0
  1  2  1  0  0  0  0
  2  3  1  0  0  0  0
  3  4  1  0  0  0  0
  4  5  1  0  0  0  0
  5  6  1  0  0  0  0
  6  7  2  0  0  0  0
  7  8  1  0  0  0  0
  8  9  2  0  0  0  0
  9 10  1  0  0  0  0
 10 11  2  0  0  0  0
 11 12  1  0  0  0  0
 12 13  2  0  0  0  0
 13 14  1  0  0  0  0
  9 15  1  0  0  0  0
 15 16  2  0  0  0  0
 16 17  1  0  0  0  0
 17 18  2  0  0  0  0
 18 19  1  0  0  0  0
 19 20  1  0  0  0  0
 20 21  2  0  0  0  0
 21 22  1  0  0  0  0
 22 23  2  0  0  0  0
 23 24  1  0  0  0  0
 24 25  2  0  0  0  0
 25 26  1  0  0  0  0
 26 27  2  0  0  0  0
 27 28  1  0  0  0  0
 23 29  1  0  0  0  0
 29 30  2  0  0  0  0
 30 31  1  0  0  0  0
 31 32  1  0  0  0  0
 32 33  1  0  0  0  0
 33 34  1  0  0  0  0
 34 35  1  0  0  0  0
 31 36  1  0  0  0  0
 36 37  1  0  0  0  0
 37 38  1  0  0  0  0
 38 39  2  0  0  0  0
 39 40  1  0  0  0  0
 40 41  2  0  0  0  0
 41 42  1  0  0  0  0
 42 43  2  0  0  0  0
 43 44  1  0  0  0  0
 44 45  2  0  0  0  0
 45 46  1  0  0  0  0
 41 47  1  0  0  0  0
 47 48  2  0  0  0  0
 48 49  1  0  0  0  0
 49 50  1  0  0  0  0
 50 51  1  0  0  0  0
 51 52  1  0  0  0  0
 52 53  1  0  0  0  0
 49 54  1  0  0  0  0
 18  5  1  0  0  0  0
 36 19  2  0  0  0  0
 54 37  2  0  0  0  0
 16  6  1  0  0  0  0
 54 17  1  0  0  0  0
 14 10  1  0  0  0  0
 30 20  1  0  0  0  0
 48 38  1  0  0  0  0
 28 24  1  0  0  0  0
 46 42  1  0  0  0  0
  1 55  1  0  0  0  0
  1 56  1  0  0  0  0
  1 57  1  0  0  0  0
  2 58  1  0  0  0  0
  2 59  1  0  0  0  0
  3 60  1  0  0  0  0
  3 61  1  0  0  0  0
  4 62  1  0  0  0  0
  4 63  1  0  0  0  0
  7 64  1  0  0  0  0
  8 65  1  0  0  0  0
 11 66  1  0  0  0  0
 12 67  1  0  0  0  0
 13 68  1  0  0  0  0
 15 69  1  0  0  0  0
 21 70  1  0  0  0  0
 22 71  1  0  0  0  0
 25 72  1  0  0  0  0
 26 73  1  0  0  0  0
 27 74  1  0  0  0  0
 29 75  1  0  0  0  0
 32 76  1  0  0  0  0
 32 77  1  0  0  0  0
 33 78  1  0  0  0  0
 33 79  1  0  0  0  0
 34 80  1  0  0  0  0
 34 81  1  0  0  0  0
 35 82  1  0  0  0  0
 35 83  1  0  0  0  0
 35 84  1  0  0  0  0
 39 85  1  0  0  0  0
 40 86  1  0  0  0  0
 43 87  1  0  0  0  0
 44 88  1  0  0  0  0
 45 89  1  0  0  0  0
 47 90  1  0  0  0  0
 50 91  1  0  0  0  0
 50 92  1  0  0  0  0
 51 93  1  0  0  0  0
 51 94  1  0  0  0  0
 52 95  1  0  0  0  0
 52 96  1  0  0  0  0
 53 97  1  0  0  0  0
 53 98  1  0  0  0  0
 53 99  1  0  0  0  0
M  END
