
  xtb     03012221283D
 energy: -3.314474475268 gnorm: 0.000300570222 xtb: 6.4.1 (afa7bdf)
 18 18  0     0  0            999 V2000
   -2.3152   -1.2622   -0.0162 C   0  0  0  0  0  0  0  0  0  0  0  0
   -1.1560   -0.3457   -0.0026 C   0  0  0  0  0  0  0  0  0  0  0  0
    0.1202   -0.7878   -0.0252 C   0  0  0  0  0  0  0  0  0  0  0  0
    1.1894    0.0748   -0.0091 N   0  0  0  0  0  0  0  0  0  0  0  0
    2.5473   -0.4890   -0.0334 C   0  0  0  0  0  0  0  0  0  0  0  0
    3.1995   -0.1078    1.0742 F   0  0  0  0  0  0  0  0  0  0  0  0
    2.4552   -1.8245   -0.0674 F   0  0  0  0  0  0  0  0  0  0  0  0
    3.1830   -0.0510   -1.1297 F   0  0  0  0  0  0  0  0  0  0  0  0
    1.0142    1.4571    0.0326 C   0  0  0  0  0  0  0  0  0  0  0  0
    1.9415    2.2412    0.0513 O   0  0  0  0  0  0  0  0  0  0  0  0
   -0.2880    1.9091    0.0534 N   0  0  0  0  0  0  0  0  0  0  0  0
   -1.3923    1.0810    0.0398 C   0  0  0  0  0  0  0  0  0  0  0  0
   -2.5287    1.5240    0.0624 O   0  0  0  0  0  0  0  0  0  0  0  0
   -2.3064   -1.8898   -0.9080 H   0  0  0  0  0  0  0  0  0  0  0  0
   -2.3137   -1.9055    0.8644 H   0  0  0  0  0  0  0  0  0  0  0  0
   -3.2436   -0.6867   -0.0145 H   0  0  0  0  0  0  0  0  0  0  0  0
    0.3374   -1.8424   -0.0556 H   0  0  0  0  0  0  0  0  0  0  0  0
   -0.4438    2.9051    0.0836 H   0  0  0  0  0  0  0  0  0  0  0  0
  1  2  1  0  0  0  0
  2  3  2  0  0  0  0
  3  4  1  0  0  0  0
  4  5  1  0  0  0  0
  5  6  1  0  0  0  0
  5  7  1  0  0  0  0
  5  8  1  0  0  0  0
  4  9  1  0  0  0  0
  9 10  2  0  0  0  0
  9 11  1  0  0  0  0
 11 12  1  0  0  0  0
 12 13  2  0  0  0  0
 12  2  1  0  0  0  0
  1 14  1  0  0  0  0
  1 15  1  0  0  0  0
  1 16  1  0  0  0  0
  3 17  1  0  0  0  0
 11 18  1  0  0  0  0
M  END
