
  xtb     03012221283D
 energy: -6.598822175243 gnorm: 0.000384459848 xtb: 6.4.1 (afa7bdf)
 32 34  0     0  0            999 V2000
   -7.8604   -0.1380   -0.4870 O   0  0  0  0  0  0  0  0  0  0  0  0
   -7.0315    0.4009    0.2565 N   0  0  0  0  0  4  0  0  0  0  0  0
   -7.3459    1.1561    1.1846 O   0  0  0  0  0  1  0  0  0  0  0  0
   -5.6147    0.1345    0.0284 C   0  0  0  0  0  0  0  0  0  0  0  0
   -5.2252   -0.7163   -1.0065 C   0  0  0  0  0  0  0  0  0  0  0  0
   -3.9026   -0.9797   -1.2414 C   0  0  0  0  0  0  0  0  0  0  0  0
   -2.9285   -0.3824   -0.4280 C   0  0  0  0  0  0  0  0  0  0  0  0
   -1.5675   -0.5600   -0.5491 N   0  0  0  0  0  0  0  0  0  0  0  0
   -0.9068    0.1190    0.3410 C   0  0  0  0  0  0  0  0  0  0  0  0
    0.4501    0.1134    0.4264 N   0  0  0  0  0  0  0  0  0  0  0  0
    1.1072   -0.5793   -0.3611 N   0  0  0  0  0  0  0  0  0  0  0  0
    2.4873   -0.5877   -0.2869 C   0  0  0  0  0  0  0  0  0  0  0  0
    3.2477   -1.3839   -1.1362 C   0  0  0  0  0  0  0  0  0  0  0  0
    4.6202   -1.3820   -1.0422 C   0  0  0  0  0  0  0  0  0  0  0  0
    5.2521   -0.5887   -0.1057 C   0  0  0  0  0  0  0  0  0  0  0  0
    4.5119    0.2183    0.7443 C   0  0  0  0  0  0  0  0  0  0  0  0
    5.1682    1.0646    1.7897 C   0  0  0  0  0  0  0  0  0  0  0  0
    4.3809    2.1685    2.1797 O   0  0  0  0  0  0  0  0  0  0  0  0
    3.1374    0.2060    0.6482 C   0  0  0  0  0  0  0  0  0  0  0  0
   -1.9246    1.0564    1.4343 S   0  0  0  0  0  0  0  0  0  0  0  0
   -3.3306    0.4714    0.6073 C   0  0  0  0  0  0  0  0  0  0  0  0
   -4.6712    0.7274    0.8346 C   0  0  0  0  0  0  0  0  0  0  0  0
   -5.9932   -1.1616   -1.6173 H   0  0  0  0  0  0  0  0  0  0  0  0
   -3.5934   -1.6349   -2.0360 H   0  0  0  0  0  0  0  0  0  0  0  0
    2.7431   -1.9990   -1.8602 H   0  0  0  0  0  0  0  0  0  0  0  0
    5.2039   -2.0045   -1.7004 H   0  0  0  0  0  0  0  0  0  0  0  0
    6.3253   -0.5927   -0.0271 H   0  0  0  0  0  0  0  0  0  0  0  0
    5.3467    0.4692    2.6923 H   0  0  0  0  0  0  0  0  0  0  0  0
    6.1438    1.4290    1.4461 H   0  0  0  0  0  0  0  0  0  0  0  0
    4.1958    2.7477    1.4081 H   0  0  0  0  0  0  0  0  0  0  0  0
    2.5541    0.8267    1.3035 H   0  0  0  0  0  0  0  0  0  0  0  0
   -4.9796    1.3816    1.6307 H   0  0  0  0  0  0  0  0  0  0  0  0
  1  2  2  0  0  0  0
  2  3  1  0  0  0  0
  2  4  1  0  0  0  0
  4  5  2  0  0  0  0
  5  6  1  0  0  0  0
  6  7  2  0  0  0  0
  7  8  1  0  0  0  0
  8  9  2  0  0  0  0
  9 10  1  0  0  0  0
 10 11  2  0  0  0  0
 11 12  1  0  0  0  0
 12 13  2  0  0  0  0
 13 14  1  0  0  0  0
 14 15  2  0  0  0  0
 15 16  1  0  0  0  0
 16 17  1  0  0  0  0
 17 18  1  0  0  0  0
 16 19  2  0  0  0  0
  9 20  1  0  0  0  0
 20 21  1  0  0  0  0
 21 22  2  0  0  0  0
 22  4  1  0  0  0  0
 21  7  1  0  0  0  0
 19 12  1  0  0  0  0
  5 23  1  0  0  0  0
  6 24  1  0  0  0  0
 13 25  1  0  0  0  0
 14 26  1  0  0  0  0
 15 27  1  0  0  0  0
 17 28  1  0  0  0  0
 17 29  1  0  0  0  0
 18 30  1  0  0  0  0
 19 31  1  0  0  0  0
 22 32  1  0  0  0  0
M  CHG  1   2   1
M  CHG  1   3  -1
M  END
