
  xtb     03012221283D
 energy: -7.791292721017 gnorm: 0.000340955178 xtb: 6.4.1 (afa7bdf)
 42 46  0     0  0            999 V2000
    6.3931   -0.3660   -1.0497 N   0  0  0  0  0  0  0  0  0  0  0  0
    5.1814   -0.2844   -0.3959 C   0  0  0  0  0  0  0  0  0  0  0  0
    5.1311   -0.2352    1.0116 C   0  0  0  0  0  0  0  0  0  0  0  0
    3.9359   -0.1574    1.6859 C   0  0  0  0  0  0  0  0  0  0  0  0
    2.7596   -0.1270    0.9517 C   0  0  0  0  0  0  0  0  0  0  0  0
    2.7911   -0.1724   -0.4425 C   0  0  0  0  0  0  0  0  0  0  0  0
    3.9852   -0.2501   -1.1229 C   0  0  0  0  0  0  0  0  0  0  0  0
    1.4087   -0.1196   -0.9358 C   0  0  0  0  0  0  0  0  0  0  0  0
    1.0405   -0.1213   -2.0933 O   0  0  0  0  0  0  0  0  0  0  0  0
    0.5984   -0.0608    0.2039 N   0  0  0  0  0  0  0  0  0  0  0  0
   -0.8786    0.0309    0.1083 C   0  0  0  0  0  0  0  0  0  0  0  0
   -1.5467    0.0063    1.5069 C   0  0  0  0  0  0  0  0  0  0  0  0
   -3.0851    0.1078    1.3655 C   0  0  0  0  0  0  0  0  0  0  0  0
   -3.4492    1.4326    0.6476 C   0  0  0  0  0  0  0  0  0  0  0  0
   -2.7937    1.4570   -0.7571 C   0  0  0  0  0  0  0  0  0  0  0  0
   -1.2558    1.3529   -0.6086 C   0  0  0  0  0  0  0  0  0  0  0  0
   -3.3118    0.2574   -1.5910 C   0  0  0  0  0  0  0  0  0  0  0  0
   -2.9494   -1.0675   -0.8724 C   0  0  0  0  0  0  0  0  0  0  0  0
   -1.4113   -1.1660   -0.7227 C   0  0  0  0  0  0  0  0  0  0  0  0
   -3.6051   -1.0913    0.5320 C   0  0  0  0  0  0  0  0  0  0  0  0
    1.3622   -0.0489    1.3825 C   0  0  0  0  0  0  0  0  0  0  0  0
    0.9671    0.0144    2.5308 O   0  0  0  0  0  0  0  0  0  0  0  0
    7.2816   -0.4304   -0.5722 H   0  0  0  0  0  0  0  0  0  0  0  0
    6.4793   -0.4410   -2.0539 H   0  0  0  0  0  0  0  0  0  0  0  0
    6.0570   -0.2605    1.5587 H   0  0  0  0  0  0  0  0  0  0  0  0
    3.8921   -0.1203    2.7597 H   0  0  0  0  0  0  0  0  0  0  0  0
    3.9929   -0.2826   -2.1956 H   0  0  0  0  0  0  0  0  0  0  0  0
   -1.2571   -0.9118    2.0264 H   0  0  0  0  0  0  0  0  0  0  0  0
   -1.1498    0.8299    2.1079 H   0  0  0  0  0  0  0  0  0  0  0  0
   -3.5486    0.0905    2.3684 H   0  0  0  0  0  0  0  0  0  0  0  0
   -3.1069    2.2887    1.2389 H   0  0  0  0  0  0  0  0  0  0  0  0
   -4.5367    1.5278    0.5589 H   0  0  0  0  0  0  0  0  0  0  0  0
   -3.0508    2.4019   -1.2690 H   0  0  0  0  0  0  0  0  0  0  0  0
   -0.8589    2.1978   -0.0387 H   0  0  0  0  0  0  0  0  0  0  0  0
   -0.7648    1.3779   -1.5863 H   0  0  0  0  0  0  0  0  0  0  0  0
   -4.3963    0.3304   -1.7258 H   0  0  0  0  0  0  0  0  0  0  0  0
   -2.8690    0.2758   -2.5927 H   0  0  0  0  0  0  0  0  0  0  0  0
   -3.3168   -1.9232   -1.4670 H   0  0  0  0  0  0  0  0  0  0  0  0
   -0.9219   -1.1639   -1.7015 H   0  0  0  0  0  0  0  0  0  0  0  0
   -1.1242   -2.1009   -0.2332 H   0  0  0  0  0  0  0  0  0  0  0  0
   -4.6955   -1.0445    0.4414 H   0  0  0  0  0  0  0  0  0  0  0  0
   -3.3731   -2.0331    1.0408 H   0  0  0  0  0  0  0  0  0  0  0  0
  1  2  1  0  0  0  0
  2  3  1  0  0  0  0
  3  4  2  0  0  0  0
  4  5  1  0  0  0  0
  5  6  2  0  0  0  0
  6  7  1  0  0  0  0
  6  8  1  0  0  0  0
  8  9  2  0  0  0  0
  8 10  1  0  0  0  0
 10 11  1  0  0  0  0
 11 12  1  0  0  0  0
 12 13  1  0  0  0  0
 13 14  1  0  0  0  0
 14 15  1  0  0  0  0
 15 16  1  0  0  0  0
 15 17  1  0  0  0  0
 17 18  1  0  0  0  0
 18 19  1  0  0  0  0
 18 20  1  0  0  0  0
 10 21  1  0  0  0  0
 21 22  2  0  0  0  0
  7  2  2  0  0  0  0
 16 11  1  0  0  0  0
 21  5  1  0  0  0  0
 19 11  1  0  0  0  0
 20 13  1  0  0  0  0
  1 23  1  0  0  0  0
  1 24  1  0  0  0  0
  3 25  1  0  0  0  0
  4 26  1  0  0  0  0
  7 27  1  0  0  0  0
 12 28  1  0  0  0  0
 12 29  1  0  0  0  0
 13 30  1  0  0  0  0
 14 31  1  0  0  0  0
 14 32  1  0  0  0  0
 15 33  1  0  0  0  0
 16 34  1  0  0  0  0
 16 35  1  0  0  0  0
 17 36  1  0  0  0  0
 17 37  1  0  0  0  0
 18 38  1  0  0  0  0
 19 39  1  0  0  0  0
 19 40  1  0  0  0  0
 20 41  1  0  0  0  0
 20 42  1  0  0  0  0
M  END
