
  xtb     03012221333D
 energy: -8.877250663414 gnorm: 0.000212209089 xtb: 6.4.1 (afa7bdf)
 43 47  0     0  0            999 V2000
   -0.0805   -4.9380    1.0552 F   0  0  0  0  0  0  0  0  0  0  0  0
   -0.0259   -3.5627    1.2074 B   0  0  0  0  0  4  0  0  0  0  0  0
    0.0868   -3.2268    2.5506 F   0  0  0  0  0  0  0  0  0  0  0  0
   -1.2521   -2.9434    0.6939 O   0  0  0  0  0  0  0  0  0  0  0  0
   -1.2251   -1.6035    0.4938 C   0  0  0  0  0  0  0  0  0  0  0  0
   -2.5029   -0.9174    0.4330 C   0  0  0  0  0  0  0  0  0  0  0  0
   -3.6728   -1.6837    0.6196 C   0  0  0  0  0  0  0  0  0  0  0  0
   -4.9079   -1.1171    0.5809 C   0  0  0  0  0  0  0  0  0  0  0  0
   -5.0541    0.2701    0.3500 C   0  0  0  0  0  0  0  0  0  0  0  0
   -6.3147    0.8937    0.3044 C   0  0  0  0  0  0  0  0  0  0  0  0
   -6.4228    2.2368    0.0804 C   0  0  0  0  0  0  0  0  0  0  0  0
   -5.2795    3.0127   -0.1074 C   0  0  0  0  0  0  0  0  0  0  0  0
   -4.0392    2.4453   -0.0704 C   0  0  0  0  0  0  0  0  0  0  0  0
   -3.8906    1.0598    0.1592 C   0  0  0  0  0  0  0  0  0  0  0  0
   -2.6295    0.4444    0.2051 C   0  0  0  0  0  0  0  0  0  0  0  0
   -0.0103   -0.9515    0.3417 C   0  0  0  0  0  0  0  0  0  0  0  0
    1.1709   -1.6782    0.3125 C   0  0  0  0  0  0  0  0  0  0  0  0
    2.4649   -1.0722    0.0567 C   0  0  0  0  0  0  0  0  0  0  0  0
    3.6001   -1.9101    0.0685 C   0  0  0  0  0  0  0  0  0  0  0  0
    4.8481   -1.4200   -0.1554 C   0  0  0  0  0  0  0  0  0  0  0  0
    5.0435   -0.0428   -0.4090 C   0  0  0  0  0  0  0  0  0  0  0  0
    6.3194    0.5031   -0.6418 C   0  0  0  0  0  0  0  0  0  0  0  0
    6.4753    1.8386   -0.8824 C   0  0  0  0  0  0  0  0  0  0  0  0
    5.3666    2.6840   -0.9014 C   0  0  0  0  0  0  0  0  0  0  0  0
    4.1129    2.1931   -0.6802 C   0  0  0  0  0  0  0  0  0  0  0  0
    3.9153    0.8178   -0.4273 C   0  0  0  0  0  0  0  0  0  0  0  0
    2.6397    0.2806   -0.1921 C   0  0  0  0  0  0  0  0  0  0  0  0
    1.1442   -3.0183    0.5112 O   0  0  0  0  0  3  0  0  0  0  0  0
   -3.5571   -2.7394    0.7985 H   0  0  0  0  0  0  0  0  0  0  0  0
   -5.7875   -1.7188    0.7275 H   0  0  0  0  0  0  0  0  0  0  0  0
   -7.1978    0.2934    0.4500 H   0  0  0  0  0  0  0  0  0  0  0  0
   -7.3938    2.7006    0.0486 H   0  0  0  0  0  0  0  0  0  0  0  0
   -5.3786    4.0728   -0.2832 H   0  0  0  0  0  0  0  0  0  0  0  0
   -3.1598    3.0483   -0.2153 H   0  0  0  0  0  0  0  0  0  0  0  0
   -1.7578    1.0526    0.0586 H   0  0  0  0  0  0  0  0  0  0  0  0
    0.0116    0.1087    0.1971 H   0  0  0  0  0  0  0  0  0  0  0  0
    3.4476   -2.9578    0.2657 H   0  0  0  0  0  0  0  0  0  0  0  0
    5.7011   -2.0753   -0.1400 H   0  0  0  0  0  0  0  0  0  0  0  0
    7.1759   -0.1509   -0.6263 H   0  0  0  0  0  0  0  0  0  0  0  0
    7.4577    2.2425   -1.0578 H   0  0  0  0  0  0  0  0  0  0  0  0
    5.5034    3.7372   -1.0926 H   0  0  0  0  0  0  0  0  0  0  0  0
    3.2604    2.8495   -0.6951 H   0  0  0  0  0  0  0  0  0  0  0  0
    1.7951    0.9422   -0.2086 H   0  0  0  0  0  0  0  0  0  0  0  0
  1  2  1  0  0  0  0
  2  3  1  0  0  0  0
  2  4  1  0  0  0  0
  4  5  1  0  0  0  0
  5  6  1  0  0  0  0
  6  7  2  0  0  0  0
  7  8  1  0  0  0  0
  8  9  2  0  0  0  0
  9 10  1  0  0  0  0
 10 11  2  0  0  0  0
 11 12  1  0  0  0  0
 12 13  2  0  0  0  0
 13 14  1  0  0  0  0
 14 15  2  0  0  0  0
  5 16  2  0  0  0  0
 16 17  1  0  0  0  0
 17 18  1  0  0  0  0
 18 19  2  0  0  0  0
 19 20  1  0  0  0  0
 20 21  2  0  0  0  0
 21 22  1  0  0  0  0
 22 23  2  0  0  0  0
 23 24  1  0  0  0  0
 24 25  2  0  0  0  0
 25 26  1  0  0  0  0
 26 27  2  0  0  0  0
 17 28  2  0  0  0  0
 28  2  1  0  0  0  0
 15  6  1  0  0  0  0
 27 18  1  0  0  0  0
 14  9  1  0  0  0  0
 26 21  1  0  0  0  0
  7 29  1  0  0  0  0
  8 30  1  0  0  0  0
 10 31  1  0  0  0  0
 11 32  1  0  0  0  0
 12 33  1  0  0  0  0
 13 34  1  0  0  0  0
 15 35  1  0  0  0  0
 16 36  1  0  0  0  0
 19 37  1  0  0  0  0
 20 38  1  0  0  0  0
 22 39  1  0  0  0  0
 23 40  1  0  0  0  0
 24 41  1  0  0  0  0
 25 42  1  0  0  0  0
 27 43  1  0  0  0  0
M  CHG  1   2  -1
M  CHG  1  28   1
M  END
