
  xtb     03012221303D
 energy: -6.549381159628 gnorm: 0.000266447117 xtb: 6.4.1 (afa7bdf)
 30 33  0     0  0            999 V2000
   -0.5215   -1.2368    2.5388 O   0  0  0  0  0  0  0  0  0  0  0  0
   -1.2104   -0.8301    1.6153 C   0  0  0  0  0  0  0  0  0  0  0  0
   -2.5866   -0.9235    1.6372 O   0  0  0  0  0  0  0  0  0  0  0  0
   -3.3221   -0.4479    0.5660 C   0  0  0  0  0  0  0  0  0  0  0  0
   -4.7167   -0.5480    0.5994 C   0  0  0  0  0  0  0  0  0  0  0  0
   -5.4791   -0.0892   -0.4406 C   0  0  0  0  0  0  0  0  0  0  0  0
   -4.8746    0.4861   -1.5511 C   0  0  0  0  0  0  0  0  0  0  0  0
   -3.5108    0.5976   -1.6117 C   0  0  0  0  0  0  0  0  0  0  0  0
   -2.7123    0.1350   -0.5596 C   0  0  0  0  0  0  0  0  0  0  0  0
   -1.2978    0.2293   -0.5786 C   0  0  0  0  0  0  0  0  0  0  0  0
   -0.5524   -0.2250    0.4500 C   0  0  0  0  0  0  0  0  0  0  0  0
    0.8978   -0.1007    0.3737 C   0  0  0  0  0  0  0  0  0  0  0  0
    1.7985   -0.5128    1.3344 C   0  0  0  0  0  0  0  0  0  0  0  0
    3.0786   -0.2030    0.8548 C   0  0  0  0  0  0  0  0  0  0  0  0
    4.3672   -0.3842    1.3879 C   0  0  0  0  0  0  0  0  0  0  0  0
    5.4412    0.0352    0.6569 C   0  0  0  0  0  0  0  0  0  0  0  0
    5.2698    0.6354   -0.6011 C   0  0  0  0  0  0  0  0  0  0  0  0
    4.0263    0.8203   -1.1362 C   0  0  0  0  0  0  0  0  0  0  0  0
    2.9012    0.4007   -0.4111 C   0  0  0  0  0  0  0  0  0  0  0  0
    1.5574    0.4603   -0.7006 O   0  0  0  0  0  0  0  0  0  0  0  0
   -5.1718   -0.9956    1.4653 H   0  0  0  0  0  0  0  0  0  0  0  0
   -6.5522   -0.1740   -0.3988 H   0  0  0  0  0  0  0  0  0  0  0  0
   -5.4814    0.8451   -2.3659 H   0  0  0  0  0  0  0  0  0  0  0  0
   -3.0389    1.0427   -2.4703 H   0  0  0  0  0  0  0  0  0  0  0  0
   -0.8043    0.6702   -1.4259 H   0  0  0  0  0  0  0  0  0  0  0  0
    1.5466   -0.9813    2.2688 H   0  0  0  0  0  0  0  0  0  0  0  0
    4.4866   -0.8451    2.3523 H   0  0  0  0  0  0  0  0  0  0  0  0
    6.4360   -0.0952    1.0489 H   0  0  0  0  0  0  0  0  0  0  0  0
    6.1375    0.9557   -1.1535 H   0  0  0  0  0  0  0  0  0  0  0  0
    3.8880    1.2790   -2.0986 H   0  0  0  0  0  0  0  0  0  0  0  0
  1  2  2  0  0  0  0
  2  3  1  0  0  0  0
  3  4  1  0  0  0  0
  4  5  2  0  0  0  0
  5  6  1  0  0  0  0
  6  7  2  0  0  0  0
  7  8  1  0  0  0  0
  8  9  2  0  0  0  0
  9 10  1  0  0  0  0
 10 11  2  0  0  0  0
 11 12  1  0  0  0  0
 12 13  2  0  0  0  0
 13 14  1  0  0  0  0
 14 15  2  0  0  0  0
 15 16  1  0  0  0  0
 16 17  2  0  0  0  0
 17 18  1  0  0  0  0
 18 19  2  0  0  0  0
 19 20  1  0  0  0  0
 11  2  1  0  0  0  0
 20 12  1  0  0  0  0
  9  4  1  0  0  0  0
 19 14  1  0  0  0  0
  5 21  1  0  0  0  0
  6 22  1  0  0  0  0
  7 23  1  0  0  0  0
  8 24  1  0  0  0  0
 10 25  1  0  0  0  0
 13 26  1  0  0  0  0
 15 27  1  0  0  0  0
 16 28  1  0  0  0  0
 17 29  1  0  0  0  0
 18 30  1  0  0  0  0
M  END
