
  xtb     03012221283D
 energy: -14.298574102262 gnorm: 0.000087971905 xtb: 6.4.1 (afa7bdf)
 70 74  0     0  0            999 V2000
   -6.1327   -0.0263    0.3613 C   0  0  0  0  0  0  0  0  0  0  0  0
   -5.0976   -1.3769    0.7372 S   0  0  0  0  0  0  0  0  0  0  0  0
   -3.5477   -0.6699    0.3302 C   0  0  0  0  0  0  0  0  0  0  0  0
   -2.4256   -1.0247    0.9584 C   0  0  0  0  0  0  0  0  0  0  0  0
   -1.1001   -0.4887    0.6786 C   0  0  0  0  0  0  0  0  0  0  0  0
   -0.8176    0.2269   -0.4863 C   0  0  0  0  0  0  0  0  0  0  0  0
    0.4436    0.7193   -0.7239 C   0  0  0  0  0  0  0  0  0  0  0  0
    1.4770    0.5271    0.1945 C   0  0  0  0  0  0  0  0  0  0  0  0
    2.8024    1.0636   -0.0838 C   0  0  0  0  0  0  0  0  0  0  0  0
    3.7803    1.2062    0.8127 C   0  0  0  0  0  0  0  0  0  0  0  0
    5.3616    1.8387    0.3718 S   0  0  0  0  0  0  0  0  0  0  0  0
    6.0581    0.3989   -0.3211 C   0  0  0  0  0  0  0  0  0  0  0  0
    7.3717    0.2694   -0.6056 C   0  0  0  0  0  0  0  0  0  0  0  0
    8.3138    1.3844   -0.3577 C   0  0  0  0  0  0  0  0  0  0  0  0
    9.5626    1.1452    0.2144 C   0  0  0  0  0  0  0  0  0  0  0  0
   10.4335    2.1823    0.4659 C   0  0  0  0  0  0  0  0  0  0  0  0
   10.0756    3.4783    0.1528 C   0  0  0  0  0  0  0  0  0  0  0  0
    8.8447    3.7342   -0.4165 C   0  0  0  0  0  0  0  0  0  0  0  0
    7.9740    2.6994   -0.6714 C   0  0  0  0  0  0  0  0  0  0  0  0
    7.8917   -1.0064   -1.1460 C   0  0  0  0  0  0  0  0  0  0  0  0
    8.9273   -1.0100   -2.0796 C   0  0  0  0  0  0  0  0  0  0  0  0
    9.4211   -2.1936   -2.5826 C   0  0  0  0  0  0  0  0  0  0  0  0
    8.8924   -3.3978   -2.1633 C   0  0  0  0  0  0  0  0  0  0  0  0
    7.8683   -3.4149   -1.2378 C   0  0  0  0  0  0  0  0  0  0  0  0
    7.3718   -2.2330   -0.7331 C   0  0  0  0  0  0  0  0  0  0  0  0
    1.1965   -0.1951    1.3556 C   0  0  0  0  0  0  0  0  0  0  0  0
   -0.0626   -0.6944    1.5895 C   0  0  0  0  0  0  0  0  0  0  0  0
   -7.4764   -0.1217    0.2651 C   0  0  0  0  0  0  0  0  0  0  0  0
   -8.1632   -1.4161    0.4781 C   0  0  0  0  0  0  0  0  0  0  0  0
   -9.1995   -1.8155   -0.3648 C   0  0  0  0  0  0  0  0  0  0  0  0
   -9.8288   -3.0273   -0.1840 C   0  0  0  0  0  0  0  0  0  0  0  0
   -9.4361   -3.8650    0.8404 C   0  0  0  0  0  0  0  0  0  0  0  0
   -8.4145   -3.4851    1.6873 C   0  0  0  0  0  0  0  0  0  0  0  0
   -7.7865   -2.2733    1.5109 C   0  0  0  0  0  0  0  0  0  0  0  0
   -8.2831    1.0739   -0.0671 C   0  0  0  0  0  0  0  0  0  0  0  0
   -9.5418    1.2578    0.5043 C   0  0  0  0  0  0  0  0  0  0  0  0
  -10.2985    2.3692    0.2050 C   0  0  0  0  0  0  0  0  0  0  0  0
   -9.8153    3.3195   -0.6717 C   0  0  0  0  0  0  0  0  0  0  0  0
   -8.5728    3.1539   -1.2501 C   0  0  0  0  0  0  0  0  0  0  0  0
   -7.8132    2.0435   -0.9527 C   0  0  0  0  0  0  0  0  0  0  0  0
   -5.6538    0.9209    0.2117 H   0  0  0  0  0  0  0  0  0  0  0  0
   -3.5365    0.0736   -0.4420 H   0  0  0  0  0  0  0  0  0  0  0  0
   -2.5028   -1.7519    1.7492 H   0  0  0  0  0  0  0  0  0  0  0  0
   -1.5938    0.3813   -1.2146 H   0  0  0  0  0  0  0  0  0  0  0  0
    0.6457    1.2682   -1.6278 H   0  0  0  0  0  0  0  0  0  0  0  0
    3.0001    1.3789   -1.0946 H   0  0  0  0  0  0  0  0  0  0  0  0
    3.6312    0.9431    1.8418 H   0  0  0  0  0  0  0  0  0  0  0  0
    5.3853   -0.4139   -0.5106 H   0  0  0  0  0  0  0  0  0  0  0  0
    9.8351    0.1347    0.4660 H   0  0  0  0  0  0  0  0  0  0  0  0
   11.3948    1.9819    0.9103 H   0  0  0  0  0  0  0  0  0  0  0  0
   10.7573    4.2893    0.3514 H   0  0  0  0  0  0  0  0  0  0  0  0
    8.5660    4.7455   -0.6644 H   0  0  0  0  0  0  0  0  0  0  0  0
    7.0221    2.8987   -1.1318 H   0  0  0  0  0  0  0  0  0  0  0  0
    9.3360   -0.0698   -2.4077 H   0  0  0  0  0  0  0  0  0  0  0  0
   10.2213   -2.1793   -3.3044 H   0  0  0  0  0  0  0  0  0  0  0  0
    9.2798   -4.3235   -2.5567 H   0  0  0  0  0  0  0  0  0  0  0  0
    7.4587   -4.3554   -0.9068 H   0  0  0  0  0  0  0  0  0  0  0  0
    6.5870   -2.2507    0.0032 H   0  0  0  0  0  0  0  0  0  0  0  0
    1.9811   -0.3764    2.0687 H   0  0  0  0  0  0  0  0  0  0  0  0
   -0.2626   -1.2498    2.4898 H   0  0  0  0  0  0  0  0  0  0  0  0
   -9.4976   -1.1639   -1.1682 H   0  0  0  0  0  0  0  0  0  0  0  0
  -10.6271   -3.3229   -0.8450 H   0  0  0  0  0  0  0  0  0  0  0  0
   -9.9276   -4.8141    0.9796 H   0  0  0  0  0  0  0  0  0  0  0  0
   -8.1098   -4.1376    2.4894 H   0  0  0  0  0  0  0  0  0  0  0  0
   -7.0032   -1.9710    2.1837 H   0  0  0  0  0  0  0  0  0  0  0  0
   -9.9145    0.5184    1.1921 H   0  0  0  0  0  0  0  0  0  0  0  0
  -11.2685    2.4975    0.6569 H   0  0  0  0  0  0  0  0  0  0  0  0
  -10.4077    4.1892   -0.9051 H   0  0  0  0  0  0  0  0  0  0  0  0
   -8.1972    3.8941   -1.9377 H   0  0  0  0  0  0  0  0  0  0  0  0
   -6.8528    1.9088   -1.4193 H   0  0  0  0  0  0  0  0  0  0  0  0
  1  2  1  0  0  0  0
  2  3  1  0  0  0  0
  3  4  2  0  0  0  0
  4  5  1  0  0  0  0
  5  6  2  0  0  0  0
  6  7  1  0  0  0  0
  7  8  2  0  0  0  0
  8  9  1  0  0  0  0
  9 10  2  0  0  0  0
 10 11  1  0  0  0  0
 11 12  1  0  0  0  0
 12 13  2  0  0  0  0
 13 14  1  0  0  0  0
 14 15  2  0  0  0  0
 15 16  1  0  0  0  0
 16 17  2  0  0  0  0
 17 18  1  0  0  0  0
 18 19  2  0  0  0  0
 13 20  1  0  0  0  0
 20 21  2  0  0  0  0
 21 22  1  0  0  0  0
 22 23  2  0  0  0  0
 23 24  1  0  0  0  0
 24 25  2  0  0  0  0
  8 26  1  0  0  0  0
 26 27  2  0  0  0  0
  1 28  2  0  0  0  0
 28 29  1  0  0  0  0
 29 30  2  0  0  0  0
 30 31  1  0  0  0  0
 31 32  2  0  0  0  0
 32 33  1  0  0  0  0
 33 34  2  0  0  0  0
 28 35  1  0  0  0  0
 35 36  2  0  0  0  0
 36 37  1  0  0  0  0
 37 38  2  0  0  0  0
 38 39  1  0  0  0  0
 39 40  2  0  0  0  0
 27  5  1  0  0  0  0
 34 29  1  0  0  0  0
 40 35  1  0  0  0  0
 19 14  1  0  0  0  0
 25 20  1  0  0  0  0
  1 41  1  0  0  0  0
  3 42  1  0  0  0  0
  4 43  1  0  0  0  0
  6 44  1  0  0  0  0
  7 45  1  0  0  0  0
  9 46  1  0  0  0  0
 10 47  1  0  0  0  0
 12 48  1  0  0  0  0
 15 49  1  0  0  0  0
 16 50  1  0  0  0  0
 17 51  1  0  0  0  0
 18 52  1  0  0  0  0
 19 53  1  0  0  0  0
 21 54  1  0  0  0  0
 22 55  1  0  0  0  0
 23 56  1  0  0  0  0
 24 57  1  0  0  0  0
 25 58  1  0  0  0  0
 26 59  1  0  0  0  0
 27 60  1  0  0  0  0
 30 61  1  0  0  0  0
 31 62  1  0  0  0  0
 32 63  1  0  0  0  0
 33 64  1  0  0  0  0
 34 65  1  0  0  0  0
 36 66  1  0  0  0  0
 37 67  1  0  0  0  0
 38 68  1  0  0  0  0
 39 69  1  0  0  0  0
 40 70  1  0  0  0  0
M  END
