
  xtb     03012221233D
 energy: -10.883380999876 gnorm: 0.000348127384 xtb: 6.4.1 (afa7bdf)
 56 59  0     0  0            999 V2000
   -3.1775   -2.9075    2.6816 C   0  0  0  0  0  0  0  0  0  0  0  0
   -2.8176   -3.0466    1.2100 C   0  0  0  0  0  0  0  0  0  0  0  0
   -3.2181   -1.8301    0.3730 C   0  0  0  0  0  0  0  0  0  0  0  0
   -2.5223   -0.5520    0.8174 C   0  0  0  0  0  0  0  0  0  0  0  0
   -2.7779    0.6024   -0.0696 N   0  0  0  0  0  0  0  0  0  0  0  0
   -1.7440    1.1289   -0.8443 C   0  0  0  0  0  0  0  0  0  0  0  0
   -0.3720    0.9789   -0.5496 C   0  0  0  0  0  0  0  0  0  0  0  0
    0.2240    0.7713    0.7011 C   0  0  0  0  0  0  0  0  0  0  0  0
    1.5595    0.5491    1.1101 C   0  0  0  0  0  0  0  0  0  0  0  0
    2.8575    0.3511    0.5150 C   0  0  0  0  0  0  0  0  0  0  0  0
    3.0542    0.2887   -0.8691 C   0  0  0  0  0  0  0  0  0  0  0  0
    4.3056    0.0908   -1.3895 C   0  0  0  0  0  0  0  0  0  0  0  0
    5.4231   -0.0562   -0.5578 C   0  0  0  0  0  0  0  0  0  0  0  0
    6.7045   -0.2616   -1.0952 N   0  0  0  0  0  0  0  0  0  0  0  0
    7.8840   -0.3647   -0.2390 C   0  0  0  0  0  0  0  0  0  0  0  0
    6.9185   -0.3894   -2.5348 C   0  0  0  0  0  0  0  0  0  0  0  0
    5.2217    0.0036    0.8266 C   0  0  0  0  0  0  0  0  0  0  0  0
    3.9717    0.2000    1.3478 C   0  0  0  0  0  0  0  0  0  0  0  0
    1.1897    0.5580    2.5058 C   0  0  0  0  0  0  0  0  0  0  0  0
    1.8041    0.4086    3.5477 O   0  0  0  0  0  0  0  0  0  0  0  0
   -0.2169    0.8081    2.1072 C   0  0  0  0  0  0  0  0  0  0  0  0
   -1.2523    0.9613    2.7182 O   0  0  0  0  0  0  0  0  0  0  0  0
   -2.0977    1.8357   -2.0242 C   0  0  0  0  0  0  0  0  0  0  0  0
   -3.3852    2.1301   -2.3100 C   0  0  0  0  0  0  0  0  0  0  0  0
   -4.4305    1.7582   -1.4229 C   0  0  0  0  0  0  0  0  0  0  0  0
   -5.7645    2.1224   -1.6599 C   0  0  0  0  0  0  0  0  0  0  0  0
   -6.7505    1.7711   -0.7771 C   0  0  0  0  0  0  0  0  0  0  0  0
   -6.4344    1.0533    0.3711 C   0  0  0  0  0  0  0  0  0  0  0  0
   -5.1407    0.6800    0.6193 C   0  0  0  0  0  0  0  0  0  0  0  0
   -4.1097    1.0047   -0.2743 C   0  0  0  0  0  0  0  0  0  0  0  0
   -2.6457   -2.0763    3.1471 H   0  0  0  0  0  0  0  0  0  0  0  0
   -2.9292   -3.8062    3.2496 H   0  0  0  0  0  0  0  0  0  0  0  0
   -4.2447   -2.7219    2.8108 H   0  0  0  0  0  0  0  0  0  0  0  0
   -1.7370   -3.2140    1.1075 H   0  0  0  0  0  0  0  0  0  0  0  0
   -3.2872   -3.9503    0.7968 H   0  0  0  0  0  0  0  0  0  0  0  0
   -4.3055   -1.6987    0.4093 H   0  0  0  0  0  0  0  0  0  0  0  0
   -2.9894   -2.0046   -0.6868 H   0  0  0  0  0  0  0  0  0  0  0  0
   -1.4491   -0.7422    0.8466 H   0  0  0  0  0  0  0  0  0  0  0  0
   -2.7990   -0.2652    1.8353 H   0  0  0  0  0  0  0  0  0  0  0  0
    0.3043    1.1625   -1.3655 H   0  0  0  0  0  0  0  0  0  0  0  0
    2.2100    0.3845   -1.5260 H   0  0  0  0  0  0  0  0  0  0  0  0
    4.4351    0.0486   -2.4559 H   0  0  0  0  0  0  0  0  0  0  0  0
    7.9661    0.5194    0.3911 H   0  0  0  0  0  0  0  0  0  0  0  0
    7.8096   -1.2482    0.3929 H   0  0  0  0  0  0  0  0  0  0  0  0
    8.7943   -0.4428   -0.8304 H   0  0  0  0  0  0  0  0  0  0  0  0
    7.9576   -0.6224   -2.7595 H   0  0  0  0  0  0  0  0  0  0  0  0
    6.6618    0.5435   -3.0339 H   0  0  0  0  0  0  0  0  0  0  0  0
    6.2996   -1.1911   -2.9344 H   0  0  0  0  0  0  0  0  0  0  0  0
    6.0604   -0.1130    1.4889 H   0  0  0  0  0  0  0  0  0  0  0  0
    3.8180    0.2389    2.4128 H   0  0  0  0  0  0  0  0  0  0  0  0
   -1.3128    2.1667   -2.6819 H   0  0  0  0  0  0  0  0  0  0  0  0
   -3.6327    2.6826   -3.1995 H   0  0  0  0  0  0  0  0  0  0  0  0
   -6.0027    2.6891   -2.5435 H   0  0  0  0  0  0  0  0  0  0  0  0
   -7.7715    2.0594   -0.9654 H   0  0  0  0  0  0  0  0  0  0  0  0
   -7.2120    0.7961    1.0716 H   0  0  0  0  0  0  0  0  0  0  0  0
   -4.9043    0.1577    1.5297 H   0  0  0  0  0  0  0  0  0  0  0  0
  1  2  1  0  0  0  0
  2  3  1  0  0  0  0
  3  4  1  0  0  0  0
  4  5  1  0  0  0  0
  5  6  1  0  0  0  0
  6  7  2  0  0  0  0
  7  8  1  0  0  0  0
  8  9  2  0  0  0  0
  9 10  1  0  0  0  0
 10 11  2  0  0  0  0
 11 12  1  0  0  0  0
 12 13  2  0  0  0  0
 13 14  1  0  0  0  0
 14 15  1  0  0  0  0
 14 16  1  0  0  0  0
 13 17  1  0  0  0  0
 17 18  2  0  0  0  0
  9 19  1  0  0  0  0
 19 20  2  0  0  0  0
 19 21  1  0  0  0  0
 21 22  2  0  0  0  0
  6 23  1  0  0  0  0
 23 24  2  0  0  0  0
 24 25  1  0  0  0  0
 25 26  2  0  0  0  0
 26 27  1  0  0  0  0
 27 28  2  0  0  0  0
 28 29  1  0  0  0  0
 29 30  2  0  0  0  0
 30  5  1  0  0  0  0
 21  8  1  0  0  0  0
 30 25  1  0  0  0  0
 18 10  1  0  0  0  0
  1 31  1  0  0  0  0
  1 32  1  0  0  0  0
  1 33  1  0  0  0  0
  2 34  1  0  0  0  0
  2 35  1  0  0  0  0
  3 36  1  0  0  0  0
  3 37  1  0  0  0  0
  4 38  1  0  0  0  0
  4 39  1  0  0  0  0
  7 40  1  0  0  0  0
 11 41  1  0  0  0  0
 12 42  1  0  0  0  0
 15 43  1  0  0  0  0
 15 44  1  0  0  0  0
 15 45  1  0  0  0  0
 16 46  1  0  0  0  0
 16 47  1  0  0  0  0
 16 48  1  0  0  0  0
 17 49  1  0  0  0  0
 18 50  1  0  0  0  0
 23 51  1  0  0  0  0
 24 52  1  0  0  0  0
 26 53  1  0  0  0  0
 27 54  1  0  0  0  0
 28 55  1  0  0  0  0
 29 56  1  0  0  0  0
M  END
