
  xtb     03012221253D
 energy: -14.149801501058 gnorm: 0.000220216922 xtb: 6.4.1 (afa7bdf)
 70 75  0     0  0            999 V2000
    2.5812   -2.5639    0.1202 C   0  0  0  0  0  0  0  0  0  0  0  0
    1.9731   -1.2058    0.0617 C   0  0  0  0  0  0  0  0  0  0  0  0
    0.5678   -1.1111    0.0432 C   0  0  0  0  0  0  0  0  0  0  0  0
   -0.1373    0.0770    0.0331 C   0  0  0  0  0  0  0  0  0  0  0  0
   -1.6033    0.1068    0.0220 C   0  0  0  0  0  0  0  0  0  0  0  0
   -2.3005    1.3055    0.2010 C   0  0  0  0  0  0  0  0  0  0  0  0
   -3.6703    1.3504    0.2174 C   0  0  0  0  0  0  0  0  0  0  0  0
   -4.4219    0.1896    0.0494 C   0  0  0  0  0  0  0  0  0  0  0  0
   -5.8505    0.2283    0.0715 N   0  0  0  0  0  0  0  0  0  0  0  0
   -6.5523    1.3846   -0.4105 C   0  0  0  0  0  0  0  0  0  0  0  0
   -6.1044    2.0716   -1.5357 C   0  0  0  0  0  0  0  0  0  0  0  0
   -6.7817    3.1777   -1.9983 C   0  0  0  0  0  0  0  0  0  0  0  0
   -7.9183    3.6165   -1.3472 C   0  0  0  0  0  0  0  0  0  0  0  0
   -8.3762    2.9435   -0.2309 C   0  0  0  0  0  0  0  0  0  0  0  0
   -7.7005    1.8373    0.2338 C   0  0  0  0  0  0  0  0  0  0  0  0
   -6.5956   -0.8879    0.5829 C   0  0  0  0  0  0  0  0  0  0  0  0
   -7.7830   -1.2873   -0.0245 C   0  0  0  0  0  0  0  0  0  0  0  0
   -8.4993   -2.3546    0.4696 C   0  0  0  0  0  0  0  0  0  0  0  0
   -8.0441   -3.0405    1.5791 C   0  0  0  0  0  0  0  0  0  0  0  0
   -6.8689   -2.6540    2.1940 C   0  0  0  0  0  0  0  0  0  0  0  0
   -6.1506   -1.5873    1.7017 C   0  0  0  0  0  0  0  0  0  0  0  0
   -3.7404   -1.0111   -0.1416 C   0  0  0  0  0  0  0  0  0  0  0  0
   -2.3686   -1.0529   -0.1574 C   0  0  0  0  0  0  0  0  0  0  0  0
    0.6419    1.2906    0.0552 C   0  0  0  0  0  0  0  0  0  0  0  0
    0.2030    2.5321    0.0691 N   0  0  0  0  0  0  0  0  0  0  0  0
    1.4938    3.5448    0.0873 S   0  0  0  0  0  0  0  0  0  0  0  0
    2.6683    2.3972    0.0786 N   0  0  0  0  0  0  0  0  0  0  0  0
    2.0928    1.2143    0.0611 C   0  0  0  0  0  0  0  0  0  0  0  0
    2.7610   -0.0603    0.0422 C   0  0  0  0  0  0  0  0  0  0  0  0
    4.2372   -0.0901    0.0321 C   0  0  0  0  0  0  0  0  0  0  0  0
    4.9641    0.7378    0.8856 C   0  0  0  0  0  0  0  0  0  0  0  0
    6.3403    0.7260    0.8879 C   0  0  0  0  0  0  0  0  0  0  0  0
    7.0535   -0.1053    0.0325 C   0  0  0  0  0  0  0  0  0  0  0  0
    8.5886   -0.1441    0.0085 C   0  0  0  0  0  0  0  0  0  0  0  0
    9.0674   -1.5731    0.3195 C   0  0  0  0  0  0  0  0  0  0  0  0
    9.0864    0.2772   -1.3851 C   0  0  0  0  0  0  0  0  0  0  0  0
    9.2010    0.8092    1.0513 C   0  0  0  0  0  0  0  0  0  0  0  0
    6.3300   -0.9155   -0.8334 C   0  0  0  0  0  0  0  0  0  0  0  0
    4.9536   -0.9083   -0.8406 C   0  0  0  0  0  0  0  0  0  0  0  0
    2.7086   -2.9787   -0.8809 H   0  0  0  0  0  0  0  0  0  0  0  0
    1.9504   -3.2512    0.6865 H   0  0  0  0  0  0  0  0  0  0  0  0
    3.5556   -2.5431    0.6105 H   0  0  0  0  0  0  0  0  0  0  0  0
    0.0233   -2.0367    0.0599 H   0  0  0  0  0  0  0  0  0  0  0  0
   -1.7439    2.2130    0.3294 H   0  0  0  0  0  0  0  0  0  0  0  0
   -4.1828    2.2836    0.3735 H   0  0  0  0  0  0  0  0  0  0  0  0
   -5.2249    1.7180   -2.0448 H   0  0  0  0  0  0  0  0  0  0  0  0
   -6.4250    3.7012   -2.8703 H   0  0  0  0  0  0  0  0  0  0  0  0
   -8.4473    4.4824   -1.7099 H   0  0  0  0  0  0  0  0  0  0  0  0
   -9.2628    3.2855    0.2775 H   0  0  0  0  0  0  0  0  0  0  0  0
   -8.0464    1.3130    1.1073 H   0  0  0  0  0  0  0  0  0  0  0  0
   -8.1280   -0.7524   -0.8919 H   0  0  0  0  0  0  0  0  0  0  0  0
   -9.4160   -2.6558   -0.0104 H   0  0  0  0  0  0  0  0  0  0  0  0
   -8.6056   -3.8752    1.9653 H   0  0  0  0  0  0  0  0  0  0  0  0
   -6.5148   -3.1867    3.0614 H   0  0  0  0  0  0  0  0  0  0  0  0
   -5.2406   -1.2737    2.1824 H   0  0  0  0  0  0  0  0  0  0  0  0
   -4.3120   -1.9104   -0.2922 H   0  0  0  0  0  0  0  0  0  0  0  0
   -1.8815   -1.9952   -0.3276 H   0  0  0  0  0  0  0  0  0  0  0  0
    4.4262    1.3986    1.5432 H   0  0  0  0  0  0  0  0  0  0  0  0
    6.8646    1.3781    1.5636 H   0  0  0  0  0  0  0  0  0  0  0  0
    8.7095   -2.2827   -0.4255 H   0  0  0  0  0  0  0  0  0  0  0  0
    8.7023   -1.8975    1.2939 H   0  0  0  0  0  0  0  0  0  0  0  0
   10.1561   -1.6254    0.3326 H   0  0  0  0  0  0  0  0  0  0  0  0
    8.7424    1.2823   -1.6287 H   0  0  0  0  0  0  0  0  0  0  0  0
   10.1755    0.2734   -1.4280 H   0  0  0  0  0  0  0  0  0  0  0  0
    8.7202   -0.3980   -2.1576 H   0  0  0  0  0  0  0  0  0  0  0  0
   10.2898    0.7633    1.0247 H   0  0  0  0  0  0  0  0  0  0  0  0
    8.8848    0.5428    2.0598 H   0  0  0  0  0  0  0  0  0  0  0  0
    8.9111    1.8418    0.8578 H   0  0  0  0  0  0  0  0  0  0  0  0
    6.8573   -1.5585   -1.5167 H   0  0  0  0  0  0  0  0  0  0  0  0
    4.4164   -1.5207   -1.5435 H   0  0  0  0  0  0  0  0  0  0  0  0
  1  2  1  0  0  0  0
  2  3  1  0  0  0  0
  3  4  2  0  0  0  0
  4  5  1  0  0  0  0
  5  6  2  0  0  0  0
  6  7  1  0  0  0  0
  7  8  2  0  0  0  0
  8  9  1  0  0  0  0
  9 10  1  0  0  0  0
 10 11  2  0  0  0  0
 11 12  1  0  0  0  0
 12 13  2  0  0  0  0
 13 14  1  0  0  0  0
 14 15  2  0  0  0  0
  9 16  1  0  0  0  0
 16 17  2  0  0  0  0
 17 18  1  0  0  0  0
 18 19  2  0  0  0  0
 19 20  1  0  0  0  0
 20 21  2  0  0  0  0
  8 22  1  0  0  0  0
 22 23  2  0  0  0  0
  4 24  1  0  0  0  0
 24 25  2  0  0  0  0
 25 26  1  0  0  0  0
 26 27  1  0  0  0  0
 27 28  2  0  0  0  0
 28 29  1  0  0  0  0
 29 30  1  0  0  0  0
 30 31  2  0  0  0  0
 31 32  1  0  0  0  0
 32 33  2  0  0  0  0
 33 34  1  0  0  0  0
 34 35  1  0  0  0  0
 34 36  1  0  0  0  0
 34 37  1  0  0  0  0
 33 38  1  0  0  0  0
 38 39  2  0  0  0  0
 29  2  2  0  0  0  0
 39 30  1  0  0  0  0
 23  5  1  0  0  0  0
 28 24  1  0  0  0  0
 15 10  1  0  0  0  0
 21 16  1  0  0  0  0
  1 40  1  0  0  0  0
  1 41  1  0  0  0  0
  1 42  1  0  0  0  0
  3 43  1  0  0  0  0
  6 44  1  0  0  0  0
  7 45  1  0  0  0  0
 11 46  1  0  0  0  0
 12 47  1  0  0  0  0
 13 48  1  0  0  0  0
 14 49  1  0  0  0  0
 15 50  1  0  0  0  0
 17 51  1  0  0  0  0
 18 52  1  0  0  0  0
 19 53  1  0  0  0  0
 20 54  1  0  0  0  0
 21 55  1  0  0  0  0
 22 56  1  0  0  0  0
 23 57  1  0  0  0  0
 31 58  1  0  0  0  0
 32 59  1  0  0  0  0
 35 60  1  0  0  0  0
 35 61  1  0  0  0  0
 35 62  1  0  0  0  0
 36 63  1  0  0  0  0
 36 64  1  0  0  0  0
 36 65  1  0  0  0  0
 37 66  1  0  0  0  0
 37 67  1  0  0  0  0
 37 68  1  0  0  0  0
 38 69  1  0  0  0  0
 39 70  1  0  0  0  0
M  END
