
  xtb     03012221213D
 energy: -11.159892930608 gnorm: 0.000294892072 xtb: 6.4.1 (afa7bdf)
 55 58  0     0  0            999 V2000
   -6.3365    4.9055   -1.5819 C   0  0  0  0  0  0  0  0  0  0  0  0
   -5.2328    5.0432   -0.7201 O   0  0  0  0  0  0  0  0  0  0  0  0
   -4.4274    3.9073   -0.6125 C   0  0  0  0  0  0  0  0  0  0  0  0
   -3.3155    3.9814    0.2321 C   0  0  0  0  0  0  0  0  0  0  0  0
   -2.4740    2.9114    0.3953 C   0  0  0  0  0  0  0  0  0  0  0  0
   -2.7003    1.7077   -0.2779 C   0  0  0  0  0  0  0  0  0  0  0  0
   -1.7896    0.5979   -0.0825 C   0  0  0  0  0  0  0  0  0  0  0  0
   -1.9178   -0.6261   -0.6274 C   0  0  0  0  0  0  0  0  0  0  0  0
   -1.0008   -1.7244   -0.4237 C   0  0  0  0  0  0  0  0  0  0  0  0
   -1.3680   -3.0152   -0.5708 N   0  0  0  0  0  0  0  0  0  0  0  0
   -0.3065   -3.7559   -0.2734 C   0  0  0  0  0  0  0  0  0  0  0  0
   -0.2985   -5.2137   -0.3103 C   0  0  0  0  0  0  0  0  0  0  0  0
    0.8386   -5.9488    0.0185 C   0  0  0  0  0  0  0  0  0  0  0  0
    0.8199   -7.3251   -0.0242 C   0  0  0  0  0  0  0  0  0  0  0  0
   -0.3316   -7.9917   -0.3948 C   0  0  0  0  0  0  0  0  0  0  0  0
   -1.4672   -7.2779   -0.7233 C   0  0  0  0  0  0  0  0  0  0  0  0
   -1.4508   -5.9020   -0.6813 C   0  0  0  0  0  0  0  0  0  0  0  0
    0.7735   -2.9616    0.0638 N   0  0  0  0  0  0  0  0  0  0  0  0
    0.3658   -1.6632   -0.0403 C   0  0  0  0  0  0  0  0  0  0  0  0
    1.1978   -0.5076    0.1224 C   0  0  0  0  0  0  0  0  0  0  0  0
    2.4379   -0.5617    0.6413 C   0  0  0  0  0  0  0  0  0  0  0  0
    3.3300    0.5653    0.8124 C   0  0  0  0  0  0  0  0  0  0  0  0
    4.5972    0.3636    1.3673 C   0  0  0  0  0  0  0  0  0  0  0  0
    5.4655    1.4094    1.5438 C   0  0  0  0  0  0  0  0  0  0  0  0
    5.1162    2.7129    1.1762 C   0  0  0  0  0  0  0  0  0  0  0  0
    6.0601    3.7185    1.3910 O   0  0  0  0  0  0  0  0  0  0  0  0
    5.6517    5.0063    0.9974 C   0  0  0  0  0  0  0  0  0  0  0  0
    3.8479    2.9151    0.6212 C   0  0  0  0  0  0  0  0  0  0  0  0
    2.9786    1.8683    0.4448 C   0  0  0  0  0  0  0  0  0  0  0  0
   -3.8100    1.6329   -1.1251 C   0  0  0  0  0  0  0  0  0  0  0  0
   -4.6530    2.7037   -1.2883 C   0  0  0  0  0  0  0  0  0  0  0  0
   -5.9930    4.6927   -2.5948 H   0  0  0  0  0  0  0  0  0  0  0  0
   -6.9912    4.1106   -1.2233 H   0  0  0  0  0  0  0  0  0  0  0  0
   -6.8908    5.8444   -1.5865 H   0  0  0  0  0  0  0  0  0  0  0  0
   -3.1371    4.9046    0.7538 H   0  0  0  0  0  0  0  0  0  0  0  0
   -1.6239    2.9916    1.0510 H   0  0  0  0  0  0  0  0  0  0  0  0
   -0.9747    0.7695    0.5961 H   0  0  0  0  0  0  0  0  0  0  0  0
   -2.7875   -0.8484   -1.2158 H   0  0  0  0  0  0  0  0  0  0  0  0
    1.7358   -5.4318    0.3088 H   0  0  0  0  0  0  0  0  0  0  0  0
    1.7052   -7.8833    0.2323 H   0  0  0  0  0  0  0  0  0  0  0  0
   -0.3439   -9.0688   -0.4275 H   0  0  0  0  0  0  0  0  0  0  0  0
   -2.3658   -7.7974   -1.0123 H   0  0  0  0  0  0  0  0  0  0  0  0
   -2.3303   -5.3355   -0.9351 H   0  0  0  0  0  0  0  0  0  0  0  0
    1.7177   -3.2823    0.2814 H   0  0  0  0  0  0  0  0  0  0  0  0
    0.8196    0.4312   -0.2304 H   0  0  0  0  0  0  0  0  0  0  0  0
    2.8044   -1.5174    0.9686 H   0  0  0  0  0  0  0  0  0  0  0  0
    4.8880   -0.6313    1.6580 H   0  0  0  0  0  0  0  0  0  0  0  0
    6.4391    1.2482    1.9714 H   0  0  0  0  0  0  0  0  0  0  0  0
    6.4615    5.7054    1.2083 H   0  0  0  0  0  0  0  0  0  0  0  0
    4.7695    5.3058    1.5641 H   0  0  0  0  0  0  0  0  0  0  0  0
    5.4435    5.0192   -0.0730 H   0  0  0  0  0  0  0  0  0  0  0  0
    3.5483    3.9045    0.3277 H   0  0  0  0  0  0  0  0  0  0  0  0
    2.0103    2.0562    0.0168 H   0  0  0  0  0  0  0  0  0  0  0  0
   -4.0069    0.7228   -1.6625 H   0  0  0  0  0  0  0  0  0  0  0  0
   -5.4982    2.6140   -1.9455 H   0  0  0  0  0  0  0  0  0  0  0  0
  1  2  1  0  0  0  0
  2  3  1  0  0  0  0
  3  4  2  0  0  0  0
  4  5  1  0  0  0  0
  5  6  2  0  0  0  0
  6  7  1  0  0  0  0
  7  8  2  0  0  0  0
  8  9  1  0  0  0  0
  9 10  1  0  0  0  0
 10 11  2  0  0  0  0
 11 12  1  0  0  0  0
 12 13  2  0  0  0  0
 13 14  1  0  0  0  0
 14 15  2  0  0  0  0
 15 16  1  0  0  0  0
 16 17  2  0  0  0  0
 11 18  1  0  0  0  0
 18 19  1  0  0  0  0
 19 20  1  0  0  0  0
 20 21  2  0  0  0  0
 21 22  1  0  0  0  0
 22 23  2  0  0  0  0
 23 24  1  0  0  0  0
 24 25  2  0  0  0  0
 25 26  1  0  0  0  0
 26 27  1  0  0  0  0
 25 28  1  0  0  0  0
 28 29  2  0  0  0  0
  6 30  1  0  0  0  0
 30 31  2  0  0  0  0
 31  3  1  0  0  0  0
 19  9  2  0  0  0  0
 29 22  1  0  0  0  0
 17 12  1  0  0  0  0
  1 32  1  0  0  0  0
  1 33  1  0  0  0  0
  1 34  1  0  0  0  0
  4 35  1  0  0  0  0
  5 36  1  0  0  0  0
  7 37  1  0  0  0  0
  8 38  1  0  0  0  0
 13 39  1  0  0  0  0
 14 40  1  0  0  0  0
 15 41  1  0  0  0  0
 16 42  1  0  0  0  0
 17 43  1  0  0  0  0
 18 44  1  0  0  0  0
 20 45  1  0  0  0  0
 21 46  1  0  0  0  0
 23 47  1  0  0  0  0
 24 48  1  0  0  0  0
 27 49  1  0  0  0  0
 27 50  1  0  0  0  0
 27 51  1  0  0  0  0
 28 52  1  0  0  0  0
 29 53  1  0  0  0  0
 30 54  1  0  0  0  0
 31 55  1  0  0  0  0
M  END
