
  xtb     03012221223D
 energy: -5.892820557551 gnorm: 0.000340901974 xtb: 6.4.1 (afa7bdf)
 28 30  0     0  0            999 V2000
   -2.4401    2.4893    1.3616 C   0  0  0  0  0  0  0  0  0  0  0  0
   -1.5509    1.4651    0.7742 C   0  0  0  0  0  0  0  0  0  0  0  0
   -0.2401    1.4565    0.8995 N   0  0  0  0  0  0  0  0  0  0  0  0
    0.2229    0.3684    0.2433 C   0  0  0  0  0  0  0  0  0  0  0  0
    1.6468    0.0438    0.1432 C   0  0  0  0  0  0  0  0  0  0  0  0
    2.1733   -0.6950   -0.9174 C   0  0  0  0  0  0  0  0  0  0  0  0
    3.5213   -0.9686   -0.9823 C   0  0  0  0  0  0  0  0  0  0  0  0
    4.3720   -0.5065    0.0028 C   0  0  0  0  0  0  0  0  0  0  0  0
    3.8714    0.2411    1.0504 C   0  0  0  0  0  0  0  0  0  0  0  0
    2.5244    0.5180    1.1172 C   0  0  0  0  0  0  0  0  0  0  0  0
   -0.8731   -0.3524   -0.2895 C   0  0  0  0  0  0  0  0  0  0  0  0
   -0.9841   -1.5748   -0.9853 C   0  0  0  0  0  0  0  0  0  0  0  0
   -2.2211   -2.0051   -1.3475 C   0  0  0  0  0  0  0  0  0  0  0  0
   -3.3693   -1.2500   -1.0273 C   0  0  0  0  0  0  0  0  0  0  0  0
   -3.2594   -0.0899   -0.3385 C   0  0  0  0  0  0  0  0  0  0  0  0
   -2.0057    0.3660    0.0480 N   0  0  0  0  0  0  0  0  0  0  0  0
   -2.9707    2.0890    2.2251 H   0  0  0  0  0  0  0  0  0  0  0  0
   -1.8630    3.3542    1.6875 H   0  0  0  0  0  0  0  0  0  0  0  0
   -3.1765    2.8272    0.6329 H   0  0  0  0  0  0  0  0  0  0  0  0
    1.5234   -1.0151   -1.7116 H   0  0  0  0  0  0  0  0  0  0  0  0
    3.9149   -1.5388   -1.8078 H   0  0  0  0  0  0  0  0  0  0  0  0
    5.4263   -0.7222   -0.0504 H   0  0  0  0  0  0  0  0  0  0  0  0
    4.5355    0.6099    1.8148 H   0  0  0  0  0  0  0  0  0  0  0  0
    2.1263    1.1060    1.9260 H   0  0  0  0  0  0  0  0  0  0  0  0
   -0.1106   -2.1663   -1.1891 H   0  0  0  0  0  0  0  0  0  0  0  0
   -2.3317   -2.9366   -1.8780 H   0  0  0  0  0  0  0  0  0  0  0  0
   -4.3403   -1.6077   -1.3272 H   0  0  0  0  0  0  0  0  0  0  0  0
   -4.1221    0.4943   -0.0746 H   0  0  0  0  0  0  0  0  0  0  0  0
  1  2  1  0  0  0  0
  2  3  2  0  0  0  0
  3  4  1  0  0  0  0
  4  5  1  0  0  0  0
  5  6  2  0  0  0  0
  6  7  1  0  0  0  0
  7  8  2  0  0  0  0
  8  9  1  0  0  0  0
  9 10  2  0  0  0  0
  4 11  2  0  0  0  0
 11 12  1  0  0  0  0
 12 13  2  0  0  0  0
 13 14  1  0  0  0  0
 14 15  2  0  0  0  0
 15 16  1  0  0  0  0
 16  2  1  0  0  0  0
 10  5  1  0  0  0  0
 16 11  1  0  0  0  0
  1 17  1  0  0  0  0
  1 18  1  0  0  0  0
  1 19  1  0  0  0  0
  6 20  1  0  0  0  0
  7 21  1  0  0  0  0
  8 22  1  0  0  0  0
  9 23  1  0  0  0  0
 10 24  1  0  0  0  0
 12 25  1  0  0  0  0
 13 26  1  0  0  0  0
 14 27  1  0  0  0  0
 15 28  1  0  0  0  0
M  END
