
  xtb     03012221273D
 energy: -11.188656016673 gnorm: 0.001018885434 xtb: 6.4.1 (afa7bdf)
 61 63  0     0  0            999 V2000
   -5.6764   -5.8225   -0.6823 C   0  0  0  0  0  0  0  0  0  0  0  0
   -4.6120   -4.9932   -0.3476 O   0  0  0  0  0  0  0  0  0  0  0  0
   -4.5968   -3.9190   -1.1839 C   0  0  0  0  0  0  0  0  0  0  0  0
   -5.3778   -3.7313   -2.0898 O   0  0  0  0  0  0  0  0  0  0  0  0
   -3.4963   -2.9108   -0.9553 C   0  0  0  0  0  0  0  0  0  0  0  0
   -2.5075   -2.9233   -2.1201 C   0  0  0  0  0  0  0  0  0  0  0  0
   -1.4780   -1.8413   -2.0253 C   0  0  0  0  0  0  0  0  0  0  0  0
   -1.6590   -0.6380   -2.7380 C   0  0  0  0  0  0  0  0  0  0  0  0
   -0.7889    0.4095   -2.6292 C   0  0  0  0  0  0  0  0  0  0  0  0
    0.3134    0.2874   -1.7761 C   0  0  0  0  0  0  0  0  0  0  0  0
    1.3369    1.1284   -1.4342 O   0  0  0  0  0  0  0  0  0  0  0  0
    2.1003    0.4042   -0.5423 C   0  0  0  0  0  0  0  0  0  0  0  0
    3.3207    0.9133    0.0682 C   0  0  0  0  0  0  0  0  0  0  0  0
    4.0509    0.1305    0.9590 C   0  0  0  0  0  0  0  0  0  0  0  0
    5.2119    0.6032    1.5183 C   0  0  0  0  0  0  0  0  0  0  0  0
    5.6927    1.8804    1.2093 C   0  0  0  0  0  0  0  0  0  0  0  0
    6.8910    2.3605    1.7732 N   0  0  0  0  0  0  0  0  0  0  0  0
    7.3843    3.7079    1.4891 C   0  0  0  0  0  0  0  0  0  0  0  0
    7.7157    1.5220    2.6430 C   0  0  0  0  0  0  0  0  0  0  0  0
    4.9495    2.6617    0.3173 C   0  0  0  0  0  0  0  0  0  0  0  0
    3.7885    2.1870   -0.2416 C   0  0  0  0  0  0  0  0  0  0  0  0
    1.6246   -0.8060   -0.3000 N   0  0  0  0  0  0  0  0  0  0  0  0
    0.5085   -0.9169   -1.0528 C   0  0  0  0  0  0  0  0  0  0  0  0
   -0.4024   -1.9762   -1.1843 C   0  0  0  0  0  0  0  0  0  0  0  0
   -4.0676   -1.5916   -0.7604 N   0  0  0  0  0  0  0  0  0  0  0  0
   -3.4789   -0.6747    0.0929 C   0  0  0  0  0  0  0  0  0  0  0  0
   -2.5710   -1.0273    0.8267 O   0  0  0  0  0  0  0  0  0  0  0  0
   -3.9689    0.6013    0.0247 O   0  0  0  0  0  0  0  0  0  0  0  0
   -3.3117    1.5326    0.9227 C   0  0  0  0  0  0  0  0  0  0  0  0
   -3.5121    1.0806    2.3741 C   0  0  0  0  0  0  0  0  0  0  0  0
   -1.8186    1.6279    0.5822 C   0  0  0  0  0  0  0  0  0  0  0  0
   -3.9704    2.9032    0.7185 C   0  0  0  0  0  0  0  0  0  0  0  0
   -5.5426   -6.1777   -1.7070 H   0  0  0  0  0  0  0  0  0  0  0  0
   -6.6051   -5.2506   -0.6126 H   0  0  0  0  0  0  0  0  0  0  0  0
   -5.7046   -6.6690    0.0071 H   0  0  0  0  0  0  0  0  0  0  0  0
   -2.9790   -3.1622   -0.0173 H   0  0  0  0  0  0  0  0  0  0  0  0
   -2.0212   -3.9016   -2.1909 H   0  0  0  0  0  0  0  0  0  0  0  0
   -3.0754   -2.8043   -3.0480 H   0  0  0  0  0  0  0  0  0  0  0  0
   -2.5250   -0.5434   -3.3712 H   0  0  0  0  0  0  0  0  0  0  0  0
   -0.9365    1.3248   -3.1721 H   0  0  0  0  0  0  0  0  0  0  0  0
    3.6878   -0.8542    1.1963 H   0  0  0  0  0  0  0  0  0  0  0  0
    5.7606   -0.0162    2.2046 H   0  0  0  0  0  0  0  0  0  0  0  0
    7.6236    3.8014    0.4323 H   0  0  0  0  0  0  0  0  0  0  0  0
    6.6285    4.4448    1.7509 H   0  0  0  0  0  0  0  0  0  0  0  0
    8.2814    3.9266    2.0629 H   0  0  0  0  0  0  0  0  0  0  0  0
    7.9802    0.6001    2.1301 H   0  0  0  0  0  0  0  0  0  0  0  0
    8.6363    2.0296    2.9205 H   0  0  0  0  0  0  0  0  0  0  0  0
    7.1713    1.2808    3.5532 H   0  0  0  0  0  0  0  0  0  0  0  0
    5.2983    3.6456    0.0604 H   0  0  0  0  0  0  0  0  0  0  0  0
    3.2243    2.7884   -0.9330 H   0  0  0  0  0  0  0  0  0  0  0  0
   -0.2654   -2.8689   -0.6011 H   0  0  0  0  0  0  0  0  0  0  0  0
   -4.7830   -1.3128   -1.4280 H   0  0  0  0  0  0  0  0  0  0  0  0
   -3.0592    0.1029    2.5293 H   0  0  0  0  0  0  0  0  0  0  0  0
   -4.5733    0.9953    2.6001 H   0  0  0  0  0  0  0  0  0  0  0  0
   -3.0629    1.7840    3.0733 H   0  0  0  0  0  0  0  0  0  0  0  0
   -1.6840    1.9451   -0.4498 H   0  0  0  0  0  0  0  0  0  0  0  0
   -1.3405    0.6562    0.6958 H   0  0  0  0  0  0  0  0  0  0  0  0
   -1.3092    2.3384    1.2308 H   0  0  0  0  0  0  0  0  0  0  0  0
   -3.5276    3.6563    1.3683 H   0  0  0  0  0  0  0  0  0  0  0  0
   -5.0360    2.8445    0.9321 H   0  0  0  0  0  0  0  0  0  0  0  0
   -3.8564    3.2260   -0.3146 H   0  0  0  0  0  0  0  0  0  0  0  0
  1  2  1  0  0  0  0
  2  3  1  0  0  0  0
  3  4  2  0  0  0  0
  3  5  1  0  0  0  0
  5  6  1  0  0  0  0
  6  7  1  0  0  0  0
  7  8  2  0  0  0  0
  8  9  1  0  0  0  0
  9 10  2  0  0  0  0
 10 11  1  0  0  0  0
 11 12  1  0  0  0  0
 12 13  1  0  0  0  0
 13 14  2  0  0  0  0
 14 15  1  0  0  0  0
 15 16  2  0  0  0  0
 16 17  1  0  0  0  0
 17 18  1  0  0  0  0
 17 19  1  0  0  0  0
 16 20  1  0  0  0  0
 20 21  2  0  0  0  0
 12 22  2  0  0  0  0
 22 23  1  0  0  0  0
 23 24  2  0  0  0  0
  5 25  1  0  0  0  0
 25 26  1  0  0  0  0
 26 27  2  0  0  0  0
 26 28  1  0  0  0  0
 28 29  1  0  0  0  0
 29 30  1  0  0  0  0
 29 31  1  0  0  0  0
 29 32  1  0  0  0  0
 24  7  1  0  0  0  0
 23 10  1  0  0  0  0
 21 13  1  0  0  0  0
  1 33  1  0  0  0  0
  1 34  1  0  0  0  0
  1 35  1  0  0  0  0
  5 36  1  0  0  0  0
  6 37  1  0  0  0  0
  6 38  1  0  0  0  0
  8 39  1  0  0  0  0
  9 40  1  0  0  0  0
 14 41  1  0  0  0  0
 15 42  1  0  0  0  0
 18 43  1  0  0  0  0
 18 44  1  0  0  0  0
 18 45  1  0  0  0  0
 19 46  1  0  0  0  0
 19 47  1  0  0  0  0
 19 48  1  0  0  0  0
 20 49  1  0  0  0  0
 21 50  1  0  0  0  0
 24 51  1  0  0  0  0
 25 52  1  0  0  0  0
 30 53  1  0  0  0  0
 30 54  1  0  0  0  0
 30 55  1  0  0  0  0
 31 56  1  0  0  0  0
 31 57  1  0  0  0  0
 31 58  1  0  0  0  0
 32 59  1  0  0  0  0
 32 60  1  0  0  0  0
 32 61  1  0  0  0  0
M  END
