
  xtb     03012221293D
 energy: -19.125651306307 gnorm: 0.000120607635 xtb: 6.4.1 (afa7bdf)
 95102  0     0  0            999 V2000
  -10.7201   -1.8318    1.4123 C   0  0  0  0  0  0  0  0  0  0  0  0
   -9.2325   -1.9471    1.0166 C   0  0  0  0  0  0  0  0  0  0  0  0
   -8.4928   -2.7418    2.1130 C   0  0  0  0  0  0  0  0  0  0  0  0
   -9.1402   -2.7008   -0.3268 C   0  0  0  0  0  0  0  0  0  0  0  0
   -8.5745   -0.5653    0.8668 C   0  0  0  0  0  0  0  0  0  0  0  0
   -9.2561    0.6236    1.0766 C   0  0  0  0  0  0  0  0  0  0  0  0
   -8.6204    1.8419    0.9365 C   0  0  0  0  0  0  0  0  0  0  0  0
   -7.2813    1.9388    0.5927 C   0  0  0  0  0  0  0  0  0  0  0  0
   -6.6186    3.3189    0.4155 C   0  0  0  0  0  0  0  0  0  0  0  0
   -5.1560    3.2989    0.9085 C   0  0  0  0  0  0  0  0  0  0  0  0
   -6.6597    3.6980   -1.0766 C   0  0  0  0  0  0  0  0  0  0  0  0
   -7.3626    4.4032    1.2299 C   0  0  0  0  0  0  0  0  0  0  0  0
   -6.5903    0.7400    0.3520 C   0  0  0  0  0  0  0  0  0  0  0  0
   -5.2150    0.6890   -0.0550 N   0  0  0  0  0  0  0  0  0  0  0  0
   -4.9103    0.7506   -1.4332 C   0  0  0  0  0  0  0  0  0  0  0  0
   -5.7797    0.9676   -2.2588 O   0  0  0  0  0  0  0  0  0  0  0  0
   -3.5187    0.5575   -1.8423 C   0  0  0  0  0  0  0  0  0  0  0  0
   -3.1678    0.6698   -3.1658 C   0  0  0  0  0  0  0  0  0  0  0  0
   -1.8467    0.5144   -3.5658 C   0  0  0  0  0  0  0  0  0  0  0  0
   -0.8742    0.2259   -2.6505 C   0  0  0  0  0  0  0  0  0  0  0  0
   -1.1807    0.0660   -1.2861 C   0  0  0  0  0  0  0  0  0  0  0  0
   -0.1873   -0.2439   -0.2971 C   0  0  0  0  0  0  0  0  0  0  0  0
    1.1990   -0.5486   -0.6327 C   0  0  0  0  0  0  0  0  0  0  0  0
    1.6585   -1.2606   -1.7111 C   0  0  0  0  0  0  0  0  0  0  0  0
    3.0608   -1.4050   -1.7518 C   0  0  0  0  0  0  0  0  0  0  0  0
    3.7220   -0.8120   -0.7085 C   0  0  0  0  0  0  0  0  0  0  0  0
    5.1581   -0.7894   -0.4794 C   0  0  0  0  0  0  0  0  0  0  0  0
    6.0486   -1.5099   -1.2826 C   0  0  0  0  0  0  0  0  0  0  0  0
    7.4001   -1.4759   -1.0431 C   0  0  0  0  0  0  0  0  0  0  0  0
    7.9249   -0.7187    0.0043 C   0  0  0  0  0  0  0  0  0  0  0  0
    9.3337   -0.6809    0.2484 N   0  0  0  0  0  0  0  0  0  0  0  0
   10.1420   -1.8408   -0.0012 C   0  0  0  0  0  0  0  0  0  0  0  0
    9.6615   -3.1173    0.2803 C   0  0  0  0  0  0  0  0  0  0  0  0
   10.4409   -4.2283    0.0487 C   0  0  0  0  0  0  0  0  0  0  0  0
   11.7143   -4.0858   -0.4677 C   0  0  0  0  0  0  0  0  0  0  0  0
   12.2055   -2.8261   -0.7515 C   0  0  0  0  0  0  0  0  0  0  0  0
   11.4279   -1.7136   -0.5206 C   0  0  0  0  0  0  0  0  0  0  0  0
    9.9484    0.5187    0.7426 C   0  0  0  0  0  0  0  0  0  0  0  0
    9.5247    1.7695    0.3004 C   0  0  0  0  0  0  0  0  0  0  0  0
   10.1209    2.9190    0.7679 C   0  0  0  0  0  0  0  0  0  0  0  0
   11.1511    2.8413    1.6851 C   0  0  0  0  0  0  0  0  0  0  0  0
   11.5830    1.6078    2.1330 C   0  0  0  0  0  0  0  0  0  0  0  0
   10.9884    0.4569    1.6668 C   0  0  0  0  0  0  0  0  0  0  0  0
    7.0408    0.0016    0.8070 C   0  0  0  0  0  0  0  0  0  0  0  0
    5.6894   -0.0362    0.5715 C   0  0  0  0  0  0  0  0  0  0  0  0
    2.5582   -0.0635    0.3507 S   0  0  0  0  0  0  0  0  0  0  0  0
   -0.5684   -0.2674    1.0355 C   0  0  0  0  0  0  0  0  0  0  0  0
   -1.8792   -0.0631    1.4254 C   0  0  0  0  0  0  0  0  0  0  0  0
   -2.8640    0.1852    0.4965 C   0  0  0  0  0  0  0  0  0  0  0  0
   -2.5246    0.2642   -0.8758 C   0  0  0  0  0  0  0  0  0  0  0  0
   -4.2447    0.3827    0.9272 C   0  0  0  0  0  0  0  0  0  0  0  0
   -4.5528    0.3016    2.1043 O   0  0  0  0  0  0  0  0  0  0  0  0
   -7.2450   -0.4776    0.5041 C   0  0  0  0  0  0  0  0  0  0  0  0
  -11.1700   -2.8186    1.5129 H   0  0  0  0  0  0  0  0  0  0  0  0
  -11.2848   -1.2873    0.6570 H   0  0  0  0  0  0  0  0  0  0  0  0
  -10.8329   -1.3191    2.3664 H   0  0  0  0  0  0  0  0  0  0  0  0
   -8.5338   -2.2129    3.0640 H   0  0  0  0  0  0  0  0  0  0  0  0
   -7.4446   -2.8861    1.8573 H   0  0  0  0  0  0  0  0  0  0  0  0
   -8.9414   -3.7244    2.2522 H   0  0  0  0  0  0  0  0  0  0  0  0
   -9.6342   -2.1379   -1.1174 H   0  0  0  0  0  0  0  0  0  0  0  0
   -9.6160   -3.6780   -0.2590 H   0  0  0  0  0  0  0  0  0  0  0  0
   -8.1044   -2.8543   -0.6241 H   0  0  0  0  0  0  0  0  0  0  0  0
  -10.2955    0.6042    1.3513 H   0  0  0  0  0  0  0  0  0  0  0  0
   -9.1927    2.7379    1.0971 H   0  0  0  0  0  0  0  0  0  0  0  0
   -5.0912    2.8636    1.9049 H   0  0  0  0  0  0  0  0  0  0  0  0
   -4.5275    2.7121    0.2433 H   0  0  0  0  0  0  0  0  0  0  0  0
   -4.7388    4.3041    0.9448 H   0  0  0  0  0  0  0  0  0  0  0  0
   -6.1798    4.6597   -1.2507 H   0  0  0  0  0  0  0  0  0  0  0  0
   -6.1505    2.9485   -1.6788 H   0  0  0  0  0  0  0  0  0  0  0  0
   -7.6877    3.7604   -1.4298 H   0  0  0  0  0  0  0  0  0  0  0  0
   -7.4436    4.1132    2.2765 H   0  0  0  0  0  0  0  0  0  0  0  0
   -6.8297    5.3520    1.1863 H   0  0  0  0  0  0  0  0  0  0  0  0
   -8.3633    4.5805    0.8403 H   0  0  0  0  0  0  0  0  0  0  0  0
   -3.9366    0.8924   -3.8852 H   0  0  0  0  0  0  0  0  0  0  0  0
   -1.5892    0.6292   -4.6068 H   0  0  0  0  0  0  0  0  0  0  0  0
    0.1485    0.1547   -2.9713 H   0  0  0  0  0  0  0  0  0  0  0  0
    1.0019   -1.7200   -2.4333 H   0  0  0  0  0  0  0  0  0  0  0  0
    3.5654   -1.9400   -2.5426 H   0  0  0  0  0  0  0  0  0  0  0  0
    5.6669   -2.1022   -2.0951 H   0  0  0  0  0  0  0  0  0  0  0  0
    8.0771   -2.0257   -1.6732 H   0  0  0  0  0  0  0  0  0  0  0  0
    8.6735   -3.2208    0.6939 H   0  0  0  0  0  0  0  0  0  0  0  0
   10.0577   -5.2106    0.2726 H   0  0  0  0  0  0  0  0  0  0  0  0
   12.3239   -4.9559   -0.6481 H   0  0  0  0  0  0  0  0  0  0  0  0
   13.1988   -2.7140   -1.1548 H   0  0  0  0  0  0  0  0  0  0  0  0
   11.8016   -0.7301   -0.7464 H   0  0  0  0  0  0  0  0  0  0  0  0
    8.7299    1.8226   -0.4230 H   0  0  0  0  0  0  0  0  0  0  0  0
    9.7847    3.8808    0.4162 H   0  0  0  0  0  0  0  0  0  0  0  0
   11.6175    3.7416    2.0501 H   0  0  0  0  0  0  0  0  0  0  0  0
   12.3864    1.5464    2.8490 H   0  0  0  0  0  0  0  0  0  0  0  0
   11.3152   -0.5067    2.0169 H   0  0  0  0  0  0  0  0  0  0  0  0
    7.4349    0.5781    1.6255 H   0  0  0  0  0  0  0  0  0  0  0  0
    5.0162    0.5201    1.1998 H   0  0  0  0  0  0  0  0  0  0  0  0
    0.1812   -0.4795    1.7793 H   0  0  0  0  0  0  0  0  0  0  0  0
   -2.1547   -0.1067    2.4650 H   0  0  0  0  0  0  0  0  0  0  0  0
   -6.6768   -1.3720    0.3252 H   0  0  0  0  0  0  0  0  0  0  0  0
  1  2  1  0  0  0  0
  2  3  1  0  0  0  0
  2  4  1  0  0  0  0
  2  5  1  0  0  0  0
  5  6  2  0  0  0  0
  6  7  1  0  0  0  0
  7  8  2  0  0  0  0
  8  9  1  0  0  0  0
  9 10  1  0  0  0  0
  9 11  1  0  0  0  0
  9 12  1  0  0  0  0
  8 13  1  0  0  0  0
 13 14  1  0  0  0  0
 14 15  1  0  0  0  0
 15 16  2  0  0  0  0
 15 17  1  0  0  0  0
 17 18  2  0  0  0  0
 18 19  1  0  0  0  0
 19 20  2  0  0  0  0
 20 21  1  0  0  0  0
 21 22  2  0  0  0  0
 22 23  1  0  0  0  0
 23 24  2  0  0  0  0
 24 25  1  0  0  0  0
 25 26  2  0  0  0  0
 26 27  1  0  0  0  0
 27 28  2  0  0  0  0
 28 29  1  0  0  0  0
 29 30  2  0  0  0  0
 30 31  1  0  0  0  0
 31 32  1  0  0  0  0
 32 33  2  0  0  0  0
 33 34  1  0  0  0  0
 34 35  2  0  0  0  0
 35 36  1  0  0  0  0
 36 37  2  0  0  0  0
 31 38  1  0  0  0  0
 38 39  2  0  0  0  0
 39 40  1  0  0  0  0
 40 41  2  0  0  0  0
 41 42  1  0  0  0  0
 42 43  2  0  0  0  0
 30 44  1  0  0  0  0
 44 45  2  0  0  0  0
 26 46  1  0  0  0  0
 22 47  1  0  0  0  0
 47 48  2  0  0  0  0
 48 49  1  0  0  0  0
 49 50  2  0  0  0  0
 49 51  1  0  0  0  0
 51 52  2  0  0  0  0
 13 53  2  0  0  0  0
 53  5  1  0  0  0  0
 51 14  1  0  0  0  0
 50 17  1  0  0  0  0
 50 21  1  0  0  0  0
 46 23  1  0  0  0  0
 45 27  1  0  0  0  0
 37 32  1  0  0  0  0
 43 38  1  0  0  0  0
  1 54  1  0  0  0  0
  1 55  1  0  0  0  0
  1 56  1  0  0  0  0
  3 57  1  0  0  0  0
  3 58  1  0  0  0  0
  3 59  1  0  0  0  0
  4 60  1  0  0  0  0
  4 61  1  0  0  0  0
  4 62  1  0  0  0  0
  6 63  1  0  0  0  0
  7 64  1  0  0  0  0
 10 65  1  0  0  0  0
 10 66  1  0  0  0  0
 10 67  1  0  0  0  0
 11 68  1  0  0  0  0
 11 69  1  0  0  0  0
 11 70  1  0  0  0  0
 12 71  1  0  0  0  0
 12 72  1  0  0  0  0
 12 73  1  0  0  0  0
 18 74  1  0  0  0  0
 19 75  1  0  0  0  0
 20 76  1  0  0  0  0
 24 77  1  0  0  0  0
 25 78  1  0  0  0  0
 28 79  1  0  0  0  0
 29 80  1  0  0  0  0
 33 81  1  0  0  0  0
 34 82  1  0  0  0  0
 35 83  1  0  0  0  0
 36 84  1  0  0  0  0
 37 85  1  0  0  0  0
 39 86  1  0  0  0  0
 40 87  1  0  0  0  0
 41 88  1  0  0  0  0
 42 89  1  0  0  0  0
 43 90  1  0  0  0  0
 44 91  1  0  0  0  0
 45 92  1  0  0  0  0
 47 93  1  0  0  0  0
 48 94  1  0  0  0  0
 53 95  1  0  0  0  0
M  END
