
  xtb     03012221303D
 energy: -6.069494873218 gnorm: 0.000226389005 xtb: 6.4.1 (afa7bdf)
 30 32  0     0  0            999 V2000
   -6.5037   -0.0738   -0.9240 C   0  0  0  0  0  0  0  0  0  0  0  0
   -6.1229   -0.9068    0.5837 S   0  0  0  0  0  0  0  0  0  0  0  0
   -4.3581   -0.7716    0.4936 C   0  0  0  0  0  0  0  0  0  0  0  0
   -3.5929   -1.8656    0.1181 C   0  0  0  0  0  0  0  0  0  0  0  0
   -2.2235   -1.7631    0.0363 C   0  0  0  0  0  0  0  0  0  0  0  0
   -1.5881   -0.5593    0.3298 C   0  0  0  0  0  0  0  0  0  0  0  0
   -0.2129   -0.4481    0.2387 N   0  0  0  0  0  0  0  0  0  0  0  0
    0.3508    0.6258    0.4905 N   0  0  0  0  0  0  0  0  0  0  0  0
    1.7057    0.7076    0.3881 C   0  0  0  0  0  0  0  0  0  0  0  0
    2.4570   -0.2920    0.0318 N   0  0  0  0  0  0  0  0  0  0  0  0
    3.7947    0.0548    0.0089 C   0  0  0  0  0  0  0  0  0  0  0  0
    4.8507   -0.8018   -0.3316 C   0  0  0  0  0  0  0  0  0  0  0  0
    6.1379   -0.3286   -0.3105 C   0  0  0  0  0  0  0  0  0  0  0  0
    6.4067    0.9918    0.0450 C   0  0  0  0  0  0  0  0  0  0  0  0
    5.3849    1.8465    0.3819 C   0  0  0  0  0  0  0  0  0  0  0  0
    4.0790    1.3792    0.3641 C   0  0  0  0  0  0  0  0  0  0  0  0
    2.5936    2.1965    0.7322 S   0  0  0  0  0  0  0  0  0  0  0  0
   -2.3600    0.5331    0.7107 C   0  0  0  0  0  0  0  0  0  0  0  0
   -3.7290    0.4277    0.7922 C   0  0  0  0  0  0  0  0  0  0  0  0
   -7.5795   -0.0636   -1.0834 H   0  0  0  0  0  0  0  0  0  0  0  0
   -6.1468    0.9530   -0.8895 H   0  0  0  0  0  0  0  0  0  0  0  0
   -6.0310   -0.5807   -1.7622 H   0  0  0  0  0  0  0  0  0  0  0  0
   -4.0871   -2.7949   -0.1098 H   0  0  0  0  0  0  0  0  0  0  0  0
   -1.6238   -2.6070   -0.2559 H   0  0  0  0  0  0  0  0  0  0  0  0
    4.6314   -1.8186   -0.6041 H   0  0  0  0  0  0  0  0  0  0  0  0
    6.9517   -0.9848   -0.5718 H   0  0  0  0  0  0  0  0  0  0  0  0
    7.4247    1.3445    0.0558 H   0  0  0  0  0  0  0  0  0  0  0  0
    5.5789    2.8681    0.6584 H   0  0  0  0  0  0  0  0  0  0  0  0
   -1.8624    1.4588    0.9388 H   0  0  0  0  0  0  0  0  0  0  0  0
   -4.3260    1.2730    1.0899 H   0  0  0  0  0  0  0  0  0  0  0  0
  1  2  1  0  0  0  0
  2  3  1  0  0  0  0
  3  4  2  0  0  0  0
  4  5  1  0  0  0  0
  5  6  2  0  0  0  0
  6  7  1  0  0  0  0
  7  8  2  0  0  0  0
  8  9  1  0  0  0  0
  9 10  2  0  0  0  0
 10 11  1  0  0  0  0
 11 12  2  0  0  0  0
 12 13  1  0  0  0  0
 13 14  2  0  0  0  0
 14 15  1  0  0  0  0
 15 16  2  0  0  0  0
 16 17  1  0  0  0  0
  6 18  1  0  0  0  0
 18 19  2  0  0  0  0
 19  3  1  0  0  0  0
 17  9  1  0  0  0  0
 16 11  1  0  0  0  0
  1 20  1  0  0  0  0
  1 21  1  0  0  0  0
  1 22  1  0  0  0  0
  4 23  1  0  0  0  0
  5 24  1  0  0  0  0
 12 25  1  0  0  0  0
 13 26  1  0  0  0  0
 14 27  1  0  0  0  0
 15 28  1  0  0  0  0
 18 29  1  0  0  0  0
 19 30  1  0  0  0  0
M  END
