
  xtb     03012221323D
 energy: -4.871733236203 gnorm: 0.000279371649 xtb: 6.4.1 (afa7bdf)
 24 26  0     0  0            999 V2000
   -5.7906    2.8023    0.9358 O   0  0  0  0  0  0  0  0  0  0  0  0
   -5.7402    1.7034    0.4517 C   0  0  0  0  0  0  0  0  0  0  0  0
   -4.5306    0.9661    0.1875 C   0  0  0  0  0  0  0  0  0  0  0  0
   -4.4317   -0.2824   -0.3603 C   0  0  0  0  0  0  0  0  0  0  0  0
   -3.1784   -0.7718   -0.5124 N   0  0  0  0  0  0  0  0  0  0  0  0
   -2.2634    0.0703   -0.0924 C   0  0  0  0  0  0  0  0  0  0  0  0
   -0.8594   -0.1990   -0.1393 C   0  0  0  0  0  0  0  0  0  0  0  0
   -0.2996   -1.3513   -0.6208 C   0  0  0  0  0  0  0  0  0  0  0  0
    1.1090   -1.3739   -0.5582 C   0  0  0  0  0  0  0  0  0  0  0  0
    1.6630   -0.2394   -0.0272 C   0  0  0  0  0  0  0  0  0  0  0  0
    3.0672    0.0190    0.1597 C   0  0  0  0  0  0  0  0  0  0  0  0
    4.0975   -0.8206   -0.1590 C   0  0  0  0  0  0  0  0  0  0  0  0
    5.3816   -0.2930    0.1409 C   0  0  0  0  0  0  0  0  0  0  0  0
    5.3430    0.9420    0.6858 C   0  0  0  0  0  0  0  0  0  0  0  0
    3.7140    1.4894    0.8442 S   0  0  0  0  0  0  0  0  0  0  0  0
    0.3972    0.8790    0.4029 S   0  0  0  0  0  0  0  0  0  0  0  0
   -2.9483    1.5583    0.5313 S   0  0  0  0  0  0  0  0  0  0  0  0
   -6.6872    1.2450    0.1999 H   0  0  0  0  0  0  0  0  0  0  0  0
   -5.2929   -0.8629   -0.6618 H   0  0  0  0  0  0  0  0  0  0  0  0
   -0.8951   -2.1622   -1.0106 H   0  0  0  0  0  0  0  0  0  0  0  0
    1.6980   -2.2115   -0.8988 H   0  0  0  0  0  0  0  0  0  0  0  0
    3.9500   -1.7948   -0.5980 H   0  0  0  0  0  0  0  0  0  0  0  0
    6.2993   -0.8309   -0.0500 H   0  0  0  0  0  0  0  0  0  0  0  0
    6.1975    1.5192    0.9855 H   0  0  0  0  0  0  0  0  0  0  0  0
  1  2  2  0  0  0  0
  2  3  1  0  0  0  0
  3  4  2  0  0  0  0
  4  5  1  0  0  0  0
  5  6  2  0  0  0  0
  6  7  1  0  0  0  0
  7  8  2  0  0  0  0
  8  9  1  0  0  0  0
  9 10  2  0  0  0  0
 10 11  1  0  0  0  0
 11 12  2  0  0  0  0
 12 13  1  0  0  0  0
 13 14  2  0  0  0  0
 14 15  1  0  0  0  0
 10 16  1  0  0  0  0
  6 17  1  0  0  0  0
 17  3  1  0  0  0  0
 16  7  1  0  0  0  0
 15 11  1  0  0  0  0
  2 18  1  0  0  0  0
  4 19  1  0  0  0  0
  8 20  1  0  0  0  0
  9 21  1  0  0  0  0
 12 22  1  0  0  0  0
 13 23  1  0  0  0  0
 14 24  1  0  0  0  0
M  END
