
  xtb     03012221263D
 energy: -13.456789896955 gnorm: 0.000367357208 xtb: 6.4.1 (afa7bdf)
 60 67  0     0  0            999 V2000
   -4.5944    5.0949    0.8052 C   0  0  0  0  0  0  0  0  0  0  0  0
   -5.4111    4.1222    1.3467 C   0  0  0  0  0  0  0  0  0  0  0  0
   -5.0787    2.7930    1.2145 C   0  0  0  0  0  0  0  0  0  0  0  0
   -3.9170    2.4077    0.5470 C   0  0  0  0  0  0  0  0  0  0  0  0
   -3.6024    0.9860    0.4222 C   0  0  0  0  0  0  0  0  0  0  0  0
   -4.5231    0.0402    0.5002 N   0  0  0  0  0  0  0  0  0  0  0  0
   -3.9061   -1.1365    0.3323 N   0  0  0  0  0  0  0  0  0  0  0  0
   -4.6062   -2.3853    0.3584 C   0  0  0  0  0  0  0  0  0  0  0  0
   -5.9807   -2.3939    0.5390 C   0  0  0  0  0  0  0  0  0  0  0  0
   -6.6745   -3.5839    0.5696 C   0  0  0  0  0  0  0  0  0  0  0  0
   -6.0010   -4.7804    0.4202 C   0  0  0  0  0  0  0  0  0  0  0  0
   -4.6318   -4.7832    0.2401 C   0  0  0  0  0  0  0  0  0  0  0  0
   -3.9407   -3.5932    0.2096 C   0  0  0  0  0  0  0  0  0  0  0  0
   -2.5163   -0.9895    0.1505 C   0  0  0  0  0  0  0  0  0  0  0  0
   -1.5857   -1.9165   -0.0116 N   0  0  0  0  0  0  0  0  0  0  0  0
   -0.3249   -1.4413   -0.1042 C   0  0  0  0  0  0  0  0  0  0  0  0
    0.7350   -2.3618   -0.2792 C   0  0  0  0  0  0  0  0  0  0  0  0
    2.0273   -1.9495   -0.3605 C   0  0  0  0  0  0  0  0  0  0  0  0
    2.3621   -0.5820   -0.2727 C   0  0  0  0  0  0  0  0  0  0  0  0
    3.7335   -0.1640   -0.3542 N   0  0  0  0  0  0  0  0  0  0  0  0
    4.2444    0.8552   -1.1841 C   0  0  0  0  0  0  0  0  0  0  0  0
    3.6131    1.6709   -2.1220 C   0  0  0  0  0  0  0  0  0  0  0  0
    4.3664    2.5897   -2.8106 C   0  0  0  0  0  0  0  0  0  0  0  0
    5.7406    2.7108   -2.5854 C   0  0  0  0  0  0  0  0  0  0  0  0
    6.3789    1.9093   -1.6701 C   0  0  0  0  0  0  0  0  0  0  0  0
    5.6271    0.9695   -0.9629 C   0  0  0  0  0  0  0  0  0  0  0  0
    5.9837   -0.0084    0.0373 C   0  0  0  0  0  0  0  0  0  0  0  0
    7.1980   -0.3339    0.6442 C   0  0  0  0  0  0  0  0  0  0  0  0
    7.2152   -1.3253    1.5952 C   0  0  0  0  0  0  0  0  0  0  0  0
    6.0426   -1.9961    1.9542 C   0  0  0  0  0  0  0  0  0  0  0  0
    4.8410   -1.6885    1.3651 C   0  0  0  0  0  0  0  0  0  0  0  0
    4.8077   -0.6901    0.3927 C   0  0  0  0  0  0  0  0  0  0  0  0
    1.3625    0.3398   -0.1085 C   0  0  0  0  0  0  0  0  0  0  0  0
    0.0081   -0.0517   -0.0221 C   0  0  0  0  0  0  0  0  0  0  0  0
   -1.0130    0.8829    0.1492 C   0  0  0  0  0  0  0  0  0  0  0  0
   -2.3008    0.3942    0.2202 C   0  0  0  0  0  0  0  0  0  0  0  0
   -3.1128    3.4043   -0.0075 C   0  0  0  0  0  0  0  0  0  0  0  0
   -3.4487    4.7329    0.1245 C   0  0  0  0  0  0  0  0  0  0  0  0
   -4.8549    6.1357    0.9076 H   0  0  0  0  0  0  0  0  0  0  0  0
   -6.3095    4.4032    1.8710 H   0  0  0  0  0  0  0  0  0  0  0  0
   -5.7120    2.0276    1.6288 H   0  0  0  0  0  0  0  0  0  0  0  0
   -6.4898   -1.4538    0.6545 H   0  0  0  0  0  0  0  0  0  0  0  0
   -7.7429   -3.5803    0.7109 H   0  0  0  0  0  0  0  0  0  0  0  0
   -6.5436   -5.7113    0.4445 H   0  0  0  0  0  0  0  0  0  0  0  0
   -4.1048   -5.7160    0.1233 H   0  0  0  0  0  0  0  0  0  0  0  0
   -2.8764   -3.5822    0.0713 H   0  0  0  0  0  0  0  0  0  0  0  0
    0.4900   -3.4069   -0.3460 H   0  0  0  0  0  0  0  0  0  0  0  0
    2.8194   -2.6626   -0.5068 H   0  0  0  0  0  0  0  0  0  0  0  0
    2.5582    1.5651   -2.2990 H   0  0  0  0  0  0  0  0  0  0  0  0
    3.8913    3.2275   -3.5384 H   0  0  0  0  0  0  0  0  0  0  0  0
    6.3065    3.4409   -3.1400 H   0  0  0  0  0  0  0  0  0  0  0  0
    7.4371    1.9923   -1.4929 H   0  0  0  0  0  0  0  0  0  0  0  0
    8.0946    0.1916    0.3652 H   0  0  0  0  0  0  0  0  0  0  0  0
    8.1440   -1.5876    2.0741 H   0  0  0  0  0  0  0  0  0  0  0  0
    6.0830   -2.7661    2.7078 H   0  0  0  0  0  0  0  0  0  0  0  0
    3.9337   -2.1920    1.6456 H   0  0  0  0  0  0  0  0  0  0  0  0
    1.6169    1.3803   -0.0299 H   0  0  0  0  0  0  0  0  0  0  0  0
   -0.7933    1.9277    0.2562 H   0  0  0  0  0  0  0  0  0  0  0  0
   -2.2454    3.1261   -0.5782 H   0  0  0  0  0  0  0  0  0  0  0  0
   -2.8196    5.4923   -0.3100 H   0  0  0  0  0  0  0  0  0  0  0  0
  1  2  2  0  0  0  0
  2  3  1  0  0  0  0
  3  4  2  0  0  0  0
  4  5  1  0  0  0  0
  5  6  2  0  0  0  0
  6  7  1  0  0  0  0
  7  8  1  0  0  0  0
  8  9  2  0  0  0  0
  9 10  1  0  0  0  0
 10 11  2  0  0  0  0
 11 12  1  0  0  0  0
 12 13  2  0  0  0  0
  7 14  1  0  0  0  0
 14 15  2  0  0  0  0
 15 16  1  0  0  0  0
 16 17  2  0  0  0  0
 17 18  1  0  0  0  0
 18 19  2  0  0  0  0
 19 20  1  0  0  0  0
 20 21  1  0  0  0  0
 21 22  2  0  0  0  0
 22 23  1  0  0  0  0
 23 24  2  0  0  0  0
 24 25  1  0  0  0  0
 25 26  2  0  0  0  0
 26 27  1  0  0  0  0
 27 28  2  0  0  0  0
 28 29  1  0  0  0  0
 29 30  2  0  0  0  0
 30 31  1  0  0  0  0
 31 32  2  0  0  0  0
 19 33  1  0  0  0  0
 33 34  2  0  0  0  0
 34 35  1  0  0  0  0
 35 36  2  0  0  0  0
  4 37  1  0  0  0  0
 37 38  2  0  0  0  0
 38  1  1  0  0  0  0
 36  5  1  0  0  0  0
 13  8  1  0  0  0  0
 36 14  1  0  0  0  0
 34 16  1  0  0  0  0
 32 20  1  0  0  0  0
 26 21  1  0  0  0  0
 32 27  1  0  0  0  0
  1 39  1  0  0  0  0
  2 40  1  0  0  0  0
  3 41  1  0  0  0  0
  9 42  1  0  0  0  0
 10 43  1  0  0  0  0
 11 44  1  0  0  0  0
 12 45  1  0  0  0  0
 13 46  1  0  0  0  0
 17 47  1  0  0  0  0
 18 48  1  0  0  0  0
 22 49  1  0  0  0  0
 23 50  1  0  0  0  0
 24 51  1  0  0  0  0
 25 52  1  0  0  0  0
 28 53  1  0  0  0  0
 29 54  1  0  0  0  0
 30 55  1  0  0  0  0
 31 56  1  0  0  0  0
 33 57  1  0  0  0  0
 35 58  1  0  0  0  0
 37 59  1  0  0  0  0
 38 60  1  0  0  0  0
M  END
