
  xtb     03012221253D
 energy: -12.849157598373 gnorm: 0.000335099410 xtb: 6.4.1 (afa7bdf)
 60 66  0     0  0            999 V2000
    0.1398   -1.9007   -1.8342 F   0  0  0  0  0  0  0  0  0  0  0  0
   -0.0624   -1.5030   -0.5161 B   0  0  0  0  0  4  0  0  0  0  0  0
   -0.3254   -2.5796    0.3240 F   0  0  0  0  0  0  0  0  0  0  0  0
    1.1892   -0.7788   -0.0292 N   0  0  0  0  0  0  0  0  0  0  0  0
    2.4287   -1.3170    0.2244 C   0  0  0  0  0  0  0  0  0  0  0  0
    2.8392   -2.7123    0.1475 C   0  0  0  0  0  0  0  0  0  0  0  0
    4.0084   -3.1525    0.7732 C   0  0  0  0  0  0  0  0  0  0  0  0
    4.3964   -4.4707    0.6976 C   0  0  0  0  0  0  0  0  0  0  0  0
    3.6317   -5.3814   -0.0039 C   0  0  0  0  0  0  0  0  0  0  0  0
    2.4751   -4.9668   -0.6323 C   0  0  0  0  0  0  0  0  0  0  0  0
    2.0871   -3.6501   -0.5585 C   0  0  0  0  0  0  0  0  0  0  0  0
    3.2457   -0.2397    0.5902 C   0  0  0  0  0  0  0  0  0  0  0  0
    2.5040    0.9387    0.5437 C   0  0  0  0  0  0  0  0  0  0  0  0
    2.9929    2.2843    0.8074 C   0  0  0  0  0  0  0  0  0  0  0  0
    4.2487    2.5078    1.3777 C   0  0  0  0  0  0  0  0  0  0  0  0
    4.7002    3.7875    1.6057 C   0  0  0  0  0  0  0  0  0  0  0  0
    3.9155    4.8725    1.2685 C   0  0  0  0  0  0  0  0  0  0  0  0
    2.6735    4.6743    0.7002 C   0  0  0  0  0  0  0  0  0  0  0  0
    2.2201    3.3970    0.4746 C   0  0  0  0  0  0  0  0  0  0  0  0
    1.1650    0.5793    0.1621 C   0  0  0  0  0  0  0  0  0  0  0  0
    0.1228    1.4077    0.0908 N   0  0  0  0  0  0  0  0  0  0  0  0
   -1.0272    0.7924   -0.1866 C   0  0  0  0  0  0  0  0  0  0  0  0
   -2.3258    1.4086   -0.2267 C   0  0  0  0  0  0  0  0  0  0  0  0
   -2.6288    2.8052    0.0518 C   0  0  0  0  0  0  0  0  0  0  0  0
   -1.6615    3.6449    0.6040 C   0  0  0  0  0  0  0  0  0  0  0  0
   -1.9352    4.9611    0.8875 C   0  0  0  0  0  0  0  0  0  0  0  0
   -3.1884    5.4749    0.6227 C   0  0  0  0  0  0  0  0  0  0  0  0
   -4.1638    4.6644    0.0763 C   0  0  0  0  0  0  0  0  0  0  0  0
   -3.8917    3.3452   -0.2051 C   0  0  0  0  0  0  0  0  0  0  0  0
   -3.2430    0.4066   -0.5356 C   0  0  0  0  0  0  0  0  0  0  0  0
   -2.5684   -0.8114   -0.6874 C   0  0  0  0  0  0  0  0  0  0  0  0
   -3.1858   -2.0975   -0.9810 C   0  0  0  0  0  0  0  0  0  0  0  0
   -2.4265   -3.1841   -1.4127 C   0  0  0  0  0  0  0  0  0  0  0  0
   -3.0083   -4.3996   -1.6846 C   0  0  0  0  0  0  0  0  0  0  0  0
   -4.3708   -4.5607   -1.5366 C   0  0  0  0  0  0  0  0  0  0  0  0
   -5.1457   -3.4986   -1.1154 C   0  0  0  0  0  0  0  0  0  0  0  0
   -4.5640   -2.2819   -0.8410 C   0  0  0  0  0  0  0  0  0  0  0  0
   -1.2394   -0.5331   -0.4696 N   0  0  0  0  0  4  0  0  0  0  0  0
    4.6018   -2.4514    1.3325 H   0  0  0  0  0  0  0  0  0  0  0  0
    5.2988   -4.7943    1.1897 H   0  0  0  0  0  0  0  0  0  0  0  0
    3.9369   -6.4133   -0.0606 H   0  0  0  0  0  0  0  0  0  0  0  0
    1.8759   -5.6744   -1.1815 H   0  0  0  0  0  0  0  0  0  0  0  0
    1.1951   -3.3205   -1.0559 H   0  0  0  0  0  0  0  0  0  0  0  0
    4.2928   -0.3068    0.8237 H   0  0  0  0  0  0  0  0  0  0  0  0
    4.8627    1.6670    1.6473 H   0  0  0  0  0  0  0  0  0  0  0  0
    5.6698    3.9440    2.0490 H   0  0  0  0  0  0  0  0  0  0  0  0
    4.2735    5.8743    1.4477 H   0  0  0  0  0  0  0  0  0  0  0  0
    2.0608    5.5194    0.4329 H   0  0  0  0  0  0  0  0  0  0  0  0
    1.2625    3.2352    0.0187 H   0  0  0  0  0  0  0  0  0  0  0  0
   -0.6936    3.2359    0.8183 H   0  0  0  0  0  0  0  0  0  0  0  0
   -1.1728    5.5905    1.3160 H   0  0  0  0  0  0  0  0  0  0  0  0
   -3.4058    6.5084    0.8428 H   0  0  0  0  0  0  0  0  0  0  0  0
   -5.1415    5.0671   -0.1305 H   0  0  0  0  0  0  0  0  0  0  0  0
   -4.6544    2.7214   -0.6360 H   0  0  0  0  0  0  0  0  0  0  0  0
   -4.3047    0.5443   -0.6312 H   0  0  0  0  0  0  0  0  0  0  0  0
   -1.3691   -3.0523   -1.5379 H   0  0  0  0  0  0  0  0  0  0  0  0
   -2.3998   -5.2259   -2.0134 H   0  0  0  0  0  0  0  0  0  0  0  0
   -4.8282   -5.5130   -1.7488 H   0  0  0  0  0  0  0  0  0  0  0  0
   -6.2095   -3.6243   -0.9978 H   0  0  0  0  0  0  0  0  0  0  0  0
   -5.1728   -1.4644   -0.4986 H   0  0  0  0  0  0  0  0  0  0  0  0
  1  2  1  0  0  0  0
  2  3  1  0  0  0  0
  2  4  1  0  0  0  0
  4  5  1  0  0  0  0
  5  6  1  0  0  0  0
  6  7  2  0  0  0  0
  7  8  1  0  0  0  0
  8  9  2  0  0  0  0
  9 10  1  0  0  0  0
 10 11  2  0  0  0  0
  5 12  2  0  0  0  0
 12 13  1  0  0  0  0
 13 14  1  0  0  0  0
 14 15  2  0  0  0  0
 15 16  1  0  0  0  0
 16 17  2  0  0  0  0
 17 18  1  0  0  0  0
 18 19  2  0  0  0  0
 13 20  2  0  0  0  0
 20 21  1  0  0  0  0
 21 22  2  0  0  0  0
 22 23  1  0  0  0  0
 23 24  1  0  0  0  0
 24 25  2  0  0  0  0
 25 26  1  0  0  0  0
 26 27  2  0  0  0  0
 27 28  1  0  0  0  0
 28 29  2  0  0  0  0
 23 30  2  0  0  0  0
 30 31  1  0  0  0  0
 31 32  1  0  0  0  0
 32 33  2  0  0  0  0
 33 34  1  0  0  0  0
 34 35  2  0  0  0  0
 35 36  1  0  0  0  0
 36 37  2  0  0  0  0
 31 38  2  0  0  0  0
 38  2  1  0  0  0  0
 20  4  1  0  0  0  0
 38 22  1  0  0  0  0
 11  6  1  0  0  0  0
 19 14  1  0  0  0  0
 29 24  1  0  0  0  0
 37 32  1  0  0  0  0
  7 39  1  0  0  0  0
  8 40  1  0  0  0  0
  9 41  1  0  0  0  0
 10 42  1  0  0  0  0
 11 43  1  0  0  0  0
 12 44  1  0  0  0  0
 15 45  1  0  0  0  0
 16 46  1  0  0  0  0
 17 47  1  0  0  0  0
 18 48  1  0  0  0  0
 19 49  1  0  0  0  0
 25 50  1  0  0  0  0
 26 51  1  0  0  0  0
 27 52  1  0  0  0  0
 28 53  1  0  0  0  0
 29 54  1  0  0  0  0
 30 55  1  0  0  0  0
 33 56  1  0  0  0  0
 34 57  1  0  0  0  0
 35 58  1  0  0  0  0
 36 59  1  0  0  0  0
 37 60  1  0  0  0  0
M  CHG  1   2  -1
M  CHG  1  38   1
M  END
