
  xtb     03012221213D
 energy: -6.110549761842 gnorm: 0.000213416582 xtb: 6.4.1 (afa7bdf)
 28 31  0     0  0            999 V2000
   -4.4824    0.0980   -0.3760 N   0  0  0  0  0  0  0  0  0  0  0  0
   -3.1041    0.0680   -0.2576 C   0  0  0  0  0  0  0  0  0  0  0  0
   -2.4271   -1.1512   -0.1705 C   0  0  0  0  0  0  0  0  0  0  0  0
   -1.0427   -1.2062   -0.0540 C   0  0  0  0  0  0  0  0  0  0  0  0
   -0.3309   -2.4459    0.0354 C   0  0  0  0  0  0  0  0  0  0  0  0
    1.0157   -2.4745    0.1461 C   0  0  0  0  0  0  0  0  0  0  0  0
    1.7844   -1.2673    0.1785 C   0  0  0  0  0  0  0  0  0  0  0  0
    3.1755   -1.2696    0.2910 C   0  0  0  0  0  0  0  0  0  0  0  0
    3.8824   -0.0851    0.3186 C   0  0  0  0  0  0  0  0  0  0  0  0
    3.2326    1.1292    0.2360 C   0  0  0  0  0  0  0  0  0  0  0  0
    1.8428    1.1880    0.1223 C   0  0  0  0  0  0  0  0  0  0  0  0
    1.1323    2.4276    0.0342 C   0  0  0  0  0  0  0  0  0  0  0  0
   -0.2143    2.4580   -0.0762 C   0  0  0  0  0  0  0  0  0  0  0  0
   -0.9842    1.2507   -0.1099 C   0  0  0  0  0  0  0  0  0  0  0  0
   -2.3698    1.2562   -0.2253 C   0  0  0  0  0  0  0  0  0  0  0  0
   -0.3084    0.0068   -0.0235 C   0  0  0  0  0  0  0  0  0  0  0  0
    1.1092   -0.0242    0.0929 C   0  0  0  0  0  0  0  0  0  0  0  0
   -5.0181    0.9533   -0.4364 H   0  0  0  0  0  0  0  0  0  0  0  0
   -5.0584   -0.7328   -0.3990 H   0  0  0  0  0  0  0  0  0  0  0  0
   -2.9928   -2.0641   -0.1953 H   0  0  0  0  0  0  0  0  0  0  0  0
   -0.8930   -3.3634    0.0124 H   0  0  0  0  0  0  0  0  0  0  0  0
    1.5344   -3.4152    0.2120 H   0  0  0  0  0  0  0  0  0  0  0  0
    3.6935   -2.2103    0.3560 H   0  0  0  0  0  0  0  0  0  0  0  0
    4.9571   -0.1087    0.4058 H   0  0  0  0  0  0  0  0  0  0  0  0
    3.7947    2.0463    0.2586 H   0  0  0  0  0  0  0  0  0  0  0  0
    1.6951    3.3447    0.0579 H   0  0  0  0  0  0  0  0  0  0  0  0
   -0.7322    3.3991   -0.1414 H   0  0  0  0  0  0  0  0  0  0  0  0
   -2.8914    2.1929   -0.2926 H   0  0  0  0  0  0  0  0  0  0  0  0
  1  2  1  0  0  0  0
  2  3  2  0  0  0  0
  3  4  1  0  0  0  0
  4  5  2  0  0  0  0
  5  6  1  0  0  0  0
  6  7  2  0  0  0  0
  7  8  1  0  0  0  0
  8  9  2  0  0  0  0
  9 10  1  0  0  0  0
 10 11  2  0  0  0  0
 11 12  1  0  0  0  0
 12 13  2  0  0  0  0
 13 14  1  0  0  0  0
 14 15  2  0  0  0  0
 14 16  1  0  0  0  0
 16 17  2  0  0  0  0
 15  2  1  0  0  0  0
 16  4  1  0  0  0  0
 17  7  1  0  0  0  0
 17 11  1  0  0  0  0
  1 18  1  0  0  0  0
  1 19  1  0  0  0  0
  3 20  1  0  0  0  0
  5 21  1  0  0  0  0
  6 22  1  0  0  0  0
  8 23  1  0  0  0  0
  9 24  1  0  0  0  0
 10 25  1  0  0  0  0
 12 26  1  0  0  0  0
 13 27  1  0  0  0  0
 15 28  1  0  0  0  0
M  END
