
  xtb     03012221323D
 energy: -4.450785442155 gnorm: 0.000280832359 xtb: 6.4.1 (afa7bdf)
 22 24  0     0  0            999 V2000
   -4.5253   -1.6506   -0.6495 O   0  0  0  0  0  0  0  0  0  0  0  0
   -3.4725   -1.0967   -0.3655 C   0  0  0  0  0  0  0  0  0  0  0  0
   -3.5203    0.0550    0.5058 C   0  0  0  0  0  0  0  0  0  0  0  0
   -2.4066    0.7117    0.8549 C   0  0  0  0  0  0  0  0  0  0  0  0
   -1.1427    0.2843    0.3690 C   0  0  0  0  0  0  0  0  0  0  0  0
    0.0484    0.9448    0.7066 C   0  0  0  0  0  0  0  0  0  0  0  0
    1.2359    0.4891    0.2056 C   0  0  0  0  0  0  0  0  0  0  0  0
    1.2854   -0.6374   -0.6485 C   0  0  0  0  0  0  0  0  0  0  0  0
    0.1161   -1.2916   -0.9834 C   0  0  0  0  0  0  0  0  0  0  0  0
   -1.1055   -0.8450   -0.4837 C   0  0  0  0  0  0  0  0  0  0  0  0
   -2.2552   -1.5282   -0.8426 O   0  0  0  0  0  0  0  0  0  0  0  0
    2.5801   -0.9423   -1.0521 O   0  0  0  0  0  0  0  0  0  0  0  0
    3.4666    0.0064   -0.4573 C   0  0  0  0  0  0  0  0  0  0  0  0
    2.6301    0.9825    0.3894 C   0  0  0  0  0  0  0  0  0  0  0  0
   -4.4858    0.3654    0.8634 H   0  0  0  0  0  0  0  0  0  0  0  0
   -2.4556    1.5684    1.5043 H   0  0  0  0  0  0  0  0  0  0  0  0
    0.0281    1.8026    1.3533 H   0  0  0  0  0  0  0  0  0  0  0  0
    0.1435   -2.1476   -1.6303 H   0  0  0  0  0  0  0  0  0  0  0  0
    4.0066    0.5085   -1.2705 H   0  0  0  0  0  0  0  0  0  0  0  0
    4.1957   -0.5543    0.1419 H   0  0  0  0  0  0  0  0  0  0  0  0
    2.9110    0.9583    1.4481 H   0  0  0  0  0  0  0  0  0  0  0  0
    2.7219    2.0171    0.0408 H   0  0  0  0  0  0  0  0  0  0  0  0
  1  2  2  0  0  0  0
  2  3  1  0  0  0  0
  3  4  2  0  0  0  0
  4  5  1  0  0  0  0
  5  6  2  0  0  0  0
  6  7  1  0  0  0  0
  7  8  2  0  0  0  0
  8  9  1  0  0  0  0
  9 10  2  0  0  0  0
 10 11  1  0  0  0  0
  8 12  1  0  0  0  0
 12 13  1  0  0  0  0
 13 14  1  0  0  0  0
 11  2  1  0  0  0  0
 10  5  1  0  0  0  0
 14  7  1  0  0  0  0
  3 15  1  0  0  0  0
  4 16  1  0  0  0  0
  6 17  1  0  0  0  0
  9 18  1  0  0  0  0
 13 19  1  0  0  0  0
 13 20  1  0  0  0  0
 14 21  1  0  0  0  0
 14 22  1  0  0  0  0
M  END
