
  xtb     03012221313D
 energy: -15.775703371689 gnorm: 0.000460703541 xtb: 6.4.1 (afa7bdf)
 72 80  0     0  0            999 V2000
    8.2904    0.9529   -1.8921 C   0  0  0  0  0  0  0  0  0  0  0  0
    6.8489    0.7821   -1.5586 C   0  0  0  0  0  0  0  0  0  0  0  0
    6.2823    1.4838   -0.5027 C   0  0  0  0  0  0  0  0  0  0  0  0
    4.9498    1.3462   -0.2029 C   0  0  0  0  0  0  0  0  0  0  0  0
    4.1229    0.5049   -0.9537 C   0  0  0  0  0  0  0  0  0  0  0  0
    2.6883    0.3426   -0.6280 C   0  0  0  0  0  0  0  0  0  0  0  0
    1.8599    1.4943   -0.5268 C   0  0  0  0  0  0  0  0  0  0  0  0
    0.5542    1.5472   -0.1817 N   0  0  0  0  0  0  0  0  0  0  0  0
    0.2125    2.8567   -0.1769 C   0  0  0  0  0  0  0  0  0  0  0  0
   -1.0446    3.4277    0.1557 C   0  0  0  0  0  0  0  0  0  0  0  0
   -1.1430    4.8764    0.2743 C   0  0  0  0  0  0  0  0  0  0  0  0
   -2.0343    5.5798    1.0944 C   0  0  0  0  0  0  0  0  0  0  0  0
   -1.7813    6.9247    0.9236 C   0  0  0  0  0  0  0  0  0  0  0  0
   -0.7489    7.0240    0.0156 C   0  0  0  0  0  0  0  0  0  0  0  0
   -0.3460    5.7944   -0.3816 O   0  0  0  0  0  0  0  0  0  0  0  0
   -2.2019    2.6221    0.3311 C   0  0  0  0  0  0  0  0  0  0  0  0
   -3.5346    3.0934    0.3593 C   0  0  0  0  0  0  0  0  0  0  0  0
   -4.3623    2.0207    0.4988 C   0  0  0  0  0  0  0  0  0  0  0  0
   -3.5749    0.8516    0.5595 C   0  0  0  0  0  0  0  0  0  0  0  0
   -2.2611    1.2492    0.4417 N   0  0  0  0  0  0  0  0  0  0  0  0
   -4.0885   -0.4603    0.6962 C   0  0  0  0  0  0  0  0  0  0  0  0
   -5.5337   -0.6251    0.7224 C   0  0  0  0  0  0  0  0  0  0  0  0
   -6.2549   -1.7527    0.3061 C   0  0  0  0  0  0  0  0  0  0  0  0
   -7.5946   -1.4753    0.4755 C   0  0  0  0  0  0  0  0  0  0  0  0
   -7.6753   -0.1958    0.9815 C   0  0  0  0  0  0  0  0  0  0  0  0
   -6.4384    0.3354    1.1284 O   0  0  0  0  0  0  0  0  0  0  0  0
   -3.2276   -1.5878    0.8179 C   0  0  0  0  0  0  0  0  0  0  0  0
   -1.9056   -1.6411    0.5364 N   0  0  0  0  0  0  0  0  0  0  0  0
   -1.5236   -2.9221    0.7370 C   0  0  0  0  0  0  0  0  0  0  0  0
   -0.2544   -3.5059    0.4706 C   0  0  0  0  0  0  0  0  0  0  0  0
   -0.1267   -4.9553    0.5770 C   0  0  0  0  0  0  0  0  0  0  0  0
    0.7016   -5.7776   -0.1973 C   0  0  0  0  0  0  0  0  0  0  0  0
    0.4964   -7.0777    0.2148 C   0  0  0  0  0  0  0  0  0  0  0  0
   -0.4461   -7.0337    1.2197 C   0  0  0  0  0  0  0  0  0  0  0  0
   -0.8400   -5.7585    1.4456 O   0  0  0  0  0  0  0  0  0  0  0  0
    0.8666   -2.7163    0.1140 C   0  0  0  0  0  0  0  0  0  0  0  0
    2.1981   -3.1802   -0.0022 C   0  0  0  0  0  0  0  0  0  0  0  0
    2.9979   -2.1219   -0.3100 C   0  0  0  0  0  0  0  0  0  0  0  0
    2.1931   -0.9618   -0.3829 C   0  0  0  0  0  0  0  0  0  0  0  0
    0.9008   -1.3552   -0.1112 N   0  0  0  0  0  0  0  0  0  0  0  0
   -2.6282   -3.6943    1.2080 C   0  0  0  0  0  0  0  0  0  0  0  0
   -3.6836   -2.8676    1.2687 C   0  0  0  0  0  0  0  0  0  0  0  0
    1.3381    3.6555   -0.5469 C   0  0  0  0  0  0  0  0  0  0  0  0
    2.3557    2.8122   -0.7801 C   0  0  0  0  0  0  0  0  0  0  0  0
    4.7038   -0.1934   -2.0166 C   0  0  0  0  0  0  0  0  0  0  0  0
    6.0367   -0.0540   -2.3141 C   0  0  0  0  0  0  0  0  0  0  0  0
    8.4482    1.8635   -2.4706 H   0  0  0  0  0  0  0  0  0  0  0  0
    8.8958    1.0189   -0.9876 H   0  0  0  0  0  0  0  0  0  0  0  0
    8.6630    0.1130   -2.4790 H   0  0  0  0  0  0  0  0  0  0  0  0
    6.9030    2.1383    0.0838 H   0  0  0  0  0  0  0  0  0  0  0  0
    4.5263    1.8751    0.6354 H   0  0  0  0  0  0  0  0  0  0  0  0
   -2.7444    5.1486    1.7811 H   0  0  0  0  0  0  0  0  0  0  0  0
   -2.2854    7.7401    1.4151 H   0  0  0  0  0  0  0  0  0  0  0  0
   -0.3053    7.9469   -0.3371 H   0  0  0  0  0  0  0  0  0  0  0  0
   -3.8516    4.1135    0.2268 H   0  0  0  0  0  0  0  0  0  0  0  0
   -5.4379    2.0450    0.5537 H   0  0  0  0  0  0  0  0  0  0  0  0
   -1.4515    0.6164    0.4116 H   0  0  0  0  0  0  0  0  0  0  0  0
   -5.8416   -2.6492   -0.1274 H   0  0  0  0  0  0  0  0  0  0  0  0
   -8.4195   -2.1279    0.2434 H   0  0  0  0  0  0  0  0  0  0  0  0
   -8.5898    0.3298    1.2266 H   0  0  0  0  0  0  0  0  0  0  0  0
    1.3312   -5.4614   -1.0130 H   0  0  0  0  0  0  0  0  0  0  0  0
    0.9716   -7.9596   -0.1813 H   0  0  0  0  0  0  0  0  0  0  0  0
   -0.8343   -7.8882    1.7600 H   0  0  0  0  0  0  0  0  0  0  0  0
    2.5413   -4.1824    0.1921 H   0  0  0  0  0  0  0  0  0  0  0  0
    4.0686   -2.1519   -0.4256 H   0  0  0  0  0  0  0  0  0  0  0  0
    0.0946   -0.7218   -0.0347 H   0  0  0  0  0  0  0  0  0  0  0  0
   -2.6014   -4.7344    1.4840 H   0  0  0  0  0  0  0  0  0  0  0  0
   -4.6649   -3.1121    1.6423 H   0  0  0  0  0  0  0  0  0  0  0  0
    1.3493    4.7280   -0.6447 H   0  0  0  0  0  0  0  0  0  0  0  0
    3.3479    3.0779   -1.1057 H   0  0  0  0  0  0  0  0  0  0  0  0
    4.0794   -0.8371   -2.6146 H   0  0  0  0  0  0  0  0  0  0  0  0
    6.4633   -0.5931   -3.1416 H   0  0  0  0  0  0  0  0  0  0  0  0
  1  2  1  0  0  0  0
  2  3  2  0  0  0  0
  3  4  1  0  0  0  0
  4  5  2  0  0  0  0
  5  6  1  0  0  0  0
  6  7  1  0  0  0  0
  7  8  2  0  0  0  0
  8  9  1  0  0  0  0
  9 10  2  0  0  0  0
 10 11  1  0  0  0  0
 11 12  2  0  0  0  0
 12 13  1  0  0  0  0
 13 14  2  0  0  0  0
 14 15  1  0  0  0  0
 10 16  1  0  0  0  0
 16 17  2  0  0  0  0
 17 18  1  0  0  0  0
 18 19  2  0  0  0  0
 19 20  1  0  0  0  0
 19 21  1  0  0  0  0
 21 22  1  0  0  0  0
 22 23  2  0  0  0  0
 23 24  1  0  0  0  0
 24 25  2  0  0  0  0
 25 26  1  0  0  0  0
 21 27  2  0  0  0  0
 27 28  1  0  0  0  0
 28 29  2  0  0  0  0
 29 30  1  0  0  0  0
 30 31  1  0  0  0  0
 31 32  2  0  0  0  0
 32 33  1  0  0  0  0
 33 34  2  0  0  0  0
 34 35  1  0  0  0  0
 30 36  2  0  0  0  0
 36 37  1  0  0  0  0
 37 38  2  0  0  0  0
 38 39  1  0  0  0  0
 39 40  1  0  0  0  0
 29 41  1  0  0  0  0
 41 42  2  0  0  0  0
  9 43  1  0  0  0  0
 43 44  2  0  0  0  0
  5 45  1  0  0  0  0
 45 46  2  0  0  0  0
 46  2  1  0  0  0  0
 39  6  2  0  0  0  0
 44  7  1  0  0  0  0
 15 11  1  0  0  0  0
 20 16  1  0  0  0  0
 26 22  1  0  0  0  0
 42 27  1  0  0  0  0
 35 31  1  0  0  0  0
 40 36  1  0  0  0  0
  1 47  1  0  0  0  0
  1 48  1  0  0  0  0
  1 49  1  0  0  0  0
  3 50  1  0  0  0  0
  4 51  1  0  0  0  0
 12 52  1  0  0  0  0
 13 53  1  0  0  0  0
 14 54  1  0  0  0  0
 17 55  1  0  0  0  0
 18 56  1  0  0  0  0
 20 57  1  0  0  0  0
 23 58  1  0  0  0  0
 24 59  1  0  0  0  0
 25 60  1  0  0  0  0
 32 61  1  0  0  0  0
 33 62  1  0  0  0  0
 34 63  1  0  0  0  0
 37 64  1  0  0  0  0
 38 65  1  0  0  0  0
 40 66  1  0  0  0  0
 41 67  1  0  0  0  0
 42 68  1  0  0  0  0
 43 69  1  0  0  0  0
 44 70  1  0  0  0  0
 45 71  1  0  0  0  0
 46 72  1  0  0  0  0
M  END
