
  xtb     03012221203D
 energy: -8.595845635154 gnorm: 0.000322902107 xtb: 6.4.1 (afa7bdf)
 45 48  0     0  0            999 V2000
    3.4752    0.2088   -0.1955 C   0  0  0  0  0  0  0  0  0  0  0  0
    2.0838   -0.1097   -0.2005 C   0  0  0  0  0  0  0  0  0  0  0  0
    1.1137    0.8249   -0.1338 C   0  0  0  0  0  0  0  0  0  0  0  0
   -0.3088    0.5658   -0.1385 C   0  0  0  0  0  0  0  0  0  0  0  0
   -1.2068    1.6375   -0.0988 C   0  0  0  0  0  0  0  0  0  0  0  0
   -2.5704    1.4458   -0.1079 C   0  0  0  0  0  0  0  0  0  0  0  0
   -3.0912    0.1359   -0.1528 C   0  0  0  0  0  0  0  0  0  0  0  0
   -2.1977   -0.9553   -0.1866 C   0  0  0  0  0  0  0  0  0  0  0  0
   -0.8393   -0.7277   -0.1821 C   0  0  0  0  0  0  0  0  0  0  0  0
   -2.7169   -2.3645   -0.2272 C   0  0  0  0  0  0  0  0  0  0  0  0
   -4.1272   -2.4892    0.3666 C   0  0  0  0  0  0  0  0  0  0  0  0
   -5.0592   -1.4325   -0.2230 C   0  0  0  0  0  0  0  0  0  0  0  0
   -4.4733   -0.0777   -0.1637 N   0  0  0  0  0  0  0  0  0  0  0  0
   -5.4442    1.0351   -0.1234 C   0  0  0  0  0  0  0  0  0  0  0  0
   -4.8643    2.3308   -0.6877 C   0  0  0  0  0  0  0  0  0  0  0  0
   -3.4916    2.6316   -0.0697 C   0  0  0  0  0  0  0  0  0  0  0  0
    4.4445   -0.7232   -0.2786 C   0  0  0  0  0  0  0  0  0  0  0  0
    5.8680   -0.4566   -0.2810 C   0  0  0  0  0  0  0  0  0  0  0  0
    6.4107    0.8194   -0.1704 C   0  0  0  0  0  0  0  0  0  0  0  0
    7.7735    0.9786   -0.1824 C   0  0  0  0  0  0  0  0  0  0  0  0
    8.6494   -0.0074   -0.2941 N   0  0  0  0  0  0  0  0  0  0  0  0
    8.1283   -1.2195   -0.3988 C   0  0  0  0  0  0  0  0  0  0  0  0
    6.7847   -1.4959   -0.3977 C   0  0  0  0  0  0  0  0  0  0  0  0
    3.7452    1.2465   -0.1255 H   0  0  0  0  0  0  0  0  0  0  0  0
    1.8153   -1.1479   -0.2660 H   0  0  0  0  0  0  0  0  0  0  0  0
    1.4153    1.8564   -0.0761 H   0  0  0  0  0  0  0  0  0  0  0  0
   -0.8201    2.6401   -0.0617 H   0  0  0  0  0  0  0  0  0  0  0  0
   -0.1781   -1.5733   -0.2110 H   0  0  0  0  0  0  0  0  0  0  0  0
   -2.7201   -2.7078   -1.2685 H   0  0  0  0  0  0  0  0  0  0  0  0
   -2.0174   -3.0247    0.3016 H   0  0  0  0  0  0  0  0  0  0  0  0
   -4.5316   -3.4981    0.2033 H   0  0  0  0  0  0  0  0  0  0  0  0
   -4.0771   -2.3615    1.4550 H   0  0  0  0  0  0  0  0  0  0  0  0
   -6.0222   -1.4209    0.2993 H   0  0  0  0  0  0  0  0  0  0  0  0
   -5.2769   -1.6573   -1.2718 H   0  0  0  0  0  0  0  0  0  0  0  0
   -6.3426    0.7342   -0.6737 H   0  0  0  0  0  0  0  0  0  0  0  0
   -5.7500    1.1747    0.9183 H   0  0  0  0  0  0  0  0  0  0  0  0
   -5.5567    3.1685   -0.5236 H   0  0  0  0  0  0  0  0  0  0  0  0
   -4.7622    2.2389   -1.7761 H   0  0  0  0  0  0  0  0  0  0  0  0
   -3.0161    3.4775   -0.5826 H   0  0  0  0  0  0  0  0  0  0  0  0
   -3.6145    2.9476    0.9731 H   0  0  0  0  0  0  0  0  0  0  0  0
    4.1466   -1.7547   -0.3532 H   0  0  0  0  0  0  0  0  0  0  0  0
    5.7688    1.6765   -0.0741 H   0  0  0  0  0  0  0  0  0  0  0  0
    8.1875    1.9719   -0.0956 H   0  0  0  0  0  0  0  0  0  0  0  0
    8.8327   -2.0324   -0.4908 H   0  0  0  0  0  0  0  0  0  0  0  0
    6.4333   -2.5093   -0.4875 H   0  0  0  0  0  0  0  0  0  0  0  0
  1  2  1  0  0  0  0
  2  3  2  0  0  0  0
  3  4  1  0  0  0  0
  4  5  2  0  0  0  0
  5  6  1  0  0  0  0
  6  7  2  0  0  0  0
  7  8  1  0  0  0  0
  8  9  2  0  0  0  0
  8 10  1  0  0  0  0
 10 11  1  0  0  0  0
 11 12  1  0  0  0  0
 12 13  1  0  0  0  0
 13 14  1  0  0  0  0
 14 15  1  0  0  0  0
 15 16  1  0  0  0  0
  1 17  2  0  0  0  0
 17 18  1  0  0  0  0
 18 19  2  0  0  0  0
 19 20  1  0  0  0  0
 20 21  2  0  0  0  0
 21 22  1  0  0  0  0
 22 23  2  0  0  0  0
  9  4  1  0  0  0  0
 23 18  1  0  0  0  0
 16  6  1  0  0  0  0
 13  7  1  0  0  0  0
  1 24  1  0  0  0  0
  2 25  1  0  0  0  0
  3 26  1  0  0  0  0
  5 27  1  0  0  0  0
  9 28  1  0  0  0  0
 10 29  1  0  0  0  0
 10 30  1  0  0  0  0
 11 31  1  0  0  0  0
 11 32  1  0  0  0  0
 12 33  1  0  0  0  0
 12 34  1  0  0  0  0
 14 35  1  0  0  0  0
 14 36  1  0  0  0  0
 15 37  1  0  0  0  0
 15 38  1  0  0  0  0
 16 39  1  0  0  0  0
 16 40  1  0  0  0  0
 17 41  1  0  0  0  0
 19 42  1  0  0  0  0
 20 43  1  0  0  0  0
 22 44  1  0  0  0  0
 23 45  1  0  0  0  0
M  END
