
  xtb     03012221243D
 energy: -13.621095774644 gnorm: 0.000290697772 xtb: 6.4.1 (afa7bdf)
 71 77  0     0  0            999 V2000
    8.5190    0.2023   -0.0468 C   0  0  0  0  0  0  0  0  0  0  0  0
    7.5752   -0.8004    0.2119 C   0  0  0  0  0  0  0  0  0  0  0  0
    6.2283   -0.4787    0.1833 C   0  0  0  0  0  0  0  0  0  0  0  0
    5.8884    0.8549   -0.1094 C   0  0  0  0  0  0  0  0  0  0  0  0
    4.5007    0.9837   -0.0885 C   0  0  0  0  0  0  0  0  0  0  0  0
    3.9771    2.2404   -0.3422 C   0  0  0  0  0  0  0  0  0  0  0  0
    4.8558    3.3018   -0.6096 C   0  0  0  0  0  0  0  0  0  0  0  0
    6.2253    3.1439   -0.6275 C   0  0  0  0  0  0  0  0  0  0  0  0
    6.7978    1.8782   -0.3681 C   0  0  0  0  0  0  0  0  0  0  0  0
    8.1609    1.5046   -0.3291 C   0  0  0  0  0  0  0  0  0  0  0  0
    4.0424   -0.3756    0.2346 C   0  0  0  0  0  0  0  0  0  0  0  0
    2.7234   -0.7919    0.3596 N   0  0  0  0  0  0  0  0  0  0  0  0
    2.4322   -2.1938    0.6776 C   0  0  0  0  0  0  0  0  0  0  0  0
    2.3023   -3.0395   -0.5823 C   0  0  0  0  0  0  0  0  0  0  0  0
    1.6257   -4.2721   -0.3767 O   0  0  0  0  0  0  0  0  0  0  0  0
    0.2201   -4.1349   -0.2088 C   0  0  0  0  0  0  0  0  0  0  0  0
   -0.5153   -3.7869   -1.4981 C   0  0  0  0  0  0  0  0  0  0  0  0
   -1.9169   -3.6414   -1.3096 O   0  0  0  0  0  0  0  0  0  0  0  0
   -2.2907   -2.3882   -0.7495 C   0  0  0  0  0  0  0  0  0  0  0  0
   -2.3055   -1.2581   -1.7637 C   0  0  0  0  0  0  0  0  0  0  0  0
   -2.6468    0.0353   -1.1537 N   0  0  0  0  0  0  0  0  0  0  0  0
   -3.9585    0.2585   -0.7517 C   0  0  0  0  0  0  0  0  0  0  0  0
   -4.9022   -0.6696   -0.8631 N   0  0  0  0  0  0  0  0  0  0  0  0
   -6.0725   -0.1464   -0.3468 C   0  0  0  0  0  0  0  0  0  0  0  0
   -7.3568   -0.6425   -0.1963 C   0  0  0  0  0  0  0  0  0  0  0  0
   -8.3382    0.1753    0.3791 C   0  0  0  0  0  0  0  0  0  0  0  0
   -8.0774    1.4625    0.8021 C   0  0  0  0  0  0  0  0  0  0  0  0
   -6.7809    2.0100    0.6669 C   0  0  0  0  0  0  0  0  0  0  0  0
   -6.3126    3.2942    1.0248 C   0  0  0  0  0  0  0  0  0  0  0  0
   -4.9975    3.6394    0.7982 C   0  0  0  0  0  0  0  0  0  0  0  0
   -4.0745    2.7559    0.2171 C   0  0  0  0  0  0  0  0  0  0  0  0
   -4.4936    1.4850   -0.1400 C   0  0  0  0  0  0  0  0  0  0  0  0
   -5.8300    1.1665    0.0960 C   0  0  0  0  0  0  0  0  0  0  0  0
   -1.5374    0.9480   -0.8372 C   0  0  0  0  0  0  0  0  0  0  0  0
   -1.1950    0.9470    0.6439 C   0  0  0  0  0  0  0  0  0  0  0  0
   -0.0192    1.7002    0.9398 O   0  0  0  0  0  0  0  0  0  0  0  0
    1.1122    0.8863    1.2186 C   0  0  0  0  0  0  0  0  0  0  0  0
    1.5639    0.0501    0.0363 C   0  0  0  0  0  0  0  0  0  0  0  0
    5.0695   -1.2030    0.3907 N   0  0  0  0  0  0  0  0  0  0  0  0
    9.5654   -0.0566   -0.0226 H   0  0  0  0  0  0  0  0  0  0  0  0
    7.8747   -1.8090    0.4319 H   0  0  0  0  0  0  0  0  0  0  0  0
    2.9163    2.4054   -0.3247 H   0  0  0  0  0  0  0  0  0  0  0  0
    4.4417    4.2769   -0.8055 H   0  0  0  0  0  0  0  0  0  0  0  0
    6.8728    3.9786   -0.8347 H   0  0  0  0  0  0  0  0  0  0  0  0
    8.9122    2.2510   -0.5217 H   0  0  0  0  0  0  0  0  0  0  0  0
    1.5159   -2.2233    1.2696 H   0  0  0  0  0  0  0  0  0  0  0  0
    3.2223   -2.5826    1.3257 H   0  0  0  0  0  0  0  0  0  0  0  0
    3.2935   -3.2764   -0.9863 H   0  0  0  0  0  0  0  0  0  0  0  0
    1.7847   -2.4829   -1.3682 H   0  0  0  0  0  0  0  0  0  0  0  0
    0.0255   -3.3960    0.5714 H   0  0  0  0  0  0  0  0  0  0  0  0
   -0.1480   -5.0907    0.1798 H   0  0  0  0  0  0  0  0  0  0  0  0
   -0.1277   -2.8715   -1.9507 H   0  0  0  0  0  0  0  0  0  0  0  0
   -0.3699   -4.5828   -2.2365 H   0  0  0  0  0  0  0  0  0  0  0  0
   -3.2909   -2.5175   -0.3197 H   0  0  0  0  0  0  0  0  0  0  0  0
   -1.6238   -2.1566    0.0854 H   0  0  0  0  0  0  0  0  0  0  0  0
   -1.3427   -1.1738   -2.2705 H   0  0  0  0  0  0  0  0  0  0  0  0
   -3.0406   -1.4708   -2.5444 H   0  0  0  0  0  0  0  0  0  0  0  0
   -7.5807   -1.6420   -0.5223 H   0  0  0  0  0  0  0  0  0  0  0  0
   -9.3354   -0.2185    0.4930 H   0  0  0  0  0  0  0  0  0  0  0  0
   -8.8555    2.0652    1.2381 H   0  0  0  0  0  0  0  0  0  0  0  0
   -6.9965    3.9951    1.4718 H   0  0  0  0  0  0  0  0  0  0  0  0
   -4.6627    4.6250    1.0762 H   0  0  0  0  0  0  0  0  0  0  0  0
   -3.0599    3.0654    0.0516 H   0  0  0  0  0  0  0  0  0  0  0  0
   -0.6634    0.6605   -1.4245 H   0  0  0  0  0  0  0  0  0  0  0  0
   -1.7923    1.9523   -1.1807 H   0  0  0  0  0  0  0  0  0  0  0  0
   -2.0141    1.3726    1.2334 H   0  0  0  0  0  0  0  0  0  0  0  0
   -1.0674   -0.0767    1.0109 H   0  0  0  0  0  0  0  0  0  0  0  0
    1.9163    1.5514    1.5504 H   0  0  0  0  0  0  0  0  0  0  0  0
    0.8721    0.2505    2.0777 H   0  0  0  0  0  0  0  0  0  0  0  0
    1.8058    0.6793   -0.8224 H   0  0  0  0  0  0  0  0  0  0  0  0
    0.7535   -0.6028   -0.2947 H   0  0  0  0  0  0  0  0  0  0  0  0
  1  2  2  0  0  0  0
  2  3  1  0  0  0  0
  3  4  2  0  0  0  0
  4  5  1  0  0  0  0
  5  6  2  0  0  0  0
  6  7  1  0  0  0  0
  7  8  2  0  0  0  0
  8  9  1  0  0  0  0
  9 10  2  0  0  0  0
  5 11  1  0  0  0  0
 11 12  1  0  0  0  0
 12 13  1  0  0  0  0
 13 14  1  0  0  0  0
 14 15  1  0  0  0  0
 15 16  1  0  0  0  0
 16 17  1  0  0  0  0
 17 18  1  0  0  0  0
 18 19  1  0  0  0  0
 19 20  1  0  0  0  0
 20 21  1  0  0  0  0
 21 22  1  0  0  0  0
 22 23  2  0  0  0  0
 23 24  1  0  0  0  0
 24 25  1  0  0  0  0
 25 26  2  0  0  0  0
 26 27  1  0  0  0  0
 27 28  2  0  0  0  0
 28 29  1  0  0  0  0
 29 30  2  0  0  0  0
 30 31  1  0  0  0  0
 31 32  2  0  0  0  0
 32 33  1  0  0  0  0
 21 34  1  0  0  0  0
 34 35  1  0  0  0  0
 35 36  1  0  0  0  0
 36 37  1  0  0  0  0
 37 38  1  0  0  0  0
 11 39  2  0  0  0  0
 10  1  1  0  0  0  0
 38 12  1  0  0  0  0
 39  3  1  0  0  0  0
  9  4  1  0  0  0  0
 32 22  1  0  0  0  0
 33 24  2  0  0  0  0
 33 28  1  0  0  0  0
  1 40  1  0  0  0  0
  2 41  1  0  0  0  0
  6 42  1  0  0  0  0
  7 43  1  0  0  0  0
  8 44  1  0  0  0  0
 10 45  1  0  0  0  0
 13 46  1  0  0  0  0
 13 47  1  0  0  0  0
 14 48  1  0  0  0  0
 14 49  1  0  0  0  0
 16 50  1  0  0  0  0
 16 51  1  0  0  0  0
 17 52  1  0  0  0  0
 17 53  1  0  0  0  0
 19 54  1  0  0  0  0
 19 55  1  0  0  0  0
 20 56  1  0  0  0  0
 20 57  1  0  0  0  0
 25 58  1  0  0  0  0
 26 59  1  0  0  0  0
 27 60  1  0  0  0  0
 29 61  1  0  0  0  0
 30 62  1  0  0  0  0
 31 63  1  0  0  0  0
 34 64  1  0  0  0  0
 34 65  1  0  0  0  0
 35 66  1  0  0  0  0
 35 67  1  0  0  0  0
 37 68  1  0  0  0  0
 37 69  1  0  0  0  0
 38 70  1  0  0  0  0
 38 71  1  0  0  0  0
M  END
