
  xtb     03012221243D
 energy: -8.266549685026 gnorm: 0.000103154854 xtb: 6.4.1 (afa7bdf)
 41 43  0     0  0            999 V2000
    8.5611    1.1139   -0.0434 C   0  0  0  0  0  0  0  0  0  0  0  0
    7.8233   -0.0552   -0.3048 O   0  0  0  0  0  0  0  0  0  0  0  0
    6.4405    0.0925   -0.2112 C   0  0  0  0  0  0  0  0  0  0  0  0
    5.7845    1.2852    0.1148 C   0  0  0  0  0  0  0  0  0  0  0  0
    4.4156    1.3401    0.1835 C   0  0  0  0  0  0  0  0  0  0  0  0
    3.6282    0.2123   -0.0684 C   0  0  0  0  0  0  0  0  0  0  0  0
    2.1837    0.3161    0.0141 C   0  0  0  0  0  0  0  0  0  0  0  0
    1.3172   -0.6868   -0.2046 C   0  0  0  0  0  0  0  0  0  0  0  0
   -0.1289   -0.5840   -0.1236 C   0  0  0  0  0  0  0  0  0  0  0  0
   -0.9234   -1.6936   -0.3770 C   0  0  0  0  0  0  0  0  0  0  0  0
   -2.2817   -1.5705   -0.2943 C   0  0  0  0  0  0  0  0  0  0  0  0
   -2.8533   -0.3454    0.0408 C   0  0  0  0  0  0  0  0  0  0  0  0
   -4.3158   -0.1753    0.1405 C   0  0  0  0  0  0  0  0  0  0  0  0
   -5.1917   -1.2342   -0.0822 C   0  0  0  0  0  0  0  0  0  0  0  0
   -6.5432   -1.0391    0.0183 C   0  0  0  0  0  0  0  0  0  0  0  0
   -7.0108    0.2196    0.3374 C   0  0  0  0  0  0  0  0  0  0  0  0
   -8.4645    0.4978    0.4891 C   0  0  0  0  0  0  0  0  0  0  0  0
   -6.0696    1.2063    0.5502 C   0  0  0  0  0  0  0  0  0  0  0  0
   -4.7610    1.0454    0.4591 N   0  0  0  0  0  0  0  0  0  0  0  0
   -2.1010    0.7350    0.2878 N   0  0  0  0  0  0  0  0  0  0  0  0
   -0.7931    0.5935    0.2021 C   0  0  0  0  0  0  0  0  0  0  0  0
    4.2828   -0.9796   -0.3935 C   0  0  0  0  0  0  0  0  0  0  0  0
    5.6511   -1.0355   -0.4623 C   0  0  0  0  0  0  0  0  0  0  0  0
    9.6221    0.8833   -0.1455 H   0  0  0  0  0  0  0  0  0  0  0  0
    8.2969    1.8890   -0.7637 H   0  0  0  0  0  0  0  0  0  0  0  0
    8.3697    1.4543    0.9749 H   0  0  0  0  0  0  0  0  0  0  0  0
    6.3593    2.1708    0.3143 H   0  0  0  0  0  0  0  0  0  0  0  0
    3.9291    2.2666    0.4356 H   0  0  0  0  0  0  0  0  0  0  0  0
    1.7953    1.2838    0.2719 H   0  0  0  0  0  0  0  0  0  0  0  0
    1.7045   -1.6542   -0.4631 H   0  0  0  0  0  0  0  0  0  0  0  0
   -0.4667   -2.6343   -0.6350 H   0  0  0  0  0  0  0  0  0  0  0  0
   -2.9000   -2.4261   -0.4913 H   0  0  0  0  0  0  0  0  0  0  0  0
   -4.8184   -2.2101   -0.3313 H   0  0  0  0  0  0  0  0  0  0  0  0
   -7.2354   -1.8474   -0.1455 H   0  0  0  0  0  0  0  0  0  0  0  0
   -9.0653   -0.2429   -0.0393 H   0  0  0  0  0  0  0  0  0  0  0  0
   -8.7190    1.4789    0.0868 H   0  0  0  0  0  0  0  0  0  0  0  0
   -8.7543    0.4783    1.5401 H   0  0  0  0  0  0  0  0  0  0  0  0
   -6.4117    2.1939    0.8139 H   0  0  0  0  0  0  0  0  0  0  0  0
   -0.2163    1.4788    0.4065 H   0  0  0  0  0  0  0  0  0  0  0  0
    3.7097   -1.8666   -0.5930 H   0  0  0  0  0  0  0  0  0  0  0  0
    6.1505   -1.9544   -0.7128 H   0  0  0  0  0  0  0  0  0  0  0  0
  1  2  1  0  0  0  0
  2  3  1  0  0  0  0
  3  4  2  0  0  0  0
  4  5  1  0  0  0  0
  5  6  2  0  0  0  0
  6  7  1  0  0  0  0
  7  8  2  0  0  0  0
  8  9  1  0  0  0  0
  9 10  2  0  0  0  0
 10 11  1  0  0  0  0
 11 12  2  0  0  0  0
 12 13  1  0  0  0  0
 13 14  2  0  0  0  0
 14 15  1  0  0  0  0
 15 16  2  0  0  0  0
 16 17  1  0  0  0  0
 16 18  1  0  0  0  0
 18 19  2  0  0  0  0
 12 20  1  0  0  0  0
 20 21  2  0  0  0  0
  6 22  1  0  0  0  0
 22 23  2  0  0  0  0
 23  3  1  0  0  0  0
 21  9  1  0  0  0  0
 19 13  1  0  0  0  0
  1 24  1  0  0  0  0
  1 25  1  0  0  0  0
  1 26  1  0  0  0  0
  4 27  1  0  0  0  0
  5 28  1  0  0  0  0
  7 29  1  0  0  0  0
  8 30  1  0  0  0  0
 10 31  1  0  0  0  0
 11 32  1  0  0  0  0
 14 33  1  0  0  0  0
 15 34  1  0  0  0  0
 17 35  1  0  0  0  0
 17 36  1  0  0  0  0
 17 37  1  0  0  0  0
 18 38  1  0  0  0  0
 21 39  1  0  0  0  0
 22 40  1  0  0  0  0
 23 41  1  0  0  0  0
M  END
