
  xtb     03012221313D
 energy: -12.864737435539 gnorm: 0.000316376881 xtb: 6.4.1 (afa7bdf)
 62 67  0     0  0            999 V2000
   11.4916   -0.1096   -2.2684 C   0  0  0  0  0  0  0  0  0  0  0  0
   11.0672   -0.2470   -0.8754 N   0  0  0  0  0  0  0  0  0  0  0  0
   12.1205   -0.4381    0.1214 C   0  0  0  0  0  0  0  0  0  0  0  0
    9.7121   -0.2036   -0.5128 C   0  0  0  0  0  0  0  0  0  0  0  0
    8.7075   -0.0727   -1.4790 C   0  0  0  0  0  0  0  0  0  0  0  0
    7.3819   -0.0306   -1.1261 C   0  0  0  0  0  0  0  0  0  0  0  0
    6.9895   -0.1165    0.2142 C   0  0  0  0  0  0  0  0  0  0  0  0
    5.6016   -0.0753    0.6284 C   0  0  0  0  0  0  0  0  0  0  0  0
    4.5420   -0.0055   -0.1974 C   0  0  0  0  0  0  0  0  0  0  0  0
    3.1539    0.0374    0.2184 C   0  0  0  0  0  0  0  0  0  0  0  0
    2.1458    0.0282   -0.7512 C   0  0  0  0  0  0  0  0  0  0  0  0
    0.8205    0.0652   -0.3957 C   0  0  0  0  0  0  0  0  0  0  0  0
    0.4492    0.1155    0.9438 C   0  0  0  0  0  0  0  0  0  0  0  0
   -0.9566    0.1506    1.3123 C   0  0  0  0  0  0  0  0  0  0  0  0
   -1.4120    0.2119    2.5679 N   0  0  0  0  0  0  0  0  0  0  0  0
   -2.7054    0.2241    2.5304 N   0  0  0  0  0  0  0  0  0  0  0  0
   -3.0896    0.1708    1.2510 C   0  0  0  0  0  0  0  0  0  0  0  0
   -4.4733    0.1618    0.8034 C   0  0  0  0  0  0  0  0  0  0  0  0
   -4.7687    0.0934   -0.5536 C   0  0  0  0  0  0  0  0  0  0  0  0
   -6.0734    0.0790   -0.9815 C   0  0  0  0  0  0  0  0  0  0  0  0
   -7.1321    0.1321   -0.0729 C   0  0  0  0  0  0  0  0  0  0  0  0
   -8.5079    0.1112   -0.5536 C   0  0  0  0  0  0  0  0  0  0  0  0
   -9.6342    0.1383    0.2084 C   0  0  0  0  0  0  0  0  0  0  0  0
  -10.8559    0.1049   -0.5494 C   0  0  0  0  0  0  0  0  0  0  0  0
  -12.1698    0.1197   -0.0508 C   0  0  0  0  0  0  0  0  0  0  0  0
  -13.2213    0.0817   -0.9307 C   0  0  0  0  0  0  0  0  0  0  0  0
  -12.9986    0.0288   -2.3077 C   0  0  0  0  0  0  0  0  0  0  0  0
  -11.7197    0.0136   -2.8098 C   0  0  0  0  0  0  0  0  0  0  0  0
  -10.6450    0.0515   -1.9297 C   0  0  0  0  0  0  0  0  0  0  0  0
   -8.9297    0.0436   -2.2589 S   0  0  0  0  0  0  0  0  0  0  0  0
   -6.8264    0.2025    1.2887 C   0  0  0  0  0  0  0  0  0  0  0  0
   -5.5214    0.2168    1.7173 C   0  0  0  0  0  0  0  0  0  0  0  0
   -1.9995    0.1238    0.4393 O   0  0  0  0  0  0  0  0  0  0  0  0
    1.4445    0.1293    1.9168 C   0  0  0  0  0  0  0  0  0  0  0  0
    2.7705    0.0909    1.5627 C   0  0  0  0  0  0  0  0  0  0  0  0
    7.9930   -0.2442    1.1808 C   0  0  0  0  0  0  0  0  0  0  0  0
    9.3179   -0.2879    0.8277 C   0  0  0  0  0  0  0  0  0  0  0  0
   11.1034   -0.9366   -2.8598 H   0  0  0  0  0  0  0  0  0  0  0  0
   11.1226    0.8278   -2.6800 H   0  0  0  0  0  0  0  0  0  0  0  0
   12.5763   -0.1107   -2.3515 H   0  0  0  0  0  0  0  0  0  0  0  0
   12.1360    0.4017    0.8134 H   0  0  0  0  0  0  0  0  0  0  0  0
   13.0989   -0.5113   -0.3486 H   0  0  0  0  0  0  0  0  0  0  0  0
   11.9447   -1.3564    0.6783 H   0  0  0  0  0  0  0  0  0  0  0  0
    8.9819   -0.0071   -2.5165 H   0  0  0  0  0  0  0  0  0  0  0  0
    6.6368    0.0733   -1.8937 H   0  0  0  0  0  0  0  0  0  0  0  0
    5.4255   -0.1136    1.6873 H   0  0  0  0  0  0  0  0  0  0  0  0
    4.7164    0.0117   -1.2568 H   0  0  0  0  0  0  0  0  0  0  0  0
    2.4216   -0.0114   -1.7912 H   0  0  0  0  0  0  0  0  0  0  0  0
    0.0481    0.0556   -1.1449 H   0  0  0  0  0  0  0  0  0  0  0  0
   -3.9563    0.0505   -1.2581 H   0  0  0  0  0  0  0  0  0  0  0  0
   -6.2960    0.0246   -2.0323 H   0  0  0  0  0  0  0  0  0  0  0  0
   -9.6300    0.1789    1.2841 H   0  0  0  0  0  0  0  0  0  0  0  0
  -12.3336    0.1603    1.0115 H   0  0  0  0  0  0  0  0  0  0  0  0
  -14.2317    0.0926   -0.5565 H   0  0  0  0  0  0  0  0  0  0  0  0
  -13.8385   -0.0004   -2.9825 H   0  0  0  0  0  0  0  0  0  0  0  0
  -11.5361   -0.0273   -3.8695 H   0  0  0  0  0  0  0  0  0  0  0  0
   -7.6230    0.2460    2.0093 H   0  0  0  0  0  0  0  0  0  0  0  0
   -5.2894    0.2698    2.7666 H   0  0  0  0  0  0  0  0  0  0  0  0
    1.1541    0.1705    2.9518 H   0  0  0  0  0  0  0  0  0  0  0  0
    3.5210    0.1085    2.3322 H   0  0  0  0  0  0  0  0  0  0  0  0
    7.7113   -0.3087    2.2176 H   0  0  0  0  0  0  0  0  0  0  0  0
   10.0676   -0.3835    1.5924 H   0  0  0  0  0  0  0  0  0  0  0  0
  1  2  1  0  0  0  0
  2  3  1  0  0  0  0
  2  4  1  0  0  0  0
  4  5  2  0  0  0  0
  5  6  1  0  0  0  0
  6  7  2  0  0  0  0
  7  8  1  0  0  0  0
  8  9  2  0  0  0  0
  9 10  1  0  0  0  0
 10 11  2  0  0  0  0
 11 12  1  0  0  0  0
 12 13  2  0  0  0  0
 13 14  1  0  0  0  0
 14 15  2  0  0  0  0
 15 16  1  0  0  0  0
 16 17  2  0  0  0  0
 17 18  1  0  0  0  0
 18 19  2  0  0  0  0
 19 20  1  0  0  0  0
 20 21  2  0  0  0  0
 21 22  1  0  0  0  0
 22 23  2  0  0  0  0
 23 24  1  0  0  0  0
 24 25  2  0  0  0  0
 25 26  1  0  0  0  0
 26 27  2  0  0  0  0
 27 28  1  0  0  0  0
 28 29  2  0  0  0  0
 29 30  1  0  0  0  0
 21 31  1  0  0  0  0
 31 32  2  0  0  0  0
 17 33  1  0  0  0  0
 13 34  1  0  0  0  0
 34 35  2  0  0  0  0
  7 36  1  0  0  0  0
 36 37  2  0  0  0  0
 37  4  1  0  0  0  0
 35 10  1  0  0  0  0
 33 14  1  0  0  0  0
 32 18  1  0  0  0  0
 30 22  1  0  0  0  0
 29 24  1  0  0  0  0
  1 38  1  0  0  0  0
  1 39  1  0  0  0  0
  1 40  1  0  0  0  0
  3 41  1  0  0  0  0
  3 42  1  0  0  0  0
  3 43  1  0  0  0  0
  5 44  1  0  0  0  0
  6 45  1  0  0  0  0
  8 46  1  0  0  0  0
  9 47  1  0  0  0  0
 11 48  1  0  0  0  0
 12 49  1  0  0  0  0
 19 50  1  0  0  0  0
 20 51  1  0  0  0  0
 23 52  1  0  0  0  0
 25 53  1  0  0  0  0
 26 54  1  0  0  0  0
 27 55  1  0  0  0  0
 28 56  1  0  0  0  0
 31 57  1  0  0  0  0
 32 58  1  0  0  0  0
 34 59  1  0  0  0  0
 35 60  1  0  0  0  0
 36 61  1  0  0  0  0
 37 62  1  0  0  0  0
M  END
