
  xtb     03012221293D
 energy: -16.231139710197 gnorm: 0.000204206404 xtb: 6.4.1 (afa7bdf)
 78 84  0     0  0            999 V2000
    9.0366    4.7406   -0.4884 C   0  0  0  0  0  0  0  0  0  0  0  0
    7.9502    3.7334   -0.3386 C   0  0  0  0  0  0  0  0  0  0  0  0
    6.7721    3.8489   -1.0636 C   0  0  0  0  0  0  0  0  0  0  0  0
    5.7768    2.9040   -0.9458 C   0  0  0  0  0  0  0  0  0  0  0  0
    5.9342    1.8024   -0.1099 C   0  0  0  0  0  0  0  0  0  0  0  0
    4.8510    0.8180    0.0063 C   0  0  0  0  0  0  0  0  0  0  0  0
    3.5497    1.1412   -0.1254 N   0  0  0  0  0  0  0  0  0  0  0  0
    2.8560    0.0269    0.0888 C   0  0  0  0  0  0  0  0  0  0  0  0
    1.4017   -0.0431    0.0375 C   0  0  0  0  0  0  0  0  0  0  0  0
    0.7205   -1.2483    0.2068 C   0  0  0  0  0  0  0  0  0  0  0  0
   -0.6513   -1.2924    0.1519 C   0  0  0  0  0  0  0  0  0  0  0  0
   -1.3929   -0.1326   -0.0716 C   0  0  0  0  0  0  0  0  0  0  0  0
   -2.8483   -0.1557   -0.1326 C   0  0  0  0  0  0  0  0  0  0  0  0
   -3.5985    0.9316   -0.2871 N   0  0  0  0  0  0  0  0  0  0  0  0
   -4.8808    0.5183   -0.2972 C   0  0  0  0  0  0  0  0  0  0  0  0
   -6.0135    1.4304   -0.5002 C   0  0  0  0  0  0  0  0  0  0  0  0
   -5.9244    2.7483   -0.0615 C   0  0  0  0  0  0  0  0  0  0  0  0
   -6.9680    3.6272   -0.2504 C   0  0  0  0  0  0  0  0  0  0  0  0
   -8.1279    3.2238   -0.8977 C   0  0  0  0  0  0  0  0  0  0  0  0
   -9.2672    4.1657   -1.0761 C   0  0  0  0  0  0  0  0  0  0  0  0
   -8.2169    1.9128   -1.3449 C   0  0  0  0  0  0  0  0  0  0  0  0
   -7.1757    1.0311   -1.1575 C   0  0  0  0  0  0  0  0  0  0  0  0
   -4.9279   -0.8859   -0.1234 C   0  0  0  0  0  0  0  0  0  0  0  0
   -6.0918   -1.7659    0.0127 C   0  0  0  0  0  0  0  0  0  0  0  0
   -6.0769   -3.0406   -0.5493 C   0  0  0  0  0  0  0  0  0  0  0  0
   -7.1593   -3.8819   -0.4160 C   0  0  0  0  0  0  0  0  0  0  0  0
   -8.2848   -3.4859    0.2935 C   0  0  0  0  0  0  0  0  0  0  0  0
   -9.4644   -4.3860    0.4133 C   0  0  0  0  0  0  0  0  0  0  0  0
   -8.3020   -2.2182    0.8587 C   0  0  0  0  0  0  0  0  0  0  0  0
   -7.2226   -1.3734    0.7283 C   0  0  0  0  0  0  0  0  0  0  0  0
   -3.6300   -1.2921   -0.0373 N   0  0  0  0  0  0  0  0  0  0  0  0
   -0.7114    1.0715   -0.2391 C   0  0  0  0  0  0  0  0  0  0  0  0
    0.6598    1.1151   -0.1873 C   0  0  0  0  0  0  0  0  0  0  0  0
    3.6942   -1.0385    0.3604 N   0  0  0  0  0  0  0  0  0  0  0  0
    4.9696   -0.5625    0.2975 C   0  0  0  0  0  0  0  0  0  0  0  0
    6.1766   -1.3809    0.4421 C   0  0  0  0  0  0  0  0  0  0  0  0
    6.2200   -2.4066    1.3838 C   0  0  0  0  0  0  0  0  0  0  0  0
    7.3436   -3.1918    1.5188 C   0  0  0  0  0  0  0  0  0  0  0  0
    8.4584   -2.9818    0.7189 C   0  0  0  0  0  0  0  0  0  0  0  0
    9.6619   -3.8477    0.8521 C   0  0  0  0  0  0  0  0  0  0  0  0
    8.4105   -1.9762   -0.2368 C   0  0  0  0  0  0  0  0  0  0  0  0
    7.2897   -1.1885   -0.3758 C   0  0  0  0  0  0  0  0  0  0  0  0
    7.1146    1.6939    0.6231 C   0  0  0  0  0  0  0  0  0  0  0  0
    8.1074    2.6407    0.5029 C   0  0  0  0  0  0  0  0  0  0  0  0
    8.6305    5.7261   -0.7194 H   0  0  0  0  0  0  0  0  0  0  0  0
    9.6195    4.8303    0.4291 H   0  0  0  0  0  0  0  0  0  0  0  0
    9.7167    4.4594   -1.2933 H   0  0  0  0  0  0  0  0  0  0  0  0
    6.6422    4.6897   -1.7230 H   0  0  0  0  0  0  0  0  0  0  0  0
    4.8604    3.0028   -1.5018 H   0  0  0  0  0  0  0  0  0  0  0  0
    1.2807   -2.1493    0.3790 H   0  0  0  0  0  0  0  0  0  0  0  0
   -1.1645   -2.2276    0.2840 H   0  0  0  0  0  0  0  0  0  0  0  0
   -5.0225    3.0679    0.4315 H   0  0  0  0  0  0  0  0  0  0  0  0
   -6.8906    4.6403    0.1050 H   0  0  0  0  0  0  0  0  0  0  0  0
   -9.8119    3.9538   -1.9970 H   0  0  0  0  0  0  0  0  0  0  0  0
   -9.9683    4.0869   -0.2443 H   0  0  0  0  0  0  0  0  0  0  0  0
   -8.9205    5.1985   -1.1274 H   0  0  0  0  0  0  0  0  0  0  0  0
   -9.1140    1.5894   -1.8443 H   0  0  0  0  0  0  0  0  0  0  0  0
   -7.2483    0.0231   -1.5270 H   0  0  0  0  0  0  0  0  0  0  0  0
   -5.2083   -3.3558   -1.1013 H   0  0  0  0  0  0  0  0  0  0  0  0
   -7.1405   -4.8598   -0.8657 H   0  0  0  0  0  0  0  0  0  0  0  0
  -10.1736   -4.2046   -0.3955 H   0  0  0  0  0  0  0  0  0  0  0  0
   -9.1661   -5.4345    0.3705 H   0  0  0  0  0  0  0  0  0  0  0  0
   -9.9847   -4.2289    1.3592 H   0  0  0  0  0  0  0  0  0  0  0  0
   -9.1735   -1.8995    1.4043 H   0  0  0  0  0  0  0  0  0  0  0  0
   -7.2395   -0.3983    1.1838 H   0  0  0  0  0  0  0  0  0  0  0  0
   -3.3112   -2.2485    0.1234 H   0  0  0  0  0  0  0  0  0  0  0  0
   -1.2821    1.9669   -0.4116 H   0  0  0  0  0  0  0  0  0  0  0  0
    1.1837    2.0455   -0.3184 H   0  0  0  0  0  0  0  0  0  0  0  0
    3.4245   -2.0100    0.5204 H   0  0  0  0  0  0  0  0  0  0  0  0
    5.3625   -2.5725    2.0128 H   0  0  0  0  0  0  0  0  0  0  0  0
    7.3653   -3.9809    2.2506 H   0  0  0  0  0  0  0  0  0  0  0  0
    9.7975   -4.1766    1.8834 H   0  0  0  0  0  0  0  0  0  0  0  0
    9.5717   -4.7354    0.2245 H   0  0  0  0  0  0  0  0  0  0  0  0
   10.5660   -3.3150    0.5535 H   0  0  0  0  0  0  0  0  0  0  0  0
    9.2629   -1.8182   -0.8749 H   0  0  0  0  0  0  0  0  0  0  0  0
    7.2588   -0.4174   -1.1261 H   0  0  0  0  0  0  0  0  0  0  0  0
    7.2395    0.8626    1.2947 H   0  0  0  0  0  0  0  0  0  0  0  0
    9.0191    2.5400    1.0663 H   0  0  0  0  0  0  0  0  0  0  0  0
  1  2  1  0  0  0  0
  2  3  2  0  0  0  0
  3  4  1  0  0  0  0
  4  5  2  0  0  0  0
  5  6  1  0  0  0  0
  6  7  1  0  0  0  0
  7  8  2  0  0  0  0
  8  9  1  0  0  0  0
  9 10  2  0  0  0  0
 10 11  1  0  0  0  0
 11 12  2  0  0  0  0
 12 13  1  0  0  0  0
 13 14  2  0  0  0  0
 14 15  1  0  0  0  0
 15 16  1  0  0  0  0
 16 17  2  0  0  0  0
 17 18  1  0  0  0  0
 18 19  2  0  0  0  0
 19 20  1  0  0  0  0
 19 21  1  0  0  0  0
 21 22  2  0  0  0  0
 15 23  2  0  0  0  0
 23 24  1  0  0  0  0
 24 25  2  0  0  0  0
 25 26  1  0  0  0  0
 26 27  2  0  0  0  0
 27 28  1  0  0  0  0
 27 29  1  0  0  0  0
 29 30  2  0  0  0  0
 23 31  1  0  0  0  0
 12 32  1  0  0  0  0
 32 33  2  0  0  0  0
  8 34  1  0  0  0  0
 34 35  1  0  0  0  0
 35 36  1  0  0  0  0
 36 37  2  0  0  0  0
 37 38  1  0  0  0  0
 38 39  2  0  0  0  0
 39 40  1  0  0  0  0
 39 41  1  0  0  0  0
 41 42  2  0  0  0  0
  5 43  1  0  0  0  0
 43 44  2  0  0  0  0
 44  2  1  0  0  0  0
 35  6  2  0  0  0  0
 42 36  1  0  0  0  0
 33  9  1  0  0  0  0
 31 13  1  0  0  0  0
 22 16  1  0  0  0  0
 30 24  1  0  0  0  0
  1 45  1  0  0  0  0
  1 46  1  0  0  0  0
  1 47  1  0  0  0  0
  3 48  1  0  0  0  0
  4 49  1  0  0  0  0
 10 50  1  0  0  0  0
 11 51  1  0  0  0  0
 17 52  1  0  0  0  0
 18 53  1  0  0  0  0
 20 54  1  0  0  0  0
 20 55  1  0  0  0  0
 20 56  1  0  0  0  0
 21 57  1  0  0  0  0
 22 58  1  0  0  0  0
 25 59  1  0  0  0  0
 26 60  1  0  0  0  0
 28 61  1  0  0  0  0
 28 62  1  0  0  0  0
 28 63  1  0  0  0  0
 29 64  1  0  0  0  0
 30 65  1  0  0  0  0
 31 66  1  0  0  0  0
 32 67  1  0  0  0  0
 33 68  1  0  0  0  0
 34 69  1  0  0  0  0
 37 70  1  0  0  0  0
 38 71  1  0  0  0  0
 40 72  1  0  0  0  0
 40 73  1  0  0  0  0
 40 74  1  0  0  0  0
 41 75  1  0  0  0  0
 42 76  1  0  0  0  0
 43 77  1  0  0  0  0
 44 78  1  0  0  0  0
M  END
