
  xtb     03012221233D
 energy: -16.265923823421 gnorm: 0.000436359131 xtb: 6.4.1 (afa7bdf)
 90 94  0     0  0            999 V2000
   -1.8431    3.6148   -3.0132 C   0  0  0  0  0  0  0  0  0  0  0  0
   -0.9330    4.7933   -2.7375 C   0  0  0  0  0  0  0  0  0  0  0  0
   -1.5956    5.9514   -2.2509 O   0  0  0  0  0  0  0  0  0  0  0  0
   -2.3199    5.7840   -1.0395 C   0  0  0  0  0  0  0  0  0  0  0  0
   -1.4558    5.6165    0.2108 C   0  0  0  0  0  0  0  0  0  0  0  0
   -0.7645    4.2969    0.3025 C   0  0  0  0  0  0  0  0  0  0  0  0
    0.5757    4.0783    0.2055 C   0  0  0  0  0  0  0  0  0  0  0  0
    0.7566    2.6685    0.2673 C   0  0  0  0  0  0  0  0  0  0  0  0
   -0.4238    2.0563    0.4123 N   0  0  0  0  0  0  0  0  0  0  0  0
   -1.3809    2.9985    0.4514 C   0  0  0  0  0  0  0  0  0  0  0  0
   -2.7752    2.7791    0.6141 C   0  0  0  0  0  0  0  0  0  0  0  0
   -3.4979    1.6111    0.6980 C   0  0  0  0  0  0  0  0  0  0  0  0
   -3.0761    0.2592    0.6520 C   0  0  0  0  0  0  0  0  0  0  0  0
   -1.7941   -0.2141    0.5531 N   0  0  0  0  0  0  0  0  0  0  0  0
   -1.7640   -1.5758    0.5475 C   0  0  0  0  0  0  0  0  0  0  0  0
   -3.1019   -2.0131    0.6457 C   0  0  0  0  0  0  0  0  0  0  0  0
   -3.9130   -0.9000    0.7107 C   0  0  0  0  0  0  0  0  0  0  0  0
   -5.4034   -0.8780    0.8393 C   0  0  0  0  0  0  0  0  0  0  0  0
   -6.0517   -2.2547    0.7826 C   0  0  0  0  0  0  0  0  0  0  0  0
   -7.4724   -2.2245    0.7997 O   0  0  0  0  0  0  0  0  0  0  0  0
   -8.0141   -1.7359    2.0214 C   0  0  0  0  0  0  0  0  0  0  0  0
   -9.5061   -1.9774    2.1115 C   0  0  0  0  0  0  0  0  0  0  0  0
   -0.5467   -2.3180    0.4470 C   0  0  0  0  0  0  0  0  0  0  0  0
    0.6410   -1.7061    0.3804 N   0  0  0  0  0  0  0  0  0  0  0  0
    1.5893   -2.6490    0.2489 C   0  0  0  0  0  0  0  0  0  0  0  0
    2.9861   -2.4305    0.1103 C   0  0  0  0  0  0  0  0  0  0  0  0
    3.7097   -1.2626    0.0365 C   0  0  0  0  0  0  0  0  0  0  0  0
    3.2850    0.0889    0.0562 C   0  0  0  0  0  0  0  0  0  0  0  0
    2.0052    0.5642    0.1758 N   0  0  0  0  0  0  0  0  0  0  0  0
    1.9739    1.9265    0.1620 C   0  0  0  0  0  0  0  0  0  0  0  0
    3.3089    2.3630    0.0240 C   0  0  0  0  0  0  0  0  0  0  0  0
    4.1163    1.2488   -0.0466 C   0  0  0  0  0  0  0  0  0  0  0  0
    5.6060    1.2595   -0.1365 C   0  0  0  0  0  0  0  0  0  0  0  0
    6.2740    1.0500    1.2144 C   0  0  0  0  0  0  0  0  0  0  0  0
    7.6943    1.0357    1.1170 O   0  0  0  0  0  0  0  0  0  0  0  0
    8.3253    0.8377    2.3779 C   0  0  0  0  0  0  0  0  0  0  0  0
    9.8341    0.8192    2.2578 C   0  0  0  0  0  0  0  0  0  0  0  0
    0.9571   -3.9482    0.2340 C   0  0  0  0  0  0  0  0  0  0  0  0
    1.6068   -5.2614   -0.0371 C   0  0  0  0  0  0  0  0  0  0  0  0
    1.8350   -5.4730   -1.5289 C   0  0  0  0  0  0  0  0  0  0  0  0
    0.6094   -5.4621   -2.2646 O   0  0  0  0  0  0  0  0  0  0  0  0
    0.6134   -4.5813   -3.3820 C   0  0  0  0  0  0  0  0  0  0  0  0
    0.5440   -3.1186   -2.9968 C   0  0  0  0  0  0  0  0  0  0  0  0
   -0.3803   -3.7280    0.3525 C   0  0  0  0  0  0  0  0  0  0  0  0
   -1.3112    2.7971   -3.5035 H   0  0  0  0  0  0  0  0  0  0  0  0
   -2.2707    3.2113   -2.0958 H   0  0  0  0  0  0  0  0  0  0  0  0
   -2.6710    3.9095   -3.6586 H   0  0  0  0  0  0  0  0  0  0  0  0
   -0.1347    4.5343   -2.0359 H   0  0  0  0  0  0  0  0  0  0  0  0
   -0.4262    5.1086   -3.6586 H   0  0  0  0  0  0  0  0  0  0  0  0
   -3.0171    4.9506   -1.1619 H   0  0  0  0  0  0  0  0  0  0  0  0
   -2.9433    6.6827   -0.9492 H   0  0  0  0  0  0  0  0  0  0  0  0
   -0.7071    6.4143    0.2323 H   0  0  0  0  0  0  0  0  0  0  0  0
   -2.0622    5.7531    1.1131 H   0  0  0  0  0  0  0  0  0  0  0  0
    1.3430    4.8211    0.0740 H   0  0  0  0  0  0  0  0  0  0  0  0
   -3.3518    3.6867    0.6833 H   0  0  0  0  0  0  0  0  0  0  0  0
   -4.5632    1.7290    0.8127 H   0  0  0  0  0  0  0  0  0  0  0  0
   -0.9831    0.3926    0.4896 H   0  0  0  0  0  0  0  0  0  0  0  0
   -3.4222   -3.0395    0.6704 H   0  0  0  0  0  0  0  0  0  0  0  0
   -5.6659   -0.3818    1.7779 H   0  0  0  0  0  0  0  0  0  0  0  0
   -5.8241   -0.2552    0.0440 H   0  0  0  0  0  0  0  0  0  0  0  0
   -5.7114   -2.8890    1.6090 H   0  0  0  0  0  0  0  0  0  0  0  0
   -5.7652   -2.7696   -0.1418 H   0  0  0  0  0  0  0  0  0  0  0  0
   -7.7886   -0.6650    2.0848 H   0  0  0  0  0  0  0  0  0  0  0  0
   -7.4863   -2.2259    2.8488 H   0  0  0  0  0  0  0  0  0  0  0  0
  -10.0246   -1.4928    1.2838 H   0  0  0  0  0  0  0  0  0  0  0  0
   -9.7275   -3.0431    2.0475 H   0  0  0  0  0  0  0  0  0  0  0  0
   -9.9306   -1.5997    3.0436 H   0  0  0  0  0  0  0  0  0  0  0  0
    3.5628   -3.3386    0.0474 H   0  0  0  0  0  0  0  0  0  0  0  0
    4.7762   -1.3814   -0.0637 H   0  0  0  0  0  0  0  0  0  0  0  0
    1.1977   -0.0417    0.2786 H   0  0  0  0  0  0  0  0  0  0  0  0
    3.6382    3.3866   -0.0080 H   0  0  0  0  0  0  0  0  0  0  0  0
    5.9430    2.2079   -0.5657 H   0  0  0  0  0  0  0  0  0  0  0  0
    5.9415    0.4884   -0.8360 H   0  0  0  0  0  0  0  0  0  0  0  0
    5.9853    1.8444    1.9120 H   0  0  0  0  0  0  0  0  0  0  0  0
    5.9526    0.1017    1.6595 H   0  0  0  0  0  0  0  0  0  0  0  0
    7.9925    1.6396    3.0483 H   0  0  0  0  0  0  0  0  0  0  0  0
    7.9511   -0.1051    2.7955 H   0  0  0  0  0  0  0  0  0  0  0  0
   10.1979    1.7574    1.8379 H   0  0  0  0  0  0  0  0  0  0  0  0
   10.3238    0.6683    3.2217 H   0  0  0  0  0  0  0  0  0  0  0  0
   10.1567    0.0221    1.5873 H   0  0  0  0  0  0  0  0  0  0  0  0
    2.5466   -5.3331    0.5202 H   0  0  0  0  0  0  0  0  0  0  0  0
    0.9643   -6.0600    0.3462 H   0  0  0  0  0  0  0  0  0  0  0  0
    2.3226   -6.4353   -1.7280 H   0  0  0  0  0  0  0  0  0  0  0  0
    2.4999   -4.6987   -1.9269 H   0  0  0  0  0  0  0  0  0  0  0  0
   -0.2526   -4.8617   -3.9947 H   0  0  0  0  0  0  0  0  0  0  0  0
    1.5013   -4.8033   -3.9865 H   0  0  0  0  0  0  0  0  0  0  0  0
    0.4872   -2.4664   -3.8703 H   0  0  0  0  0  0  0  0  0  0  0  0
   -0.3333   -2.9247   -2.3791 H   0  0  0  0  0  0  0  0  0  0  0  0
    1.4150   -2.8147   -2.4168 H   0  0  0  0  0  0  0  0  0  0  0  0
   -1.1590   -4.4700    0.3256 H   0  0  0  0  0  0  0  0  0  0  0  0
  1  2  1  0  0  0  0
  2  3  1  0  0  0  0
  3  4  1  0  0  0  0
  4  5  1  0  0  0  0
  5  6  1  0  0  0  0
  6  7  2  0  0  0  0
  7  8  1  0  0  0  0
  8  9  2  0  0  0  0
  9 10  1  0  0  0  0
 10 11  2  0  0  0  0
 11 12  1  0  0  0  0
 12 13  2  0  0  0  0
 13 14  1  0  0  0  0
 14 15  1  0  0  0  0
 15 16  1  0  0  0  0
 16 17  2  0  0  0  0
 17 18  1  0  0  0  0
 18 19  1  0  0  0  0
 19 20  1  0  0  0  0
 20 21  1  0  0  0  0
 21 22  1  0  0  0  0
 15 23  2  0  0  0  0
 23 24  1  0  0  0  0
 24 25  2  0  0  0  0
 25 26  1  0  0  0  0
 26 27  2  0  0  0  0
 27 28  1  0  0  0  0
 28 29  1  0  0  0  0
 29 30  1  0  0  0  0
 30 31  2  0  0  0  0
 31 32  1  0  0  0  0
 32 33  1  0  0  0  0
 33 34  1  0  0  0  0
 34 35  1  0  0  0  0
 35 36  1  0  0  0  0
 36 37  1  0  0  0  0
 25 38  1  0  0  0  0
 38 39  1  0  0  0  0
 39 40  1  0  0  0  0
 40 41  1  0  0  0  0
 41 42  1  0  0  0  0
 42 43  1  0  0  0  0
 38 44  2  0  0  0  0
 10  6  1  0  0  0  0
 17 13  1  0  0  0  0
 44 23  1  0  0  0  0
 30  8  1  0  0  0  0
 32 28  2  0  0  0  0
  1 45  1  0  0  0  0
  1 46  1  0  0  0  0
  1 47  1  0  0  0  0
  2 48  1  0  0  0  0
  2 49  1  0  0  0  0
  4 50  1  0  0  0  0
  4 51  1  0  0  0  0
  5 52  1  0  0  0  0
  5 53  1  0  0  0  0
  7 54  1  0  0  0  0
 11 55  1  0  0  0  0
 12 56  1  0  0  0  0
 14 57  1  0  0  0  0
 16 58  1  0  0  0  0
 18 59  1  0  0  0  0
 18 60  1  0  0  0  0
 19 61  1  0  0  0  0
 19 62  1  0  0  0  0
 21 63  1  0  0  0  0
 21 64  1  0  0  0  0
 22 65  1  0  0  0  0
 22 66  1  0  0  0  0
 22 67  1  0  0  0  0
 26 68  1  0  0  0  0
 27 69  1  0  0  0  0
 29 70  1  0  0  0  0
 31 71  1  0  0  0  0
 33 72  1  0  0  0  0
 33 73  1  0  0  0  0
 34 74  1  0  0  0  0
 34 75  1  0  0  0  0
 36 76  1  0  0  0  0
 36 77  1  0  0  0  0
 37 78  1  0  0  0  0
 37 79  1  0  0  0  0
 37 80  1  0  0  0  0
 39 81  1  0  0  0  0
 39 82  1  0  0  0  0
 40 83  1  0  0  0  0
 40 84  1  0  0  0  0
 42 85  1  0  0  0  0
 42 86  1  0  0  0  0
 43 87  1  0  0  0  0
 43 88  1  0  0  0  0
 43 89  1  0  0  0  0
 44 90  1  0  0  0  0
M  END
