
  xtb     03012221293D
 energy: -11.445458641917 gnorm: 0.000257256553 xtb: 6.4.1 (afa7bdf)
 58 63  0     0  0            999 V2000
   -6.6735    0.8629   -1.5315 C   0  0  0  0  0  0  0  0  0  0  0  0
   -6.1167    1.0192   -0.1255 C   0  0  0  0  0  0  0  0  0  0  0  0
   -4.7562    0.4151    0.0245 C   0  0  0  0  0  0  0  0  0  0  0  0
   -4.4693   -0.9203    0.2957 C   0  0  0  0  0  0  0  0  0  0  0  0
   -5.4701   -1.9884    0.5368 C   0  0  0  0  0  0  0  0  0  0  0  0
   -3.0436   -1.0601    0.3142 C   0  0  0  0  0  0  0  0  0  0  0  0
   -2.5600    0.2197    0.0189 N   0  0  0  0  0  0  0  0  0  0  0  0
   -3.5338    1.1132   -0.1591 C   0  0  0  0  0  0  0  0  0  0  0  0
   -3.3290    2.5380   -0.4739 C   0  0  0  0  0  0  0  0  0  0  0  0
   -1.0791    0.5799   -0.0749 B   0  0  0  0  0  4  0  0  0  0  0  0
   -0.7989    1.0825   -1.3429 F   0  0  0  0  0  0  0  0  0  0  0  0
   -0.7710    1.5080    0.9161 F   0  0  0  0  0  0  0  0  0  0  0  0
   -0.2738   -0.6957    0.1549 N   0  0  0  0  0  4  0  0  0  0  0  0
    1.0945   -0.7357    0.1022 C   0  0  0  0  0  0  0  0  0  0  0  0
    1.8870    0.3668   -0.2584 C   0  0  0  0  0  0  0  0  0  0  0  0
    3.2574    0.5221   -0.1267 C   0  0  0  0  0  0  0  0  0  0  0  0
    4.2023   -0.1929    0.7237 C   0  0  0  0  0  0  0  0  0  0  0  0
    4.0181   -1.1303    1.7377 C   0  0  0  0  0  0  0  0  0  0  0  0
    5.1151   -1.6073    2.4227 C   0  0  0  0  0  0  0  0  0  0  0  0
    6.3938   -1.1509    2.1316 C   0  0  0  0  0  0  0  0  0  0  0  0
    6.5937   -0.1878    1.1635 C   0  0  0  0  0  0  0  0  0  0  0  0
    5.4971    0.2988    0.4677 C   0  0  0  0  0  0  0  0  0  0  0  0
    5.3914    1.3683   -0.5171 C   0  0  0  0  0  0  0  0  0  0  0  0
    6.3511    2.1896   -1.0894 C   0  0  0  0  0  0  0  0  0  0  0  0
    5.9486    3.1516   -1.9945 C   0  0  0  0  0  0  0  0  0  0  0  0
    4.6077    3.2985   -2.3278 C   0  0  0  0  0  0  0  0  0  0  0  0
    3.6437    2.4899   -1.7646 C   0  0  0  0  0  0  0  0  0  0  0  0
    4.0339    1.5184   -0.8470 C   0  0  0  0  0  0  0  0  0  0  0  0
    1.4351   -2.1082    0.3507 C   0  0  0  0  0  0  0  0  0  0  0  0
    0.2881   -2.8158    0.5648 C   0  0  0  0  0  0  0  0  0  0  0  0
   -0.8287   -1.9201    0.4456 C   0  0  0  0  0  0  0  0  0  0  0  0
   -2.2060   -2.1510    0.5493 C   0  0  0  0  0  0  0  0  0  0  0  0
   -2.7331   -3.5028    0.8625 C   0  0  0  0  0  0  0  0  0  0  0  0
   -6.0191    1.3342   -2.2665 H   0  0  0  0  0  0  0  0  0  0  0  0
   -6.7571   -0.1893   -1.8076 H   0  0  0  0  0  0  0  0  0  0  0  0
   -7.6636    1.3115   -1.6338 H   0  0  0  0  0  0  0  0  0  0  0  0
   -6.0655    2.0802    0.1468 H   0  0  0  0  0  0  0  0  0  0  0  0
   -6.7936    0.5694    0.6105 H   0  0  0  0  0  0  0  0  0  0  0  0
   -5.2389   -2.8809   -0.0445 H   0  0  0  0  0  0  0  0  0  0  0  0
   -6.4708   -1.6670    0.2488 H   0  0  0  0  0  0  0  0  0  0  0  0
   -5.5017   -2.2612    1.5919 H   0  0  0  0  0  0  0  0  0  0  0  0
   -2.2640    2.7442   -0.5899 H   0  0  0  0  0  0  0  0  0  0  0  0
   -3.7100    3.1734    0.3257 H   0  0  0  0  0  0  0  0  0  0  0  0
   -3.8301    2.8103   -1.4029 H   0  0  0  0  0  0  0  0  0  0  0  0
    1.3477    1.1724   -0.7268 H   0  0  0  0  0  0  0  0  0  0  0  0
    3.0258   -1.4333    2.0166 H   0  0  0  0  0  0  0  0  0  0  0  0
    4.9765   -2.3369    3.2049 H   0  0  0  0  0  0  0  0  0  0  0  0
    7.2361   -1.5369    2.6813 H   0  0  0  0  0  0  0  0  0  0  0  0
    7.5766    0.1983    0.9542 H   0  0  0  0  0  0  0  0  0  0  0  0
    7.3874    2.0707   -0.8234 H   0  0  0  0  0  0  0  0  0  0  0  0
    6.6834    3.7963   -2.4473 H   0  0  0  0  0  0  0  0  0  0  0  0
    4.3162    4.0556   -3.0385 H   0  0  0  0  0  0  0  0  0  0  0  0
    2.6059    2.5983   -2.0252 H   0  0  0  0  0  0  0  0  0  0  0  0
    2.4248   -2.5264    0.2862 H   0  0  0  0  0  0  0  0  0  0  0  0
    0.2276   -3.8748    0.7465 H   0  0  0  0  0  0  0  0  0  0  0  0
   -3.4977   -3.4553    1.6378 H   0  0  0  0  0  0  0  0  0  0  0  0
   -3.1660   -3.9671   -0.0241 H   0  0  0  0  0  0  0  0  0  0  0  0
   -1.9456   -4.1609    1.2295 H   0  0  0  0  0  0  0  0  0  0  0  0
  1  2  1  0  0  0  0
  2  3  1  0  0  0  0
  3  4  1  0  0  0  0
  4  5  1  0  0  0  0
  4  6  2  0  0  0  0
  6  7  1  0  0  0  0
  7  8  1  0  0  0  0
  8  9  1  0  0  0  0
  7 10  1  0  0  0  0
 10 11  1  0  0  0  0
 10 12  1  0  0  0  0
 10 13  1  0  0  0  0
 13 14  2  0  0  0  0
 14 15  1  0  0  0  0
 15 16  2  0  0  0  0
 16 17  1  0  0  0  0
 17 18  2  0  0  0  0
 18 19  1  0  0  0  0
 19 20  2  0  0  0  0
 20 21  1  0  0  0  0
 21 22  2  0  0  0  0
 22 23  1  0  0  0  0
 23 24  2  0  0  0  0
 24 25  1  0  0  0  0
 25 26  2  0  0  0  0
 26 27  1  0  0  0  0
 27 28  2  0  0  0  0
 14 29  1  0  0  0  0
 29 30  2  0  0  0  0
 30 31  1  0  0  0  0
 31 32  2  0  0  0  0
 32 33  1  0  0  0  0
  8  3  2  0  0  0  0
 31 13  1  0  0  0  0
 32  6  1  0  0  0  0
 28 16  1  0  0  0  0
 22 17  1  0  0  0  0
 28 23  1  0  0  0  0
  1 34  1  0  0  0  0
  1 35  1  0  0  0  0
  1 36  1  0  0  0  0
  2 37  1  0  0  0  0
  2 38  1  0  0  0  0
  5 39  1  0  0  0  0
  5 40  1  0  0  0  0
  5 41  1  0  0  0  0
  9 42  1  0  0  0  0
  9 43  1  0  0  0  0
  9 44  1  0  0  0  0
 15 45  1  0  0  0  0
 18 46  1  0  0  0  0
 19 47  1  0  0  0  0
 20 48  1  0  0  0  0
 21 49  1  0  0  0  0
 24 50  1  0  0  0  0
 25 51  1  0  0  0  0
 26 52  1  0  0  0  0
 27 53  1  0  0  0  0
 29 54  1  0  0  0  0
 30 55  1  0  0  0  0
 33 56  1  0  0  0  0
 33 57  1  0  0  0  0
 33 58  1  0  0  0  0
M  CHG  1  10  -1
M  CHG  1  13   1
M  END
