
  xtb     03012221203D
 energy: -10.010706289635 gnorm: 0.000423305921 xtb: 6.4.1 (afa7bdf)
 49 53  0     0  0            999 V2000
    7.4084    1.8514   -1.0929 C   0  0  0  0  0  0  0  0  0  0  0  0
    7.2068    0.4584   -1.0608 O   0  0  0  0  0  0  0  0  0  0  0  0
    5.9028    0.0680   -0.8653 C   0  0  0  0  0  0  0  0  0  0  0  0
    5.6391   -1.3175   -0.8163 C   0  0  0  0  0  0  0  0  0  0  0  0
    4.3739   -1.7935   -0.6243 C   0  0  0  0  0  0  0  0  0  0  0  0
    3.2971   -0.9132   -0.4697 C   0  0  0  0  0  0  0  0  0  0  0  0
    2.0036   -1.3593   -0.2697 C   0  0  0  0  0  0  0  0  0  0  0  0
    0.8110   -1.6106   -0.0816 C   0  0  0  0  0  0  0  0  0  0  0  0
   -0.5372   -1.7171    0.1316 C   0  0  0  0  0  0  0  0  0  0  0  0
   -1.3448   -2.8667    0.4873 C   0  0  0  0  0  0  0  0  0  0  0  0
   -1.0057   -4.2000    0.7004 C   0  0  0  0  0  0  0  0  0  0  0  0
   -2.0042   -5.0894    1.0352 C   0  0  0  0  0  0  0  0  0  0  0  0
   -3.3265   -4.6728    1.1602 C   0  0  0  0  0  0  0  0  0  0  0  0
   -3.6803   -3.3553    0.9528 C   0  0  0  0  0  0  0  0  0  0  0  0
   -2.6866   -2.4445    0.6140 C   0  0  0  0  0  0  0  0  0  0  0  0
   -2.7137   -1.0204    0.3367 C   0  0  0  0  0  0  0  0  0  0  0  0
   -1.3987   -0.6809    0.0605 N   0  0  0  0  0  0  0  0  0  0  0  0
   -0.9653    0.7441   -0.3061 B   0  0  0  0  0  4  0  0  0  0  0  0
   -0.4504    0.7526   -1.5988 F   0  0  0  0  0  0  0  0  0  0  0  0
   -0.0296    1.2030    0.6160 F   0  0  0  0  0  0  0  0  0  0  0  0
   -2.1916    1.6602   -0.2631 N   0  0  0  0  0  4  0  0  0  0  0  0
   -2.1658    2.9715   -0.5182 C   0  0  0  0  0  0  0  0  0  0  0  0
   -0.9642    3.7467   -0.8718 C   0  0  0  0  0  0  0  0  0  0  0  0
   -3.4959    3.4268   -0.3769 C   0  0  0  0  0  0  0  0  0  0  0  0
   -4.3078    2.3570   -0.0396 C   0  0  0  0  0  0  0  0  0  0  0  0
   -5.7668    2.3940    0.2174 C   0  0  0  0  0  0  0  0  0  0  0  0
   -3.4720    1.2053    0.0375 C   0  0  0  0  0  0  0  0  0  0  0  0
   -3.7554   -0.1210    0.3348 C   0  0  0  0  0  0  0  0  0  0  0  0
    3.5459    0.4638   -0.5172 C   0  0  0  0  0  0  0  0  0  0  0  0
    4.8090    0.9464   -0.7094 C   0  0  0  0  0  0  0  0  0  0  0  0
    7.1044    2.2931   -0.1431 H   0  0  0  0  0  0  0  0  0  0  0  0
    6.8464    2.2891   -1.9188 H   0  0  0  0  0  0  0  0  0  0  0  0
    8.4709    2.0425   -1.2477 H   0  0  0  0  0  0  0  0  0  0  0  0
    6.4687   -1.9929   -0.9350 H   0  0  0  0  0  0  0  0  0  0  0  0
    4.1887   -2.8529   -0.5890 H   0  0  0  0  0  0  0  0  0  0  0  0
    0.0173   -4.5146    0.6024 H   0  0  0  0  0  0  0  0  0  0  0  0
   -1.7573   -6.1248    1.2033 H   0  0  0  0  0  0  0  0  0  0  0  0
   -4.0855   -5.3907    1.4231 H   0  0  0  0  0  0  0  0  0  0  0  0
   -4.6999   -3.0282    1.0481 H   0  0  0  0  0  0  0  0  0  0  0  0
   -1.0957    4.2577   -1.8256 H   0  0  0  0  0  0  0  0  0  0  0  0
   -0.7417    4.4911   -0.1074 H   0  0  0  0  0  0  0  0  0  0  0  0
   -0.1042    3.0813   -0.9582 H   0  0  0  0  0  0  0  0  0  0  0  0
   -3.8229    4.4435   -0.5105 H   0  0  0  0  0  0  0  0  0  0  0  0
   -6.2896    1.6712   -0.4095 H   0  0  0  0  0  0  0  0  0  0  0  0
   -5.9824    2.1569    1.2594 H   0  0  0  0  0  0  0  0  0  0  0  0
   -6.1776    3.3814    0.0052 H   0  0  0  0  0  0  0  0  0  0  0  0
   -4.7568   -0.4345    0.5607 H   0  0  0  0  0  0  0  0  0  0  0  0
    2.7122    1.1347   -0.3959 H   0  0  0  0  0  0  0  0  0  0  0  0
    4.9701    2.0092   -0.7417 H   0  0  0  0  0  0  0  0  0  0  0  0
  1  2  1  0  0  0  0
  2  3  1  0  0  0  0
  3  4  2  0  0  0  0
  4  5  1  0  0  0  0
  5  6  2  0  0  0  0
  6  7  1  0  0  0  0
  7  8  3  0  0  0  0
  8  9  1  0  0  0  0
  9 10  2  0  0  0  0
 10 11  1  0  0  0  0
 11 12  2  0  0  0  0
 12 13  1  0  0  0  0
 13 14  2  0  0  0  0
 14 15  1  0  0  0  0
 15 16  2  0  0  0  0
 16 17  1  0  0  0  0
 17 18  1  0  0  0  0
 18 19  1  0  0  0  0
 18 20  1  0  0  0  0
 18 21  1  0  0  0  0
 21 22  2  0  0  0  0
 22 23  1  0  0  0  0
 22 24  1  0  0  0  0
 24 25  2  0  0  0  0
 25 26  1  0  0  0  0
 25 27  1  0  0  0  0
 27 28  2  0  0  0  0
  6 29  1  0  0  0  0
 29 30  2  0  0  0  0
 30  3  1  0  0  0  0
 17  9  1  0  0  0  0
 27 21  1  0  0  0  0
 15 10  1  0  0  0  0
 28 16  1  0  0  0  0
  1 31  1  0  0  0  0
  1 32  1  0  0  0  0
  1 33  1  0  0  0  0
  4 34  1  0  0  0  0
  5 35  1  0  0  0  0
 11 36  1  0  0  0  0
 12 37  1  0  0  0  0
 13 38  1  0  0  0  0
 14 39  1  0  0  0  0
 23 40  1  0  0  0  0
 23 41  1  0  0  0  0
 23 42  1  0  0  0  0
 24 43  1  0  0  0  0
 26 44  1  0  0  0  0
 26 45  1  0  0  0  0
 26 46  1  0  0  0  0
 28 47  1  0  0  0  0
 29 48  1  0  0  0  0
 30 49  1  0  0  0  0
M  CHG  1  18  -1
M  CHG  1  21   1
M  END
