
  xtb     03012221263D
 energy: -18.624545925999 gnorm: 0.000333096340 xtb: 6.4.1 (afa7bdf)
103107  0     0  0            999 V2000
  -10.2684   -1.8752   -0.6226 C   0  0  0  0  0  0  0  0  0  0  0  0
   -8.7662   -2.0163   -0.4356 C   0  0  0  0  0  0  0  0  0  0  0  0
   -8.0672   -0.6738   -0.2041 C   0  0  0  0  0  0  0  0  0  0  0  0
   -6.5888   -0.7787    0.0121 C   0  0  0  0  0  0  0  0  0  0  0  0
   -5.8025   -1.8873   -0.1072 C   0  0  0  0  0  0  0  0  0  0  0  0
   -4.4794   -1.4681    0.1937 C   0  0  0  0  0  0  0  0  0  0  0  0
   -4.4575   -0.1601    0.4786 N   0  0  0  0  0  0  0  0  0  0  0  0
   -5.7086    0.3026    0.3792 C   0  0  0  0  0  0  0  0  0  0  0  0
   -6.1188    1.6544    0.5928 C   0  0  0  0  0  0  0  0  0  0  0  0
   -5.3842    2.7554    0.9366 C   0  0  0  0  0  0  0  0  0  0  0  0
   -3.9882    2.9050    1.2006 C   0  0  0  0  0  0  0  0  0  0  0  0
   -3.0141    1.9350    1.1965 N   0  0  0  0  0  0  0  0  0  0  0  0
   -1.7839    2.4541    1.4710 C   0  0  0  0  0  0  0  0  0  0  0  0
   -1.9674    3.8303    1.6684 C   0  0  0  0  0  0  0  0  0  0  0  0
   -3.3155    4.1142    1.5160 C   0  0  0  0  0  0  0  0  0  0  0  0
   -3.9244    5.4772    1.5888 C   0  0  0  0  0  0  0  0  0  0  0  0
   -4.1211    6.1125    0.2125 C   0  0  0  0  0  0  0  0  0  0  0  0
   -4.7488    7.4941    0.2868 C   0  0  0  0  0  0  0  0  0  0  0  0
   -0.5827    1.6629    1.4984 C   0  0  0  0  0  0  0  0  0  0  0  0
   -0.5943    0.3418    1.2916 N   0  0  0  0  0  0  0  0  0  0  0  0
    0.6727   -0.1013    1.3431 C   0  0  0  0  0  0  0  0  0  0  0  0
    1.1045   -1.4708    1.1614 C   0  0  0  0  0  0  0  0  0  0  0  0
    2.4520   -1.6754    1.3804 O   0  0  0  0  0  0  0  0  0  0  0  0
    3.0613   -2.8922    1.1238 C   0  0  0  0  0  0  0  0  0  0  0  0
    2.5650   -3.8594    0.6008 O   0  0  0  0  0  0  0  0  0  0  0  0
    4.4981   -2.9795    1.5601 C   0  0  0  0  0  0  0  0  0  0  0  0
    5.4038   -3.4384    0.4222 C   0  0  0  0  0  0  0  0  0  0  0  0
    5.5372   -2.3947   -0.6766 C   0  0  0  0  0  0  0  0  0  0  0  0
    6.2154   -1.1969   -0.2284 N   0  0  0  0  0  0  0  0  0  0  0  0
    6.5225   -0.1772   -1.1142 C   0  0  0  0  0  0  0  0  0  0  0  0
    6.0710   -0.1886   -2.2478 O   0  0  0  0  0  0  0  0  0  0  0  0
    7.3513    0.7946   -0.6112 O   0  0  0  0  0  0  0  0  0  0  0  0
    7.7848    1.7888   -1.5803 C   0  0  0  0  0  0  0  0  0  0  0  0
    8.5410    1.0997   -2.7256 C   0  0  0  0  0  0  0  0  0  0  0  0
    8.7311    2.7544   -0.8490 C   0  0  0  0  0  0  0  0  0  0  0  0
    6.5774    2.5680   -2.1178 C   0  0  0  0  0  0  0  0  0  0  0  0
    0.2728   -2.5508    0.8066 C   0  0  0  0  0  0  0  0  0  0  0  0
   -1.0859   -2.6758    0.5266 C   0  0  0  0  0  0  0  0  0  0  0  0
   -2.0777   -1.7160    0.5596 N   0  0  0  0  0  0  0  0  0  0  0  0
   -3.2807   -2.2481    0.2248 C   0  0  0  0  0  0  0  0  0  0  0  0
   -3.0704   -3.6243   -0.0514 C   0  0  0  0  0  0  0  0  0  0  0  0
   -1.7394   -3.8972    0.1343 C   0  0  0  0  0  0  0  0  0  0  0  0
   -1.0612   -5.2117   -0.0865 C   0  0  0  0  0  0  0  0  0  0  0  0
   -0.2142   -5.2358   -1.3584 C   0  0  0  0  0  0  0  0  0  0  0  0
    0.5604   -6.5292   -1.5283 C   0  0  0  0  0  0  0  0  0  0  0  0
    1.5425    1.0104    1.6036 C   0  0  0  0  0  0  0  0  0  0  0  0
    3.0352    1.0120    1.6498 C   0  0  0  0  0  0  0  0  0  0  0  0
    3.6680    0.7819    0.2736 C   0  0  0  0  0  0  0  0  0  0  0  0
    3.2399    1.8078   -0.7584 C   0  0  0  0  0  0  0  0  0  0  0  0
    0.7435    2.1142    1.6956 C   0  0  0  0  0  0  0  0  0  0  0  0
  -10.5012   -1.2396   -1.4786 H   0  0  0  0  0  0  0  0  0  0  0  0
  -10.7538   -2.8394   -0.7874 H   0  0  0  0  0  0  0  0  0  0  0  0
  -10.7336   -1.4189    0.2528 H   0  0  0  0  0  0  0  0  0  0  0  0
   -8.3228   -2.5098   -1.3106 H   0  0  0  0  0  0  0  0  0  0  0  0
   -8.5524   -2.6848    0.4092 H   0  0  0  0  0  0  0  0  0  0  0  0
   -8.2552   -0.0106   -1.0551 H   0  0  0  0  0  0  0  0  0  0  0  0
   -8.5169   -0.1763    0.6618 H   0  0  0  0  0  0  0  0  0  0  0  0
   -6.1127   -2.8828   -0.3711 H   0  0  0  0  0  0  0  0  0  0  0  0
   -7.1743    1.8168    0.4501 H   0  0  0  0  0  0  0  0  0  0  0  0
   -5.9399    3.6764    1.0255 H   0  0  0  0  0  0  0  0  0  0  0  0
   -3.1899    0.9603    0.9766 H   0  0  0  0  0  0  0  0  0  0  0  0
   -1.1919    4.5443    1.8899 H   0  0  0  0  0  0  0  0  0  0  0  0
   -4.8824    5.4213    2.1183 H   0  0  0  0  0  0  0  0  0  0  0  0
   -3.2906    6.1226    2.2083 H   0  0  0  0  0  0  0  0  0  0  0  0
   -3.1530    6.1612   -0.3026 H   0  0  0  0  0  0  0  0  0  0  0  0
   -4.7370    5.4484   -0.4076 H   0  0  0  0  0  0  0  0  0  0  0  0
   -5.7279    7.4573    0.7687 H   0  0  0  0  0  0  0  0  0  0  0  0
   -4.8862    7.9367   -0.7026 H   0  0  0  0  0  0  0  0  0  0  0  0
   -4.1292    8.1785    0.8696 H   0  0  0  0  0  0  0  0  0  0  0  0
    4.8174   -2.0025    1.9314 H   0  0  0  0  0  0  0  0  0  0  0  0
    4.5580   -3.6693    2.4073 H   0  0  0  0  0  0  0  0  0  0  0  0
    5.0031   -4.3716    0.0080 H   0  0  0  0  0  0  0  0  0  0  0  0
    6.4016   -3.6826    0.8055 H   0  0  0  0  0  0  0  0  0  0  0  0
    4.5506   -2.1054   -1.0555 H   0  0  0  0  0  0  0  0  0  0  0  0
    6.0906   -2.7897   -1.5375 H   0  0  0  0  0  0  0  0  0  0  0  0
    6.7168   -1.2648    0.6568 H   0  0  0  0  0  0  0  0  0  0  0  0
    8.9091    1.8262   -3.4481 H   0  0  0  0  0  0  0  0  0  0  0  0
    7.8852    0.4014   -3.2421 H   0  0  0  0  0  0  0  0  0  0  0  0
    9.3875    0.5379   -2.3358 H   0  0  0  0  0  0  0  0  0  0  0  0
    9.1043    3.5257   -1.5210 H   0  0  0  0  0  0  0  0  0  0  0  0
    9.5808    2.2115   -0.4396 H   0  0  0  0  0  0  0  0  0  0  0  0
    8.2132    3.2360   -0.0219 H   0  0  0  0  0  0  0  0  0  0  0  0
    6.0298    3.0301   -1.2991 H   0  0  0  0  0  0  0  0  0  0  0  0
    5.9019    1.8960   -2.6428 H   0  0  0  0  0  0  0  0  0  0  0  0
    6.8898    3.3488   -2.8093 H   0  0  0  0  0  0  0  0  0  0  0  0
    0.7994   -3.4792    0.7278 H   0  0  0  0  0  0  0  0  0  0  0  0
   -1.8970   -0.7498    0.8116 H   0  0  0  0  0  0  0  0  0  0  0  0
   -3.8241   -4.3280   -0.3573 H   0  0  0  0  0  0  0  0  0  0  0  0
   -1.8113   -6.0085   -0.1226 H   0  0  0  0  0  0  0  0  0  0  0  0
   -0.4342   -5.4423    0.7809 H   0  0  0  0  0  0  0  0  0  0  0  0
    0.4808   -4.3842   -1.3496 H   0  0  0  0  0  0  0  0  0  0  0  0
   -0.8631   -5.0586   -2.2279 H   0  0  0  0  0  0  0  0  0  0  0  0
    1.1504   -6.5358   -2.4469 H   0  0  0  0  0  0  0  0  0  0  0  0
    1.2489   -6.6838   -0.6960 H   0  0  0  0  0  0  0  0  0  0  0  0
   -0.1096   -7.3897   -1.5594 H   0  0  0  0  0  0  0  0  0  0  0  0
    3.3794    1.9659    2.0626 H   0  0  0  0  0  0  0  0  0  0  0  0
    3.3648    0.2412    2.3555 H   0  0  0  0  0  0  0  0  0  0  0  0
    3.3962   -0.2220   -0.0757 H   0  0  0  0  0  0  0  0  0  0  0  0
    4.7618    0.7722    0.3625 H   0  0  0  0  0  0  0  0  0  0  0  0
    2.1549    1.8083   -0.8865 H   0  0  0  0  0  0  0  0  0  0  0  0
    3.5298    2.8173   -0.4583 H   0  0  0  0  0  0  0  0  0  0  0  0
    3.6827    1.6094   -1.7378 H   0  0  0  0  0  0  0  0  0  0  0  0
    1.0612    3.1293    1.8589 H   0  0  0  0  0  0  0  0  0  0  0  0
  1  2  1  0  0  0  0
  2  3  1  0  0  0  0
  3  4  1  0  0  0  0
  4  5  2  0  0  0  0
  5  6  1  0  0  0  0
  6  7  2  0  0  0  0
  7  8  1  0  0  0  0
  8  9  2  0  0  0  0
  9 10  1  0  0  0  0
 10 11  2  0  0  0  0
 11 12  1  0  0  0  0
 12 13  1  0  0  0  0
 13 14  1  0  0  0  0
 14 15  2  0  0  0  0
 15 16  1  0  0  0  0
 16 17  1  0  0  0  0
 17 18  1  0  0  0  0
 13 19  2  0  0  0  0
 19 20  1  0  0  0  0
 20 21  2  0  0  0  0
 21 22  1  0  0  0  0
 22 23  1  0  0  0  0
 23 24  1  0  0  0  0
 24 25  2  0  0  0  0
 24 26  1  0  0  0  0
 26 27  1  0  0  0  0
 27 28  1  0  0  0  0
 28 29  1  0  0  0  0
 29 30  1  0  0  0  0
 30 31  2  0  0  0  0
 30 32  1  0  0  0  0
 32 33  1  0  0  0  0
 33 34  1  0  0  0  0
 33 35  1  0  0  0  0
 33 36  1  0  0  0  0
 22 37  2  0  0  0  0
 37 38  1  0  0  0  0
 38 39  1  0  0  0  0
 39 40  1  0  0  0  0
 40 41  2  0  0  0  0
 41 42  1  0  0  0  0
 42 43  1  0  0  0  0
 43 44  1  0  0  0  0
 44 45  1  0  0  0  0
 21 46  1  0  0  0  0
 46 47  1  0  0  0  0
 47 48  1  0  0  0  0
 48 49  1  0  0  0  0
 46 50  2  0  0  0  0
  8  4  1  0  0  0  0
 15 11  1  0  0  0  0
 50 19  1  0  0  0  0
 40  6  1  0  0  0  0
 42 38  2  0  0  0  0
  1 51  1  0  0  0  0
  1 52  1  0  0  0  0
  1 53  1  0  0  0  0
  2 54  1  0  0  0  0
  2 55  1  0  0  0  0
  3 56  1  0  0  0  0
  3 57  1  0  0  0  0
  5 58  1  0  0  0  0
  9 59  1  0  0  0  0
 10 60  1  0  0  0  0
 12 61  1  0  0  0  0
 14 62  1  0  0  0  0
 16 63  1  0  0  0  0
 16 64  1  0  0  0  0
 17 65  1  0  0  0  0
 17 66  1  0  0  0  0
 18 67  1  0  0  0  0
 18 68  1  0  0  0  0
 18 69  1  0  0  0  0
 26 70  1  0  0  0  0
 26 71  1  0  0  0  0
 27 72  1  0  0  0  0
 27 73  1  0  0  0  0
 28 74  1  0  0  0  0
 28 75  1  0  0  0  0
 29 76  1  0  0  0  0
 34 77  1  0  0  0  0
 34 78  1  0  0  0  0
 34 79  1  0  0  0  0
 35 80  1  0  0  0  0
 35 81  1  0  0  0  0
 35 82  1  0  0  0  0
 36 83  1  0  0  0  0
 36 84  1  0  0  0  0
 36 85  1  0  0  0  0
 37 86  1  0  0  0  0
 39 87  1  0  0  0  0
 41 88  1  0  0  0  0
 43 89  1  0  0  0  0
 43 90  1  0  0  0  0
 44 91  1  0  0  0  0
 44 92  1  0  0  0  0
 45 93  1  0  0  0  0
 45 94  1  0  0  0  0
 45 95  1  0  0  0  0
 47 96  1  0  0  0  0
 47 97  1  0  0  0  0
 48 98  1  0  0  0  0
 48 99  1  0  0  0  0
 49100  1  0  0  0  0
 49101  1  0  0  0  0
 49102  1  0  0  0  0
 50103  1  0  0  0  0
M  END
