
  xtb     03012221303D
 energy: -11.755663624126 gnorm: 0.000366991700 xtb: 6.4.1 (afa7bdf)
 67 68  0     0  0            999 V2000
   -0.9104   -4.1399    0.3977 C   0  0  0  0  0  0  0  0  0  0  0  0
   -1.6735   -3.6027   -0.8167 C   0  0  0  0  0  0  0  0  0  0  0  0
   -3.0571   -4.2572   -0.9004 C   0  0  0  0  0  0  0  0  0  0  0  0
   -0.8847   -3.8855   -2.0989 C   0  0  0  0  0  0  0  0  0  0  0  0
   -1.8300   -2.1377   -0.6698 N   0  0  0  0  0  0  0  0  0  0  0  0
   -0.7432   -1.2892   -0.5387 C   0  0  0  0  0  0  0  0  0  0  0  0
    0.5598   -1.6369   -0.7440 O   0  0  0  0  0  0  0  0  0  0  0  0
    1.3119   -0.5045   -0.5182 C   0  0  0  0  0  0  0  0  0  0  0  0
    2.7331   -0.4103   -0.6450 C   0  0  0  0  0  0  0  0  0  0  0  0
    3.4974   -1.4681   -0.9606 C   0  0  0  0  0  0  0  0  0  0  0  0
    4.9353   -1.4497   -1.1214 C   0  0  0  0  0  0  0  0  0  0  0  0
    5.6896   -0.2853   -0.9658 C   0  0  0  0  0  0  0  0  0  0  0  0
    7.0560   -0.3051   -1.1269 C   0  0  0  0  0  0  0  0  0  0  0  0
    7.7034   -1.4815   -1.4464 C   0  0  0  0  0  0  0  0  0  0  0  0
    6.9738   -2.6423   -1.6048 C   0  0  0  0  0  0  0  0  0  0  0  0
    5.6074   -2.6293   -1.4451 C   0  0  0  0  0  0  0  0  0  0  0  0
    0.4814    0.5533   -0.1388 C   0  0  0  0  0  0  0  0  0  0  0  0
    0.9457    1.8961    0.2739 C   0  0  0  0  0  0  0  0  0  0  0  0
    1.8778    2.4166   -0.3149 O   0  0  0  0  0  0  0  0  0  0  0  0
    0.2815    2.4466    1.3471 O   0  0  0  0  0  0  0  0  0  0  0  0
    0.5263    3.8635    1.5359 C   0  0  0  0  0  0  0  0  0  0  0  0
   -0.3758    4.3343    2.6870 C   0  0  0  0  0  0  0  0  0  0  0  0
    1.9965    4.1050    1.9003 C   0  0  0  0  0  0  0  0  0  0  0  0
    0.1427    4.6060    0.2475 C   0  0  0  0  0  0  0  0  0  0  0  0
   -0.8374    0.0653   -0.1719 C   0  0  0  0  0  0  0  0  0  0  0  0
   -2.0899    0.8093    0.0449 C   0  0  0  0  0  0  0  0  0  0  0  0
   -2.1260    2.0187   -0.1150 O   0  0  0  0  0  0  0  0  0  0  0  0
   -3.1739    0.0409    0.4041 O   0  0  0  0  0  0  0  0  0  0  0  0
   -4.3900    0.7973    0.6315 C   0  0  0  0  0  0  0  0  0  0  0  0
   -4.1694    1.8022    1.7672 C   0  0  0  0  0  0  0  0  0  0  0  0
   -5.4841   -0.1980    1.0380 C   0  0  0  0  0  0  0  0  0  0  0  0
   -4.8081    1.5124   -0.6575 C   0  0  0  0  0  0  0  0  0  0  0  0
    0.0661   -3.6631    0.4697 H   0  0  0  0  0  0  0  0  0  0  0  0
   -1.4539   -3.9256    1.3164 H   0  0  0  0  0  0  0  0  0  0  0  0
   -0.7641   -5.2168    0.3271 H   0  0  0  0  0  0  0  0  0  0  0  0
   -3.6181   -3.8600   -1.7449 H   0  0  0  0  0  0  0  0  0  0  0  0
   -2.9723   -5.3358   -1.0251 H   0  0  0  0  0  0  0  0  0  0  0  0
   -3.6309   -4.0649    0.0050 H   0  0  0  0  0  0  0  0  0  0  0  0
   -0.7330   -4.9545   -2.2422 H   0  0  0  0  0  0  0  0  0  0  0  0
    0.0895   -3.4013   -2.0561 H   0  0  0  0  0  0  0  0  0  0  0  0
   -1.4131   -3.4925   -2.9658 H   0  0  0  0  0  0  0  0  0  0  0  0
   -2.7369   -1.8401   -0.3073 H   0  0  0  0  0  0  0  0  0  0  0  0
    3.1693    0.5594   -0.4986 H   0  0  0  0  0  0  0  0  0  0  0  0
    2.9992   -2.4088   -1.1092 H   0  0  0  0  0  0  0  0  0  0  0  0
    5.1984    0.6395   -0.7198 H   0  0  0  0  0  0  0  0  0  0  0  0
    7.6239    0.6043   -1.0036 H   0  0  0  0  0  0  0  0  0  0  0  0
    8.7732   -1.4934   -1.5722 H   0  0  0  0  0  0  0  0  0  0  0  0
    7.4765   -3.5638   -1.8554 H   0  0  0  0  0  0  0  0  0  0  0  0
    5.0409   -3.5367   -1.5699 H   0  0  0  0  0  0  0  0  0  0  0  0
   -0.1385    3.7898    3.5986 H   0  0  0  0  0  0  0  0  0  0  0  0
   -1.4191    4.1416    2.4457 H   0  0  0  0  0  0  0  0  0  0  0  0
   -0.2526    5.3994    2.8755 H   0  0  0  0  0  0  0  0  0  0  0  0
    2.6440    3.7559    1.0987 H   0  0  0  0  0  0  0  0  0  0  0  0
    2.1922    5.1629    2.0665 H   0  0  0  0  0  0  0  0  0  0  0  0
    2.2570    3.5568    2.8032 H   0  0  0  0  0  0  0  0  0  0  0  0
    0.7856    4.2896   -0.5717 H   0  0  0  0  0  0  0  0  0  0  0  0
   -0.8824    4.3604   -0.0257 H   0  0  0  0  0  0  0  0  0  0  0  0
    0.2317    5.6843    0.3661 H   0  0  0  0  0  0  0  0  0  0  0  0
   -3.8604    1.2860    2.6743 H   0  0  0  0  0  0  0  0  0  0  0  0
   -3.3816    2.5039    1.5000 H   0  0  0  0  0  0  0  0  0  0  0  0
   -5.0769    2.3656    1.9790 H   0  0  0  0  0  0  0  0  0  0  0  0
   -5.6410   -0.9315    0.2491 H   0  0  0  0  0  0  0  0  0  0  0  0
   -5.1913   -0.7345    1.9387 H   0  0  0  0  0  0  0  0  0  0  0  0
   -6.4283    0.3100    1.2297 H   0  0  0  0  0  0  0  0  0  0  0  0
   -5.7369    2.0640   -0.5197 H   0  0  0  0  0  0  0  0  0  0  0  0
   -4.9479    0.7926   -1.4619 H   0  0  0  0  0  0  0  0  0  0  0  0
   -4.0346    2.2123   -0.9681 H   0  0  0  0  0  0  0  0  0  0  0  0
  1  2  1  0  0  0  0
  2  3  1  0  0  0  0
  2  4  1  0  0  0  0
  2  5  1  0  0  0  0
  5  6  1  0  0  0  0
  6  7  1  0  0  0  0
  7  8  1  0  0  0  0
  8  9  1  0  0  0  0
  9 10  2  0  0  0  0
 10 11  1  0  0  0  0
 11 12  2  0  0  0  0
 12 13  1  0  0  0  0
 13 14  2  0  0  0  0
 14 15  1  0  0  0  0
 15 16  2  0  0  0  0
  8 17  2  0  0  0  0
 17 18  1  0  0  0  0
 18 19  2  0  0  0  0
 18 20  1  0  0  0  0
 20 21  1  0  0  0  0
 21 22  1  0  0  0  0
 21 23  1  0  0  0  0
 21 24  1  0  0  0  0
 17 25  1  0  0  0  0
 25 26  1  0  0  0  0
 26 27  2  0  0  0  0
 26 28  1  0  0  0  0
 28 29  1  0  0  0  0
 29 30  1  0  0  0  0
 29 31  1  0  0  0  0
 29 32  1  0  0  0  0
 25  6  2  0  0  0  0
 16 11  1  0  0  0  0
  1 33  1  0  0  0  0
  1 34  1  0  0  0  0
  1 35  1  0  0  0  0
  3 36  1  0  0  0  0
  3 37  1  0  0  0  0
  3 38  1  0  0  0  0
  4 39  1  0  0  0  0
  4 40  1  0  0  0  0
  4 41  1  0  0  0  0
  5 42  1  0  0  0  0
  9 43  1  0  0  0  0
 10 44  1  0  0  0  0
 12 45  1  0  0  0  0
 13 46  1  0  0  0  0
 14 47  1  0  0  0  0
 15 48  1  0  0  0  0
 16 49  1  0  0  0  0
 22 50  1  0  0  0  0
 22 51  1  0  0  0  0
 22 52  1  0  0  0  0
 23 53  1  0  0  0  0
 23 54  1  0  0  0  0
 23 55  1  0  0  0  0
 24 56  1  0  0  0  0
 24 57  1  0  0  0  0
 24 58  1  0  0  0  0
 30 59  1  0  0  0  0
 30 60  1  0  0  0  0
 30 61  1  0  0  0  0
 31 62  1  0  0  0  0
 31 63  1  0  0  0  0
 31 64  1  0  0  0  0
 32 65  1  0  0  0  0
 32 66  1  0  0  0  0
 32 67  1  0  0  0  0
M  END
