
  xtb     03012221273D
 energy: -9.384410754843 gnorm: 0.000494687938 xtb: 6.4.1 (afa7bdf)
 47 50  0     0  0            999 V2000
    5.5373   -1.5954   -2.4664 N   0  0  0  0  0  0  0  0  0  0  0  0
    5.7549   -1.6702   -0.7781 S   0  0  0  0  0  6  0  0  0  0  0  0
    5.9576   -3.1035   -0.3979 O   0  0  0  0  0  0  0  0  0  0  0  0
    6.6949   -0.5730   -0.3858 O   0  0  0  0  0  0  0  0  0  0  0  0
    4.1052   -1.1875   -0.2789 C   0  0  0  0  0  0  0  0  0  0  0  0
    3.8451    0.1274    0.0342 C   0  0  0  0  0  0  0  0  0  0  0  0
    2.5774    0.5070    0.4155 C   0  0  0  0  0  0  0  0  0  0  0  0
    1.5555   -0.4357    0.4869 C   0  0  0  0  0  0  0  0  0  0  0  0
    0.2378   -0.0893    0.8734 N   0  0  0  0  0  0  0  0  0  0  0  0
   -0.7829   -0.9804    0.8701 N   0  0  0  0  0  0  0  0  0  0  0  0
   -1.8573   -0.4193    1.3419 C   0  0  0  0  0  0  0  0  0  0  0  0
   -3.1219   -1.1128    1.4585 C   0  0  0  0  0  0  0  0  0  0  0  0
   -4.2626   -0.4898    1.9750 C   0  0  0  0  0  0  0  0  0  0  0  0
   -5.4507   -1.1694    2.0735 C   0  0  0  0  0  0  0  0  0  0  0  0
   -5.5497   -2.5004    1.6598 C   0  0  0  0  0  0  0  0  0  0  0  0
   -6.7335   -3.2084    1.7472 O   0  0  0  0  0  0  0  0  0  0  0  0
   -4.4106   -3.1224    1.1443 C   0  0  0  0  0  0  0  0  0  0  0  0
   -3.2233   -2.4431    1.0460 C   0  0  0  0  0  0  0  0  0  0  0  0
   -1.6172    1.0163    1.7289 C   0  0  0  0  0  0  0  0  0  0  0  0
   -0.1614    1.2699    1.3131 C   0  0  0  0  0  0  0  0  0  0  0  0
   -0.0311    2.2754    0.2037 C   0  0  0  0  0  0  0  0  0  0  0  0
   -0.3165    1.9003   -1.1012 C   0  0  0  0  0  0  0  0  0  0  0  0
   -0.2111    2.8064   -2.1329 C   0  0  0  0  0  0  0  0  0  0  0  0
    0.1778    4.1073   -1.8669 C   0  0  0  0  0  0  0  0  0  0  0  0
    0.3093    5.2484   -3.1557 Cl  0  0  0  0  0  0  0  0  0  0  0  0
    0.4582    4.4958   -0.5685 C   0  0  0  0  0  0  0  0  0  0  0  0
    0.3520    3.5858    0.4609 C   0  0  0  0  0  0  0  0  0  0  0  0
    1.8358   -1.7591    0.1680 C   0  0  0  0  0  0  0  0  0  0  0  0
    3.1063   -2.1320   -0.2118 C   0  0  0  0  0  0  0  0  0  0  0  0
    5.7640   -2.4947   -2.8432 H   0  0  0  0  0  0  0  0  0  0  0  0
    6.1956   -0.9321   -2.8239 H   0  0  0  0  0  0  0  0  0  0  0  0
    4.6463    0.8458   -0.0200 H   0  0  0  0  0  0  0  0  0  0  0  0
    2.3678    1.5348    0.6469 H   0  0  0  0  0  0  0  0  0  0  0  0
   -4.2018    0.5341    2.2982 H   0  0  0  0  0  0  0  0  0  0  0  0
   -6.3218   -0.6818    2.4726 H   0  0  0  0  0  0  0  0  0  0  0  0
   -7.4376   -2.6426    2.1306 H   0  0  0  0  0  0  0  0  0  0  0  0
   -4.4899   -4.1466    0.8269 H   0  0  0  0  0  0  0  0  0  0  0  0
   -2.3488   -2.9260    0.6476 H   0  0  0  0  0  0  0  0  0  0  0  0
   -1.7757    1.1619    2.8031 H   0  0  0  0  0  0  0  0  0  0  0  0
   -2.2992    1.6820    1.1907 H   0  0  0  0  0  0  0  0  0  0  0  0
    0.4649    1.5551    2.1699 H   0  0  0  0  0  0  0  0  0  0  0  0
   -0.6137    0.8848   -1.2942 H   0  0  0  0  0  0  0  0  0  0  0  0
   -0.4252    2.5196   -3.1480 H   0  0  0  0  0  0  0  0  0  0  0  0
    0.7569    5.5125   -0.3797 H   0  0  0  0  0  0  0  0  0  0  0  0
    0.5650    3.8849    1.4723 H   0  0  0  0  0  0  0  0  0  0  0  0
    1.0427   -2.4823    0.2282 H   0  0  0  0  0  0  0  0  0  0  0  0
    3.3351   -3.1575   -0.4502 H   0  0  0  0  0  0  0  0  0  0  0  0
  1  2  1  0  0  0  0
  2  3  2  0  0  0  0
  2  4  2  0  0  0  0
  2  5  1  0  0  0  0
  5  6  2  0  0  0  0
  6  7  1  0  0  0  0
  7  8  2  0  0  0  0
  8  9  1  0  0  0  0
  9 10  1  0  0  0  0
 10 11  2  0  0  0  0
 11 12  1  0  0  0  0
 12 13  2  0  0  0  0
 13 14  1  0  0  0  0
 14 15  2  0  0  0  0
 15 16  1  0  0  0  0
 15 17  1  0  0  0  0
 17 18  2  0  0  0  0
 11 19  1  0  0  0  0
 19 20  1  0  0  0  0
 20 21  1  0  0  0  0
 21 22  2  0  0  0  0
 22 23  1  0  0  0  0
 23 24  2  0  0  0  0
 24 25  1  0  0  0  0
 24 26  1  0  0  0  0
 26 27  2  0  0  0  0
  8 28  1  0  0  0  0
 28 29  2  0  0  0  0
 29  5  1  0  0  0  0
 20  9  1  0  0  0  0
 27 21  1  0  0  0  0
 18 12  1  0  0  0  0
  1 30  1  0  0  0  0
  1 31  1  0  0  0  0
  6 32  1  0  0  0  0
  7 33  1  0  0  0  0
 13 34  1  0  0  0  0
 14 35  1  0  0  0  0
 16 36  1  0  0  0  0
 17 37  1  0  0  0  0
 18 38  1  0  0  0  0
 19 39  1  0  0  0  0
 19 40  1  0  0  0  0
 20 41  1  0  0  0  0
 22 42  1  0  0  0  0
 23 43  1  0  0  0  0
 26 44  1  0  0  0  0
 27 45  1  0  0  0  0
 28 46  1  0  0  0  0
 29 47  1  0  0  0  0
M  END
