
  xtb     03012221233D
 energy: -6.784207635901 gnorm: 0.000229620453 xtb: 6.4.1 (afa7bdf)
 35 37  0     0  0            999 V2000
    6.4555   -0.1214   -0.6133 C   0  0  0  0  0  0  0  0  0  0  0  0
    5.6486    1.0306   -0.6442 O   0  0  0  0  0  0  0  0  0  0  0  0
    4.2791    0.7927   -0.5211 C   0  0  0  0  0  0  0  0  0  0  0  0
    3.6975   -0.4726   -0.3824 C   0  0  0  0  0  0  0  0  0  0  0  0
    2.3383   -0.6175   -0.2643 C   0  0  0  0  0  0  0  0  0  0  0  0
    1.4900    0.4928   -0.2786 C   0  0  0  0  0  0  0  0  0  0  0  0
    0.0471    0.3614   -0.1518 C   0  0  0  0  0  0  0  0  0  0  0  0
   -0.6590   -0.8027   -0.0423 C   0  0  0  0  0  0  0  0  0  0  0  0
   -2.0651   -0.6213    0.0712 C   0  0  0  0  0  0  0  0  0  0  0  0
   -2.4544    0.7062    0.0478 C   0  0  0  0  0  0  0  0  0  0  0  0
   -1.0446    1.7273   -0.1185 S   0  0  0  0  0  0  0  0  0  0  0  0
   -3.8164    1.0759    0.1503 C   0  0  0  0  0  0  0  0  0  0  0  0
   -4.2231    2.5052    0.1409 C   0  0  0  0  0  0  0  0  0  0  0  0
   -4.7420    0.0877    0.2846 C   0  0  0  0  0  0  0  0  0  0  0  0
   -4.3820   -1.3018    0.3122 C   0  0  0  0  0  0  0  0  0  0  0  0
   -5.2362   -2.1810    0.4308 O   0  0  0  0  0  0  0  0  0  0  0  0
   -3.0315   -1.6305    0.2014 N   0  0  0  0  0  0  0  0  0  0  0  0
   -2.6617   -3.0320    0.2279 C   0  0  0  0  0  0  0  0  0  0  0  0
    2.0698    1.7548   -0.4175 C   0  0  0  0  0  0  0  0  0  0  0  0
    3.4270    1.9017   -0.5364 C   0  0  0  0  0  0  0  0  0  0  0  0
    6.3270   -0.6386    0.3381 H   0  0  0  0  0  0  0  0  0  0  0  0
    7.4973    0.1850   -0.7120 H   0  0  0  0  0  0  0  0  0  0  0  0
    6.1984   -0.7769   -1.4461 H   0  0  0  0  0  0  0  0  0  0  0  0
    4.3243   -1.3462   -0.3677 H   0  0  0  0  0  0  0  0  0  0  0  0
    1.9174   -1.6011   -0.1569 H   0  0  0  0  0  0  0  0  0  0  0  0
   -0.2043   -1.7779   -0.0414 H   0  0  0  0  0  0  0  0  0  0  0  0
   -3.4042    3.1436   -0.1918 H   0  0  0  0  0  0  0  0  0  0  0  0
   -4.5179    2.8306    1.1391 H   0  0  0  0  0  0  0  0  0  0  0  0
   -5.0661    2.6667   -0.5316 H   0  0  0  0  0  0  0  0  0  0  0  0
   -5.7834    0.3344    0.3749 H   0  0  0  0  0  0  0  0  0  0  0  0
   -3.5603   -3.6382    0.3318 H   0  0  0  0  0  0  0  0  0  0  0  0
   -2.1587   -3.3040   -0.6974 H   0  0  0  0  0  0  0  0  0  0  0  0
   -2.0042   -3.2298    1.0715 H   0  0  0  0  0  0  0  0  0  0  0  0
    1.4302    2.6195   -0.4303 H   0  0  0  0  0  0  0  0  0  0  0  0
    3.8674    2.8779   -0.6435 H   0  0  0  0  0  0  0  0  0  0  0  0
  1  2  1  0  0  0  0
  2  3  1  0  0  0  0
  3  4  2  0  0  0  0
  4  5  1  0  0  0  0
  5  6  2  0  0  0  0
  6  7  1  0  0  0  0
  7  8  2  0  0  0  0
  8  9  1  0  0  0  0
  9 10  2  0  0  0  0
 10 11  1  0  0  0  0
 10 12  1  0  0  0  0
 12 13  1  0  0  0  0
 12 14  2  0  0  0  0
 14 15  1  0  0  0  0
 15 16  2  0  0  0  0
 15 17  1  0  0  0  0
 17 18  1  0  0  0  0
  6 19  1  0  0  0  0
 19 20  2  0  0  0  0
 20  3  1  0  0  0  0
 11  7  1  0  0  0  0
 17  9  1  0  0  0  0
  1 21  1  0  0  0  0
  1 22  1  0  0  0  0
  1 23  1  0  0  0  0
  4 24  1  0  0  0  0
  5 25  1  0  0  0  0
  8 26  1  0  0  0  0
 13 27  1  0  0  0  0
 13 28  1  0  0  0  0
 13 29  1  0  0  0  0
 14 30  1  0  0  0  0
 18 31  1  0  0  0  0
 18 32  1  0  0  0  0
 18 33  1  0  0  0  0
 19 34  1  0  0  0  0
 20 35  1  0  0  0  0
M  END
