
  xtb     03012221303D
 energy: -11.800556739479 gnorm: 0.000207242574 xtb: 6.4.1 (afa7bdf)
 55 61  0     0  0            999 V2000
   -5.0570    2.8077    0.4875 C   0  0  0  0  0  0  0  0  0  0  0  0
   -5.2204    1.5162    0.0268 C   0  0  0  0  0  0  0  0  0  0  0  0
   -4.1147    0.7526   -0.2860 C   0  0  0  0  0  0  0  0  0  0  0  0
   -2.8531    1.2803   -0.1388 C   0  0  0  0  0  0  0  0  0  0  0  0
   -1.4966    0.4934   -0.4635 B   0  0  0  0  0  4  0  0  0  0  0  0
   -1.7878   -1.0063   -0.9352 C   0  0  0  0  0  0  0  0  0  0  0  0
   -1.8838   -1.9906    0.0186 C   0  0  0  0  0  0  0  0  0  0  0  0
   -2.1407   -3.2924   -0.3554 C   0  0  0  0  0  0  0  0  0  0  0  0
   -2.3008   -3.6012   -1.6919 C   0  0  0  0  0  0  0  0  0  0  0  0
   -2.2034   -2.6091   -2.6481 C   0  0  0  0  0  0  0  0  0  0  0  0
   -1.9469   -1.3080   -2.2656 C   0  0  0  0  0  0  0  0  0  0  0  0
   -0.7648    1.2399   -1.5383 O   0  0  0  0  0  0  0  0  0  0  0  0
    0.5194    0.8166   -1.7357 C   0  0  0  0  0  0  0  0  0  0  0  0
    1.0983    0.8999   -3.0229 C   0  0  0  0  0  0  0  0  0  0  0  0
    2.3181    0.3645   -3.2769 C   0  0  0  0  0  0  0  0  0  0  0  0
    3.0243   -0.3388   -2.2693 C   0  0  0  0  0  0  0  0  0  0  0  0
    4.2392   -0.9957   -2.5493 C   0  0  0  0  0  0  0  0  0  0  0  0
    4.8647   -1.7437   -1.5957 C   0  0  0  0  0  0  0  0  0  0  0  0
    4.2977   -1.8806   -0.3275 C   0  0  0  0  0  0  0  0  0  0  0  0
    3.1314   -1.2441   -0.0216 C   0  0  0  0  0  0  0  0  0  0  0  0
    2.4774   -0.4203   -0.9633 C   0  0  0  0  0  0  0  0  0  0  0  0
    1.2533    0.2709   -0.6699 C   0  0  0  0  0  0  0  0  0  0  0  0
    0.6985    0.4142    0.6712 C   0  0  0  0  0  0  0  0  0  0  0  0
    1.4717    0.6339    1.8481 C   0  0  0  0  0  0  0  0  0  0  0  0
    2.8485    0.9425    1.8580 C   0  0  0  0  0  0  0  0  0  0  0  0
    3.5134    1.1367    3.0345 C   0  0  0  0  0  0  0  0  0  0  0  0
    2.8330    1.0502    4.2526 C   0  0  0  0  0  0  0  0  0  0  0  0
    1.4928    0.7996    4.2759 C   0  0  0  0  0  0  0  0  0  0  0  0
    0.7791    0.6099    3.0722 C   0  0  0  0  0  0  0  0  0  0  0  0
   -0.6142    0.4281    3.0434 C   0  0  0  0  0  0  0  0  0  0  0  0
   -1.3230    0.3623    1.9572 N   0  0  0  0  0  0  0  0  0  0  0  0
   -0.6425    0.4225    0.8149 N   0  0  0  0  0  4  0  0  0  0  0  0
   -2.6869    2.5644    0.3194 C   0  0  0  0  0  0  0  0  0  0  0  0
   -3.7886    3.3330    0.6345 C   0  0  0  0  0  0  0  0  0  0  0  0
   -5.9194    3.4053    0.7328 H   0  0  0  0  0  0  0  0  0  0  0  0
   -6.2097    1.1047   -0.0881 H   0  0  0  0  0  0  0  0  0  0  0  0
   -4.2269   -0.2554   -0.6446 H   0  0  0  0  0  0  0  0  0  0  0  0
   -1.7497   -1.7252    1.0516 H   0  0  0  0  0  0  0  0  0  0  0  0
   -2.2144   -4.0647    0.3924 H   0  0  0  0  0  0  0  0  0  0  0  0
   -2.5004   -4.6175   -1.9892 H   0  0  0  0  0  0  0  0  0  0  0  0
   -2.3256   -2.8496   -3.6913 H   0  0  0  0  0  0  0  0  0  0  0  0
   -1.8605   -0.5201   -2.9934 H   0  0  0  0  0  0  0  0  0  0  0  0
    0.5344    1.3825   -3.8009 H   0  0  0  0  0  0  0  0  0  0  0  0
    2.7435    0.4266   -4.2632 H   0  0  0  0  0  0  0  0  0  0  0  0
    4.6609   -0.9121   -3.5361 H   0  0  0  0  0  0  0  0  0  0  0  0
    5.7902   -2.2462   -1.8246 H   0  0  0  0  0  0  0  0  0  0  0  0
    4.7845   -2.4967    0.4108 H   0  0  0  0  0  0  0  0  0  0  0  0
    2.6847   -1.3829    0.9468 H   0  0  0  0  0  0  0  0  0  0  0  0
    3.3693    1.0425    0.9225 H   0  0  0  0  0  0  0  0  0  0  0  0
    4.5668    1.3620    3.0268 H   0  0  0  0  0  0  0  0  0  0  0  0
    3.3698    1.1991    5.1753 H   0  0  0  0  0  0  0  0  0  0  0  0
    0.9617    0.7581    5.2107 H   0  0  0  0  0  0  0  0  0  0  0  0
   -1.1484    0.3911    3.9774 H   0  0  0  0  0  0  0  0  0  0  0  0
   -1.6881    2.9506    0.4286 H   0  0  0  0  0  0  0  0  0  0  0  0
   -3.6580    4.3398    0.9956 H   0  0  0  0  0  0  0  0  0  0  0  0
  1  2  2  0  0  0  0
  2  3  1  0  0  0  0
  3  4  2  0  0  0  0
  4  5  1  0  0  0  0
  5  6  1  0  0  0  0
  6  7  2  0  0  0  0
  7  8  1  0  0  0  0
  8  9  2  0  0  0  0
  9 10  1  0  0  0  0
 10 11  2  0  0  0  0
  5 12  1  0  0  0  0
 12 13  1  0  0  0  0
 13 14  2  0  0  0  0
 14 15  1  0  0  0  0
 15 16  2  0  0  0  0
 16 17  1  0  0  0  0
 17 18  2  0  0  0  0
 18 19  1  0  0  0  0
 19 20  2  0  0  0  0
 20 21  1  0  0  0  0
 21 22  2  0  0  0  0
 22 23  1  0  0  0  0
 23 24  2  0  0  0  0
 24 25  1  0  0  0  0
 25 26  2  0  0  0  0
 26 27  1  0  0  0  0
 27 28  2  0  0  0  0
 28 29  1  0  0  0  0
 29 30  2  0  0  0  0
 30 31  1  0  0  0  0
 31 32  2  0  0  0  0
  4 33  1  0  0  0  0
 33 34  2  0  0  0  0
 34  1  1  0  0  0  0
 32  5  1  0  0  0  0
 11  6  1  0  0  0  0
 22 13  1  0  0  0  0
 32 23  1  0  0  0  0
 21 16  1  0  0  0  0
 29 24  1  0  0  0  0
  1 35  1  0  0  0  0
  2 36  1  0  0  0  0
  3 37  1  0  0  0  0
  7 38  1  0  0  0  0
  8 39  1  0  0  0  0
  9 40  1  0  0  0  0
 10 41  1  0  0  0  0
 11 42  1  0  0  0  0
 14 43  1  0  0  0  0
 15 44  1  0  0  0  0
 17 45  1  0  0  0  0
 18 46  1  0  0  0  0
 19 47  1  0  0  0  0
 20 48  1  0  0  0  0
 25 49  1  0  0  0  0
 26 50  1  0  0  0  0
 27 51  1  0  0  0  0
 28 52  1  0  0  0  0
 30 53  1  0  0  0  0
 33 54  1  0  0  0  0
 34 55  1  0  0  0  0
M  CHG  1   5  -1
M  CHG  1  32   1
M  END
