
  xtb     03012221313D
 energy: -12.300078514569 gnorm: 0.000296207595 xtb: 6.4.1 (afa7bdf)
 56 60  0     0  0            999 V2000
    5.8404   -5.1171   -1.6689 C   0  0  0  0  0  0  0  0  0  0  0  0
    5.9531   -4.4677   -0.4267 O   0  0  0  0  0  0  0  0  0  0  0  0
    5.1945   -3.2984   -0.3030 C   0  0  0  0  0  0  0  0  0  0  0  0
    4.3691   -2.7757   -1.3029 C   0  0  0  0  0  0  0  0  0  0  0  0
    3.6580   -1.6194   -1.0941 C   0  0  0  0  0  0  0  0  0  0  0  0
    3.7424   -0.9399    0.1153 C   0  0  0  0  0  0  0  0  0  0  0  0
    2.9977    0.2723    0.3273 N   0  0  0  0  0  0  0  0  0  0  0  0
    3.5374    1.5111    0.7344 C   0  0  0  0  0  0  0  0  0  0  0  0
    4.8493    1.8881    1.0165 C   0  0  0  0  0  0  0  0  0  0  0  0
    5.0964    3.1862    1.3889 C   0  0  0  0  0  0  0  0  0  0  0  0
    4.0617    4.1197    1.4838 C   0  0  0  0  0  0  0  0  0  0  0  0
    2.7639    3.7650    1.2042 C   0  0  0  0  0  0  0  0  0  0  0  0
    2.4967    2.4500    0.8246 C   0  0  0  0  0  0  0  0  0  0  0  0
    1.2756    1.7682    0.4649 C   0  0  0  0  0  0  0  0  0  0  0  0
   -0.0431    2.1982    0.3899 C   0  0  0  0  0  0  0  0  0  0  0  0
   -1.0365    1.2956    0.0260 C   0  0  0  0  0  0  0  0  0  0  0  0
   -2.4093    1.7390   -0.0473 C   0  0  0  0  0  0  0  0  0  0  0  0
   -3.4589    0.9866    0.3364 C   0  0  0  0  0  0  0  0  0  0  0  0
   -4.8434    1.2242   -0.0073 C   0  0  0  0  0  0  0  0  0  0  0  0
   -5.3488    2.4850   -0.2533 C   0  0  0  0  0  0  0  0  0  0  0  0
   -6.6924    2.6758   -0.5456 C   0  0  0  0  0  0  0  0  0  0  0  0
   -7.8230    2.7998   -0.7996 N   0  0  0  0  0  0  0  0  0  0  0  0
   -4.5671    3.6293   -0.2044 C   0  0  0  0  0  0  0  0  0  0  0  0
   -3.8585    4.5537   -0.1680 N   0  0  0  0  0  0  0  0  0  0  0  0
   -5.7343    0.0393   -0.0585 C   0  0  0  0  0  0  0  0  0  0  0  0
   -6.5934   -0.1764   -1.1366 C   0  0  0  0  0  0  0  0  0  0  0  0
   -7.4147   -1.2798   -1.1774 C   0  0  0  0  0  0  0  0  0  0  0  0
   -7.3937   -2.1965   -0.1465 C   0  0  0  0  0  0  0  0  0  0  0  0
   -6.5488   -2.0048    0.9273 C   0  0  0  0  0  0  0  0  0  0  0  0
   -5.7278   -0.9010    0.9725 C   0  0  0  0  0  0  0  0  0  0  0  0
   -0.6811   -0.0403   -0.2720 C   0  0  0  0  0  0  0  0  0  0  0  0
    0.6156   -0.4721   -0.2046 C   0  0  0  0  0  0  0  0  0  0  0  0
    1.6107    0.4350    0.1652 C   0  0  0  0  0  0  0  0  0  0  0  0
    4.5606   -1.4519    1.1149 C   0  0  0  0  0  0  0  0  0  0  0  0
    5.2715   -2.6077    0.9095 C   0  0  0  0  0  0  0  0  0  0  0  0
    6.1863   -4.4569   -2.4653 H   0  0  0  0  0  0  0  0  0  0  0  0
    4.8055   -5.4164   -1.8389 H   0  0  0  0  0  0  0  0  0  0  0  0
    6.4684   -6.0086   -1.6496 H   0  0  0  0  0  0  0  0  0  0  0  0
    4.2901   -3.2811   -2.2478 H   0  0  0  0  0  0  0  0  0  0  0  0
    3.0321   -1.2153   -1.8705 H   0  0  0  0  0  0  0  0  0  0  0  0
    5.6421    1.1669    0.9342 H   0  0  0  0  0  0  0  0  0  0  0  0
    6.1064    3.4915    1.6110 H   0  0  0  0  0  0  0  0  0  0  0  0
    4.2853    5.1312    1.7781 H   0  0  0  0  0  0  0  0  0  0  0  0
    1.9603    4.4779    1.2714 H   0  0  0  0  0  0  0  0  0  0  0  0
   -0.2919    3.2182    0.6203 H   0  0  0  0  0  0  0  0  0  0  0  0
   -2.5588    2.7866   -0.2320 H   0  0  0  0  0  0  0  0  0  0  0  0
   -3.2360   -0.0089    0.6790 H   0  0  0  0  0  0  0  0  0  0  0  0
   -6.6142    0.5413   -1.9386 H   0  0  0  0  0  0  0  0  0  0  0  0
   -8.0797   -1.4240   -2.0127 H   0  0  0  0  0  0  0  0  0  0  0  0
   -8.0402   -3.0583   -0.1777 H   0  0  0  0  0  0  0  0  0  0  0  0
   -6.5366   -2.7176    1.7352 H   0  0  0  0  0  0  0  0  0  0  0  0
   -5.0864   -0.7419    1.8219 H   0  0  0  0  0  0  0  0  0  0  0  0
   -1.4548   -0.7262   -0.5714 H   0  0  0  0  0  0  0  0  0  0  0  0
    0.8796   -1.4915   -0.4263 H   0  0  0  0  0  0  0  0  0  0  0  0
    4.6188   -0.9327    2.0553 H   0  0  0  0  0  0  0  0  0  0  0  0
    5.9039   -3.0080    1.6818 H   0  0  0  0  0  0  0  0  0  0  0  0
  1  2  1  0  0  0  0
  2  3  1  0  0  0  0
  3  4  2  0  0  0  0
  4  5  1  0  0  0  0
  5  6  2  0  0  0  0
  6  7  1  0  0  0  0
  7  8  1  0  0  0  0
  8  9  2  0  0  0  0
  9 10  1  0  0  0  0
 10 11  2  0  0  0  0
 11 12  1  0  0  0  0
 12 13  2  0  0  0  0
 13 14  1  0  0  0  0
 14 15  2  0  0  0  0
 15 16  1  0  0  0  0
 16 17  1  0  0  0  0
 17 18  2  0  0  0  0
 18 19  1  0  0  0  0
 19 20  2  0  0  0  0
 20 21  1  0  0  0  0
 21 22  3  0  0  0  0
 20 23  1  0  0  0  0
 23 24  3  0  0  0  0
 19 25  1  0  0  0  0
 25 26  2  0  0  0  0
 26 27  1  0  0  0  0
 27 28  2  0  0  0  0
 28 29  1  0  0  0  0
 29 30  2  0  0  0  0
 16 31  2  0  0  0  0
 31 32  1  0  0  0  0
 32 33  2  0  0  0  0
  6 34  1  0  0  0  0
 34 35  2  0  0  0  0
 35  3  1  0  0  0  0
 33  7  1  0  0  0  0
 13  8  1  0  0  0  0
 33 14  1  0  0  0  0
 30 25  1  0  0  0  0
  1 36  1  0  0  0  0
  1 37  1  0  0  0  0
  1 38  1  0  0  0  0
  4 39  1  0  0  0  0
  5 40  1  0  0  0  0
  9 41  1  0  0  0  0
 10 42  1  0  0  0  0
 11 43  1  0  0  0  0
 12 44  1  0  0  0  0
 15 45  1  0  0  0  0
 17 46  1  0  0  0  0
 18 47  1  0  0  0  0
 26 48  1  0  0  0  0
 27 49  1  0  0  0  0
 28 50  1  0  0  0  0
 29 51  1  0  0  0  0
 30 52  1  0  0  0  0
 31 53  1  0  0  0  0
 32 54  1  0  0  0  0
 34 55  1  0  0  0  0
 35 56  1  0  0  0  0
M  END
