
  xtb     03012221223D
 energy: -8.019234450214 gnorm: 0.000168559992 xtb: 6.4.1 (afa7bdf)
 42 44  0     0  0            999 V2000
    5.1304    3.5131    0.4879 C   0  0  0  0  0  0  0  0  0  0  0  0
    5.0634    2.1408    0.2767 O   0  0  0  0  0  0  0  0  0  0  0  0
    3.7549    1.7432    0.2530 C   0  0  0  0  0  0  0  0  0  0  0  0
    2.8203    2.5100    0.3951 O   0  0  0  0  0  0  0  0  0  0  0  0
    3.5287    0.2930    0.0406 C   0  0  0  0  0  0  0  0  0  0  0  0
    4.5788   -0.5583   -0.1246 C   0  0  0  0  0  0  0  0  0  0  0  0
    4.3906   -1.9638   -0.3307 C   0  0  0  0  0  0  0  0  0  0  0  0
    5.3519   -2.7183   -0.4790 O   0  0  0  0  0  0  0  0  0  0  0  0
    3.0859   -2.4605   -0.3589 N   0  0  0  0  0  0  0  0  0  0  0  0
    2.8975   -3.8805   -0.5729 C   0  0  0  0  0  0  0  0  0  0  0  0
    1.9937   -1.5944   -0.1875 C   0  0  0  0  0  0  0  0  0  0  0  0
    0.6083   -1.9383   -0.1881 C   0  0  0  0  0  0  0  0  0  0  0  0
   -0.2323   -0.8773   -0.0028 C   0  0  0  0  0  0  0  0  0  0  0  0
   -1.6868   -0.8962    0.0423 C   0  0  0  0  0  0  0  0  0  0  0  0
   -2.4160   -2.0849    0.0214 C   0  0  0  0  0  0  0  0  0  0  0  0
   -3.7926   -2.0635    0.0676 C   0  0  0  0  0  0  0  0  0  0  0  0
   -4.4689   -0.8656    0.1332 C   0  0  0  0  0  0  0  0  0  0  0  0
   -3.7764    0.3477    0.1548 C   0  0  0  0  0  0  0  0  0  0  0  0
   -4.4552    1.5834    0.2126 N   0  0  0  0  0  0  0  0  0  0  0  0
   -3.7471    2.8526    0.0551 C   0  0  0  0  0  0  0  0  0  0  0  0
   -5.9012    1.6520    0.4093 C   0  0  0  0  0  0  0  0  0  0  0  0
   -2.3852    0.3018    0.1114 C   0  0  0  0  0  0  0  0  0  0  0  0
    0.7100    0.5792    0.1788 S   0  0  0  0  0  0  0  0  0  0  0  0
    2.2227   -0.2456    0.0052 C   0  0  0  0  0  0  0  0  0  0  0  0
    4.5943    4.0206   -0.3173 H   0  0  0  0  0  0  0  0  0  0  0  0
    4.6585    3.7460    1.4452 H   0  0  0  0  0  0  0  0  0  0  0  0
    6.1770    3.8236    0.4984 H   0  0  0  0  0  0  0  0  0  0  0  0
    5.5816   -0.1747   -0.1014 H   0  0  0  0  0  0  0  0  0  0  0  0
    3.8705   -4.3619   -0.6575 H   0  0  0  0  0  0  0  0  0  0  0  0
    2.3399   -4.0491   -1.4914 H   0  0  0  0  0  0  0  0  0  0  0  0
    2.3596   -4.3176    0.2653 H   0  0  0  0  0  0  0  0  0  0  0  0
    0.2665   -2.9488   -0.3327 H   0  0  0  0  0  0  0  0  0  0  0  0
   -1.8951   -3.0261   -0.0250 H   0  0  0  0  0  0  0  0  0  0  0  0
   -4.3428   -2.9895    0.0515 H   0  0  0  0  0  0  0  0  0  0  0  0
   -5.5437   -0.8611    0.1582 H   0  0  0  0  0  0  0  0  0  0  0  0
   -3.1323    3.0479    0.9317 H   0  0  0  0  0  0  0  0  0  0  0  0
   -3.1107    2.8187   -0.8272 H   0  0  0  0  0  0  0  0  0  0  0  0
   -4.4462    3.6773   -0.0672 H   0  0  0  0  0  0  0  0  0  0  0  0
   -6.2196    2.6728    0.6103 H   0  0  0  0  0  0  0  0  0  0  0  0
   -6.1925    1.0362    1.2580 H   0  0  0  0  0  0  0  0  0  0  0  0
   -6.4158    1.2985   -0.4822 H   0  0  0  0  0  0  0  0  0  0  0  0
   -1.8244    1.2178    0.1395 H   0  0  0  0  0  0  0  0  0  0  0  0
  1  2  1  0  0  0  0
  2  3  1  0  0  0  0
  3  4  2  0  0  0  0
  3  5  1  0  0  0  0
  5  6  2  0  0  0  0
  6  7  1  0  0  0  0
  7  8  2  0  0  0  0
  7  9  1  0  0  0  0
  9 10  1  0  0  0  0
  9 11  1  0  0  0  0
 11 12  1  0  0  0  0
 12 13  2  0  0  0  0
 13 14  1  0  0  0  0
 14 15  2  0  0  0  0
 15 16  1  0  0  0  0
 16 17  2  0  0  0  0
 17 18  1  0  0  0  0
 18 19  1  0  0  0  0
 19 20  1  0  0  0  0
 19 21  1  0  0  0  0
 18 22  2  0  0  0  0
 13 23  1  0  0  0  0
 23 24  1  0  0  0  0
 24  5  1  0  0  0  0
 24 11  2  0  0  0  0
 22 14  1  0  0  0  0
  1 25  1  0  0  0  0
  1 26  1  0  0  0  0
  1 27  1  0  0  0  0
  6 28  1  0  0  0  0
 10 29  1  0  0  0  0
 10 30  1  0  0  0  0
 10 31  1  0  0  0  0
 12 32  1  0  0  0  0
 15 33  1  0  0  0  0
 16 34  1  0  0  0  0
 17 35  1  0  0  0  0
 20 36  1  0  0  0  0
 20 37  1  0  0  0  0
 20 38  1  0  0  0  0
 21 39  1  0  0  0  0
 21 40  1  0  0  0  0
 21 41  1  0  0  0  0
 22 42  1  0  0  0  0
M  END
