
  xtb     03012221213D
 energy: -6.522014414774 gnorm: 0.000278090725 xtb: 6.4.1 (afa7bdf)
 32 34  0     0  0            999 V2000
   -2.5534    2.4495    0.1226 C   0  0  0  0  0  0  0  0  0  0  0  0
   -3.3697    1.9004    1.5849 S   0  0  0  0  0  0  0  0  0  0  0  0
   -3.8539    0.2892    1.0402 C   0  0  0  0  0  0  0  0  0  0  0  0
   -5.1879   -0.0728    1.0801 C   0  0  0  0  0  0  0  0  0  0  0  0
   -5.5896   -1.3232    0.6589 C   0  0  0  0  0  0  0  0  0  0  0  0
   -4.6557   -2.2283    0.1926 C   0  0  0  0  0  0  0  0  0  0  0  0
   -3.3249   -1.8839    0.1495 C   0  0  0  0  0  0  0  0  0  0  0  0
   -2.9028   -0.6279    0.5718 C   0  0  0  0  0  0  0  0  0  0  0  0
   -1.5658   -0.2935    0.5263 N   0  0  0  0  0  0  0  0  0  0  0  0
   -0.7237   -1.0741    0.0535 N   0  0  0  0  0  0  0  0  0  0  0  0
    0.5878   -0.7086    0.0144 C   0  0  0  0  0  0  0  0  0  0  0  0
    1.5517   -1.4528   -0.4494 N   0  0  0  0  0  0  0  0  0  0  0  0
    2.7736   -0.8222   -0.3595 C   0  0  0  0  0  0  0  0  0  0  0  0
    3.9999   -1.3635   -0.7742 C   0  0  0  0  0  0  0  0  0  0  0  0
    5.1435   -0.6256   -0.6270 C   0  0  0  0  0  0  0  0  0  0  0  0
    5.1059    0.6538   -0.0721 C   0  0  0  0  0  0  0  0  0  0  0  0
    6.3397    1.4199    0.0753 N   0  0  0  0  0  4  0  0  0  0  0  0
    7.4031    0.9025   -0.2899 O   0  0  0  0  0  0  0  0  0  0  0  0
    6.2723    2.5569    0.5598 O   0  0  0  0  0  1  0  0  0  0  0  0
    3.9116    1.1985    0.3395 C   0  0  0  0  0  0  0  0  0  0  0  0
    2.7483    0.4638    0.1962 C   0  0  0  0  0  0  0  0  0  0  0  0
    1.1148    0.8661    0.6097 S   0  0  0  0  0  0  0  0  0  0  0  0
   -3.2053    2.3330   -0.7394 H   0  0  0  0  0  0  0  0  0  0  0  0
   -1.6484    1.8703   -0.0402 H   0  0  0  0  0  0  0  0  0  0  0  0
   -2.2827    3.4978    0.2197 H   0  0  0  0  0  0  0  0  0  0  0  0
   -5.9096    0.6381    1.4461 H   0  0  0  0  0  0  0  0  0  0  0  0
   -6.6316   -1.5942    0.6942 H   0  0  0  0  0  0  0  0  0  0  0  0
   -4.9698   -3.2055   -0.1358 H   0  0  0  0  0  0  0  0  0  0  0  0
   -2.5852   -2.5779   -0.2083 H   0  0  0  0  0  0  0  0  0  0  0  0
    4.0199   -2.3508   -1.2003 H   0  0  0  0  0  0  0  0  0  0  0  0
    6.0972   -1.0196   -0.9365 H   0  0  0  0  0  0  0  0  0  0  0  0
    3.8902    2.1849    0.7677 H   0  0  0  0  0  0  0  0  0  0  0  0
  1  2  1  0  0  0  0
  2  3  1  0  0  0  0
  3  4  2  0  0  0  0
  4  5  1  0  0  0  0
  5  6  2  0  0  0  0
  6  7  1  0  0  0  0
  7  8  2  0  0  0  0
  8  9  1  0  0  0  0
  9 10  2  0  0  0  0
 10 11  1  0  0  0  0
 11 12  2  0  0  0  0
 12 13  1  0  0  0  0
 13 14  2  0  0  0  0
 14 15  1  0  0  0  0
 15 16  2  0  0  0  0
 16 17  1  0  0  0  0
 17 18  2  0  0  0  0
 17 19  1  0  0  0  0
 16 20  1  0  0  0  0
 20 21  2  0  0  0  0
 21 22  1  0  0  0  0
  8  3  1  0  0  0  0
 22 11  1  0  0  0  0
 21 13  1  0  0  0  0
  1 23  1  0  0  0  0
  1 24  1  0  0  0  0
  1 25  1  0  0  0  0
  4 26  1  0  0  0  0
  5 27  1  0  0  0  0
  6 28  1  0  0  0  0
  7 29  1  0  0  0  0
 14 30  1  0  0  0  0
 15 31  1  0  0  0  0
 20 32  1  0  0  0  0
M  CHG  1  17   1
M  CHG  1  19  -1
M  END
