
  xtb     03012221223D
 energy: -9.294955229605 gnorm: 0.000129936324 xtb: 6.4.1 (afa7bdf)
 50 53  0     0  0            999 V2000
   -6.4548   -1.1801    0.7182 C   0  0  0  0  0  0  0  0  0  0  0  0
   -6.3652    0.1880    0.0595 C   0  0  0  0  0  0  0  0  0  0  0  0
   -4.9267    0.6859   -0.1052 C   0  0  0  0  0  0  0  0  0  0  0  0
   -4.0965   -0.1494   -1.0812 C   0  0  0  0  0  0  0  0  0  0  0  0
   -2.6896    0.3559   -1.2256 C   0  0  0  0  0  0  0  0  0  0  0  0
   -2.3738    1.1786   -2.2967 C   0  0  0  0  0  0  0  0  0  0  0  0
   -1.1080    1.6965   -2.4630 C   0  0  0  0  0  0  0  0  0  0  0  0
   -0.0977    1.4130   -1.5467 C   0  0  0  0  0  0  0  0  0  0  0  0
    1.2252    1.9359   -1.6916 C   0  0  0  0  0  0  0  0  0  0  0  0
    2.1916    1.6578   -0.7910 C   0  0  0  0  0  0  0  0  0  0  0  0
    1.9384    0.8266    0.3499 C   0  0  0  0  0  0  0  0  0  0  0  0
    2.9307    0.5232    1.3026 C   0  0  0  0  0  0  0  0  0  0  0  0
    4.3401    1.0227    1.1554 C   0  0  0  0  0  0  0  0  0  0  0  0
    5.1585    0.2239    0.1342 C   0  0  0  0  0  0  0  0  0  0  0  0
    5.3402   -1.2426    0.5263 C   0  0  0  0  0  0  0  0  0  0  0  0
    6.1480   -2.0281   -0.4941 C   0  0  0  0  0  0  0  0  0  0  0  0
    2.6121   -0.2942    2.3772 C   0  0  0  0  0  0  0  0  0  0  0  0
    1.3462   -0.8115    2.5442 C   0  0  0  0  0  0  0  0  0  0  0  0
    0.3369   -0.5310    1.6261 C   0  0  0  0  0  0  0  0  0  0  0  0
   -0.9867   -1.0520    1.7723 C   0  0  0  0  0  0  0  0  0  0  0  0
   -1.9529   -0.7741    0.8716 C   0  0  0  0  0  0  0  0  0  0  0  0
   -1.6981    0.0534   -0.2717 C   0  0  0  0  0  0  0  0  0  0  0  0
   -0.3924    0.5861   -0.4371 C   0  0  0  0  0  0  0  0  0  0  0  0
    0.6326    0.2941    0.5154 C   0  0  0  0  0  0  0  0  0  0  0  0
   -5.9726   -1.9502    0.1137 H   0  0  0  0  0  0  0  0  0  0  0  0
   -5.9634   -1.1811    1.6932 H   0  0  0  0  0  0  0  0  0  0  0  0
   -7.4903   -1.4930    0.8729 H   0  0  0  0  0  0  0  0  0  0  0  0
   -6.8539    0.1637   -0.9238 H   0  0  0  0  0  0  0  0  0  0  0  0
   -6.9425    0.9163    0.6469 H   0  0  0  0  0  0  0  0  0  0  0  0
   -4.9234    1.7305   -0.4434 H   0  0  0  0  0  0  0  0  0  0  0  0
   -4.4314    0.7046    0.8730 H   0  0  0  0  0  0  0  0  0  0  0  0
   -4.0765   -1.1997   -0.7731 H   0  0  0  0  0  0  0  0  0  0  0  0
   -4.5832   -0.1572   -2.0635 H   0  0  0  0  0  0  0  0  0  0  0  0
   -3.1432    1.4174   -3.0112 H   0  0  0  0  0  0  0  0  0  0  0  0
   -0.8882    2.3299   -3.3053 H   0  0  0  0  0  0  0  0  0  0  0  0
    1.4388    2.5631   -2.5400 H   0  0  0  0  0  0  0  0  0  0  0  0
    3.1749    2.0709   -0.9281 H   0  0  0  0  0  0  0  0  0  0  0  0
    4.3212    2.0874    0.8946 H   0  0  0  0  0  0  0  0  0  0  0  0
    4.8381    0.9816    2.1310 H   0  0  0  0  0  0  0  0  0  0  0  0
    6.1437    0.6866   -0.0076 H   0  0  0  0  0  0  0  0  0  0  0  0
    4.6727    0.2745   -0.8475 H   0  0  0  0  0  0  0  0  0  0  0  0
    4.3539   -1.7060    0.6631 H   0  0  0  0  0  0  0  0  0  0  0  0
    5.8187   -1.2978    1.5134 H   0  0  0  0  0  0  0  0  0  0  0  0
    7.1459   -1.6032   -0.6199 H   0  0  0  0  0  0  0  0  0  0  0  0
    6.2704   -3.0744   -0.2043 H   0  0  0  0  0  0  0  0  0  0  0  0
    5.6667   -2.0132   -1.4741 H   0  0  0  0  0  0  0  0  0  0  0  0
    3.3797   -0.5308    3.0944 H   0  0  0  0  0  0  0  0  0  0  0  0
    1.1256   -1.4420    3.3884 H   0  0  0  0  0  0  0  0  0  0  0  0
   -1.2013   -1.6758    2.6229 H   0  0  0  0  0  0  0  0  0  0  0  0
   -2.9384   -1.1804    1.0137 H   0  0  0  0  0  0  0  0  0  0  0  0
  1  2  1  0  0  0  0
  2  3  1  0  0  0  0
  3  4  1  0  0  0  0
  4  5  1  0  0  0  0
  5  6  2  0  0  0  0
  6  7  1  0  0  0  0
  7  8  2  0  0  0  0
  8  9  1  0  0  0  0
  9 10  2  0  0  0  0
 10 11  1  0  0  0  0
 11 12  2  0  0  0  0
 12 13  1  0  0  0  0
 13 14  1  0  0  0  0
 14 15  1  0  0  0  0
 15 16  1  0  0  0  0
 12 17  1  0  0  0  0
 17 18  2  0  0  0  0
 18 19  1  0  0  0  0
 19 20  2  0  0  0  0
 20 21  1  0  0  0  0
 21 22  2  0  0  0  0
 22 23  1  0  0  0  0
 23 24  2  0  0  0  0
 22  5  1  0  0  0  0
 23  8  1  0  0  0  0
 24 11  1  0  0  0  0
 24 19  1  0  0  0  0
  1 25  1  0  0  0  0
  1 26  1  0  0  0  0
  1 27  1  0  0  0  0
  2 28  1  0  0  0  0
  2 29  1  0  0  0  0
  3 30  1  0  0  0  0
  3 31  1  0  0  0  0
  4 32  1  0  0  0  0
  4 33  1  0  0  0  0
  6 34  1  0  0  0  0
  7 35  1  0  0  0  0
  9 36  1  0  0  0  0
 10 37  1  0  0  0  0
 13 38  1  0  0  0  0
 13 39  1  0  0  0  0
 14 40  1  0  0  0  0
 14 41  1  0  0  0  0
 15 42  1  0  0  0  0
 15 43  1  0  0  0  0
 16 44  1  0  0  0  0
 16 45  1  0  0  0  0
 16 46  1  0  0  0  0
 17 47  1  0  0  0  0
 18 48  1  0  0  0  0
 20 49  1  0  0  0  0
 21 50  1  0  0  0  0
M  END
