
  xtb     03012221293D
 energy: -11.964362187129 gnorm: 0.000324132602 xtb: 6.4.1 (afa7bdf)
 60 64  0     0  0            999 V2000
    7.3698   -1.4512   -1.8832 C   0  0  0  0  0  0  0  0  0  0  0  0
    7.1791   -0.2371   -0.9995 C   0  0  0  0  0  0  0  0  0  0  0  0
    5.9852   -0.2897   -0.2523 O   0  0  0  0  0  0  0  0  0  0  0  0
    4.9035   -0.0804   -1.0640 C   0  0  0  0  0  0  0  0  0  0  0  0
    4.9760    0.1061   -2.2640 O   0  0  0  0  0  0  0  0  0  0  0  0
    3.5756   -0.0893   -0.4006 C   0  0  0  0  0  0  0  0  0  0  0  0
    3.4671   -0.3279    0.9598 C   0  0  0  0  0  0  0  0  0  0  0  0
    2.2333   -0.3300    1.5712 C   0  0  0  0  0  0  0  0  0  0  0  0
    1.0840   -0.0874    0.8359 C   0  0  0  0  0  0  0  0  0  0  0  0
   -0.2717   -0.0899    1.4850 C   0  0  0  0  0  0  0  0  0  0  0  0
   -1.0692   -1.3690    1.2025 C   0  0  0  0  0  0  0  0  0  0  0  0
   -2.2465   -0.9006    0.3880 C   0  0  0  0  0  0  0  0  0  0  0  0
   -3.2811   -1.6920   -0.2300 C   0  0  0  0  0  0  0  0  0  0  0  0
   -4.2228   -0.9822   -0.9642 C   0  0  0  0  0  0  0  0  0  0  0  0
   -5.2709   -1.5995   -1.6303 C   0  0  0  0  0  0  0  0  0  0  0  0
   -5.4094   -2.9555   -1.5823 C   0  0  0  0  0  0  0  0  0  0  0  0
   -4.4959   -3.7457   -0.8547 C   0  0  0  0  0  0  0  0  0  0  0  0
   -4.6495   -5.1491   -0.8104 C   0  0  0  0  0  0  0  0  0  0  0  0
   -3.7798   -5.9254   -0.1077 C   0  0  0  0  0  0  0  0  0  0  0  0
   -2.7232   -5.3341    0.5822 C   0  0  0  0  0  0  0  0  0  0  0  0
   -2.5480   -3.9799    0.5582 C   0  0  0  0  0  0  0  0  0  0  0  0
   -3.4170   -3.1310   -0.1603 C   0  0  0  0  0  0  0  0  0  0  0  0
   -2.2335    0.4047    0.2570 N   0  0  0  0  0  0  0  0  0  0  0  0
   -1.1726    0.9250    0.8884 N   0  0  0  0  0  0  0  0  0  0  0  0
   -0.9242    2.3261    0.9525 C   0  0  0  0  0  0  0  0  0  0  0  0
   -1.8447    3.1981    0.3886 C   0  0  0  0  0  0  0  0  0  0  0  0
   -1.6465    4.5577    0.4260 C   0  0  0  0  0  0  0  0  0  0  0  0
   -0.5098    5.0966    1.0342 C   0  0  0  0  0  0  0  0  0  0  0  0
   -0.2256    6.4671    1.1220 O   0  0  0  0  0  0  0  0  0  0  0  0
   -1.1765    7.3067    0.5155 C   0  0  0  0  0  0  0  0  0  0  0  0
    0.4123    4.2104    1.5966 C   0  0  0  0  0  0  0  0  0  0  0  0
    0.2112    2.8523    1.5572 C   0  0  0  0  0  0  0  0  0  0  0  0
    1.1961    0.1431   -0.5243 C   0  0  0  0  0  0  0  0  0  0  0  0
    2.4275    0.1451   -1.1386 C   0  0  0  0  0  0  0  0  0  0  0  0
    8.3008   -1.4069   -2.4509 H   0  0  0  0  0  0  0  0  0  0  0  0
    6.5451   -1.5327   -2.5923 H   0  0  0  0  0  0  0  0  0  0  0  0
    7.3769   -2.3646   -1.2881 H   0  0  0  0  0  0  0  0  0  0  0  0
    7.1487    0.6895   -1.5896 H   0  0  0  0  0  0  0  0  0  0  0  0
    8.0021   -0.1319   -0.2803 H   0  0  0  0  0  0  0  0  0  0  0  0
    4.3633   -0.5093    1.5265 H   0  0  0  0  0  0  0  0  0  0  0  0
    2.1526   -0.5193    2.6285 H   0  0  0  0  0  0  0  0  0  0  0  0
   -0.1862    0.1111    2.5610 H   0  0  0  0  0  0  0  0  0  0  0  0
   -1.4003   -1.8485    2.1297 H   0  0  0  0  0  0  0  0  0  0  0  0
   -0.4568   -2.0732    0.6313 H   0  0  0  0  0  0  0  0  0  0  0  0
   -4.1213    0.0875   -1.0140 H   0  0  0  0  0  0  0  0  0  0  0  0
   -5.9755   -1.0050   -2.1884 H   0  0  0  0  0  0  0  0  0  0  0  0
   -6.2213   -3.4371   -2.0998 H   0  0  0  0  0  0  0  0  0  0  0  0
   -5.4694   -5.6000   -1.3432 H   0  0  0  0  0  0  0  0  0  0  0  0
   -3.9067   -6.9950   -0.0816 H   0  0  0  0  0  0  0  0  0  0  0  0
   -2.0404   -5.9546    1.1399 H   0  0  0  0  0  0  0  0  0  0  0  0
   -1.7290   -3.5669    1.1106 H   0  0  0  0  0  0  0  0  0  0  0  0
   -2.7193    2.7830   -0.0792 H   0  0  0  0  0  0  0  0  0  0  0  0
   -2.3753    5.2110   -0.0171 H   0  0  0  0  0  0  0  0  0  0  0  0
   -1.2483    7.0780   -0.5484 H   0  0  0  0  0  0  0  0  0  0  0  0
   -0.8504    8.3405    0.6342 H   0  0  0  0  0  0  0  0  0  0  0  0
   -2.1449    7.1828    1.0015 H   0  0  0  0  0  0  0  0  0  0  0  0
    1.2912    4.6215    2.0602 H   0  0  0  0  0  0  0  0  0  0  0  0
    0.9397    2.1867    1.9822 H   0  0  0  0  0  0  0  0  0  0  0  0
    0.3010    0.3310   -1.0925 H   0  0  0  0  0  0  0  0  0  0  0  0
    2.5209    0.3304   -2.1944 H   0  0  0  0  0  0  0  0  0  0  0  0
  1  2  1  0  0  0  0
  2  3  1  0  0  0  0
  3  4  1  0  0  0  0
  4  5  2  0  0  0  0
  4  6  1  0  0  0  0
  6  7  2  0  0  0  0
  7  8  1  0  0  0  0
  8  9  2  0  0  0  0
  9 10  1  0  0  0  0
 10 11  1  0  0  0  0
 11 12  1  0  0  0  0
 12 13  1  0  0  0  0
 13 14  2  0  0  0  0
 14 15  1  0  0  0  0
 15 16  2  0  0  0  0
 16 17  1  0  0  0  0
 17 18  2  0  0  0  0
 18 19  1  0  0  0  0
 19 20  2  0  0  0  0
 20 21  1  0  0  0  0
 21 22  2  0  0  0  0
 12 23  2  0  0  0  0
 23 24  1  0  0  0  0
 24 25  1  0  0  0  0
 25 26  2  0  0  0  0
 26 27  1  0  0  0  0
 27 28  2  0  0  0  0
 28 29  1  0  0  0  0
 29 30  1  0  0  0  0
 28 31  1  0  0  0  0
 31 32  2  0  0  0  0
  9 33  1  0  0  0  0
 33 34  2  0  0  0  0
 34  6  1  0  0  0  0
 24 10  1  0  0  0  0
 32 25  1  0  0  0  0
 22 13  1  0  0  0  0
 22 17  1  0  0  0  0
  1 35  1  0  0  0  0
  1 36  1  0  0  0  0
  1 37  1  0  0  0  0
  2 38  1  0  0  0  0
  2 39  1  0  0  0  0
  7 40  1  0  0  0  0
  8 41  1  0  0  0  0
 10 42  1  0  0  0  0
 11 43  1  0  0  0  0
 11 44  1  0  0  0  0
 14 45  1  0  0  0  0
 15 46  1  0  0  0  0
 16 47  1  0  0  0  0
 18 48  1  0  0  0  0
 19 49  1  0  0  0  0
 20 50  1  0  0  0  0
 21 51  1  0  0  0  0
 26 52  1  0  0  0  0
 27 53  1  0  0  0  0
 30 54  1  0  0  0  0
 30 55  1  0  0  0  0
 30 56  1  0  0  0  0
 31 57  1  0  0  0  0
 32 58  1  0  0  0  0
 33 59  1  0  0  0  0
 34 60  1  0  0  0  0
M  END
