
  xtb     03012221313D
 energy: -7.236575673079 gnorm: 0.000105725053 xtb: 6.4.1 (afa7bdf)
 40 42  0     0  0            999 V2000
    4.1320    0.6552    0.6341 C   0  0  0  0  0  0  0  0  0  0  0  0
    3.8430   -0.4194   -0.3235 N   0  0  0  0  0  0  0  0  0  0  0  0
    3.9118   -1.7409    0.3091 C   0  0  0  0  0  0  0  0  0  0  0  0
    2.6452   -0.1671   -1.1886 C   0  0  0  0  0  0  0  0  0  0  0  0
    1.3297   -0.1261   -0.4263 C   0  0  0  0  0  0  0  0  0  0  0  0
    0.1265    0.0956   -1.3365 C   0  0  0  0  0  0  0  0  0  0  0  0
   -1.1464    0.1727   -0.5981 N   0  0  0  0  0  0  0  0  0  0  0  0
   -1.8509   -1.0381   -0.3209 C   0  0  0  0  0  0  0  0  0  0  0  0
   -1.2134   -2.2757   -0.4026 C   0  0  0  0  0  0  0  0  0  0  0  0
   -1.8715   -3.4468   -0.0851 C   0  0  0  0  0  0  0  0  0  0  0  0
   -3.1869   -3.4129    0.3167 C   0  0  0  0  0  0  0  0  0  0  0  0
   -3.8456   -2.1987    0.3845 C   0  0  0  0  0  0  0  0  0  0  0  0
   -3.1997   -1.0220    0.0625 C   0  0  0  0  0  0  0  0  0  0  0  0
   -4.1622    0.4585    0.1147 S   0  0  0  0  0  0  0  0  0  0  0  0
   -2.8866    1.6713    0.3061 C   0  0  0  0  0  0  0  0  0  0  0  0
   -3.2534    2.8896    0.8445 C   0  0  0  0  0  0  0  0  0  0  0  0
   -2.3324    3.9114    0.9818 C   0  0  0  0  0  0  0  0  0  0  0  0
   -1.0313    3.7099    0.5681 C   0  0  0  0  0  0  0  0  0  0  0  0
    0.1400    4.9776    0.7212 Cl  0  0  0  0  0  0  0  0  0  0  0  0
   -0.6545    2.4917    0.0344 C   0  0  0  0  0  0  0  0  0  0  0  0
   -1.5612    1.4419   -0.0938 C   0  0  0  0  0  0  0  0  0  0  0  0
    3.3922    0.6694    1.4319 H   0  0  0  0  0  0  0  0  0  0  0  0
    5.1159    0.5079    1.0756 H   0  0  0  0  0  0  0  0  0  0  0  0
    4.1240    1.6199    0.1306 H   0  0  0  0  0  0  0  0  0  0  0  0
    3.7434   -2.5200   -0.4318 H   0  0  0  0  0  0  0  0  0  0  0  0
    3.1612   -1.8329    1.0916 H   0  0  0  0  0  0  0  0  0  0  0  0
    4.8949   -1.8944    0.7501 H   0  0  0  0  0  0  0  0  0  0  0  0
    2.8040    0.7733   -1.7236 H   0  0  0  0  0  0  0  0  0  0  0  0
    2.6139   -0.9460   -1.9554 H   0  0  0  0  0  0  0  0  0  0  0  0
    1.2029   -1.0518    0.1437 H   0  0  0  0  0  0  0  0  0  0  0  0
    1.3679    0.6558    0.3387 H   0  0  0  0  0  0  0  0  0  0  0  0
    0.2467    1.0134   -1.9191 H   0  0  0  0  0  0  0  0  0  0  0  0
    0.0517   -0.7005   -2.0827 H   0  0  0  0  0  0  0  0  0  0  0  0
   -0.1878   -2.3281   -0.7165 H   0  0  0  0  0  0  0  0  0  0  0  0
   -1.3530   -4.3898   -0.1499 H   0  0  0  0  0  0  0  0  0  0  0  0
   -3.7032   -4.3248    0.5680 H   0  0  0  0  0  0  0  0  0  0  0  0
   -4.8816   -2.1584    0.6796 H   0  0  0  0  0  0  0  0  0  0  0  0
   -4.2773    3.0376    1.1466 H   0  0  0  0  0  0  0  0  0  0  0  0
   -2.6137    4.8639    1.3970 H   0  0  0  0  0  0  0  0  0  0  0  0
    0.3657    2.3778   -0.2765 H   0  0  0  0  0  0  0  0  0  0  0  0
  1  2  1  0  0  0  0
  2  3  1  0  0  0  0
  2  4  1  0  0  0  0
  4  5  1  0  0  0  0
  5  6  1  0  0  0  0
  6  7  1  0  0  0  0
  7  8  1  0  0  0  0
  8  9  2  0  0  0  0
  9 10  1  0  0  0  0
 10 11  2  0  0  0  0
 11 12  1  0  0  0  0
 12 13  2  0  0  0  0
 13 14  1  0  0  0  0
 14 15  1  0  0  0  0
 15 16  2  0  0  0  0
 16 17  1  0  0  0  0
 17 18  2  0  0  0  0
 18 19  1  0  0  0  0
 18 20  1  0  0  0  0
 20 21  2  0  0  0  0
 21  7  1  0  0  0  0
 13  8  1  0  0  0  0
 21 15  1  0  0  0  0
  1 22  1  0  0  0  0
  1 23  1  0  0  0  0
  1 24  1  0  0  0  0
  3 25  1  0  0  0  0
  3 26  1  0  0  0  0
  3 27  1  0  0  0  0
  4 28  1  0  0  0  0
  4 29  1  0  0  0  0
  5 30  1  0  0  0  0
  5 31  1  0  0  0  0
  6 32  1  0  0  0  0
  6 33  1  0  0  0  0
  9 34  1  0  0  0  0
 10 35  1  0  0  0  0
 11 36  1  0  0  0  0
 12 37  1  0  0  0  0
 16 38  1  0  0  0  0
 17 39  1  0  0  0  0
 20 40  1  0  0  0  0
M  END
