
  xtb     03012221323D
 energy: -14.225898406702 gnorm: 0.000244883916 xtb: 6.4.1 (afa7bdf)
 74 79  0     0  0            999 V2000
   -9.0862   -2.4101    1.5005 C   0  0  0  0  0  0  0  0  0  0  0  0
   -8.1746   -1.4897    0.9511 O   0  0  0  0  0  0  0  0  0  0  0  0
   -6.8283   -1.8019    1.1647 C   0  0  0  0  0  0  0  0  0  0  0  0
   -6.3689   -2.9240    1.8720 C   0  0  0  0  0  0  0  0  0  0  0  0
   -5.0299   -3.1484    2.0357 C   0  0  0  0  0  0  0  0  0  0  0  0
   -4.0669   -2.2759    1.5059 C   0  0  0  0  0  0  0  0  0  0  0  0
   -4.5177   -1.1463    0.7844 C   0  0  0  0  0  0  0  0  0  0  0  0
   -5.8798   -0.9337    0.6359 C   0  0  0  0  0  0  0  0  0  0  0  0
   -3.5789   -0.2524    0.2459 N   0  0  0  0  0  0  0  0  0  0  0  0
   -3.9858    0.9097   -0.5090 C   0  0  0  0  0  0  0  0  0  0  0  0
   -3.7915    2.1893    0.0003 C   0  0  0  0  0  0  0  0  0  0  0  0
   -4.1731    3.2948   -0.7240 C   0  0  0  0  0  0  0  0  0  0  0  0
   -4.7539    3.1595   -1.9777 C   0  0  0  0  0  0  0  0  0  0  0  0
   -5.1904    4.3575   -2.7470 C   0  0  0  0  0  0  0  0  0  0  0  0
   -4.9560    1.8812   -2.4801 C   0  0  0  0  0  0  0  0  0  0  0  0
   -4.5754    0.7716   -1.7612 C   0  0  0  0  0  0  0  0  0  0  0  0
   -2.2204   -0.5355    0.4604 C   0  0  0  0  0  0  0  0  0  0  0  0
   -1.2365    0.2802   -0.0493 C   0  0  0  0  0  0  0  0  0  0  0  0
    0.1317    0.0188    0.1356 C   0  0  0  0  0  0  0  0  0  0  0  0
    0.5029   -1.1392    0.8859 C   0  0  0  0  0  0  0  0  0  0  0  0
   -0.4855   -1.9582    1.3934 C   0  0  0  0  0  0  0  0  0  0  0  0
   -1.8575   -1.6987    1.2021 C   0  0  0  0  0  0  0  0  0  0  0  0
   -2.7516   -2.5496    1.7135 N   0  0  0  0  0  0  0  0  0  0  0  0
    1.8258   -1.4467    1.1067 O   0  0  0  0  0  0  0  0  0  0  0  0
    2.7513   -0.5858    0.5610 C   0  0  0  0  0  0  0  0  0  0  0  0
    2.3359    0.5474   -0.1801 C   0  0  0  0  0  0  0  0  0  0  0  0
    3.3143    1.3897   -0.7181 C   0  0  0  0  0  0  0  0  0  0  0  0
    4.6617    1.1555   -0.5502 C   0  0  0  0  0  0  0  0  0  0  0  0
    5.6834    2.1188   -1.1742 C   0  0  0  0  0  0  0  0  0  0  0  0
    7.1332    1.7003   -0.8583 C   0  0  0  0  0  0  0  0  0  0  0  0
    5.5017    2.1284   -2.7038 C   0  0  0  0  0  0  0  0  0  0  0  0
    5.4547    3.5360   -0.6147 C   0  0  0  0  0  0  0  0  0  0  0  0
    5.0432    0.0342    0.1842 C   0  0  0  0  0  0  0  0  0  0  0  0
    4.1234   -0.8362    0.7408 C   0  0  0  0  0  0  0  0  0  0  0  0
    4.5449   -2.0691    1.5470 C   0  0  0  0  0  0  0  0  0  0  0  0
    3.9984   -3.3293    0.8560 C   0  0  0  0  0  0  0  0  0  0  0  0
    3.9632   -1.9621    2.9666 C   0  0  0  0  0  0  0  0  0  0  0  0
    6.0759   -2.1960    1.6554 C   0  0  0  0  0  0  0  0  0  0  0  0
    1.0299    0.8510   -0.3911 N   0  0  0  0  0  0  0  0  0  0  0  0
   -8.9315   -3.3950    1.0589 H   0  0  0  0  0  0  0  0  0  0  0  0
   -8.9646   -2.4522    2.5833 H   0  0  0  0  0  0  0  0  0  0  0  0
  -10.0981   -2.0753    1.2714 H   0  0  0  0  0  0  0  0  0  0  0  0
   -7.0767   -3.6142    2.2932 H   0  0  0  0  0  0  0  0  0  0  0  0
   -4.6847   -4.0083    2.5830 H   0  0  0  0  0  0  0  0  0  0  0  0
   -6.2282   -0.0717    0.1010 H   0  0  0  0  0  0  0  0  0  0  0  0
   -3.3443    2.2972    0.9727 H   0  0  0  0  0  0  0  0  0  0  0  0
   -4.0249    4.2817   -0.3185 H   0  0  0  0  0  0  0  0  0  0  0  0
   -5.1367    4.1765   -3.8213 H   0  0  0  0  0  0  0  0  0  0  0  0
   -6.2198    4.6214   -2.5010 H   0  0  0  0  0  0  0  0  0  0  0  0
   -4.5596    5.2192   -2.5251 H   0  0  0  0  0  0  0  0  0  0  0  0
   -5.4179    1.7647   -3.4462 H   0  0  0  0  0  0  0  0  0  0  0  0
   -4.7245   -0.2173   -2.1573 H   0  0  0  0  0  0  0  0  0  0  0  0
   -1.5114    1.1503   -0.6109 H   0  0  0  0  0  0  0  0  0  0  0  0
   -0.1984   -2.8288    1.9528 H   0  0  0  0  0  0  0  0  0  0  0  0
    2.9831    2.2434   -1.2804 H   0  0  0  0  0  0  0  0  0  0  0  0
    7.3132    1.6898    0.2161 H   0  0  0  0  0  0  0  0  0  0  0  0
    7.3521    0.7103   -1.2570 H   0  0  0  0  0  0  0  0  0  0  0  0
    7.8421    2.3975   -1.3038 H   0  0  0  0  0  0  0  0  0  0  0  0
    6.2235    2.7924   -3.1783 H   0  0  0  0  0  0  0  0  0  0  0  0
    4.5048    2.4668   -2.9820 H   0  0  0  0  0  0  0  0  0  0  0  0
    5.6419    1.1289   -3.1139 H   0  0  0  0  0  0  0  0  0  0  0  0
    4.4604    3.9045   -0.8621 H   0  0  0  0  0  0  0  0  0  0  0  0
    6.1806    4.2381   -1.0233 H   0  0  0  0  0  0  0  0  0  0  0  0
    5.5532    3.5417    0.4702 H   0  0  0  0  0  0  0  0  0  0  0  0
    6.0889   -0.1611    0.3212 H   0  0  0  0  0  0  0  0  0  0  0  0
    4.2703   -4.2291    1.4070 H   0  0  0  0  0  0  0  0  0  0  0  0
    4.3942   -3.4166   -0.1554 H   0  0  0  0  0  0  0  0  0  0  0  0
    2.9121   -3.2911    0.7867 H   0  0  0  0  0  0  0  0  0  0  0  0
    4.2353   -2.8281    3.5692 H   0  0  0  0  0  0  0  0  0  0  0  0
    2.8762   -1.9014    2.9348 H   0  0  0  0  0  0  0  0  0  0  0  0
    4.3327   -1.0684    3.4684 H   0  0  0  0  0  0  0  0  0  0  0  0
    6.5329   -2.2926    0.6710 H   0  0  0  0  0  0  0  0  0  0  0  0
    6.3496   -3.0789    2.2328 H   0  0  0  0  0  0  0  0  0  0  0  0
    6.5074   -1.3294    2.1556 H   0  0  0  0  0  0  0  0  0  0  0  0
  1  2  1  0  0  0  0
  2  3  1  0  0  0  0
  3  4  2  0  0  0  0
  4  5  1  0  0  0  0
  5  6  2  0  0  0  0
  6  7  1  0  0  0  0
  7  8  2  0  0  0  0
  7  9  1  0  0  0  0
  9 10  1  0  0  0  0
 10 11  2  0  0  0  0
 11 12  1  0  0  0  0
 12 13  2  0  0  0  0
 13 14  1  0  0  0  0
 13 15  1  0  0  0  0
 15 16  2  0  0  0  0
  9 17  1  0  0  0  0
 17 18  2  0  0  0  0
 18 19  1  0  0  0  0
 19 20  1  0  0  0  0
 20 21  2  0  0  0  0
 21 22  1  0  0  0  0
 22 23  2  0  0  0  0
 20 24  1  0  0  0  0
 24 25  1  0  0  0  0
 25 26  2  0  0  0  0
 26 27  1  0  0  0  0
 27 28  2  0  0  0  0
 28 29  1  0  0  0  0
 29 30  1  0  0  0  0
 29 31  1  0  0  0  0
 29 32  1  0  0  0  0
 28 33  1  0  0  0  0
 33 34  2  0  0  0  0
 34 35  1  0  0  0  0
 35 36  1  0  0  0  0
 35 37  1  0  0  0  0
 35 38  1  0  0  0  0
 26 39  1  0  0  0  0
  8  3  1  0  0  0  0
 16 10  1  0  0  0  0
 22 17  1  0  0  0  0
 34 25  1  0  0  0  0
 23  6  1  0  0  0  0
 39 19  2  0  0  0  0
  1 40  1  0  0  0  0
  1 41  1  0  0  0  0
  1 42  1  0  0  0  0
  4 43  1  0  0  0  0
  5 44  1  0  0  0  0
  8 45  1  0  0  0  0
 11 46  1  0  0  0  0
 12 47  1  0  0  0  0
 14 48  1  0  0  0  0
 14 49  1  0  0  0  0
 14 50  1  0  0  0  0
 15 51  1  0  0  0  0
 16 52  1  0  0  0  0
 18 53  1  0  0  0  0
 21 54  1  0  0  0  0
 27 55  1  0  0  0  0
 30 56  1  0  0  0  0
 30 57  1  0  0  0  0
 30 58  1  0  0  0  0
 31 59  1  0  0  0  0
 31 60  1  0  0  0  0
 31 61  1  0  0  0  0
 32 62  1  0  0  0  0
 32 63  1  0  0  0  0
 32 64  1  0  0  0  0
 33 65  1  0  0  0  0
 36 66  1  0  0  0  0
 36 67  1  0  0  0  0
 36 68  1  0  0  0  0
 37 69  1  0  0  0  0
 37 70  1  0  0  0  0
 37 71  1  0  0  0  0
 38 72  1  0  0  0  0
 38 73  1  0  0  0  0
 38 74  1  0  0  0  0
M  END
