
  xtb     03012221223D
 energy: -12.823524797144 gnorm: 0.000071753791 xtb: 6.4.1 (afa7bdf)
 57 64  0     0  0            999 V2000
   -7.7821   -1.2027   -0.1254 O   0  0  0  0  0  0  0  0  0  0  0  0
   -6.6869   -1.4629    0.3336 C   0  0  0  0  0  0  0  0  0  0  0  0
   -6.4963   -2.4237    1.3081 O   0  0  0  0  0  0  0  0  0  0  0  0
   -5.2415   -2.7057    1.8151 C   0  0  0  0  0  0  0  0  0  0  0  0
   -5.0550   -3.5549    2.6664 O   0  0  0  0  0  0  0  0  0  0  0  0
   -4.0776   -1.9635    1.3201 C   0  0  0  0  0  0  0  0  0  0  0  0
   -2.8161   -2.2354    1.8011 C   0  0  0  0  0  0  0  0  0  0  0  0
   -1.7151   -1.5395    1.3404 C   0  0  0  0  0  0  0  0  0  0  0  0
   -1.8317   -0.5372    0.3889 C   0  0  0  0  0  0  0  0  0  0  0  0
   -0.6591    0.1686   -0.0247 N   0  0  0  0  0  0  0  0  0  0  0  0
   -0.7026    1.5930   -0.2080 C   0  0  0  0  0  0  0  0  0  0  0  0
   -0.0472    2.1936   -1.2794 C   0  0  0  0  0  0  0  0  0  0  0  0
   -0.0901    3.5562   -1.4525 C   0  0  0  0  0  0  0  0  0  0  0  0
   -0.7894    4.3416   -0.5568 C   0  0  0  0  0  0  0  0  0  0  0  0
   -1.4464    3.7628    0.5115 C   0  0  0  0  0  0  0  0  0  0  0  0
   -1.4038    2.4001    0.6837 C   0  0  0  0  0  0  0  0  0  0  0  0
    0.5447   -0.5619   -0.2748 C   0  0  0  0  0  0  0  0  0  0  0  0
    0.4558   -1.7949   -0.9307 C   0  0  0  0  0  0  0  0  0  0  0  0
    1.5636   -2.5315   -1.2489 C   0  0  0  0  0  0  0  0  0  0  0  0
    2.8435   -2.0724   -0.9182 C   0  0  0  0  0  0  0  0  0  0  0  0
    4.0187   -2.8090   -1.2484 C   0  0  0  0  0  0  0  0  0  0  0  0
    5.2492   -2.3567   -0.9157 C   0  0  0  0  0  0  0  0  0  0  0  0
    5.4178   -1.1262   -0.2133 C   0  0  0  0  0  0  0  0  0  0  0  0
    6.6758   -0.6406    0.1474 C   0  0  0  0  0  0  0  0  0  0  0  0
    6.8026    0.5480    0.8349 C   0  0  0  0  0  0  0  0  0  0  0  0
    5.6897    1.2819    1.1849 C   0  0  0  0  0  0  0  0  0  0  0  0
    4.4090    0.8405    0.8468 C   0  0  0  0  0  0  0  0  0  0  0  0
    3.2329    1.5635    1.2028 C   0  0  0  0  0  0  0  0  0  0  0  0
    2.0033    1.1167    0.8535 C   0  0  0  0  0  0  0  0  0  0  0  0
    1.8251   -0.0828    0.1079 C   0  0  0  0  0  0  0  0  0  0  0  0
    2.9723   -0.8422   -0.2290 C   0  0  0  0  0  0  0  0  0  0  0  0
    4.2687   -0.3742    0.1341 C   0  0  0  0  0  0  0  0  0  0  0  0
   -3.1282   -0.2521   -0.1518 C   0  0  0  0  0  0  0  0  0  0  0  0
   -3.3415    0.6834   -1.1788 C   0  0  0  0  0  0  0  0  0  0  0  0
   -4.5948    0.9176   -1.6727 C   0  0  0  0  0  0  0  0  0  0  0  0
   -5.6887    0.2236   -1.1712 C   0  0  0  0  0  0  0  0  0  0  0  0
   -5.5299   -0.7161   -0.1822 C   0  0  0  0  0  0  0  0  0  0  0  0
   -4.2447   -0.9726    0.3339 C   0  0  0  0  0  0  0  0  0  0  0  0
   -2.7099   -3.0026    2.5491 H   0  0  0  0  0  0  0  0  0  0  0  0
   -0.7395   -1.7559    1.7392 H   0  0  0  0  0  0  0  0  0  0  0  0
    0.4934    1.5696   -1.9719 H   0  0  0  0  0  0  0  0  0  0  0  0
    0.4209    4.0106   -2.2841 H   0  0  0  0  0  0  0  0  0  0  0  0
   -0.8232    5.4105   -0.6924 H   0  0  0  0  0  0  0  0  0  0  0  0
   -1.9923    4.3774    1.2069 H   0  0  0  0  0  0  0  0  0  0  0  0
   -1.9117    1.9363    1.5133 H   0  0  0  0  0  0  0  0  0  0  0  0
   -0.5228   -2.1512   -1.2074 H   0  0  0  0  0  0  0  0  0  0  0  0
    1.4611   -3.4706   -1.7628 H   0  0  0  0  0  0  0  0  0  0  0  0
    3.9093   -3.7421   -1.7737 H   0  0  0  0  0  0  0  0  0  0  0  0
    6.1244   -2.9262   -1.1746 H   0  0  0  0  0  0  0  0  0  0  0  0
    7.5508   -1.2083   -0.1172 H   0  0  0  0  0  0  0  0  0  0  0  0
    7.7827    0.9056    1.1040 H   0  0  0  0  0  0  0  0  0  0  0  0
    5.7986    2.2058    1.7257 H   0  0  0  0  0  0  0  0  0  0  0  0
    3.3399    2.4768    1.7614 H   0  0  0  0  0  0  0  0  0  0  0  0
    1.1336    1.6727    1.1467 H   0  0  0  0  0  0  0  0  0  0  0  0
   -2.5011    1.2147   -1.5834 H   0  0  0  0  0  0  0  0  0  0  0  0
   -4.7380    1.6421   -2.4565 H   0  0  0  0  0  0  0  0  0  0  0  0
   -6.6802    0.4025   -1.5547 H   0  0  0  0  0  0  0  0  0  0  0  0
  1  2  2  0  0  0  0
  2  3  1  0  0  0  0
  3  4  1  0  0  0  0
  4  5  2  0  0  0  0
  4  6  1  0  0  0  0
  6  7  1  0  0  0  0
  7  8  2  0  0  0  0
  8  9  1  0  0  0  0
  9 10  1  0  0  0  0
 10 11  1  0  0  0  0
 11 12  2  0  0  0  0
 12 13  1  0  0  0  0
 13 14  2  0  0  0  0
 14 15  1  0  0  0  0
 15 16  2  0  0  0  0
 10 17  1  0  0  0  0
 17 18  2  0  0  0  0
 18 19  1  0  0  0  0
 19 20  2  0  0  0  0
 20 21  1  0  0  0  0
 21 22  2  0  0  0  0
 22 23  1  0  0  0  0
 23 24  2  0  0  0  0
 24 25  1  0  0  0  0
 25 26  2  0  0  0  0
 26 27  1  0  0  0  0
 27 28  2  0  0  0  0
 28 29  1  0  0  0  0
 29 30  2  0  0  0  0
 30 31  1  0  0  0  0
 31 32  2  0  0  0  0
  9 33  2  0  0  0  0
 33 34  1  0  0  0  0
 34 35  2  0  0  0  0
 35 36  1  0  0  0  0
 36 37  2  0  0  0  0
 37 38  1  0  0  0  0
 37  2  1  0  0  0  0
 38  6  2  0  0  0  0
 16 11  1  0  0  0  0
 30 17  1  0  0  0  0
 38 33  1  0  0  0  0
 31 20  1  0  0  0  0
 32 23  1  0  0  0  0
 32 27  1  0  0  0  0
  7 39  1  0  0  0  0
  8 40  1  0  0  0  0
 12 41  1  0  0  0  0
 13 42  1  0  0  0  0
 14 43  1  0  0  0  0
 15 44  1  0  0  0  0
 16 45  1  0  0  0  0
 18 46  1  0  0  0  0
 19 47  1  0  0  0  0
 21 48  1  0  0  0  0
 22 49  1  0  0  0  0
 24 50  1  0  0  0  0
 25 51  1  0  0  0  0
 26 52  1  0  0  0  0
 28 53  1  0  0  0  0
 29 54  1  0  0  0  0
 34 55  1  0  0  0  0
 35 56  1  0  0  0  0
 36 57  1  0  0  0  0
M  END
