
  xtb     03012221283D
 energy: -4.670279201266 gnorm: 0.000420656762 xtb: 6.4.1 (afa7bdf)
 23 24  0     0  0            999 V2000
    0.6140   -1.2787   -1.6843 C   0  0  0  0  0  0  0  0  0  0  0  0
   -0.1701   -0.5379   -0.6658 C   0  0  0  0  0  0  0  0  0  0  0  0
   -1.5223   -0.6213   -0.6260 C   0  0  0  0  0  0  0  0  0  0  0  0
   -2.2115    0.0748    0.3222 N   0  0  0  0  0  0  0  0  0  0  0  0
   -3.6602    0.0105    0.3984 C   0  0  0  0  0  0  0  0  0  0  0  0
   -1.5384    0.8698    1.2476 C   0  0  0  0  0  0  0  0  0  0  0  0
   -2.1986    1.4795    2.0830 O   0  0  0  0  0  0  0  0  0  0  0  0
   -0.1749    0.9618    1.2184 N   0  0  0  0  0  0  0  0  0  0  0  0
    0.4646    0.2825    0.3013 C   0  0  0  0  0  0  0  0  0  0  0  0
    1.8941    0.4009    0.3061 N   0  0  0  0  0  0  0  0  0  0  0  0
    2.5918    1.2268    1.1817 C   0  0  0  0  0  0  0  0  0  0  0  0
    3.8609    1.0920    0.9360 N   0  0  0  0  0  0  0  0  0  0  0  0
    3.9330    0.1951   -0.0732 C   0  0  0  0  0  0  0  0  0  0  0  0
    2.7639   -0.2401   -0.4721 N   0  0  0  0  0  0  0  0  0  0  0  0
   -0.0320   -1.8349   -2.3636 H   0  0  0  0  0  0  0  0  0  0  0  0
    1.2910   -1.9861   -1.2047 H   0  0  0  0  0  0  0  0  0  0  0  0
    1.2173   -0.5907   -2.2772 H   0  0  0  0  0  0  0  0  0  0  0  0
   -2.0649   -1.2260   -1.3291 H   0  0  0  0  0  0  0  0  0  0  0  0
   -4.0994    0.3712   -0.5291 H   0  0  0  0  0  0  0  0  0  0  0  0
   -3.9793   -1.0139    0.5777 H   0  0  0  0  0  0  0  0  0  0  0  0
   -4.0039    0.6373    1.2203 H   0  0  0  0  0  0  0  0  0  0  0  0
    2.1551    1.8644    1.9375 H   0  0  0  0  0  0  0  0  0  0  0  0
    4.8695   -0.1369   -0.5051 H   0  0  0  0  0  0  0  0  0  0  0  0
  1  2  1  0  0  0  0
  2  3  2  0  0  0  0
  3  4  1  0  0  0  0
  4  5  1  0  0  0  0
  4  6  1  0  0  0  0
  6  7  2  0  0  0  0
  6  8  1  0  0  0  0
  8  9  2  0  0  0  0
  9 10  1  0  0  0  0
 10 11  1  0  0  0  0
 11 12  2  0  0  0  0
 12 13  1  0  0  0  0
 13 14  2  0  0  0  0
  9  2  1  0  0  0  0
 14 10  1  0  0  0  0
  1 15  1  0  0  0  0
  1 16  1  0  0  0  0
  1 17  1  0  0  0  0
  3 18  1  0  0  0  0
  5 19  1  0  0  0  0
  5 20  1  0  0  0  0
  5 21  1  0  0  0  0
 11 22  1  0  0  0  0
 13 23  1  0  0  0  0
M  END
