
  xtb     03012221253D
 energy: -13.267153417867 gnorm: 0.000091477561 xtb: 6.4.1 (afa7bdf)
 65 70  0     0  0            999 V2000
   -3.2157    3.7248   -0.0959 C   0  0  0  0  0  0  0  0  0  0  0  0
   -2.6595    2.3554    0.0225 C   0  0  0  0  0  0  0  0  0  0  0  0
   -3.3851    1.2109    0.2529 C   0  0  0  0  0  0  0  0  0  0  0  0
   -2.4957    0.0972    0.2957 C   0  0  0  0  0  0  0  0  0  0  0  0
   -2.7670   -1.2754    0.5069 C   0  0  0  0  0  0  0  0  0  0  0  0
   -4.0008   -1.7881    0.7187 C   0  0  0  0  0  0  0  0  0  0  0  0
   -4.2977   -3.1833    0.9355 C   0  0  0  0  0  0  0  0  0  0  0  0
   -3.3055   -4.1695    0.9423 C   0  0  0  0  0  0  0  0  0  0  0  0
   -3.6285   -5.4901    1.1525 C   0  0  0  0  0  0  0  0  0  0  0  0
   -4.9414   -5.8627    1.3607 C   0  0  0  0  0  0  0  0  0  0  0  0
   -5.9351   -4.9048    1.3577 C   0  0  0  0  0  0  0  0  0  0  0  0
   -5.6214   -3.5823    1.1483 C   0  0  0  0  0  0  0  0  0  0  0  0
   -1.2550    0.6121    0.0851 N   0  0  0  0  0  4  0  0  0  0  0  0
   -1.2744    1.9770   -0.0927 C   0  0  0  0  0  0  0  0  0  0  0  0
   -0.1190    2.7462   -0.3268 C   0  0  0  0  0  0  0  0  0  0  0  0
   -0.1829    4.2160   -0.5177 C   0  0  0  0  0  0  0  0  0  0  0  0
   -0.4472    4.7632   -1.7756 C   0  0  0  0  0  0  0  0  0  0  0  0
   -0.5056    6.1269   -1.9493 C   0  0  0  0  0  0  0  0  0  0  0  0
   -0.3025    6.9717   -0.8761 C   0  0  0  0  0  0  0  0  0  0  0  0
   -0.0400    6.4493    0.3749 C   0  0  0  0  0  0  0  0  0  0  0  0
    0.0198    5.0867    0.5558 C   0  0  0  0  0  0  0  0  0  0  0  0
    1.1002    2.0441   -0.3704 C   0  0  0  0  0  0  0  0  0  0  0  0
    2.4493    2.4976   -0.5925 C   0  0  0  0  0  0  0  0  0  0  0  0
    2.8854    3.8945   -0.8316 C   0  0  0  0  0  0  0  0  0  0  0  0
    3.2723    1.3983   -0.5327 C   0  0  0  0  0  0  0  0  0  0  0  0
    2.4815    0.2386   -0.2821 C   0  0  0  0  0  0  0  0  0  0  0  0
    2.8710   -1.1146   -0.1418 C   0  0  0  0  0  0  0  0  0  0  0  0
    4.1460   -1.5573   -0.2313 C   0  0  0  0  0  0  0  0  0  0  0  0
    4.5629   -2.9315   -0.0914 C   0  0  0  0  0  0  0  0  0  0  0  0
    5.9178   -3.2575   -0.2120 C   0  0  0  0  0  0  0  0  0  0  0  0
    6.3452   -4.5583   -0.0838 C   0  0  0  0  0  0  0  0  0  0  0  0
    5.4367   -5.5667    0.1675 C   0  0  0  0  0  0  0  0  0  0  0  0
    4.0949   -5.2664    0.2903 C   0  0  0  0  0  0  0  0  0  0  0  0
    3.6585   -3.9680    0.1634 C   0  0  0  0  0  0  0  0  0  0  0  0
    1.1991    0.6822   -0.1959 N   0  0  0  0  0  0  0  0  0  0  0  0
    0.0106   -0.2441    0.0580 B   0  0  0  0  0  4  0  0  0  0  0  0
   -0.0811   -1.1753   -0.9732 F   0  0  0  0  0  0  0  0  0  0  0  0
    0.1696   -0.8773    1.2878 F   0  0  0  0  0  0  0  0  0  0  0  0
   -2.7147    4.4087    0.5894 H   0  0  0  0  0  0  0  0  0  0  0  0
   -3.0912    4.1081   -1.1088 H   0  0  0  0  0  0  0  0  0  0  0  0
   -4.2803    3.7377    0.1389 H   0  0  0  0  0  0  0  0  0  0  0  0
   -4.4521    1.1665    0.3814 H   0  0  0  0  0  0  0  0  0  0  0  0
   -1.9128   -1.9254    0.4924 H   0  0  0  0  0  0  0  0  0  0  0  0
   -4.8337   -1.1083    0.7284 H   0  0  0  0  0  0  0  0  0  0  0  0
   -2.2789   -3.8955    0.7814 H   0  0  0  0  0  0  0  0  0  0  0  0
   -2.8516   -6.2389    1.1547 H   0  0  0  0  0  0  0  0  0  0  0  0
   -5.1897   -6.8981    1.5250 H   0  0  0  0  0  0  0  0  0  0  0  0
   -6.9617   -5.1946    1.5203 H   0  0  0  0  0  0  0  0  0  0  0  0
   -6.3987   -2.8381    1.1467 H   0  0  0  0  0  0  0  0  0  0  0  0
   -0.6032    4.0990   -2.6079 H   0  0  0  0  0  0  0  0  0  0  0  0
   -0.7101    6.5363   -2.9248 H   0  0  0  0  0  0  0  0  0  0  0  0
   -0.3488    8.0399   -1.0151 H   0  0  0  0  0  0  0  0  0  0  0  0
    0.1180    7.1102    1.2112 H   0  0  0  0  0  0  0  0  0  0  0  0
    0.2227    4.6728    1.5282 H   0  0  0  0  0  0  0  0  0  0  0  0
    2.7137    4.5112    0.0508 H   0  0  0  0  0  0  0  0  0  0  0  0
    2.3384    4.3355   -1.6651 H   0  0  0  0  0  0  0  0  0  0  0  0
    3.9485    3.9385   -1.0695 H   0  0  0  0  0  0  0  0  0  0  0  0
    4.3406    1.4139   -0.6569 H   0  0  0  0  0  0  0  0  0  0  0  0
    2.0751   -1.8099    0.0470 H   0  0  0  0  0  0  0  0  0  0  0  0
    4.9180   -0.8339   -0.4227 H   0  0  0  0  0  0  0  0  0  0  0  0
    6.6289   -2.4739   -0.4081 H   0  0  0  0  0  0  0  0  0  0  0  0
    7.3943   -4.7915   -0.1801 H   0  0  0  0  0  0  0  0  0  0  0  0
    5.7740   -6.5850    0.2676 H   0  0  0  0  0  0  0  0  0  0  0  0
    3.3847   -6.0546    0.4870 H   0  0  0  0  0  0  0  0  0  0  0  0
    2.6107   -3.7504    0.2620 H   0  0  0  0  0  0  0  0  0  0  0  0
  1  2  1  0  0  0  0
  2  3  2  0  0  0  0
  3  4  1  0  0  0  0
  4  5  1  0  0  0  0
  5  6  2  0  0  0  0
  6  7  1  0  0  0  0
  7  8  2  0  0  0  0
  8  9  1  0  0  0  0
  9 10  2  0  0  0  0
 10 11  1  0  0  0  0
 11 12  2  0  0  0  0
  4 13  2  0  0  0  0
 13 14  1  0  0  0  0
 14 15  2  0  0  0  0
 15 16  1  0  0  0  0
 16 17  2  0  0  0  0
 17 18  1  0  0  0  0
 18 19  2  0  0  0  0
 19 20  1  0  0  0  0
 20 21  2  0  0  0  0
 15 22  1  0  0  0  0
 22 23  2  0  0  0  0
 23 24  1  0  0  0  0
 23 25  1  0  0  0  0
 25 26  2  0  0  0  0
 26 27  1  0  0  0  0
 27 28  2  0  0  0  0
 28 29  1  0  0  0  0
 29 30  2  0  0  0  0
 30 31  1  0  0  0  0
 31 32  2  0  0  0  0
 32 33  1  0  0  0  0
 33 34  2  0  0  0  0
 26 35  1  0  0  0  0
 35 36  1  0  0  0  0
 36 37  1  0  0  0  0
 36 38  1  0  0  0  0
 14  2  1  0  0  0  0
 21 16  1  0  0  0  0
 35 22  1  0  0  0  0
 12  7  1  0  0  0  0
 36 13  1  0  0  0  0
 34 29  1  0  0  0  0
  1 39  1  0  0  0  0
  1 40  1  0  0  0  0
  1 41  1  0  0  0  0
  3 42  1  0  0  0  0
  5 43  1  0  0  0  0
  6 44  1  0  0  0  0
  8 45  1  0  0  0  0
  9 46  1  0  0  0  0
 10 47  1  0  0  0  0
 11 48  1  0  0  0  0
 12 49  1  0  0  0  0
 17 50  1  0  0  0  0
 18 51  1  0  0  0  0
 19 52  1  0  0  0  0
 20 53  1  0  0  0  0
 21 54  1  0  0  0  0
 24 55  1  0  0  0  0
 24 56  1  0  0  0  0
 24 57  1  0  0  0  0
 25 58  1  0  0  0  0
 27 59  1  0  0  0  0
 28 60  1  0  0  0  0
 30 61  1  0  0  0  0
 31 62  1  0  0  0  0
 32 63  1  0  0  0  0
 33 64  1  0  0  0  0
 34 65  1  0  0  0  0
M  CHG  1  13   1
M  CHG  1  36  -1
M  END
