
  xtb     03012221233D
 energy: -20.738657809320 gnorm: 0.000324037627 xtb: 6.4.1 (afa7bdf)
124127  0     0  0            999 V2000
    7.8885   -3.7342    3.3075 C   0  0  0  0  0  0  0  0  0  0  0  0
    7.9236   -2.3946    2.5893 C   0  0  0  0  0  0  0  0  0  0  0  0
    8.7252   -2.4232    1.2834 C   0  0  0  0  0  0  0  0  0  0  0  0
    8.1974   -3.4105    0.2361 C   0  0  0  0  0  0  0  0  0  0  0  0
    6.7280   -3.2044   -0.1345 C   0  0  0  0  0  0  0  0  0  0  0  0
    6.3959   -1.8066   -0.6563 C   0  0  0  0  0  0  0  0  0  0  0  0
    7.0548   -1.4771   -1.9938 C   0  0  0  0  0  0  0  0  0  0  0  0
    6.7690   -0.0595   -2.5065 C   0  0  0  0  0  0  0  0  0  0  0  0
    5.2685    0.2592   -2.6575 C   0  0  0  0  0  0  0  0  0  0  0  0
    4.6546    0.9023   -1.4222 C   0  0  0  0  0  0  0  0  0  0  0  0
    3.2090    0.8459   -1.4566 N   0  0  0  0  0  0  0  0  0  0  0  0
    2.5295    1.9451   -1.9825 C   0  0  0  0  0  0  0  0  0  0  0  0
    3.1226    2.9183   -2.4174 O   0  0  0  0  0  0  0  0  0  0  0  0
    1.0716    1.8882   -1.9783 C   0  0  0  0  0  0  0  0  0  0  0  0
    0.3546    2.9640   -2.4242 C   0  0  0  0  0  0  0  0  0  0  0  0
   -1.0474    2.9811   -2.4227 C   0  0  0  0  0  0  0  0  0  0  0  0
   -1.7234    4.1010   -2.8726 N   0  0  0  0  0  0  0  0  0  0  0  0
   -1.1415    5.4148   -3.1097 C   0  0  0  0  0  0  0  0  0  0  0  0
   -0.7386    6.1022   -1.8194 C   0  0  0  0  0  0  0  0  0  0  0  0
   -1.9452    6.3151   -0.9274 C   0  0  0  0  0  0  0  0  0  0  0  0
   -2.9496    7.1133   -1.5334 O   0  0  0  0  0  0  0  0  0  0  0  0
   -2.6178    8.4933   -1.6288 C   0  0  0  0  0  0  0  0  0  0  0  0
   -2.3750    8.9244   -3.0702 C   0  0  0  0  0  0  0  0  0  0  0  0
   -1.1988    8.3567   -3.5986 O   0  0  0  0  0  0  0  0  0  0  0  0
   -1.7433    1.8513   -1.9476 C   0  0  0  0  0  0  0  0  0  0  0  0
   -1.0149    0.7240   -1.4976 C   0  0  0  0  0  0  0  0  0  0  0  0
   -1.6842   -0.4308   -1.0142 C   0  0  0  0  0  0  0  0  0  0  0  0
   -0.9679   -1.5209   -0.6029 C   0  0  0  0  0  0  0  0  0  0  0  0
    0.4336   -1.5458   -0.6292 C   0  0  0  0  0  0  0  0  0  0  0  0
    1.1078   -2.6960   -0.2497 N   0  0  0  0  0  0  0  0  0  0  0  0
    0.6287   -3.6720    0.7254 C   0  0  0  0  0  0  0  0  0  0  0  0
    0.4026   -3.0437    2.0968 C   0  0  0  0  0  0  0  0  0  0  0  0
    0.5979   -4.0478    3.2153 C   0  0  0  0  0  0  0  0  0  0  0  0
    1.8644   -4.6927    3.1696 O   0  0  0  0  0  0  0  0  0  0  0  0
    2.9603   -3.9209    3.6531 C   0  0  0  0  0  0  0  0  0  0  0  0
    3.6805   -3.1346    2.5534 C   0  0  0  0  0  0  0  0  0  0  0  0
    3.0657   -1.8877    2.2922 O   0  0  0  0  0  0  0  0  0  0  0  0
    1.1332   -0.3973   -1.0535 C   0  0  0  0  0  0  0  0  0  0  0  0
    0.4034    0.7277   -1.5077 C   0  0  0  0  0  0  0  0  0  0  0  0
    2.5889   -0.3204   -0.9846 C   0  0  0  0  0  0  0  0  0  0  0  0
    3.2796   -1.2140   -0.5190 O   0  0  0  0  0  0  0  0  0  0  0  0
   -3.1416   -0.4652   -0.9547 C   0  0  0  0  0  0  0  0  0  0  0  0
   -3.7298   -1.4369   -0.5086 O   0  0  0  0  0  0  0  0  0  0  0  0
   -3.8240    0.6649   -1.4118 N   0  0  0  0  0  0  0  0  0  0  0  0
   -5.2712    0.6515   -1.3537 C   0  0  0  0  0  0  0  0  0  0  0  0
   -5.8105    1.6485   -0.3397 C   0  0  0  0  0  0  0  0  0  0  0  0
   -5.1458    1.5313    1.0350 C   0  0  0  0  0  0  0  0  0  0  0  0
   -5.2298    0.1538    1.7072 C   0  0  0  0  0  0  0  0  0  0  0  0
   -6.5868   -0.2056    2.3218 C   0  0  0  0  0  0  0  0  0  0  0  0
   -7.7147   -0.4384    1.3066 C   0  0  0  0  0  0  0  0  0  0  0  0
   -8.8368   -1.3574    1.8245 C   0  0  0  0  0  0  0  0  0  0  0  0
   -8.6290   -2.8368    1.4742 C   0  0  0  0  0  0  0  0  0  0  0  0
   -7.3513   -3.4552    2.0443 C   0  0  0  0  0  0  0  0  0  0  0  0
   -7.2174   -4.9332    1.7130 C   0  0  0  0  0  0  0  0  0  0  0  0
   -3.1994    1.8266   -1.8885 C   0  0  0  0  0  0  0  0  0  0  0  0
   -3.8849    2.7801   -2.2226 O   0  0  0  0  0  0  0  0  0  0  0  0
    7.4003   -4.5009    2.7041 H   0  0  0  0  0  0  0  0  0  0  0  0
    8.8963   -4.0901    3.5278 H   0  0  0  0  0  0  0  0  0  0  0  0
    7.3470   -3.6765    4.2543 H   0  0  0  0  0  0  0  0  0  0  0  0
    8.3413   -1.6304    3.2591 H   0  0  0  0  0  0  0  0  0  0  0  0
    6.9016   -2.0540    2.3834 H   0  0  0  0  0  0  0  0  0  0  0  0
    9.7726   -2.6598    1.5142 H   0  0  0  0  0  0  0  0  0  0  0  0
    8.7556   -1.4156    0.8484 H   0  0  0  0  0  0  0  0  0  0  0  0
    8.8131   -3.3500   -0.6693 H   0  0  0  0  0  0  0  0  0  0  0  0
    8.3416   -4.4348    0.6011 H   0  0  0  0  0  0  0  0  0  0  0  0
    6.4264   -3.9463   -0.8873 H   0  0  0  0  0  0  0  0  0  0  0  0
    6.1030   -3.4263    0.7408 H   0  0  0  0  0  0  0  0  0  0  0  0
    5.3087   -1.7121   -0.7610 H   0  0  0  0  0  0  0  0  0  0  0  0
    6.6811   -1.0553    0.0875 H   0  0  0  0  0  0  0  0  0  0  0  0
    6.7216   -2.2070   -2.7418 H   0  0  0  0  0  0  0  0  0  0  0  0
    8.1383   -1.6268   -1.9135 H   0  0  0  0  0  0  0  0  0  0  0  0
    7.2791    0.0821   -3.4688 H   0  0  0  0  0  0  0  0  0  0  0  0
    7.2248    0.6764   -1.8338 H   0  0  0  0  0  0  0  0  0  0  0  0
    4.7212   -0.6612   -2.8896 H   0  0  0  0  0  0  0  0  0  0  0  0
    5.0871    0.9175   -3.5162 H   0  0  0  0  0  0  0  0  0  0  0  0
    4.9585    1.9517   -1.3308 H   0  0  0  0  0  0  0  0  0  0  0  0
    4.9817    0.4075   -0.5033 H   0  0  0  0  0  0  0  0  0  0  0  0
    0.9009    3.8138   -2.7847 H   0  0  0  0  0  0  0  0  0  0  0  0
   -2.7393    4.1161   -2.7786 H   0  0  0  0  0  0  0  0  0  0  0  0
   -1.8712    6.0384   -3.6424 H   0  0  0  0  0  0  0  0  0  0  0  0
   -0.2902    5.3056   -3.7918 H   0  0  0  0  0  0  0  0  0  0  0  0
    0.0174    5.5035   -1.2987 H   0  0  0  0  0  0  0  0  0  0  0  0
   -0.2690    7.0675   -2.0392 H   0  0  0  0  0  0  0  0  0  0  0  0
   -1.6766    6.7672    0.0351 H   0  0  0  0  0  0  0  0  0  0  0  0
   -2.4182    5.3521   -0.6989 H   0  0  0  0  0  0  0  0  0  0  0  0
   -1.7349    8.6999   -1.0155 H   0  0  0  0  0  0  0  0  0  0  0  0
   -3.4522    9.0504   -1.1863 H   0  0  0  0  0  0  0  0  0  0  0  0
   -3.2235    8.6112   -3.6914 H   0  0  0  0  0  0  0  0  0  0  0  0
   -2.2982   10.0175   -3.1412 H   0  0  0  0  0  0  0  0  0  0  0  0
   -1.0565    8.6451   -4.5301 H   0  0  0  0  0  0  0  0  0  0  0  0
   -1.5089   -2.3855   -0.2705 H   0  0  0  0  0  0  0  0  0  0  0  0
    2.1247   -2.6533   -0.2859 H   0  0  0  0  0  0  0  0  0  0  0  0
   -0.2815   -4.1516    0.3479 H   0  0  0  0  0  0  0  0  0  0  0  0
    1.3676   -4.4797    0.8095 H   0  0  0  0  0  0  0  0  0  0  0  0
   -0.5871   -2.5743    2.1483 H   0  0  0  0  0  0  0  0  0  0  0  0
    1.1134   -2.2242    2.2284 H   0  0  0  0  0  0  0  0  0  0  0  0
    0.4697   -3.5955    4.2058 H   0  0  0  0  0  0  0  0  0  0  0  0
   -0.1521   -4.8437    3.1370 H   0  0  0  0  0  0  0  0  0  0  0  0
    2.6108   -3.2467    4.4408 H   0  0  0  0  0  0  0  0  0  0  0  0
    3.6441   -4.6352    4.1271 H   0  0  0  0  0  0  0  0  0  0  0  0
    4.7198   -2.9278    2.8379 H   0  0  0  0  0  0  0  0  0  0  0  0
    3.7111   -3.7385    1.6375 H   0  0  0  0  0  0  0  0  0  0  0  0
    3.1833   -1.6099    1.3466 H   0  0  0  0  0  0  0  0  0  0  0  0
   -5.6463    0.8655   -2.3615 H   0  0  0  0  0  0  0  0  0  0  0  0
   -5.5866   -0.3702   -1.1178 H   0  0  0  0  0  0  0  0  0  0  0  0
   -6.8972    1.5579   -0.2574 H   0  0  0  0  0  0  0  0  0  0  0  0
   -5.6358    2.6586   -0.7324 H   0  0  0  0  0  0  0  0  0  0  0  0
   -5.5537    2.2878    1.7165 H   0  0  0  0  0  0  0  0  0  0  0  0
   -4.0874    1.7981    0.9127 H   0  0  0  0  0  0  0  0  0  0  0  0
   -4.9394   -0.6211    0.9902 H   0  0  0  0  0  0  0  0  0  0  0  0
   -4.4639    0.0990    2.4938 H   0  0  0  0  0  0  0  0  0  0  0  0
   -6.8871    0.5704    3.0361 H   0  0  0  0  0  0  0  0  0  0  0  0
   -6.4722   -1.1073    2.9349 H   0  0  0  0  0  0  0  0  0  0  0  0
   -7.3031   -0.8694    0.3850 H   0  0  0  0  0  0  0  0  0  0  0  0
   -8.1333    0.5319    1.0061 H   0  0  0  0  0  0  0  0  0  0  0  0
   -8.9287   -1.2404    2.9103 H   0  0  0  0  0  0  0  0  0  0  0  0
   -9.8037   -1.0279    1.4208 H   0  0  0  0  0  0  0  0  0  0  0  0
   -8.6237   -2.9530    0.3829 H   0  0  0  0  0  0  0  0  0  0  0  0
   -9.4913   -3.4246    1.8159 H   0  0  0  0  0  0  0  0  0  0  0  0
   -7.3314   -3.3100    3.1318 H   0  0  0  0  0  0  0  0  0  0  0  0
   -6.4785   -2.9123    1.6609 H   0  0  0  0  0  0  0  0  0  0  0  0
   -7.2008   -5.0953    0.6338 H   0  0  0  0  0  0  0  0  0  0  0  0
   -8.0565   -5.5058    2.1119 H   0  0  0  0  0  0  0  0  0  0  0  0
   -6.3013   -5.3639    2.1229 H   0  0  0  0  0  0  0  0  0  0  0  0
  1  2  1  0  0  0  0
  2  3  1  0  0  0  0
  3  4  1  0  0  0  0
  4  5  1  0  0  0  0
  5  6  1  0  0  0  0
  6  7  1  0  0  0  0
  7  8  1  0  0  0  0
  8  9  1  0  0  0  0
  9 10  1  0  0  0  0
 10 11  1  0  0  0  0
 11 12  1  0  0  0  0
 12 13  2  0  0  0  0
 12 14  1  0  0  0  0
 14 15  1  0  0  0  0
 15 16  2  0  0  0  0
 16 17  1  0  0  0  0
 17 18  1  0  0  0  0
 18 19  1  0  0  0  0
 19 20  1  0  0  0  0
 20 21  1  0  0  0  0
 21 22  1  0  0  0  0
 22 23  1  0  0  0  0
 23 24  1  0  0  0  0
 16 25  1  0  0  0  0
 25 26  2  0  0  0  0
 26 27  1  0  0  0  0
 27 28  2  0  0  0  0
 28 29  1  0  0  0  0
 29 30  1  0  0  0  0
 30 31  1  0  0  0  0
 31 32  1  0  0  0  0
 32 33  1  0  0  0  0
 33 34  1  0  0  0  0
 34 35  1  0  0  0  0
 35 36  1  0  0  0  0
 36 37  1  0  0  0  0
 29 38  2  0  0  0  0
 38 39  1  0  0  0  0
 38 40  1  0  0  0  0
 40 41  2  0  0  0  0
 27 42  1  0  0  0  0
 42 43  2  0  0  0  0
 42 44  1  0  0  0  0
 44 45  1  0  0  0  0
 45 46  1  0  0  0  0
 46 47  1  0  0  0  0
 47 48  1  0  0  0  0
 48 49  1  0  0  0  0
 49 50  1  0  0  0  0
 50 51  1  0  0  0  0
 51 52  1  0  0  0  0
 52 53  1  0  0  0  0
 53 54  1  0  0  0  0
 44 55  1  0  0  0  0
 55 56  2  0  0  0  0
 40 11  1  0  0  0  0
 39 14  2  0  0  0  0
 55 25  1  0  0  0  0
 39 26  1  0  0  0  0
  1 57  1  0  0  0  0
  1 58  1  0  0  0  0
  1 59  1  0  0  0  0
  2 60  1  0  0  0  0
  2 61  1  0  0  0  0
  3 62  1  0  0  0  0
  3 63  1  0  0  0  0
  4 64  1  0  0  0  0
  4 65  1  0  0  0  0
  5 66  1  0  0  0  0
  5 67  1  0  0  0  0
  6 68  1  0  0  0  0
  6 69  1  0  0  0  0
  7 70  1  0  0  0  0
  7 71  1  0  0  0  0
  8 72  1  0  0  0  0
  8 73  1  0  0  0  0
  9 74  1  0  0  0  0
  9 75  1  0  0  0  0
 10 76  1  0  0  0  0
 10 77  1  0  0  0  0
 15 78  1  0  0  0  0
 17 79  1  0  0  0  0
 18 80  1  0  0  0  0
 18 81  1  0  0  0  0
 19 82  1  0  0  0  0
 19 83  1  0  0  0  0
 20 84  1  0  0  0  0
 20 85  1  0  0  0  0
 22 86  1  0  0  0  0
 22 87  1  0  0  0  0
 23 88  1  0  0  0  0
 23 89  1  0  0  0  0
 24 90  1  0  0  0  0
 28 91  1  0  0  0  0
 30 92  1  0  0  0  0
 31 93  1  0  0  0  0
 31 94  1  0  0  0  0
 32 95  1  0  0  0  0
 32 96  1  0  0  0  0
 33 97  1  0  0  0  0
 33 98  1  0  0  0  0
 35 99  1  0  0  0  0
 35100  1  0  0  0  0
 36101  1  0  0  0  0
 36102  1  0  0  0  0
 37103  1  0  0  0  0
 45104  1  0  0  0  0
 45105  1  0  0  0  0
 46106  1  0  0  0  0
 46107  1  0  0  0  0
 47108  1  0  0  0  0
 47109  1  0  0  0  0
 48110  1  0  0  0  0
 48111  1  0  0  0  0
 49112  1  0  0  0  0
 49113  1  0  0  0  0
 50114  1  0  0  0  0
 50115  1  0  0  0  0
 51116  1  0  0  0  0
 51117  1  0  0  0  0
 52118  1  0  0  0  0
 52119  1  0  0  0  0
 53120  1  0  0  0  0
 53121  1  0  0  0  0
 54122  1  0  0  0  0
 54123  1  0  0  0  0
 54124  1  0  0  0  0
M  END
