
  xtb     03012221303D
 energy: -10.175596671513 gnorm: 0.000215501983 xtb: 6.4.1 (afa7bdf)
 51 54  0     0  0            999 V2000
   -3.1736    6.2105    1.6838 C   0  0  0  0  0  0  0  0  0  0  0  0
   -2.3028    5.7986    0.6592 O   0  0  0  0  0  0  0  0  0  0  0  0
   -2.0038    4.4316    0.6568 C   0  0  0  0  0  0  0  0  0  0  0  0
   -2.5050    3.5056    1.5761 C   0  0  0  0  0  0  0  0  0  0  0  0
   -2.1516    2.1812    1.5028 C   0  0  0  0  0  0  0  0  0  0  0  0
   -1.2779    1.7226    0.5210 C   0  0  0  0  0  0  0  0  0  0  0  0
   -0.9278    0.2977    0.4639 C   0  0  0  0  0  0  0  0  0  0  0  0
   -1.7857   -0.6840    0.8168 N   0  0  0  0  0  0  0  0  0  0  0  0
   -1.1664   -1.8358    0.5854 C   0  0  0  0  0  0  0  0  0  0  0  0
   -1.7482   -3.1470    0.8322 C   0  0  0  0  0  0  0  0  0  0  0  0
   -3.0494   -3.2271    1.3087 C   0  0  0  0  0  0  0  0  0  0  0  0
   -3.6408   -4.4450    1.5554 C   0  0  0  0  0  0  0  0  0  0  0  0
   -2.9341   -5.6090    1.3282 C   0  0  0  0  0  0  0  0  0  0  0  0
   -1.6421   -5.5565    0.8572 C   0  0  0  0  0  0  0  0  0  0  0  0
   -1.0123   -4.3373    0.5969 C   0  0  0  0  0  0  0  0  0  0  0  0
    0.2974   -4.2335    0.1206 O   0  0  0  0  0  0  0  0  0  0  0  0
    0.9726   -5.4569   -0.0491 C   0  0  0  0  0  0  0  0  0  0  0  0
    0.0977   -1.6209    0.0836 N   0  0  0  0  0  0  0  0  0  0  0  0
    0.2853   -0.2716    0.0138 C   0  0  0  0  0  0  0  0  0  0  0  0
    1.5357    0.3749   -0.3805 C   0  0  0  0  0  0  0  0  0  0  0  0
    1.9774    1.5490    0.2294 C   0  0  0  0  0  0  0  0  0  0  0  0
    3.1601    2.1324   -0.1445 C   0  0  0  0  0  0  0  0  0  0  0  0
    3.9633    1.5675   -1.1394 C   0  0  0  0  0  0  0  0  0  0  0  0
    5.1500    2.2321   -1.4635 O   0  0  0  0  0  0  0  0  0  0  0  0
    5.9104    1.6231   -2.4783 C   0  0  0  0  0  0  0  0  0  0  0  0
    3.5262    0.3812   -1.7369 C   0  0  0  0  0  0  0  0  0  0  0  0
    2.3421   -0.2012   -1.3606 C   0  0  0  0  0  0  0  0  0  0  0  0
   -0.7923    2.6390   -0.4097 C   0  0  0  0  0  0  0  0  0  0  0  0
   -1.1435    3.9628   -0.3395 C   0  0  0  0  0  0  0  0  0  0  0  0
   -3.3352    7.2849    1.5886 H   0  0  0  0  0  0  0  0  0  0  0  0
   -4.1317    5.6987    1.5852 H   0  0  0  0  0  0  0  0  0  0  0  0
   -2.7258    6.0046    2.6569 H   0  0  0  0  0  0  0  0  0  0  0  0
   -3.1761    3.8311    2.3500 H   0  0  0  0  0  0  0  0  0  0  0  0
   -2.5466    1.4713    2.2097 H   0  0  0  0  0  0  0  0  0  0  0  0
   -3.5896   -2.3132    1.4810 H   0  0  0  0  0  0  0  0  0  0  0  0
   -4.6522   -4.4901    1.9243 H   0  0  0  0  0  0  0  0  0  0  0  0
   -3.3975   -6.5630    1.5208 H   0  0  0  0  0  0  0  0  0  0  0  0
   -1.1116   -6.4752    0.6870 H   0  0  0  0  0  0  0  0  0  0  0  0
    0.4576   -6.0657   -0.7931 H   0  0  0  0  0  0  0  0  0  0  0  0
    1.9832   -5.2491   -0.4022 H   0  0  0  0  0  0  0  0  0  0  0  0
    1.0337   -5.9828    0.9045 H   0  0  0  0  0  0  0  0  0  0  0  0
    0.7754   -2.3598   -0.1258 H   0  0  0  0  0  0  0  0  0  0  0  0
    1.3802    1.9892    1.0096 H   0  0  0  0  0  0  0  0  0  0  0  0
    3.4962    3.0405    0.3240 H   0  0  0  0  0  0  0  0  0  0  0  0
    5.3296    1.5763   -3.4002 H   0  0  0  0  0  0  0  0  0  0  0  0
    6.2156    0.6241   -2.1647 H   0  0  0  0  0  0  0  0  0  0  0  0
    6.8016    2.2272   -2.6518 H   0  0  0  0  0  0  0  0  0  0  0  0
    4.1234   -0.0828   -2.5006 H   0  0  0  0  0  0  0  0  0  0  0  0
    2.0139   -1.1130   -1.8299 H   0  0  0  0  0  0  0  0  0  0  0  0
   -0.1428    2.2929   -1.1955 H   0  0  0  0  0  0  0  0  0  0  0  0
   -0.7625    4.6701   -1.0549 H   0  0  0  0  0  0  0  0  0  0  0  0
  1  2  1  0  0  0  0
  2  3  1  0  0  0  0
  3  4  2  0  0  0  0
  4  5  1  0  0  0  0
  5  6  2  0  0  0  0
  6  7  1  0  0  0  0
  7  8  1  0  0  0  0
  8  9  2  0  0  0  0
  9 10  1  0  0  0  0
 10 11  2  0  0  0  0
 11 12  1  0  0  0  0
 12 13  2  0  0  0  0
 13 14  1  0  0  0  0
 14 15  2  0  0  0  0
 15 16  1  0  0  0  0
 16 17  1  0  0  0  0
  9 18  1  0  0  0  0
 18 19  1  0  0  0  0
 19 20  1  0  0  0  0
 20 21  2  0  0  0  0
 21 22  1  0  0  0  0
 22 23  2  0  0  0  0
 23 24  1  0  0  0  0
 24 25  1  0  0  0  0
 23 26  1  0  0  0  0
 26 27  2  0  0  0  0
  6 28  1  0  0  0  0
 28 29  2  0  0  0  0
 29  3  1  0  0  0  0
 19  7  2  0  0  0  0
 27 20  1  0  0  0  0
 15 10  1  0  0  0  0
  1 30  1  0  0  0  0
  1 31  1  0  0  0  0
  1 32  1  0  0  0  0
  4 33  1  0  0  0  0
  5 34  1  0  0  0  0
 11 35  1  0  0  0  0
 12 36  1  0  0  0  0
 13 37  1  0  0  0  0
 14 38  1  0  0  0  0
 17 39  1  0  0  0  0
 17 40  1  0  0  0  0
 17 41  1  0  0  0  0
 18 42  1  0  0  0  0
 21 43  1  0  0  0  0
 22 44  1  0  0  0  0
 25 45  1  0  0  0  0
 25 46  1  0  0  0  0
 25 47  1  0  0  0  0
 26 48  1  0  0  0  0
 27 49  1  0  0  0  0
 28 50  1  0  0  0  0
 29 51  1  0  0  0  0
M  END
