
  xtb     03012221213D
 energy: -9.937412032719 gnorm: 0.000323588903 xtb: 6.4.1 (afa7bdf)
 51 54  0     0  0            999 V2000
    7.0923   -2.9366    0.1572 C   0  0  0  0  0  0  0  0  0  0  0  0
    6.8797   -1.5464    0.1573 O   0  0  0  0  0  0  0  0  0  0  0  0
    5.5405   -1.1570    0.2058 C   0  0  0  0  0  0  0  0  0  0  0  0
    4.4557   -2.0415    0.2703 C   0  0  0  0  0  0  0  0  0  0  0  0
    3.1668   -1.5773    0.3183 C   0  0  0  0  0  0  0  0  0  0  0  0
    2.8951   -0.2023    0.3060 C   0  0  0  0  0  0  0  0  0  0  0  0
    1.5564    0.3535    0.3530 C   0  0  0  0  0  0  0  0  0  0  0  0
    0.4155   -0.4285    0.2586 C   0  0  0  0  0  0  0  0  0  0  0  0
   -0.8507    0.1330    0.3366 C   0  0  0  0  0  0  0  0  0  0  0  0
   -2.0653   -0.6545    0.3291 C   0  0  0  0  0  0  0  0  0  0  0  0
   -2.0794   -2.0678    0.2475 C   0  0  0  0  0  0  0  0  0  0  0  0
   -3.2534   -2.7584    0.2423 C   0  0  0  0  0  0  0  0  0  0  0  0
   -4.4954   -2.0845    0.3181 C   0  0  0  0  0  0  0  0  0  0  0  0
   -5.7222   -2.7696    0.3155 C   0  0  0  0  0  0  0  0  0  0  0  0
   -6.9052   -2.0806    0.3908 C   0  0  0  0  0  0  0  0  0  0  0  0
   -6.9119   -0.6872    0.4712 C   0  0  0  0  0  0  0  0  0  0  0  0
   -5.7374    0.0085    0.4761 C   0  0  0  0  0  0  0  0  0  0  0  0
   -4.4996   -0.6663    0.4003 C   0  0  0  0  0  0  0  0  0  0  0  0
   -3.2767    0.0172    0.4043 C   0  0  0  0  0  0  0  0  0  0  0  0
   -0.9922    1.4810    0.4262 O   0  0  0  0  0  3  0  0  0  0  0  0
    0.1769    2.3016    0.0480 B   0  0  0  0  0  4  0  0  0  0  0  0
    0.2076    2.3979   -1.5642 C   0  0  0  0  0  0  0  0  0  0  0  0
   -0.9247    3.0747   -2.2118 C   0  0  0  0  0  0  0  0  0  0  0  0
    1.1333    1.9011   -2.1291 O   0  0  0  0  0  0  0  0  0  0  0  0
    0.0158    3.7615    0.7163 C   0  0  0  0  0  0  0  0  0  0  0  0
    0.8082    4.0344    1.9232 C   0  0  0  0  0  0  0  0  0  0  0  0
   -0.7443    4.5192    0.1935 O   0  0  0  0  0  0  0  0  0  0  0  0
    1.4472    1.6977    0.5005 O   0  0  0  0  0  0  0  0  0  0  0  0
    3.9778    0.6786    0.2386 C   0  0  0  0  0  0  0  0  0  0  0  0
    5.2655    0.2161    0.1894 C   0  0  0  0  0  0  0  0  0  0  0  0
    6.6157   -3.3843   -0.7151 H   0  0  0  0  0  0  0  0  0  0  0  0
    6.7002   -3.3722    1.0764 H   0  0  0  0  0  0  0  0  0  0  0  0
    8.1656   -3.1209    0.1077 H   0  0  0  0  0  0  0  0  0  0  0  0
    4.6356   -3.0999    0.2841 H   0  0  0  0  0  0  0  0  0  0  0  0
    2.3555   -2.2795    0.3774 H   0  0  0  0  0  0  0  0  0  0  0  0
    0.5147   -1.4873    0.1376 H   0  0  0  0  0  0  0  0  0  0  0  0
   -1.1513   -2.6052    0.1895 H   0  0  0  0  0  0  0  0  0  0  0  0
   -3.2505   -3.8319    0.1801 H   0  0  0  0  0  0  0  0  0  0  0  0
   -5.7204   -3.8437    0.2537 H   0  0  0  0  0  0  0  0  0  0  0  0
   -7.8391   -2.6174    0.3880 H   0  0  0  0  0  0  0  0  0  0  0  0
   -7.8493   -0.1596    0.5295 H   0  0  0  0  0  0  0  0  0  0  0  0
   -5.7412    1.0845    0.5385 H   0  0  0  0  0  0  0  0  0  0  0  0
   -3.2651    1.0896    0.4682 H   0  0  0  0  0  0  0  0  0  0  0  0
   -0.5695    3.9106   -2.8128 H   0  0  0  0  0  0  0  0  0  0  0  0
   -1.4605    2.3845   -2.8618 H   0  0  0  0  0  0  0  0  0  0  0  0
   -1.6178    3.4611   -1.4641 H   0  0  0  0  0  0  0  0  0  0  0  0
    1.4611    4.8911    1.7620 H   0  0  0  0  0  0  0  0  0  0  0  0
    1.4239    3.1730    2.1815 H   0  0  0  0  0  0  0  0  0  0  0  0
    0.1527    4.2564    2.7641 H   0  0  0  0  0  0  0  0  0  0  0  0
    3.7707    1.7346    0.2082 H   0  0  0  0  0  0  0  0  0  0  0  0
    6.0932    0.8989    0.1317 H   0  0  0  0  0  0  0  0  0  0  0  0
  1  2  1  0  0  0  0
  2  3  1  0  0  0  0
  3  4  2  0  0  0  0
  4  5  1  0  0  0  0
  5  6  2  0  0  0  0
  6  7  1  0  0  0  0
  7  8  2  0  0  0  0
  8  9  1  0  0  0  0
  9 10  1  0  0  0  0
 10 11  2  0  0  0  0
 11 12  1  0  0  0  0
 12 13  2  0  0  0  0
 13 14  1  0  0  0  0
 14 15  2  0  0  0  0
 15 16  1  0  0  0  0
 16 17  2  0  0  0  0
 17 18  1  0  0  0  0
 18 19  2  0  0  0  0
  9 20  2  0  0  0  0
 20 21  1  0  0  0  0
 21 22  1  0  0  0  0
 22 23  1  0  0  0  0
 22 24  2  0  0  0  0
 21 25  1  0  0  0  0
 25 26  1  0  0  0  0
 25 27  2  0  0  0  0
 21 28  1  0  0  0  0
  6 29  1  0  0  0  0
 29 30  2  0  0  0  0
 30  3  1  0  0  0  0
 28  7  1  0  0  0  0
 19 10  1  0  0  0  0
 18 13  1  0  0  0  0
  1 31  1  0  0  0  0
  1 32  1  0  0  0  0
  1 33  1  0  0  0  0
  4 34  1  0  0  0  0
  5 35  1  0  0  0  0
  8 36  1  0  0  0  0
 11 37  1  0  0  0  0
 12 38  1  0  0  0  0
 14 39  1  0  0  0  0
 15 40  1  0  0  0  0
 16 41  1  0  0  0  0
 17 42  1  0  0  0  0
 19 43  1  0  0  0  0
 23 44  1  0  0  0  0
 23 45  1  0  0  0  0
 23 46  1  0  0  0  0
 26 47  1  0  0  0  0
 26 48  1  0  0  0  0
 26 49  1  0  0  0  0
 29 50  1  0  0  0  0
 30 51  1  0  0  0  0
M  CHG  1  20   1
M  CHG  1  21  -1
M  END
