
  xtb     03012221303D
 energy: -8.337819658858 gnorm: 0.000282558199 xtb: 6.4.1 (afa7bdf)
 49 49  0     0  0            999 V2000
    2.3362   -2.6577   -1.1589 C   0  0  0  0  0  0  0  0  0  0  0  0
    3.5519   -2.2667   -0.3889 C   0  0  0  0  0  0  0  0  0  0  0  0
    3.5583   -1.0154    0.3199 C   0  0  0  0  0  0  0  0  0  0  0  0
    2.5349   -0.1354    0.3273 C   0  0  0  0  0  0  0  0  0  0  0  0
    2.5749    1.1067    1.0235 C   0  0  0  0  0  0  0  0  0  0  0  0
    1.5536    2.0003    1.1364 C   0  0  0  0  0  0  0  0  0  0  0  0
    1.8492    3.3283    1.7481 C   0  0  0  0  0  0  0  0  0  0  0  0
    0.1986    1.7463    0.6924 C   0  0  0  0  0  0  0  0  0  0  0  0
   -0.4109    0.5458    0.6583 C   0  0  0  0  0  0  0  0  0  0  0  0
   -1.8092    0.3943    0.2697 C   0  0  0  0  0  0  0  0  0  0  0  0
   -2.7728    0.4665    1.2143 C   0  0  0  0  0  0  0  0  0  0  0  0
   -2.3980    0.6830    2.6408 C   0  0  0  0  0  0  0  0  0  0  0  0
   -4.2417    0.3338    0.9068 C   0  0  0  0  0  0  0  0  0  0  0  0
   -4.5829    0.4554   -0.5847 C   0  0  0  0  0  0  0  0  0  0  0  0
   -3.5739   -0.3174   -1.4362 C   0  0  0  0  0  0  0  0  0  0  0  0
   -2.1122    0.1863   -1.2258 C   0  0  0  0  0  0  0  0  0  0  0  0
   -1.1490   -0.8649   -1.8104 C   0  0  0  0  0  0  0  0  0  0  0  0
   -1.9137    1.5183   -1.9711 C   0  0  0  0  0  0  0  0  0  0  0  0
    4.6199   -3.1009   -0.3814 C   0  0  0  0  0  0  0  0  0  0  0  0
    5.8700   -2.8853    0.3001 C   0  0  0  0  0  0  0  0  0  0  0  0
    6.8038   -3.6462    0.2896 O   0  0  0  0  0  0  0  0  0  0  0  0
    2.1592   -1.9669   -1.9841 H   0  0  0  0  0  0  0  0  0  0  0  0
    2.4348   -3.6578   -1.5826 H   0  0  0  0  0  0  0  0  0  0  0  0
    1.4529   -2.6606   -0.5191 H   0  0  0  0  0  0  0  0  0  0  0  0
    4.4340   -0.7609    0.8887 H   0  0  0  0  0  0  0  0  0  0  0  0
    1.6676   -0.3563   -0.2635 H   0  0  0  0  0  0  0  0  0  0  0  0
    3.5220    1.3855    1.4533 H   0  0  0  0  0  0  0  0  0  0  0  0
    2.5925    3.8704    1.1607 H   0  0  0  0  0  0  0  0  0  0  0  0
    2.2386    3.2120    2.7611 H   0  0  0  0  0  0  0  0  0  0  0  0
    0.9535    3.9491    1.8071 H   0  0  0  0  0  0  0  0  0  0  0  0
   -0.4044    2.6107    0.4651 H   0  0  0  0  0  0  0  0  0  0  0  0
    0.1098   -0.3194    1.0339 H   0  0  0  0  0  0  0  0  0  0  0  0
   -3.2753    0.6752    3.2890 H   0  0  0  0  0  0  0  0  0  0  0  0
   -1.8968    1.6431    2.7704 H   0  0  0  0  0  0  0  0  0  0  0  0
   -1.7228   -0.0996    2.9891 H   0  0  0  0  0  0  0  0  0  0  0  0
   -4.5891   -0.6348    1.2861 H   0  0  0  0  0  0  0  0  0  0  0  0
   -4.7931    1.0883    1.4825 H   0  0  0  0  0  0  0  0  0  0  0  0
   -4.5827    1.5121   -0.8782 H   0  0  0  0  0  0  0  0  0  0  0  0
   -5.6047    0.1004   -0.7803 H   0  0  0  0  0  0  0  0  0  0  0  0
   -3.8314   -0.2613   -2.5007 H   0  0  0  0  0  0  0  0  0  0  0  0
   -3.6186   -1.3811   -1.1770 H   0  0  0  0  0  0  0  0  0  0  0  0
   -1.2165   -1.8023   -1.2592 H   0  0  0  0  0  0  0  0  0  0  0  0
   -0.1180   -0.5183   -1.7621 H   0  0  0  0  0  0  0  0  0  0  0  0
   -1.3824   -1.0686   -2.8550 H   0  0  0  0  0  0  0  0  0  0  0  0
   -0.8787    1.8511   -1.9014 H   0  0  0  0  0  0  0  0  0  0  0  0
   -2.5434    2.3003   -1.5491 H   0  0  0  0  0  0  0  0  0  0  0  0
   -2.1606    1.4164   -3.0274 H   0  0  0  0  0  0  0  0  0  0  0  0
    4.5524   -4.0207   -0.9335 H   0  0  0  0  0  0  0  0  0  0  0  0
    6.0140   -1.9809    0.8717 H   0  0  0  0  0  0  0  0  0  0  0  0
  1  2  1  0  0  0  0
  2  3  1  0  0  0  0
  3  4  2  0  0  0  0
  4  5  1  0  0  0  0
  5  6  2  0  0  0  0
  6  7  1  0  0  0  0
  6  8  1  0  0  0  0
  8  9  2  0  0  0  0
  9 10  1  0  0  0  0
 10 11  2  0  0  0  0
 11 12  1  0  0  0  0
 11 13  1  0  0  0  0
 13 14  1  0  0  0  0
 14 15  1  0  0  0  0
 15 16  1  0  0  0  0
 16 17  1  0  0  0  0
 16 18  1  0  0  0  0
  2 19  2  0  0  0  0
 19 20  1  0  0  0  0
 20 21  2  0  0  0  0
 16 10  1  0  0  0  0
  1 22  1  0  0  0  0
  1 23  1  0  0  0  0
  1 24  1  0  0  0  0
  3 25  1  0  0  0  0
  4 26  1  0  0  0  0
  5 27  1  0  0  0  0
  7 28  1  0  0  0  0
  7 29  1  0  0  0  0
  7 30  1  0  0  0  0
  8 31  1  0  0  0  0
  9 32  1  0  0  0  0
 12 33  1  0  0  0  0
 12 34  1  0  0  0  0
 12 35  1  0  0  0  0
 13 36  1  0  0  0  0
 13 37  1  0  0  0  0
 14 38  1  0  0  0  0
 14 39  1  0  0  0  0
 15 40  1  0  0  0  0
 15 41  1  0  0  0  0
 17 42  1  0  0  0  0
 17 43  1  0  0  0  0
 17 44  1  0  0  0  0
 18 45  1  0  0  0  0
 18 46  1  0  0  0  0
 18 47  1  0  0  0  0
 19 48  1  0  0  0  0
 20 49  1  0  0  0  0
M  END
