
  xtb     03012221233D
 energy: -17.725553630618 gnorm: 0.000218369186 xtb: 6.4.1 (afa7bdf)
 97101  0     0  0            999 V2000
   -7.8609   -2.5569    1.5960 C   0  0  0  0  0  0  0  0  0  0  0  0
   -8.2329   -1.5471    0.5220 C   0  0  0  0  0  0  0  0  0  0  0  0
   -7.4823   -1.7741   -0.7959 C   0  0  0  0  0  0  0  0  0  0  0  0
   -6.0016   -1.6264   -0.6539 C   0  0  0  0  0  0  0  0  0  0  0  0
   -5.0986   -2.6381   -0.5114 C   0  0  0  0  0  0  0  0  0  0  0  0
   -3.8327   -2.0157   -0.3482 C   0  0  0  0  0  0  0  0  0  0  0  0
   -3.9599   -0.6828   -0.3813 N   0  0  0  0  0  0  0  0  0  0  0  0
   -5.2548   -0.3968   -0.5617 C   0  0  0  0  0  0  0  0  0  0  0  0
   -5.8201    0.9124   -0.6492 C   0  0  0  0  0  0  0  0  0  0  0  0
   -5.2238    2.1408   -0.5709 C   0  0  0  0  0  0  0  0  0  0  0  0
   -3.8573    2.5074   -0.3746 C   0  0  0  0  0  0  0  0  0  0  0  0
   -2.7742    1.6792   -0.2058 N   0  0  0  0  0  0  0  0  0  0  0  0
   -1.6169    2.3868   -0.0688 C   0  0  0  0  0  0  0  0  0  0  0  0
   -1.9647    3.7431   -0.1482 C   0  0  0  0  0  0  0  0  0  0  0  0
   -3.3364    3.8273   -0.3263 C   0  0  0  0  0  0  0  0  0  0  0  0
   -4.1060    5.0945   -0.5174 C   0  0  0  0  0  0  0  0  0  0  0  0
   -4.3600    5.4156   -1.9902 C   0  0  0  0  0  0  0  0  0  0  0  0
   -5.1501    6.6986   -2.1854 C   0  0  0  0  0  0  0  0  0  0  0  0
   -0.3319    1.7635    0.1031 C   0  0  0  0  0  0  0  0  0  0  0  0
   -0.1946    0.4355    0.1595 N   0  0  0  0  0  0  0  0  0  0  0  0
    1.1075    0.1550    0.3182 C   0  0  0  0  0  0  0  0  0  0  0  0
    1.6917   -1.1629    0.4432 C   0  0  0  0  0  0  0  0  0  0  0  0
    3.0508   -1.1403    0.6655 O   0  0  0  0  0  0  0  0  0  0  0  0
    3.7936   -2.2857    0.8659 C   0  0  0  0  0  0  0  0  0  0  0  0
    3.3900   -3.4194    0.9484 O   0  0  0  0  0  0  0  0  0  0  0  0
    5.2672   -2.0215    0.9921 C   0  0  0  0  0  0  0  0  0  0  0  0
    5.7986   -1.4192   -0.2095 N   0  0  0  0  0  0  0  0  0  0  0  0
    6.3298   -0.1415   -0.2160 C   0  0  0  0  0  0  0  0  0  0  0  0
    6.3757    0.5122    0.8117 O   0  0  0  0  0  0  0  0  0  0  0  0
    6.7840    0.2879   -1.4362 O   0  0  0  0  0  0  0  0  0  0  0  0
    7.4581    1.5750   -1.4227 C   0  0  0  0  0  0  0  0  0  0  0  0
    8.6690    1.5185   -0.4836 C   0  0  0  0  0  0  0  0  0  0  0  0
    6.4869    2.6778   -0.9905 C   0  0  0  0  0  0  0  0  0  0  0  0
    7.9354    1.8510   -2.8553 C   0  0  0  0  0  0  0  0  0  0  0  0
    1.0093   -2.3895    0.3496 C   0  0  0  0  0  0  0  0  0  0  0  0
   -0.3261   -2.7327    0.1523 C   0  0  0  0  0  0  0  0  0  0  0  0
   -1.4163   -1.9027   -0.0125 N   0  0  0  0  0  0  0  0  0  0  0  0
   -2.5533   -2.6285   -0.1610 C   0  0  0  0  0  0  0  0  0  0  0  0
   -2.1932   -4.0008   -0.0880 C   0  0  0  0  0  0  0  0  0  0  0  0
   -0.8367   -4.0762    0.0959 C   0  0  0  0  0  0  0  0  0  0  0  0
   -0.0268   -5.3226    0.2638 C   0  0  0  0  0  0  0  0  0  0  0  0
    0.4025   -5.5642    1.7108 C   0  0  0  0  0  0  0  0  0  0  0  0
    1.3118   -6.7696    1.8625 C   0  0  0  0  0  0  0  0  0  0  0  0
    1.8451    1.3879    0.3622 C   0  0  0  0  0  0  0  0  0  0  0  0
    3.3107    1.5717    0.5715 C   0  0  0  0  0  0  0  0  0  0  0  0
    3.6745    1.8943    2.0251 C   0  0  0  0  0  0  0  0  0  0  0  0
    3.1985    0.8325    3.0008 C   0  0  0  0  0  0  0  0  0  0  0  0
    0.9294    2.3912    0.2342 C   0  0  0  0  0  0  0  0  0  0  0  0
   -8.4064   -2.3872    2.5266 H   0  0  0  0  0  0  0  0  0  0  0  0
   -6.7956   -2.5106    1.8278 H   0  0  0  0  0  0  0  0  0  0  0  0
   -8.0749   -3.5761    1.2699 H   0  0  0  0  0  0  0  0  0  0  0  0
   -8.0269   -0.5309    0.8830 H   0  0  0  0  0  0  0  0  0  0  0  0
   -9.3168   -1.5749    0.3438 H   0  0  0  0  0  0  0  0  0  0  0  0
   -7.8379   -1.0837   -1.5688 H   0  0  0  0  0  0  0  0  0  0  0  0
   -7.7030   -2.7772   -1.1760 H   0  0  0  0  0  0  0  0  0  0  0  0
   -5.3034   -3.6943   -0.5136 H   0  0  0  0  0  0  0  0  0  0  0  0
   -6.8862    0.9162   -0.8049 H   0  0  0  0  0  0  0  0  0  0  0  0
   -5.8855    2.9870   -0.6749 H   0  0  0  0  0  0  0  0  0  0  0  0
   -2.8331    0.6661   -0.2114 H   0  0  0  0  0  0  0  0  0  0  0  0
   -1.2814    4.5736   -0.0911 H   0  0  0  0  0  0  0  0  0  0  0  0
   -5.0568    5.0297    0.0235 H   0  0  0  0  0  0  0  0  0  0  0  0
   -3.5621    5.9211   -0.0458 H   0  0  0  0  0  0  0  0  0  0  0  0
   -4.8832    4.5722   -2.4592 H   0  0  0  0  0  0  0  0  0  0  0  0
   -3.3979    5.4772   -2.5155 H   0  0  0  0  0  0  0  0  0  0  0  0
   -5.3229    6.9179   -3.2415 H   0  0  0  0  0  0  0  0  0  0  0  0
   -4.6268    7.5539   -1.7537 H   0  0  0  0  0  0  0  0  0  0  0  0
   -6.1254    6.6392   -1.6985 H   0  0  0  0  0  0  0  0  0  0  0  0
    5.7962   -2.9554    1.1990 H   0  0  0  0  0  0  0  0  0  0  0  0
    5.4571   -1.3450    1.8287 H   0  0  0  0  0  0  0  0  0  0  0  0
    5.6577   -1.9304   -1.0797 H   0  0  0  0  0  0  0  0  0  0  0  0
    9.2141    2.4612   -0.4853 H   0  0  0  0  0  0  0  0  0  0  0  0
    8.3463    1.3089    0.5345 H   0  0  0  0  0  0  0  0  0  0  0  0
    9.3478    0.7245   -0.7888 H   0  0  0  0  0  0  0  0  0  0  0  0
    6.9623    3.6570   -1.0248 H   0  0  0  0  0  0  0  0  0  0  0  0
    5.6164    2.6928   -1.6434 H   0  0  0  0  0  0  0  0  0  0  0  0
    6.1458    2.4992    0.0267 H   0  0  0  0  0  0  0  0  0  0  0  0
    8.6091    1.0631   -3.1867 H   0  0  0  0  0  0  0  0  0  0  0  0
    8.4580    2.8042   -2.9217 H   0  0  0  0  0  0  0  0  0  0  0  0
    7.0878    1.8725   -3.5376 H   0  0  0  0  0  0  0  0  0  0  0  0
    1.6514   -3.2404    0.4492 H   0  0  0  0  0  0  0  0  0  0  0  0
   -1.3335   -0.8914   -0.0091 H   0  0  0  0  0  0  0  0  0  0  0  0
   -2.8696   -4.8343   -0.1612 H   0  0  0  0  0  0  0  0  0  0  0  0
    0.8573   -5.2655   -0.3802 H   0  0  0  0  0  0  0  0  0  0  0  0
   -0.5980   -6.1817   -0.1039 H   0  0  0  0  0  0  0  0  0  0  0  0
    0.9060   -4.6661    2.0956 H   0  0  0  0  0  0  0  0  0  0  0  0
   -0.4924   -5.6751    2.3394 H   0  0  0  0  0  0  0  0  0  0  0  0
    1.6015   -6.9363    2.9018 H   0  0  0  0  0  0  0  0  0  0  0  0
    0.8256   -7.6785    1.5050 H   0  0  0  0  0  0  0  0  0  0  0  0
    2.2281   -6.6426    1.2837 H   0  0  0  0  0  0  0  0  0  0  0  0
    3.6669    2.3599   -0.0997 H   0  0  0  0  0  0  0  0  0  0  0  0
    3.8298    0.6599    0.2597 H   0  0  0  0  0  0  0  0  0  0  0  0
    4.7629    2.0157    2.1138 H   0  0  0  0  0  0  0  0  0  0  0  0
    3.2462    2.8674    2.2985 H   0  0  0  0  0  0  0  0  0  0  0  0
    3.6074   -0.1460    2.7422 H   0  0  0  0  0  0  0  0  0  0  0  0
    3.4912    1.0542    4.0303 H   0  0  0  0  0  0  0  0  0  0  0  0
    2.1106    0.7356    2.9789 H   0  0  0  0  0  0  0  0  0  0  0  0
    1.1278    3.4486    0.2348 H   0  0  0  0  0  0  0  0  0  0  0  0
  1  2  1  0  0  0  0
  2  3  1  0  0  0  0
  3  4  1  0  0  0  0
  4  5  2  0  0  0  0
  5  6  1  0  0  0  0
  6  7  2  0  0  0  0
  7  8  1  0  0  0  0
  8  9  2  0  0  0  0
  9 10  1  0  0  0  0
 10 11  2  0  0  0  0
 11 12  1  0  0  0  0
 12 13  1  0  0  0  0
 13 14  1  0  0  0  0
 14 15  2  0  0  0  0
 15 16  1  0  0  0  0
 16 17  1  0  0  0  0
 17 18  1  0  0  0  0
 13 19  2  0  0  0  0
 19 20  1  0  0  0  0
 20 21  2  0  0  0  0
 21 22  1  0  0  0  0
 22 23  1  0  0  0  0
 23 24  1  0  0  0  0
 24 25  2  0  0  0  0
 24 26  1  0  0  0  0
 26 27  1  0  0  0  0
 27 28  1  0  0  0  0
 28 29  2  0  0  0  0
 28 30  1  0  0  0  0
 30 31  1  0  0  0  0
 31 32  1  0  0  0  0
 31 33  1  0  0  0  0
 31 34  1  0  0  0  0
 22 35  2  0  0  0  0
 35 36  1  0  0  0  0
 36 37  1  0  0  0  0
 37 38  1  0  0  0  0
 38 39  2  0  0  0  0
 39 40  1  0  0  0  0
 40 41  1  0  0  0  0
 41 42  1  0  0  0  0
 42 43  1  0  0  0  0
 21 44  1  0  0  0  0
 44 45  1  0  0  0  0
 45 46  1  0  0  0  0
 46 47  1  0  0  0  0
 44 48  2  0  0  0  0
  8  4  1  0  0  0  0
 15 11  1  0  0  0  0
 48 19  1  0  0  0  0
 38  6  1  0  0  0  0
 40 36  2  0  0  0  0
  1 49  1  0  0  0  0
  1 50  1  0  0  0  0
  1 51  1  0  0  0  0
  2 52  1  0  0  0  0
  2 53  1  0  0  0  0
  3 54  1  0  0  0  0
  3 55  1  0  0  0  0
  5 56  1  0  0  0  0
  9 57  1  0  0  0  0
 10 58  1  0  0  0  0
 12 59  1  0  0  0  0
 14 60  1  0  0  0  0
 16 61  1  0  0  0  0
 16 62  1  0  0  0  0
 17 63  1  0  0  0  0
 17 64  1  0  0  0  0
 18 65  1  0  0  0  0
 18 66  1  0  0  0  0
 18 67  1  0  0  0  0
 26 68  1  0  0  0  0
 26 69  1  0  0  0  0
 27 70  1  0  0  0  0
 32 71  1  0  0  0  0
 32 72  1  0  0  0  0
 32 73  1  0  0  0  0
 33 74  1  0  0  0  0
 33 75  1  0  0  0  0
 33 76  1  0  0  0  0
 34 77  1  0  0  0  0
 34 78  1  0  0  0  0
 34 79  1  0  0  0  0
 35 80  1  0  0  0  0
 37 81  1  0  0  0  0
 39 82  1  0  0  0  0
 41 83  1  0  0  0  0
 41 84  1  0  0  0  0
 42 85  1  0  0  0  0
 42 86  1  0  0  0  0
 43 87  1  0  0  0  0
 43 88  1  0  0  0  0
 43 89  1  0  0  0  0
 45 90  1  0  0  0  0
 45 91  1  0  0  0  0
 46 92  1  0  0  0  0
 46 93  1  0  0  0  0
 47 94  1  0  0  0  0
 47 95  1  0  0  0  0
 47 96  1  0  0  0  0
 48 97  1  0  0  0  0
M  END
