
  xtb     03012221263D
 energy: -14.192467640226 gnorm: 0.000074298341 xtb: 6.4.1 (afa7bdf)
 74 80  0     0  0            999 V2000
    7.2375   -2.2682    2.5719 C   0  0  0  0  0  0  0  0  0  0  0  0
    6.9394   -1.4009    1.3594 C   0  0  0  0  0  0  0  0  0  0  0  0
    6.3401   -2.1941    0.1974 C   0  0  0  0  0  0  0  0  0  0  0  0
    6.0001   -1.3273   -1.0216 C   0  0  0  0  0  0  0  0  0  0  0  0
    4.9749   -0.2633   -0.7294 C   0  0  0  0  0  0  0  0  0  0  0  0
    3.6370   -0.5666   -0.6546 C   0  0  0  0  0  0  0  0  0  0  0  0
    2.7031    0.4607   -0.3507 C   0  0  0  0  0  0  0  0  0  0  0  0
    3.0460    1.7101   -0.1005 N   0  0  0  0  0  0  0  0  0  0  0  0
    4.3644    2.0233   -0.1524 C   0  0  0  0  0  0  0  0  0  0  0  0
    4.7423    3.3545    0.1211 C   0  0  0  0  0  0  0  0  0  0  0  0
    6.0486    3.7398    0.0949 C   0  0  0  0  0  0  0  0  0  0  0  0
    7.0445    2.8101   -0.2060 C   0  0  0  0  0  0  0  0  0  0  0  0
    6.7152    1.5153   -0.4777 C   0  0  0  0  0  0  0  0  0  0  0  0
    5.3680    1.0794   -0.4634 C   0  0  0  0  0  0  0  0  0  0  0  0
    1.2705    0.1429   -0.3002 C   0  0  0  0  0  0  0  0  0  0  0  0
    0.3751    1.0604    0.2432 C   0  0  0  0  0  0  0  0  0  0  0  0
   -0.9801    0.8071    0.3074 C   0  0  0  0  0  0  0  0  0  0  0  0
   -1.4725   -0.4068   -0.1868 C   0  0  0  0  0  0  0  0  0  0  0  0
   -0.5795   -1.3161   -0.7481 C   0  0  0  0  0  0  0  0  0  0  0  0
    0.7756   -1.0625   -0.8133 C   0  0  0  0  0  0  0  0  0  0  0  0
    1.7169   -2.0427   -1.4454 C   0  0  0  0  0  0  0  0  0  0  0  0
    3.1252   -1.9764   -0.8273 C   0  0  0  0  0  0  0  0  0  0  0  0
   -2.9052   -0.7235   -0.1415 C   0  0  0  0  0  0  0  0  0  0  0  0
   -3.3073   -1.7551   -0.8603 N   0  0  0  0  0  0  0  0  0  0  0  0
   -4.6265   -2.0669   -0.8313 C   0  0  0  0  0  0  0  0  0  0  0  0
   -5.0726   -3.1646   -1.5965 C   0  0  0  0  0  0  0  0  0  0  0  0
   -6.3837   -3.5356   -1.6051 C   0  0  0  0  0  0  0  0  0  0  0  0
   -7.3160   -2.8279   -0.8448 C   0  0  0  0  0  0  0  0  0  0  0  0
   -6.9196   -1.7613   -0.0939 C   0  0  0  0  0  0  0  0  0  0  0  0
   -5.5675   -1.3440   -0.0673 C   0  0  0  0  0  0  0  0  0  0  0  0
   -5.1137   -0.2371    0.7020 C   0  0  0  0  0  0  0  0  0  0  0  0
   -6.1063    0.5646    1.5044 C   0  0  0  0  0  0  0  0  0  0  0  0
   -6.9628    1.5017    0.6370 C   0  0  0  0  0  0  0  0  0  0  0  0
   -6.1928    2.6932    0.0516 C   0  0  0  0  0  0  0  0  0  0  0  0
   -5.9613    3.8095    1.0600 C   0  0  0  0  0  0  0  0  0  0  0  0
   -3.7741    0.0678    0.6589 C   0  0  0  0  0  0  0  0  0  0  0  0
   -3.1844    1.1838    1.4853 C   0  0  0  0  0  0  0  0  0  0  0  0
   -1.9283    1.8235    0.8659 C   0  0  0  0  0  0  0  0  0  0  0  0
    7.6634   -1.6905    3.3952 H   0  0  0  0  0  0  0  0  0  0  0  0
    7.9464   -3.0608    2.3258 H   0  0  0  0  0  0  0  0  0  0  0  0
    6.3319   -2.7507    2.9439 H   0  0  0  0  0  0  0  0  0  0  0  0
    7.8541   -0.8961    1.0221 H   0  0  0  0  0  0  0  0  0  0  0  0
    6.2526   -0.5902    1.6364 H   0  0  0  0  0  0  0  0  0  0  0  0
    5.4368   -2.7083    0.5454 H   0  0  0  0  0  0  0  0  0  0  0  0
    7.0326   -2.9962   -0.0893 H   0  0  0  0  0  0  0  0  0  0  0  0
    6.9134   -0.8694   -1.4114 H   0  0  0  0  0  0  0  0  0  0  0  0
    5.6509   -1.9491   -1.8534 H   0  0  0  0  0  0  0  0  0  0  0  0
    3.9670    4.0630    0.3539 H   0  0  0  0  0  0  0  0  0  0  0  0
    6.3159    4.7620    0.3079 H   0  0  0  0  0  0  0  0  0  0  0  0
    8.0765    3.1202   -0.2215 H   0  0  0  0  0  0  0  0  0  0  0  0
    7.5023    0.8178   -0.6984 H   0  0  0  0  0  0  0  0  0  0  0  0
    0.7587    1.9935    0.6137 H   0  0  0  0  0  0  0  0  0  0  0  0
   -0.9667   -2.2366   -1.1452 H   0  0  0  0  0  0  0  0  0  0  0  0
    1.3028   -3.0548   -1.3562 H   0  0  0  0  0  0  0  0  0  0  0  0
    1.7714   -1.8354   -2.5203 H   0  0  0  0  0  0  0  0  0  0  0  0
    3.8201   -2.5645   -1.4357 H   0  0  0  0  0  0  0  0  0  0  0  0
    3.1120   -2.4605    0.1565 H   0  0  0  0  0  0  0  0  0  0  0  0
   -4.3463   -3.7060   -2.1766 H   0  0  0  0  0  0  0  0  0  0  0  0
   -6.7036   -4.3778   -2.1967 H   0  0  0  0  0  0  0  0  0  0  0  0
   -8.3506   -3.1294   -0.8523 H   0  0  0  0  0  0  0  0  0  0  0  0
   -7.6500   -1.2332    0.4928 H   0  0  0  0  0  0  0  0  0  0  0  0
   -5.5999    1.1330    2.2890 H   0  0  0  0  0  0  0  0  0  0  0  0
   -6.7463   -0.1325    2.0586 H   0  0  0  0  0  0  0  0  0  0  0  0
   -7.4050    0.9156   -0.1787 H   0  0  0  0  0  0  0  0  0  0  0  0
   -7.8164    1.8793    1.2146 H   0  0  0  0  0  0  0  0  0  0  0  0
   -5.2377    2.3392   -0.3576 H   0  0  0  0  0  0  0  0  0  0  0  0
   -6.7358    3.0980   -0.8143 H   0  0  0  0  0  0  0  0  0  0  0  0
   -6.9079    4.2333    1.4004 H   0  0  0  0  0  0  0  0  0  0  0  0
   -5.3712    4.6262    0.6383 H   0  0  0  0  0  0  0  0  0  0  0  0
   -5.4395    3.4544    1.9488 H   0  0  0  0  0  0  0  0  0  0  0  0
   -3.9342    1.9623    1.6493 H   0  0  0  0  0  0  0  0  0  0  0  0
   -2.9453    0.7882    2.4797 H   0  0  0  0  0  0  0  0  0  0  0  0
   -2.2181    2.5108    0.0625 H   0  0  0  0  0  0  0  0  0  0  0  0
   -1.4042    2.4380    1.6085 H   0  0  0  0  0  0  0  0  0  0  0  0
  1  2  1  0  0  0  0
  2  3  1  0  0  0  0
  3  4  1  0  0  0  0
  4  5  1  0  0  0  0
  5  6  2  0  0  0  0
  6  7  1  0  0  0  0
  7  8  2  0  0  0  0
  8  9  1  0  0  0  0
  9 10  2  0  0  0  0
 10 11  1  0  0  0  0
 11 12  2  0  0  0  0
 12 13  1  0  0  0  0
 13 14  2  0  0  0  0
  7 15  1  0  0  0  0
 15 16  2  0  0  0  0
 16 17  1  0  0  0  0
 17 18  2  0  0  0  0
 18 19  1  0  0  0  0
 19 20  2  0  0  0  0
 20 21  1  0  0  0  0
 21 22  1  0  0  0  0
 18 23  1  0  0  0  0
 23 24  2  0  0  0  0
 24 25  1  0  0  0  0
 25 26  2  0  0  0  0
 26 27  1  0  0  0  0
 27 28  2  0  0  0  0
 28 29  1  0  0  0  0
 29 30  2  0  0  0  0
 30 31  1  0  0  0  0
 31 32  1  0  0  0  0
 32 33  1  0  0  0  0
 33 34  1  0  0  0  0
 34 35  1  0  0  0  0
 31 36  2  0  0  0  0
 36 37  1  0  0  0  0
 37 38  1  0  0  0  0
 14  5  1  0  0  0  0
 20 15  1  0  0  0  0
 36 23  1  0  0  0  0
 22  6  1  0  0  0  0
 30 25  1  0  0  0  0
 14  9  1  0  0  0  0
 38 17  1  0  0  0  0
  1 39  1  0  0  0  0
  1 40  1  0  0  0  0
  1 41  1  0  0  0  0
  2 42  1  0  0  0  0
  2 43  1  0  0  0  0
  3 44  1  0  0  0  0
  3 45  1  0  0  0  0
  4 46  1  0  0  0  0
  4 47  1  0  0  0  0
 10 48  1  0  0  0  0
 11 49  1  0  0  0  0
 12 50  1  0  0  0  0
 13 51  1  0  0  0  0
 16 52  1  0  0  0  0
 19 53  1  0  0  0  0
 21 54  1  0  0  0  0
 21 55  1  0  0  0  0
 22 56  1  0  0  0  0
 22 57  1  0  0  0  0
 26 58  1  0  0  0  0
 27 59  1  0  0  0  0
 28 60  1  0  0  0  0
 29 61  1  0  0  0  0
 32 62  1  0  0  0  0
 32 63  1  0  0  0  0
 33 64  1  0  0  0  0
 33 65  1  0  0  0  0
 34 66  1  0  0  0  0
 34 67  1  0  0  0  0
 35 68  1  0  0  0  0
 35 69  1  0  0  0  0
 35 70  1  0  0  0  0
 37 71  1  0  0  0  0
 37 72  1  0  0  0  0
 38 73  1  0  0  0  0
 38 74  1  0  0  0  0
M  END
