
  xtb     03012221333D
 energy: -7.358396047432 gnorm: 0.000220058010 xtb: 6.4.1 (afa7bdf)
 32 37  0     0  0            999 V2000
   -2.9731    2.3739   -0.1880 C   0  0  0  0  0  0  0  0  0  0  0  0
   -3.5935    1.1476   -0.0595 C   0  0  0  0  0  0  0  0  0  0  0  0
   -2.8302   -0.0231    0.0435 C   0  0  0  0  0  0  0  0  0  0  0  0
   -3.3433   -1.3680    0.1819 C   0  0  0  0  0  0  0  0  0  0  0  0
   -2.5400   -2.4775    0.2783 C   0  0  0  0  0  0  0  0  0  0  0  0
   -1.1253   -2.3298    0.2434 C   0  0  0  0  0  0  0  0  0  0  0  0
    0.0383   -3.1215    0.3036 N   0  0  0  0  0  0  0  0  0  0  0  0
    1.1820   -2.3049    0.2074 C   0  0  0  0  0  0  0  0  0  0  0  0
    2.6000   -2.4224    0.1981 C   0  0  0  0  0  0  0  0  0  0  0  0
    3.3760   -1.2960    0.0770 C   0  0  0  0  0  0  0  0  0  0  0  0
    2.8302    0.0375   -0.0449 C   0  0  0  0  0  0  0  0  0  0  0  0
    3.5645    1.2243   -0.1712 C   0  0  0  0  0  0  0  0  0  0  0  0
    2.9142    2.4371   -0.2799 C   0  0  0  0  0  0  0  0  0  0  0  0
    1.5235    2.5415   -0.2698 C   0  0  0  0  0  0  0  0  0  0  0  0
    0.7273    1.4121   -0.1481 C   0  0  0  0  0  0  0  0  0  0  0  0
   -0.7615    1.3962   -0.1249 C   0  0  0  0  0  0  0  0  0  0  0  0
   -1.5852    2.5081   -0.2212 C   0  0  0  0  0  0  0  0  0  0  0  0
   -1.4360    0.1484    0.0065 C   0  0  0  0  0  0  0  0  0  0  0  0
   -0.6782   -1.0195    0.1092 C   0  0  0  0  0  0  0  0  0  0  0  0
    0.7030   -1.0046    0.0877 C   0  0  0  0  0  0  0  0  0  0  0  0
    1.4321    0.1792   -0.0383 C   0  0  0  0  0  0  0  0  0  0  0  0
   -3.5816    3.2600   -0.2654 H   0  0  0  0  0  0  0  0  0  0  0  0
   -4.6669    1.0768   -0.0370 H   0  0  0  0  0  0  0  0  0  0  0  0
   -4.4118   -1.4890    0.2093 H   0  0  0  0  0  0  0  0  0  0  0  0
   -2.9597   -3.4621    0.3804 H   0  0  0  0  0  0  0  0  0  0  0  0
    0.0500   -4.1368    0.4023 H   0  0  0  0  0  0  0  0  0  0  0  0
    3.0435   -3.3978    0.2866 H   0  0  0  0  0  0  0  0  0  0  0  0
    4.4472   -1.3940    0.0709 H   0  0  0  0  0  0  0  0  0  0  0  0
    4.6394    1.1766   -0.1823 H   0  0  0  0  0  0  0  0  0  0  0  0
    3.5010    3.3358   -0.3760 H   0  0  0  0  0  0  0  0  0  0  0  0
    1.0595    3.5077   -0.3572 H   0  0  0  0  0  0  0  0  0  0  0  0
   -1.1452    3.4841   -0.3227 H   0  0  0  0  0  0  0  0  0  0  0  0
  1  2  2  0  0  0  0
  2  3  1  0  0  0  0
  3  4  2  0  0  0  0
  4  5  1  0  0  0  0
  5  6  2  0  0  0  0
  6  7  1  0  0  0  0
  7  8  1  0  0  0  0
  8  9  2  0  0  0  0
  9 10  1  0  0  0  0
 10 11  2  0  0  0  0
 11 12  1  0  0  0  0
 12 13  2  0  0  0  0
 13 14  1  0  0  0  0
 14 15  2  0  0  0  0
 15 16  1  0  0  0  0
 16 17  2  0  0  0  0
 16 18  1  0  0  0  0
 18 19  2  0  0  0  0
 19 20  1  0  0  0  0
 20 21  2  0  0  0  0
 17  1  1  0  0  0  0
 18  3  1  0  0  0  0
 19  6  1  0  0  0  0
 20  8  1  0  0  0  0
 21 11  1  0  0  0  0
 21 15  1  0  0  0  0
  1 22  1  0  0  0  0
  2 23  1  0  0  0  0
  4 24  1  0  0  0  0
  5 25  1  0  0  0  0
  7 26  1  0  0  0  0
  9 27  1  0  0  0  0
 10 28  1  0  0  0  0
 12 29  1  0  0  0  0
 13 30  1  0  0  0  0
 14 31  1  0  0  0  0
 17 32  1  0  0  0  0
M  END
