
  xtb     03012221273D
 energy: -19.925091362478 gnorm: 0.000292053198 xtb: 6.4.1 (afa7bdf)
102110  0     0  0            999 V2000
    4.8488   -1.2647    5.6109 C   0  0  0  0  0  0  0  0  0  0  0  0
    4.7793   -0.8083    4.1956 C   0  0  0  0  0  0  0  0  0  0  0  0
    3.6822   -0.1043    3.7282 C   0  0  0  0  0  0  0  0  0  0  0  0
    3.6397    0.3376    2.4276 C   0  0  0  0  0  0  0  0  0  0  0  0
    4.6940    0.0950    1.5514 C   0  0  0  0  0  0  0  0  0  0  0  0
    5.8131   -0.6097    2.0042 C   0  0  0  0  0  0  0  0  0  0  0  0
    5.8320   -1.0404    3.3225 C   0  0  0  0  0  0  0  0  0  0  0  0
    7.0111   -0.9036    1.0914 C   0  0  0  0  0  0  0  0  0  0  0  0
    7.2328   -2.4294    1.0476 C   0  0  0  0  0  0  0  0  0  0  0  0
    8.2548   -0.2076    1.6784 C   0  0  0  0  0  0  0  0  0  0  0  0
    6.8029   -0.3989   -0.3427 C   0  0  0  0  0  0  0  0  0  0  0  0
    7.7829   -0.6220   -1.2988 C   0  0  0  0  0  0  0  0  0  0  0  0
    7.6550   -0.1876   -2.6100 C   0  0  0  0  0  0  0  0  0  0  0  0
    8.7410   -0.4236   -3.6004 C   0  0  0  0  0  0  0  0  0  0  0  0
    6.5112    0.5093   -2.9616 C   0  0  0  0  0  0  0  0  0  0  0  0
    5.5265    0.7469   -2.0330 C   0  0  0  0  0  0  0  0  0  0  0  0
    5.6528    0.2998   -0.7205 C   0  0  0  0  0  0  0  0  0  0  0  0
    4.6166    0.5723    0.2144 N   0  0  0  0  0  0  0  0  0  0  0  0
    3.4786    1.3630   -0.1976 C   0  0  0  0  0  0  0  0  0  0  0  0
    3.4690    2.7392   -0.0035 C   0  0  0  0  0  0  0  0  0  0  0  0
    2.3891    3.4790   -0.4233 C   0  0  0  0  0  0  0  0  0  0  0  0
    1.3205    2.8617   -1.0318 C   0  0  0  0  0  0  0  0  0  0  0  0
    1.2871    1.4892   -1.2356 C   0  0  0  0  0  0  0  0  0  0  0  0
    2.3846    0.7568   -0.8101 C   0  0  0  0  0  0  0  0  0  0  0  0
    0.0816    0.8240   -1.9331 C   0  0  0  0  0  0  0  0  0  0  0  0
    0.1615    1.0969   -3.4454 C   0  0  0  0  0  0  0  0  0  0  0  0
    0.1135   -0.7044   -1.7306 C   0  0  0  0  0  0  0  0  0  0  0  0
   -1.2322    1.4168   -1.3809 C   0  0  0  0  0  0  0  0  0  0  0  0
   -2.3271    0.6214   -1.0796 C   0  0  0  0  0  0  0  0  0  0  0  0
   -3.5163    1.1625   -0.5971 C   0  0  0  0  0  0  0  0  0  0  0  0
   -4.6442    0.3070   -0.3043 N   0  0  0  0  0  0  0  0  0  0  0  0
   -5.6456    0.1088   -1.2941 C   0  0  0  0  0  0  0  0  0  0  0  0
   -5.4844    0.6775   -2.5547 C   0  0  0  0  0  0  0  0  0  0  0  0
   -6.4350    0.5148   -3.5335 C   0  0  0  0  0  0  0  0  0  0  0  0
   -7.5837   -0.2167   -3.2825 C   0  0  0  0  0  0  0  0  0  0  0  0
   -8.6088   -0.4167   -4.3434 C   0  0  0  0  0  0  0  0  0  0  0  0
   -7.7358   -0.7921   -2.0294 C   0  0  0  0  0  0  0  0  0  0  0  0
   -6.7904   -0.6466   -1.0248 C   0  0  0  0  0  0  0  0  0  0  0  0
   -7.0260   -1.3032    0.3419 C   0  0  0  0  0  0  0  0  0  0  0  0
   -8.3089   -0.7077    0.9547 C   0  0  0  0  0  0  0  0  0  0  0  0
   -7.1971   -2.8218    0.1346 C   0  0  0  0  0  0  0  0  0  0  0  0
   -5.8663   -1.0717    1.3199 C   0  0  0  0  0  0  0  0  0  0  0  0
   -5.9177   -1.6273    2.5898 C   0  0  0  0  0  0  0  0  0  0  0  0
   -4.9025   -1.4535    3.5191 C   0  0  0  0  0  0  0  0  0  0  0  0
   -5.0085   -2.0439    4.8815 C   0  0  0  0  0  0  0  0  0  0  0  0
   -3.8104   -0.6809    3.1609 C   0  0  0  0  0  0  0  0  0  0  0  0
   -3.7359   -0.1163    1.9102 C   0  0  0  0  0  0  0  0  0  0  0  0
   -4.7518   -0.3011    0.9764 C   0  0  0  0  0  0  0  0  0  0  0  0
   -3.6087    2.5368   -0.4117 C   0  0  0  0  0  0  0  0  0  0  0  0
   -2.5324    3.3384   -0.7093 C   0  0  0  0  0  0  0  0  0  0  0  0
   -1.3672    2.7846   -1.1878 C   0  0  0  0  0  0  0  0  0  0  0  0
   -0.0292    3.9148   -1.5507 S   0  0  0  0  0  6  0  0  0  0  0  0
   -0.1181    5.0778   -0.5837 O   0  0  0  0  0  0  0  0  0  0  0  0
    0.0517    4.1174   -3.0475 O   0  0  0  0  0  0  0  0  0  0  0  0
    3.8534   -1.4630    6.0102 H   0  0  0  0  0  0  0  0  0  0  0  0
    5.4297   -2.1837    5.6998 H   0  0  0  0  0  0  0  0  0  0  0  0
    5.3189   -0.5073    6.2393 H   0  0  0  0  0  0  0  0  0  0  0  0
    2.8616    0.0970    4.3971 H   0  0  0  0  0  0  0  0  0  0  0  0
    2.7832    0.8818    2.0731 H   0  0  0  0  0  0  0  0  0  0  0  0
    6.6916   -1.5708    3.6926 H   0  0  0  0  0  0  0  0  0  0  0  0
    7.4112   -2.8345    2.0422 H   0  0  0  0  0  0  0  0  0  0  0  0
    6.3566   -2.9271    0.6339 H   0  0  0  0  0  0  0  0  0  0  0  0
    8.0903   -2.6895    0.4293 H   0  0  0  0  0  0  0  0  0  0  0  0
    8.1042    0.8708    1.7111 H   0  0  0  0  0  0  0  0  0  0  0  0
    9.1405   -0.4052    1.0768 H   0  0  0  0  0  0  0  0  0  0  0  0
    8.4591   -0.5495    2.6917 H   0  0  0  0  0  0  0  0  0  0  0  0
    8.6810   -1.1455   -1.0223 H   0  0  0  0  0  0  0  0  0  0  0  0
    9.2686   -1.3551   -3.3915 H   0  0  0  0  0  0  0  0  0  0  0  0
    9.4690    0.3882   -3.5773 H   0  0  0  0  0  0  0  0  0  0  0  0
    8.3426   -0.4895   -4.6137 H   0  0  0  0  0  0  0  0  0  0  0  0
    6.4024    0.8676   -3.9721 H   0  0  0  0  0  0  0  0  0  0  0  0
    4.6426    1.2893   -2.3155 H   0  0  0  0  0  0  0  0  0  0  0  0
    4.3133    3.2086    0.4699 H   0  0  0  0  0  0  0  0  0  0  0  0
    2.3618    4.5469   -0.2799 H   0  0  0  0  0  0  0  0  0  0  0  0
    2.4224   -0.3072   -0.9459 H   0  0  0  0  0  0  0  0  0  0  0  0
    0.1434    2.1644   -3.6533 H   0  0  0  0  0  0  0  0  0  0  0  0
    1.0815    0.6911   -3.8633 H   0  0  0  0  0  0  0  0  0  0  0  0
   -0.6802    0.6418   -3.9654 H   0  0  0  0  0  0  0  0  0  0  0  0
    0.0586   -0.9589   -0.6730 H   0  0  0  0  0  0  0  0  0  0  0  0
    1.0233   -1.1369   -2.1434 H   0  0  0  0  0  0  0  0  0  0  0  0
   -0.7153   -1.1863   -2.2462 H   0  0  0  0  0  0  0  0  0  0  0  0
   -2.2879   -0.4427   -1.2142 H   0  0  0  0  0  0  0  0  0  0  0  0
   -4.5982    1.2510   -2.7575 H   0  0  0  0  0  0  0  0  0  0  0  0
   -6.2942    0.9571   -4.5060 H   0  0  0  0  0  0  0  0  0  0  0  0
   -8.6387    0.4328   -5.0268 H   0  0  0  0  0  0  0  0  0  0  0  0
   -8.3917   -1.3116   -4.9279 H   0  0  0  0  0  0  0  0  0  0  0  0
   -9.6045   -0.5294   -3.9125 H   0  0  0  0  0  0  0  0  0  0  0  0
   -8.6240   -1.3684   -1.8392 H   0  0  0  0  0  0  0  0  0  0  0  0
   -8.1938    0.3653    1.1038 H   0  0  0  0  0  0  0  0  0  0  0  0
   -8.5341   -1.1589    1.9197 H   0  0  0  0  0  0  0  0  0  0  0  0
   -9.1688   -0.8666    0.3060 H   0  0  0  0  0  0  0  0  0  0  0  0
   -6.2927   -3.2490   -0.2970 H   0  0  0  0  0  0  0  0  0  0  0  0
   -7.3937   -3.3321    1.0760 H   0  0  0  0  0  0  0  0  0  0  0  0
   -8.0258   -3.0412   -0.5365 H   0  0  0  0  0  0  0  0  0  0  0  0
   -6.7739   -2.2122    2.8762 H   0  0  0  0  0  0  0  0  0  0  0  0
   -5.5413   -1.3711    5.5546 H   0  0  0  0  0  0  0  0  0  0  0  0
   -4.0222   -2.2339    5.3068 H   0  0  0  0  0  0  0  0  0  0  0  0
   -5.5466   -2.9925    4.8582 H   0  0  0  0  0  0  0  0  0  0  0  0
   -3.0194   -0.5235    3.8756 H   0  0  0  0  0  0  0  0  0  0  0  0
   -2.8845    0.4822    1.6415 H   0  0  0  0  0  0  0  0  0  0  0  0
   -4.5265    2.9555   -0.0383 H   0  0  0  0  0  0  0  0  0  0  0  0
   -2.5829    4.4058   -0.5684 H   0  0  0  0  0  0  0  0  0  0  0  0
  1  2  1  0  0  0  0
  2  3  2  0  0  0  0
  3  4  1  0  0  0  0
  4  5  2  0  0  0  0
  5  6  1  0  0  0  0
  6  7  2  0  0  0  0
  6  8  1  0  0  0  0
  8  9  1  0  0  0  0
  8 10  1  0  0  0  0
  8 11  1  0  0  0  0
 11 12  2  0  0  0  0
 12 13  1  0  0  0  0
 13 14  1  0  0  0  0
 13 15  2  0  0  0  0
 15 16  1  0  0  0  0
 16 17  2  0  0  0  0
 17 18  1  0  0  0  0
 18 19  1  0  0  0  0
 19 20  2  0  0  0  0
 20 21  1  0  0  0  0
 21 22  2  0  0  0  0
 22 23  1  0  0  0  0
 23 24  2  0  0  0  0
 23 25  1  0  0  0  0
 25 26  1  0  0  0  0
 25 27  1  0  0  0  0
 25 28  1  0  0  0  0
 28 29  2  0  0  0  0
 29 30  1  0  0  0  0
 30 31  1  0  0  0  0
 31 32  1  0  0  0  0
 32 33  2  0  0  0  0
 33 34  1  0  0  0  0
 34 35  2  0  0  0  0
 35 36  1  0  0  0  0
 35 37  1  0  0  0  0
 37 38  2  0  0  0  0
 38 39  1  0  0  0  0
 39 40  1  0  0  0  0
 39 41  1  0  0  0  0
 39 42  1  0  0  0  0
 42 43  2  0  0  0  0
 43 44  1  0  0  0  0
 44 45  1  0  0  0  0
 44 46  2  0  0  0  0
 46 47  1  0  0  0  0
 47 48  2  0  0  0  0
 30 49  2  0  0  0  0
 49 50  1  0  0  0  0
 50 51  2  0  0  0  0
 51 52  1  0  0  0  0
 52 53  2  0  0  0  0
 52 54  2  0  0  0  0
  7  2  1  0  0  0  0
 17 11  1  0  0  0  0
 24 19  1  0  0  0  0
 51 28  1  0  0  0  0
 18  5  1  0  0  0  0
 52 22  1  0  0  0  0
 48 31  1  0  0  0  0
 38 32  1  0  0  0  0
 48 42  1  0  0  0  0
  1 55  1  0  0  0  0
  1 56  1  0  0  0  0
  1 57  1  0  0  0  0
  3 58  1  0  0  0  0
  4 59  1  0  0  0  0
  7 60  1  0  0  0  0
  9 61  1  0  0  0  0
  9 62  1  0  0  0  0
  9 63  1  0  0  0  0
 10 64  1  0  0  0  0
 10 65  1  0  0  0  0
 10 66  1  0  0  0  0
 12 67  1  0  0  0  0
 14 68  1  0  0  0  0
 14 69  1  0  0  0  0
 14 70  1  0  0  0  0
 15 71  1  0  0  0  0
 16 72  1  0  0  0  0
 20 73  1  0  0  0  0
 21 74  1  0  0  0  0
 24 75  1  0  0  0  0
 26 76  1  0  0  0  0
 26 77  1  0  0  0  0
 26 78  1  0  0  0  0
 27 79  1  0  0  0  0
 27 80  1  0  0  0  0
 27 81  1  0  0  0  0
 29 82  1  0  0  0  0
 33 83  1  0  0  0  0
 34 84  1  0  0  0  0
 36 85  1  0  0  0  0
 36 86  1  0  0  0  0
 36 87  1  0  0  0  0
 37 88  1  0  0  0  0
 40 89  1  0  0  0  0
 40 90  1  0  0  0  0
 40 91  1  0  0  0  0
 41 92  1  0  0  0  0
 41 93  1  0  0  0  0
 41 94  1  0  0  0  0
 43 95  1  0  0  0  0
 45 96  1  0  0  0  0
 45 97  1  0  0  0  0
 45 98  1  0  0  0  0
 46 99  1  0  0  0  0
 47100  1  0  0  0  0
 49101  1  0  0  0  0
 50102  1  0  0  0  0
M  END
