
  xtb     03012221333D
 energy: -11.811299468678 gnorm: 0.000217995665 xtb: 6.4.1 (afa7bdf)
 62 66  0     0  0            999 V2000
   -1.8252   -1.3595    2.8387 O   0  0  0  0  0  1  0  0  0  0  0  0
   -2.5310   -0.9761    1.8612 N   0  0  0  0  0  4  0  0  0  0  0  0
   -1.9205   -0.4909    0.6957 C   0  0  0  0  0  0  0  0  0  0  0  0
   -0.5044   -0.4636    0.6753 C   0  0  0  0  0  0  0  0  0  0  0  0
    0.2003   -0.0128   -0.3853 C   0  0  0  0  0  0  0  0  0  0  0  0
    1.6348    0.0547   -0.4769 C   0  0  0  0  0  0  0  0  0  0  0  0
    2.4762   -0.3554    0.5653 C   0  0  0  0  0  0  0  0  0  0  0  0
    3.8399   -0.2725    0.4477 C   0  0  0  0  0  0  0  0  0  0  0  0
    4.4370    0.2245   -0.7172 C   0  0  0  0  0  0  0  0  0  0  0  0
    5.8717    0.3319   -0.8770 C   0  0  0  0  0  0  0  0  0  0  0  0
    6.7899   -0.0325    0.0383 C   0  0  0  0  0  0  0  0  0  0  0  0
    8.2295    0.0799   -0.1188 C   0  0  0  0  0  0  0  0  0  0  0  0
    8.8245    0.6283   -1.2591 C   0  0  0  0  0  0  0  0  0  0  0  0
   10.1948    0.7182   -1.3674 C   0  0  0  0  0  0  0  0  0  0  0  0
   11.0043    0.2651   -0.3446 C   0  0  0  0  0  0  0  0  0  0  0  0
   10.4383   -0.2795    0.7908 C   0  0  0  0  0  0  0  0  0  0  0  0
    9.0691   -0.3712    0.9040 C   0  0  0  0  0  0  0  0  0  0  0  0
    3.5951    0.6327   -1.7585 C   0  0  0  0  0  0  0  0  0  0  0  0
    2.2320    0.5504   -1.6425 C   0  0  0  0  0  0  0  0  0  0  0  0
   -2.6065   -0.0636   -0.3587 N   0  0  0  0  0  0  0  0  0  0  0  0
   -3.9412   -0.0836   -0.2772 C   0  0  0  0  0  0  0  0  0  0  0  0
   -4.6504    0.4371   -1.3878 N   0  0  0  0  0  0  0  0  0  0  0  0
   -5.7407    1.4422   -1.2374 C   0  0  0  0  0  0  0  0  0  0  0  0
   -5.5099    2.6313   -2.1734 C   0  0  0  0  0  0  0  0  0  0  0  0
   -5.4751    2.2417   -3.5538 O   0  0  0  0  0  0  0  0  0  0  0  0
   -4.9174    0.9373   -3.7853 C   0  0  0  0  0  0  0  0  0  0  0  0
   -3.9454    0.5189   -2.6818 C   0  0  0  0  0  0  0  0  0  0  0  0
   -4.6383   -0.6032    0.8441 C   0  0  0  0  0  0  0  0  0  0  0  0
   -3.9180   -1.0411    1.9211 C   0  0  0  0  0  0  0  0  0  0  0  0
   -4.5208   -1.6373    3.1531 C   0  0  0  0  0  0  0  0  0  0  0  0
   -6.0576   -1.5841    3.1921 C   0  0  0  0  0  0  0  0  0  0  0  0
   -6.6548   -1.8103    1.7982 C   0  0  0  0  0  0  0  0  0  0  0  0
   -6.1350   -0.7538    0.8101 C   0  0  0  0  0  0  0  0  0  0  0  0
   -0.0018   -0.8178    1.5555 H   0  0  0  0  0  0  0  0  0  0  0  0
   -0.3617    0.3302   -1.2359 H   0  0  0  0  0  0  0  0  0  0  0  0
    2.0474   -0.7401    1.4730 H   0  0  0  0  0  0  0  0  0  0  0  0
    4.4576   -0.5937    1.2671 H   0  0  0  0  0  0  0  0  0  0  0  0
    6.2118    0.7377   -1.8120 H   0  0  0  0  0  0  0  0  0  0  0  0
    6.4503   -0.4450    0.9699 H   0  0  0  0  0  0  0  0  0  0  0  0
    8.2082    0.9885   -2.0631 H   0  0  0  0  0  0  0  0  0  0  0  0
   10.6374    1.1442   -2.2528 H   0  0  0  0  0  0  0  0  0  0  0  0
   12.0762    0.3369   -0.4322 H   0  0  0  0  0  0  0  0  0  0  0  0
   11.0693   -0.6331    1.5895 H   0  0  0  0  0  0  0  0  0  0  0  0
    8.6306   -0.7965    1.7907 H   0  0  0  0  0  0  0  0  0  0  0  0
    4.0341    1.0179   -2.6631 H   0  0  0  0  0  0  0  0  0  0  0  0
    1.6028    0.8708   -2.4551 H   0  0  0  0  0  0  0  0  0  0  0  0
   -5.7821    1.7721   -0.1949 H   0  0  0  0  0  0  0  0  0  0  0  0
   -6.6929    0.9591   -1.4721 H   0  0  0  0  0  0  0  0  0  0  0  0
   -6.2921    3.3926   -2.0660 H   0  0  0  0  0  0  0  0  0  0  0  0
   -4.5534    3.1173   -1.9524 H   0  0  0  0  0  0  0  0  0  0  0  0
   -5.7581    0.2376   -3.8406 H   0  0  0  0  0  0  0  0  0  0  0  0
   -4.4374    0.9512   -4.7710 H   0  0  0  0  0  0  0  0  0  0  0  0
   -3.1380    1.2496   -2.5819 H   0  0  0  0  0  0  0  0  0  0  0  0
   -3.4776   -0.4491   -2.8911 H   0  0  0  0  0  0  0  0  0  0  0  0
   -4.0914   -1.1292    4.0253 H   0  0  0  0  0  0  0  0  0  0  0  0
   -4.1804   -2.6766    3.2282 H   0  0  0  0  0  0  0  0  0  0  0  0
   -6.3791   -0.6040    3.5668 H   0  0  0  0  0  0  0  0  0  0  0  0
   -6.4549   -2.3168    3.9086 H   0  0  0  0  0  0  0  0  0  0  0  0
   -6.3756   -2.8092    1.4415 H   0  0  0  0  0  0  0  0  0  0  0  0
   -7.7529   -1.8055    1.8369 H   0  0  0  0  0  0  0  0  0  0  0  0
   -6.4443   -1.0042   -0.2121 H   0  0  0  0  0  0  0  0  0  0  0  0
   -6.5972    0.2119    1.0422 H   0  0  0  0  0  0  0  0  0  0  0  0
  1  2  1  0  0  0  0
  2  3  2  0  0  0  0
  3  4  1  0  0  0  0
  4  5  2  0  0  0  0
  5  6  1  0  0  0  0
  6  7  2  0  0  0  0
  7  8  1  0  0  0  0
  8  9  2  0  0  0  0
  9 10  1  0  0  0  0
 10 11  2  0  0  0  0
 11 12  1  0  0  0  0
 12 13  2  0  0  0  0
 13 14  1  0  0  0  0
 14 15  2  0  0  0  0
 15 16  1  0  0  0  0
 16 17  2  0  0  0  0
  9 18  1  0  0  0  0
 18 19  2  0  0  0  0
  3 20  1  0  0  0  0
 20 21  2  0  0  0  0
 21 22  1  0  0  0  0
 22 23  1  0  0  0  0
 23 24  1  0  0  0  0
 24 25  1  0  0  0  0
 25 26  1  0  0  0  0
 26 27  1  0  0  0  0
 21 28  1  0  0  0  0
 28 29  2  0  0  0  0
 29 30  1  0  0  0  0
 30 31  1  0  0  0  0
 31 32  1  0  0  0  0
 32 33  1  0  0  0  0
 29  2  1  0  0  0  0
 19  6  1  0  0  0  0
 27 22  1  0  0  0  0
 33 28  1  0  0  0  0
 17 12  1  0  0  0  0
  4 34  1  0  0  0  0
  5 35  1  0  0  0  0
  7 36  1  0  0  0  0
  8 37  1  0  0  0  0
 10 38  1  0  0  0  0
 11 39  1  0  0  0  0
 13 40  1  0  0  0  0
 14 41  1  0  0  0  0
 15 42  1  0  0  0  0
 16 43  1  0  0  0  0
 17 44  1  0  0  0  0
 18 45  1  0  0  0  0
 19 46  1  0  0  0  0
 23 47  1  0  0  0  0
 23 48  1  0  0  0  0
 24 49  1  0  0  0  0
 24 50  1  0  0  0  0
 26 51  1  0  0  0  0
 26 52  1  0  0  0  0
 27 53  1  0  0  0  0
 27 54  1  0  0  0  0
 30 55  1  0  0  0  0
 30 56  1  0  0  0  0
 31 57  1  0  0  0  0
 31 58  1  0  0  0  0
 32 59  1  0  0  0  0
 32 60  1  0  0  0  0
 33 61  1  0  0  0  0
 33 62  1  0  0  0  0
M  CHG  1   1  -1
M  CHG  1   2   1
M  END
