
  xtb     03012221253D
 energy: -12.314816312280 gnorm: 0.000163655949 xtb: 6.4.1 (afa7bdf)
 64 68  0     0  0            999 V2000
   -6.3477   -3.7138   -1.4712 C   0  0  0  0  0  0  0  0  0  0  0  0
   -6.0417   -2.6028   -0.4807 C   0  0  0  0  0  0  0  0  0  0  0  0
   -4.7819   -1.8178   -0.8443 C   0  0  0  0  0  0  0  0  0  0  0  0
   -4.4653   -0.7054    0.1461 C   0  0  0  0  0  0  0  0  0  0  0  0
   -3.2228    0.0122   -0.1997 N   0  0  0  0  0  0  0  0  0  0  0  0
   -3.4340    1.3165   -0.8598 C   0  0  0  0  0  0  0  0  0  0  0  0
   -3.6420    2.4462    0.1434 C   0  0  0  0  0  0  0  0  0  0  0  0
   -2.4490    2.6573    1.0735 C   0  0  0  0  0  0  0  0  0  0  0  0
   -2.6936    3.7427    2.1084 C   0  0  0  0  0  0  0  0  0  0  0  0
   -1.9553   -0.5141    0.0889 C   0  0  0  0  0  0  0  0  0  0  0  0
   -1.8162   -1.7481    0.7599 C   0  0  0  0  0  0  0  0  0  0  0  0
   -0.5881   -2.2544    1.0629 C   0  0  0  0  0  0  0  0  0  0  0  0
    0.5907   -1.5679    0.7237 C   0  0  0  0  0  0  0  0  0  0  0  0
    1.7904   -2.0936    1.0491 N   0  0  0  0  0  0  0  0  0  0  0  0
    2.8613   -1.3971    0.7110 C   0  0  0  0  0  0  0  0  0  0  0  0
    4.1503   -1.9463    1.0708 C   0  0  0  0  0  0  0  0  0  0  0  0
    4.2450   -3.1673    1.7413 C   0  0  0  0  0  0  0  0  0  0  0  0
    5.4660   -3.6895    2.0863 C   0  0  0  0  0  0  0  0  0  0  0  0
    6.6274   -3.0025    1.7693 C   0  0  0  0  0  0  0  0  0  0  0  0
    6.5546   -1.7992    1.1102 C   0  0  0  0  0  0  0  0  0  0  0  0
    5.3261   -1.2557    0.7537 C   0  0  0  0  0  0  0  0  0  0  0  0
    5.2686    0.0270    0.0502 C   0  0  0  0  0  0  0  0  0  0  0  0
    6.3274    0.5952   -0.2084 O   0  0  0  0  0  0  0  0  0  0  0  0
    3.9782    0.5695   -0.3180 C   0  0  0  0  0  0  0  0  0  0  0  0
    3.9077    1.8455   -1.0324 C   0  0  0  0  0  0  0  0  0  0  0  0
    5.0029    2.7146   -1.0839 C   0  0  0  0  0  0  0  0  0  0  0  0
    4.9471    3.9167   -1.7497 C   0  0  0  0  0  0  0  0  0  0  0  0
    3.7907    4.2942   -2.3995 C   0  0  0  0  0  0  0  0  0  0  0  0
    2.6937    3.4585   -2.3766 C   0  0  0  0  0  0  0  0  0  0  0  0
    2.7530    2.2599   -1.7047 C   0  0  0  0  0  0  0  0  0  0  0  0
    2.8030   -0.1428    0.0227 C   0  0  0  0  0  0  0  0  0  0  0  0
    1.5854    0.3856   -0.2998 O   0  0  0  0  0  0  0  0  0  0  0  0
    0.4726   -0.3332    0.0504 C   0  0  0  0  0  0  0  0  0  0  0  0
   -0.7926    0.1609   -0.2571 C   0  0  0  0  0  0  0  0  0  0  0  0
   -6.4954   -3.3162   -2.4774 H   0  0  0  0  0  0  0  0  0  0  0  0
   -5.5261   -4.4308   -1.5264 H   0  0  0  0  0  0  0  0  0  0  0  0
   -7.2498   -4.2681   -1.2013 H   0  0  0  0  0  0  0  0  0  0  0  0
   -6.8923   -1.9117   -0.4117 H   0  0  0  0  0  0  0  0  0  0  0  0
   -5.9306   -3.0176    0.5301 H   0  0  0  0  0  0  0  0  0  0  0  0
   -3.9282   -2.5009   -0.9180 H   0  0  0  0  0  0  0  0  0  0  0  0
   -4.8858   -1.3919   -1.8492 H   0  0  0  0  0  0  0  0  0  0  0  0
   -4.3794   -1.0942    1.1635 H   0  0  0  0  0  0  0  0  0  0  0  0
   -5.2902    0.0113    0.1818 H   0  0  0  0  0  0  0  0  0  0  0  0
   -4.2999    1.2224   -1.5224 H   0  0  0  0  0  0  0  0  0  0  0  0
   -2.5926    1.5308   -1.5208 H   0  0  0  0  0  0  0  0  0  0  0  0
   -4.5308    2.2327    0.7485 H   0  0  0  0  0  0  0  0  0  0  0  0
   -3.8674    3.3838   -0.3801 H   0  0  0  0  0  0  0  0  0  0  0  0
   -2.2089    1.7096    1.5730 H   0  0  0  0  0  0  0  0  0  0  0  0
   -1.5598    2.9005    0.4776 H   0  0  0  0  0  0  0  0  0  0  0  0
   -1.8324    3.8839    2.7659 H   0  0  0  0  0  0  0  0  0  0  0  0
   -2.9040    4.7024    1.6322 H   0  0  0  0  0  0  0  0  0  0  0  0
   -3.5517    3.5011    2.7389 H   0  0  0  0  0  0  0  0  0  0  0  0
   -2.6949   -2.3006    1.0402 H   0  0  0  0  0  0  0  0  0  0  0  0
   -0.4954   -3.1953    1.5756 H   0  0  0  0  0  0  0  0  0  0  0  0
    3.3370   -3.6918    1.9827 H   0  0  0  0  0  0  0  0  0  0  0  0
    5.5229   -4.6329    2.6033 H   0  0  0  0  0  0  0  0  0  0  0  0
    7.5865   -3.4124    2.0396 H   0  0  0  0  0  0  0  0  0  0  0  0
    7.4467   -1.2533    0.8558 H   0  0  0  0  0  0  0  0  0  0  0  0
    5.9148    2.4238   -0.5958 H   0  0  0  0  0  0  0  0  0  0  0  0
    5.8098    4.5619   -1.7688 H   0  0  0  0  0  0  0  0  0  0  0  0
    3.7456    5.2345   -2.9241 H   0  0  0  0  0  0  0  0  0  0  0  0
    1.7880    3.7469   -2.8841 H   0  0  0  0  0  0  0  0  0  0  0  0
    1.8903    1.6217   -1.6964 H   0  0  0  0  0  0  0  0  0  0  0  0
   -0.8378    1.0989   -0.7724 H   0  0  0  0  0  0  0  0  0  0  0  0
  1  2  1  0  0  0  0
  2  3  1  0  0  0  0
  3  4  1  0  0  0  0
  4  5  1  0  0  0  0
  5  6  1  0  0  0  0
  6  7  1  0  0  0  0
  7  8  1  0  0  0  0
  8  9  1  0  0  0  0
  5 10  1  0  0  0  0
 10 11  2  0  0  0  0
 11 12  1  0  0  0  0
 12 13  2  0  0  0  0
 13 14  1  0  0  0  0
 14 15  2  0  0  0  0
 15 16  1  0  0  0  0
 16 17  2  0  0  0  0
 17 18  1  0  0  0  0
 18 19  2  0  0  0  0
 19 20  1  0  0  0  0
 20 21  2  0  0  0  0
 21 22  1  0  0  0  0
 22 23  2  0  0  0  0
 22 24  1  0  0  0  0
 24 25  1  0  0  0  0
 25 26  2  0  0  0  0
 26 27  1  0  0  0  0
 27 28  2  0  0  0  0
 28 29  1  0  0  0  0
 29 30  2  0  0  0  0
 24 31  2  0  0  0  0
 31 32  1  0  0  0  0
 32 33  1  0  0  0  0
 33 34  2  0  0  0  0
 34 10  1  0  0  0  0
 33 13  1  0  0  0  0
 31 15  1  0  0  0  0
 21 16  1  0  0  0  0
 30 25  1  0  0  0  0
  1 35  1  0  0  0  0
  1 36  1  0  0  0  0
  1 37  1  0  0  0  0
  2 38  1  0  0  0  0
  2 39  1  0  0  0  0
  3 40  1  0  0  0  0
  3 41  1  0  0  0  0
  4 42  1  0  0  0  0
  4 43  1  0  0  0  0
  6 44  1  0  0  0  0
  6 45  1  0  0  0  0
  7 46  1  0  0  0  0
  7 47  1  0  0  0  0
  8 48  1  0  0  0  0
  8 49  1  0  0  0  0
  9 50  1  0  0  0  0
  9 51  1  0  0  0  0
  9 52  1  0  0  0  0
 11 53  1  0  0  0  0
 12 54  1  0  0  0  0
 17 55  1  0  0  0  0
 18 56  1  0  0  0  0
 19 57  1  0  0  0  0
 20 58  1  0  0  0  0
 26 59  1  0  0  0  0
 27 60  1  0  0  0  0
 28 61  1  0  0  0  0
 29 62  1  0  0  0  0
 30 63  1  0  0  0  0
 34 64  1  0  0  0  0
M  END
