
  xtb     03012221293D
 energy: -5.125970139020 gnorm: 0.000293926534 xtb: 6.4.1 (afa7bdf)
 29 29  0     0  0            999 V2000
    4.9843    0.7292   -0.6583 C   0  0  0  0  0  0  0  0  0  0  0  0
    4.3990    0.2462    0.6514 C   0  0  0  0  0  0  0  0  0  0  0  0
    3.0081    0.4563    0.7357 O   0  0  0  0  0  0  0  0  0  0  0  0
    2.3412   -0.4178   -0.0825 C   0  0  0  0  0  0  0  0  0  0  0  0
    2.8915   -1.2467   -0.7863 O   0  0  0  0  0  0  0  0  0  0  0  0
    0.8681   -0.3159   -0.0845 C   0  0  0  0  0  0  0  0  0  0  0  0
    0.2189    0.6226    0.7072 C   0  0  0  0  0  0  0  0  0  0  0  0
   -1.1504    0.7126    0.7046 C   0  0  0  0  0  0  0  0  0  0  0  0
   -1.9265   -0.1365   -0.0931 C   0  0  0  0  0  0  0  0  0  0  0  0
   -3.3291   -0.0477   -0.0957 N   0  0  0  0  0  0  0  0  0  0  0  0
   -4.1497   -0.9331   -0.9212 C   0  0  0  0  0  0  0  0  0  0  0  0
   -4.0349    0.9284    0.7336 C   0  0  0  0  0  0  0  0  0  0  0  0
   -1.2606   -1.0775   -0.8872 C   0  0  0  0  0  0  0  0  0  0  0  0
    0.1089   -1.1629   -0.8809 C   0  0  0  0  0  0  0  0  0  0  0  0
    4.7872    1.7919   -0.8004 H   0  0  0  0  0  0  0  0  0  0  0  0
    6.0629    0.5716   -0.7118 H   0  0  0  0  0  0  0  0  0  0  0  0
    4.5237    0.1991   -1.4930 H   0  0  0  0  0  0  0  0  0  0  0  0
    4.5714   -0.8293    0.7968 H   0  0  0  0  0  0  0  0  0  0  0  0
    4.8531    0.7623    1.5074 H   0  0  0  0  0  0  0  0  0  0  0  0
    0.8127    1.2763    1.3227 H   0  0  0  0  0  0  0  0  0  0  0  0
   -1.6347    1.4451    1.3248 H   0  0  0  0  0  0  0  0  0  0  0  0
   -5.2086   -0.7182   -0.7964 H   0  0  0  0  0  0  0  0  0  0  0  0
   -3.8984   -0.8022   -1.9716 H   0  0  0  0  0  0  0  0  0  0  0  0
   -3.9779   -1.9698   -0.6394 H   0  0  0  0  0  0  0  0  0  0  0  0
   -5.1119    0.8486    0.6053 H   0  0  0  0  0  0  0  0  0  0  0  0
   -3.7341    1.9374    0.4592 H   0  0  0  0  0  0  0  0  0  0  0  0
   -3.8047    0.7604    1.7837 H   0  0  0  0  0  0  0  0  0  0  0  0
   -1.8306   -1.7428   -1.5104 H   0  0  0  0  0  0  0  0  0  0  0  0
    0.6210   -1.8876   -1.4909 H   0  0  0  0  0  0  0  0  0  0  0  0
  1  2  1  0  0  0  0
  2  3  1  0  0  0  0
  3  4  1  0  0  0  0
  4  5  2  0  0  0  0
  4  6  1  0  0  0  0
  6  7  2  0  0  0  0
  7  8  1  0  0  0  0
  8  9  2  0  0  0  0
  9 10  1  0  0  0  0
 10 11  1  0  0  0  0
 10 12  1  0  0  0  0
  9 13  1  0  0  0  0
 13 14  2  0  0  0  0
 14  6  1  0  0  0  0
  1 15  1  0  0  0  0
  1 16  1  0  0  0  0
  1 17  1  0  0  0  0
  2 18  1  0  0  0  0
  2 19  1  0  0  0  0
  7 20  1  0  0  0  0
  8 21  1  0  0  0  0
 11 22  1  0  0  0  0
 11 23  1  0  0  0  0
 11 24  1  0  0  0  0
 12 25  1  0  0  0  0
 12 26  1  0  0  0  0
 12 27  1  0  0  0  0
 13 28  1  0  0  0  0
 14 29  1  0  0  0  0
M  END
