
  xtb     03012221293D
 energy: -4.635089115362 gnorm: 0.000243566155 xtb: 6.4.1 (afa7bdf)
 21 23  0     0  0            999 V2000
    0.1675    3.6855   -0.0125 O   0  0  0  0  0  0  0  0  0  0  0  0
   -0.3678    2.5976    0.0457 C   0  0  0  0  0  0  0  0  0  0  0  0
   -1.7318    2.4445    0.1986 O   0  0  0  0  0  0  0  0  0  0  0  0
   -2.3203    1.1968    0.2625 C   0  0  0  0  0  0  0  0  0  0  0  0
   -3.5167    1.0421    0.3965 O   0  0  0  0  0  0  0  0  0  0  0  0
   -1.4814   -0.0091    0.1663 C   0  0  0  0  0  0  0  0  0  0  0  0
   -2.0373   -1.2600    0.2265 C   0  0  0  0  0  0  0  0  0  0  0  0
   -1.2396   -2.4006    0.1350 C   0  0  0  0  0  0  0  0  0  0  0  0
    0.1114   -2.2930   -0.0164 C   0  0  0  0  0  0  0  0  0  0  0  0
    0.7259   -1.0247   -0.0832 C   0  0  0  0  0  0  0  0  0  0  0  0
    2.1178   -0.8536   -0.2391 C   0  0  0  0  0  0  0  0  0  0  0  0
    2.6595    0.3965   -0.2978 C   0  0  0  0  0  0  0  0  0  0  0  0
    1.8481    1.5273   -0.2048 C   0  0  0  0  0  0  0  0  0  0  0  0
    0.4918    1.4066   -0.0528 C   0  0  0  0  0  0  0  0  0  0  0  0
   -0.0879    0.1244    0.0101 C   0  0  0  0  0  0  0  0  0  0  0  0
   -3.1053   -1.3407    0.3462 H   0  0  0  0  0  0  0  0  0  0  0  0
   -1.6994   -3.3740    0.1849 H   0  0  0  0  0  0  0  0  0  0  0  0
    0.7234   -3.1752   -0.0866 H   0  0  0  0  0  0  0  0  0  0  0  0
    2.7464   -1.7239   -0.3112 H   0  0  0  0  0  0  0  0  0  0  0  0
    3.7238    0.5165   -0.4170 H   0  0  0  0  0  0  0  0  0  0  0  0
    2.2721    2.5171   -0.2507 H   0  0  0  0  0  0  0  0  0  0  0  0
  1  2  2  0  0  0  0
  2  3  1  0  0  0  0
  3  4  1  0  0  0  0
  4  5  2  0  0  0  0
  4  6  1  0  0  0  0
  6  7  1  0  0  0  0
  7  8  2  0  0  0  0
  8  9  1  0  0  0  0
  9 10  2  0  0  0  0
 10 11  1  0  0  0  0
 11 12  2  0  0  0  0
 12 13  1  0  0  0  0
 13 14  2  0  0  0  0
 14 15  1  0  0  0  0
 14  2  1  0  0  0  0
 15  6  2  0  0  0  0
 15 10  1  0  0  0  0
  7 16  1  0  0  0  0
  8 17  1  0  0  0  0
  9 18  1  0  0  0  0
 11 19  1  0  0  0  0
 12 20  1  0  0  0  0
 13 21  1  0  0  0  0
M  END
