
  xtb     03012221263D
 energy: -8.416375418998 gnorm: 0.000186872293 xtb: 6.4.1 (afa7bdf)
 39 43  0     0  0            999 V2000
    4.5365    1.9042   -0.9815 C   0  0  0  0  0  0  0  0  0  0  0  0
    3.1924    2.1639   -1.2640 C   0  0  0  0  0  0  0  0  0  0  0  0
    2.2176    1.3263   -0.8138 C   0  0  0  0  0  0  0  0  0  0  0  0
    2.5358    0.1823   -0.0504 C   0  0  0  0  0  0  0  0  0  0  0  0
    1.5356   -0.7222    0.4341 C   0  0  0  0  0  0  0  0  0  0  0  0
    0.0946   -0.4760    0.2062 C   0  0  0  0  0  0  0  0  0  0  0  0
   -0.7304   -1.4427   -0.3402 C   0  0  0  0  0  0  0  0  0  0  0  0
   -2.0772   -1.1867   -0.5382 C   0  0  0  0  0  0  0  0  0  0  0  0
   -2.8998   -2.2271   -1.1238 C   0  0  0  0  0  0  0  0  0  0  0  0
   -2.4460   -3.3990   -1.4805 N   0  0  0  0  0  0  0  0  0  0  0  0
   -3.4336   -4.1810   -2.0049 C   0  0  0  0  0  0  0  0  0  0  0  0
   -4.6657   -3.6273   -2.0615 C   0  0  0  0  0  0  0  0  0  0  0  0
   -4.6164   -2.0325   -1.4269 S   0  0  0  0  0  0  0  0  0  0  0  0
   -2.6491   -0.0187   -0.2167 N   0  0  0  0  0  0  0  0  0  0  0  0
   -1.8610    0.9213    0.3194 C   0  0  0  0  0  0  0  0  0  0  0  0
   -2.4556    2.1957    0.6765 C   0  0  0  0  0  0  0  0  0  0  0  0
   -3.7299    2.4561    0.5725 N   0  0  0  0  0  0  0  0  0  0  0  0
   -4.0248    3.7242    0.9835 C   0  0  0  0  0  0  0  0  0  0  0  0
   -2.9802    4.4681    1.4108 C   0  0  0  0  0  0  0  0  0  0  0  0
   -1.5315    3.5544    1.2957 S   0  0  0  0  0  0  0  0  0  0  0  0
   -0.5079    0.7225    0.5439 C   0  0  0  0  0  0  0  0  0  0  0  0
    1.9336   -1.8431    1.1286 C   0  0  0  0  0  0  0  0  0  0  0  0
    3.2793   -2.1015    1.3863 C   0  0  0  0  0  0  0  0  0  0  0  0
    4.2432   -1.2450    0.9491 C   0  0  0  0  0  0  0  0  0  0  0  0
    3.8987   -0.0873    0.2199 C   0  0  0  0  0  0  0  0  0  0  0  0
    4.8842    0.8044   -0.2590 C   0  0  0  0  0  0  0  0  0  0  0  0
    5.2976    2.5755   -1.3436 H   0  0  0  0  0  0  0  0  0  0  0  0
    2.9285    3.0327   -1.8460 H   0  0  0  0  0  0  0  0  0  0  0  0
    1.1892    1.5257   -1.0552 H   0  0  0  0  0  0  0  0  0  0  0  0
   -0.3281   -2.3980   -0.6229 H   0  0  0  0  0  0  0  0  0  0  0  0
   -3.2143   -5.1839   -2.3487 H   0  0  0  0  0  0  0  0  0  0  0  0
   -5.5512   -4.0998   -2.4428 H   0  0  0  0  0  0  0  0  0  0  0  0
   -5.0450    4.0852    0.9590 H   0  0  0  0  0  0  0  0  0  0  0  0
   -3.0319    5.4793    1.7681 H   0  0  0  0  0  0  0  0  0  0  0  0
    0.0746    1.5040    0.9958 H   0  0  0  0  0  0  0  0  0  0  0  0
    1.1815   -2.5217    1.4920 H   0  0  0  0  0  0  0  0  0  0  0  0
    3.5548   -2.9845    1.9390 H   0  0  0  0  0  0  0  0  0  0  0  0
    5.2819   -1.4457    1.1501 H   0  0  0  0  0  0  0  0  0  0  0  0
    5.9198    0.5979   -0.0471 H   0  0  0  0  0  0  0  0  0  0  0  0
  1  2  2  0  0  0  0
  2  3  1  0  0  0  0
  3  4  2  0  0  0  0
  4  5  1  0  0  0  0
  5  6  1  0  0  0  0
  6  7  2  0  0  0  0
  7  8  1  0  0  0  0
  8  9  1  0  0  0  0
  9 10  2  0  0  0  0
 10 11  1  0  0  0  0
 11 12  2  0  0  0  0
 12 13  1  0  0  0  0
  8 14  2  0  0  0  0
 14 15  1  0  0  0  0
 15 16  1  0  0  0  0
 16 17  2  0  0  0  0
 17 18  1  0  0  0  0
 18 19  2  0  0  0  0
 19 20  1  0  0  0  0
 15 21  2  0  0  0  0
  5 22  2  0  0  0  0
 22 23  1  0  0  0  0
 23 24  2  0  0  0  0
 24 25  1  0  0  0  0
 25 26  2  0  0  0  0
 26  1  1  0  0  0  0
 25  4  1  0  0  0  0
 21  6  1  0  0  0  0
 13  9  1  0  0  0  0
 20 16  1  0  0  0  0
  1 27  1  0  0  0  0
  2 28  1  0  0  0  0
  3 29  1  0  0  0  0
  7 30  1  0  0  0  0
 11 31  1  0  0  0  0
 12 32  1  0  0  0  0
 18 33  1  0  0  0  0
 19 34  1  0  0  0  0
 21 35  1  0  0  0  0
 22 36  1  0  0  0  0
 23 37  1  0  0  0  0
 24 38  1  0  0  0  0
 26 39  1  0  0  0  0
M  END
