
  xtb     03012221263D
 energy: -10.825413149452 gnorm: 0.000276416659 xtb: 6.4.1 (afa7bdf)
 56 60  0     0  0            999 V2000
    1.8275    2.3042    0.1133 O   0  0  0  0  0  0  0  0  0  0  0  0
    1.7019    1.1696    0.5941 C   0  0  0  0  0  0  0  0  0  0  0  0
    0.7014    0.2857    0.1520 C   0  0  0  0  0  0  0  0  0  0  0  0
    0.5675   -0.9764    0.6796 C   0  0  0  0  0  0  0  0  0  0  0  0
   -0.4902   -1.8594    0.2031 C   0  0  0  0  0  0  0  0  0  0  0  0
   -0.4650   -3.2049    0.3389 N   0  0  0  0  0  0  0  0  0  0  0  0
   -1.5525   -3.6646   -0.2653 C   0  0  0  0  0  0  0  0  0  0  0  0
   -1.9868   -5.0026   -0.3979 C   0  0  0  0  0  0  0  0  0  0  0  0
   -3.1513   -5.2496   -1.0481 C   0  0  0  0  0  0  0  0  0  0  0  0
   -3.9241   -4.1905   -1.5857 C   0  0  0  0  0  0  0  0  0  0  0  0
   -3.5163   -2.9095   -1.4646 C   0  0  0  0  0  0  0  0  0  0  0  0
   -2.3214   -2.6201   -0.8096 N   0  0  0  0  0  0  0  0  0  0  0  0
   -1.6473   -1.4624   -0.4989 C   0  0  0  0  0  0  0  0  0  0  0  0
   -2.1269   -0.1582   -0.7027 N   0  0  0  0  0  0  0  0  0  0  0  0
   -2.3899    0.7196    0.4494 C   0  0  0  0  0  0  0  0  0  0  0  0
   -2.3206    2.2216    0.0380 C   0  0  0  0  0  0  0  0  0  0  0  0
   -3.7135    2.8854   -0.0811 C   0  0  0  0  0  0  0  0  0  0  0  0
   -4.7441    1.9135   -0.6807 C   0  0  0  0  0  0  0  0  0  0  0  0
   -4.9562    0.6681    0.2227 C   0  0  0  0  0  0  0  0  0  0  0  0
   -3.7337    0.3575    1.1240 C   0  0  0  0  0  0  0  0  0  0  0  0
    1.4149   -1.4427    1.6499 O   0  0  0  0  0  0  0  0  0  0  0  0
    2.3844   -0.5853    2.0910 C   0  0  0  0  0  0  0  0  0  0  0  0
    2.5861    0.6816    1.6258 C   0  0  0  0  0  0  0  0  0  0  0  0
    3.6049    1.5251    2.1200 O   0  0  0  0  0  0  0  0  0  0  0  0
    4.9234    1.0030    1.9511 C   0  0  0  0  0  0  0  0  0  0  0  0
    5.5256    1.2972    0.6129 C   0  0  0  0  0  0  0  0  0  0  0  0
    4.8075    1.9754   -0.3542 C   0  0  0  0  0  0  0  0  0  0  0  0
    5.3654    2.2524   -1.5840 C   0  0  0  0  0  0  0  0  0  0  0  0
    6.6547    1.8508   -1.8587 C   0  0  0  0  0  0  0  0  0  0  0  0
    7.3819    1.1727   -0.9038 C   0  0  0  0  0  0  0  0  0  0  0  0
    6.8201    0.8976    0.3255 C   0  0  0  0  0  0  0  0  0  0  0  0
    0.0409    0.6198   -0.6234 H   0  0  0  0  0  0  0  0  0  0  0  0
   -1.3896   -5.7938    0.0193 H   0  0  0  0  0  0  0  0  0  0  0  0
   -3.4978   -6.2642   -1.1585 H   0  0  0  0  0  0  0  0  0  0  0  0
   -4.8455   -4.4152   -2.0960 H   0  0  0  0  0  0  0  0  0  0  0  0
   -4.0890   -2.0943   -1.8685 H   0  0  0  0  0  0  0  0  0  0  0  0
   -2.8920   -0.0712   -1.3628 H   0  0  0  0  0  0  0  0  0  0  0  0
   -1.5805    0.5184    1.1703 H   0  0  0  0  0  0  0  0  0  0  0  0
   -1.7977    2.2891   -0.9223 H   0  0  0  0  0  0  0  0  0  0  0  0
   -1.6960    2.7777    0.7488 H   0  0  0  0  0  0  0  0  0  0  0  0
   -3.6554    3.8046   -0.6781 H   0  0  0  0  0  0  0  0  0  0  0  0
   -4.0535    3.2019    0.9114 H   0  0  0  0  0  0  0  0  0  0  0  0
   -5.6989    2.4260   -0.8645 H   0  0  0  0  0  0  0  0  0  0  0  0
   -4.3954    1.5972   -1.6720 H   0  0  0  0  0  0  0  0  0  0  0  0
   -5.1906   -0.2060   -0.3959 H   0  0  0  0  0  0  0  0  0  0  0  0
   -5.8431    0.8196    0.8496 H   0  0  0  0  0  0  0  0  0  0  0  0
   -3.8214    0.9037    2.0708 H   0  0  0  0  0  0  0  0  0  0  0  0
   -3.7235   -0.7061    1.3932 H   0  0  0  0  0  0  0  0  0  0  0  0
    3.0092   -0.9676    2.8824 H   0  0  0  0  0  0  0  0  0  0  0  0
    5.5383    1.4495    2.7398 H   0  0  0  0  0  0  0  0  0  0  0  0
    4.9031   -0.0760    2.1303 H   0  0  0  0  0  0  0  0  0  0  0  0
    3.7930    2.2646   -0.1369 H   0  0  0  0  0  0  0  0  0  0  0  0
    4.7906    2.7769   -2.3289 H   0  0  0  0  0  0  0  0  0  0  0  0
    7.0930    2.0643   -2.8210 H   0  0  0  0  0  0  0  0  0  0  0  0
    8.3895    0.8571   -1.1175 H   0  0  0  0  0  0  0  0  0  0  0  0
    7.3849    0.3690    1.0741 H   0  0  0  0  0  0  0  0  0  0  0  0
  1  2  2  0  0  0  0
  2  3  1  0  0  0  0
  3  4  2  0  0  0  0
  4  5  1  0  0  0  0
  5  6  1  0  0  0  0
  6  7  2  0  0  0  0
  7  8  1  0  0  0  0
  8  9  2  0  0  0  0
  9 10  1  0  0  0  0
 10 11  2  0  0  0  0
 11 12  1  0  0  0  0
 12 13  1  0  0  0  0
 13 14  1  0  0  0  0
 14 15  1  0  0  0  0
 15 16  1  0  0  0  0
 16 17  1  0  0  0  0
 17 18  1  0  0  0  0
 18 19  1  0  0  0  0
 19 20  1  0  0  0  0
  4 21  1  0  0  0  0
 21 22  1  0  0  0  0
 22 23  2  0  0  0  0
 23 24  1  0  0  0  0
 24 25  1  0  0  0  0
 25 26  1  0  0  0  0
 26 27  2  0  0  0  0
 27 28  1  0  0  0  0
 28 29  2  0  0  0  0
 29 30  1  0  0  0  0
 30 31  2  0  0  0  0
 23  2  1  0  0  0  0
 31 26  1  0  0  0  0
 13  5  2  0  0  0  0
 20 15  1  0  0  0  0
 12  7  1  0  0  0  0
  3 32  1  0  0  0  0
  8 33  1  0  0  0  0
  9 34  1  0  0  0  0
 10 35  1  0  0  0  0
 11 36  1  0  0  0  0
 14 37  1  0  0  0  0
 15 38  1  0  0  0  0
 16 39  1  0  0  0  0
 16 40  1  0  0  0  0
 17 41  1  0  0  0  0
 17 42  1  0  0  0  0
 18 43  1  0  0  0  0
 18 44  1  0  0  0  0
 19 45  1  0  0  0  0
 19 46  1  0  0  0  0
 20 47  1  0  0  0  0
 20 48  1  0  0  0  0
 22 49  1  0  0  0  0
 25 50  1  0  0  0  0
 25 51  1  0  0  0  0
 27 52  1  0  0  0  0
 28 53  1  0  0  0  0
 29 54  1  0  0  0  0
 30 55  1  0  0  0  0
 31 56  1  0  0  0  0
M  END
