
  xtb     03012221243D
 energy: -7.727813258803 gnorm: 0.000233417378 xtb: 6.4.1 (afa7bdf)
 34 39  0     0  0            999 V2000
   -4.3647   -1.4137   -0.2325 C   0  0  0  0  0  0  0  0  0  0  0  0
   -4.2691   -0.0450   -0.0294 C   0  0  0  0  0  0  0  0  0  0  0  0
   -3.0295    0.5771    0.0693 C   0  0  0  0  0  0  0  0  0  0  0  0
   -2.8943    1.9902    0.2793 C   0  0  0  0  0  0  0  0  0  0  0  0
   -1.6809    2.5739    0.3721 C   0  0  0  0  0  0  0  0  0  0  0  0
   -0.4736    1.8061    0.2649 C   0  0  0  0  0  0  0  0  0  0  0  0
    0.7784    2.3844    0.3572 C   0  0  0  0  0  0  0  0  0  0  0  0
    1.9574    1.6164    0.2497 C   0  0  0  0  0  0  0  0  0  0  0  0
    3.2386    2.1900    0.3415 C   0  0  0  0  0  0  0  0  0  0  0  0
    4.3649    1.4135    0.2325 C   0  0  0  0  0  0  0  0  0  0  0  0
    4.2691    0.0448    0.0294 C   0  0  0  0  0  0  0  0  0  0  0  0
    3.0293   -0.5771   -0.0693 C   0  0  0  0  0  0  0  0  0  0  0  0
    2.8941   -1.9902   -0.2793 C   0  0  0  0  0  0  0  0  0  0  0  0
    1.6807   -2.5739   -0.3721 C   0  0  0  0  0  0  0  0  0  0  0  0
    0.4736   -1.8057   -0.2648 C   0  0  0  0  0  0  0  0  0  0  0  0
   -0.7784   -2.3842   -0.3571 C   0  0  0  0  0  0  0  0  0  0  0  0
   -1.9573   -1.6162   -0.2497 C   0  0  0  0  0  0  0  0  0  0  0  0
   -3.2383   -2.1901   -0.3415 C   0  0  0  0  0  0  0  0  0  0  0  0
   -1.8557   -0.2141   -0.0416 C   0  0  0  0  0  0  0  0  0  0  0  0
   -0.5802    0.3955    0.0555 C   0  0  0  0  0  0  0  0  0  0  0  0
    0.5802   -0.3953   -0.0554 C   0  0  0  0  0  0  0  0  0  0  0  0
    1.8557    0.2144    0.0416 C   0  0  0  0  0  0  0  0  0  0  0  0
   -5.3374   -1.8725   -0.3056 H   0  0  0  0  0  0  0  0  0  0  0  0
   -5.1613    0.5509    0.0541 H   0  0  0  0  0  0  0  0  0  0  0  0
   -3.7885    2.5831    0.3623 H   0  0  0  0  0  0  0  0  0  0  0  0
   -1.6004    3.6355    0.5298 H   0  0  0  0  0  0  0  0  0  0  0  0
    0.8584    3.4446    0.5145 H   0  0  0  0  0  0  0  0  0  0  0  0
    3.3243    3.2511    0.4990 H   0  0  0  0  0  0  0  0  0  0  0  0
    5.3377    1.8720    0.3056 H   0  0  0  0  0  0  0  0  0  0  0  0
    5.1610   -0.5515   -0.0542 H   0  0  0  0  0  0  0  0  0  0  0  0
    3.7882   -2.5833   -0.3623 H   0  0  0  0  0  0  0  0  0  0  0  0
    1.6002   -3.6355   -0.5298 H   0  0  0  0  0  0  0  0  0  0  0  0
   -0.8582   -3.4444   -0.5145 H   0  0  0  0  0  0  0  0  0  0  0  0
   -3.3238   -3.2512   -0.4990 H   0  0  0  0  0  0  0  0  0  0  0  0
  1  2  2  0  0  0  0
  2  3  1  0  0  0  0
  3  4  2  0  0  0  0
  4  5  1  0  0  0  0
  5  6  2  0  0  0  0
  6  7  1  0  0  0  0
  7  8  2  0  0  0  0
  8  9  1  0  0  0  0
  9 10  2  0  0  0  0
 10 11  1  0  0  0  0
 11 12  2  0  0  0  0
 12 13  1  0  0  0  0
 13 14  2  0  0  0  0
 14 15  1  0  0  0  0
 15 16  2  0  0  0  0
 16 17  1  0  0  0  0
 17 18  2  0  0  0  0
 17 19  1  0  0  0  0
 19 20  2  0  0  0  0
 20 21  1  0  0  0  0
 21 22  2  0  0  0  0
 18  1  1  0  0  0  0
 19  3  1  0  0  0  0
 20  6  1  0  0  0  0
 22  8  1  0  0  0  0
 22 12  1  0  0  0  0
 21 15  1  0  0  0  0
  1 23  1  0  0  0  0
  2 24  1  0  0  0  0
  4 25  1  0  0  0  0
  5 26  1  0  0  0  0
  7 27  1  0  0  0  0
  9 28  1  0  0  0  0
 10 29  1  0  0  0  0
 11 30  1  0  0  0  0
 13 31  1  0  0  0  0
 14 32  1  0  0  0  0
 16 33  1  0  0  0  0
 18 34  1  0  0  0  0
M  END
