
  xtb     03012221273D
 energy: -7.571383924275 gnorm: 0.000372246348 xtb: 6.4.1 (afa7bdf)
 38 41  0     0  0            999 V2000
    6.8966    0.5711    0.3000 C   0  0  0  0  0  0  0  0  0  0  0  0
    5.8718    1.3197   -0.3148 O   0  0  0  0  0  0  0  0  0  0  0  0
    4.5817    0.8370   -0.1031 C   0  0  0  0  0  0  0  0  0  0  0  0
    3.5247    1.5478   -0.6815 C   0  0  0  0  0  0  0  0  0  0  0  0
    2.2237    1.1457   -0.5259 C   0  0  0  0  0  0  0  0  0  0  0  0
    1.9170    0.0064    0.2201 C   0  0  0  0  0  0  0  0  0  0  0  0
    0.5554   -0.4846    0.4327 C   0  0  0  0  0  0  0  0  0  0  0  0
   -0.5445    0.1300   -0.0961 C   0  0  0  0  0  0  0  0  0  0  0  0
   -1.8520   -0.3590    0.1275 C   0  0  0  0  0  0  0  0  0  0  0  0
   -3.0207    0.2779   -0.4088 C   0  0  0  0  0  0  0  0  0  0  0  0
   -2.9705    1.4408   -1.2041 C   0  0  0  0  0  0  0  0  0  0  0  0
   -4.1122    2.0098   -1.6900 C   0  0  0  0  0  0  0  0  0  0  0  0
   -5.3588    1.4505   -1.4088 C   0  0  0  0  0  0  0  0  0  0  0  0
   -5.4481    0.3265   -0.6435 C   0  0  0  0  0  0  0  0  0  0  0  0
   -4.2882   -0.2863   -0.1261 C   0  0  0  0  0  0  0  0  0  0  0  0
   -4.3628   -1.4503    0.6682 C   0  0  0  0  0  0  0  0  0  0  0  0
   -3.2269   -2.0138    1.1500 C   0  0  0  0  0  0  0  0  0  0  0  0
   -2.0146   -1.4707    0.8785 N   0  0  0  0  0  4  0  0  0  0  0  0
   -0.8515   -2.2470    1.4979 B   0  0  0  0  0  4  0  0  0  0  0  0
   -1.0662   -2.2806    2.8710 F   0  0  0  0  0  0  0  0  0  0  0  0
   -0.8846   -3.5289    0.9606 F   0  0  0  0  0  0  0  0  0  0  0  0
    0.4334   -1.6036    1.1983 O   0  0  0  0  0  0  0  0  0  0  0  0
    2.9673   -0.7027    0.7972 C   0  0  0  0  0  0  0  0  0  0  0  0
    4.2696   -0.3034    0.6438 C   0  0  0  0  0  0  0  0  0  0  0  0
    7.8506    1.0417    0.0687 H   0  0  0  0  0  0  0  0  0  0  0  0
    6.7541    0.5681    1.3794 H   0  0  0  0  0  0  0  0  0  0  0  0
    6.8971   -0.4446   -0.0921 H   0  0  0  0  0  0  0  0  0  0  0  0
    3.7625    2.4256   -1.2558 H   0  0  0  0  0  0  0  0  0  0  0  0
    1.4372    1.7170   -0.9835 H   0  0  0  0  0  0  0  0  0  0  0  0
   -0.4137    1.0075   -0.6947 H   0  0  0  0  0  0  0  0  0  0  0  0
   -2.0222    1.8896   -1.4338 H   0  0  0  0  0  0  0  0  0  0  0  0
   -4.0538    2.8987   -2.2963 H   0  0  0  0  0  0  0  0  0  0  0  0
   -6.2517    1.9107   -1.7991 H   0  0  0  0  0  0  0  0  0  0  0  0
   -6.4087   -0.1066   -0.4252 H   0  0  0  0  0  0  0  0  0  0  0  0
   -5.3238   -1.8831    0.8858 H   0  0  0  0  0  0  0  0  0  0  0  0
   -3.2494   -2.9020    1.7580 H   0  0  0  0  0  0  0  0  0  0  0  0
    2.7266   -1.5805    1.3728 H   0  0  0  0  0  0  0  0  0  0  0  0
    5.0553   -0.8742    1.1034 H   0  0  0  0  0  0  0  0  0  0  0  0
  1  2  1  0  0  0  0
  2  3  1  0  0  0  0
  3  4  2  0  0  0  0
  4  5  1  0  0  0  0
  5  6  2  0  0  0  0
  6  7  1  0  0  0  0
  7  8  2  0  0  0  0
  8  9  1  0  0  0  0
  9 10  2  0  0  0  0
 10 11  1  0  0  0  0
 11 12  2  0  0  0  0
 12 13  1  0  0  0  0
 13 14  2  0  0  0  0
 14 15  1  0  0  0  0
 15 16  2  0  0  0  0
 16 17  1  0  0  0  0
 17 18  2  0  0  0  0
 18 19  1  0  0  0  0
 19 20  1  0  0  0  0
 19 21  1  0  0  0  0
 19 22  1  0  0  0  0
  6 23  1  0  0  0  0
 23 24  2  0  0  0  0
 24  3  1  0  0  0  0
 22  7  1  0  0  0  0
 18  9  1  0  0  0  0
 15 10  1  0  0  0  0
  1 25  1  0  0  0  0
  1 26  1  0  0  0  0
  1 27  1  0  0  0  0
  4 28  1  0  0  0  0
  5 29  1  0  0  0  0
  8 30  1  0  0  0  0
 11 31  1  0  0  0  0
 12 32  1  0  0  0  0
 13 33  1  0  0  0  0
 14 34  1  0  0  0  0
 16 35  1  0  0  0  0
 17 36  1  0  0  0  0
 23 37  1  0  0  0  0
 24 38  1  0  0  0  0
M  CHG  1  18   1
M  CHG  1  19  -1
M  END
