
  xtb     03012221293D
 energy: -6.932956847294 gnorm: 0.000364411040 xtb: 6.4.1 (afa7bdf)
 32 35  0     0  0            999 V2000
   -5.9745   -1.0838    0.4506 O   0  0  0  0  0  0  0  0  0  0  0  0
   -4.6133   -0.9701    0.4343 C   0  0  0  0  0  0  0  0  0  0  0  0
   -3.7890   -2.0197    0.8241 C   0  0  0  0  0  0  0  0  0  0  0  0
   -2.4175   -1.8968    0.8044 C   0  0  0  0  0  0  0  0  0  0  0  0
   -1.7982   -0.7277    0.3965 C   0  0  0  0  0  0  0  0  0  0  0  0
   -0.4247   -0.6854    0.4035 N   0  0  0  0  0  0  0  0  0  0  0  0
    0.2348    0.3014    0.0351 N   0  0  0  0  0  0  0  0  0  0  0  0
    1.5889    0.2547    0.0735 C   0  0  0  0  0  0  0  0  0  0  0  0
    2.2629   -0.7810    0.4817 N   0  0  0  0  0  0  0  0  0  0  0  0
    3.6247   -0.5642    0.4203 C   0  0  0  0  0  0  0  0  0  0  0  0
    4.6104   -1.4871    0.7946 C   0  0  0  0  0  0  0  0  0  0  0  0
    5.9335   -1.1423    0.6849 C   0  0  0  0  0  0  0  0  0  0  0  0
    6.3063    0.1120    0.2065 C   0  0  0  0  0  0  0  0  0  0  0  0
    5.3534    1.0301   -0.1645 C   0  0  0  0  0  0  0  0  0  0  0  0
    4.0124    0.6934   -0.0575 C   0  0  0  0  0  0  0  0  0  0  0  0
    2.5917    1.6160   -0.4348 S   0  0  0  0  0  0  0  0  0  0  0  0
   -2.6099    0.3774   -0.0124 C   0  0  0  0  0  0  0  0  0  0  0  0
   -2.0729    1.5946   -0.4368 C   0  0  0  0  0  0  0  0  0  0  0  0
   -2.9104    2.5964   -0.8080 C   0  0  0  0  0  0  0  0  0  0  0  0
   -4.2785    2.3807   -0.7550 C   0  0  0  0  0  0  0  0  0  0  0  0
   -4.8431    1.2654   -0.3676 N   0  0  0  0  0  0  0  0  0  0  0  0
   -4.0205    0.2613    0.0048 C   0  0  0  0  0  0  0  0  0  0  0  0
   -6.2387   -1.9764    0.7646 H   0  0  0  0  0  0  0  0  0  0  0  0
   -4.2398   -2.9415    1.1459 H   0  0  0  0  0  0  0  0  0  0  0  0
   -1.7955   -2.7202    1.1094 H   0  0  0  0  0  0  0  0  0  0  0  0
    4.3105   -2.4517    1.1626 H   0  0  0  0  0  0  0  0  0  0  0  0
    6.6944   -1.8492    0.9713 H   0  0  0  0  0  0  0  0  0  0  0  0
    7.3509    0.3639    0.1278 H   0  0  0  0  0  0  0  0  0  0  0  0
    5.6285    2.0023   -0.5343 H   0  0  0  0  0  0  0  0  0  0  0  0
   -1.0093    1.7287   -0.4666 H   0  0  0  0  0  0  0  0  0  0  0  0
   -2.5199    3.5444   -1.1391 H   0  0  0  0  0  0  0  0  0  0  0  0
   -4.9478    3.1745   -1.0494 H   0  0  0  0  0  0  0  0  0  0  0  0
  1  2  1  0  0  0  0
  2  3  2  0  0  0  0
  3  4  1  0  0  0  0
  4  5  2  0  0  0  0
  5  6  1  0  0  0  0
  6  7  2  0  0  0  0
  7  8  1  0  0  0  0
  8  9  2  0  0  0  0
  9 10  1  0  0  0  0
 10 11  2  0  0  0  0
 11 12  1  0  0  0  0
 12 13  2  0  0  0  0
 13 14  1  0  0  0  0
 14 15  2  0  0  0  0
 15 16  1  0  0  0  0
  5 17  1  0  0  0  0
 17 18  2  0  0  0  0
 18 19  1  0  0  0  0
 19 20  2  0  0  0  0
 20 21  1  0  0  0  0
 21 22  2  0  0  0  0
 22  2  1  0  0  0  0
 16  8  1  0  0  0  0
 22 17  1  0  0  0  0
 15 10  1  0  0  0  0
  1 23  1  0  0  0  0
  3 24  1  0  0  0  0
  4 25  1  0  0  0  0
 11 26  1  0  0  0  0
 12 27  1  0  0  0  0
 13 28  1  0  0  0  0
 14 29  1  0  0  0  0
 18 30  1  0  0  0  0
 19 31  1  0  0  0  0
 20 32  1  0  0  0  0
M  END
