
  xtb     03012221233D
 energy: -10.495742657633 gnorm: 0.000164180726 xtb: 6.4.1 (afa7bdf)
 62 64  0     0  0            999 V2000
   -7.5500    0.3025    3.1319 C   0  0  0  0  0  0  0  0  0  0  0  0
   -6.4361    0.2417    2.0875 C   0  0  0  0  0  0  0  0  0  0  0  0
   -6.3729   -1.1740    1.4145 C   0  0  0  0  0  0  0  0  0  0  0  0
   -7.0759   -1.2066    0.0409 C   0  0  0  0  0  0  0  0  0  0  0  0
   -6.4472   -0.2136   -0.9123 C   0  0  0  0  0  0  0  0  0  0  0  0
   -6.3695   -0.4656   -2.2168 C   0  0  0  0  0  0  0  0  0  0  0  0
   -5.5944    0.5994   -3.3905 S   0  0  0  0  0  0  0  0  0  0  0  0
   -3.9387    0.5504   -2.8066 C   0  0  0  0  0  0  0  0  0  0  0  0
   -3.4299   -0.4608   -2.0996 C   0  0  0  0  0  0  0  0  0  0  0  0
   -2.0777   -0.5329   -1.5651 C   0  0  0  0  0  0  0  0  0  0  0  0
   -1.1422    0.4872   -1.7453 C   0  0  0  0  0  0  0  0  0  0  0  0
    0.1253    0.3827   -1.2237 C   0  0  0  0  0  0  0  0  0  0  0  0
    0.5173   -0.7432   -0.4975 C   0  0  0  0  0  0  0  0  0  0  0  0
    1.8732   -0.8231    0.0284 C   0  0  0  0  0  0  0  0  0  0  0  0
    2.3695   -1.8274    0.7539 C   0  0  0  0  0  0  0  0  0  0  0  0
    4.0255   -1.8666    1.3389 S   0  0  0  0  0  0  0  0  0  0  0  0
    4.8411   -1.2245   -0.0836 C   0  0  0  0  0  0  0  0  0  0  0  0
    5.9679   -0.5188   -0.0383 C   0  0  0  0  0  0  0  0  0  0  0  0
    6.6087    0.0134   -1.3034 C   0  0  0  0  0  0  0  0  0  0  0  0
    7.4448    1.2771   -1.0137 C   0  0  0  0  0  0  0  0  0  0  0  0
    8.5895    1.0095    0.0171 C   0  0  0  0  0  0  0  0  0  0  0  0
    8.9980    2.3013    0.7243 C   0  0  0  0  0  0  0  0  0  0  0  0
    8.2010   -0.0998    1.0556 C   0  0  0  0  0  0  0  0  0  0  0  0
    6.6750   -0.2079    1.2619 C   0  0  0  0  0  0  0  0  0  0  0  0
   -0.4201   -1.7613   -0.3139 C   0  0  0  0  0  0  0  0  0  0  0  0
   -1.6875   -1.6568   -0.8352 C   0  0  0  0  0  0  0  0  0  0  0  0
   -5.8938    1.0548   -0.2976 C   0  0  0  0  0  0  0  0  0  0  0  0
   -6.5977    1.3852    1.0345 C   0  0  0  0  0  0  0  0  0  0  0  0
   -7.4116   -0.4482    3.9118 H   0  0  0  0  0  0  0  0  0  0  0  0
   -7.5933    1.2811    3.6129 H   0  0  0  0  0  0  0  0  0  0  0  0
   -8.5207    0.1201    2.6697 H   0  0  0  0  0  0  0  0  0  0  0  0
   -5.4752    0.4088    2.6049 H   0  0  0  0  0  0  0  0  0  0  0  0
   -6.8095   -1.9214    2.0879 H   0  0  0  0  0  0  0  0  0  0  0  0
   -5.3265   -1.4751    1.2821 H   0  0  0  0  0  0  0  0  0  0  0  0
   -8.1389   -0.9663    0.1568 H   0  0  0  0  0  0  0  0  0  0  0  0
   -7.0396   -2.2135   -0.3932 H   0  0  0  0  0  0  0  0  0  0  0  0
   -6.7879   -1.3720   -2.6115 H   0  0  0  0  0  0  0  0  0  0  0  0
   -3.3372    1.4019   -3.0564 H   0  0  0  0  0  0  0  0  0  0  0  0
   -4.0703   -1.2996   -1.8900 H   0  0  0  0  0  0  0  0  0  0  0  0
   -1.4150    1.3677   -2.2993 H   0  0  0  0  0  0  0  0  0  0  0  0
    0.8352    1.1783   -1.3744 H   0  0  0  0  0  0  0  0  0  0  0  0
    2.5243    0.0053   -0.1916 H   0  0  0  0  0  0  0  0  0  0  0  0
    1.7587   -2.6658    1.0252 H   0  0  0  0  0  0  0  0  0  0  0  0
    4.3798   -1.4312   -1.0304 H   0  0  0  0  0  0  0  0  0  0  0  0
    5.8350    0.2188   -2.0536 H   0  0  0  0  0  0  0  0  0  0  0  0
    7.2477   -0.7666   -1.7331 H   0  0  0  0  0  0  0  0  0  0  0  0
    7.8539    1.6984   -1.9410 H   0  0  0  0  0  0  0  0  0  0  0  0
    6.7880    2.0545   -0.6080 H   0  0  0  0  0  0  0  0  0  0  0  0
    9.4616    0.6431   -0.5523 H   0  0  0  0  0  0  0  0  0  0  0  0
    8.1748    2.6867    1.3270 H   0  0  0  0  0  0  0  0  0  0  0  0
    9.8471    2.1434    1.3915 H   0  0  0  0  0  0  0  0  0  0  0  0
    9.2736    3.0779    0.0090 H   0  0  0  0  0  0  0  0  0  0  0  0
    8.5815   -1.0720    0.7196 H   0  0  0  0  0  0  0  0  0  0  0  0
    8.7046    0.0974    2.0097 H   0  0  0  0  0  0  0  0  0  0  0  0
    6.4349   -0.9774    2.0057 H   0  0  0  0  0  0  0  0  0  0  0  0
    6.2820    0.7326    1.6646 H   0  0  0  0  0  0  0  0  0  0  0  0
   -0.1477   -2.6421    0.2397 H   0  0  0  0  0  0  0  0  0  0  0  0
   -2.3981   -2.4516   -0.6833 H   0  0  0  0  0  0  0  0  0  0  0  0
   -4.8189    0.9274   -0.1265 H   0  0  0  0  0  0  0  0  0  0  0  0
   -5.9915    1.8831   -1.0100 H   0  0  0  0  0  0  0  0  0  0  0  0
   -6.2373    2.3379    1.4435 H   0  0  0  0  0  0  0  0  0  0  0  0
   -7.6664    1.5364    0.8468 H   0  0  0  0  0  0  0  0  0  0  0  0
  1  2  1  0  0  0  0
  2  3  1  0  0  0  0
  3  4  1  0  0  0  0
  4  5  1  0  0  0  0
  5  6  2  0  0  0  0
  6  7  1  0  0  0  0
  7  8  1  0  0  0  0
  8  9  2  0  0  0  0
  9 10  1  0  0  0  0
 10 11  2  0  0  0  0
 11 12  1  0  0  0  0
 12 13  2  0  0  0  0
 13 14  1  0  0  0  0
 14 15  2  0  0  0  0
 15 16  1  0  0  0  0
 16 17  1  0  0  0  0
 17 18  2  0  0  0  0
 18 19  1  0  0  0  0
 19 20  1  0  0  0  0
 20 21  1  0  0  0  0
 21 22  1  0  0  0  0
 21 23  1  0  0  0  0
 23 24  1  0  0  0  0
 13 25  1  0  0  0  0
 25 26  2  0  0  0  0
  5 27  1  0  0  0  0
 27 28  1  0  0  0  0
 28  2  1  0  0  0  0
 26 10  1  0  0  0  0
 24 18  1  0  0  0  0
  1 29  1  0  0  0  0
  1 30  1  0  0  0  0
  1 31  1  0  0  0  0
  2 32  1  0  0  0  0
  3 33  1  0  0  0  0
  3 34  1  0  0  0  0
  4 35  1  0  0  0  0
  4 36  1  0  0  0  0
  6 37  1  0  0  0  0
  8 38  1  0  0  0  0
  9 39  1  0  0  0  0
 11 40  1  0  0  0  0
 12 41  1  0  0  0  0
 14 42  1  0  0  0  0
 15 43  1  0  0  0  0
 17 44  1  0  0  0  0
 19 45  1  0  0  0  0
 19 46  1  0  0  0  0
 20 47  1  0  0  0  0
 20 48  1  0  0  0  0
 21 49  1  0  0  0  0
 22 50  1  0  0  0  0
 22 51  1  0  0  0  0
 22 52  1  0  0  0  0
 23 53  1  0  0  0  0
 23 54  1  0  0  0  0
 24 55  1  0  0  0  0
 24 56  1  0  0  0  0
 25 57  1  0  0  0  0
 26 58  1  0  0  0  0
 27 59  1  0  0  0  0
 27 60  1  0  0  0  0
 28 61  1  0  0  0  0
 28 62  1  0  0  0  0
M  END
