
  xtb     03012221283D
 energy: -14.918472792133 gnorm: 0.000300705556 xtb: 6.4.1 (afa7bdf)
 70 76  0     0  0            999 V2000
    0.2958   -1.4099   -0.8514 F   0  0  0  0  0  0  0  0  0  0  0  0
    1.2224   -0.5798   -0.3410 C   0  0  0  0  0  0  0  0  0  0  0  0
    2.5558   -0.8384   -0.6014 C   0  0  0  0  0  0  0  0  0  0  0  0
    2.8753   -1.8703   -1.4043 F   0  0  0  0  0  0  0  0  0  0  0  0
    3.5557   -0.0133   -0.0777 C   0  0  0  0  0  0  0  0  0  0  0  0
    4.9277   -0.2812   -0.3506 N   0  0  0  0  0  0  0  0  0  0  0  0
    5.9052    0.6712   -0.7093 C   0  0  0  0  0  0  0  0  0  0  0  0
    5.8150    2.0474   -0.9075 C   0  0  0  0  0  0  0  0  0  0  0  0
    6.9393    2.7389   -1.2826 C   0  0  0  0  0  0  0  0  0  0  0  0
    8.1566    2.0833   -1.4710 C   0  0  0  0  0  0  0  0  0  0  0  0
    8.2637    0.7267   -1.2852 C   0  0  0  0  0  0  0  0  0  0  0  0
    7.1295    0.0131   -0.9027 C   0  0  0  0  0  0  0  0  0  0  0  0
    6.9088   -1.3892   -0.6447 C   0  0  0  0  0  0  0  0  0  0  0  0
    7.7625   -2.4904   -0.6683 C   0  0  0  0  0  0  0  0  0  0  0  0
    7.2509   -3.7270   -0.3594 C   0  0  0  0  0  0  0  0  0  0  0  0
    5.9047   -3.8832   -0.0268 C   0  0  0  0  0  0  0  0  0  0  0  0
    5.0543   -2.8067    0.0020 C   0  0  0  0  0  0  0  0  0  0  0  0
    5.5538   -1.5451   -0.3141 C   0  0  0  0  0  0  0  0  0  0  0  0
    3.1936    1.0849    0.7072 C   0  0  0  0  0  0  0  0  0  0  0  0
    4.1366    1.8628    1.2706 F   0  0  0  0  0  0  0  0  0  0  0  0
    1.8611    1.3601    0.9486 C   0  0  0  0  0  0  0  0  0  0  0  0
    1.5301    2.4435    1.6763 F   0  0  0  0  0  0  0  0  0  0  0  0
    0.8565    0.5300    0.4355 C   0  0  0  0  0  0  0  0  0  0  0  0
   -0.5085    0.8675    0.7110 C   0  0  0  0  0  0  0  0  0  0  0  0
   -1.5781    0.1445    0.3337 C   0  0  0  0  0  0  0  0  0  0  0  0
   -2.9465    0.5056    0.5856 C   0  0  0  0  0  0  0  0  0  0  0  0
   -3.9774   -0.2146   -0.0082 C   0  0  0  0  0  0  0  0  0  0  0  0
   -5.3862   -0.0102    0.3830 C   0  0  0  0  0  0  0  0  0  0  0  0
   -5.7609    0.1711    1.7163 C   0  0  0  0  0  0  0  0  0  0  0  0
   -7.0813    0.3463    2.0629 C   0  0  0  0  0  0  0  0  0  0  0  0
   -8.0596    0.3363    1.0884 C   0  0  0  0  0  0  0  0  0  0  0  0
   -7.7134    0.1458   -0.2348 C   0  0  0  0  0  0  0  0  0  0  0  0
   -6.3935   -0.0292   -0.5839 C   0  0  0  0  0  0  0  0  0  0  0  0
   -3.6987   -1.2272   -1.0496 C   0  0  0  0  0  0  0  0  0  0  0  0
   -4.3173   -2.4780   -0.9998 C   0  0  0  0  0  0  0  0  0  0  0  0
   -4.0626   -3.4313   -1.9595 C   0  0  0  0  0  0  0  0  0  0  0  0
   -3.1892   -3.1563   -2.9932 C   0  0  0  0  0  0  0  0  0  0  0  0
   -2.5784   -1.9203   -3.0706 C   0  0  0  0  0  0  0  0  0  0  0  0
   -2.8355   -0.9630   -2.1159 C   0  0  0  0  0  0  0  0  0  0  0  0
   -3.2293    1.6623    1.4657 C   0  0  0  0  0  0  0  0  0  0  0  0
   -4.0275    2.7173    1.0231 C   0  0  0  0  0  0  0  0  0  0  0  0
   -4.2878    3.7945    1.8381 C   0  0  0  0  0  0  0  0  0  0  0  0
   -3.7549    3.8442    3.1107 C   0  0  0  0  0  0  0  0  0  0  0  0
   -2.9613    2.8106    3.5666 C   0  0  0  0  0  0  0  0  0  0  0  0
   -2.7012    1.7305    2.7552 C   0  0  0  0  0  0  0  0  0  0  0  0
    4.8771    2.5465   -0.7407 H   0  0  0  0  0  0  0  0  0  0  0  0
    6.8827    3.8048   -1.4294 H   0  0  0  0  0  0  0  0  0  0  0  0
    9.0248    2.6509   -1.7652 H   0  0  0  0  0  0  0  0  0  0  0  0
    9.1973    0.2129   -1.4303 H   0  0  0  0  0  0  0  0  0  0  0  0
    8.7991   -2.3602   -0.9235 H   0  0  0  0  0  0  0  0  0  0  0  0
    7.8972   -4.5898   -0.3750 H   0  0  0  0  0  0  0  0  0  0  0  0
    5.5266   -4.8649    0.2062 H   0  0  0  0  0  0  0  0  0  0  0  0
    4.0110   -2.9196    0.2375 H   0  0  0  0  0  0  0  0  0  0  0  0
   -0.6674    1.7844    1.2503 H   0  0  0  0  0  0  0  0  0  0  0  0
   -1.4001   -0.7700   -0.1985 H   0  0  0  0  0  0  0  0  0  0  0  0
   -5.0004    0.1656    2.4776 H   0  0  0  0  0  0  0  0  0  0  0  0
   -7.3522    0.4897    3.0955 H   0  0  0  0  0  0  0  0  0  0  0  0
   -9.0932    0.4738    1.3608 H   0  0  0  0  0  0  0  0  0  0  0  0
   -8.4773    0.1340   -0.9941 H   0  0  0  0  0  0  0  0  0  0  0  0
   -6.1207   -0.1763   -1.6150 H   0  0  0  0  0  0  0  0  0  0  0  0
   -4.9911   -2.6915   -0.1876 H   0  0  0  0  0  0  0  0  0  0  0  0
   -4.5406   -4.3948   -1.9015 H   0  0  0  0  0  0  0  0  0  0  0  0
   -2.9833   -3.9064   -3.7391 H   0  0  0  0  0  0  0  0  0  0  0  0
   -1.8940   -1.7076   -3.8748 H   0  0  0  0  0  0  0  0  0  0  0  0
   -2.3710    0.0060   -2.1857 H   0  0  0  0  0  0  0  0  0  0  0  0
   -4.4383    2.6761    0.0284 H   0  0  0  0  0  0  0  0  0  0  0  0
   -4.9062    4.6018    1.4813 H   0  0  0  0  0  0  0  0  0  0  0  0
   -3.9558    4.6902    3.7468 H   0  0  0  0  0  0  0  0  0  0  0  0
   -2.5422    2.8508    4.5586 H   0  0  0  0  0  0  0  0  0  0  0  0
   -2.0881    0.9196    3.1111 H   0  0  0  0  0  0  0  0  0  0  0  0
  1  2  1  0  0  0  0
  2  3  2  0  0  0  0
  3  4  1  0  0  0  0
  3  5  1  0  0  0  0
  5  6  1  0  0  0  0
  6  7  1  0  0  0  0
  7  8  2  0  0  0  0
  8  9  1  0  0  0  0
  9 10  2  0  0  0  0
 10 11  1  0  0  0  0
 11 12  2  0  0  0  0
 12 13  1  0  0  0  0
 13 14  2  0  0  0  0
 14 15  1  0  0  0  0
 15 16  2  0  0  0  0
 16 17  1  0  0  0  0
 17 18  2  0  0  0  0
  5 19  2  0  0  0  0
 19 20  1  0  0  0  0
 19 21  1  0  0  0  0
 21 22  1  0  0  0  0
 21 23  2  0  0  0  0
 23 24  1  0  0  0  0
 24 25  2  0  0  0  0
 25 26  1  0  0  0  0
 26 27  2  0  0  0  0
 27 28  1  0  0  0  0
 28 29  2  0  0  0  0
 29 30  1  0  0  0  0
 30 31  2  0  0  0  0
 31 32  1  0  0  0  0
 32 33  2  0  0  0  0
 27 34  1  0  0  0  0
 34 35  2  0  0  0  0
 35 36  1  0  0  0  0
 36 37  2  0  0  0  0
 37 38  1  0  0  0  0
 38 39  2  0  0  0  0
 26 40  1  0  0  0  0
 40 41  2  0  0  0  0
 41 42  1  0  0  0  0
 42 43  2  0  0  0  0
 43 44  1  0  0  0  0
 44 45  2  0  0  0  0
 23  2  1  0  0  0  0
 33 28  1  0  0  0  0
 39 34  1  0  0  0  0
 45 40  1  0  0  0  0
 18  6  1  0  0  0  0
 12  7  1  0  0  0  0
 18 13  1  0  0  0  0
  8 46  1  0  0  0  0
  9 47  1  0  0  0  0
 10 48  1  0  0  0  0
 11 49  1  0  0  0  0
 14 50  1  0  0  0  0
 15 51  1  0  0  0  0
 16 52  1  0  0  0  0
 17 53  1  0  0  0  0
 24 54  1  0  0  0  0
 25 55  1  0  0  0  0
 29 56  1  0  0  0  0
 30 57  1  0  0  0  0
 31 58  1  0  0  0  0
 32 59  1  0  0  0  0
 33 60  1  0  0  0  0
 35 61  1  0  0  0  0
 36 62  1  0  0  0  0
 37 63  1  0  0  0  0
 38 64  1  0  0  0  0
 39 65  1  0  0  0  0
 41 66  1  0  0  0  0
 42 67  1  0  0  0  0
 43 68  1  0  0  0  0
 44 69  1  0  0  0  0
 45 70  1  0  0  0  0
M  END
