
  xtb     03012221273D
 energy: -20.319481901526 gnorm: 0.000328104145 xtb: 6.4.1 (afa7bdf)
 96105  0     0  0            999 V2000
  -10.9776    5.4742   -0.7499 C   0  0  0  0  0  0  0  0  0  0  0  0
  -10.2740    4.1812   -0.5241 C   0  0  0  0  0  0  0  0  0  0  0  0
   -9.0693    3.9084   -1.1584 C   0  0  0  0  0  0  0  0  0  0  0  0
   -8.4048    2.7239   -0.9326 C   0  0  0  0  0  0  0  0  0  0  0  0
   -8.9227    1.7752   -0.0561 C   0  0  0  0  0  0  0  0  0  0  0  0
   -8.2368    0.5347    0.1756 N   0  0  0  0  0  0  0  0  0  0  0  0
   -8.9966   -0.6772    0.3070 C   0  0  0  0  0  0  0  0  0  0  0  0
  -10.1168   -0.9022   -0.4871 C   0  0  0  0  0  0  0  0  0  0  0  0
  -10.8456   -2.0635   -0.3606 C   0  0  0  0  0  0  0  0  0  0  0  0
  -10.4855   -3.0326    0.5664 C   0  0  0  0  0  0  0  0  0  0  0  0
  -11.2591   -4.2999    0.6819 C   0  0  0  0  0  0  0  0  0  0  0  0
   -9.3639   -2.8110    1.3548 C   0  0  0  0  0  0  0  0  0  0  0  0
   -8.6322   -1.6512    1.2316 C   0  0  0  0  0  0  0  0  0  0  0  0
   -6.8095    0.5042    0.2517 C   0  0  0  0  0  0  0  0  0  0  0  0
   -6.0913   -0.6084   -0.1824 C   0  0  0  0  0  0  0  0  0  0  0  0
   -4.7206   -0.6325   -0.1255 C   0  0  0  0  0  0  0  0  0  0  0  0
   -3.9947    0.4578    0.3694 C   0  0  0  0  0  0  0  0  0  0  0  0
   -2.5313    0.4592    0.4097 C   0  0  0  0  0  0  0  0  0  0  0  0
   -1.7940   -0.5217   -0.2193 C   0  0  0  0  0  0  0  0  0  0  0  0
   -0.3856   -0.5600   -0.2202 C   0  0  0  0  0  0  0  0  0  0  0  0
    0.3731    0.4227    0.4320 C   0  0  0  0  0  0  0  0  0  0  0  0
    1.7816    0.3895    0.4230 C   0  0  0  0  0  0  0  0  0  0  0  0
    2.5204   -0.5872   -0.2115 C   0  0  0  0  0  0  0  0  0  0  0  0
    3.9845   -0.5668   -0.2002 C   0  0  0  0  0  0  0  0  0  0  0  0
    4.7232   -1.5129   -0.9163 C   0  0  0  0  0  0  0  0  0  0  0  0
    6.0930   -1.5017   -0.9309 C   0  0  0  0  0  0  0  0  0  0  0  0
    6.8038   -0.5365   -0.2216 C   0  0  0  0  0  0  0  0  0  0  0  0
    8.2331   -0.5170   -0.2379 N   0  0  0  0  0  0  0  0  0  0  0  0
    8.9653   -0.0472    0.9051 C   0  0  0  0  0  0  0  0  0  0  0  0
    8.5447   -0.3513    2.1963 C   0  0  0  0  0  0  0  0  0  0  0  0
    9.2519    0.0974    3.2890 C   0  0  0  0  0  0  0  0  0  0  0  0
   10.3974    0.8657    3.1297 C   0  0  0  0  0  0  0  0  0  0  0  0
   11.1692    1.3284    4.3162 C   0  0  0  0  0  0  0  0  0  0  0  0
   10.8240    1.1595    1.8410 C   0  0  0  0  0  0  0  0  0  0  0  0
   10.1198    0.7131    0.7454 C   0  0  0  0  0  0  0  0  0  0  0  0
    8.9500   -0.9722   -1.3963 C   0  0  0  0  0  0  0  0  0  0  0  0
   10.1253   -1.7048   -1.2617 C   0  0  0  0  0  0  0  0  0  0  0  0
   10.8117   -2.1420   -2.3723 C   0  0  0  0  0  0  0  0  0  0  0  0
   10.3459   -1.8667   -3.6514 C   0  0  0  0  0  0  0  0  0  0  0  0
   11.1000   -2.3197   -4.8531 C   0  0  0  0  0  0  0  0  0  0  0  0
    9.1800   -1.1246   -3.7860 C   0  0  0  0  0  0  0  0  0  0  0  0
    8.4907   -0.6852   -2.6782 C   0  0  0  0  0  0  0  0  0  0  0  0
    6.0809    0.4095    0.5026 C   0  0  0  0  0  0  0  0  0  0  0  0
    4.7089    0.3958    0.5142 C   0  0  0  0  0  0  0  0  0  0  0  0
    1.7802   -1.6295   -0.9008 C   0  0  0  0  0  0  0  0  0  0  0  0
    2.2637   -2.6533   -1.5666 N   0  0  0  0  0  0  0  0  0  0  0  0
    1.0109   -3.5378   -2.1581 S   0  0  0  0  0  0  0  0  0  0  0  0
   -0.2101   -2.6120   -1.5608 N   0  0  0  0  0  0  0  0  0  0  0  0
    0.3252   -1.6122   -0.9014 C   0  0  0  0  0  0  0  0  0  0  0  0
   -0.3375    1.4790    1.1076 C   0  0  0  0  0  0  0  0  0  0  0  0
    0.1970    2.4806    1.7649 N   0  0  0  0  0  0  0  0  0  0  0  0
   -1.0248    3.4140    2.3495 S   0  0  0  0  0  0  0  0  0  0  0  0
   -2.2773    2.5314    1.7538 N   0  0  0  0  0  0  0  0  0  0  0  0
   -1.7922    1.5026    1.0971 C   0  0  0  0  0  0  0  0  0  0  0  0
   -4.7281    1.5602    0.8167 C   0  0  0  0  0  0  0  0  0  0  0  0
   -6.0967    1.5887    0.7580 C   0  0  0  0  0  0  0  0  0  0  0  0
  -10.1264    2.0519    0.5848 C   0  0  0  0  0  0  0  0  0  0  0  0
  -10.7876    3.2377    0.3560 C   0  0  0  0  0  0  0  0  0  0  0  0
  -10.6479    6.2249   -0.0309 H   0  0  0  0  0  0  0  0  0  0  0  0
  -12.0570    5.3585   -0.6451 H   0  0  0  0  0  0  0  0  0  0  0  0
  -10.7821    5.8588   -1.7516 H   0  0  0  0  0  0  0  0  0  0  0  0
   -8.6561    4.6376   -1.8345 H   0  0  0  0  0  0  0  0  0  0  0  0
   -7.4796    2.5129   -1.4393 H   0  0  0  0  0  0  0  0  0  0  0  0
  -10.3984   -0.1573   -1.2102 H   0  0  0  0  0  0  0  0  0  0  0  0
  -11.7057   -2.2310   -0.9865 H   0  0  0  0  0  0  0  0  0  0  0  0
  -11.2128   -4.6984    1.6960 H   0  0  0  0  0  0  0  0  0  0  0  0
  -12.3100   -4.1433    0.4358 H   0  0  0  0  0  0  0  0  0  0  0  0
  -10.8641   -5.0574    0.0041 H   0  0  0  0  0  0  0  0  0  0  0  0
   -9.0693   -3.5608    2.0694 H   0  0  0  0  0  0  0  0  0  0  0  0
   -7.7726   -1.4798    1.8553 H   0  0  0  0  0  0  0  0  0  0  0  0
   -6.6316   -1.4500   -0.5788 H   0  0  0  0  0  0  0  0  0  0  0  0
   -4.2032   -1.5146   -0.4566 H   0  0  0  0  0  0  0  0  0  0  0  0
   -2.2924   -1.3009   -0.7627 H   0  0  0  0  0  0  0  0  0  0  0  0
    2.2775    1.1889    0.9379 H   0  0  0  0  0  0  0  0  0  0  0  0
    4.1995   -2.2688   -1.4684 H   0  0  0  0  0  0  0  0  0  0  0  0
    6.6374   -2.2484   -1.4816 H   0  0  0  0  0  0  0  0  0  0  0  0
    7.6631   -0.9536    2.3271 H   0  0  0  0  0  0  0  0  0  0  0  0
    8.9207   -0.1482    4.2838 H   0  0  0  0  0  0  0  0  0  0  0  0
   11.8099    0.5318    4.6961 H   0  0  0  0  0  0  0  0  0  0  0  0
   11.8035    2.1802    4.0682 H   0  0  0  0  0  0  0  0  0  0  0  0
   10.5013    1.6367    5.1214 H   0  0  0  0  0  0  0  0  0  0  0  0
   11.7177    1.7446    1.7049 H   0  0  0  0  0  0  0  0  0  0  0  0
   10.4499    0.9522   -0.2501 H   0  0  0  0  0  0  0  0  0  0  0  0
   10.4854   -1.9311   -0.2737 H   0  0  0  0  0  0  0  0  0  0  0  0
   11.7217   -2.7057   -2.2558 H   0  0  0  0  0  0  0  0  0  0  0  0
   11.7664   -1.5341   -5.2110 H   0  0  0  0  0  0  0  0  0  0  0  0
   11.7052   -3.1993   -4.6309 H   0  0  0  0  0  0  0  0  0  0  0  0
   10.4216   -2.5818   -5.6658 H   0  0  0  0  0  0  0  0  0  0  0  0
    8.8181   -0.8926   -4.7734 H   0  0  0  0  0  0  0  0  0  0  0  0
    7.5923   -0.1041   -2.7902 H   0  0  0  0  0  0  0  0  0  0  0  0
    6.6195    1.1658    1.0460 H   0  0  0  0  0  0  0  0  0  0  0  0
    4.1906    1.1409    1.0894 H   0  0  0  0  0  0  0  0  0  0  0  0
   -4.2005    2.4036    1.2187 H   0  0  0  0  0  0  0  0  0  0  0  0
   -6.6389    2.4464    1.1152 H   0  0  0  0  0  0  0  0  0  0  0  0
  -10.5278    1.3266    1.2703 H   0  0  0  0  0  0  0  0  0  0  0  0
  -11.7143    3.4448    0.8638 H   0  0  0  0  0  0  0  0  0  0  0  0
  1  2  1  0  0  0  0
  2  3  2  0  0  0  0
  3  4  1  0  0  0  0
  4  5  2  0  0  0  0
  5  6  1  0  0  0  0
  6  7  1  0  0  0  0
  7  8  2  0  0  0  0
  8  9  1  0  0  0  0
  9 10  2  0  0  0  0
 10 11  1  0  0  0  0
 10 12  1  0  0  0  0
 12 13  2  0  0  0  0
  6 14  1  0  0  0  0
 14 15  2  0  0  0  0
 15 16  1  0  0  0  0
 16 17  2  0  0  0  0
 17 18  1  0  0  0  0
 18 19  2  0  0  0  0
 19 20  1  0  0  0  0
 20 21  2  0  0  0  0
 21 22  1  0  0  0  0
 22 23  2  0  0  0  0
 23 24  1  0  0  0  0
 24 25  2  0  0  0  0
 25 26  1  0  0  0  0
 26 27  2  0  0  0  0
 27 28  1  0  0  0  0
 28 29  1  0  0  0  0
 29 30  2  0  0  0  0
 30 31  1  0  0  0  0
 31 32  2  0  0  0  0
 32 33  1  0  0  0  0
 32 34  1  0  0  0  0
 34 35  2  0  0  0  0
 28 36  1  0  0  0  0
 36 37  2  0  0  0  0
 37 38  1  0  0  0  0
 38 39  2  0  0  0  0
 39 40  1  0  0  0  0
 39 41  1  0  0  0  0
 41 42  2  0  0  0  0
 27 43  1  0  0  0  0
 43 44  2  0  0  0  0
 23 45  1  0  0  0  0
 45 46  2  0  0  0  0
 46 47  1  0  0  0  0
 47 48  1  0  0  0  0
 48 49  2  0  0  0  0
 21 50  1  0  0  0  0
 50 51  2  0  0  0  0
 51 52  1  0  0  0  0
 52 53  1  0  0  0  0
 53 54  2  0  0  0  0
 17 55  1  0  0  0  0
 55 56  2  0  0  0  0
  5 57  1  0  0  0  0
 57 58  2  0  0  0  0
 58  2  1  0  0  0  0
 13  7  1  0  0  0  0
 56 14  1  0  0  0  0
 54 18  1  0  0  0  0
 49 20  1  0  0  0  0
 54 50  1  0  0  0  0
 44 24  1  0  0  0  0
 49 45  1  0  0  0  0
 35 29  1  0  0  0  0
 42 36  1  0  0  0  0
  1 59  1  0  0  0  0
  1 60  1  0  0  0  0
  1 61  1  0  0  0  0
  3 62  1  0  0  0  0
  4 63  1  0  0  0  0
  8 64  1  0  0  0  0
  9 65  1  0  0  0  0
 11 66  1  0  0  0  0
 11 67  1  0  0  0  0
 11 68  1  0  0  0  0
 12 69  1  0  0  0  0
 13 70  1  0  0  0  0
 15 71  1  0  0  0  0
 16 72  1  0  0  0  0
 19 73  1  0  0  0  0
 22 74  1  0  0  0  0
 25 75  1  0  0  0  0
 26 76  1  0  0  0  0
 30 77  1  0  0  0  0
 31 78  1  0  0  0  0
 33 79  1  0  0  0  0
 33 80  1  0  0  0  0
 33 81  1  0  0  0  0
 34 82  1  0  0  0  0
 35 83  1  0  0  0  0
 37 84  1  0  0  0  0
 38 85  1  0  0  0  0
 40 86  1  0  0  0  0
 40 87  1  0  0  0  0
 40 88  1  0  0  0  0
 41 89  1  0  0  0  0
 42 90  1  0  0  0  0
 43 91  1  0  0  0  0
 44 92  1  0  0  0  0
 55 93  1  0  0  0  0
 56 94  1  0  0  0  0
 57 95  1  0  0  0  0
 58 96  1  0  0  0  0
M  END
