
  xtb     03012221303D
 energy: -23.468826460857 gnorm: 0.000080841485 xtb: 6.4.1 (afa7bdf)
140143  0     0  0            999 V2000
    6.8603    2.4787    5.0188 C   0  0  0  0  0  0  0  0  0  0  0  0
    6.5978    3.5574    3.9788 C   0  0  0  0  0  0  0  0  0  0  0  0
    5.8759    3.0313    2.7342 C   0  0  0  0  0  0  0  0  0  0  0  0
    6.7255    2.0787    1.8886 C   0  0  0  0  0  0  0  0  0  0  0  0
    5.9923    1.5546    0.6488 C   0  0  0  0  0  0  0  0  0  0  0  0
    4.8778    0.5646    0.9888 C   0  0  0  0  0  0  0  0  0  0  0  0
    3.9926    0.2024   -0.2030 C   0  0  0  0  0  0  0  0  0  0  0  0
    4.7045   -0.5886   -1.3014 C   0  0  0  0  0  0  0  0  0  0  0  0
    3.7476   -0.9438   -2.4370 C   0  0  0  0  0  0  0  0  0  0  0  0
    4.3402   -1.8308   -3.5318 C   0  0  0  0  0  0  0  0  0  0  0  0
    3.2709   -2.3000   -4.5264 C   0  0  0  0  0  0  0  0  0  0  0  0
    2.7490   -1.2000   -5.4491 C   0  0  0  0  0  0  0  0  0  0  0  0
    1.4025   -1.5111   -5.9630 N   0  0  0  0  0  0  0  0  0  0  0  0
    1.1576   -1.9896   -7.2270 C   0  0  0  0  0  0  0  0  0  0  0  0
   -0.1561   -2.3799   -7.2989 C   0  0  0  0  0  0  0  0  0  0  0  0
   -0.7374   -2.1569   -6.0530 C   0  0  0  0  0  0  0  0  0  0  0  0
    0.2247   -1.6051   -5.2194 C   0  0  0  0  0  0  0  0  0  0  0  0
    0.0350   -1.2854   -3.8196 C   0  0  0  0  0  0  0  0  0  0  0  0
    0.6874   -0.2996   -3.1767 C   0  0  0  0  0  0  0  0  0  0  0  0
    0.6181    0.0206   -1.7607 C   0  0  0  0  0  0  0  0  0  0  0  0
    0.8398    1.3479   -1.4237 C   0  0  0  0  0  0  0  0  0  0  0  0
    0.7216    1.8032   -0.1309 C   0  0  0  0  0  0  0  0  0  0  0  0
    0.3126    0.9665    0.8965 C   0  0  0  0  0  0  0  0  0  0  0  0
    0.2446    1.4431    2.2123 O   0  0  0  0  0  0  0  0  0  0  0  0
    1.2705    2.3722    2.5611 C   0  0  0  0  0  0  0  0  0  0  0  0
    1.5196    2.4190    4.0645 C   0  0  0  0  0  0  0  0  0  0  0  0
    1.6374    1.0292    4.6903 C   0  0  0  0  0  0  0  0  0  0  0  0
    2.7156    0.1648    4.0621 C   0  0  0  0  0  0  0  0  0  0  0  0
    0.0059   -0.4047    0.5918 C   0  0  0  0  0  0  0  0  0  0  0  0
   -0.5537   -1.2851    1.5772 C   0  0  0  0  0  0  0  0  0  0  0  0
   -1.0872   -0.7778    2.8203 C   0  0  0  0  0  0  0  0  0  0  0  0
   -1.7865   -1.4613    3.7430 C   0  0  0  0  0  0  0  0  0  0  0  0
   -2.3807   -0.8782    4.9232 C   0  0  0  0  0  0  0  0  0  0  0  0
   -2.8449   -1.6210    5.9997 C   0  0  0  0  0  0  0  0  0  0  0  0
   -3.3896   -0.7453    6.9349 C   0  0  0  0  0  0  0  0  0  0  0  0
   -3.2742    0.5260    6.4344 C   0  0  0  0  0  0  0  0  0  0  0  0
   -2.6622    0.4605    5.2062 N   0  0  0  0  0  0  0  0  0  0  0  0
   -2.4463    1.6475    4.3601 C   0  0  0  0  0  0  0  0  0  0  0  0
   -3.2243    1.5941    3.0509 C   0  0  0  0  0  0  0  0  0  0  0  0
   -2.7686    2.6543    2.0462 C   0  0  0  0  0  0  0  0  0  0  0  0
   -3.3543    2.4535    0.6469 C   0  0  0  0  0  0  0  0  0  0  0  0
   -4.8750    2.6011    0.6021 C   0  0  0  0  0  0  0  0  0  0  0  0
   -5.4635    2.4725   -0.8058 C   0  0  0  0  0  0  0  0  0  0  0  0
   -5.3093    1.0742   -1.4065 C   0  0  0  0  0  0  0  0  0  0  0  0
   -5.9556    0.9281   -2.7877 C   0  0  0  0  0  0  0  0  0  0  0  0
   -7.4811    1.0370   -2.7637 C   0  0  0  0  0  0  0  0  0  0  0  0
   -8.1180    0.8276   -4.1378 C   0  0  0  0  0  0  0  0  0  0  0  0
   -9.6428    0.9465   -4.1129 C   0  0  0  0  0  0  0  0  0  0  0  0
  -10.2726    0.7413   -5.4817 C   0  0  0  0  0  0  0  0  0  0  0  0
   -0.6379   -2.6358    1.2838 C   0  0  0  0  0  0  0  0  0  0  0  0
   -0.1625   -3.1529    0.0990 C   0  0  0  0  0  0  0  0  0  0  0  0
    0.3614   -2.3379   -0.8963 C   0  0  0  0  0  0  0  0  0  0  0  0
    1.0420   -2.8473   -2.0065 O   0  0  0  0  0  0  0  0  0  0  0  0
    0.8393   -4.2251   -2.3444 C   0  0  0  0  0  0  0  0  0  0  0  0
    2.0619   -5.1060   -2.1059 C   0  0  0  0  0  0  0  0  0  0  0  0
    2.5166   -5.1831   -0.6469 C   0  0  0  0  0  0  0  0  0  0  0  0
    3.1976   -3.9176   -0.1553 C   0  0  0  0  0  0  0  0  0  0  0  0
    0.3084   -0.9103   -0.7074 C   0  0  0  0  0  0  0  0  0  0  0  0
    5.9310    1.9974    5.3306 H   0  0  0  0  0  0  0  0  0  0  0  0
    7.3369    2.8817    5.9157 H   0  0  0  0  0  0  0  0  0  0  0  0
    7.5137    1.6956    4.6305 H   0  0  0  0  0  0  0  0  0  0  0  0
    6.0087    4.3672    4.4327 H   0  0  0  0  0  0  0  0  0  0  0  0
    7.5433    4.0276    3.6771 H   0  0  0  0  0  0  0  0  0  0  0  0
    4.9503    2.5333    3.0437 H   0  0  0  0  0  0  0  0  0  0  0  0
    5.5495    3.8698    2.1044 H   0  0  0  0  0  0  0  0  0  0  0  0
    7.0531    1.2289    2.4982 H   0  0  0  0  0  0  0  0  0  0  0  0
    7.6489    2.5938    1.5930 H   0  0  0  0  0  0  0  0  0  0  0  0
    6.7025    1.0802   -0.0410 H   0  0  0  0  0  0  0  0  0  0  0  0
    5.5724    2.4013    0.0915 H   0  0  0  0  0  0  0  0  0  0  0  0
    5.3103   -0.3456    1.4221 H   0  0  0  0  0  0  0  0  0  0  0  0
    4.2559    0.9902    1.7837 H   0  0  0  0  0  0  0  0  0  0  0  0
    3.1230   -0.3739    0.1413 H   0  0  0  0  0  0  0  0  0  0  0  0
    3.5704    1.1190   -0.6335 H   0  0  0  0  0  0  0  0  0  0  0  0
    5.5535   -0.0185   -1.6955 H   0  0  0  0  0  0  0  0  0  0  0  0
    5.1406   -1.5007   -0.8779 H   0  0  0  0  0  0  0  0  0  0  0  0
    2.8687   -1.4464   -2.0161 H   0  0  0  0  0  0  0  0  0  0  0  0
    3.3592   -0.0183   -2.8762 H   0  0  0  0  0  0  0  0  0  0  0  0
    4.8255   -2.6976   -3.0643 H   0  0  0  0  0  0  0  0  0  0  0  0
    5.1407   -1.2987   -4.0596 H   0  0  0  0  0  0  0  0  0  0  0  0
    3.6353   -3.1413   -5.1296 H   0  0  0  0  0  0  0  0  0  0  0  0
    2.4232   -2.7035   -3.9614 H   0  0  0  0  0  0  0  0  0  0  0  0
    2.7107   -0.2376   -4.9376 H   0  0  0  0  0  0  0  0  0  0  0  0
    3.4266   -1.0468   -6.2949 H   0  0  0  0  0  0  0  0  0  0  0  0
    1.8949   -2.0622   -8.0098 H   0  0  0  0  0  0  0  0  0  0  0  0
   -0.6458   -2.8065   -8.1607 H   0  0  0  0  0  0  0  0  0  0  0  0
   -1.7554   -2.3767   -5.7735 H   0  0  0  0  0  0  0  0  0  0  0  0
   -0.6497   -1.8960   -3.2584 H   0  0  0  0  0  0  0  0  0  0  0  0
    1.2489    0.3891   -3.7829 H   0  0  0  0  0  0  0  0  0  0  0  0
    1.1012    2.0424   -2.2047 H   0  0  0  0  0  0  0  0  0  0  0  0
    0.9155    2.8382    0.0841 H   0  0  0  0  0  0  0  0  0  0  0  0
    0.9886    3.3579    2.1741 H   0  0  0  0  0  0  0  0  0  0  0  0
    2.1803    2.0678    2.0330 H   0  0  0  0  0  0  0  0  0  0  0  0
    2.4262    3.0000    4.2738 H   0  0  0  0  0  0  0  0  0  0  0  0
    0.7022    2.9679    4.5475 H   0  0  0  0  0  0  0  0  0  0  0  0
    1.8163    1.1234    5.7716 H   0  0  0  0  0  0  0  0  0  0  0  0
    0.6701    0.5158    4.6094 H   0  0  0  0  0  0  0  0  0  0  0  0
    2.5026   -0.0266    3.0091 H   0  0  0  0  0  0  0  0  0  0  0  0
    3.6927    0.6467    4.1207 H   0  0  0  0  0  0  0  0  0  0  0  0
    2.7997   -0.8068    4.5542 H   0  0  0  0  0  0  0  0  0  0  0  0
   -0.9323    0.2630    3.0024 H   0  0  0  0  0  0  0  0  0  0  0  0
   -1.9386   -2.5159    3.6098 H   0  0  0  0  0  0  0  0  0  0  0  0
   -2.7901   -2.6943    6.0888 H   0  0  0  0  0  0  0  0  0  0  0  0
   -3.8326   -1.0194    7.8799 H   0  0  0  0  0  0  0  0  0  0  0  0
   -3.6101    1.4351    6.9059 H   0  0  0  0  0  0  0  0  0  0  0  0
   -1.3742    1.7524    4.1809 H   0  0  0  0  0  0  0  0  0  0  0  0
   -2.7266    2.5392    4.9294 H   0  0  0  0  0  0  0  0  0  0  0  0
   -3.1181    0.6011    2.6013 H   0  0  0  0  0  0  0  0  0  0  0  0
   -4.2970    1.6894    3.2555 H   0  0  0  0  0  0  0  0  0  0  0  0
   -3.0241    3.6528    2.4216 H   0  0  0  0  0  0  0  0  0  0  0  0
   -1.6726    2.6413    1.9898 H   0  0  0  0  0  0  0  0  0  0  0  0
   -2.9023    3.1650   -0.0566 H   0  0  0  0  0  0  0  0  0  0  0  0
   -3.0655    1.4627    0.2765 H   0  0  0  0  0  0  0  0  0  0  0  0
   -5.3378    1.8523    1.2552 H   0  0  0  0  0  0  0  0  0  0  0  0
   -5.1504    3.5707    1.0370 H   0  0  0  0  0  0  0  0  0  0  0  0
   -6.5268    2.7427   -0.7838 H   0  0  0  0  0  0  0  0  0  0  0  0
   -4.9950    3.2093   -1.4701 H   0  0  0  0  0  0  0  0  0  0  0  0
   -5.7415    0.3345   -0.7215 H   0  0  0  0  0  0  0  0  0  0  0  0
   -4.2434    0.8203   -1.4668 H   0  0  0  0  0  0  0  0  0  0  0  0
   -5.5451    1.6857   -3.4670 H   0  0  0  0  0  0  0  0  0  0  0  0
   -5.6752   -0.0364   -3.2323 H   0  0  0  0  0  0  0  0  0  0  0  0
   -7.8905    0.3080   -2.0536 H   0  0  0  0  0  0  0  0  0  0  0  0
   -7.7822    2.0156   -2.3724 H   0  0  0  0  0  0  0  0  0  0  0  0
   -7.8310   -0.1551   -4.5322 H   0  0  0  0  0  0  0  0  0  0  0  0
   -7.7036    1.5518   -4.8502 H   0  0  0  0  0  0  0  0  0  0  0  0
   -9.9231    1.9298   -3.7114 H   0  0  0  0  0  0  0  0  0  0  0  0
  -10.0513    0.2216   -3.3958 H   0  0  0  0  0  0  0  0  0  0  0  0
  -10.0343   -0.2462   -5.8821 H   0  0  0  0  0  0  0  0  0  0  0  0
   -9.9047    1.4767   -6.2001 H   0  0  0  0  0  0  0  0  0  0  0  0
  -11.3613    0.8290   -5.4506 H   0  0  0  0  0  0  0  0  0  0  0  0
   -1.0440   -3.3110    2.0157 H   0  0  0  0  0  0  0  0  0  0  0  0
   -0.1617   -4.2191   -0.0222 H   0  0  0  0  0  0  0  0  0  0  0  0
    0.5753   -4.2321   -3.4097 H   0  0  0  0  0  0  0  0  0  0  0  0
   -0.0471   -4.6133   -1.8376 H   0  0  0  0  0  0  0  0  0  0  0  0
    1.8553   -6.1161   -2.4837 H   0  0  0  0  0  0  0  0  0  0  0  0
    2.8940   -4.7341   -2.7133 H   0  0  0  0  0  0  0  0  0  0  0  0
    3.2058   -6.0319   -0.5209 H   0  0  0  0  0  0  0  0  0  0  0  0
    1.6572   -5.4282   -0.0091 H   0  0  0  0  0  0  0  0  0  0  0  0
    3.4970   -3.9903    0.8927 H   0  0  0  0  0  0  0  0  0  0  0  0
    2.5424   -3.0524   -0.2469 H   0  0  0  0  0  0  0  0  0  0  0  0
    4.0941   -3.7033   -0.7388 H   0  0  0  0  0  0  0  0  0  0  0  0
  1  2  1  0  0  0  0
  2  3  1  0  0  0  0
  3  4  1  0  0  0  0
  4  5  1  0  0  0  0
  5  6  1  0  0  0  0
  6  7  1  0  0  0  0
  7  8  1  0  0  0  0
  8  9  1  0  0  0  0
  9 10  1  0  0  0  0
 10 11  1  0  0  0  0
 11 12  1  0  0  0  0
 12 13  1  0  0  0  0
 13 14  1  0  0  0  0
 14 15  2  0  0  0  0
 15 16  1  0  0  0  0
 16 17  2  0  0  0  0
 17 18  1  0  0  0  0
 18 19  2  0  0  0  0
 19 20  1  0  0  0  0
 20 21  2  0  0  0  0
 21 22  1  0  0  0  0
 22 23  2  0  0  0  0
 23 24  1  0  0  0  0
 24 25  1  0  0  0  0
 25 26  1  0  0  0  0
 26 27  1  0  0  0  0
 27 28  1  0  0  0  0
 23 29  1  0  0  0  0
 29 30  2  0  0  0  0
 30 31  1  0  0  0  0
 31 32  2  0  0  0  0
 32 33  1  0  0  0  0
 33 34  2  0  0  0  0
 34 35  1  0  0  0  0
 35 36  2  0  0  0  0
 36 37  1  0  0  0  0
 37 38  1  0  0  0  0
 38 39  1  0  0  0  0
 39 40  1  0  0  0  0
 40 41  1  0  0  0  0
 41 42  1  0  0  0  0
 42 43  1  0  0  0  0
 43 44  1  0  0  0  0
 44 45  1  0  0  0  0
 45 46  1  0  0  0  0
 46 47  1  0  0  0  0
 47 48  1  0  0  0  0
 48 49  1  0  0  0  0
 30 50  1  0  0  0  0
 50 51  2  0  0  0  0
 51 52  1  0  0  0  0
 52 53  1  0  0  0  0
 53 54  1  0  0  0  0
 54 55  1  0  0  0  0
 55 56  1  0  0  0  0
 56 57  1  0  0  0  0
 52 58  2  0  0  0  0
 17 13  1  0  0  0  0
 58 20  1  0  0  0  0
 58 29  1  0  0  0  0
 37 33  1  0  0  0  0
  1 59  1  0  0  0  0
  1 60  1  0  0  0  0
  1 61  1  0  0  0  0
  2 62  1  0  0  0  0
  2 63  1  0  0  0  0
  3 64  1  0  0  0  0
  3 65  1  0  0  0  0
  4 66  1  0  0  0  0
  4 67  1  0  0  0  0
  5 68  1  0  0  0  0
  5 69  1  0  0  0  0
  6 70  1  0  0  0  0
  6 71  1  0  0  0  0
  7 72  1  0  0  0  0
  7 73  1  0  0  0  0
  8 74  1  0  0  0  0
  8 75  1  0  0  0  0
  9 76  1  0  0  0  0
  9 77  1  0  0  0  0
 10 78  1  0  0  0  0
 10 79  1  0  0  0  0
 11 80  1  0  0  0  0
 11 81  1  0  0  0  0
 12 82  1  0  0  0  0
 12 83  1  0  0  0  0
 14 84  1  0  0  0  0
 15 85  1  0  0  0  0
 16 86  1  0  0  0  0
 18 87  1  0  0  0  0
 19 88  1  0  0  0  0
 21 89  1  0  0  0  0
 22 90  1  0  0  0  0
 25 91  1  0  0  0  0
 25 92  1  0  0  0  0
 26 93  1  0  0  0  0
 26 94  1  0  0  0  0
 27 95  1  0  0  0  0
 27 96  1  0  0  0  0
 28 97  1  0  0  0  0
 28 98  1  0  0  0  0
 28 99  1  0  0  0  0
 31100  1  0  0  0  0
 32101  1  0  0  0  0
 34102  1  0  0  0  0
 35103  1  0  0  0  0
 36104  1  0  0  0  0
 38105  1  0  0  0  0
 38106  1  0  0  0  0
 39107  1  0  0  0  0
 39108  1  0  0  0  0
 40109  1  0  0  0  0
 40110  1  0  0  0  0
 41111  1  0  0  0  0
 41112  1  0  0  0  0
 42113  1  0  0  0  0
 42114  1  0  0  0  0
 43115  1  0  0  0  0
 43116  1  0  0  0  0
 44117  1  0  0  0  0
 44118  1  0  0  0  0
 45119  1  0  0  0  0
 45120  1  0  0  0  0
 46121  1  0  0  0  0
 46122  1  0  0  0  0
 47123  1  0  0  0  0
 47124  1  0  0  0  0
 48125  1  0  0  0  0
 48126  1  0  0  0  0
 49127  1  0  0  0  0
 49128  1  0  0  0  0
 49129  1  0  0  0  0
 50130  1  0  0  0  0
 51131  1  0  0  0  0
 54132  1  0  0  0  0
 54133  1  0  0  0  0
 55134  1  0  0  0  0
 55135  1  0  0  0  0
 56136  1  0  0  0  0
 56137  1  0  0  0  0
 57138  1  0  0  0  0
 57139  1  0  0  0  0
 57140  1  0  0  0  0
M  END
