
  xtb     03012221253D
 energy: -10.298854812680 gnorm: 0.000759799033 xtb: 6.4.1 (afa7bdf)
 53 56  0     0  0            999 V2000
    3.7095    3.7356   -0.3218 C   0  0  0  0  0  0  0  0  0  0  0  0
    4.5530    2.6257   -0.1197 O   0  0  0  0  0  0  0  0  0  0  0  0
    3.9019    1.3997    0.0749 C   0  0  0  0  0  0  0  0  0  0  0  0
    2.5233    1.2687   -0.0152 C   0  0  0  0  0  0  0  0  0  0  0  0
    1.8767    0.0522    0.1898 C   0  0  0  0  0  0  0  0  0  0  0  0
    0.4289   -0.0596    0.0871 C   0  0  0  0  0  0  0  0  0  0  0  0
   -0.4455    0.9255   -0.2264 C   0  0  0  0  0  0  0  0  0  0  0  0
   -1.8034    0.4273   -0.2341 C   0  0  0  0  0  0  0  0  0  0  0  0
   -2.9761    1.2863   -0.4882 C   0  0  0  0  0  0  0  0  0  0  0  0
   -3.0378    2.0836   -1.6294 C   0  0  0  0  0  0  0  0  0  0  0  0
   -4.1285    2.8895   -1.8670 C   0  0  0  0  0  0  0  0  0  0  0  0
   -5.1745    2.9186   -0.9661 C   0  0  0  0  0  0  0  0  0  0  0  0
   -5.1276    2.1429    0.1753 C   0  0  0  0  0  0  0  0  0  0  0  0
   -4.0377    1.3364    0.4140 C   0  0  0  0  0  0  0  0  0  0  0  0
   -1.7987   -0.9154    0.0658 C   0  0  0  0  0  0  0  0  0  0  0  0
   -2.9206   -1.8445    0.0783 C   0  0  0  0  0  0  0  0  0  0  0  0
   -2.8227   -3.0630    0.7574 C   0  0  0  0  0  0  0  0  0  0  0  0
   -3.8683   -3.9574    0.7650 C   0  0  0  0  0  0  0  0  0  0  0  0
   -5.0352   -3.6632    0.0874 C   0  0  0  0  0  0  0  0  0  0  0  0
   -5.1517   -2.4726   -0.6023 C   0  0  0  0  0  0  0  0  0  0  0  0
   -4.1078   -1.5771   -0.6099 C   0  0  0  0  0  0  0  0  0  0  0  0
   -0.3698   -1.3096    0.3220 C   0  0  0  0  0  0  0  0  0  0  0  0
    2.6507   -1.0638    0.4960 C   0  0  0  0  0  0  0  0  0  0  0  0
    4.0311   -0.9910    0.5929 C   0  0  0  0  0  0  0  0  0  0  0  0
    4.8457   -2.0907    0.8918 O   0  0  0  0  0  0  0  0  0  0  0  0
    4.1620   -3.2965    1.1402 C   0  0  0  0  0  0  0  0  0  0  0  0
    4.6793    0.2522    0.3780 C   0  0  0  0  0  0  0  0  0  0  0  0
    6.0692    0.2405    0.4906 O   0  0  0  0  0  0  0  0  0  0  0  0
    6.7273    1.4305    0.1433 C   0  0  0  0  0  0  0  0  0  0  0  0
    4.3289    4.6284   -0.4127 H   0  0  0  0  0  0  0  0  0  0  0  0
    3.0414    3.8557    0.5318 H   0  0  0  0  0  0  0  0  0  0  0  0
    3.1402    3.6081   -1.2432 H   0  0  0  0  0  0  0  0  0  0  0  0
    1.9288    2.1287   -0.2497 H   0  0  0  0  0  0  0  0  0  0  0  0
   -0.1844    1.9452   -0.4415 H   0  0  0  0  0  0  0  0  0  0  0  0
   -2.2200    2.0531   -2.3299 H   0  0  0  0  0  0  0  0  0  0  0  0
   -4.1654    3.4975   -2.7552 H   0  0  0  0  0  0  0  0  0  0  0  0
   -6.0281    3.5508   -1.1528 H   0  0  0  0  0  0  0  0  0  0  0  0
   -5.9431    2.1689    0.8781 H   0  0  0  0  0  0  0  0  0  0  0  0
   -3.9933    0.7301    1.3035 H   0  0  0  0  0  0  0  0  0  0  0  0
   -1.9144   -3.2963    1.2869 H   0  0  0  0  0  0  0  0  0  0  0  0
   -3.7771   -4.8880    1.2996 H   0  0  0  0  0  0  0  0  0  0  0  0
   -5.8539   -4.3652    0.0932 H   0  0  0  0  0  0  0  0  0  0  0  0
   -6.0584   -2.2477   -1.1384 H   0  0  0  0  0  0  0  0  0  0  0  0
   -4.1937   -0.6635   -1.1717 H   0  0  0  0  0  0  0  0  0  0  0  0
   -0.2388   -1.6640    1.3507 H   0  0  0  0  0  0  0  0  0  0  0  0
   -0.0587   -2.1095   -0.3597 H   0  0  0  0  0  0  0  0  0  0  0  0
    2.1567   -2.0023    0.6541 H   0  0  0  0  0  0  0  0  0  0  0  0
    3.6131   -3.6031    0.2489 H   0  0  0  0  0  0  0  0  0  0  0  0
    4.8977   -4.0638    1.3837 H   0  0  0  0  0  0  0  0  0  0  0  0
    3.4858   -3.1726    1.9871 H   0  0  0  0  0  0  0  0  0  0  0  0
    6.4444    1.7132   -0.8718 H   0  0  0  0  0  0  0  0  0  0  0  0
    6.4348    2.2148    0.8432 H   0  0  0  0  0  0  0  0  0  0  0  0
    7.8047    1.2703    0.1959 H   0  0  0  0  0  0  0  0  0  0  0  0
  1  2  1  0  0  0  0
  2  3  1  0  0  0  0
  3  4  2  0  0  0  0
  4  5  1  0  0  0  0
  5  6  1  0  0  0  0
  6  7  2  0  0  0  0
  7  8  1  0  0  0  0
  8  9  1  0  0  0  0
  9 10  2  0  0  0  0
 10 11  1  0  0  0  0
 11 12  2  0  0  0  0
 12 13  1  0  0  0  0
 13 14  2  0  0  0  0
  8 15  2  0  0  0  0
 15 16  1  0  0  0  0
 16 17  2  0  0  0  0
 17 18  1  0  0  0  0
 18 19  2  0  0  0  0
 19 20  1  0  0  0  0
 20 21  2  0  0  0  0
 15 22  1  0  0  0  0
  5 23  2  0  0  0  0
 23 24  1  0  0  0  0
 24 25  1  0  0  0  0
 25 26  1  0  0  0  0
 24 27  2  0  0  0  0
 27 28  1  0  0  0  0
 28 29  1  0  0  0  0
 27  3  1  0  0  0  0
 22  6  1  0  0  0  0
 14  9  1  0  0  0  0
 21 16  1  0  0  0  0
  1 30  1  0  0  0  0
  1 31  1  0  0  0  0
  1 32  1  0  0  0  0
  4 33  1  0  0  0  0
  7 34  1  0  0  0  0
 10 35  1  0  0  0  0
 11 36  1  0  0  0  0
 12 37  1  0  0  0  0
 13 38  1  0  0  0  0
 14 39  1  0  0  0  0
 17 40  1  0  0  0  0
 18 41  1  0  0  0  0
 19 42  1  0  0  0  0
 20 43  1  0  0  0  0
 21 44  1  0  0  0  0
 22 45  1  0  0  0  0
 22 46  1  0  0  0  0
 23 47  1  0  0  0  0
 26 48  1  0  0  0  0
 26 49  1  0  0  0  0
 26 50  1  0  0  0  0
 29 51  1  0  0  0  0
 29 52  1  0  0  0  0
 29 53  1  0  0  0  0
M  END
