
  xtb     03012221273D
 energy: -5.637919098457 gnorm: 0.000390190045 xtb: 6.4.1 (afa7bdf)
 28 30  0     0  0            999 V2000
   -5.1691   -0.5931   -0.1633 C   0  0  0  0  0  0  0  0  0  0  0  0
   -4.5379    0.6619   -0.1117 O   0  0  0  0  0  0  0  0  0  0  0  0
   -3.1471    0.6157   -0.0438 C   0  0  0  0  0  0  0  0  0  0  0  0
   -2.4628    1.8440    0.0147 C   0  0  0  0  0  0  0  0  0  0  0  0
   -1.1009    1.8919    0.0846 C   0  0  0  0  0  0  0  0  0  0  0  0
   -0.3442    0.7121    0.0999 C   0  0  0  0  0  0  0  0  0  0  0  0
    1.0683    0.7149    0.1732 C   0  0  0  0  0  0  0  0  0  0  0  0
    1.7832   -0.4362    0.1880 C   0  0  0  0  0  0  0  0  0  0  0  0
    3.2540   -0.4116    0.2649 C   0  0  0  0  0  0  0  0  0  0  0  0
    4.0509    0.7889    0.2972 C   0  0  0  0  0  0  0  0  0  0  0  0
    5.3762    0.5623    0.3694 C   0  0  0  0  0  0  0  0  0  0  0  0
    5.7062   -1.1312    0.4013 S   0  0  0  0  0  0  0  0  0  0  0  0
    4.0338   -1.5245    0.3146 C   0  0  0  0  0  0  0  0  0  0  0  0
    1.0622   -1.7164    0.1277 C   0  0  0  0  0  0  0  0  0  0  0  0
    1.7002   -2.7588    0.1454 O   0  0  0  0  0  0  0  0  0  0  0  0
   -0.3151   -1.7244    0.0535 O   0  0  0  0  0  0  0  0  0  0  0  0
   -1.0079   -0.5274    0.0414 C   0  0  0  0  0  0  0  0  0  0  0  0
   -2.3965   -0.5521   -0.0297 C   0  0  0  0  0  0  0  0  0  0  0  0
   -4.9319   -1.1637    0.7356 H   0  0  0  0  0  0  0  0  0  0  0  0
   -4.8512   -1.1302   -1.0580 H   0  0  0  0  0  0  0  0  0  0  0  0
   -6.2469   -0.4327   -0.2087 H   0  0  0  0  0  0  0  0  0  0  0  0
   -3.0460    2.7473    0.0029 H   0  0  0  0  0  0  0  0  0  0  0  0
   -0.5930    2.8396    0.1291 H   0  0  0  0  0  0  0  0  0  0  0  0
    1.5712    1.6620    0.2193 H   0  0  0  0  0  0  0  0  0  0  0  0
    3.6292    1.7817    0.2654 H   0  0  0  0  0  0  0  0  0  0  0  0
    6.1369    1.3181    0.4029 H   0  0  0  0  0  0  0  0  0  0  0  0
    3.6516   -2.5266    0.2990 H   0  0  0  0  0  0  0  0  0  0  0  0
   -2.8733   -1.5114   -0.0738 H   0  0  0  0  0  0  0  0  0  0  0  0
  1  2  1  0  0  0  0
  2  3  1  0  0  0  0
  3  4  2  0  0  0  0
  4  5  1  0  0  0  0
  5  6  2  0  0  0  0
  6  7  1  0  0  0  0
  7  8  2  0  0  0  0
  8  9  1  0  0  0  0
  9 10  1  0  0  0  0
 10 11  2  0  0  0  0
 11 12  1  0  0  0  0
 12 13  1  0  0  0  0
  8 14  1  0  0  0  0
 14 15  2  0  0  0  0
 14 16  1  0  0  0  0
 16 17  1  0  0  0  0
 17 18  2  0  0  0  0
 18  3  1  0  0  0  0
 17  6  1  0  0  0  0
 13  9  2  0  0  0  0
  1 19  1  0  0  0  0
  1 20  1  0  0  0  0
  1 21  1  0  0  0  0
  4 22  1  0  0  0  0
  5 23  1  0  0  0  0
  7 24  1  0  0  0  0
 10 25  1  0  0  0  0
 11 26  1  0  0  0  0
 13 27  1  0  0  0  0
 18 28  1  0  0  0  0
M  END
