
  xtb     03012221233D
 energy: -10.092571740609 gnorm: 0.000230938241 xtb: 6.4.1 (afa7bdf)
 47 53  0     0  0            999 V2000
   -0.0170    5.4838    0.3139 F   0  0  0  0  0  0  0  0  0  0  0  0
   -0.8407    4.7732    1.1080 C   0  0  0  0  0  0  0  0  0  0  0  0
   -2.1172    5.1597    0.9161 F   0  0  0  0  0  0  0  0  0  0  0  0
   -0.4984    4.9303    2.4011 F   0  0  0  0  0  0  0  0  0  0  0  0
   -0.7215    3.3032    0.7512 C   0  0  0  0  0  0  0  0  0  0  0  0
   -1.7986    2.4575    0.5778 C   0  0  0  0  0  0  0  0  0  0  0  0
   -1.2426    1.1977    0.2828 C   0  0  0  0  0  0  0  0  0  0  0  0
    0.1140    1.4296    0.3175 N   0  0  0  0  0  0  0  0  0  0  0  0
    0.4626    2.6592    0.5930 N   0  0  0  0  0  0  0  0  0  0  0  0
    0.7836    0.0809    0.0039 B   0  0  0  0  0  4  0  0  0  0  0  0
    1.6924    0.1780   -1.2883 C   0  0  0  0  0  0  0  0  0  0  0  0
    1.4802    0.5416   -2.5915 C   0  0  0  0  0  0  0  0  0  0  0  0
    2.5383    0.5177   -3.4780 C   0  0  0  0  0  0  0  0  0  0  0  0
    3.7973    0.1321   -3.0558 C   0  0  0  0  0  0  0  0  0  0  0  0
    4.0118   -0.2311   -1.7435 C   0  0  0  0  0  0  0  0  0  0  0  0
    2.9503   -0.2082   -0.8484 C   0  0  0  0  0  0  0  0  0  0  0  0
    2.9705   -0.5346    0.5897 C   0  0  0  0  0  0  0  0  0  0  0  0
    4.0546   -0.9393    1.3574 C   0  0  0  0  0  0  0  0  0  0  0  0
    3.8769   -1.1829    2.7024 C   0  0  0  0  0  0  0  0  0  0  0  0
    2.6322   -1.0246    3.2834 C   0  0  0  0  0  0  0  0  0  0  0  0
    1.5517   -0.6227    2.5238 C   0  0  0  0  0  0  0  0  0  0  0  0
    1.7274   -0.3827    1.1870 C   0  0  0  0  0  0  0  0  0  0  0  0
   -0.4141   -0.8739   -0.1944 N   0  0  0  0  0  4  0  0  0  0  0  0
   -0.4258   -2.1996   -0.4917 C   0  0  0  0  0  0  0  0  0  0  0  0
   -1.6067   -2.8582   -0.6216 C   0  0  0  0  0  0  0  0  0  0  0  0
   -2.8392   -2.1757   -0.4506 C   0  0  0  0  0  0  0  0  0  0  0  0
   -4.0766   -2.8316   -0.5795 C   0  0  0  0  0  0  0  0  0  0  0  0
   -5.2487   -2.1508   -0.4100 C   0  0  0  0  0  0  0  0  0  0  0  0
   -5.2342   -0.7917   -0.1060 C   0  0  0  0  0  0  0  0  0  0  0  0
   -4.0500   -0.1230    0.0267 C   0  0  0  0  0  0  0  0  0  0  0  0
   -2.8304   -0.7954   -0.1413 C   0  0  0  0  0  0  0  0  0  0  0  0
   -1.5613   -0.1601   -0.0171 C   0  0  0  0  0  0  0  0  0  0  0  0
   -2.8355    2.7321    0.6588 H   0  0  0  0  0  0  0  0  0  0  0  0
    0.4968    0.8480   -2.9020 H   0  0  0  0  0  0  0  0  0  0  0  0
    2.3814    0.8069   -4.5053 H   0  0  0  0  0  0  0  0  0  0  0  0
    4.6163    0.1208   -3.7550 H   0  0  0  0  0  0  0  0  0  0  0  0
    4.9910   -0.5246   -1.4058 H   0  0  0  0  0  0  0  0  0  0  0  0
    5.0222   -1.0540    0.8994 H   0  0  0  0  0  0  0  0  0  0  0  0
    4.7136   -1.4937    3.3051 H   0  0  0  0  0  0  0  0  0  0  0  0
    2.5039   -1.2118    4.3380 H   0  0  0  0  0  0  0  0  0  0  0  0
    0.5788   -0.4872    2.9623 H   0  0  0  0  0  0  0  0  0  0  0  0
    0.5174   -2.6996   -0.6174 H   0  0  0  0  0  0  0  0  0  0  0  0
   -1.6198   -3.9089   -0.8563 H   0  0  0  0  0  0  0  0  0  0  0  0
   -4.0876   -3.8830   -0.8148 H   0  0  0  0  0  0  0  0  0  0  0  0
   -6.1894   -2.6650   -0.5116 H   0  0  0  0  0  0  0  0  0  0  0  0
   -6.1660   -0.2640    0.0256 H   0  0  0  0  0  0  0  0  0  0  0  0
   -4.0440    0.9253    0.2611 H   0  0  0  0  0  0  0  0  0  0  0  0
  1  2  1  0  0  0  0
  2  3  1  0  0  0  0
  2  4  1  0  0  0  0
  2  5  1  0  0  0  0
  5  6  1  0  0  0  0
  6  7  2  0  0  0  0
  7  8  1  0  0  0  0
  8  9  1  0  0  0  0
  8 10  1  0  0  0  0
 10 11  1  0  0  0  0
 11 12  2  0  0  0  0
 12 13  1  0  0  0  0
 13 14  2  0  0  0  0
 14 15  1  0  0  0  0
 15 16  2  0  0  0  0
 16 17  1  0  0  0  0
 17 18  2  0  0  0  0
 18 19  1  0  0  0  0
 19 20  2  0  0  0  0
 20 21  1  0  0  0  0
 21 22  2  0  0  0  0
 10 23  1  0  0  0  0
 23 24  2  0  0  0  0
 24 25  1  0  0  0  0
 25 26  2  0  0  0  0
 26 27  1  0  0  0  0
 27 28  2  0  0  0  0
 28 29  1  0  0  0  0
 29 30  2  0  0  0  0
 30 31  1  0  0  0  0
 31 32  2  0  0  0  0
  9  5  2  0  0  0  0
 22 10  1  0  0  0  0
 32 23  1  0  0  0  0
 32  7  1  0  0  0  0
 16 11  1  0  0  0  0
 22 17  1  0  0  0  0
 31 26  1  0  0  0  0
  6 33  1  0  0  0  0
 12 34  1  0  0  0  0
 13 35  1  0  0  0  0
 14 36  1  0  0  0  0
 15 37  1  0  0  0  0
 18 38  1  0  0  0  0
 19 39  1  0  0  0  0
 20 40  1  0  0  0  0
 21 41  1  0  0  0  0
 24 42  1  0  0  0  0
 25 43  1  0  0  0  0
 27 44  1  0  0  0  0
 28 45  1  0  0  0  0
 29 46  1  0  0  0  0
 30 47  1  0  0  0  0
M  CHG  1  10  -1
M  CHG  1  23   1
M  END
