
  xtb     03012221253D
 energy: -11.526459088175 gnorm: 0.000068785211 xtb: 6.4.1 (afa7bdf)
 56 62  0     0  0            999 V2000
    0.0767   -1.7422    2.8326 C   0  0  0  0  0  0  0  0  0  0  0  0
    0.0831   -2.1738    1.3833 C   0  0  0  0  0  0  0  0  0  0  0  0
    0.0261   -1.0217    0.4739 N   0  0  0  0  0  0  0  0  0  0  0  0
    1.1295   -0.2884    0.0182 C   0  0  0  0  0  0  0  0  0  0  0  0
    2.4963   -0.4816    0.2046 C   0  0  0  0  0  0  0  0  0  0  0  0
    3.3972    0.4097   -0.3614 C   0  0  0  0  0  0  0  0  0  0  0  0
    4.8342    0.2430   -0.1909 C   0  0  0  0  0  0  0  0  0  0  0  0
    5.4684   -0.7525    0.5013 C   0  0  0  0  0  0  0  0  0  0  0  0
    6.8789   -0.6536    0.4926 C   0  0  0  0  0  0  0  0  0  0  0  0
    7.3597    0.4202   -0.2064 C   0  0  0  0  0  0  0  0  0  0  0  0
    8.7489    0.7694   -0.3835 C   0  0  0  0  0  0  0  0  0  0  0  0
    9.8229    0.0865    0.1148 C   0  0  0  0  0  0  0  0  0  0  0  0
   11.0758    0.6661   -0.2216 C   0  0  0  0  0  0  0  0  0  0  0  0
   10.9667    1.7848   -0.9719 C   0  0  0  0  0  0  0  0  0  0  0  0
    9.3091    2.1571   -1.2864 S   0  0  0  0  0  0  0  0  0  0  0  0
    6.0252    1.3259   -0.8666 S   0  0  0  0  0  0  0  0  0  0  0  0
    2.9026    1.4992   -1.1164 C   0  0  0  0  0  0  0  0  0  0  0  0
    1.5622    1.7054   -1.3060 C   0  0  0  0  0  0  0  0  0  0  0  0
    0.6579    0.8051   -0.7343 C   0  0  0  0  0  0  0  0  0  0  0  0
   -0.7798    0.7431   -0.7227 C   0  0  0  0  0  0  0  0  0  0  0  0
   -1.7675    1.5620   -1.2788 C   0  0  0  0  0  0  0  0  0  0  0  0
   -3.0820    1.2419   -1.0670 C   0  0  0  0  0  0  0  0  0  0  0  0
   -3.4687    0.1150   -0.3040 C   0  0  0  0  0  0  0  0  0  0  0  0
   -4.8829   -0.1746   -0.1091 C   0  0  0  0  0  0  0  0  0  0  0  0
   -5.4155   -1.2186    0.5980 C   0  0  0  0  0  0  0  0  0  0  0  0
   -6.8291   -1.2431    0.6124 C   0  0  0  0  0  0  0  0  0  0  0  0
   -7.4119   -0.2202   -0.0821 C   0  0  0  0  0  0  0  0  0  0  0  0
   -8.8309   -0.0097   -0.2280 C   0  0  0  0  0  0  0  0  0  0  0  0
   -9.4158    1.0109   -0.9210 C   0  0  0  0  0  0  0  0  0  0  0  0
  -10.8361    0.9753   -0.9006 C   0  0  0  0  0  0  0  0  0  0  0  0
  -11.3370   -0.0648   -0.1972 C   0  0  0  0  0  0  0  0  0  0  0  0
  -10.0677   -1.0339    0.4631 S   0  0  0  0  0  0  0  0  0  0  0  0
   -6.1749    0.7976   -0.7694 S   0  0  0  0  0  0  0  0  0  0  0  0
   -2.4853   -0.6953    0.2463 C   0  0  0  0  0  0  0  0  0  0  0  0
   -1.1434   -0.3862    0.0367 C   0  0  0  0  0  0  0  0  0  0  0  0
    0.9288   -1.0962    3.0494 H   0  0  0  0  0  0  0  0  0  0  0  0
   -0.8236   -1.1710    3.0640 H   0  0  0  0  0  0  0  0  0  0  0  0
    0.1187   -2.5921    3.5168 H   0  0  0  0  0  0  0  0  0  0  0  0
    0.9804   -2.7539    1.1459 H   0  0  0  0  0  0  0  0  0  0  0  0
   -0.7653   -2.8286    1.1606 H   0  0  0  0  0  0  0  0  0  0  0  0
    2.8384   -1.3163    0.7851 H   0  0  0  0  0  0  0  0  0  0  0  0
    4.9452   -1.5460    1.0102 H   0  0  0  0  0  0  0  0  0  0  0  0
    7.5200   -1.3626    0.9929 H   0  0  0  0  0  0  0  0  0  0  0  0
    9.7287   -0.8094    0.7082 H   0  0  0  0  0  0  0  0  0  0  0  0
   12.0220    0.2501    0.0936 H   0  0  0  0  0  0  0  0  0  0  0  0
   11.7875    2.3755   -1.3329 H   0  0  0  0  0  0  0  0  0  0  0  0
    3.6135    2.1813   -1.5483 H   0  0  0  0  0  0  0  0  0  0  0  0
    1.1981    2.5402   -1.8786 H   0  0  0  0  0  0  0  0  0  0  0  0
   -1.4859    2.4244   -1.8570 H   0  0  0  0  0  0  0  0  0  0  0  0
   -3.8558    1.8600   -1.4867 H   0  0  0  0  0  0  0  0  0  0  0  0
   -4.8168   -1.9605    1.1014 H   0  0  0  0  0  0  0  0  0  0  0  0
   -7.4056   -1.9987    1.1231 H   0  0  0  0  0  0  0  0  0  0  0  0
   -8.8448    1.7692   -1.4335 H   0  0  0  0  0  0  0  0  0  0  0  0
  -11.4522    1.7093   -1.3998 H   0  0  0  0  0  0  0  0  0  0  0  0
  -12.3801   -0.2768   -0.0564 H   0  0  0  0  0  0  0  0  0  0  0  0
   -2.7447   -1.5557    0.8321 H   0  0  0  0  0  0  0  0  0  0  0  0
  1  2  1  0  0  0  0
  2  3  1  0  0  0  0
  3  4  1  0  0  0  0
  4  5  2  0  0  0  0
  5  6  1  0  0  0  0
  6  7  1  0  0  0  0
  7  8  2  0  0  0  0
  8  9  1  0  0  0  0
  9 10  2  0  0  0  0
 10 11  1  0  0  0  0
 11 12  2  0  0  0  0
 12 13  1  0  0  0  0
 13 14  2  0  0  0  0
 14 15  1  0  0  0  0
 10 16  1  0  0  0  0
  6 17  2  0  0  0  0
 17 18  1  0  0  0  0
 18 19  2  0  0  0  0
 19 20  1  0  0  0  0
 20 21  2  0  0  0  0
 21 22  1  0  0  0  0
 22 23  2  0  0  0  0
 23 24  1  0  0  0  0
 24 25  2  0  0  0  0
 25 26  1  0  0  0  0
 26 27  2  0  0  0  0
 27 28  1  0  0  0  0
 28 29  2  0  0  0  0
 29 30  1  0  0  0  0
 30 31  2  0  0  0  0
 31 32  1  0  0  0  0
 27 33  1  0  0  0  0
 23 34  1  0  0  0  0
 34 35  2  0  0  0  0
 35  3  1  0  0  0  0
 19  4  1  0  0  0  0
 35 20  1  0  0  0  0
 16  7  1  0  0  0  0
 33 24  1  0  0  0  0
 15 11  1  0  0  0  0
 32 28  1  0  0  0  0
  1 36  1  0  0  0  0
  1 37  1  0  0  0  0
  1 38  1  0  0  0  0
  2 39  1  0  0  0  0
  2 40  1  0  0  0  0
  5 41  1  0  0  0  0
  8 42  1  0  0  0  0
  9 43  1  0  0  0  0
 12 44  1  0  0  0  0
 13 45  1  0  0  0  0
 14 46  1  0  0  0  0
 17 47  1  0  0  0  0
 18 48  1  0  0  0  0
 21 49  1  0  0  0  0
 22 50  1  0  0  0  0
 25 51  1  0  0  0  0
 26 52  1  0  0  0  0
 29 53  1  0  0  0  0
 30 54  1  0  0  0  0
 31 55  1  0  0  0  0
 34 56  1  0  0  0  0
M  END
