
  xtb     03012221293D
 energy: -3.459189877854 gnorm: 0.000518757639 xtb: 6.4.1 (afa7bdf)
 17 18  0     0  0            999 V2000
    3.2685    0.2399   -0.3755 C   0  0  0  0  0  0  0  0  0  0  0  0
    1.8025    0.1427   -0.1970 C   0  0  0  0  0  0  0  0  0  0  0  0
    0.9762   -0.1293   -1.1810 N   0  0  0  0  0  0  0  0  0  0  0  0
   -0.2608   -0.1436   -0.6234 C   0  0  0  0  0  0  0  0  0  0  0  0
   -1.5209   -0.3777   -1.1951 C   0  0  0  0  0  0  0  0  0  0  0  0
   -2.6258   -0.3331   -0.3915 C   0  0  0  0  0  0  0  0  0  0  0  0
   -2.5147   -0.0597    0.9813 C   0  0  0  0  0  0  0  0  0  0  0  0
   -1.2996    0.1711    1.5625 C   0  0  0  0  0  0  0  0  0  0  0  0
   -0.1475    0.1320    0.7639 C   0  0  0  0  0  0  0  0  0  0  0  0
    1.1850    0.3110    1.0188 O   0  0  0  0  0  0  0  0  0  0  0  0
    3.7356   -0.7346   -0.2393 H   0  0  0  0  0  0  0  0  0  0  0  0
    3.5101    0.6004   -1.3746 H   0  0  0  0  0  0  0  0  0  0  0  0
    3.6946    0.9290    0.3527 H   0  0  0  0  0  0  0  0  0  0  0  0
   -1.5933   -0.5862   -2.2474 H   0  0  0  0  0  0  0  0  0  0  0  0
   -3.5996   -0.5106   -0.8168 H   0  0  0  0  0  0  0  0  0  0  0  0
   -3.4058   -0.0320    1.5863 H   0  0  0  0  0  0  0  0  0  0  0  0
   -1.2047    0.3807    2.6125 H   0  0  0  0  0  0  0  0  0  0  0  0
  1  2  1  0  0  0  0
  2  3  2  0  0  0  0
  3  4  1  0  0  0  0
  4  5  2  0  0  0  0
  5  6  1  0  0  0  0
  6  7  2  0  0  0  0
  7  8  1  0  0  0  0
  8  9  2  0  0  0  0
  9 10  1  0  0  0  0
 10  2  1  0  0  0  0
  9  4  1  0  0  0  0
  1 11  1  0  0  0  0
  1 12  1  0  0  0  0
  1 13  1  0  0  0  0
  5 14  1  0  0  0  0
  6 15  1  0  0  0  0
  7 16  1  0  0  0  0
  8 17  1  0  0  0  0
M  END
