
  xtb     03012221313D
 energy: -8.146667840752 gnorm: 0.000286130493 xtb: 6.4.1 (afa7bdf)
 39 42  0     0  0            999 V2000
   -5.9855    0.7202   -0.3227 C   0  0  0  0  0  0  0  0  0  0  0  0
   -5.0572    0.8809    0.8288 C   0  0  0  0  0  0  0  0  0  0  0  0
   -5.4747    1.4618    1.9688 C   0  0  0  0  0  0  0  0  0  0  0  0
   -4.6109    1.6383    3.1145 C   0  0  0  0  0  0  0  0  0  0  0  0
   -5.0753    2.1771    4.1102 O   0  0  0  0  0  0  0  0  0  0  0  0
   -3.3094    1.1983    3.0452 O   0  0  0  0  0  0  0  0  0  0  0  0
   -2.8698    0.5972    1.8787 C   0  0  0  0  0  0  0  0  0  0  0  0
   -1.5492    0.1537    1.8242 C   0  0  0  0  0  0  0  0  0  0  0  0
   -1.0314   -0.4530    0.6978 C   0  0  0  0  0  0  0  0  0  0  0  0
    0.3620   -0.8961    0.6967 C   0  0  0  0  0  0  0  0  0  0  0  0
    1.0615   -1.4692   -0.3382 C   0  0  0  0  0  0  0  0  0  0  0  0
    2.3023   -1.6758    0.1879 N   0  0  0  0  0  0  0  0  0  0  0  0
    3.5058   -2.0731   -0.5583 C   0  0  0  0  0  0  0  0  0  0  0  0
    4.2705   -0.8827   -1.0367 C   0  0  0  0  0  0  0  0  0  0  0  0
    5.1679   -0.9823   -2.0880 C   0  0  0  0  0  0  0  0  0  0  0  0
    5.8795    0.1229   -2.5077 C   0  0  0  0  0  0  0  0  0  0  0  0
    5.7065    1.3386   -1.8796 C   0  0  0  0  0  0  0  0  0  0  0  0
    4.8217    1.4480   -0.8281 C   0  0  0  0  0  0  0  0  0  0  0  0
    4.1127    0.3425   -0.4112 C   0  0  0  0  0  0  0  0  0  0  0  0
    2.3460   -1.2272    1.4464 N   0  0  0  0  0  0  0  0  0  0  0  0
    1.2038   -0.7692    1.7608 N   0  0  0  0  0  0  0  0  0  0  0  0
   -1.8659   -0.6249   -0.4142 C   0  0  0  0  0  0  0  0  0  0  0  0
   -3.1658   -0.1999   -0.3842 C   0  0  0  0  0  0  0  0  0  0  0  0
   -3.6989    0.4188    0.7546 C   0  0  0  0  0  0  0  0  0  0  0  0
   -6.9652    1.1464   -0.1055 H   0  0  0  0  0  0  0  0  0  0  0  0
   -6.1297   -0.3337   -0.5616 H   0  0  0  0  0  0  0  0  0  0  0  0
   -5.5975    1.2227   -1.2090 H   0  0  0  0  0  0  0  0  0  0  0  0
   -6.4843    1.8165    2.0582 H   0  0  0  0  0  0  0  0  0  0  0  0
   -0.9268    0.2931    2.6886 H   0  0  0  0  0  0  0  0  0  0  0  0
    0.7390   -1.6823   -1.3414 H   0  0  0  0  0  0  0  0  0  0  0  0
    4.1293   -2.6805    0.0999 H   0  0  0  0  0  0  0  0  0  0  0  0
    3.2068   -2.7025   -1.3982 H   0  0  0  0  0  0  0  0  0  0  0  0
    5.3052   -1.9327   -2.5736 H   0  0  0  0  0  0  0  0  0  0  0  0
    6.5736    0.0350   -3.3277 H   0  0  0  0  0  0  0  0  0  0  0  0
    6.2635    2.2004   -2.2085 H   0  0  0  0  0  0  0  0  0  0  0  0
    4.6855    2.3952   -0.3320 H   0  0  0  0  0  0  0  0  0  0  0  0
    3.4211    0.4184    0.4077 H   0  0  0  0  0  0  0  0  0  0  0  0
   -1.4744   -1.0991   -1.2964 H   0  0  0  0  0  0  0  0  0  0  0  0
   -3.7922   -0.3423   -1.2473 H   0  0  0  0  0  0  0  0  0  0  0  0
  1  2  1  0  0  0  0
  2  3  2  0  0  0  0
  3  4  1  0  0  0  0
  4  5  2  0  0  0  0
  4  6  1  0  0  0  0
  6  7  1  0  0  0  0
  7  8  2  0  0  0  0
  8  9  1  0  0  0  0
  9 10  1  0  0  0  0
 10 11  2  0  0  0  0
 11 12  1  0  0  0  0
 12 13  1  0  0  0  0
 13 14  1  0  0  0  0
 14 15  2  0  0  0  0
 15 16  1  0  0  0  0
 16 17  2  0  0  0  0
 17 18  1  0  0  0  0
 18 19  2  0  0  0  0
 12 20  1  0  0  0  0
 20 21  2  0  0  0  0
  9 22  2  0  0  0  0
 22 23  1  0  0  0  0
 23 24  2  0  0  0  0
 24  2  1  0  0  0  0
 24  7  1  0  0  0  0
 21 10  1  0  0  0  0
 19 14  1  0  0  0  0
  1 25  1  0  0  0  0
  1 26  1  0  0  0  0
  1 27  1  0  0  0  0
  3 28  1  0  0  0  0
  8 29  1  0  0  0  0
 11 30  1  0  0  0  0
 13 31  1  0  0  0  0
 13 32  1  0  0  0  0
 15 33  1  0  0  0  0
 16 34  1  0  0  0  0
 17 35  1  0  0  0  0
 18 36  1  0  0  0  0
 19 37  1  0  0  0  0
 22 38  1  0  0  0  0
 23 39  1  0  0  0  0
M  END
