
  xtb     03012221283D
 energy: -8.529060493652 gnorm: 0.000427997602 xtb: 6.4.1 (afa7bdf)
 41 45  0     0  0            999 V2000
    1.9173   -3.4058    0.0051 F   0  0  0  0  0  0  0  0  0  0  0  0
    1.3111   -2.3669   -0.6897 B   0  0  0  0  0  4  0  0  0  0  0  0
    1.5037   -2.5077   -2.0591 F   0  0  0  0  0  0  0  0  0  0  0  0
   -0.1280   -2.2781   -0.3876 O   0  0  0  0  0  0  0  0  0  0  0  0
   -0.8071   -1.1083   -0.2115 C   0  0  0  0  0  0  0  0  0  0  0  0
   -2.2667   -1.2541   -0.0791 C   0  0  0  0  0  0  0  0  0  0  0  0
   -2.9249   -2.1935   -0.8662 C   0  0  0  0  0  0  0  0  0  0  0  0
   -4.2814   -2.3876   -0.7422 C   0  0  0  0  0  0  0  0  0  0  0  0
   -5.0023   -1.6568    0.1805 C   0  0  0  0  0  0  0  0  0  0  0  0
   -4.3606   -0.7385    0.9869 C   0  0  0  0  0  0  0  0  0  0  0  0
   -3.0042   -0.5425    0.8663 C   0  0  0  0  0  0  0  0  0  0  0  0
   -0.1428    0.1150   -0.1342 C   0  0  0  0  0  0  0  0  0  0  0  0
   -0.8080    1.4215   -0.1374 C   0  0  0  0  0  0  0  0  0  0  0  0
   -0.2328    2.5090    0.5234 C   0  0  0  0  0  0  0  0  0  0  0  0
   -0.8388    3.7433    0.5238 C   0  0  0  0  0  0  0  0  0  0  0  0
   -2.0270    3.9299   -0.1516 C   0  0  0  0  0  0  0  0  0  0  0  0
   -2.6006    2.8792   -0.8373 C   0  0  0  0  0  0  0  0  0  0  0  0
   -1.9977    1.6432   -0.8373 C   0  0  0  0  0  0  0  0  0  0  0  0
    1.2911    0.0656   -0.0578 C   0  0  0  0  0  0  0  0  0  0  0  0
    2.1932    1.0741    0.2231 O   0  0  0  0  0  0  0  0  0  0  0  0
    3.4584    0.5087    0.1774 C   0  0  0  0  0  0  0  0  0  0  0  0
    4.7418    1.0312    0.3689 C   0  0  0  0  0  0  0  0  0  0  0  0
    5.8241    0.2000    0.2478 C   0  0  0  0  0  0  0  0  0  0  0  0
    5.6740   -1.1602   -0.0615 C   0  0  0  0  0  0  0  0  0  0  0  0
    4.4344   -1.7040   -0.2530 C   0  0  0  0  0  0  0  0  0  0  0  0
    3.3260   -0.8668   -0.1333 C   0  0  0  0  0  0  0  0  0  0  0  0
    1.9790   -1.0681   -0.2644 N   0  0  0  0  0  4  0  0  0  0  0  0
   -2.3463   -2.7736   -1.5647 H   0  0  0  0  0  0  0  0  0  0  0  0
   -4.7792   -3.1160   -1.3607 H   0  0  0  0  0  0  0  0  0  0  0  0
   -6.0639   -1.8108    0.2788 H   0  0  0  0  0  0  0  0  0  0  0  0
   -4.9215   -0.1785    1.7167 H   0  0  0  0  0  0  0  0  0  0  0  0
   -2.4973    0.1575    1.5071 H   0  0  0  0  0  0  0  0  0  0  0  0
    0.7093    2.3684    1.0229 H   0  0  0  0  0  0  0  0  0  0  0  0
   -0.3805    4.5673    1.0447 H   0  0  0  0  0  0  0  0  0  0  0  0
   -2.5009    4.8988   -0.1529 H   0  0  0  0  0  0  0  0  0  0  0  0
   -3.5205    3.0288   -1.3774 H   0  0  0  0  0  0  0  0  0  0  0  0
   -2.4358    0.8334   -1.3930 H   0  0  0  0  0  0  0  0  0  0  0  0
    4.8548    2.0735    0.6046 H   0  0  0  0  0  0  0  0  0  0  0  0
    6.8147    0.5981    0.3927 H   0  0  0  0  0  0  0  0  0  0  0  0
    6.5482   -1.7842   -0.1473 H   0  0  0  0  0  0  0  0  0  0  0  0
    4.2877   -2.7444   -0.4827 H   0  0  0  0  0  0  0  0  0  0  0  0
  1  2  1  0  0  0  0
  2  3  1  0  0  0  0
  2  4  1  0  0  0  0
  4  5  1  0  0  0  0
  5  6  1  0  0  0  0
  6  7  2  0  0  0  0
  7  8  1  0  0  0  0
  8  9  2  0  0  0  0
  9 10  1  0  0  0  0
 10 11  2  0  0  0  0
  5 12  2  0  0  0  0
 12 13  1  0  0  0  0
 13 14  2  0  0  0  0
 14 15  1  0  0  0  0
 15 16  2  0  0  0  0
 16 17  1  0  0  0  0
 17 18  2  0  0  0  0
 12 19  1  0  0  0  0
 19 20  1  0  0  0  0
 20 21  1  0  0  0  0
 21 22  2  0  0  0  0
 22 23  1  0  0  0  0
 23 24  2  0  0  0  0
 24 25  1  0  0  0  0
 25 26  2  0  0  0  0
 26 27  1  0  0  0  0
 27  2  1  0  0  0  0
 11  6  1  0  0  0  0
 18 13  1  0  0  0  0
 27 19  2  0  0  0  0
 26 21  1  0  0  0  0
  7 28  1  0  0  0  0
  8 29  1  0  0  0  0
  9 30  1  0  0  0  0
 10 31  1  0  0  0  0
 11 32  1  0  0  0  0
 14 33  1  0  0  0  0
 15 34  1  0  0  0  0
 16 35  1  0  0  0  0
 17 36  1  0  0  0  0
 18 37  1  0  0  0  0
 22 38  1  0  0  0  0
 23 39  1  0  0  0  0
 24 40  1  0  0  0  0
 25 41  1  0  0  0  0
M  CHG  1   2  -1
M  CHG  1  27   1
M  END
