
  xtb     03012221313D
 energy: -9.795753781504 gnorm: 0.000239472839 xtb: 6.4.1 (afa7bdf)
 53 56  0     0  0            999 V2000
   -3.7177    4.7713   -0.0387 C   0  0  0  0  0  0  0  0  0  0  0  0
   -4.5774    3.9039    0.8639 C   0  0  0  0  0  0  0  0  0  0  0  0
   -4.2092    2.4323    0.7733 C   0  0  0  0  0  0  0  0  0  0  0  0
   -2.5524    2.1184    1.3224 S   0  0  0  0  0  0  0  0  0  0  0  0
   -2.2560    0.5203    0.6670 C   0  0  0  0  0  0  0  0  0  0  0  0
   -1.0062    0.0600    0.5126 N   0  0  0  0  0  4  0  0  0  0  0  0
   -0.9591   -1.2362    0.0071 C   0  0  0  0  0  0  0  0  0  0  0  0
    0.2314   -1.9572   -0.1963 C   0  0  0  0  0  0  0  0  0  0  0  0
    0.2307   -3.3361   -0.7114 C   0  0  0  0  0  0  0  0  0  0  0  0
    1.1435   -3.7356   -1.6893 C   0  0  0  0  0  0  0  0  0  0  0  0
    1.1366   -5.0216   -2.1774 C   0  0  0  0  0  0  0  0  0  0  0  0
    0.2218   -5.9388   -1.7020 C   0  0  0  0  0  0  0  0  0  0  0  0
   -0.6870   -5.5654   -0.7332 C   0  0  0  0  0  0  0  0  0  0  0  0
   -0.6838   -4.2810   -0.2413 C   0  0  0  0  0  0  0  0  0  0  0  0
    1.4174   -1.2945    0.1717 C   0  0  0  0  0  0  0  0  0  0  0  0
    2.7712   -1.7346    0.2282 C   0  0  0  0  0  0  0  0  0  0  0  0
    3.5296   -0.7094    0.7425 C   0  0  0  0  0  0  0  0  0  0  0  0
    2.6829    0.3935    1.0215 C   0  0  0  0  0  0  0  0  0  0  0  0
    2.9989    1.9778    1.6924 S   0  0  0  0  0  0  0  0  0  0  0  0
    4.7017    2.2066    1.2440 C   0  0  0  0  0  0  0  0  0  0  0  0
    4.9089    2.2477   -0.2637 C   0  0  0  0  0  0  0  0  0  0  0  0
    4.0814    3.3291   -0.9348 C   0  0  0  0  0  0  0  0  0  0  0  0
    1.4473   -0.0032    0.6673 N   0  0  0  0  0  0  0  0  0  0  0  0
    0.2320    0.9126    0.7799 B   0  0  0  0  0  4  0  0  0  0  0  0
    0.3261    1.9000   -0.1952 F   0  0  0  0  0  0  0  0  0  0  0  0
    0.1646    1.4541    2.0604 F   0  0  0  0  0  0  0  0  0  0  0  0
   -2.3118   -1.5914   -0.1945 C   0  0  0  0  0  0  0  0  0  0  0  0
   -3.1126   -0.5388    0.2152 C   0  0  0  0  0  0  0  0  0  0  0  0
   -4.8660   -0.5771    0.1691 S   0  0  0  0  0  0  0  0  0  0  0  0
   -5.0863   -2.1587   -0.4195 C   0  0  0  0  0  0  0  0  0  0  0  0
   -5.1394   -3.2433   -0.8217 N   0  0  0  0  0  0  0  0  0  0  0  0
   -3.9766    5.8305    0.0381 H   0  0  0  0  0  0  0  0  0  0  0  0
   -2.6591    4.6718    0.2127 H   0  0  0  0  0  0  0  0  0  0  0  0
   -3.8258    4.4801   -1.0859 H   0  0  0  0  0  0  0  0  0  0  0  0
   -5.6393    4.0417    0.6159 H   0  0  0  0  0  0  0  0  0  0  0  0
   -4.4754    4.2342    1.9063 H   0  0  0  0  0  0  0  0  0  0  0  0
   -4.2934    2.0839   -0.2591 H   0  0  0  0  0  0  0  0  0  0  0  0
   -4.8832    1.8151    1.3739 H   0  0  0  0  0  0  0  0  0  0  0  0
    1.8414   -3.0139   -2.0763 H   0  0  0  0  0  0  0  0  0  0  0  0
    1.8438   -5.3122   -2.9368 H   0  0  0  0  0  0  0  0  0  0  0  0
    0.2163   -6.9458   -2.0876 H   0  0  0  0  0  0  0  0  0  0  0  0
   -1.4016   -6.2812   -0.3611 H   0  0  0  0  0  0  0  0  0  0  0  0
   -1.3766   -3.9992    0.5320 H   0  0  0  0  0  0  0  0  0  0  0  0
    3.1259   -2.7123   -0.0481 H   0  0  0  0  0  0  0  0  0  0  0  0
    4.5901   -0.7433    0.9286 H   0  0  0  0  0  0  0  0  0  0  0  0
    5.2927    1.4151    1.7124 H   0  0  0  0  0  0  0  0  0  0  0  0
    5.0289    3.1464    1.6960 H   0  0  0  0  0  0  0  0  0  0  0  0
    4.6500    1.2713   -0.6924 H   0  0  0  0  0  0  0  0  0  0  0  0
    5.9737    2.3908   -0.4922 H   0  0  0  0  0  0  0  0  0  0  0  0
    3.0138    3.1718   -0.7601 H   0  0  0  0  0  0  0  0  0  0  0  0
    4.2355    3.3549   -2.0168 H   0  0  0  0  0  0  0  0  0  0  0  0
    4.3288    4.3178   -0.5417 H   0  0  0  0  0  0  0  0  0  0  0  0
   -2.6713   -2.5224   -0.5956 H   0  0  0  0  0  0  0  0  0  0  0  0
  1  2  1  0  0  0  0
  2  3  1  0  0  0  0
  3  4  1  0  0  0  0
  4  5  1  0  0  0  0
  5  6  2  0  0  0  0
  6  7  1  0  0  0  0
  7  8  2  0  0  0  0
  8  9  1  0  0  0  0
  9 10  2  0  0  0  0
 10 11  1  0  0  0  0
 11 12  2  0  0  0  0
 12 13  1  0  0  0  0
 13 14  2  0  0  0  0
  8 15  1  0  0  0  0
 15 16  2  0  0  0  0
 16 17  1  0  0  0  0
 17 18  2  0  0  0  0
 18 19  1  0  0  0  0
 19 20  1  0  0  0  0
 20 21  1  0  0  0  0
 21 22  1  0  0  0  0
 18 23  1  0  0  0  0
 23 24  1  0  0  0  0
 24 25  1  0  0  0  0
 24 26  1  0  0  0  0
  7 27  1  0  0  0  0
 27 28  2  0  0  0  0
 28 29  1  0  0  0  0
 29 30  1  0  0  0  0
 30 31  3  0  0  0  0
 28  5  1  0  0  0  0
 24  6  1  0  0  0  0
 14  9  1  0  0  0  0
 23 15  1  0  0  0  0
  1 32  1  0  0  0  0
  1 33  1  0  0  0  0
  1 34  1  0  0  0  0
  2 35  1  0  0  0  0
  2 36  1  0  0  0  0
  3 37  1  0  0  0  0
  3 38  1  0  0  0  0
 10 39  1  0  0  0  0
 11 40  1  0  0  0  0
 12 41  1  0  0  0  0
 13 42  1  0  0  0  0
 14 43  1  0  0  0  0
 16 44  1  0  0  0  0
 17 45  1  0  0  0  0
 20 46  1  0  0  0  0
 20 47  1  0  0  0  0
 21 48  1  0  0  0  0
 21 49  1  0  0  0  0
 22 50  1  0  0  0  0
 22 51  1  0  0  0  0
 22 52  1  0  0  0  0
 27 53  1  0  0  0  0
M  CHG  1   6   1
M  CHG  1  24  -1
M  END
