
  xtb     03012221303D
 energy: -8.893550728098 gnorm: 0.000140563111 xtb: 6.4.1 (afa7bdf)
 42 45  0     0  0            999 V2000
   -7.8156   -0.0414    0.0049 C   0  0  0  0  0  0  0  0  0  0  0  0
   -7.1218   -0.6928   -0.9948 C   0  0  0  0  0  0  0  0  0  0  0  0
   -5.7438   -0.6980   -0.9902 C   0  0  0  0  0  0  0  0  0  0  0  0
   -5.0305   -0.0502    0.0175 C   0  0  0  0  0  0  0  0  0  0  0  0
   -3.5494   -0.0502    0.0223 C   0  0  0  0  0  0  0  0  0  0  0  0
   -2.8288    0.1137   -1.1598 C   0  0  0  0  0  0  0  0  0  0  0  0
   -1.4535    0.1223   -1.1546 C   0  0  0  0  0  0  0  0  0  0  0  0
   -0.7397   -0.0321    0.0334 C   0  0  0  0  0  0  0  0  0  0  0  0
    0.7401   -0.0130    0.0408 C   0  0  0  0  0  0  0  0  0  0  0  0
    1.4434    0.6118    1.0702 C   0  0  0  0  0  0  0  0  0  0  0  0
    2.8185    0.6326    1.0768 C   0  0  0  0  0  0  0  0  0  0  0  0
    3.5495    0.0295    0.0545 C   0  0  0  0  0  0  0  0  0  0  0  0
    5.0304    0.0514    0.0626 C   0  0  0  0  0  0  0  0  0  0  0  0
    5.7423   -0.1380    1.2464 C   0  0  0  0  0  0  0  0  0  0  0  0
    7.1201   -0.1173    1.2527 C   0  0  0  0  0  0  0  0  0  0  0  0
    7.8152    0.0932    0.0789 C   0  0  0  0  0  0  0  0  0  0  0  0
    7.1279    0.2832   -1.1028 C   0  0  0  0  0  0  0  0  0  0  0  0
    5.7500    0.2627   -1.1128 C   0  0  0  0  0  0  0  0  0  0  0  0
    2.8469   -0.5953   -0.9748 C   0  0  0  0  0  0  0  0  0  0  0  0
    1.4717   -0.6161   -0.9819 C   0  0  0  0  0  0  0  0  0  0  0  0
   -1.4609   -0.1992    1.2152 C   0  0  0  0  0  0  0  0  0  0  0  0
   -2.8362   -0.2083    1.2096 C   0  0  0  0  0  0  0  0  0  0  0  0
   -5.7489    0.6015    1.0191 C   0  0  0  0  0  0  0  0  0  0  0  0
   -7.1268    0.6051    1.0112 C   0  0  0  0  0  0  0  0  0  0  0  0
   -8.8935   -0.0374   -0.0004 H   0  0  0  0  0  0  0  0  0  0  0  0
   -7.6590   -1.1997   -1.7801 H   0  0  0  0  0  0  0  0  0  0  0  0
   -5.2040   -1.2165   -1.7638 H   0  0  0  0  0  0  0  0  0  0  0  0
   -3.3644    0.2516   -2.0833 H   0  0  0  0  0  0  0  0  0  0  0  0
   -0.9135    0.2682   -2.0741 H   0  0  0  0  0  0  0  0  0  0  0  0
    0.8947    1.0974    1.8586 H   0  0  0  0  0  0  0  0  0  0  0  0
    3.3456    1.1328    1.8710 H   0  0  0  0  0  0  0  0  0  0  0  0
    5.2015   -0.3149    2.1601 H   0  0  0  0  0  0  0  0  0  0  0  0
    7.6563   -0.2677    2.1758 H   0  0  0  0  0  0  0  0  0  0  0  0
    8.8930    0.1092    0.0852 H   0  0  0  0  0  0  0  0  0  0  0  0
    7.6700    0.4499   -2.0196 H   0  0  0  0  0  0  0  0  0  0  0  0
    5.2150    0.4242   -2.0327 H   0  0  0  0  0  0  0  0  0  0  0  0
    3.3966   -1.0791   -1.7639 H   0  0  0  0  0  0  0  0  0  0  0  0
    0.9458   -1.1169   -1.7762 H   0  0  0  0  0  0  0  0  0  0  0  0
   -0.9264   -0.3375    2.1391 H   0  0  0  0  0  0  0  0  0  0  0  0
   -3.3773   -0.3528    2.1290 H   0  0  0  0  0  0  0  0  0  0  0  0
   -5.2128    1.1176    1.7968 H   0  0  0  0  0  0  0  0  0  0  0  0
   -7.6680    1.1158    1.7913 H   0  0  0  0  0  0  0  0  0  0  0  0
  1  2  2  0  0  0  0
  2  3  1  0  0  0  0
  3  4  2  0  0  0  0
  4  5  1  0  0  0  0
  5  6  2  0  0  0  0
  6  7  1  0  0  0  0
  7  8  2  0  0  0  0
  8  9  1  0  0  0  0
  9 10  2  0  0  0  0
 10 11  1  0  0  0  0
 11 12  2  0  0  0  0
 12 13  1  0  0  0  0
 13 14  2  0  0  0  0
 14 15  1  0  0  0  0
 15 16  2  0  0  0  0
 16 17  1  0  0  0  0
 17 18  2  0  0  0  0
 12 19  1  0  0  0  0
 19 20  2  0  0  0  0
  8 21  1  0  0  0  0
 21 22  2  0  0  0  0
  4 23  1  0  0  0  0
 23 24  2  0  0  0  0
 24  1  1  0  0  0  0
 22  5  1  0  0  0  0
 20  9  1  0  0  0  0
 18 13  1  0  0  0  0
  1 25  1  0  0  0  0
  2 26  1  0  0  0  0
  3 27  1  0  0  0  0
  6 28  1  0  0  0  0
  7 29  1  0  0  0  0
 10 30  1  0  0  0  0
 11 31  1  0  0  0  0
 14 32  1  0  0  0  0
 15 33  1  0  0  0  0
 16 34  1  0  0  0  0
 17 35  1  0  0  0  0
 18 36  1  0  0  0  0
 19 37  1  0  0  0  0
 20 38  1  0  0  0  0
 21 39  1  0  0  0  0
 22 40  1  0  0  0  0
 23 41  1  0  0  0  0
 24 42  1  0  0  0  0
M  END
