
  xtb     03012221233D
 energy: -14.814581661557 gnorm: 0.000222830739 xtb: 6.4.1 (afa7bdf)
 76 82  0     0  0            999 V2000
   -6.9630   -4.3560    2.7505 C   0  0  0  0  0  0  0  0  0  0  0  0
   -6.4812   -3.2270    1.8531 C   0  0  0  0  0  0  0  0  0  0  0  0
   -6.7951   -3.4701    0.3753 C   0  0  0  0  0  0  0  0  0  0  0  0
   -6.3725   -2.3170   -0.5407 C   0  0  0  0  0  0  0  0  0  0  0  0
   -4.8575   -2.1154   -0.6089 C   0  0  0  0  0  0  0  0  0  0  0  0
   -4.4255   -1.0243   -1.5931 C   0  0  0  0  0  0  0  0  0  0  0  0
   -4.9071    0.3711   -1.2017 C   0  0  0  0  0  0  0  0  0  0  0  0
   -4.3341    1.4611   -2.1024 C   0  0  0  0  0  0  0  0  0  0  0  0
   -4.6898    2.8848   -1.6644 C   0  0  0  0  0  0  0  0  0  0  0  0
   -4.2379    3.2469   -0.2418 C   0  0  0  0  0  0  0  0  0  0  0  0
   -2.7896    2.8677    0.0724 C   0  0  0  0  0  0  0  0  0  0  0  0
   -1.7619    3.4879   -0.8591 C   0  0  0  0  0  0  0  0  0  0  0  0
   -0.4684    2.8545   -0.6948 N   0  0  0  0  0  0  0  0  0  0  0  0
   -0.3144    1.5454   -1.1725 C   0  0  0  0  0  0  0  0  0  0  0  0
   -1.2414    0.9523   -1.6993 O   0  0  0  0  0  0  0  0  0  0  0  0
    0.9929    0.9158   -1.0018 C   0  0  0  0  0  0  0  0  0  0  0  0
    1.2227   -0.3494   -1.4881 C   0  0  0  0  0  0  0  0  0  0  0  0
    2.4484   -0.9641   -1.3322 C   0  0  0  0  0  0  0  0  0  0  0  0
    3.5006   -0.3356   -0.6754 C   0  0  0  0  0  0  0  0  0  0  0  0
    4.7951   -0.9747   -0.5030 C   0  0  0  0  0  0  0  0  0  0  0  0
    5.0614   -2.2482   -0.9944 C   0  0  0  0  0  0  0  0  0  0  0  0
    6.2923   -2.8483   -0.8225 C   0  0  0  0  0  0  0  0  0  0  0  0
    7.3080   -2.2066   -0.1542 C   0  0  0  0  0  0  0  0  0  0  0  0
    7.0896   -0.9092    0.3635 C   0  0  0  0  0  0  0  0  0  0  0  0
    8.1222   -0.2326    1.0527 C   0  0  0  0  0  0  0  0  0  0  0  0
    7.8915    1.0290    1.5478 C   0  0  0  0  0  0  0  0  0  0  0  0
    6.6685    1.6472    1.3826 C   0  0  0  0  0  0  0  0  0  0  0  0
    5.6207    1.0252    0.7124 C   0  0  0  0  0  0  0  0  0  0  0  0
    4.3293    1.6684    0.5312 C   0  0  0  0  0  0  0  0  0  0  0  0
    4.0672    2.9470    1.0111 C   0  0  0  0  0  0  0  0  0  0  0  0
    2.8373    3.5475    0.8345 C   0  0  0  0  0  0  0  0  0  0  0  0
    1.8176    2.9022    0.1760 C   0  0  0  0  0  0  0  0  0  0  0  0
    2.0316    1.5997   -0.3294 C   0  0  0  0  0  0  0  0  0  0  0  0
    3.2942    0.9743   -0.1573 C   0  0  0  0  0  0  0  0  0  0  0  0
    0.5241    3.5568   -0.0005 C   0  0  0  0  0  0  0  0  0  0  0  0
    0.3087    4.6719    0.4434 O   0  0  0  0  0  0  0  0  0  0  0  0
    5.8281   -0.2828    0.1901 C   0  0  0  0  0  0  0  0  0  0  0  0
    9.4232   -0.8731    1.2356 C   0  0  0  0  0  0  0  0  0  0  0  0
   10.3267   -0.3089    1.8280 O   0  0  0  0  0  0  0  0  0  0  0  0
    9.5812   -2.1468    0.7063 N   0  0  0  0  0  0  0  0  0  0  0  0
    8.6049   -2.8573    0.0210 C   0  0  0  0  0  0  0  0  0  0  0  0
    8.8144   -3.9752   -0.4172 O   0  0  0  0  0  0  0  0  0  0  0  0
   -6.7329   -4.1711    3.8017 H   0  0  0  0  0  0  0  0  0  0  0  0
   -8.0427   -4.4910    2.6702 H   0  0  0  0  0  0  0  0  0  0  0  0
   -6.4991   -5.3043    2.4749 H   0  0  0  0  0  0  0  0  0  0  0  0
   -6.9328   -2.2771    2.1671 H   0  0  0  0  0  0  0  0  0  0  0  0
   -5.4012   -3.0848    1.9822 H   0  0  0  0  0  0  0  0  0  0  0  0
   -7.8708   -3.6582    0.2672 H   0  0  0  0  0  0  0  0  0  0  0  0
   -6.3090   -4.3962    0.0471 H   0  0  0  0  0  0  0  0  0  0  0  0
   -6.8538   -1.3928   -0.2022 H   0  0  0  0  0  0  0  0  0  0  0  0
   -6.7545   -2.4854   -1.5554 H   0  0  0  0  0  0  0  0  0  0  0  0
   -4.4719   -1.8727    0.3880 H   0  0  0  0  0  0  0  0  0  0  0  0
   -4.3828   -3.0686   -0.8753 H   0  0  0  0  0  0  0  0  0  0  0  0
   -4.7852   -1.2671   -2.5992 H   0  0  0  0  0  0  0  0  0  0  0  0
   -3.3310   -1.0088   -1.6749 H   0  0  0  0  0  0  0  0  0  0  0  0
   -4.6304    0.5651   -0.1578 H   0  0  0  0  0  0  0  0  0  0  0  0
   -6.0035    0.4180   -1.2178 H   0  0  0  0  0  0  0  0  0  0  0  0
   -4.6672    1.2883   -3.1329 H   0  0  0  0  0  0  0  0  0  0  0  0
   -3.2451    1.3507   -2.1415 H   0  0  0  0  0  0  0  0  0  0  0  0
   -5.7740    3.0290   -1.7525 H   0  0  0  0  0  0  0  0  0  0  0  0
   -4.2537    3.5990   -2.3743 H   0  0  0  0  0  0  0  0  0  0  0  0
   -4.9030    2.7624    0.4835 H   0  0  0  0  0  0  0  0  0  0  0  0
   -4.3733    4.3225   -0.0748 H   0  0  0  0  0  0  0  0  0  0  0  0
   -2.5350    3.1275    1.1074 H   0  0  0  0  0  0  0  0  0  0  0  0
   -2.6747    1.7790    0.0232 H   0  0  0  0  0  0  0  0  0  0  0  0
   -1.6539    4.5627   -0.6769 H   0  0  0  0  0  0  0  0  0  0  0  0
   -2.0513    3.3701   -1.9071 H   0  0  0  0  0  0  0  0  0  0  0  0
    0.4184   -0.8538   -1.9997 H   0  0  0  0  0  0  0  0  0  0  0  0
    2.5789   -1.9522   -1.7310 H   0  0  0  0  0  0  0  0  0  0  0  0
    4.2996   -2.7892   -1.5240 H   0  0  0  0  0  0  0  0  0  0  0  0
    6.4818   -3.8367   -1.2107 H   0  0  0  0  0  0  0  0  0  0  0  0
    8.6934    1.5264    2.0705 H   0  0  0  0  0  0  0  0  0  0  0  0
    6.5365    2.6332    1.7874 H   0  0  0  0  0  0  0  0  0  0  0  0
    4.8315    3.4919    1.5320 H   0  0  0  0  0  0  0  0  0  0  0  0
    2.6520    4.5408    1.2123 H   0  0  0  0  0  0  0  0  0  0  0  0
   10.4779   -2.5917    0.8285 H   0  0  0  0  0  0  0  0  0  0  0  0
  1  2  1  0  0  0  0
  2  3  1  0  0  0  0
  3  4  1  0  0  0  0
  4  5  1  0  0  0  0
  5  6  1  0  0  0  0
  6  7  1  0  0  0  0
  7  8  1  0  0  0  0
  8  9  1  0  0  0  0
  9 10  1  0  0  0  0
 10 11  1  0  0  0  0
 11 12  1  0  0  0  0
 12 13  1  0  0  0  0
 13 14  1  0  0  0  0
 14 15  2  0  0  0  0
 14 16  1  0  0  0  0
 16 17  2  0  0  0  0
 17 18  1  0  0  0  0
 18 19  2  0  0  0  0
 19 20  1  0  0  0  0
 20 21  2  0  0  0  0
 21 22  1  0  0  0  0
 22 23  2  0  0  0  0
 23 24  1  0  0  0  0
 24 25  1  0  0  0  0
 25 26  2  0  0  0  0
 26 27  1  0  0  0  0
 27 28  2  0  0  0  0
 28 29  1  0  0  0  0
 29 30  2  0  0  0  0
 30 31  1  0  0  0  0
 31 32  2  0  0  0  0
 32 33  1  0  0  0  0
 33 34  2  0  0  0  0
 32 35  1  0  0  0  0
 35 36  2  0  0  0  0
 28 37  1  0  0  0  0
 25 38  1  0  0  0  0
 38 39  2  0  0  0  0
 38 40  1  0  0  0  0
 40 41  1  0  0  0  0
 41 42  2  0  0  0  0
 35 13  1  0  0  0  0
 33 16  1  0  0  0  0
 34 19  1  0  0  0  0
 37 20  1  0  0  0  0
 41 23  1  0  0  0  0
 37 24  2  0  0  0  0
 34 29  1  0  0  0  0
  1 43  1  0  0  0  0
  1 44  1  0  0  0  0
  1 45  1  0  0  0  0
  2 46  1  0  0  0  0
  2 47  1  0  0  0  0
  3 48  1  0  0  0  0
  3 49  1  0  0  0  0
  4 50  1  0  0  0  0
  4 51  1  0  0  0  0
  5 52  1  0  0  0  0
  5 53  1  0  0  0  0
  6 54  1  0  0  0  0
  6 55  1  0  0  0  0
  7 56  1  0  0  0  0
  7 57  1  0  0  0  0
  8 58  1  0  0  0  0
  8 59  1  0  0  0  0
  9 60  1  0  0  0  0
  9 61  1  0  0  0  0
 10 62  1  0  0  0  0
 10 63  1  0  0  0  0
 11 64  1  0  0  0  0
 11 65  1  0  0  0  0
 12 66  1  0  0  0  0
 12 67  1  0  0  0  0
 17 68  1  0  0  0  0
 18 69  1  0  0  0  0
 21 70  1  0  0  0  0
 22 71  1  0  0  0  0
 26 72  1  0  0  0  0
 27 73  1  0  0  0  0
 30 74  1  0  0  0  0
 31 75  1  0  0  0  0
 40 76  1  0  0  0  0
M  END
