
  xtb     03012221293D
 energy: -12.007817719058 gnorm: 0.000174858319 xtb: 6.4.1 (afa7bdf)
 62 66  0     0  0            999 V2000
   -5.6913   -1.6980   -0.2930 C   0  0  0  0  0  0  0  0  0  0  0  0
   -4.2233   -1.9045   -0.2569 C   0  0  0  0  0  0  0  0  0  0  0  0
   -3.5751   -3.1274   -0.2264 C   0  0  0  0  0  0  0  0  0  0  0  0
   -2.1819   -2.9085   -0.1915 C   0  0  0  0  0  0  0  0  0  0  0  0
   -1.1005   -3.9090   -0.1606 C   0  0  0  0  0  0  0  0  0  0  0  0
   -2.0139   -1.5827   -0.1980 N   0  0  0  0  0  4  0  0  0  0  0  0
   -3.2159   -0.8942   -0.2350 C   0  0  0  0  0  0  0  0  0  0  0  0
   -3.2946    0.5092   -0.2439 C   0  0  0  0  0  0  0  0  0  0  0  0
   -4.6034    1.2086   -0.2791 C   0  0  0  0  0  0  0  0  0  0  0  0
   -5.3045    1.4768    0.8998 C   0  0  0  0  0  0  0  0  0  0  0  0
   -6.5190    2.1224    0.8632 C   0  0  0  0  0  0  0  0  0  0  0  0
   -7.0599    2.5124   -0.3460 C   0  0  0  0  0  0  0  0  0  0  0  0
   -6.3837    2.2549   -1.5222 C   0  0  0  0  0  0  0  0  0  0  0  0
   -5.1688    1.6098   -1.4927 C   0  0  0  0  0  0  0  0  0  0  0  0
   -2.0712    1.2113   -0.2089 C   0  0  0  0  0  0  0  0  0  0  0  0
   -1.8344    2.6294   -0.1755 C   0  0  0  0  0  0  0  0  0  0  0  0
   -2.8540    3.7077   -0.1872 C   0  0  0  0  0  0  0  0  0  0  0  0
   -0.4792    2.8194   -0.1308 C   0  0  0  0  0  0  0  0  0  0  0  0
    0.1763    1.5541   -0.1358 C   0  0  0  0  0  0  0  0  0  0  0  0
    1.5794    1.3706   -0.0898 C   0  0  0  0  0  0  0  0  0  0  0  0
    2.1997    0.1644   -0.1375 C   0  0  0  0  0  0  0  0  0  0  0  0
    3.6080   -0.0644   -0.0809 C   0  0  0  0  0  0  0  0  0  0  0  0
    4.5450    0.9761    0.0572 C   0  0  0  0  0  0  0  0  0  0  0  0
    5.8833    0.7154    0.1067 C   0  0  0  0  0  0  0  0  0  0  0  0
    6.3779   -0.6034    0.0207 C   0  0  0  0  0  0  0  0  0  0  0  0
    7.7311   -0.8657    0.0676 N   0  0  0  0  0  0  0  0  0  0  0  0
    8.2601   -2.2278   -0.0389 C   0  0  0  0  0  0  0  0  0  0  0  0
    8.7223    0.2018    0.2237 C   0  0  0  0  0  0  0  0  0  0  0  0
    5.4340   -1.6431   -0.1161 C   0  0  0  0  0  0  0  0  0  0  0  0
    4.0965   -1.3809   -0.1641 C   0  0  0  0  0  0  0  0  0  0  0  0
   -0.8231    0.6239   -0.1823 N   0  0  0  0  0  0  0  0  0  0  0  0
   -0.6463   -0.9021   -0.1873 B   0  0  0  0  0  4  0  0  0  0  0  0
    0.0346   -1.2893   -1.3387 F   0  0  0  0  0  0  0  0  0  0  0  0
    0.0258   -1.2965    0.9671 F   0  0  0  0  0  0  0  0  0  0  0  0
   -5.9750   -1.0691   -1.1371 H   0  0  0  0  0  0  0  0  0  0  0  0
   -6.2189   -2.6472   -0.3915 H   0  0  0  0  0  0  0  0  0  0  0  0
   -6.0381   -1.2152    0.6210 H   0  0  0  0  0  0  0  0  0  0  0  0
   -4.0541   -4.0914   -0.2304 H   0  0  0  0  0  0  0  0  0  0  0  0
   -1.1813   -4.5436    0.7218 H   0  0  0  0  0  0  0  0  0  0  0  0
   -0.1316   -3.4094   -0.1324 H   0  0  0  0  0  0  0  0  0  0  0  0
   -1.1301   -4.5426   -1.0469 H   0  0  0  0  0  0  0  0  0  0  0  0
   -4.8768    1.1703    1.8387 H   0  0  0  0  0  0  0  0  0  0  0  0
   -7.0488    2.3241    1.7792 H   0  0  0  0  0  0  0  0  0  0  0  0
   -8.0119    3.0185   -0.3719 H   0  0  0  0  0  0  0  0  0  0  0  0
   -6.8082    2.5595   -2.4642 H   0  0  0  0  0  0  0  0  0  0  0  0
   -4.6368    1.4045   -2.4056 H   0  0  0  0  0  0  0  0  0  0  0  0
   -3.5522    3.5923    0.6417 H   0  0  0  0  0  0  0  0  0  0  0  0
   -3.4239    3.6938   -1.1162 H   0  0  0  0  0  0  0  0  0  0  0  0
   -2.3882    4.6892   -0.0960 H   0  0  0  0  0  0  0  0  0  0  0  0
    0.0163    3.7744   -0.0973 H   0  0  0  0  0  0  0  0  0  0  0  0
    2.1771    2.2594   -0.0164 H   0  0  0  0  0  0  0  0  0  0  0  0
    1.5794   -0.7057   -0.2337 H   0  0  0  0  0  0  0  0  0  0  0  0
    4.2013    1.9919    0.1270 H   0  0  0  0  0  0  0  0  0  0  0  0
    6.5788    1.5300    0.2116 H   0  0  0  0  0  0  0  0  0  0  0  0
    7.9584   -2.6713   -0.9858 H   0  0  0  0  0  0  0  0  0  0  0  0
    7.8822   -2.8394    0.7780 H   0  0  0  0  0  0  0  0  0  0  0  0
    9.3469   -2.2351    0.0068 H   0  0  0  0  0  0  0  0  0  0  0  0
    9.7329   -0.1989    0.2622 H   0  0  0  0  0  0  0  0  0  0  0  0
    8.5399    0.7474    1.1475 H   0  0  0  0  0  0  0  0  0  0  0  0
    8.6624    0.8917   -0.6158 H   0  0  0  0  0  0  0  0  0  0  0  0
    5.7785   -2.6606   -0.1823 H   0  0  0  0  0  0  0  0  0  0  0  0
    3.3920   -2.1879   -0.2678 H   0  0  0  0  0  0  0  0  0  0  0  0
  1  2  1  0  0  0  0
  2  3  2  0  0  0  0
  3  4  1  0  0  0  0
  4  5  1  0  0  0  0
  4  6  2  0  0  0  0
  6  7  1  0  0  0  0
  7  8  2  0  0  0  0
  8  9  1  0  0  0  0
  9 10  2  0  0  0  0
 10 11  1  0  0  0  0
 11 12  2  0  0  0  0
 12 13  1  0  0  0  0
 13 14  2  0  0  0  0
  8 15  1  0  0  0  0
 15 16  2  0  0  0  0
 16 17  1  0  0  0  0
 16 18  1  0  0  0  0
 18 19  2  0  0  0  0
 19 20  1  0  0  0  0
 20 21  2  0  0  0  0
 21 22  1  0  0  0  0
 22 23  2  0  0  0  0
 23 24  1  0  0  0  0
 24 25  2  0  0  0  0
 25 26  1  0  0  0  0
 26 27  1  0  0  0  0
 26 28  1  0  0  0  0
 25 29  1  0  0  0  0
 29 30  2  0  0  0  0
 19 31  1  0  0  0  0
 31 32  1  0  0  0  0
 32 33  1  0  0  0  0
 32 34  1  0  0  0  0
  7  2  1  0  0  0  0
 14  9  1  0  0  0  0
 31 15  1  0  0  0  0
 32  6  1  0  0  0  0
 30 22  1  0  0  0  0
  1 35  1  0  0  0  0
  1 36  1  0  0  0  0
  1 37  1  0  0  0  0
  3 38  1  0  0  0  0
  5 39  1  0  0  0  0
  5 40  1  0  0  0  0
  5 41  1  0  0  0  0
 10 42  1  0  0  0  0
 11 43  1  0  0  0  0
 12 44  1  0  0  0  0
 13 45  1  0  0  0  0
 14 46  1  0  0  0  0
 17 47  1  0  0  0  0
 17 48  1  0  0  0  0
 17 49  1  0  0  0  0
 18 50  1  0  0  0  0
 20 51  1  0  0  0  0
 21 52  1  0  0  0  0
 23 53  1  0  0  0  0
 24 54  1  0  0  0  0
 27 55  1  0  0  0  0
 27 56  1  0  0  0  0
 27 57  1  0  0  0  0
 28 58  1  0  0  0  0
 28 59  1  0  0  0  0
 28 60  1  0  0  0  0
 29 61  1  0  0  0  0
 30 62  1  0  0  0  0
M  CHG  1   6   1
M  CHG  1  32  -1
M  END
