
  xtb     03012221243D
 energy: -6.249958090997 gnorm: 0.000380673507 xtb: 6.4.1 (afa7bdf)
 33 34  0     0  0            999 V2000
   -4.0882   -1.8907    0.6826 C   0  0  0  0  0  0  0  0  0  0  0  0
   -2.7165   -1.6971    0.7870 O   0  0  0  0  0  0  0  0  0  0  0  0
   -2.3207   -0.7622   -0.1283 C   0  0  0  0  0  0  0  0  0  0  0  0
   -3.0755   -0.2550   -0.9363 O   0  0  0  0  0  0  0  0  0  0  0  0
   -0.8721   -0.4213   -0.1250 C   0  0  0  0  0  0  0  0  0  0  0  0
   -0.2837    0.8625   -0.0234 C   0  0  0  0  0  0  0  0  0  0  0  0
   -0.9279    2.1614    0.2091 C   0  0  0  0  0  0  0  0  0  0  0  0
   -0.2666    3.1822    0.1191 O   0  0  0  0  0  0  0  0  0  0  0  0
   -2.2517    2.1583    0.5492 O   0  0  0  0  0  0  0  0  0  0  0  0
   -2.7034    3.4634    0.6933 C   0  0  0  0  0  0  0  0  0  0  0  0
    1.0951    0.6757   -0.1351 C   0  0  0  0  0  0  0  0  0  0  0  0
    2.1646    1.5720   -0.1101 C   0  0  0  0  0  0  0  0  0  0  0  0
    3.4000    1.0340   -0.2326 C   0  0  0  0  0  0  0  0  0  0  0  0
    3.5730   -0.3605   -0.3728 C   0  0  0  0  0  0  0  0  0  0  0  0
    4.9527   -0.8919   -0.5097 C   0  0  0  0  0  0  0  0  0  0  0  0
    2.5821   -1.2146   -0.3980 N   0  0  0  0  0  0  0  0  0  0  0  0
    1.3494   -0.6777   -0.2774 N   0  0  0  0  0  0  0  0  0  0  0  0
    0.1410   -1.3514   -0.2620 C   0  0  0  0  0  0  0  0  0  0  0  0
   -0.0125   -2.8064   -0.4204 C   0  0  0  0  0  0  0  0  0  0  0  0
   -4.3207   -2.2439   -0.3247 H   0  0  0  0  0  0  0  0  0  0  0  0
   -4.5893   -0.9358    0.8595 H   0  0  0  0  0  0  0  0  0  0  0  0
   -4.4052   -2.6262    1.4246 H   0  0  0  0  0  0  0  0  0  0  0  0
   -2.5519    3.9918   -0.2510 H   0  0  0  0  0  0  0  0  0  0  0  0
   -2.1298    3.9508    1.4852 H   0  0  0  0  0  0  0  0  0  0  0  0
   -3.7649    3.4447    0.9489 H   0  0  0  0  0  0  0  0  0  0  0  0
    1.9822    2.6273   -0.0042 H   0  0  0  0  0  0  0  0  0  0  0  0
    4.2691    1.6685   -0.2253 H   0  0  0  0  0  0  0  0  0  0  0  0
    5.4184   -0.5326   -1.4273 H   0  0  0  0  0  0  0  0  0  0  0  0
    5.5735   -0.5882    0.3331 H   0  0  0  0  0  0  0  0  0  0  0  0
    4.9376   -1.9810   -0.5429 H   0  0  0  0  0  0  0  0  0  0  0  0
    0.9419   -3.3102   -0.2671 H   0  0  0  0  0  0  0  0  0  0  0  0
   -0.7290   -3.1972    0.3029 H   0  0  0  0  0  0  0  0  0  0  0  0
   -0.3710   -3.0486   -1.4209 H   0  0  0  0  0  0  0  0  0  0  0  0
  1  2  1  0  0  0  0
  2  3  1  0  0  0  0
  3  4  2  0  0  0  0
  3  5  1  0  0  0  0
  5  6  1  0  0  0  0
  6  7  1  0  0  0  0
  7  8  2  0  0  0  0
  7  9  1  0  0  0  0
  9 10  1  0  0  0  0
  6 11  2  0  0  0  0
 11 12  1  0  0  0  0
 12 13  2  0  0  0  0
 13 14  1  0  0  0  0
 14 15  1  0  0  0  0
 14 16  2  0  0  0  0
 16 17  1  0  0  0  0
 17 18  1  0  0  0  0
 18 19  1  0  0  0  0
 18  5  2  0  0  0  0
 17 11  1  0  0  0  0
  1 20  1  0  0  0  0
  1 21  1  0  0  0  0
  1 22  1  0  0  0  0
 10 23  1  0  0  0  0
 10 24  1  0  0  0  0
 10 25  1  0  0  0  0
 12 26  1  0  0  0  0
 13 27  1  0  0  0  0
 15 28  1  0  0  0  0
 15 29  1  0  0  0  0
 15 30  1  0  0  0  0
 19 31  1  0  0  0  0
 19 32  1  0  0  0  0
 19 33  1  0  0  0  0
M  END
