
  xtb     03012221273D
 energy: -10.807382560011 gnorm: 0.000298926502 xtb: 6.4.1 (afa7bdf)
 55 58  0     0  0            999 V2000
   -1.1641    4.0689   -0.8632 C   0  0  0  0  0  0  0  0  0  0  0  0
   -0.7152    3.7840    0.5557 C   0  0  0  0  0  0  0  0  0  0  0  0
   -0.2844    2.4542    0.6884 O   0  0  0  0  0  0  0  0  0  0  0  0
   -1.3554    1.6021    0.6085 C   0  0  0  0  0  0  0  0  0  0  0  0
   -2.5093    1.9831    0.6722 O   0  0  0  0  0  0  0  0  0  0  0  0
   -1.0248    0.1718    0.4275 C   0  0  0  0  0  0  0  0  0  0  0  0
    0.1555   -0.3407   -0.1812 C   0  0  0  0  0  0  0  0  0  0  0  0
    1.2085    0.4488   -0.8364 C   0  0  0  0  0  0  0  0  0  0  0  0
    2.5238    0.2202   -0.5320 C   0  0  0  0  0  0  0  0  0  0  0  0
    2.9382   -0.9791    0.6139 Cl  0  0  0  0  0  0  0  0  0  0  0  0
    3.5538    0.9944   -1.1313 C   0  0  0  0  0  0  0  0  0  0  0  0
    4.9014    0.7892   -0.8357 C   0  0  0  0  0  0  0  0  0  0  0  0
    5.8898    1.5573   -1.4104 C   0  0  0  0  0  0  0  0  0  0  0  0
    7.3202    1.3009   -1.0942 C   0  0  0  0  0  0  0  0  0  0  0  0
    5.5179    2.5531   -2.3151 C   0  0  0  0  0  0  0  0  0  0  0  0
    4.2002    2.7730   -2.6195 C   0  0  0  0  0  0  0  0  0  0  0  0
    3.1910    2.0028   -2.0380 C   0  0  0  0  0  0  0  0  0  0  0  0
    1.8721    2.2468   -2.3764 O   0  0  0  0  0  0  0  0  0  0  0  0
    0.8741    1.4684   -1.8272 C   0  0  0  0  0  0  0  0  0  0  0  0
   -0.2946    1.6135   -2.1621 O   0  0  0  0  0  0  0  0  0  0  0  0
    0.1920   -1.6582   -0.0760 N   0  0  0  0  0  0  0  0  0  0  0  0
   -0.9172   -2.0184    0.5546 N   0  0  0  0  0  0  0  0  0  0  0  0
   -1.1739   -3.4198    0.7842 C   0  0  0  0  0  0  0  0  0  0  0  0
   -2.0017   -3.8659    1.8016 C   0  0  0  0  0  0  0  0  0  0  0  0
   -2.1920   -5.2114    2.0092 C   0  0  0  0  0  0  0  0  0  0  0  0
   -1.5567   -6.1326    1.2049 C   0  0  0  0  0  0  0  0  0  0  0  0
   -0.7271   -5.6996    0.1928 C   0  0  0  0  0  0  0  0  0  0  0  0
   -0.5350   -4.3533   -0.0144 C   0  0  0  0  0  0  0  0  0  0  0  0
   -1.7224   -0.9273    0.8822 C   0  0  0  0  0  0  0  0  0  0  0  0
   -3.0392   -0.9364    1.5702 C   0  0  0  0  0  0  0  0  0  0  0  0
   -3.1385   -1.3674    2.7059 O   0  0  0  0  0  0  0  0  0  0  0  0
   -4.1001   -0.4559    0.8528 O   0  0  0  0  0  0  0  0  0  0  0  0
   -5.2397   -0.3788    1.6705 C   0  0  0  0  0  0  0  0  0  0  0  0
   -6.3551    0.3963    1.0030 C   0  0  0  0  0  0  0  0  0  0  0  0
   -1.4908    5.1012   -1.0034 H   0  0  0  0  0  0  0  0  0  0  0  0
   -0.3556    3.8556   -1.5663 H   0  0  0  0  0  0  0  0  0  0  0  0
   -1.9865    3.4016   -1.1328 H   0  0  0  0  0  0  0  0  0  0  0  0
    0.1237    4.4263    0.8528 H   0  0  0  0  0  0  0  0  0  0  0  0
   -1.5265    3.9380    1.2805 H   0  0  0  0  0  0  0  0  0  0  0  0
    5.1657    0.0113   -0.1404 H   0  0  0  0  0  0  0  0  0  0  0  0
    7.9452    2.1502   -1.3709 H   0  0  0  0  0  0  0  0  0  0  0  0
    7.6840    0.4259   -1.6333 H   0  0  0  0  0  0  0  0  0  0  0  0
    7.4575    1.1215   -0.0276 H   0  0  0  0  0  0  0  0  0  0  0  0
    6.2831    3.1514   -2.7774 H   0  0  0  0  0  0  0  0  0  0  0  0
    3.9134    3.5400   -3.3175 H   0  0  0  0  0  0  0  0  0  0  0  0
   -2.4937   -3.1426    2.4234 H   0  0  0  0  0  0  0  0  0  0  0  0
   -2.8408   -5.5454    2.8046 H   0  0  0  0  0  0  0  0  0  0  0  0
   -1.7061   -7.1870    1.3679 H   0  0  0  0  0  0  0  0  0  0  0  0
   -0.2241   -6.4176   -0.4367 H   0  0  0  0  0  0  0  0  0  0  0  0
    0.1193   -4.0020   -0.7918 H   0  0  0  0  0  0  0  0  0  0  0  0
   -5.5364   -1.4084    1.9140 H   0  0  0  0  0  0  0  0  0  0  0  0
   -4.9217    0.0981    2.6097 H   0  0  0  0  0  0  0  0  0  0  0  0
   -6.6465   -0.0827    0.0686 H   0  0  0  0  0  0  0  0  0  0  0  0
   -7.2391    0.4781    1.6367 H   0  0  0  0  0  0  0  0  0  0  0  0
   -6.0158    1.4023    0.7552 H   0  0  0  0  0  0  0  0  0  0  0  0
  1  2  1  0  0  0  0
  2  3  1  0  0  0  0
  3  4  1  0  0  0  0
  4  5  2  0  0  0  0
  4  6  1  0  0  0  0
  6  7  1  0  0  0  0
  7  8  1  0  0  0  0
  8  9  2  0  0  0  0
  9 10  1  0  0  0  0
  9 11  1  0  0  0  0
 11 12  2  0  0  0  0
 12 13  1  0  0  0  0
 13 14  1  0  0  0  0
 13 15  2  0  0  0  0
 15 16  1  0  0  0  0
 16 17  2  0  0  0  0
 17 18  1  0  0  0  0
 18 19  1  0  0  0  0
 19 20  2  0  0  0  0
  7 21  2  0  0  0  0
 21 22  1  0  0  0  0
 22 23  1  0  0  0  0
 23 24  2  0  0  0  0
 24 25  1  0  0  0  0
 25 26  2  0  0  0  0
 26 27  1  0  0  0  0
 27 28  2  0  0  0  0
 22 29  1  0  0  0  0
 29 30  1  0  0  0  0
 30 31  2  0  0  0  0
 30 32  1  0  0  0  0
 32 33  1  0  0  0  0
 33 34  1  0  0  0  0
 29  6  2  0  0  0  0
 19  8  1  0  0  0  0
 28 23  1  0  0  0  0
 17 11  1  0  0  0  0
  1 35  1  0  0  0  0
  1 36  1  0  0  0  0
  1 37  1  0  0  0  0
  2 38  1  0  0  0  0
  2 39  1  0  0  0  0
 12 40  1  0  0  0  0
 14 41  1  0  0  0  0
 14 42  1  0  0  0  0
 14 43  1  0  0  0  0
 15 44  1  0  0  0  0
 16 45  1  0  0  0  0
 24 46  1  0  0  0  0
 25 47  1  0  0  0  0
 26 48  1  0  0  0  0
 27 49  1  0  0  0  0
 28 50  1  0  0  0  0
 33 51  1  0  0  0  0
 33 52  1  0  0  0  0
 34 53  1  0  0  0  0
 34 54  1  0  0  0  0
 34 55  1  0  0  0  0
M  END
