
  xtb     03012221273D
 energy: -9.806834860128 gnorm: 0.000247713355 xtb: 6.4.1 (afa7bdf)
 46 49  0     0  0            999 V2000
    3.4373   -0.0498    0.2833 C   0  0  0  0  0  0  0  0  0  0  0  0
    4.2166    0.9255   -0.2173 C   0  0  0  0  0  0  0  0  0  0  0  0
    5.6606    0.9793   -0.1444 C   0  0  0  0  0  0  0  0  0  0  0  0
    6.4090   -0.0077    0.4805 C   0  0  0  0  0  0  0  0  0  0  0  0
    7.7656    0.1301    0.5018 C   0  0  0  0  0  0  0  0  0  0  0  0
    8.3864    1.1556   -0.0445 N   0  0  0  0  0  0  0  0  0  0  0  0
    7.5836    2.0316   -0.6100 C   0  0  0  0  0  0  0  0  0  0  0  0
    6.2722    2.0263   -0.7035 N   0  0  0  0  0  0  0  0  0  0  0  0
    1.9909   -0.0860    0.2093 C   0  0  0  0  0  0  0  0  0  0  0  0
    1.2423    0.9072   -0.4318 C   0  0  0  0  0  0  0  0  0  0  0  0
   -0.1280    0.8406   -0.4736 C   0  0  0  0  0  0  0  0  0  0  0  0
   -0.8144   -0.2181    0.1202 C   0  0  0  0  0  0  0  0  0  0  0  0
   -2.2423   -0.2805    0.0825 N   0  0  0  0  0  0  0  0  0  0  0  0
   -2.9116   -1.5510    0.0462 C   0  0  0  0  0  0  0  0  0  0  0  0
   -4.0862   -1.7552    0.7659 C   0  0  0  0  0  0  0  0  0  0  0  0
   -4.7309   -2.9710    0.7270 C   0  0  0  0  0  0  0  0  0  0  0  0
   -4.2160   -4.0040   -0.0318 C   0  0  0  0  0  0  0  0  0  0  0  0
   -3.0532   -3.8162   -0.7534 C   0  0  0  0  0  0  0  0  0  0  0  0
   -2.4064   -2.6014   -0.7159 C   0  0  0  0  0  0  0  0  0  0  0  0
   -3.0216    0.9262    0.0876 C   0  0  0  0  0  0  0  0  0  0  0  0
   -4.1757    1.0287   -0.6847 C   0  0  0  0  0  0  0  0  0  0  0  0
   -4.9258    2.1831   -0.6763 C   0  0  0  0  0  0  0  0  0  0  0  0
   -4.5384    3.2550    0.1040 C   0  0  0  0  0  0  0  0  0  0  0  0
   -3.3974    3.1678    0.8775 C   0  0  0  0  0  0  0  0  0  0  0  0
   -2.6455    2.0145    0.8709 C   0  0  0  0  0  0  0  0  0  0  0  0
   -0.0717   -1.2120    0.7563 C   0  0  0  0  0  0  0  0  0  0  0  0
    1.2982   -1.1478    0.8004 C   0  0  0  0  0  0  0  0  0  0  0  0
    3.9059   -0.8751    0.7862 H   0  0  0  0  0  0  0  0  0  0  0  0
    3.7554    1.7551   -0.7194 H   0  0  0  0  0  0  0  0  0  0  0  0
    5.9373   -0.8584    0.9382 H   0  0  0  0  0  0  0  0  0  0  0  0
    8.3801   -0.6175    0.9807 H   0  0  0  0  0  0  0  0  0  0  0  0
    8.0749    2.8809   -1.0640 H   0  0  0  0  0  0  0  0  0  0  0  0
    1.7431    1.7338   -0.9020 H   0  0  0  0  0  0  0  0  0  0  0  0
   -0.6930    1.6040   -0.9795 H   0  0  0  0  0  0  0  0  0  0  0  0
   -4.4778   -0.9479    1.3596 H   0  0  0  0  0  0  0  0  0  0  0  0
   -5.6382   -3.1172    1.2899 H   0  0  0  0  0  0  0  0  0  0  0  0
   -4.7215   -4.9551   -0.0616 H   0  0  0  0  0  0  0  0  0  0  0  0
   -2.6528   -4.6208   -1.3481 H   0  0  0  0  0  0  0  0  0  0  0  0
   -1.5064   -2.4448   -1.2844 H   0  0  0  0  0  0  0  0  0  0  0  0
   -4.4679    0.1920   -1.2949 H   0  0  0  0  0  0  0  0  0  0  0  0
   -5.8159    2.2508   -1.2802 H   0  0  0  0  0  0  0  0  0  0  0  0
   -5.1261    4.1581    0.1097 H   0  0  0  0  0  0  0  0  0  0  0  0
   -3.0961    4.0030    1.4883 H   0  0  0  0  0  0  0  0  0  0  0  0
   -1.7617    1.9361    1.4796 H   0  0  0  0  0  0  0  0  0  0  0  0
   -0.5928   -2.0267    1.2281 H   0  0  0  0  0  0  0  0  0  0  0  0
    1.8560   -1.9211    1.2997 H   0  0  0  0  0  0  0  0  0  0  0  0
  1  2  2  0  0  0  0
  2  3  1  0  0  0  0
  3  4  2  0  0  0  0
  4  5  1  0  0  0  0
  5  6  2  0  0  0  0
  6  7  1  0  0  0  0
  7  8  2  0  0  0  0
  1  9  1  0  0  0  0
  9 10  2  0  0  0  0
 10 11  1  0  0  0  0
 11 12  2  0  0  0  0
 12 13  1  0  0  0  0
 13 14  1  0  0  0  0
 14 15  2  0  0  0  0
 15 16  1  0  0  0  0
 16 17  2  0  0  0  0
 17 18  1  0  0  0  0
 18 19  2  0  0  0  0
 13 20  1  0  0  0  0
 20 21  2  0  0  0  0
 21 22  1  0  0  0  0
 22 23  2  0  0  0  0
 23 24  1  0  0  0  0
 24 25  2  0  0  0  0
 12 26  1  0  0  0  0
 26 27  2  0  0  0  0
  8  3  1  0  0  0  0
 27  9  1  0  0  0  0
 19 14  1  0  0  0  0
 25 20  1  0  0  0  0
  1 28  1  0  0  0  0
  2 29  1  0  0  0  0
  4 30  1  0  0  0  0
  5 31  1  0  0  0  0
  7 32  1  0  0  0  0
 10 33  1  0  0  0  0
 11 34  1  0  0  0  0
 15 35  1  0  0  0  0
 16 36  1  0  0  0  0
 17 37  1  0  0  0  0
 18 38  1  0  0  0  0
 19 39  1  0  0  0  0
 21 40  1  0  0  0  0
 22 41  1  0  0  0  0
 23 42  1  0  0  0  0
 24 43  1  0  0  0  0
 25 44  1  0  0  0  0
 26 45  1  0  0  0  0
 27 46  1  0  0  0  0
M  END
