
  xtb     03012221323D
 energy: -5.127507914642 gnorm: 0.000329789030 xtb: 6.4.1 (afa7bdf)
 27 29  0     0  0            999 V2000
   -2.3819   -2.4608    0.7995 C   0  0  0  0  0  0  0  0  0  0  0  0
   -1.8790   -1.1338    0.3762 C   0  0  0  0  0  0  0  0  0  0  0  0
   -2.6454   -0.0386   -0.0127 C   0  0  0  0  0  0  0  0  0  0  0  0
   -1.7931    1.0246   -0.3601 C   0  0  0  0  0  0  0  0  0  0  0  0
   -2.1503    2.3733   -0.8317 C   0  0  0  0  0  0  0  0  0  0  0  0
   -0.5398    0.5724   -0.1895 N   0  0  0  0  0  4  0  0  0  0  0  0
   -0.5124   -0.7532    0.2613 C   0  0  0  0  0  0  0  0  0  0  0  0
    0.6608   -1.4458    0.5039 C   0  0  0  0  0  0  0  0  0  0  0  0
    1.8591   -0.7868    0.2911 C   0  0  0  0  0  0  0  0  0  0  0  0
    3.2008   -1.2102    0.4458 C   0  0  0  0  0  0  0  0  0  0  0  0
    4.0220   -0.1498    0.0946 C   0  0  0  0  0  0  0  0  0  0  0  0
    3.2220    0.9385   -0.2804 C   0  0  0  0  0  0  0  0  0  0  0  0
    1.9491    0.5400   -0.1568 N   0  0  0  0  0  0  0  0  0  0  0  0
    0.7190    1.4002   -0.4582 B   0  0  0  0  0  4  0  0  0  0  0  0
    0.7336    1.7709   -1.7982 F   0  0  0  0  0  0  0  0  0  0  0  0
    0.7142    2.5081    0.3818 F   0  0  0  0  0  0  0  0  0  0  0  0
   -2.1504   -3.2191    0.0512 H   0  0  0  0  0  0  0  0  0  0  0  0
   -3.4631   -2.4440    0.9387 H   0  0  0  0  0  0  0  0  0  0  0  0
   -1.9273   -2.7655    1.7424 H   0  0  0  0  0  0  0  0  0  0  0  0
   -3.7206   -0.0093   -0.0491 H   0  0  0  0  0  0  0  0  0  0  0  0
   -2.6577    2.3271   -1.7951 H   0  0  0  0  0  0  0  0  0  0  0  0
   -2.8033    2.8765   -0.1189 H   0  0  0  0  0  0  0  0  0  0  0  0
   -1.2489    2.9761   -0.9519 H   0  0  0  0  0  0  0  0  0  0  0  0
    0.6435   -2.4630    0.8463 H   0  0  0  0  0  0  0  0  0  0  0  0
    3.5173   -2.1848    0.7760 H   0  0  0  0  0  0  0  0  0  0  0  0
    5.1000   -0.1595    0.1042 H   0  0  0  0  0  0  0  0  0  0  0  0
    3.5315    1.9165   -0.6101 H   0  0  0  0  0  0  0  0  0  0  0  0
  1  2  1  0  0  0  0
  2  3  2  0  0  0  0
  3  4  1  0  0  0  0
  4  5  1  0  0  0  0
  4  6  2  0  0  0  0
  6  7  1  0  0  0  0
  7  8  2  0  0  0  0
  8  9  1  0  0  0  0
  9 10  2  0  0  0  0
 10 11  1  0  0  0  0
 11 12  2  0  0  0  0
 12 13  1  0  0  0  0
 13 14  1  0  0  0  0
 14 15  1  0  0  0  0
 14 16  1  0  0  0  0
  7  2  1  0  0  0  0
 13  9  1  0  0  0  0
 14  6  1  0  0  0  0
  1 17  1  0  0  0  0
  1 18  1  0  0  0  0
  1 19  1  0  0  0  0
  3 20  1  0  0  0  0
  5 21  1  0  0  0  0
  5 22  1  0  0  0  0
  5 23  1  0  0  0  0
  8 24  1  0  0  0  0
 10 25  1  0  0  0  0
 11 26  1  0  0  0  0
 12 27  1  0  0  0  0
M  CHG  1   6   1
M  CHG  1  14  -1
M  END
