
  xtb     03012221283D
 energy: -9.028264995944 gnorm: 0.000221786167 xtb: 6.4.1 (afa7bdf)
 46 48  0     0  0            999 V2000
   -2.6561    4.1424    0.0665 C   0  0  0  0  0  0  0  0  0  0  0  0
   -3.2679    2.8989   -0.0540 O   0  0  0  0  0  0  0  0  0  0  0  0
   -2.3321    1.9035    0.0394 C   0  0  0  0  0  0  0  0  0  0  0  0
   -1.1498    2.1211    0.2229 O   0  0  0  0  0  0  0  0  0  0  0  0
   -2.8676    0.5190   -0.0894 C   0  0  0  0  0  0  0  0  0  0  0  0
   -4.2254    0.3215    0.1017 C   0  0  0  0  0  0  0  0  0  0  0  0
   -4.7792   -0.9346   -0.0019 C   0  0  0  0  0  0  0  0  0  0  0  0
   -3.9853   -2.0182   -0.2859 C   0  0  0  0  0  0  0  0  0  0  0  0
   -2.6101   -1.8753   -0.4754 C   0  0  0  0  0  0  0  0  0  0  0  0
   -2.0499   -0.5771   -0.4021 C   0  0  0  0  0  0  0  0  0  0  0  0
   -0.6910   -0.3964   -0.6486 C   0  0  0  0  0  0  0  0  0  0  0  0
    0.5263   -0.2986   -0.6996 C   0  0  0  0  0  0  0  0  0  0  0  0
    1.9095   -0.2991   -0.5561 C   0  0  0  0  0  0  0  0  0  0  0  0
    2.5714    0.7857    0.0341 C   0  0  0  0  0  0  0  0  0  0  0  0
    1.8360    1.8985    0.4659 N   0  0  0  0  0  0  0  0  0  0  0  0
    2.3449    3.0276    1.0928 C   0  0  0  0  0  0  0  0  0  0  0  0
    1.3718    4.0813    1.4926 C   0  0  0  0  0  0  0  0  0  0  0  0
    3.5248    3.1836    1.3167 O   0  0  0  0  0  0  0  0  0  0  0  0
    3.9486    0.7101    0.2107 C   0  0  0  0  0  0  0  0  0  0  0  0
    4.6560   -0.4104   -0.1637 C   0  0  0  0  0  0  0  0  0  0  0  0
    4.0055   -1.4857   -0.7225 C   0  0  0  0  0  0  0  0  0  0  0  0
    2.6243   -1.4527   -0.9286 C   0  0  0  0  0  0  0  0  0  0  0  0
    1.9286   -2.5421   -1.5069 O   0  0  0  0  0  0  0  0  0  0  0  0
    1.7507   -3.6775   -0.6546 C   0  0  0  0  0  0  0  0  0  0  0  0
    0.3121   -4.1857   -0.7182 C   0  0  0  0  0  0  0  0  0  0  0  0
   -0.6856   -3.2693    0.0110 C   0  0  0  0  0  0  0  0  0  0  0  0
   -1.8701   -3.0483   -0.7625 O   0  0  0  0  0  0  0  0  0  0  0  0
   -3.4026    4.9240   -0.0832 H   0  0  0  0  0  0  0  0  0  0  0  0
   -1.8715    4.2252   -0.6880 H   0  0  0  0  0  0  0  0  0  0  0  0
   -2.2206    4.2282    1.0633 H   0  0  0  0  0  0  0  0  0  0  0  0
   -4.8418    1.1745    0.3246 H   0  0  0  0  0  0  0  0  0  0  0  0
   -5.8397   -1.0677    0.1417 H   0  0  0  0  0  0  0  0  0  0  0  0
   -4.4083   -3.0030   -0.3655 H   0  0  0  0  0  0  0  0  0  0  0  0
    0.8195    1.8744    0.3310 H   0  0  0  0  0  0  0  0  0  0  0  0
    0.3451    3.7474    1.3459 H   0  0  0  0  0  0  0  0  0  0  0  0
    1.5297    4.9836    0.9039 H   0  0  0  0  0  0  0  0  0  0  0  0
    1.5043    4.3345    2.5433 H   0  0  0  0  0  0  0  0  0  0  0  0
    4.4477    1.5502    0.6613 H   0  0  0  0  0  0  0  0  0  0  0  0
    5.7221   -0.4453   -0.0155 H   0  0  0  0  0  0  0  0  0  0  0  0
    4.5494   -2.3645   -1.0226 H   0  0  0  0  0  0  0  0  0  0  0  0
    2.0243   -3.3998    0.3690 H   0  0  0  0  0  0  0  0  0  0  0  0
    2.4650   -4.4387   -0.9897 H   0  0  0  0  0  0  0  0  0  0  0  0
    0.0164   -4.2343   -1.7735 H   0  0  0  0  0  0  0  0  0  0  0  0
    0.2360   -5.2136   -0.3400 H   0  0  0  0  0  0  0  0  0  0  0  0
   -0.9954   -3.6876    0.9754 H   0  0  0  0  0  0  0  0  0  0  0  0
   -0.2197   -2.3098    0.2344 H   0  0  0  0  0  0  0  0  0  0  0  0
  1  2  1  0  0  0  0
  2  3  1  0  0  0  0
  3  4  2  0  0  0  0
  3  5  1  0  0  0  0
  5  6  2  0  0  0  0
  6  7  1  0  0  0  0
  7  8  2  0  0  0  0
  8  9  1  0  0  0  0
  9 10  2  0  0  0  0
 10 11  1  0  0  0  0
 11 12  3  0  0  0  0
 12 13  1  0  0  0  0
 13 14  2  0  0  0  0
 14 15  1  0  0  0  0
 15 16  1  0  0  0  0
 16 17  1  0  0  0  0
 16 18  2  0  0  0  0
 14 19  1  0  0  0  0
 19 20  2  0  0  0  0
 20 21  1  0  0  0  0
 21 22  2  0  0  0  0
 22 23  1  0  0  0  0
 23 24  1  0  0  0  0
 24 25  1  0  0  0  0
 25 26  1  0  0  0  0
 26 27  1  0  0  0  0
 10  5  1  0  0  0  0
 22 13  1  0  0  0  0
 27  9  1  0  0  0  0
  1 28  1  0  0  0  0
  1 29  1  0  0  0  0
  1 30  1  0  0  0  0
  6 31  1  0  0  0  0
  7 32  1  0  0  0  0
  8 33  1  0  0  0  0
 15 34  1  0  0  0  0
 17 35  1  0  0  0  0
 17 36  1  0  0  0  0
 17 37  1  0  0  0  0
 19 38  1  0  0  0  0
 20 39  1  0  0  0  0
 21 40  1  0  0  0  0
 24 41  1  0  0  0  0
 24 42  1  0  0  0  0
 25 43  1  0  0  0  0
 25 44  1  0  0  0  0
 26 45  1  0  0  0  0
 26 46  1  0  0  0  0
M  END
