
  xtb     03012221203D
 energy: -21.504105245466 gnorm: 0.000148074898 xtb: 6.4.1 (afa7bdf)
100110  0     0  0            999 V2000
    0.0934   -3.1372    2.3473 C   0  0  0  0  0  0  0  0  0  0  0  0
    0.5334   -2.7173    0.9625 C   0  0  0  0  0  0  0  0  0  0  0  0
    0.3925   -1.2684    0.7517 N   0  0  0  0  0  0  0  0  0  0  0  0
   -0.8116   -0.6038    0.6418 C   0  0  0  0  0  0  0  0  0  0  0  0
   -2.1489   -1.2134    0.7295 C   0  0  0  0  0  0  0  0  0  0  0  0
   -3.0467   -0.8135    1.7222 C   0  0  0  0  0  0  0  0  0  0  0  0
   -4.3347   -1.2884    1.7366 C   0  0  0  0  0  0  0  0  0  0  0  0
   -4.7785   -2.1754    0.7549 C   0  0  0  0  0  0  0  0  0  0  0  0
   -6.1994   -2.6007    0.7094 C   0  0  0  0  0  0  0  0  0  0  0  0
   -6.7243   -3.3943    1.7058 C   0  0  0  0  0  0  0  0  0  0  0  0
   -8.0620   -3.7906    1.6881 C   0  0  0  0  0  0  0  0  0  0  0  0
   -8.8910   -3.3911    0.6820 C   0  0  0  0  0  0  0  0  0  0  0  0
   -8.4125   -2.5658   -0.3598 C   0  0  0  0  0  0  0  0  0  0  0  0
   -9.2539   -2.1181   -1.4042 C   0  0  0  0  0  0  0  0  0  0  0  0
   -8.7715   -1.3076   -2.3878 C   0  0  0  0  0  0  0  0  0  0  0  0
   -7.4310   -0.9056   -2.3798 C   0  0  0  0  0  0  0  0  0  0  0  0
   -6.5941   -1.3238   -1.3892 C   0  0  0  0  0  0  0  0  0  0  0  0
   -7.0554   -2.1649   -0.3535 C   0  0  0  0  0  0  0  0  0  0  0  0
   -3.8729   -2.5973   -0.2204 C   0  0  0  0  0  0  0  0  0  0  0  0
   -2.5827   -2.1273   -0.2330 C   0  0  0  0  0  0  0  0  0  0  0  0
   -0.5414    0.7586    0.4485 C   0  0  0  0  0  0  0  0  0  0  0  0
   -1.5554    1.8167    0.2989 C   0  0  0  0  0  0  0  0  0  0  0  0
   -1.3587    3.0990    0.8663 C   0  0  0  0  0  0  0  0  0  0  0  0
   -2.2968    4.0759    0.7485 C   0  0  0  0  0  0  0  0  0  0  0  0
   -3.5100    3.8343    0.0621 C   0  0  0  0  0  0  0  0  0  0  0  0
   -4.5125    4.8194   -0.0688 C   0  0  0  0  0  0  0  0  0  0  0  0
   -5.6757    4.5443   -0.7240 C   0  0  0  0  0  0  0  0  0  0  0  0
   -5.8962    3.2772   -1.2785 C   0  0  0  0  0  0  0  0  0  0  0  0
   -4.9493    2.3047   -1.1739 C   0  0  0  0  0  0  0  0  0  0  0  0
   -3.7299    2.5565   -0.5041 C   0  0  0  0  0  0  0  0  0  0  0  0
   -2.7322    1.5714   -0.3739 C   0  0  0  0  0  0  0  0  0  0  0  0
    0.8670    0.9083    0.4266 C   0  0  0  0  0  0  0  0  0  0  0  0
    1.6161    2.1574    0.2047 C   0  0  0  0  0  0  0  0  0  0  0  0
    2.7568    2.4625    0.9859 C   0  0  0  0  0  0  0  0  0  0  0  0
    3.4541    3.6136    0.7964 C   0  0  0  0  0  0  0  0  0  0  0  0
    3.0554    4.5452   -0.1906 C   0  0  0  0  0  0  0  0  0  0  0  0
    3.7505    5.7542   -0.4091 C   0  0  0  0  0  0  0  0  0  0  0  0
    3.3354    6.6309   -1.3665 C   0  0  0  0  0  0  0  0  0  0  0  0
    2.2104    6.3457   -2.1505 C   0  0  0  0  0  0  0  0  0  0  0  0
    1.5168    5.1884   -1.9675 C   0  0  0  0  0  0  0  0  0  0  0  0
    1.9197    4.2559   -0.9839 C   0  0  0  0  0  0  0  0  0  0  0  0
    1.2228    3.0511   -0.7664 C   0  0  0  0  0  0  0  0  0  0  0  0
    1.4280   -0.3613    0.6329 C   0  0  0  0  0  0  0  0  0  0  0  0
    2.8606   -0.6904    0.6404 C   0  0  0  0  0  0  0  0  0  0  0  0
    3.4275   -1.4096    1.6939 C   0  0  0  0  0  0  0  0  0  0  0  0
    4.7675   -1.7108    1.6990 C   0  0  0  0  0  0  0  0  0  0  0  0
    5.5954   -1.3104    0.6492 C   0  0  0  0  0  0  0  0  0  0  0  0
    7.0399   -1.6457    0.6553 C   0  0  0  0  0  0  0  0  0  0  0  0
    7.8398   -1.2143    1.6914 C   0  0  0  0  0  0  0  0  0  0  0  0
    9.2048   -1.4997    1.7254 C   0  0  0  0  0  0  0  0  0  0  0  0
    9.7860   -2.2237    0.7277 C   0  0  0  0  0  0  0  0  0  0  0  0
    9.0159   -2.7043   -0.3542 C   0  0  0  0  0  0  0  0  0  0  0  0
    9.5923   -3.4723   -1.3920 C   0  0  0  0  0  0  0  0  0  0  0  0
    8.8273   -3.9443   -2.4157 C   0  0  0  0  0  0  0  0  0  0  0  0
    7.4543   -3.6771   -2.4529 C   0  0  0  0  0  0  0  0  0  0  0  0
    6.8696   -2.9366   -1.4695 C   0  0  0  0  0  0  0  0  0  0  0  0
    7.6291   -2.4209   -0.3966 C   0  0  0  0  0  0  0  0  0  0  0  0
    5.0311   -0.5799   -0.3979 C   0  0  0  0  0  0  0  0  0  0  0  0
    3.6921   -0.2764   -0.4025 C   0  0  0  0  0  0  0  0  0  0  0  0
    0.6616   -2.6107    3.1152 H   0  0  0  0  0  0  0  0  0  0  0  0
   -0.9587   -2.8996    2.5118 H   0  0  0  0  0  0  0  0  0  0  0  0
    0.2211   -4.2091    2.5128 H   0  0  0  0  0  0  0  0  0  0  0  0
    1.5763   -2.9944    0.7773 H   0  0  0  0  0  0  0  0  0  0  0  0
   -0.0497   -3.2315    0.1919 H   0  0  0  0  0  0  0  0  0  0  0  0
   -2.7203   -0.1022    2.4610 H   0  0  0  0  0  0  0  0  0  0  0  0
   -5.0293   -0.9541    2.4878 H   0  0  0  0  0  0  0  0  0  0  0  0
   -6.0803   -3.7136    2.5071 H   0  0  0  0  0  0  0  0  0  0  0  0
   -8.4410   -4.4169    2.4796 H   0  0  0  0  0  0  0  0  0  0  0  0
   -9.9233   -3.6957    0.6734 H   0  0  0  0  0  0  0  0  0  0  0  0
  -10.2859   -2.4241   -1.4086 H   0  0  0  0  0  0  0  0  0  0  0  0
   -9.4237   -0.9710   -3.1771 H   0  0  0  0  0  0  0  0  0  0  0  0
   -7.0618   -0.2630   -3.1624 H   0  0  0  0  0  0  0  0  0  0  0  0
   -5.5640   -1.0136   -1.3851 H   0  0  0  0  0  0  0  0  0  0  0  0
   -4.2090   -3.2828   -0.9793 H   0  0  0  0  0  0  0  0  0  0  0  0
   -1.9040   -2.4241   -1.0134 H   0  0  0  0  0  0  0  0  0  0  0  0
   -0.4452    3.2896    1.4022 H   0  0  0  0  0  0  0  0  0  0  0  0
   -2.1292    5.0459    1.1827 H   0  0  0  0  0  0  0  0  0  0  0  0
   -4.3457    5.7926    0.3604 H   0  0  0  0  0  0  0  0  0  0  0  0
   -6.4347    5.3042   -0.8156 H   0  0  0  0  0  0  0  0  0  0  0  0
   -6.8234    3.0725   -1.7890 H   0  0  0  0  0  0  0  0  0  0  0  0
   -5.1219    1.3292   -1.5937 H   0  0  0  0  0  0  0  0  0  0  0  0
   -2.9028    0.6012   -0.8021 H   0  0  0  0  0  0  0  0  0  0  0  0
    3.0657    1.7600    1.7403 H   0  0  0  0  0  0  0  0  0  0  0  0
    4.3195    3.8307    1.3979 H   0  0  0  0  0  0  0  0  0  0  0  0
    4.6148    5.9746    0.1940 H   0  0  0  0  0  0  0  0  0  0  0  0
    3.8739    7.5513   -1.5235 H   0  0  0  0  0  0  0  0  0  0  0  0
    1.8938    7.0497   -2.9031 H   0  0  0  0  0  0  0  0  0  0  0  0
    0.6507    4.9702   -2.5684 H   0  0  0  0  0  0  0  0  0  0  0  0
    0.3617    2.8276   -1.3694 H   0  0  0  0  0  0  0  0  0  0  0  0
    2.8016   -1.7113    2.5150 H   0  0  0  0  0  0  0  0  0  0  0  0
    5.1950   -2.2690    2.5140 H   0  0  0  0  0  0  0  0  0  0  0  0
    7.3951   -0.6342    2.4816 H   0  0  0  0  0  0  0  0  0  0  0  0
    9.8026   -1.1413    2.5480 H   0  0  0  0  0  0  0  0  0  0  0  0
   10.8395   -2.4428    0.7561 H   0  0  0  0  0  0  0  0  0  0  0  0
   10.6474   -3.6829   -1.3594 H   0  0  0  0  0  0  0  0  0  0  0  0
    9.2778   -4.5306   -3.1999 H   0  0  0  0  0  0  0  0  0  0  0  0
    6.8582   -4.0625   -3.2640 H   0  0  0  0  0  0  0  0  0  0  0  0
    5.8111   -2.7460   -1.4977 H   0  0  0  0  0  0  0  0  0  0  0  0
    5.6651   -0.2489   -1.2024 H   0  0  0  0  0  0  0  0  0  0  0  0
    3.2656    0.2875   -1.2139 H   0  0  0  0  0  0  0  0  0  0  0  0
  1  2  1  0  0  0  0
  2  3  1  0  0  0  0
  3  4  1  0  0  0  0
  4  5  1  0  0  0  0
  5  6  2  0  0  0  0
  6  7  1  0  0  0  0
  7  8  2  0  0  0  0
  8  9  1  0  0  0  0
  9 10  2  0  0  0  0
 10 11  1  0  0  0  0
 11 12  2  0  0  0  0
 12 13  1  0  0  0  0
 13 14  2  0  0  0  0
 14 15  1  0  0  0  0
 15 16  2  0  0  0  0
 16 17  1  0  0  0  0
 17 18  2  0  0  0  0
  8 19  1  0  0  0  0
 19 20  2  0  0  0  0
  4 21  2  0  0  0  0
 21 22  1  0  0  0  0
 22 23  2  0  0  0  0
 23 24  1  0  0  0  0
 24 25  2  0  0  0  0
 25 26  1  0  0  0  0
 26 27  2  0  0  0  0
 27 28  1  0  0  0  0
 28 29  2  0  0  0  0
 29 30  1  0  0  0  0
 30 31  2  0  0  0  0
 21 32  1  0  0  0  0
 32 33  1  0  0  0  0
 33 34  2  0  0  0  0
 34 35  1  0  0  0  0
 35 36  2  0  0  0  0
 36 37  1  0  0  0  0
 37 38  2  0  0  0  0
 38 39  1  0  0  0  0
 39 40  2  0  0  0  0
 40 41  1  0  0  0  0
 41 42  2  0  0  0  0
 32 43  2  0  0  0  0
 43 44  1  0  0  0  0
 44 45  2  0  0  0  0
 45 46  1  0  0  0  0
 46 47  2  0  0  0  0
 47 48  1  0  0  0  0
 48 49  2  0  0  0  0
 49 50  1  0  0  0  0
 50 51  2  0  0  0  0
 51 52  1  0  0  0  0
 52 53  2  0  0  0  0
 53 54  1  0  0  0  0
 54 55  2  0  0  0  0
 55 56  1  0  0  0  0
 56 57  2  0  0  0  0
 47 58  1  0  0  0  0
 58 59  2  0  0  0  0
 43  3  1  0  0  0  0
 59 44  1  0  0  0  0
 20  5  1  0  0  0  0
 31 22  1  0  0  0  0
 42 33  1  0  0  0  0
 57 48  1  0  0  0  0
 18  9  1  0  0  0  0
 30 25  1  0  0  0  0
 41 36  1  0  0  0  0
 57 52  1  0  0  0  0
 18 13  1  0  0  0  0
  1 60  1  0  0  0  0
  1 61  1  0  0  0  0
  1 62  1  0  0  0  0
  2 63  1  0  0  0  0
  2 64  1  0  0  0  0
  6 65  1  0  0  0  0
  7 66  1  0  0  0  0
 10 67  1  0  0  0  0
 11 68  1  0  0  0  0
 12 69  1  0  0  0  0
 14 70  1  0  0  0  0
 15 71  1  0  0  0  0
 16 72  1  0  0  0  0
 17 73  1  0  0  0  0
 19 74  1  0  0  0  0
 20 75  1  0  0  0  0
 23 76  1  0  0  0  0
 24 77  1  0  0  0  0
 26 78  1  0  0  0  0
 27 79  1  0  0  0  0
 28 80  1  0  0  0  0
 29 81  1  0  0  0  0
 31 82  1  0  0  0  0
 34 83  1  0  0  0  0
 35 84  1  0  0  0  0
 37 85  1  0  0  0  0
 38 86  1  0  0  0  0
 39 87  1  0  0  0  0
 40 88  1  0  0  0  0
 42 89  1  0  0  0  0
 45 90  1  0  0  0  0
 46 91  1  0  0  0  0
 49 92  1  0  0  0  0
 50 93  1  0  0  0  0
 51 94  1  0  0  0  0
 53 95  1  0  0  0  0
 54 96  1  0  0  0  0
 55 97  1  0  0  0  0
 56 98  1  0  0  0  0
 58 99  1  0  0  0  0
 59100  1  0  0  0  0
M  END
