
  xtb     03012221203D
 energy: -9.897796354051 gnorm: 0.000394468718 xtb: 6.4.1 (afa7bdf)
 42 46  0     0  0            999 V2000
    7.9262   -0.8592    1.6441 N   0  0  0  0  0  0  0  0  0  0  0  0
    6.7941   -0.7367    1.4149 C   0  0  0  0  0  0  0  0  0  0  0  0
    5.4294   -0.5890    1.1412 C   0  0  0  0  0  0  0  0  0  0  0  0
    4.8462    0.6470    0.9742 C   0  0  0  0  0  0  0  0  0  0  0  0
    3.5740    0.8104    0.7171 N   0  0  0  0  0  0  0  0  0  0  0  0
    2.8361   -0.3050    0.6257 C   0  0  0  0  0  0  0  0  0  0  0  0
    1.4026   -0.1485    0.3440 C   0  0  0  0  0  0  0  0  0  0  0  0
    0.9365    0.9130   -0.4806 C   0  0  0  0  0  0  0  0  0  0  0  0
    1.8336    1.8187   -1.0926 C   0  0  0  0  0  0  0  0  0  0  0  0
    1.4111    2.8045   -1.9283 C   0  0  0  0  0  0  0  0  0  0  0  0
    0.0503    2.9502   -2.1981 C   0  0  0  0  0  0  0  0  0  0  0  0
   -0.8480    2.1063   -1.6242 C   0  0  0  0  0  0  0  0  0  0  0  0
   -0.4537    1.0622   -0.7559 C   0  0  0  0  0  0  0  0  0  0  0  0
   -1.4026    0.1529   -0.2110 C   0  0  0  0  0  0  0  0  0  0  0  0
   -2.8357    0.3044   -0.4972 C   0  0  0  0  0  0  0  0  0  0  0  0
   -3.3082    1.5498   -0.6484 N   0  0  0  0  0  0  0  0  0  0  0  0
   -4.5869    1.6606   -0.9014 C   0  0  0  0  0  0  0  0  0  0  0  0
   -5.4293    0.5779   -1.0188 C   0  0  0  0  0  0  0  0  0  0  0  0
   -6.7942    0.7212   -1.2945 C   0  0  0  0  0  0  0  0  0  0  0  0
   -7.9265    0.8413   -1.5242 N   0  0  0  0  0  0  0  0  0  0  0  0
   -4.8419   -0.6554   -0.8478 C   0  0  0  0  0  0  0  0  0  0  0  0
   -3.5698   -0.8136   -0.5876 N   0  0  0  0  0  0  0  0  0  0  0  0
   -0.9367   -0.9071    0.6158 C   0  0  0  0  0  0  0  0  0  0  0  0
   -1.8339   -1.8110    1.2304 C   0  0  0  0  0  0  0  0  0  0  0  0
   -1.4114   -2.7947    2.0684 C   0  0  0  0  0  0  0  0  0  0  0  0
   -0.0505   -2.9408    2.3377 C   0  0  0  0  0  0  0  0  0  0  0  0
    0.8479   -2.0990    1.7610 C   0  0  0  0  0  0  0  0  0  0  0  0
    0.4535   -1.0565    0.8907 C   0  0  0  0  0  0  0  0  0  0  0  0
    3.3046   -1.5526    0.7711 N   0  0  0  0  0  0  0  0  0  0  0  0
    4.5833   -1.6685    1.0215 C   0  0  0  0  0  0  0  0  0  0  0  0
    5.4562    1.5335    1.0566 H   0  0  0  0  0  0  0  0  0  0  0  0
    2.8820    1.7241   -0.8859 H   0  0  0  0  0  0  0  0  0  0  0  0
    2.1224    3.4768   -2.3784 H   0  0  0  0  0  0  0  0  0  0  0  0
   -0.2850    3.7346   -2.8560 H   0  0  0  0  0  0  0  0  0  0  0  0
   -1.8923    2.2361   -1.8329 H   0  0  0  0  0  0  0  0  0  0  0  0
   -4.9868    2.6556   -1.0225 H   0  0  0  0  0  0  0  0  0  0  0  0
   -5.4483   -1.5444   -0.9300 H   0  0  0  0  0  0  0  0  0  0  0  0
   -2.8825   -1.7159    1.0244 H   0  0  0  0  0  0  0  0  0  0  0  0
   -2.1228   -3.4653    2.5209 H   0  0  0  0  0  0  0  0  0  0  0  0
    0.2847   -3.7238    2.9972 H   0  0  0  0  0  0  0  0  0  0  0  0
    1.8924   -2.2289    1.9687 H   0  0  0  0  0  0  0  0  0  0  0  0
    4.9799   -2.6652    1.1394 H   0  0  0  0  0  0  0  0  0  0  0  0
  1  2  3  0  0  0  0
  2  3  1  0  0  0  0
  3  4  2  0  0  0  0
  4  5  1  0  0  0  0
  5  6  2  0  0  0  0
  6  7  1  0  0  0  0
  7  8  1  0  0  0  0
  8  9  2  0  0  0  0
  9 10  1  0  0  0  0
 10 11  2  0  0  0  0
 11 12  1  0  0  0  0
 12 13  2  0  0  0  0
 13 14  1  0  0  0  0
 14 15  1  0  0  0  0
 15 16  2  0  0  0  0
 16 17  1  0  0  0  0
 17 18  2  0  0  0  0
 18 19  1  0  0  0  0
 19 20  3  0  0  0  0
 18 21  1  0  0  0  0
 21 22  2  0  0  0  0
 14 23  2  0  0  0  0
 23 24  1  0  0  0  0
 24 25  2  0  0  0  0
 25 26  1  0  0  0  0
 26 27  2  0  0  0  0
 27 28  1  0  0  0  0
  6 29  1  0  0  0  0
 29 30  2  0  0  0  0
 30  3  1  0  0  0  0
 28  7  2  0  0  0  0
 13  8  1  0  0  0  0
 22 15  1  0  0  0  0
 28 23  1  0  0  0  0
  4 31  1  0  0  0  0
  9 32  1  0  0  0  0
 10 33  1  0  0  0  0
 11 34  1  0  0  0  0
 12 35  1  0  0  0  0
 17 36  1  0  0  0  0
 21 37  1  0  0  0  0
 24 38  1  0  0  0  0
 25 39  1  0  0  0  0
 26 40  1  0  0  0  0
 27 41  1  0  0  0  0
 30 42  1  0  0  0  0
M  END
