
  xtb     03012221263D
 energy: -5.436084818758 gnorm: 0.000247435941 xtb: 6.4.1 (afa7bdf)
 28 29  0     0  0            999 V2000
   -1.3470    1.4385   -1.4100 C   0  0  0  0  0  0  0  0  0  0  0  0
   -1.6866    0.3350   -0.4688 C   0  0  0  0  0  0  0  0  0  0  0  0
   -2.9809   -0.1567   -0.4072 C   0  0  0  0  0  0  0  0  0  0  0  0
   -3.3169   -1.1702    0.4676 C   0  0  0  0  0  0  0  0  0  0  0  0
   -2.3589   -1.7056    1.3026 C   0  0  0  0  0  0  0  0  0  0  0  0
   -1.0692   -1.2254    1.2641 C   0  0  0  0  0  0  0  0  0  0  0  0
   -0.7124   -0.2024    0.3878 C   0  0  0  0  0  0  0  0  0  0  0  0
    0.6886    0.2984    0.3671 C   0  0  0  0  0  0  0  0  0  0  0  0
    1.0010    1.5085    0.9834 C   0  0  0  0  0  0  0  0  0  0  0  0
    2.2899    1.9924    0.9788 C   0  0  0  0  0  0  0  0  0  0  0  0
    3.2916    1.2737    0.3609 C   0  0  0  0  0  0  0  0  0  0  0  0
    3.0001    0.0732   -0.2547 C   0  0  0  0  0  0  0  0  0  0  0  0
    1.7077   -0.4271   -0.2707 C   0  0  0  0  0  0  0  0  0  0  0  0
    1.4182   -1.7321   -0.9279 C   0  0  0  0  0  0  0  0  0  0  0  0
   -0.3530    1.2975   -1.8370 H   0  0  0  0  0  0  0  0  0  0  0  0
   -1.3595    2.4017   -0.8980 H   0  0  0  0  0  0  0  0  0  0  0  0
   -2.0573    1.4879   -2.2365 H   0  0  0  0  0  0  0  0  0  0  0  0
   -3.7312    0.2631   -1.0556 H   0  0  0  0  0  0  0  0  0  0  0  0
   -4.3282   -1.5420    0.4987 H   0  0  0  0  0  0  0  0  0  0  0  0
   -2.6199   -2.4973    1.9861 H   0  0  0  0  0  0  0  0  0  0  0  0
   -0.3170   -1.6355    1.9162 H   0  0  0  0  0  0  0  0  0  0  0  0
    0.2147    2.0615    1.4683 H   0  0  0  0  0  0  0  0  0  0  0  0
    2.5160    2.9304    1.4595 H   0  0  0  0  0  0  0  0  0  0  0  0
    4.3022    1.6488    0.3594 H   0  0  0  0  0  0  0  0  0  0  0  0
    3.7842   -0.4895   -0.7324 H   0  0  0  0  0  0  0  0  0  0  0  0
    2.1467   -1.9521   -1.7096 H   0  0  0  0  0  0  0  0  0  0  0  0
    0.4300   -1.7286   -1.3900 H   0  0  0  0  0  0  0  0  0  0  0  0
    1.4468   -2.5459   -0.2020 H   0  0  0  0  0  0  0  0  0  0  0  0
  1  2  1  0  0  0  0
  2  3  2  0  0  0  0
  3  4  1  0  0  0  0
  4  5  2  0  0  0  0
  5  6  1  0  0  0  0
  6  7  2  0  0  0  0
  7  8  1  0  0  0  0
  8  9  2  0  0  0  0
  9 10  1  0  0  0  0
 10 11  2  0  0  0  0
 11 12  1  0  0  0  0
 12 13  2  0  0  0  0
 13 14  1  0  0  0  0
  7  2  1  0  0  0  0
 13  8  1  0  0  0  0
  1 15  1  0  0  0  0
  1 16  1  0  0  0  0
  1 17  1  0  0  0  0
  3 18  1  0  0  0  0
  4 19  1  0  0  0  0
  5 20  1  0  0  0  0
  6 21  1  0  0  0  0
  9 22  1  0  0  0  0
 10 23  1  0  0  0  0
 11 24  1  0  0  0  0
 12 25  1  0  0  0  0
 14 26  1  0  0  0  0
 14 27  1  0  0  0  0
 14 28  1  0  0  0  0
M  END
