
  xtb     03012221233D
 energy: -3.708509085008 gnorm: 0.000172827131 xtb: 6.4.1 (afa7bdf)
 21 21  0     0  0            999 V2000
    3.0815   -0.6728   -0.1289 C   0  0  0  0  0  0  0  0  0  0  0  0
    1.6848   -0.1588   -0.0637 C   0  0  0  0  0  0  0  0  0  0  0  0
    1.4215    1.1977   -0.1538 C   0  0  0  0  0  0  0  0  0  0  0  0
    0.1241    1.6635   -0.1204 C   0  0  0  0  0  0  0  0  0  0  0  0
   -0.9487    0.7908   -0.0039 C   0  0  0  0  0  0  0  0  0  0  0  0
   -2.3410    1.3236    0.0366 C   0  0  0  0  0  0  0  0  0  0  0  0
   -0.6980   -0.5810    0.0904 C   0  0  0  0  0  0  0  0  0  0  0  0
   -1.8158   -1.5610    0.2081 C   0  0  0  0  0  0  0  0  0  0  0  0
    0.6147   -1.0322    0.0495 C   0  0  0  0  0  0  0  0  0  0  0  0
    3.2014   -1.5645    0.4884 H   0  0  0  0  0  0  0  0  0  0  0  0
    3.3508   -0.9338   -1.1535 H   0  0  0  0  0  0  0  0  0  0  0  0
    3.7940    0.0733    0.2264 H   0  0  0  0  0  0  0  0  0  0  0  0
    2.2422    1.8880   -0.2524 H   0  0  0  0  0  0  0  0  0  0  0  0
   -0.0664    2.7213   -0.1875 H   0  0  0  0  0  0  0  0  0  0  0  0
   -2.9855    0.7922   -0.6651 H   0  0  0  0  0  0  0  0  0  0  0  0
   -2.7680    1.2212    1.0354 H   0  0  0  0  0  0  0  0  0  0  0  0
   -2.3697    2.3814   -0.2298 H   0  0  0  0  0  0  0  0  0  0  0  0
   -1.4470   -2.5558    0.4624 H   0  0  0  0  0  0  0  0  0  0  0  0
   -2.5192   -1.2637    0.9873 H   0  0  0  0  0  0  0  0  0  0  0  0
   -2.3640   -1.6406   -0.7319 H   0  0  0  0  0  0  0  0  0  0  0  0
    0.8086   -2.0889    0.1063 H   0  0  0  0  0  0  0  0  0  0  0  0
  1  2  1  0  0  0  0
  2  3  2  0  0  0  0
  3  4  1  0  0  0  0
  4  5  2  0  0  0  0
  5  6  1  0  0  0  0
  5  7  1  0  0  0  0
  7  8  1  0  0  0  0
  7  9  2  0  0  0  0
  9  2  1  0  0  0  0
  1 10  1  0  0  0  0
  1 11  1  0  0  0  0
  1 12  1  0  0  0  0
  3 13  1  0  0  0  0
  4 14  1  0  0  0  0
  6 15  1  0  0  0  0
  6 16  1  0  0  0  0
  6 17  1  0  0  0  0
  8 18  1  0  0  0  0
  8 19  1  0  0  0  0
  8 20  1  0  0  0  0
  9 21  1  0  0  0  0
M  END
