
  xtb     03012221313D
 energy: -14.189926793876 gnorm: 0.000104944777 xtb: 6.4.1 (afa7bdf)
 71 76  0     0  0            999 V2000
    7.6442    5.3640   -2.3632 C   0  0  0  0  0  0  0  0  0  0  0  0
    6.8604    4.8043   -3.5308 C   0  0  0  0  0  0  0  0  0  0  0  0
    5.5695    4.3783   -3.1616 O   0  0  0  0  0  0  0  0  0  0  0  0
    5.6429    3.2424   -2.4059 C   0  0  0  0  0  0  0  0  0  0  0  0
    6.6867    2.6977   -2.0991 O   0  0  0  0  0  0  0  0  0  0  0  0
    4.3565    2.6832   -1.9519 C   0  0  0  0  0  0  0  0  0  0  0  0
    3.1022    3.2113   -2.2611 C   0  0  0  0  0  0  0  0  0  0  0  0
    2.1672    2.4148   -1.6536 C   0  0  0  0  0  0  0  0  0  0  0  0
    2.8680    1.4067   -0.9780 C   0  0  0  0  0  0  0  0  0  0  0  0
    2.2962    0.3583   -0.2044 C   0  0  0  0  0  0  0  0  0  0  0  0
    3.0760   -0.5494    0.4179 C   0  0  0  0  0  0  0  0  0  0  0  0
    2.6125   -1.6203    1.2211 C   0  0  0  0  0  0  0  0  0  0  0  0
    1.3347   -1.9901    1.5198 N   0  0  0  0  0  4  0  0  0  0  0  0
    1.3035   -3.0918    2.3454 C   0  0  0  0  0  0  0  0  0  0  0  0
    0.1301   -3.7140    2.8025 C   0  0  0  0  0  0  0  0  0  0  0  0
    0.1714   -4.8867    3.6965 C   0  0  0  0  0  0  0  0  0  0  0  0
    0.9752   -4.8905    4.8380 C   0  0  0  0  0  0  0  0  0  0  0  0
    1.0112   -5.9855    5.6700 C   0  0  0  0  0  0  0  0  0  0  0  0
    0.2495   -7.0998    5.3837 C   0  0  0  0  0  0  0  0  0  0  0  0
   -0.5509   -7.1157    4.2599 C   0  0  0  0  0  0  0  0  0  0  0  0
   -0.5921   -6.0236    3.4244 C   0  0  0  0  0  0  0  0  0  0  0  0
   -1.0846   -3.1618    2.3636 C   0  0  0  0  0  0  0  0  0  0  0  0
   -2.4218   -3.5338    2.6893 C   0  0  0  0  0  0  0  0  0  0  0  0
   -3.2658   -2.6856    2.0389 C   0  0  0  0  0  0  0  0  0  0  0  0
   -2.4949   -1.7495    1.2868 C   0  0  0  0  0  0  0  0  0  0  0  0
   -3.0322   -0.7148    0.4824 C   0  0  0  0  0  0  0  0  0  0  0  0
   -2.3147    0.1623   -0.2493 C   0  0  0  0  0  0  0  0  0  0  0  0
   -2.9584    1.1562   -1.0383 C   0  0  0  0  0  0  0  0  0  0  0  0
   -2.3258    2.1078   -1.8495 C   0  0  0  0  0  0  0  0  0  0  0  0
   -3.3154    2.8575   -2.4295 C   0  0  0  0  0  0  0  0  0  0  0  0
   -4.5343    2.3580   -1.9685 C   0  0  0  0  0  0  0  0  0  0  0  0
   -5.8592    2.8787   -2.3522 C   0  0  0  0  0  0  0  0  0  0  0  0
   -6.8671    2.3919   -1.8752 O   0  0  0  0  0  0  0  0  0  0  0  0
   -5.8617    3.9046   -3.2546 O   0  0  0  0  0  0  0  0  0  0  0  0
   -7.1823    4.3087   -3.5319 C   0  0  0  0  0  0  0  0  0  0  0  0
   -7.9431    3.2881   -4.3508 C   0  0  0  0  0  0  0  0  0  0  0  0
   -4.3169    1.3180   -1.1182 O   0  0  0  0  0  0  0  0  0  0  0  0
   -1.1925   -2.0770    1.5223 N   0  0  0  0  0  0  0  0  0  0  0  0
    0.0468   -1.3425    0.9951 B   0  0  0  0  0  4  0  0  0  0  0  0
   -0.0041   -0.0316    1.4380 F   0  0  0  0  0  0  0  0  0  0  0  0
    0.0544   -1.4187   -0.3874 F   0  0  0  0  0  0  0  0  0  0  0  0
    2.6661   -3.4459    2.5703 C   0  0  0  0  0  0  0  0  0  0  0  0
    3.4492   -2.5589    1.8958 C   0  0  0  0  0  0  0  0  0  0  0  0
    4.2142    1.5805   -1.1673 O   0  0  0  0  0  0  0  0  0  0  0  0
    7.7579    4.6026   -1.5900 H   0  0  0  0  0  0  0  0  0  0  0  0
    8.6398    5.7000   -2.6567 H   0  0  0  0  0  0  0  0  0  0  0  0
    7.1176    6.2058   -1.9138 H   0  0  0  0  0  0  0  0  0  0  0  0
    6.7349    5.5507   -4.3261 H   0  0  0  0  0  0  0  0  0  0  0  0
    7.3671    3.9371   -3.9772 H   0  0  0  0  0  0  0  0  0  0  0  0
    2.9231    4.0850   -2.8660 H   0  0  0  0  0  0  0  0  0  0  0  0
    1.0985    2.5370   -1.6791 H   0  0  0  0  0  0  0  0  0  0  0  0
    1.2298    0.2990   -0.1114 H   0  0  0  0  0  0  0  0  0  0  0  0
    4.1404   -0.4450    0.2993 H   0  0  0  0  0  0  0  0  0  0  0  0
    1.5529   -4.0138    5.0713 H   0  0  0  0  0  0  0  0  0  0  0  0
    1.6333   -5.9722    6.5497 H   0  0  0  0  0  0  0  0  0  0  0  0
    0.2798   -7.9570    6.0373 H   0  0  0  0  0  0  0  0  0  0  0  0
   -1.1427   -7.9876    4.0348 H   0  0  0  0  0  0  0  0  0  0  0  0
   -1.2000   -6.0429    2.5373 H   0  0  0  0  0  0  0  0  0  0  0  0
   -2.7092   -4.3320    3.3510 H   0  0  0  0  0  0  0  0  0  0  0  0
   -4.3432   -2.7046    2.0843 H   0  0  0  0  0  0  0  0  0  0  0  0
   -4.1038   -0.6242    0.4442 H   0  0  0  0  0  0  0  0  0  0  0  0
   -1.2440    0.1091   -0.2470 H   0  0  0  0  0  0  0  0  0  0  0  0
   -1.2647    2.2175   -1.9897 H   0  0  0  0  0  0  0  0  0  0  0  0
   -3.1955    3.6801   -3.1154 H   0  0  0  0  0  0  0  0  0  0  0  0
   -7.6698    4.4925   -2.5640 H   0  0  0  0  0  0  0  0  0  0  0  0
   -7.1183    5.2741   -4.0508 H   0  0  0  0  0  0  0  0  0  0  0  0
   -7.9962    2.3409   -3.8120 H   0  0  0  0  0  0  0  0  0  0  0  0
   -8.9620    3.6106   -4.5702 H   0  0  0  0  0  0  0  0  0  0  0  0
   -7.4343    3.0954   -5.2953 H   0  0  0  0  0  0  0  0  0  0  0  0
    3.0107   -4.2822    3.1528 H   0  0  0  0  0  0  0  0  0  0  0  0
    4.5271   -2.5614    1.8636 H   0  0  0  0  0  0  0  0  0  0  0  0
  1  2  1  0  0  0  0
  2  3  1  0  0  0  0
  3  4  1  0  0  0  0
  4  5  2  0  0  0  0
  4  6  1  0  0  0  0
  6  7  2  0  0  0  0
  7  8  1  0  0  0  0
  8  9  2  0  0  0  0
  9 10  1  0  0  0  0
 10 11  2  0  0  0  0
 11 12  1  0  0  0  0
 12 13  2  0  0  0  0
 13 14  1  0  0  0  0
 14 15  2  0  0  0  0
 15 16  1  0  0  0  0
 16 17  2  0  0  0  0
 17 18  1  0  0  0  0
 18 19  2  0  0  0  0
 19 20  1  0  0  0  0
 20 21  2  0  0  0  0
 15 22  1  0  0  0  0
 22 23  2  0  0  0  0
 23 24  1  0  0  0  0
 24 25  2  0  0  0  0
 25 26  1  0  0  0  0
 26 27  2  0  0  0  0
 27 28  1  0  0  0  0
 28 29  2  0  0  0  0
 29 30  1  0  0  0  0
 30 31  2  0  0  0  0
 31 32  1  0  0  0  0
 32 33  2  0  0  0  0
 32 34  1  0  0  0  0
 34 35  1  0  0  0  0
 35 36  1  0  0  0  0
 31 37  1  0  0  0  0
 25 38  1  0  0  0  0
 38 39  1  0  0  0  0
 39 40  1  0  0  0  0
 39 41  1  0  0  0  0
 14 42  1  0  0  0  0
 42 43  2  0  0  0  0
  9 44  1  0  0  0  0
 44  6  1  0  0  0  0
 43 12  1  0  0  0  0
 39 13  1  0  0  0  0
 21 16  1  0  0  0  0
 38 22  1  0  0  0  0
 37 28  1  0  0  0  0
  1 45  1  0  0  0  0
  1 46  1  0  0  0  0
  1 47  1  0  0  0  0
  2 48  1  0  0  0  0
  2 49  1  0  0  0  0
  7 50  1  0  0  0  0
  8 51  1  0  0  0  0
 10 52  1  0  0  0  0
 11 53  1  0  0  0  0
 17 54  1  0  0  0  0
 18 55  1  0  0  0  0
 19 56  1  0  0  0  0
 20 57  1  0  0  0  0
 21 58  1  0  0  0  0
 23 59  1  0  0  0  0
 24 60  1  0  0  0  0
 26 61  1  0  0  0  0
 27 62  1  0  0  0  0
 29 63  1  0  0  0  0
 30 64  1  0  0  0  0
 35 65  1  0  0  0  0
 35 66  1  0  0  0  0
 36 67  1  0  0  0  0
 36 68  1  0  0  0  0
 36 69  1  0  0  0  0
 42 70  1  0  0  0  0
 43 71  1  0  0  0  0
M  CHG  1  13   1
M  CHG  1  39  -1
M  END
