
  xtb     03012221263D
 energy: -8.767969465774 gnorm: 0.000303315509 xtb: 6.4.1 (afa7bdf)
 44 47  0     0  0            999 V2000
   -5.3069   -0.5839    1.6556 C   0  0  0  0  0  0  0  0  0  0  0  0
   -5.0957   -0.9470    0.2015 C   0  0  0  0  0  0  0  0  0  0  0  0
   -4.3644    0.1056   -0.5297 N   0  0  0  0  0  0  0  0  0  0  0  0
   -5.2070    1.0290   -1.3128 C   0  0  0  0  0  0  0  0  0  0  0  0
   -5.2808    0.6285   -2.7702 C   0  0  0  0  0  0  0  0  0  0  0  0
   -2.9651    0.2181   -0.4831 C   0  0  0  0  0  0  0  0  0  0  0  0
   -2.2872    1.2108   -1.2169 C   0  0  0  0  0  0  0  0  0  0  0  0
   -0.9277    1.3241   -1.1640 C   0  0  0  0  0  0  0  0  0  0  0  0
   -0.1647    0.4503   -0.3749 C   0  0  0  0  0  0  0  0  0  0  0  0
    1.2402    0.5326   -0.2897 C   0  0  0  0  0  0  0  0  0  0  0  0
    1.9491   -0.3299    0.4806 C   0  0  0  0  0  0  0  0  0  0  0  0
    3.3913   -0.2128    0.5413 C   0  0  0  0  0  0  0  0  0  0  0  0
    4.0967    0.7065   -0.1052 N   0  0  0  0  0  0  0  0  0  0  0  0
    5.4008    0.4801    0.2146 C   0  0  0  0  0  0  0  0  0  0  0  0
    6.5688    1.1494   -0.1823 C   0  0  0  0  0  0  0  0  0  0  0  0
    7.7744    0.7097    0.2953 C   0  0  0  0  0  0  0  0  0  0  0  0
    7.8590   -0.3882    1.1659 C   0  0  0  0  0  0  0  0  0  0  0  0
    6.7363   -1.0600    1.5703 C   0  0  0  0  0  0  0  0  0  0  0  0
    5.4965   -0.6250    1.0932 C   0  0  0  0  0  0  0  0  0  0  0  0
    4.2058   -1.0505    1.2864 N   0  0  0  0  0  0  0  0  0  0  0  0
    1.2511   -1.3701    1.2433 C   0  0  0  0  0  0  0  0  0  0  0  0
    1.9034   -2.1416    1.9325 O   0  0  0  0  0  0  0  0  0  0  0  0
   -0.1251   -1.4509    1.1634 O   0  0  0  0  0  0  0  0  0  0  0  0
   -0.8197   -0.5540    0.3655 C   0  0  0  0  0  0  0  0  0  0  0  0
   -2.2044   -0.6477    0.2940 C   0  0  0  0  0  0  0  0  0  0  0  0
   -5.8352   -1.3674    2.2038 H   0  0  0  0  0  0  0  0  0  0  0  0
   -5.8879    0.3356    1.7473 H   0  0  0  0  0  0  0  0  0  0  0  0
   -4.3560   -0.4087    2.1614 H   0  0  0  0  0  0  0  0  0  0  0  0
   -6.0542   -1.1147   -0.2995 H   0  0  0  0  0  0  0  0  0  0  0  0
   -4.5501   -1.8891    0.0960 H   0  0  0  0  0  0  0  0  0  0  0  0
   -4.8195    2.0445   -1.1922 H   0  0  0  0  0  0  0  0  0  0  0  0
   -6.2056    1.0495   -0.8652 H   0  0  0  0  0  0  0  0  0  0  0  0
   -5.7053   -0.3712   -2.8788 H   0  0  0  0  0  0  0  0  0  0  0  0
   -4.2882    0.6012   -3.2228 H   0  0  0  0  0  0  0  0  0  0  0  0
   -5.8951    1.3161   -3.3563 H   0  0  0  0  0  0  0  0  0  0  0  0
   -2.8475    1.8892   -1.8339 H   0  0  0  0  0  0  0  0  0  0  0  0
   -0.4236    2.0880   -1.7301 H   0  0  0  0  0  0  0  0  0  0  0  0
    1.7625    1.2904   -0.8438 H   0  0  0  0  0  0  0  0  0  0  0  0
    6.4963    1.9898   -0.8490 H   0  0  0  0  0  0  0  0  0  0  0  0
    8.6778    1.2159   -0.0018 H   0  0  0  0  0  0  0  0  0  0  0  0
    8.8249   -0.7065    1.5212 H   0  0  0  0  0  0  0  0  0  0  0  0
    6.7880   -1.9026    2.2365 H   0  0  0  0  0  0  0  0  0  0  0  0
    3.8681   -1.8230    1.8692 H   0  0  0  0  0  0  0  0  0  0  0  0
   -2.6742   -1.4201    0.8707 H   0  0  0  0  0  0  0  0  0  0  0  0
  1  2  1  0  0  0  0
  2  3  1  0  0  0  0
  3  4  1  0  0  0  0
  4  5  1  0  0  0  0
  3  6  1  0  0  0  0
  6  7  2  0  0  0  0
  7  8  1  0  0  0  0
  8  9  2  0  0  0  0
  9 10  1  0  0  0  0
 10 11  2  0  0  0  0
 11 12  1  0  0  0  0
 12 13  2  0  0  0  0
 13 14  1  0  0  0  0
 14 15  2  0  0  0  0
 15 16  1  0  0  0  0
 16 17  2  0  0  0  0
 17 18  1  0  0  0  0
 18 19  2  0  0  0  0
 19 20  1  0  0  0  0
 11 21  1  0  0  0  0
 21 22  2  0  0  0  0
 21 23  1  0  0  0  0
 23 24  1  0  0  0  0
 24 25  2  0  0  0  0
 25  6  1  0  0  0  0
 24  9  1  0  0  0  0
 20 12  1  0  0  0  0
 19 14  1  0  0  0  0
  1 26  1  0  0  0  0
  1 27  1  0  0  0  0
  1 28  1  0  0  0  0
  2 29  1  0  0  0  0
  2 30  1  0  0  0  0
  4 31  1  0  0  0  0
  4 32  1  0  0  0  0
  5 33  1  0  0  0  0
  5 34  1  0  0  0  0
  5 35  1  0  0  0  0
  7 36  1  0  0  0  0
  8 37  1  0  0  0  0
 10 38  1  0  0  0  0
 15 39  1  0  0  0  0
 16 40  1  0  0  0  0
 17 41  1  0  0  0  0
 18 42  1  0  0  0  0
 20 43  1  0  0  0  0
 25 44  1  0  0  0  0
M  END
