
  xtb     03012221283D
 energy: -9.463838031128 gnorm: 0.000190821866 xtb: 6.4.1 (afa7bdf)
 51 54  0     0  0            999 V2000
   -7.2591   -2.4174    2.9581 C   0  0  0  0  0  0  0  0  0  0  0  0
   -7.1244   -1.4592    1.9600 O   0  0  0  0  0  0  0  0  0  0  0  0
   -5.7981   -1.2633    1.6877 C   0  0  0  0  0  0  0  0  0  0  0  0
   -4.9036   -1.8589    2.2594 O   0  0  0  0  0  0  0  0  0  0  0  0
   -5.4998   -0.2642    0.6335 C   0  0  0  0  0  0  0  0  0  0  0  0
   -6.5068    0.4041    0.0030 C   0  0  0  0  0  0  0  0  0  0  0  0
   -6.2496    1.3733   -1.0212 C   0  0  0  0  0  0  0  0  0  0  0  0
   -7.1719    1.9686   -1.5796 O   0  0  0  0  0  0  0  0  0  0  0  0
   -4.9224    1.6279   -1.3734 N   0  0  0  0  0  0  0  0  0  0  0  0
   -4.6632    2.6073   -2.4093 C   0  0  0  0  0  0  0  0  0  0  0  0
   -3.8753    0.9458   -0.7321 C   0  0  0  0  0  0  0  0  0  0  0  0
   -2.4776    1.0874   -0.9758 C   0  0  0  0  0  0  0  0  0  0  0  0
   -1.6867    0.2863   -0.1983 C   0  0  0  0  0  0  0  0  0  0  0  0
   -0.2384    0.1997   -0.2169 C   0  0  0  0  0  0  0  0  0  0  0  0
    0.4252   -0.6451    0.6748 C   0  0  0  0  0  0  0  0  0  0  0  0
    1.7912   -0.7524    0.6727 C   0  0  0  0  0  0  0  0  0  0  0  0
    2.5665   -0.0156   -0.2284 C   0  0  0  0  0  0  0  0  0  0  0  0
    3.9702   -0.1301   -0.2397 N   0  0  0  0  0  0  0  0  0  0  0  0
    4.6747   -1.2777    0.3946 C   0  0  0  0  0  0  0  0  0  0  0  0
    5.9860   -1.5821   -0.3216 C   0  0  0  0  0  0  0  0  0  0  0  0
    6.9049   -0.3904   -0.2973 N   0  0  0  0  0  0  0  0  0  0  0  0
    7.9565   -0.4794    0.7211 C   0  0  0  0  0  0  0  0  0  0  0  0
    6.2207    0.9354   -0.2698 C   0  0  0  0  0  0  0  0  0  0  0  0
    4.8411    0.8662   -0.9208 C   0  0  0  0  0  0  0  0  0  0  0  0
    1.9037    0.8340   -1.1205 C   0  0  0  0  0  0  0  0  0  0  0  0
    0.5366    0.9382   -1.1146 C   0  0  0  0  0  0  0  0  0  0  0  0
   -2.6996   -0.6607    0.8624 S   0  0  0  0  0  0  0  0  0  0  0  0
   -4.1711    0.0200    0.2511 C   0  0  0  0  0  0  0  0  0  0  0  0
   -8.3193   -2.5689    3.1693 H   0  0  0  0  0  0  0  0  0  0  0  0
   -6.8057   -3.3502    2.6152 H   0  0  0  0  0  0  0  0  0  0  0  0
   -6.7424   -2.0678    3.8548 H   0  0  0  0  0  0  0  0  0  0  0  0
   -7.5274    0.2056    0.2745 H   0  0  0  0  0  0  0  0  0  0  0  0
   -4.0735    3.4283   -2.0084 H   0  0  0  0  0  0  0  0  0  0  0  0
   -4.1292    2.1452   -3.2362 H   0  0  0  0  0  0  0  0  0  0  0  0
   -5.6102    2.9995   -2.7761 H   0  0  0  0  0  0  0  0  0  0  0  0
   -2.0907    1.7709   -1.7114 H   0  0  0  0  0  0  0  0  0  0  0  0
   -0.1602   -1.2169    1.3753 H   0  0  0  0  0  0  0  0  0  0  0  0
    2.2764   -1.3912    1.3882 H   0  0  0  0  0  0  0  0  0  0  0  0
    4.0178   -2.1523    0.3827 H   0  0  0  0  0  0  0  0  0  0  0  0
    4.8590   -1.0258    1.4423 H   0  0  0  0  0  0  0  0  0  0  0  0
    6.4963   -2.4450    0.1179 H   0  0  0  0  0  0  0  0  0  0  0  0
    5.7953   -1.8309   -1.3696 H   0  0  0  0  0  0  0  0  0  0  0  0
    7.5206   -0.5022    1.7179 H   0  0  0  0  0  0  0  0  0  0  0  0
    8.6231    0.3774    0.6476 H   0  0  0  0  0  0  0  0  0  0  0  0
    8.5444   -1.3831    0.5743 H   0  0  0  0  0  0  0  0  0  0  0  0
    6.1255    1.2550    0.7720 H   0  0  0  0  0  0  0  0  0  0  0  0
    6.8639    1.6679   -0.7691 H   0  0  0  0  0  0  0  0  0  0  0  0
    4.3530    1.8448   -0.8918 H   0  0  0  0  0  0  0  0  0  0  0  0
    4.9285    0.5792   -1.9720 H   0  0  0  0  0  0  0  0  0  0  0  0
    2.4756    1.3920   -1.8395 H   0  0  0  0  0  0  0  0  0  0  0  0
    0.0494    1.5924   -1.8171 H   0  0  0  0  0  0  0  0  0  0  0  0
  1  2  1  0  0  0  0
  2  3  1  0  0  0  0
  3  4  2  0  0  0  0
  3  5  1  0  0  0  0
  5  6  2  0  0  0  0
  6  7  1  0  0  0  0
  7  8  2  0  0  0  0
  7  9  1  0  0  0  0
  9 10  1  0  0  0  0
  9 11  1  0  0  0  0
 11 12  1  0  0  0  0
 12 13  2  0  0  0  0
 13 14  1  0  0  0  0
 14 15  2  0  0  0  0
 15 16  1  0  0  0  0
 16 17  2  0  0  0  0
 17 18  1  0  0  0  0
 18 19  1  0  0  0  0
 19 20  1  0  0  0  0
 20 21  1  0  0  0  0
 21 22  1  0  0  0  0
 21 23  1  0  0  0  0
 23 24  1  0  0  0  0
 17 25  1  0  0  0  0
 25 26  2  0  0  0  0
 13 27  1  0  0  0  0
 27 28  1  0  0  0  0
 28  5  1  0  0  0  0
 28 11  2  0  0  0  0
 26 14  1  0  0  0  0
 24 18  1  0  0  0  0
  1 29  1  0  0  0  0
  1 30  1  0  0  0  0
  1 31  1  0  0  0  0
  6 32  1  0  0  0  0
 10 33  1  0  0  0  0
 10 34  1  0  0  0  0
 10 35  1  0  0  0  0
 12 36  1  0  0  0  0
 15 37  1  0  0  0  0
 16 38  1  0  0  0  0
 19 39  1  0  0  0  0
 19 40  1  0  0  0  0
 20 41  1  0  0  0  0
 20 42  1  0  0  0  0
 22 43  1  0  0  0  0
 22 44  1  0  0  0  0
 22 45  1  0  0  0  0
 23 46  1  0  0  0  0
 23 47  1  0  0  0  0
 24 48  1  0  0  0  0
 24 49  1  0  0  0  0
 25 50  1  0  0  0  0
 26 51  1  0  0  0  0
M  END
