
  xtb     03012221313D
 energy: -10.102861200270 gnorm: 0.000342797956 xtb: 6.4.1 (afa7bdf)
 48 51  0     0  0            999 V2000
   -2.8225    5.9933    0.7840 C   0  0  0  0  0  0  0  0  0  0  0  0
   -1.6792    5.5480    0.0981 O   0  0  0  0  0  0  0  0  0  0  0  0
   -1.4918    4.1616    0.1053 C   0  0  0  0  0  0  0  0  0  0  0  0
   -2.3455    3.2480    0.7299 C   0  0  0  0  0  0  0  0  0  0  0  0
   -2.0797    1.9015    0.6921 C   0  0  0  0  0  0  0  0  0  0  0  0
   -0.9519    1.4072    0.0422 C   0  0  0  0  0  0  0  0  0  0  0  0
   -0.7110   -0.0409    0.0104 C   0  0  0  0  0  0  0  0  0  0  0  0
   -1.7090   -0.9457    0.0456 N   0  0  0  0  0  0  0  0  0  0  0  0
   -1.1467   -2.1430   -0.0558 C   0  0  0  0  0  0  0  0  0  0  0  0
   -1.9042   -3.3898   -0.0504 C   0  0  0  0  0  0  0  0  0  0  0  0
   -1.2794   -4.6295   -0.1515 C   0  0  0  0  0  0  0  0  0  0  0  0
   -2.0253   -5.7871   -0.1401 C   0  0  0  0  0  0  0  0  0  0  0  0
   -3.3987   -5.7293   -0.0287 C   0  0  0  0  0  0  0  0  0  0  0  0
   -4.0463   -4.5034    0.0725 C   0  0  0  0  0  0  0  0  0  0  0  0
   -5.4447   -4.4362    0.1866 C   0  0  0  0  0  0  0  0  0  0  0  0
   -6.6007   -4.3766    0.2814 N   0  0  0  0  0  0  0  0  0  0  0  0
   -3.2885   -3.3447    0.0602 C   0  0  0  0  0  0  0  0  0  0  0  0
    0.2278   -2.0391   -0.1549 N   0  0  0  0  0  0  0  0  0  0  0  0
    0.5294   -0.7100   -0.0950 C   0  0  0  0  0  0  0  0  0  0  0  0
    1.8871   -0.1610   -0.0650 C   0  0  0  0  0  0  0  0  0  0  0  0
    2.2265    0.8998    0.7754 C   0  0  0  0  0  0  0  0  0  0  0  0
    3.5056    1.3932    0.8019 C   0  0  0  0  0  0  0  0  0  0  0  0
    4.5084    0.8456   -0.0037 C   0  0  0  0  0  0  0  0  0  0  0  0
    5.7832    1.4128    0.0812 O   0  0  0  0  0  0  0  0  0  0  0  0
    6.7506    0.8219   -0.7506 C   0  0  0  0  0  0  0  0  0  0  0  0
    4.1694   -0.2273   -0.8341 C   0  0  0  0  0  0  0  0  0  0  0  0
    2.8883   -0.7194   -0.8582 C   0  0  0  0  0  0  0  0  0  0  0  0
   -0.1099    2.3139   -0.5989 C   0  0  0  0  0  0  0  0  0  0  0  0
   -0.3716    3.6602   -0.5631 C   0  0  0  0  0  0  0  0  0  0  0  0
   -2.8623    7.0813    0.7166 H   0  0  0  0  0  0  0  0  0  0  0  0
   -2.7612    5.7053    1.8344 H   0  0  0  0  0  0  0  0  0  0  0  0
   -3.7181    5.5766    0.3212 H   0  0  0  0  0  0  0  0  0  0  0  0
   -3.2208    3.5999    1.2430 H   0  0  0  0  0  0  0  0  0  0  0  0
   -2.7452    1.2005    1.1668 H   0  0  0  0  0  0  0  0  0  0  0  0
   -0.2097   -4.6769   -0.2389 H   0  0  0  0  0  0  0  0  0  0  0  0
   -1.5344   -6.7436   -0.2179 H   0  0  0  0  0  0  0  0  0  0  0  0
   -3.9858   -6.6318   -0.0187 H   0  0  0  0  0  0  0  0  0  0  0  0
   -3.7766   -2.3908    0.1377 H   0  0  0  0  0  0  0  0  0  0  0  0
    0.9025   -2.8045   -0.1830 H   0  0  0  0  0  0  0  0  0  0  0  0
    1.4693    1.3228    1.4133 H   0  0  0  0  0  0  0  0  0  0  0  0
    3.7650    2.2131    1.4467 H   0  0  0  0  0  0  0  0  0  0  0  0
    7.6973    1.3423   -0.6011 H   0  0  0  0  0  0  0  0  0  0  0  0
    6.8776   -0.2280   -0.4838 H   0  0  0  0  0  0  0  0  0  0  0  0
    6.4526    0.9211   -1.7951 H   0  0  0  0  0  0  0  0  0  0  0  0
    4.9184   -0.6726   -1.4618 H   0  0  0  0  0  0  0  0  0  0  0  0
    2.6359   -1.5421   -1.5052 H   0  0  0  0  0  0  0  0  0  0  0  0
    0.7455    1.9439   -1.1371 H   0  0  0  0  0  0  0  0  0  0  0  0
    0.2806    4.3595   -1.0540 H   0  0  0  0  0  0  0  0  0  0  0  0
  1  2  1  0  0  0  0
  2  3  1  0  0  0  0
  3  4  2  0  0  0  0
  4  5  1  0  0  0  0
  5  6  2  0  0  0  0
  6  7  1  0  0  0  0
  7  8  1  0  0  0  0
  8  9  2  0  0  0  0
  9 10  1  0  0  0  0
 10 11  2  0  0  0  0
 11 12  1  0  0  0  0
 12 13  2  0  0  0  0
 13 14  1  0  0  0  0
 14 15  1  0  0  0  0
 15 16  3  0  0  0  0
 14 17  2  0  0  0  0
  9 18  1  0  0  0  0
 18 19  1  0  0  0  0
 19 20  1  0  0  0  0
 20 21  2  0  0  0  0
 21 22  1  0  0  0  0
 22 23  2  0  0  0  0
 23 24  1  0  0  0  0
 24 25  1  0  0  0  0
 23 26  1  0  0  0  0
 26 27  2  0  0  0  0
  6 28  1  0  0  0  0
 28 29  2  0  0  0  0
 29  3  1  0  0  0  0
 19  7  2  0  0  0  0
 27 20  1  0  0  0  0
 17 10  1  0  0  0  0
  1 30  1  0  0  0  0
  1 31  1  0  0  0  0
  1 32  1  0  0  0  0
  4 33  1  0  0  0  0
  5 34  1  0  0  0  0
 11 35  1  0  0  0  0
 12 36  1  0  0  0  0
 13 37  1  0  0  0  0
 17 38  1  0  0  0  0
 18 39  1  0  0  0  0
 21 40  1  0  0  0  0
 22 41  1  0  0  0  0
 25 42  1  0  0  0  0
 25 43  1  0  0  0  0
 25 44  1  0  0  0  0
 26 45  1  0  0  0  0
 27 46  1  0  0  0  0
 28 47  1  0  0  0  0
 29 48  1  0  0  0  0
M  END
