
  xtb     03012221213D
 energy: -8.339289959250 gnorm: 0.000227805891 xtb: 6.4.1 (afa7bdf)
 41 43  0     0  0            999 V2000
    8.5719    0.5156    0.1579 C   0  0  0  0  0  0  0  0  0  0  0  0
    7.5017    1.0459    0.9010 O   0  0  0  0  0  0  0  0  0  0  0  0
    6.2352    0.6555    0.4691 C   0  0  0  0  0  0  0  0  0  0  0  0
    5.9876   -0.1970   -0.6119 C   0  0  0  0  0  0  0  0  0  0  0  0
    4.7062   -0.5277   -0.9681 C   0  0  0  0  0  0  0  0  0  0  0  0
    3.6011   -0.0284   -0.2691 C   0  0  0  0  0  0  0  0  0  0  0  0
    2.2754   -0.4155   -0.6944 C   0  0  0  0  0  0  0  0  0  0  0  0
    1.0740   -0.0468   -0.1742 C   0  0  0  0  0  0  0  0  0  0  0  0
    0.9448    0.8172    0.9168 C   0  0  0  0  0  0  0  0  0  0  0  0
    0.8819    1.5380    1.8263 N   0  0  0  0  0  0  0  0  0  0  0  0
   -0.1428   -0.5591   -0.7585 C   0  0  0  0  0  0  0  0  0  0  0  0
   -1.3376   -0.2534   -0.3298 N   0  0  0  0  0  0  0  0  0  0  0  0
   -2.3329   -0.8724   -1.0514 C   0  0  0  0  0  0  0  0  0  0  0  0
   -3.7473   -0.6434   -0.7096 C   0  0  0  0  0  0  0  0  0  0  0  0
   -4.0578    0.2287    0.3287 C   0  0  0  0  0  0  0  0  0  0  0  0
   -5.3593    0.4786    0.6853 C   0  0  0  0  0  0  0  0  0  0  0  0
   -6.4148   -0.1417    0.0110 C   0  0  0  0  0  0  0  0  0  0  0  0
   -7.7682    0.0506    0.3014 O   0  0  0  0  0  0  0  0  0  0  0  0
   -8.0268    0.9490    1.3524 C   0  0  0  0  0  0  0  0  0  0  0  0
   -6.0976   -1.0186   -1.0302 C   0  0  0  0  0  0  0  0  0  0  0  0
   -4.7948   -1.2650   -1.3841 C   0  0  0  0  0  0  0  0  0  0  0  0
   -1.8898   -1.6745   -2.0623 C   0  0  0  0  0  0  0  0  0  0  0  0
   -0.1787   -1.6622   -2.1233 S   0  0  0  0  0  0  0  0  0  0  0  0
    3.8536    0.8237    0.8117 C   0  0  0  0  0  0  0  0  0  0  0  0
    5.1324    1.1544    1.1694 C   0  0  0  0  0  0  0  0  0  0  0  0
    9.5037    0.8869    0.5852 H   0  0  0  0  0  0  0  0  0  0  0  0
    8.5624   -0.5730    0.2197 H   0  0  0  0  0  0  0  0  0  0  0  0
    8.5011    0.8444   -0.8792 H   0  0  0  0  0  0  0  0  0  0  0  0
    6.8119   -0.5989   -1.1720 H   0  0  0  0  0  0  0  0  0  0  0  0
    4.5376   -1.1852   -1.8037 H   0  0  0  0  0  0  0  0  0  0  0  0
    2.2397   -1.0841   -1.5353 H   0  0  0  0  0  0  0  0  0  0  0  0
   -3.2474    0.7080    0.8509 H   0  0  0  0  0  0  0  0  0  0  0  0
   -5.5653    1.1588    1.4917 H   0  0  0  0  0  0  0  0  0  0  0  0
   -9.1066    1.0187    1.4872 H   0  0  0  0  0  0  0  0  0  0  0  0
   -7.6359    1.9355    1.1007 H   0  0  0  0  0  0  0  0  0  0  0  0
   -7.5773    0.5795    2.2748 H   0  0  0  0  0  0  0  0  0  0  0  0
   -6.9076   -1.4987   -1.5510 H   0  0  0  0  0  0  0  0  0  0  0  0
   -4.5794   -1.9452   -2.1887 H   0  0  0  0  0  0  0  0  0  0  0  0
   -2.5059   -2.2383   -2.7333 H   0  0  0  0  0  0  0  0  0  0  0  0
    3.0347    1.2296    1.3755 H   0  0  0  0  0  0  0  0  0  0  0  0
    5.3173    1.8103    2.0019 H   0  0  0  0  0  0  0  0  0  0  0  0
  1  2  1  0  0  0  0
  2  3  1  0  0  0  0
  3  4  2  0  0  0  0
  4  5  1  0  0  0  0
  5  6  2  0  0  0  0
  6  7  1  0  0  0  0
  7  8  2  0  0  0  0
  8  9  1  0  0  0  0
  9 10  3  0  0  0  0
  8 11  1  0  0  0  0
 11 12  2  0  0  0  0
 12 13  1  0  0  0  0
 13 14  1  0  0  0  0
 14 15  2  0  0  0  0
 15 16  1  0  0  0  0
 16 17  2  0  0  0  0
 17 18  1  0  0  0  0
 18 19  1  0  0  0  0
 17 20  1  0  0  0  0
 20 21  2  0  0  0  0
 13 22  2  0  0  0  0
 22 23  1  0  0  0  0
  6 24  1  0  0  0  0
 24 25  2  0  0  0  0
 25  3  1  0  0  0  0
 23 11  1  0  0  0  0
 21 14  1  0  0  0  0
  1 26  1  0  0  0  0
  1 27  1  0  0  0  0
  1 28  1  0  0  0  0
  4 29  1  0  0  0  0
  5 30  1  0  0  0  0
  7 31  1  0  0  0  0
 15 32  1  0  0  0  0
 16 33  1  0  0  0  0
 19 34  1  0  0  0  0
 19 35  1  0  0  0  0
 19 36  1  0  0  0  0
 20 37  1  0  0  0  0
 21 38  1  0  0  0  0
 22 39  1  0  0  0  0
 24 40  1  0  0  0  0
 25 41  1  0  0  0  0
M  END
