
  xtb     03012221303D
 energy: -7.070743277027 gnorm: 0.000302799430 xtb: 6.4.1 (afa7bdf)
 34 36  0     0  0            999 V2000
    6.7676   -0.3236   -0.5924 N   0  0  0  0  0  0  0  0  0  0  0  0
    5.3962   -0.2871   -0.4641 C   0  0  0  0  0  0  0  0  0  0  0  0
    4.7501   -1.0094    0.5457 C   0  0  0  0  0  0  0  0  0  0  0  0
    3.3856   -0.9713    0.6716 C   0  0  0  0  0  0  0  0  0  0  0  0
    2.5968   -0.2117   -0.2021 C   0  0  0  0  0  0  0  0  0  0  0  0
    1.1576   -0.1998   -0.0326 C   0  0  0  0  0  0  0  0  0  0  0  0
    0.2854    0.4904   -0.7896 C   0  0  0  0  0  0  0  0  0  0  0  0
   -1.1567    0.4996   -0.6170 C   0  0  0  0  0  0  0  0  0  0  0  0
   -1.9515    1.2841   -1.4895 C   0  0  0  0  0  0  0  0  0  0  0  0
   -3.3049    1.3281   -1.3717 C   0  0  0  0  0  0  0  0  0  0  0  0
   -3.9666    0.5854   -0.3660 C   0  0  0  0  0  0  0  0  0  0  0  0
   -5.3697    0.6062   -0.2135 C   0  0  0  0  0  0  0  0  0  0  0  0
   -5.9730   -0.1235    0.7681 C   0  0  0  0  0  0  0  0  0  0  0  0
   -5.2088   -0.9063    1.6420 C   0  0  0  0  0  0  0  0  0  0  0  0
   -3.8522   -0.9496    1.5235 C   0  0  0  0  0  0  0  0  0  0  0  0
   -3.1928   -0.2056    0.5170 C   0  0  0  0  0  0  0  0  0  0  0  0
   -1.7919   -0.2288    0.3677 C   0  0  0  0  0  0  0  0  0  0  0  0
    3.2473    0.5097   -1.2119 C   0  0  0  0  0  0  0  0  0  0  0  0
    4.6123    0.4732   -1.3399 C   0  0  0  0  0  0  0  0  0  0  0  0
    7.2759    0.1765   -1.3093 H   0  0  0  0  0  0  0  0  0  0  0  0
    7.3716   -0.8631    0.0131 H   0  0  0  0  0  0  0  0  0  0  0  0
    5.3442   -1.5968    1.2238 H   0  0  0  0  0  0  0  0  0  0  0  0
    2.9034   -1.5325    1.4540 H   0  0  0  0  0  0  0  0  0  0  0  0
    0.7756   -0.7990    0.7730 H   0  0  0  0  0  0  0  0  0  0  0  0
    0.6668    1.0921   -1.5937 H   0  0  0  0  0  0  0  0  0  0  0  0
   -1.4612    1.8551   -2.2603 H   0  0  0  0  0  0  0  0  0  0  0  0
   -3.8908    1.9302   -2.0442 H   0  0  0  0  0  0  0  0  0  0  0  0
   -5.9582    1.2076   -0.8849 H   0  0  0  0  0  0  0  0  0  0  0  0
   -7.0452   -0.0997    0.8746 H   0  0  0  0  0  0  0  0  0  0  0  0
   -5.7003   -1.4776    2.4128 H   0  0  0  0  0  0  0  0  0  0  0  0
   -3.2653   -1.5516    2.1957 H   0  0  0  0  0  0  0  0  0  0  0  0
   -1.2196   -0.8345    1.0455 H   0  0  0  0  0  0  0  0  0  0  0  0
    2.6706    1.1019   -1.8995 H   0  0  0  0  0  0  0  0  0  0  0  0
    5.1016    1.0313   -2.1189 H   0  0  0  0  0  0  0  0  0  0  0  0
  1  2  1  0  0  0  0
  2  3  2  0  0  0  0
  3  4  1  0  0  0  0
  4  5  2  0  0  0  0
  5  6  1  0  0  0  0
  6  7  2  0  0  0  0
  7  8  1  0  0  0  0
  8  9  2  0  0  0  0
  9 10  1  0  0  0  0
 10 11  2  0  0  0  0
 11 12  1  0  0  0  0
 12 13  2  0  0  0  0
 13 14  1  0  0  0  0
 14 15  2  0  0  0  0
 15 16  1  0  0  0  0
 16 17  2  0  0  0  0
  5 18  1  0  0  0  0
 18 19  2  0  0  0  0
 19  2  1  0  0  0  0
 17  8  1  0  0  0  0
 16 11  1  0  0  0  0
  1 20  1  0  0  0  0
  1 21  1  0  0  0  0
  3 22  1  0  0  0  0
  4 23  1  0  0  0  0
  6 24  1  0  0  0  0
  7 25  1  0  0  0  0
  9 26  1  0  0  0  0
 10 27  1  0  0  0  0
 12 28  1  0  0  0  0
 13 29  1  0  0  0  0
 14 30  1  0  0  0  0
 15 31  1  0  0  0  0
 17 32  1  0  0  0  0
 18 33  1  0  0  0  0
 19 34  1  0  0  0  0
M  END
