
  xtb     03012221313D
 energy: -15.050972092396 gnorm: 0.000349736404 xtb: 6.4.1 (afa7bdf)
 78 82  0     0  0            999 V2000
   -3.0077   -5.4175   -0.7159 C   0  0  0  0  0  0  0  0  0  0  0  0
   -3.7679   -4.8914    0.4827 C   0  0  0  0  0  0  0  0  0  0  0  0
   -4.6368   -3.7523    0.1340 N   0  0  0  0  0  0  0  0  0  0  0  0
   -6.0475   -4.0936   -0.1267 C   0  0  0  0  0  0  0  0  0  0  0  0
   -6.9221   -3.8741    1.0889 C   0  0  0  0  0  0  0  0  0  0  0  0
   -4.1529   -2.4364    0.0487 C   0  0  0  0  0  0  0  0  0  0  0  0
   -2.7916   -2.1481    0.2252 C   0  0  0  0  0  0  0  0  0  0  0  0
   -2.3289   -0.8637    0.1359 C   0  0  0  0  0  0  0  0  0  0  0  0
   -3.1805    0.2109   -0.1270 C   0  0  0  0  0  0  0  0  0  0  0  0
   -2.6286    1.5257   -0.2115 C   0  0  0  0  0  0  0  0  0  0  0  0
   -1.3755    1.7604   -0.0420 N   0  0  0  0  0  0  0  0  0  0  0  0
   -0.7723    3.0037   -0.1081 C   0  0  0  0  0  0  0  0  0  0  0  0
   -1.4690    4.1847   -0.1593 C   0  0  0  0  0  0  0  0  0  0  0  0
   -0.8238    5.4349   -0.2256 C   0  0  0  0  0  0  0  0  0  0  0  0
   -1.5681    6.5407   -0.2727 N   0  0  0  0  0  0  0  0  0  0  0  0
   -0.8734    7.6818   -0.3318 C   0  0  0  0  0  0  0  0  0  0  0  0
   -1.5741    8.9082   -0.3861 C   0  0  0  0  0  0  0  0  0  0  0  0
   -0.9153   10.0982   -0.4475 C   0  0  0  0  0  0  0  0  0  0  0  0
    0.4824   10.1296   -0.4583 C   0  0  0  0  0  0  0  0  0  0  0  0
    1.1951    8.9705   -0.4073 C   0  0  0  0  0  0  0  0  0  0  0  0
    0.5514    7.7137   -0.3426 C   0  0  0  0  0  0  0  0  0  0  0  0
    1.2973    6.6047   -0.2933 N   0  0  0  0  0  0  0  0  0  0  0  0
    0.6038    5.4668   -0.2349 C   0  0  0  0  0  0  0  0  0  0  0  0
    1.3031    4.2458   -0.1741 C   0  0  0  0  0  0  0  0  0  0  0  0
    0.6567    3.0377   -0.1127 C   0  0  0  0  0  0  0  0  0  0  0  0
    1.3103    1.8227   -0.0380 N   0  0  0  0  0  0  0  0  0  0  0  0
    2.5670    1.6040   -0.1630 C   0  0  0  0  0  0  0  0  0  0  0  0
    3.1546    0.3052   -0.0602 C   0  0  0  0  0  0  0  0  0  0  0  0
    4.5394    0.1649   -0.1958 C   0  0  0  0  0  0  0  0  0  0  0  0
    5.1503   -1.0561   -0.0946 C   0  0  0  0  0  0  0  0  0  0  0  0
    4.4060   -2.2200    0.1504 C   0  0  0  0  0  0  0  0  0  0  0  0
    5.0265   -3.4757    0.2603 N   0  0  0  0  0  0  0  0  0  0  0  0
    4.2613   -4.7188    0.4697 C   0  0  0  0  0  0  0  0  0  0  0  0
    3.8997   -4.9278    1.9246 C   0  0  0  0  0  0  0  0  0  0  0  0
    6.4885   -3.6465    0.1729 C   0  0  0  0  0  0  0  0  0  0  0  0
    6.9684   -3.7209   -1.2606 C   0  0  0  0  0  0  0  0  0  0  0  0
    3.0264   -2.0870    0.2814 C   0  0  0  0  0  0  0  0  0  0  0  0
    2.3786   -0.8609    0.1820 C   0  0  0  0  0  0  0  0  0  0  0  0
    1.0086   -0.8465    0.3240 O   0  0  0  0  0  0  0  0  0  0  0  0
   -4.5655   -0.0545   -0.3053 C   0  0  0  0  0  0  0  0  0  0  0  0
   -5.5078    0.9202   -0.5630 O   0  0  0  0  0  0  0  0  0  0  0  0
   -5.0088   -1.3699   -0.2150 C   0  0  0  0  0  0  0  0  0  0  0  0
   -2.3870   -4.6394   -1.1627 H   0  0  0  0  0  0  0  0  0  0  0  0
   -2.3554   -6.2540   -0.4554 H   0  0  0  0  0  0  0  0  0  0  0  0
   -3.6935   -5.7598   -1.4928 H   0  0  0  0  0  0  0  0  0  0  0  0
   -3.0908   -4.5815    1.2847 H   0  0  0  0  0  0  0  0  0  0  0  0
   -4.3896   -5.6782    0.9230 H   0  0  0  0  0  0  0  0  0  0  0  0
   -6.3956   -3.5091   -0.9840 H   0  0  0  0  0  0  0  0  0  0  0  0
   -6.0957   -5.1372   -0.4555 H   0  0  0  0  0  0  0  0  0  0  0  0
   -7.9694   -4.1137    0.8916 H   0  0  0  0  0  0  0  0  0  0  0  0
   -6.5908   -4.4930    1.9245 H   0  0  0  0  0  0  0  0  0  0  0  0
   -6.8766   -2.8375    1.4261 H   0  0  0  0  0  0  0  0  0  0  0  0
   -2.0985   -2.9444    0.4259 H   0  0  0  0  0  0  0  0  0  0  0  0
   -1.2795   -0.6632    0.2595 H   0  0  0  0  0  0  0  0  0  0  0  0
   -3.2727    2.3478   -0.4534 H   0  0  0  0  0  0  0  0  0  0  0  0
   -2.5403    4.1821   -0.1347 H   0  0  0  0  0  0  0  0  0  0  0  0
   -2.6494    8.8769   -0.3775 H   0  0  0  0  0  0  0  0  0  0  0  0
   -1.4707   11.0211   -0.4881 H   0  0  0  0  0  0  0  0  0  0  0  0
    0.9949   11.0765   -0.5075 H   0  0  0  0  0  0  0  0  0  0  0  0
    2.2707    8.9879   -0.4152 H   0  0  0  0  0  0  0  0  0  0  0  0
    2.3740    4.2847   -0.1645 H   0  0  0  0  0  0  0  0  0  0  0  0
    3.2175    2.4351   -0.3653 H   0  0  0  0  0  0  0  0  0  0  0  0
    5.1317    1.0448   -0.3827 H   0  0  0  0  0  0  0  0  0  0  0  0
    6.2167   -1.1225   -0.2100 H   0  0  0  0  0  0  0  0  0  0  0  0
    3.3715   -4.6930   -0.1670 H   0  0  0  0  0  0  0  0  0  0  0  0
    4.8555   -5.5587    0.0941 H   0  0  0  0  0  0  0  0  0  0  0  0
    3.3222   -5.8420    2.0786 H   0  0  0  0  0  0  0  0  0  0  0  0
    4.7963   -4.9930    2.5434 H   0  0  0  0  0  0  0  0  0  0  0  0
    3.3105   -4.0938    2.3089 H   0  0  0  0  0  0  0  0  0  0  0  0
    6.9705   -2.8286    0.7172 H   0  0  0  0  0  0  0  0  0  0  0  0
    6.7639   -4.5536    0.7213 H   0  0  0  0  0  0  0  0  0  0  0  0
    6.6997   -2.8196   -1.8138 H   0  0  0  0  0  0  0  0  0  0  0  0
    6.5077   -4.5614   -1.7825 H   0  0  0  0  0  0  0  0  0  0  0  0
    8.0520   -3.8418   -1.3270 H   0  0  0  0  0  0  0  0  0  0  0  0
    2.4158   -2.9480    0.4693 H   0  0  0  0  0  0  0  0  0  0  0  0
    0.6790    0.0698    0.2091 H   0  0  0  0  0  0  0  0  0  0  0  0
   -5.0935    1.8077   -0.5947 H   0  0  0  0  0  0  0  0  0  0  0  0
   -6.0584   -1.5410   -0.3509 H   0  0  0  0  0  0  0  0  0  0  0  0
  1  2  1  0  0  0  0
  2  3  1  0  0  0  0
  3  4  1  0  0  0  0
  4  5  1  0  0  0  0
  3  6  1  0  0  0  0
  6  7  2  0  0  0  0
  7  8  1  0  0  0  0
  8  9  2  0  0  0  0
  9 10  1  0  0  0  0
 10 11  2  0  0  0  0
 11 12  1  0  0  0  0
 12 13  2  0  0  0  0
 13 14  1  0  0  0  0
 14 15  2  0  0  0  0
 15 16  1  0  0  0  0
 16 17  2  0  0  0  0
 17 18  1  0  0  0  0
 18 19  2  0  0  0  0
 19 20  1  0  0  0  0
 20 21  2  0  0  0  0
 21 22  1  0  0  0  0
 22 23  2  0  0  0  0
 23 24  1  0  0  0  0
 24 25  2  0  0  0  0
 25 26  1  0  0  0  0
 26 27  2  0  0  0  0
 27 28  1  0  0  0  0
 28 29  2  0  0  0  0
 29 30  1  0  0  0  0
 30 31  2  0  0  0  0
 31 32  1  0  0  0  0
 32 33  1  0  0  0  0
 33 34  1  0  0  0  0
 32 35  1  0  0  0  0
 35 36  1  0  0  0  0
 31 37  1  0  0  0  0
 37 38  2  0  0  0  0
 38 39  1  0  0  0  0
  9 40  1  0  0  0  0
 40 41  1  0  0  0  0
 40 42  2  0  0  0  0
 42  6  1  0  0  0  0
 25 12  1  0  0  0  0
 38 28  1  0  0  0  0
 23 14  1  0  0  0  0
 21 16  1  0  0  0  0
  1 43  1  0  0  0  0
  1 44  1  0  0  0  0
  1 45  1  0  0  0  0
  2 46  1  0  0  0  0
  2 47  1  0  0  0  0
  4 48  1  0  0  0  0
  4 49  1  0  0  0  0
  5 50  1  0  0  0  0
  5 51  1  0  0  0  0
  5 52  1  0  0  0  0
  7 53  1  0  0  0  0
  8 54  1  0  0  0  0
 10 55  1  0  0  0  0
 13 56  1  0  0  0  0
 17 57  1  0  0  0  0
 18 58  1  0  0  0  0
 19 59  1  0  0  0  0
 20 60  1  0  0  0  0
 24 61  1  0  0  0  0
 27 62  1  0  0  0  0
 29 63  1  0  0  0  0
 30 64  1  0  0  0  0
 33 65  1  0  0  0  0
 33 66  1  0  0  0  0
 34 67  1  0  0  0  0
 34 68  1  0  0  0  0
 34 69  1  0  0  0  0
 35 70  1  0  0  0  0
 35 71  1  0  0  0  0
 36 72  1  0  0  0  0
 36 73  1  0  0  0  0
 36 74  1  0  0  0  0
 37 75  1  0  0  0  0
 39 76  1  0  0  0  0
 41 77  1  0  0  0  0
 42 78  1  0  0  0  0
M  END
