
  xtb     03012221323D
 energy: -9.279225361864 gnorm: 0.000318772622 xtb: 6.4.1 (afa7bdf)
 47 51  0     0  0            999 V2000
    5.5693   -0.3977   -0.1035 C   0  0  0  0  0  0  0  0  0  0  0  0
    4.3702    0.4683   -0.0244 C   0  0  0  0  0  0  0  0  0  0  0  0
    4.3392    1.8521   -0.0714 C   0  0  0  0  0  0  0  0  0  0  0  0
    3.0013    2.2878    0.0533 C   0  0  0  0  0  0  0  0  0  0  0  0
    2.4882    3.6688    0.0729 C   0  0  0  0  0  0  0  0  0  0  0  0
    2.2573    1.1823    0.1679 N   0  0  0  0  0  4  0  0  0  0  0  0
    3.0248    0.0252    0.1350 C   0  0  0  0  0  0  0  0  0  0  0  0
    2.4731   -1.2425    0.2320 C   0  0  0  0  0  0  0  0  0  0  0  0
    1.1039   -1.3516    0.3386 C   0  0  0  0  0  0  0  0  0  0  0  0
    0.2810   -2.5465    0.3828 C   0  0  0  0  0  0  0  0  0  0  0  0
    0.6120   -3.8954    0.4225 C   0  0  0  0  0  0  0  0  0  0  0  0
   -0.4033   -4.8228    0.5340 C   0  0  0  0  0  0  0  0  0  0  0  0
   -1.7308   -4.4188    0.6239 C   0  0  0  0  0  0  0  0  0  0  0  0
   -2.0723   -3.0831    0.5840 C   0  0  0  0  0  0  0  0  0  0  0  0
   -1.0665   -2.1312    0.4316 C   0  0  0  0  0  0  0  0  0  0  0  0
   -1.0901   -0.6757    0.3918 C   0  0  0  0  0  0  0  0  0  0  0  0
   -2.2192    0.2058    0.3693 C   0  0  0  0  0  0  0  0  0  0  0  0
   -2.1819    1.4827    0.9037 N   0  0  0  0  0  0  0  0  0  0  0  0
   -3.3814    2.0926    0.7482 C   0  0  0  0  0  0  0  0  0  0  0  0
   -3.7013    3.4760    1.1550 C   0  0  0  0  0  0  0  0  0  0  0  0
   -4.2220    1.2017    0.0831 C   0  0  0  0  0  0  0  0  0  0  0  0
   -3.5176    0.0322   -0.1719 C   0  0  0  0  0  0  0  0  0  0  0  0
   -4.0277   -1.0995   -0.9853 C   0  0  0  0  0  0  0  0  0  0  0  0
    0.2203   -0.2879    0.3825 N   0  0  0  0  0  0  0  0  0  0  0  0
    0.7428    1.1646    0.4023 B   0  0  0  0  0  4  0  0  0  0  0  0
    0.1302    1.8897   -0.6171 F   0  0  0  0  0  0  0  0  0  0  0  0
    0.5140    1.7431    1.6527 F   0  0  0  0  0  0  0  0  0  0  0  0
    5.7412   -0.9085    0.8447 H   0  0  0  0  0  0  0  0  0  0  0  0
    6.4603    0.1859   -0.3379 H   0  0  0  0  0  0  0  0  0  0  0  0
    5.4507   -1.1551   -0.8792 H   0  0  0  0  0  0  0  0  0  0  0  0
    5.1955    2.4948   -0.1796 H   0  0  0  0  0  0  0  0  0  0  0  0
    1.4088    3.6627    0.2275 H   0  0  0  0  0  0  0  0  0  0  0  0
    2.9437    4.2429    0.8794 H   0  0  0  0  0  0  0  0  0  0  0  0
    2.6929    4.1740   -0.8706 H   0  0  0  0  0  0  0  0  0  0  0  0
    3.0949   -2.1166    0.1941 H   0  0  0  0  0  0  0  0  0  0  0  0
    1.6427   -4.1980    0.3788 H   0  0  0  0  0  0  0  0  0  0  0  0
   -0.1635   -5.8725    0.5680 H   0  0  0  0  0  0  0  0  0  0  0  0
   -2.5038   -5.1611    0.7365 H   0  0  0  0  0  0  0  0  0  0  0  0
   -3.0919   -2.7723    0.7138 H   0  0  0  0  0  0  0  0  0  0  0  0
   -1.3084    1.8571    1.2683 H   0  0  0  0  0  0  0  0  0  0  0  0
   -2.9378    3.8647    1.8286 H   0  0  0  0  0  0  0  0  0  0  0  0
   -4.6609    3.5189    1.6704 H   0  0  0  0  0  0  0  0  0  0  0  0
   -3.7502    4.1322    0.2862 H   0  0  0  0  0  0  0  0  0  0  0  0
   -5.2340    1.4052   -0.2224 H   0  0  0  0  0  0  0  0  0  0  0  0
   -3.2112   -1.7222   -1.3512 H   0  0  0  0  0  0  0  0  0  0  0  0
   -4.7121   -1.7215   -0.4078 H   0  0  0  0  0  0  0  0  0  0  0  0
   -4.5705   -0.7311   -1.8564 H   0  0  0  0  0  0  0  0  0  0  0  0
  1  2  1  0  0  0  0
  2  3  2  0  0  0  0
  3  4  1  0  0  0  0
  4  5  1  0  0  0  0
  4  6  2  0  0  0  0
  6  7  1  0  0  0  0
  7  8  2  0  0  0  0
  8  9  1  0  0  0  0
  9 10  2  0  0  0  0
 10 11  1  0  0  0  0
 11 12  2  0  0  0  0
 12 13  1  0  0  0  0
 13 14  2  0  0  0  0
 14 15  1  0  0  0  0
 15 16  2  0  0  0  0
 16 17  1  0  0  0  0
 17 18  1  0  0  0  0
 18 19  1  0  0  0  0
 19 20  1  0  0  0  0
 19 21  2  0  0  0  0
 21 22  1  0  0  0  0
 22 23  1  0  0  0  0
 16 24  1  0  0  0  0
 24 25  1  0  0  0  0
 25 26  1  0  0  0  0
 25 27  1  0  0  0  0
  7  2  1  0  0  0  0
 24  9  1  0  0  0  0
 25  6  1  0  0  0  0
 15 10  1  0  0  0  0
 22 17  2  0  0  0  0
  1 28  1  0  0  0  0
  1 29  1  0  0  0  0
  1 30  1  0  0  0  0
  3 31  1  0  0  0  0
  5 32  1  0  0  0  0
  5 33  1  0  0  0  0
  5 34  1  0  0  0  0
  8 35  1  0  0  0  0
 11 36  1  0  0  0  0
 12 37  1  0  0  0  0
 13 38  1  0  0  0  0
 14 39  1  0  0  0  0
 18 40  1  0  0  0  0
 20 41  1  0  0  0  0
 20 42  1  0  0  0  0
 20 43  1  0  0  0  0
 21 44  1  0  0  0  0
 23 45  1  0  0  0  0
 23 46  1  0  0  0  0
 23 47  1  0  0  0  0
M  CHG  1   6   1
M  CHG  1  25  -1
M  END
