
  xtb     03012221283D
 energy: -11.263646014793 gnorm: 0.000201581225 xtb: 6.4.1 (afa7bdf)
 52 58  0     0  0            999 V2000
   -0.0517    0.8653    1.4090 F   0  0  0  0  0  0  0  0  0  0  0  0
    0.0247    0.3910    0.1044 B   0  0  0  0  0  4  0  0  0  0  0  0
    0.2001    1.4061   -0.8293 F   0  0  0  0  0  0  0  0  0  0  0  0
   -1.2648   -0.3421   -0.2596 N   0  0  0  0  0  0  0  0  0  0  0  0
   -1.2164   -1.6860   -0.5541 C   0  0  0  0  0  0  0  0  0  0  0  0
   -2.5737   -2.0569   -0.8695 C   0  0  0  0  0  0  0  0  0  0  0  0
   -3.1293   -3.2840   -1.2106 C   0  0  0  0  0  0  0  0  0  0  0  0
   -4.4870   -3.3530   -1.4331 C   0  0  0  0  0  0  0  0  0  0  0  0
   -5.2884   -2.2211   -1.3088 C   0  0  0  0  0  0  0  0  0  0  0  0
   -4.7484   -0.9979   -0.9756 C   0  0  0  0  0  0  0  0  0  0  0  0
   -3.3709   -0.8978   -0.7699 C   0  0  0  0  0  0  0  0  0  0  0  0
   -2.5044    0.2059   -0.4102 C   0  0  0  0  0  0  0  0  0  0  0  0
   -2.8666    1.6121   -0.3549 C   0  0  0  0  0  0  0  0  0  0  0  0
   -3.9398    2.1136   -1.1011 C   0  0  0  0  0  0  0  0  0  0  0  0
   -4.2837    3.4438   -1.0458 C   0  0  0  0  0  0  0  0  0  0  0  0
   -3.5652    4.3148   -0.2510 C   0  0  0  0  0  0  0  0  0  0  0  0
   -2.4905    3.8491    0.4794 C   0  0  0  0  0  0  0  0  0  0  0  0
   -2.1450    2.5207    0.4233 C   0  0  0  0  0  0  0  0  0  0  0  0
   -0.1697   -2.4995   -0.6143 N   0  0  0  0  0  0  0  0  0  0  0  0
    0.9726   -1.8903   -0.3226 C   0  0  0  0  0  0  0  0  0  0  0  0
    2.2627   -2.5321   -0.2669 C   0  0  0  0  0  0  0  0  0  0  0  0
    2.6476   -3.8346   -0.5604 C   0  0  0  0  0  0  0  0  0  0  0  0
    3.9793   -4.1685   -0.4489 C   0  0  0  0  0  0  0  0  0  0  0  0
    4.9222   -3.2201   -0.0612 C   0  0  0  0  0  0  0  0  0  0  0  0
    4.5518   -1.9268    0.2373 C   0  0  0  0  0  0  0  0  0  0  0  0
    3.2039   -1.5709    0.1563 C   0  0  0  0  0  0  0  0  0  0  0  0
    2.4951   -0.3285    0.3858 C   0  0  0  0  0  0  0  0  0  0  0  0
    3.0356    0.8830    0.9790 C   0  0  0  0  0  0  0  0  0  0  0  0
    2.4514    2.1310    0.7487 C   0  0  0  0  0  0  0  0  0  0  0  0
    2.9637    3.2767    1.3073 C   0  0  0  0  0  0  0  0  0  0  0  0
    4.0742    3.2100    2.1244 C   0  0  0  0  0  0  0  0  0  0  0  0
    4.6603    1.9876    2.3867 C   0  0  0  0  0  0  0  0  0  0  0  0
    4.1489    0.8405    1.8269 C   0  0  0  0  0  0  0  0  0  0  0  0
    1.2001   -0.5824    0.0420 N   0  0  0  0  0  4  0  0  0  0  0  0
   -2.4983   -4.1513   -1.2888 H   0  0  0  0  0  0  0  0  0  0  0  0
   -4.9355   -4.2963   -1.6969 H   0  0  0  0  0  0  0  0  0  0  0  0
   -6.3503   -2.3052   -1.4704 H   0  0  0  0  0  0  0  0  0  0  0  0
   -5.3812   -0.1404   -0.8376 H   0  0  0  0  0  0  0  0  0  0  0  0
   -4.4702    1.4551   -1.7648 H   0  0  0  0  0  0  0  0  0  0  0  0
   -5.1110    3.8099   -1.6311 H   0  0  0  0  0  0  0  0  0  0  0  0
   -3.8357    5.3568   -0.2093 H   0  0  0  0  0  0  0  0  0  0  0  0
   -1.9186    4.5284    1.0899 H   0  0  0  0  0  0  0  0  0  0  0  0
   -1.2984    2.1637    0.9763 H   0  0  0  0  0  0  0  0  0  0  0  0
    1.9088   -4.5510   -0.8724 H   0  0  0  0  0  0  0  0  0  0  0  0
    4.2965   -5.1731   -0.6744 H   0  0  0  0  0  0  0  0  0  0  0  0
    5.9603   -3.5015    0.0001 H   0  0  0  0  0  0  0  0  0  0  0  0
    5.2931   -1.1910    0.4899 H   0  0  0  0  0  0  0  0  0  0  0  0
    1.5775    2.1820    0.1294 H   0  0  0  0  0  0  0  0  0  0  0  0
    2.4948    4.2269    1.1115 H   0  0  0  0  0  0  0  0  0  0  0  0
    4.4756    4.1076    2.5647 H   0  0  0  0  0  0  0  0  0  0  0  0
    5.5159    1.9320    3.0394 H   0  0  0  0  0  0  0  0  0  0  0  0
    4.5781   -0.1115    2.0818 H   0  0  0  0  0  0  0  0  0  0  0  0
  1  2  1  0  0  0  0
  2  3  1  0  0  0  0
  2  4  1  0  0  0  0
  4  5  1  0  0  0  0
  5  6  2  0  0  0  0
  6  7  1  0  0  0  0
  7  8  2  0  0  0  0
  8  9  1  0  0  0  0
  9 10  2  0  0  0  0
 10 11  1  0  0  0  0
 11 12  2  0  0  0  0
 12 13  1  0  0  0  0
 13 14  2  0  0  0  0
 14 15  1  0  0  0  0
 15 16  2  0  0  0  0
 16 17  1  0  0  0  0
 17 18  2  0  0  0  0
  5 19  1  0  0  0  0
 19 20  2  0  0  0  0
 20 21  1  0  0  0  0
 21 22  2  0  0  0  0
 22 23  1  0  0  0  0
 23 24  2  0  0  0  0
 24 25  1  0  0  0  0
 25 26  2  0  0  0  0
 26 27  1  0  0  0  0
 27 28  1  0  0  0  0
 28 29  2  0  0  0  0
 29 30  1  0  0  0  0
 30 31  2  0  0  0  0
 31 32  1  0  0  0  0
 32 33  2  0  0  0  0
 27 34  2  0  0  0  0
 34  2  1  0  0  0  0
 12  4  1  0  0  0  0
 18 13  1  0  0  0  0
 34 20  1  0  0  0  0
 11  6  1  0  0  0  0
 26 21  1  0  0  0  0
 33 28  1  0  0  0  0
  7 35  1  0  0  0  0
  8 36  1  0  0  0  0
  9 37  1  0  0  0  0
 10 38  1  0  0  0  0
 14 39  1  0  0  0  0
 15 40  1  0  0  0  0
 16 41  1  0  0  0  0
 17 42  1  0  0  0  0
 18 43  1  0  0  0  0
 22 44  1  0  0  0  0
 23 45  1  0  0  0  0
 24 46  1  0  0  0  0
 25 47  1  0  0  0  0
 29 48  1  0  0  0  0
 30 49  1  0  0  0  0
 31 50  1  0  0  0  0
 32 51  1  0  0  0  0
 33 52  1  0  0  0  0
M  CHG  1   2  -1
M  CHG  1  34   1
M  END
