
  xtb     03012221323D
 energy: -17.679074020631 gnorm: 0.000249452090 xtb: 6.4.1 (afa7bdf)
 85 92  0     0  0            999 V2000
   -7.6896    2.2278    2.1642 C   0  0  0  0  0  0  0  0  0  0  0  0
   -7.3414    1.9067    0.6964 C   0  0  0  0  0  0  0  0  0  0  0  0
   -8.4434    2.4418   -0.2408 C   0  0  0  0  0  0  0  0  0  0  0  0
   -6.0210    2.6068    0.3453 C   0  0  0  0  0  0  0  0  0  0  0  0
   -5.9346    3.9885    0.4355 C   0  0  0  0  0  0  0  0  0  0  0  0
   -4.7727    4.6626    0.1178 C   0  0  0  0  0  0  0  0  0  0  0  0
   -3.6655    3.9584   -0.3024 C   0  0  0  0  0  0  0  0  0  0  0  0
   -3.7285    2.5887   -0.3979 C   0  0  0  0  0  0  0  0  0  0  0  0
   -4.8925    1.8928   -0.0753 C   0  0  0  0  0  0  0  0  0  0  0  0
   -4.9175    0.4747   -0.1944 N   0  0  0  0  0  0  0  0  0  0  0  0
   -3.7364   -0.2263   -0.6452 C   0  0  0  0  0  0  0  0  0  0  0  0
   -3.6648   -0.7408   -1.9394 C   0  0  0  0  0  0  0  0  0  0  0  0
   -2.5475   -1.4139   -2.3660 C   0  0  0  0  0  0  0  0  0  0  0  0
   -1.4543   -1.5998   -1.5159 C   0  0  0  0  0  0  0  0  0  0  0  0
   -0.2491   -2.3253   -1.9605 C   0  0  0  0  0  0  0  0  0  0  0  0
   -0.3675   -3.3644   -2.8301 C   0  0  0  0  0  0  0  0  0  0  0  0
    0.6665   -4.1083   -3.3469 C   0  0  0  0  0  0  0  0  0  0  0  0
    1.5579   -4.7334   -3.7630 N   0  0  0  0  0  0  0  0  0  0  0  0
    1.0693   -1.9016   -1.4442 C   0  0  0  0  0  0  0  0  0  0  0  0
    2.0447   -2.8321   -1.0781 C   0  0  0  0  0  0  0  0  0  0  0  0
    3.2625   -2.4252   -0.5954 C   0  0  0  0  0  0  0  0  0  0  0  0
    3.5579   -1.0693   -0.4599 C   0  0  0  0  0  0  0  0  0  0  0  0
    4.8470   -0.6434    0.0341 N   0  0  0  0  0  0  0  0  0  0  0  0
    4.9533   -0.0854    1.3394 C   0  0  0  0  0  0  0  0  0  0  0  0
    3.8100    0.0472    2.1260 C   0  0  0  0  0  0  0  0  0  0  0  0
    3.8713    0.5777    3.3925 C   0  0  0  0  0  0  0  0  0  0  0  0
    5.0851    0.9848    3.9013 C   0  0  0  0  0  0  0  0  0  0  0  0
    6.2278    0.8521    3.1385 C   0  0  0  0  0  0  0  0  0  0  0  0
    6.1894    0.3184    1.8584 C   0  0  0  0  0  0  0  0  0  0  0  0
    7.4928    0.1729    1.0605 C   0  0  0  0  0  0  0  0  0  0  0  0
    8.4479   -0.7473    1.8479 C   0  0  0  0  0  0  0  0  0  0  0  0
    8.1211    1.5713    0.8905 C   0  0  0  0  0  0  0  0  0  0  0  0
    7.2717   -0.4341   -0.3319 C   0  0  0  0  0  0  0  0  0  0  0  0
    8.3563   -0.6188   -1.1771 C   0  0  0  0  0  0  0  0  0  0  0  0
    8.2048   -1.1481   -2.4429 C   0  0  0  0  0  0  0  0  0  0  0  0
    6.9512   -1.5027   -2.8909 C   0  0  0  0  0  0  0  0  0  0  0  0
    5.8629   -1.3302   -2.0694 C   0  0  0  0  0  0  0  0  0  0  0  0
    6.0000   -0.8048   -0.7853 C   0  0  0  0  0  0  0  0  0  0  0  0
    2.5867   -0.1359   -0.8210 C   0  0  0  0  0  0  0  0  0  0  0  0
    1.3677   -0.5445   -1.3005 C   0  0  0  0  0  0  0  0  0  0  0  0
   -1.5291   -1.0780   -0.2222 C   0  0  0  0  0  0  0  0  0  0  0  0
   -2.6462   -0.4061    0.2055 C   0  0  0  0  0  0  0  0  0  0  0  0
   -6.0960   -0.2614    0.1139 C   0  0  0  0  0  0  0  0  0  0  0  0
   -6.0851   -1.6513    0.0069 C   0  0  0  0  0  0  0  0  0  0  0  0
   -7.2010   -2.3990    0.2980 C   0  0  0  0  0  0  0  0  0  0  0  0
   -8.3554   -1.7675    0.7064 C   0  0  0  0  0  0  0  0  0  0  0  0
   -8.3804   -0.3923    0.8234 C   0  0  0  0  0  0  0  0  0  0  0  0
   -7.2655    0.3819    0.5364 C   0  0  0  0  0  0  0  0  0  0  0  0
   -7.7747    3.3009    2.3271 H   0  0  0  0  0  0  0  0  0  0  0  0
   -6.9148    1.8474    2.8288 H   0  0  0  0  0  0  0  0  0  0  0  0
   -8.6353    1.7745    2.4568 H   0  0  0  0  0  0  0  0  0  0  0  0
   -8.2010    2.2146   -1.2783 H   0  0  0  0  0  0  0  0  0  0  0  0
   -8.5531    3.5212   -0.1502 H   0  0  0  0  0  0  0  0  0  0  0  0
   -9.4093    1.9928   -0.0156 H   0  0  0  0  0  0  0  0  0  0  0  0
   -6.7940    4.5499    0.7585 H   0  0  0  0  0  0  0  0  0  0  0  0
   -4.7323    5.7367    0.1956 H   0  0  0  0  0  0  0  0  0  0  0  0
   -2.7560    4.4786   -0.5553 H   0  0  0  0  0  0  0  0  0  0  0  0
   -2.8678    2.0368   -0.7311 H   0  0  0  0  0  0  0  0  0  0  0  0
   -4.5027   -0.5947   -2.5991 H   0  0  0  0  0  0  0  0  0  0  0  0
   -2.4994   -1.7859   -3.3738 H   0  0  0  0  0  0  0  0  0  0  0  0
   -1.3522   -3.6565   -3.1507 H   0  0  0  0  0  0  0  0  0  0  0  0
    1.8316   -3.8810   -1.1820 H   0  0  0  0  0  0  0  0  0  0  0  0
    4.0106   -3.1473   -0.3168 H   0  0  0  0  0  0  0  0  0  0  0  0
    2.8648   -0.2786    1.7301 H   0  0  0  0  0  0  0  0  0  0  0  0
    2.9755    0.6736    3.9842 H   0  0  0  0  0  0  0  0  0  0  0  0
    5.1425    1.4020    4.8932 H   0  0  0  0  0  0  0  0  0  0  0  0
    7.1710    1.1674    3.5495 H   0  0  0  0  0  0  0  0  0  0  0  0
    9.4022   -0.8606    1.3363 H   0  0  0  0  0  0  0  0  0  0  0  0
    8.0091   -1.7376    1.9638 H   0  0  0  0  0  0  0  0  0  0  0  0
    8.6518   -0.3519    2.8415 H   0  0  0  0  0  0  0  0  0  0  0  0
    9.0658    1.5200    0.3520 H   0  0  0  0  0  0  0  0  0  0  0  0
    7.4503    2.2220    0.3308 H   0  0  0  0  0  0  0  0  0  0  0  0
    8.3168    2.0393    1.8538 H   0  0  0  0  0  0  0  0  0  0  0  0
    9.3400   -0.3420   -0.8398 H   0  0  0  0  0  0  0  0  0  0  0  0
    9.0640   -1.2813   -3.0796 H   0  0  0  0  0  0  0  0  0  0  0  0
    6.8247   -1.9139   -3.8792 H   0  0  0  0  0  0  0  0  0  0  0  0
    4.8830   -1.6020   -2.4195 H   0  0  0  0  0  0  0  0  0  0  0  0
    2.8155    0.9114   -0.7240 H   0  0  0  0  0  0  0  0  0  0  0  0
    0.6276    0.1828   -1.5842 H   0  0  0  0  0  0  0  0  0  0  0  0
   -0.6970   -1.2193    0.4446 H   0  0  0  0  0  0  0  0  0  0  0  0
   -2.7012   -0.0123    1.2057 H   0  0  0  0  0  0  0  0  0  0  0  0
   -5.1810   -2.1417   -0.3070 H   0  0  0  0  0  0  0  0  0  0  0  0
   -7.1733   -3.4727    0.2078 H   0  0  0  0  0  0  0  0  0  0  0  0
   -9.2353   -2.3456    0.9361 H   0  0  0  0  0  0  0  0  0  0  0  0
   -9.2868    0.0891    1.1472 H   0  0  0  0  0  0  0  0  0  0  0  0
  1  2  1  0  0  0  0
  2  3  1  0  0  0  0
  2  4  1  0  0  0  0
  4  5  2  0  0  0  0
  5  6  1  0  0  0  0
  6  7  2  0  0  0  0
  7  8  1  0  0  0  0
  8  9  2  0  0  0  0
  9 10  1  0  0  0  0
 10 11  1  0  0  0  0
 11 12  2  0  0  0  0
 12 13  1  0  0  0  0
 13 14  2  0  0  0  0
 14 15  1  0  0  0  0
 15 16  2  0  0  0  0
 16 17  1  0  0  0  0
 17 18  3  0  0  0  0
 15 19  1  0  0  0  0
 19 20  2  0  0  0  0
 20 21  1  0  0  0  0
 21 22  2  0  0  0  0
 22 23  1  0  0  0  0
 23 24  1  0  0  0  0
 24 25  2  0  0  0  0
 25 26  1  0  0  0  0
 26 27  2  0  0  0  0
 27 28  1  0  0  0  0
 28 29  2  0  0  0  0
 29 30  1  0  0  0  0
 30 31  1  0  0  0  0
 30 32  1  0  0  0  0
 30 33  1  0  0  0  0
 33 34  2  0  0  0  0
 34 35  1  0  0  0  0
 35 36  2  0  0  0  0
 36 37  1  0  0  0  0
 37 38  2  0  0  0  0
 22 39  1  0  0  0  0
 39 40  2  0  0  0  0
 14 41  1  0  0  0  0
 41 42  2  0  0  0  0
 10 43  1  0  0  0  0
 43 44  2  0  0  0  0
 44 45  1  0  0  0  0
 45 46  2  0  0  0  0
 46 47  1  0  0  0  0
 47 48  2  0  0  0  0
 48  2  1  0  0  0  0
  9  4  1  0  0  0  0
 42 11  1  0  0  0  0
 48 43  1  0  0  0  0
 40 19  1  0  0  0  0
 38 23  1  0  0  0  0
 29 24  1  0  0  0  0
 38 33  1  0  0  0  0
  1 49  1  0  0  0  0
  1 50  1  0  0  0  0
  1 51  1  0  0  0  0
  3 52  1  0  0  0  0
  3 53  1  0  0  0  0
  3 54  1  0  0  0  0
  5 55  1  0  0  0  0
  6 56  1  0  0  0  0
  7 57  1  0  0  0  0
  8 58  1  0  0  0  0
 12 59  1  0  0  0  0
 13 60  1  0  0  0  0
 16 61  1  0  0  0  0
 20 62  1  0  0  0  0
 21 63  1  0  0  0  0
 25 64  1  0  0  0  0
 26 65  1  0  0  0  0
 27 66  1  0  0  0  0
 28 67  1  0  0  0  0
 31 68  1  0  0  0  0
 31 69  1  0  0  0  0
 31 70  1  0  0  0  0
 32 71  1  0  0  0  0
 32 72  1  0  0  0  0
 32 73  1  0  0  0  0
 34 74  1  0  0  0  0
 35 75  1  0  0  0  0
 36 76  1  0  0  0  0
 37 77  1  0  0  0  0
 39 78  1  0  0  0  0
 40 79  1  0  0  0  0
 41 80  1  0  0  0  0
 42 81  1  0  0  0  0
 44 82  1  0  0  0  0
 45 83  1  0  0  0  0
 46 84  1  0  0  0  0
 47 85  1  0  0  0  0
M  END
