
  xtb     03012221223D
 energy: -8.828411562395 gnorm: 0.000276337144 xtb: 6.4.1 (afa7bdf)
 47 50  0     0  0            999 V2000
    6.2464   -0.4414    0.0928 C   0  0  0  0  0  0  0  0  0  0  0  0
    5.3456   -1.0988   -0.7658 O   0  0  0  0  0  0  0  0  0  0  0  0
    4.0294   -0.8024   -0.5471 C   0  0  0  0  0  0  0  0  0  0  0  0
    3.0705   -1.4316   -1.3766 C   0  0  0  0  0  0  0  0  0  0  0  0
    1.7387   -1.1933   -1.2253 C   0  0  0  0  0  0  0  0  0  0  0  0
    1.2653   -0.3073   -0.2365 C   0  0  0  0  0  0  0  0  0  0  0  0
   -0.1772   -0.0470   -0.0726 C   0  0  0  0  0  0  0  0  0  0  0  0
   -0.7387    1.2362   -0.2957 C   0  0  0  0  0  0  0  0  0  0  0  0
   -0.1675    2.4543   -0.7559 C   0  0  0  0  0  0  0  0  0  0  0  0
    1.2411    2.7068   -1.1417 C   0  0  0  0  0  0  0  0  0  0  0  0
   -1.1870    3.4000   -0.8026 C   0  0  0  0  0  0  0  0  0  0  0  0
   -2.3909    2.7982   -0.4067 C   0  0  0  0  0  0  0  0  0  0  0  0
   -3.7349    3.3982   -0.3403 C   0  0  0  0  0  0  0  0  0  0  0  0
   -2.0919    1.5203   -0.1267 N   0  0  0  0  0  4  0  0  0  0  0  0
   -3.1489    0.4932    0.2717 B   0  0  0  0  0  4  0  0  0  0  0  0
   -3.7430    0.8843    1.4714 F   0  0  0  0  0  0  0  0  0  0  0  0
   -4.0920    0.3813   -0.7498 F   0  0  0  0  0  0  0  0  0  0  0  0
   -2.4543   -0.8523    0.4674 N   0  0  0  0  0  0  0  0  0  0  0  0
   -3.1080   -1.9558    0.8627 C   0  0  0  0  0  0  0  0  0  0  0  0
   -4.5571   -2.0509    1.1117 C   0  0  0  0  0  0  0  0  0  0  0  0
   -2.1327   -2.9541    1.0042 C   0  0  0  0  0  0  0  0  0  0  0  0
   -0.8858   -2.4209    0.6928 C   0  0  0  0  0  0  0  0  0  0  0  0
    0.3948   -3.1638    0.7618 C   0  0  0  0  0  0  0  0  0  0  0  0
   -1.0852   -1.0632    0.3203 C   0  0  0  0  0  0  0  0  0  0  0  0
    2.2177    0.3224    0.5907 C   0  0  0  0  0  0  0  0  0  0  0  0
    3.5515    0.0863    0.4461 C   0  0  0  0  0  0  0  0  0  0  0  0
    6.0482   -0.7234    1.1280 H   0  0  0  0  0  0  0  0  0  0  0  0
    6.1622    0.6390   -0.0346 H   0  0  0  0  0  0  0  0  0  0  0  0
    7.2599   -0.7493   -0.1683 H   0  0  0  0  0  0  0  0  0  0  0  0
    3.4257   -2.1046   -2.1353 H   0  0  0  0  0  0  0  0  0  0  0  0
    1.0237   -1.6696   -1.8736 H   0  0  0  0  0  0  0  0  0  0  0  0
    1.3133    3.5634   -1.8129 H   0  0  0  0  0  0  0  0  0  0  0  0
    1.8542    2.9172   -0.2651 H   0  0  0  0  0  0  0  0  0  0  0  0
    1.6664    1.8464   -1.6589 H   0  0  0  0  0  0  0  0  0  0  0  0
   -1.0771    4.4247   -1.1153 H   0  0  0  0  0  0  0  0  0  0  0  0
   -4.4362    2.6938    0.1087 H   0  0  0  0  0  0  0  0  0  0  0  0
   -3.7295    4.3057    0.2632 H   0  0  0  0  0  0  0  0  0  0  0  0
   -4.0983    3.6468   -1.3373 H   0  0  0  0  0  0  0  0  0  0  0  0
   -4.7578   -2.2846    2.1571 H   0  0  0  0  0  0  0  0  0  0  0  0
   -5.0102   -2.8232    0.4904 H   0  0  0  0  0  0  0  0  0  0  0  0
   -5.0386   -1.1005    0.8786 H   0  0  0  0  0  0  0  0  0  0  0  0
   -2.3196   -3.9656    1.3231 H   0  0  0  0  0  0  0  0  0  0  0  0
    0.6831   -3.5366   -0.2214 H   0  0  0  0  0  0  0  0  0  0  0  0
    1.1975   -2.5279    1.1360 H   0  0  0  0  0  0  0  0  0  0  0  0
    0.3127   -4.0198    1.4324 H   0  0  0  0  0  0  0  0  0  0  0  0
    1.8652    0.9899    1.3581 H   0  0  0  0  0  0  0  0  0  0  0  0
    4.2489    0.5792    1.0969 H   0  0  0  0  0  0  0  0  0  0  0  0
  1  2  1  0  0  0  0
  2  3  1  0  0  0  0
  3  4  2  0  0  0  0
  4  5  1  0  0  0  0
  5  6  2  0  0  0  0
  6  7  1  0  0  0  0
  7  8  2  0  0  0  0
  8  9  1  0  0  0  0
  9 10  1  0  0  0  0
  9 11  2  0  0  0  0
 11 12  1  0  0  0  0
 12 13  1  0  0  0  0
 12 14  2  0  0  0  0
 14 15  1  0  0  0  0
 15 16  1  0  0  0  0
 15 17  1  0  0  0  0
 15 18  1  0  0  0  0
 18 19  1  0  0  0  0
 19 20  1  0  0  0  0
 19 21  2  0  0  0  0
 21 22  1  0  0  0  0
 22 23  1  0  0  0  0
 22 24  2  0  0  0  0
  6 25  1  0  0  0  0
 25 26  2  0  0  0  0
 26  3  1  0  0  0  0
 24  7  1  0  0  0  0
 14  8  1  0  0  0  0
 24 18  1  0  0  0  0
  1 27  1  0  0  0  0
  1 28  1  0  0  0  0
  1 29  1  0  0  0  0
  4 30  1  0  0  0  0
  5 31  1  0  0  0  0
 10 32  1  0  0  0  0
 10 33  1  0  0  0  0
 10 34  1  0  0  0  0
 11 35  1  0  0  0  0
 13 36  1  0  0  0  0
 13 37  1  0  0  0  0
 13 38  1  0  0  0  0
 20 39  1  0  0  0  0
 20 40  1  0  0  0  0
 20 41  1  0  0  0  0
 21 42  1  0  0  0  0
 23 43  1  0  0  0  0
 23 44  1  0  0  0  0
 23 45  1  0  0  0  0
 25 46  1  0  0  0  0
 26 47  1  0  0  0  0
M  CHG  1  14   1
M  CHG  1  15  -1
M  END
