
  xtb     03012221243D
 energy: -7.659778740092 gnorm: 0.000202863098 xtb: 6.4.1 (afa7bdf)
 38 40  0     0  0            999 V2000
   -6.0572   -1.6426    0.0939 C   0  0  0  0  0  0  0  0  0  0  0  0
   -5.3584   -0.3587    0.1576 N   0  0  0  0  0  0  0  0  0  0  0  0
   -6.1897    0.8411    0.2553 C   0  0  0  0  0  0  0  0  0  0  0  0
   -3.9573   -0.2819    0.1255 C   0  0  0  0  0  0  0  0  0  0  0  0
   -3.1738   -1.4255   -0.0687 C   0  0  0  0  0  0  0  0  0  0  0  0
   -1.8052   -1.3493   -0.0986 C   0  0  0  0  0  0  0  0  0  0  0  0
   -1.1446   -0.1275    0.0663 C   0  0  0  0  0  0  0  0  0  0  0  0
    0.3016   -0.0875    0.0314 C   0  0  0  0  0  0  0  0  0  0  0  0
    1.0699    0.9994    0.2104 C   0  0  0  0  0  0  0  0  0  0  0  0
    2.5103    0.9322    0.1554 C   0  0  0  0  0  0  0  0  0  0  0  0
    3.2589    2.1085    0.3623 C   0  0  0  0  0  0  0  0  0  0  0  0
    4.5510    2.1840    0.3394 N   0  0  0  0  0  0  0  0  0  0  0  0
    5.1648    1.0024    0.0898 C   0  0  0  0  0  0  0  0  0  0  0  0
    6.5710    0.9528    0.0350 C   0  0  0  0  0  0  0  0  0  0  0  0
    7.2286   -0.2167   -0.2142 C   0  0  0  0  0  0  0  0  0  0  0  0
    6.5106   -1.3941   -0.4209 C   0  0  0  0  0  0  0  0  0  0  0  0
    5.1477   -1.3830   -0.3750 C   0  0  0  0  0  0  0  0  0  0  0  0
    4.4341   -0.1938   -0.1205 C   0  0  0  0  0  0  0  0  0  0  0  0
    3.0853   -0.2290   -0.0863 N   0  0  0  0  0  0  0  0  0  0  0  0
   -1.9262    1.0165    0.2592 C   0  0  0  0  0  0  0  0  0  0  0  0
   -3.2954    0.9409    0.2868 C   0  0  0  0  0  0  0  0  0  0  0  0
   -7.1251   -1.5167    0.2592 H   0  0  0  0  0  0  0  0  0  0  0  0
   -5.6758   -2.3141    0.8606 H   0  0  0  0  0  0  0  0  0  0  0  0
   -5.9125   -2.0980   -0.8837 H   0  0  0  0  0  0  0  0  0  0  0  0
   -5.9182    1.5480   -0.5264 H   0  0  0  0  0  0  0  0  0  0  0  0
   -6.0518    1.3123    1.2264 H   0  0  0  0  0  0  0  0  0  0  0  0
   -7.2438    0.5993    0.1377 H   0  0  0  0  0  0  0  0  0  0  0  0
   -3.6555   -2.3771   -0.2042 H   0  0  0  0  0  0  0  0  0  0  0  0
   -1.2207   -2.2405   -0.2510 H   0  0  0  0  0  0  0  0  0  0  0  0
    0.8076   -1.0182   -0.1530 H   0  0  0  0  0  0  0  0  0  0  0  0
    0.6182    1.9537    0.4044 H   0  0  0  0  0  0  0  0  0  0  0  0
    2.7256    3.0251    0.5577 H   0  0  0  0  0  0  0  0  0  0  0  0
    7.1173    1.8658    0.1955 H   0  0  0  0  0  0  0  0  0  0  0  0
    8.3054   -0.2327   -0.2521 H   0  0  0  0  0  0  0  0  0  0  0  0
    7.0365   -2.3141   -0.6174 H   0  0  0  0  0  0  0  0  0  0  0  0
    4.5865   -2.2870   -0.5339 H   0  0  0  0  0  0  0  0  0  0  0  0
   -1.4473    1.9709    0.3855 H   0  0  0  0  0  0  0  0  0  0  0  0
   -3.8726    1.8348    0.4412 H   0  0  0  0  0  0  0  0  0  0  0  0
  1  2  1  0  0  0  0
  2  3  1  0  0  0  0
  2  4  1  0  0  0  0
  4  5  2  0  0  0  0
  5  6  1  0  0  0  0
  6  7  2  0  0  0  0
  7  8  1  0  0  0  0
  8  9  2  0  0  0  0
  9 10  1  0  0  0  0
 10 11  2  0  0  0  0
 11 12  1  0  0  0  0
 12 13  2  0  0  0  0
 13 14  1  0  0  0  0
 14 15  2  0  0  0  0
 15 16  1  0  0  0  0
 16 17  2  0  0  0  0
 17 18  1  0  0  0  0
 18 19  2  0  0  0  0
  7 20  1  0  0  0  0
 20 21  2  0  0  0  0
 21  4  1  0  0  0  0
 19 10  1  0  0  0  0
 18 13  1  0  0  0  0
  1 22  1  0  0  0  0
  1 23  1  0  0  0  0
  1 24  1  0  0  0  0
  3 25  1  0  0  0  0
  3 26  1  0  0  0  0
  3 27  1  0  0  0  0
  5 28  1  0  0  0  0
  6 29  1  0  0  0  0
  8 30  1  0  0  0  0
  9 31  1  0  0  0  0
 11 32  1  0  0  0  0
 14 33  1  0  0  0  0
 15 34  1  0  0  0  0
 16 35  1  0  0  0  0
 17 36  1  0  0  0  0
 20 37  1  0  0  0  0
 21 38  1  0  0  0  0
M  END
