
  xtb     03012221263D
 energy: -7.032768074413 gnorm: 0.000323127798 xtb: 6.4.1 (afa7bdf)
 31 36  0     0  0            999 V2000
   -2.9378    2.2642   -0.0484 C   0  0  0  0  0  0  0  0  0  0  0  0
   -3.5792    1.0508   -0.0903 C   0  0  0  0  0  0  0  0  0  0  0  0
   -2.8397   -0.1430   -0.0896 C   0  0  0  0  0  0  0  0  0  0  0  0
   -3.4232   -1.4491   -0.1314 C   0  0  0  0  0  0  0  0  0  0  0  0
   -2.6627   -2.5871   -0.1290 C   0  0  0  0  0  0  0  0  0  0  0  0
   -1.2587   -2.4957   -0.0843 C   0  0  0  0  0  0  0  0  0  0  0  0
    0.0497   -3.6866   -0.0661 S   0  0  0  0  0  0  0  0  0  0  0  0
    1.3252   -2.4623   -0.0046 C   0  0  0  0  0  0  0  0  0  0  0  0
    2.7311   -2.5178    0.0374 C   0  0  0  0  0  0  0  0  0  0  0  0
    3.4608   -1.3606    0.0810 C   0  0  0  0  0  0  0  0  0  0  0  0
    2.8425   -0.0699    0.0857 C   0  0  0  0  0  0  0  0  0  0  0  0
    3.5498    1.1425    0.1296 C   0  0  0  0  0  0  0  0  0  0  0  0
    2.8762    2.3390    0.1309 C   0  0  0  0  0  0  0  0  0  0  0  0
    1.4844    2.3934    0.0893 C   0  0  0  0  0  0  0  0  0  0  0  0
    0.7230    1.2370    0.0448 C   0  0  0  0  0  0  0  0  0  0  0  0
   -0.7560    1.2179   -0.0008 C   0  0  0  0  0  0  0  0  0  0  0  0
   -1.5480    2.3545   -0.0042 C   0  0  0  0  0  0  0  0  0  0  0  0
   -1.4353   -0.0336   -0.0446 C   0  0  0  0  0  0  0  0  0  0  0  0
   -0.6936   -1.2351   -0.0439 C   0  0  0  0  0  0  0  0  0  0  0  0
    0.7264   -1.2168   -0.0001 C   0  0  0  0  0  0  0  0  0  0  0  0
    1.4356    0.0033    0.0440 C   0  0  0  0  0  0  0  0  0  0  0  0
   -3.5223    3.1697   -0.0497 H   0  0  0  0  0  0  0  0  0  0  0  0
   -4.6535    1.0014   -0.1241 H   0  0  0  0  0  0  0  0  0  0  0  0
   -4.4960   -1.5240   -0.1656 H   0  0  0  0  0  0  0  0  0  0  0  0
   -3.1210   -3.5598   -0.1608 H   0  0  0  0  0  0  0  0  0  0  0  0
    3.2153   -3.4784    0.0346 H   0  0  0  0  0  0  0  0  0  0  0  0
    4.5352   -1.4080    0.1130 H   0  0  0  0  0  0  0  0  0  0  0  0
    4.6251    1.1206    0.1621 H   0  0  0  0  0  0  0  0  0  0  0  0
    3.4361    3.2591    0.1650 H   0  0  0  0  0  0  0  0  0  0  0  0
    0.9954    3.3508    0.0919 H   0  0  0  0  0  0  0  0  0  0  0  0
   -1.0848    3.3241    0.0278 H   0  0  0  0  0  0  0  0  0  0  0  0
  1  2  2  0  0  0  0
  2  3  1  0  0  0  0
  3  4  2  0  0  0  0
  4  5  1  0  0  0  0
  5  6  2  0  0  0  0
  6  7  1  0  0  0  0
  7  8  1  0  0  0  0
  8  9  2  0  0  0  0
  9 10  1  0  0  0  0
 10 11  2  0  0  0  0
 11 12  1  0  0  0  0
 12 13  2  0  0  0  0
 13 14  1  0  0  0  0
 14 15  2  0  0  0  0
 15 16  1  0  0  0  0
 16 17  2  0  0  0  0
 16 18  1  0  0  0  0
 18 19  2  0  0  0  0
 19 20  1  0  0  0  0
 20 21  2  0  0  0  0
 17  1  1  0  0  0  0
 18  3  1  0  0  0  0
 19  6  1  0  0  0  0
 20  8  1  0  0  0  0
 21 11  1  0  0  0  0
 21 15  1  0  0  0  0
  1 22  1  0  0  0  0
  2 23  1  0  0  0  0
  4 24  1  0  0  0  0
  5 25  1  0  0  0  0
  9 26  1  0  0  0  0
 10 27  1  0  0  0  0
 12 28  1  0  0  0  0
 13 29  1  0  0  0  0
 14 30  1  0  0  0  0
 17 31  1  0  0  0  0
M  END
