
  xtb     03012221243D
 energy: -18.026511537872 gnorm: 0.000198605125 xtb: 6.4.1 (afa7bdf)
 96100  0     0  0            999 V2000
  -12.3544    5.4907   -1.1442 C   0  0  0  0  0  0  0  0  0  0  0  0
  -13.1029    4.1812   -1.3353 C   0  0  0  0  0  0  0  0  0  0  0  0
  -12.9526    3.2369   -0.1419 C   0  0  0  0  0  0  0  0  0  0  0  0
  -13.7459    1.9354   -0.2827 C   0  0  0  0  0  0  0  0  0  0  0  0
  -13.3220    1.0664   -1.4646 C   0  0  0  0  0  0  0  0  0  0  0  0
  -11.8628    0.6439   -1.3727 C   0  0  0  0  0  0  0  0  0  0  0  0
  -11.5781    0.0294   -0.1235 O   0  0  0  0  0  0  0  0  0  0  0  0
  -10.2491   -0.3586    0.0533 C   0  0  0  0  0  0  0  0  0  0  0  0
   -9.2330   -0.1975   -0.8957 C   0  0  0  0  0  0  0  0  0  0  0  0
   -7.9517   -0.6163   -0.6362 C   0  0  0  0  0  0  0  0  0  0  0  0
   -7.6170   -1.2164    0.5802 C   0  0  0  0  0  0  0  0  0  0  0  0
   -6.2410   -1.6780    0.8509 C   0  0  0  0  0  0  0  0  0  0  0  0
   -5.1355   -1.0008    0.3333 C   0  0  0  0  0  0  0  0  0  0  0  0
   -3.8568   -1.4375    0.5814 C   0  0  0  0  0  0  0  0  0  0  0  0
   -3.6195   -2.5723    1.3601 C   0  0  0  0  0  0  0  0  0  0  0  0
   -2.2548   -3.0099    1.5953 C   0  0  0  0  0  0  0  0  0  0  0  0
   -1.9018   -4.0506    2.3690 C   0  0  0  0  0  0  0  0  0  0  0  0
   -0.5510   -4.5200    2.6079 C   0  0  0  0  0  0  0  0  0  0  0  0
    0.5483   -3.9333    2.0111 C   0  0  0  0  0  0  0  0  0  0  0  0
    1.8066   -4.4415    2.2702 C   0  0  0  0  0  0  0  0  0  0  0  0
    3.0018   -3.8826    1.6689 C   0  0  0  0  0  0  0  0  0  0  0  0
    3.0665   -2.7667    0.9225 C   0  0  0  0  0  0  0  0  0  0  0  0
    4.2819   -2.2409    0.3248 C   0  0  0  0  0  0  0  0  0  0  0  0
    5.4675   -2.9774    0.2726 C   0  0  0  0  0  0  0  0  0  0  0  0
    6.6003   -2.4542   -0.3022 C   0  0  0  0  0  0  0  0  0  0  0  0
    6.6062   -1.1708   -0.8514 C   0  0  0  0  0  0  0  0  0  0  0  0
    7.8264   -0.6130   -1.4673 C   0  0  0  0  0  0  0  0  0  0  0  0
    9.0953   -0.9656   -1.0009 C   0  0  0  0  0  0  0  0  0  0  0  0
   10.2334   -0.4588   -1.5768 C   0  0  0  0  0  0  0  0  0  0  0  0
   10.1613    0.4381   -2.6485 C   0  0  0  0  0  0  0  0  0  0  0  0
   11.2586    1.0100   -3.2958 O   0  0  0  0  0  0  0  0  0  0  0  0
   12.5183    0.8322   -2.6571 C   0  0  0  0  0  0  0  0  0  0  0  0
   12.6386    1.6356   -1.3696 C   0  0  0  0  0  0  0  0  0  0  0  0
   12.3738    3.1171   -1.6095 C   0  0  0  0  0  0  0  0  0  0  0  0
   12.4071    3.9632   -0.3338 C   0  0  0  0  0  0  0  0  0  0  0  0
   11.2667    3.6506    0.6374 C   0  0  0  0  0  0  0  0  0  0  0  0
   11.2821    4.5446    1.8672 C   0  0  0  0  0  0  0  0  0  0  0  0
    8.8890    0.7852   -3.1166 C   0  0  0  0  0  0  0  0  0  0  0  0
    7.7524    0.2754   -2.5424 C   0  0  0  0  0  0  0  0  0  0  0  0
    5.4195   -0.4370   -0.8028 C   0  0  0  0  0  0  0  0  0  0  0  0
    4.2848   -0.9601   -0.2315 C   0  0  0  0  0  0  0  0  0  0  0  0
    1.9570   -5.4888    3.0865 N   0  0  0  0  0  0  0  0  0  0  0  0
    0.8438   -5.9601    3.6000 C   0  0  0  0  0  0  0  0  0  0  0  0
   -0.3965   -5.5633    3.4287 N   0  0  0  0  0  0  0  0  0  0  0  0
   -4.7257   -3.2500    1.8783 C   0  0  0  0  0  0  0  0  0  0  0  0
   -6.0038   -2.8122    1.6291 C   0  0  0  0  0  0  0  0  0  0  0  0
   -8.6293   -1.3742    1.5296 C   0  0  0  0  0  0  0  0  0  0  0  0
   -9.9100   -0.9560    1.2720 C   0  0  0  0  0  0  0  0  0  0  0  0
  -12.4665    6.1571   -2.0026 H   0  0  0  0  0  0  0  0  0  0  0  0
  -11.2862    5.3172   -1.0006 H   0  0  0  0  0  0  0  0  0  0  0  0
  -12.7141    6.0266   -0.2638 H   0  0  0  0  0  0  0  0  0  0  0  0
  -12.7520    3.6815   -2.2472 H   0  0  0  0  0  0  0  0  0  0  0  0
  -14.1690    4.3770   -1.5102 H   0  0  0  0  0  0  0  0  0  0  0  0
  -11.8917    3.0094    0.0131 H   0  0  0  0  0  0  0  0  0  0  0  0
  -13.2616    3.7641    0.7700 H   0  0  0  0  0  0  0  0  0  0  0  0
  -13.6395    1.3446    0.6369 H   0  0  0  0  0  0  0  0  0  0  0  0
  -14.8155    2.1708   -0.3574 H   0  0  0  0  0  0  0  0  0  0  0  0
  -13.5100    1.5883   -2.4105 H   0  0  0  0  0  0  0  0  0  0  0  0
  -13.9474    0.1652   -1.4978 H   0  0  0  0  0  0  0  0  0  0  0  0
  -11.6063   -0.0662   -2.1677 H   0  0  0  0  0  0  0  0  0  0  0  0
  -11.2032    1.5118   -1.4769 H   0  0  0  0  0  0  0  0  0  0  0  0
   -9.4568    0.2541   -1.8448 H   0  0  0  0  0  0  0  0  0  0  0  0
   -7.1906   -0.5029   -1.3883 H   0  0  0  0  0  0  0  0  0  0  0  0
   -5.2928   -0.1129   -0.2547 H   0  0  0  0  0  0  0  0  0  0  0  0
   -3.0177   -0.9001    0.1742 H   0  0  0  0  0  0  0  0  0  0  0  0
   -1.4841   -2.4453    1.1048 H   0  0  0  0  0  0  0  0  0  0  0  0
   -2.6689   -4.6078    2.8724 H   0  0  0  0  0  0  0  0  0  0  0  0
    0.4260   -3.1054    1.3412 H   0  0  0  0  0  0  0  0  0  0  0  0
    3.9077   -4.4204    1.8758 H   0  0  0  0  0  0  0  0  0  0  0  0
    2.1697   -2.1981    0.7608 H   0  0  0  0  0  0  0  0  0  0  0  0
    5.4915   -3.9763    0.6692 H   0  0  0  0  0  0  0  0  0  0  0  0
    7.4957   -3.0495   -0.3524 H   0  0  0  0  0  0  0  0  0  0  0  0
    9.1760   -1.6370   -0.1642 H   0  0  0  0  0  0  0  0  0  0  0  0
   11.1922   -0.7681   -1.2034 H   0  0  0  0  0  0  0  0  0  0  0  0
   13.2722    1.1671   -3.3787 H   0  0  0  0  0  0  0  0  0  0  0  0
   12.6941   -0.2391   -2.5107 H   0  0  0  0  0  0  0  0  0  0  0  0
   13.6288    1.4978   -0.9178 H   0  0  0  0  0  0  0  0  0  0  0  0
   11.9248    1.2540   -0.6332 H   0  0  0  0  0  0  0  0  0  0  0  0
   13.1032    3.4970   -2.3367 H   0  0  0  0  0  0  0  0  0  0  0  0
   11.3989    3.2299   -2.0996 H   0  0  0  0  0  0  0  0  0  0  0  0
   12.3715    5.0295   -0.5914 H   0  0  0  0  0  0  0  0  0  0  0  0
   13.3688    3.8234    0.1740 H   0  0  0  0  0  0  0  0  0  0  0  0
   11.3175    2.5979    0.9426 H   0  0  0  0  0  0  0  0  0  0  0  0
   10.3073    3.7472    0.1119 H   0  0  0  0  0  0  0  0  0  0  0  0
   11.1913    5.5970    1.5919 H   0  0  0  0  0  0  0  0  0  0  0  0
   10.4645    4.3132    2.5537 H   0  0  0  0  0  0  0  0  0  0  0  0
   12.2164    4.4370    2.4215 H   0  0  0  0  0  0  0  0  0  0  0  0
    8.8248    1.4662   -3.9467 H   0  0  0  0  0  0  0  0  0  0  0  0
    6.7881    0.5440   -2.9364 H   0  0  0  0  0  0  0  0  0  0  0  0
    5.4033    0.5617   -1.2041 H   0  0  0  0  0  0  0  0  0  0  0  0
    3.3808   -0.3766   -0.2006 H   0  0  0  0  0  0  0  0  0  0  0  0
    0.9670   -6.8051    4.2626 H   0  0  0  0  0  0  0  0  0  0  0  0
   -4.5806   -4.1333    2.4733 H   0  0  0  0  0  0  0  0  0  0  0  0
   -6.8421   -3.3626    2.0205 H   0  0  0  0  0  0  0  0  0  0  0  0
   -8.3919   -1.8157    2.4814 H   0  0  0  0  0  0  0  0  0  0  0  0
  -10.6854   -1.0798    2.0071 H   0  0  0  0  0  0  0  0  0  0  0  0
  1  2  1  0  0  0  0
  2  3  1  0  0  0  0
  3  4  1  0  0  0  0
  4  5  1  0  0  0  0
  5  6  1  0  0  0  0
  6  7  1  0  0  0  0
  7  8  1  0  0  0  0
  8  9  2  0  0  0  0
  9 10  1  0  0  0  0
 10 11  2  0  0  0  0
 11 12  1  0  0  0  0
 12 13  2  0  0  0  0
 13 14  1  0  0  0  0
 14 15  2  0  0  0  0
 15 16  1  0  0  0  0
 16 17  2  0  0  0  0
 17 18  1  0  0  0  0
 18 19  2  0  0  0  0
 19 20  1  0  0  0  0
 20 21  1  0  0  0  0
 21 22  2  0  0  0  0
 22 23  1  0  0  0  0
 23 24  2  0  0  0  0
 24 25  1  0  0  0  0
 25 26  2  0  0  0  0
 26 27  1  0  0  0  0
 27 28  2  0  0  0  0
 28 29  1  0  0  0  0
 29 30  2  0  0  0  0
 30 31  1  0  0  0  0
 31 32  1  0  0  0  0
 32 33  1  0  0  0  0
 33 34  1  0  0  0  0
 34 35  1  0  0  0  0
 35 36  1  0  0  0  0
 36 37  1  0  0  0  0
 30 38  1  0  0  0  0
 38 39  2  0  0  0  0
 26 40  1  0  0  0  0
 40 41  2  0  0  0  0
 20 42  2  0  0  0  0
 42 43  1  0  0  0  0
 43 44  2  0  0  0  0
 15 45  1  0  0  0  0
 45 46  2  0  0  0  0
 11 47  1  0  0  0  0
 47 48  2  0  0  0  0
 48  8  1  0  0  0  0
 46 12  1  0  0  0  0
 44 18  1  0  0  0  0
 41 23  1  0  0  0  0
 39 27  1  0  0  0  0
  1 49  1  0  0  0  0
  1 50  1  0  0  0  0
  1 51  1  0  0  0  0
  2 52  1  0  0  0  0
  2 53  1  0  0  0  0
  3 54  1  0  0  0  0
  3 55  1  0  0  0  0
  4 56  1  0  0  0  0
  4 57  1  0  0  0  0
  5 58  1  0  0  0  0
  5 59  1  0  0  0  0
  6 60  1  0  0  0  0
  6 61  1  0  0  0  0
  9 62  1  0  0  0  0
 10 63  1  0  0  0  0
 13 64  1  0  0  0  0
 14 65  1  0  0  0  0
 16 66  1  0  0  0  0
 17 67  1  0  0  0  0
 19 68  1  0  0  0  0
 21 69  1  0  0  0  0
 22 70  1  0  0  0  0
 24 71  1  0  0  0  0
 25 72  1  0  0  0  0
 28 73  1  0  0  0  0
 29 74  1  0  0  0  0
 32 75  1  0  0  0  0
 32 76  1  0  0  0  0
 33 77  1  0  0  0  0
 33 78  1  0  0  0  0
 34 79  1  0  0  0  0
 34 80  1  0  0  0  0
 35 81  1  0  0  0  0
 35 82  1  0  0  0  0
 36 83  1  0  0  0  0
 36 84  1  0  0  0  0
 37 85  1  0  0  0  0
 37 86  1  0  0  0  0
 37 87  1  0  0  0  0
 38 88  1  0  0  0  0
 39 89  1  0  0  0  0
 40 90  1  0  0  0  0
 41 91  1  0  0  0  0
 43 92  1  0  0  0  0
 45 93  1  0  0  0  0
 46 94  1  0  0  0  0
 47 95  1  0  0  0  0
 48 96  1  0  0  0  0
M  END
