
  xtb     03012221323D
 energy: -7.516841784385 gnorm: 0.000135515438 xtb: 6.4.1 (afa7bdf)
 38 41  0     0  0            999 V2000
    6.0579    0.4577    0.2997 C   0  0  0  0  0  0  0  0  0  0  0  0
    4.7031    1.0546   -0.0461 C   0  0  0  0  0  0  0  0  0  0  0  0
    3.5420    0.1187    0.2915 C   0  0  0  0  0  0  0  0  0  0  0  0
    2.1753    0.7156   -0.0567 C   0  0  0  0  0  0  0  0  0  0  0  0
    0.9786   -0.1541    0.2351 C   0  0  0  0  0  0  0  0  0  0  0  0
    1.1175   -1.4053    0.8216 C   0  0  0  0  0  0  0  0  0  0  0  0
    0.0309   -2.2092    1.0925 C   0  0  0  0  0  0  0  0  0  0  0  0
   -1.2604   -1.7902    0.7843 C   0  0  0  0  0  0  0  0  0  0  0  0
   -2.4093   -2.6021    1.0522 C   0  0  0  0  0  0  0  0  0  0  0  0
   -3.6537   -2.1779    0.7443 C   0  0  0  0  0  0  0  0  0  0  0  0
   -3.8705   -0.8994    0.1386 C   0  0  0  0  0  0  0  0  0  0  0  0
   -5.1464   -0.4390   -0.1900 C   0  0  0  0  0  0  0  0  0  0  0  0
   -5.3217    0.7990   -0.7729 C   0  0  0  0  0  0  0  0  0  0  0  0
   -4.2388    1.6096   -1.0436 C   0  0  0  0  0  0  0  0  0  0  0  0
   -2.9425    1.1953   -0.7342 C   0  0  0  0  0  0  0  0  0  0  0  0
   -1.7962    2.0081   -0.9995 C   0  0  0  0  0  0  0  0  0  0  0  0
   -0.5505    1.5853   -0.6930 C   0  0  0  0  0  0  0  0  0  0  0  0
   -0.3146    0.3048   -0.0888 C   0  0  0  0  0  0  0  0  0  0  0  0
   -1.4360   -0.5198    0.1871 C   0  0  0  0  0  0  0  0  0  0  0  0
   -2.7529   -0.0734   -0.1368 C   0  0  0  0  0  0  0  0  0  0  0  0
    6.2296   -0.4731   -0.2444 H   0  0  0  0  0  0  0  0  0  0  0  0
    6.1267    0.2251    1.3642 H   0  0  0  0  0  0  0  0  0  0  0  0
    6.8797    1.1359    0.0581 H   0  0  0  0  0  0  0  0  0  0  0  0
    4.6641    1.3112   -1.1134 H   0  0  0  0  0  0  0  0  0  0  0  0
    4.5646    2.0090    0.4796 H   0  0  0  0  0  0  0  0  0  0  0  0
    3.5763   -0.1314    1.3586 H   0  0  0  0  0  0  0  0  0  0  0  0
    3.6760   -0.8323   -0.2378 H   0  0  0  0  0  0  0  0  0  0  0  0
    2.0558    1.6649    0.4783 H   0  0  0  0  0  0  0  0  0  0  0  0
    2.1659    0.9755   -1.1216 H   0  0  0  0  0  0  0  0  0  0  0  0
    2.0995   -1.7640    1.0740 H   0  0  0  0  0  0  0  0  0  0  0  0
    0.1721   -3.1747    1.5475 H   0  0  0  0  0  0  0  0  0  0  0  0
   -2.2619   -3.5662    1.5077 H   0  0  0  0  0  0  0  0  0  0  0  0
   -4.5069   -2.8003    0.9519 H   0  0  0  0  0  0  0  0  0  0  0  0
   -5.9972   -1.0648    0.0177 H   0  0  0  0  0  0  0  0  0  0  0  0
   -6.3152    1.1363   -1.0194 H   0  0  0  0  0  0  0  0  0  0  0  0
   -4.3849    2.5742   -1.4984 H   0  0  0  0  0  0  0  0  0  0  0  0
   -1.9457    2.9731   -1.4522 H   0  0  0  0  0  0  0  0  0  0  0  0
    0.2895    2.2230   -0.9045 H   0  0  0  0  0  0  0  0  0  0  0  0
  1  2  1  0  0  0  0
  2  3  1  0  0  0  0
  3  4  1  0  0  0  0
  4  5  1  0  0  0  0
  5  6  2  0  0  0  0
  6  7  1  0  0  0  0
  7  8  2  0  0  0  0
  8  9  1  0  0  0  0
  9 10  2  0  0  0  0
 10 11  1  0  0  0  0
 11 12  2  0  0  0  0
 12 13  1  0  0  0  0
 13 14  2  0  0  0  0
 14 15  1  0  0  0  0
 15 16  2  0  0  0  0
 16 17  1  0  0  0  0
 17 18  2  0  0  0  0
 18 19  1  0  0  0  0
 19 20  2  0  0  0  0
 18  5  1  0  0  0  0
 19  8  1  0  0  0  0
 20 11  1  0  0  0  0
 20 15  1  0  0  0  0
  1 21  1  0  0  0  0
  1 22  1  0  0  0  0
  1 23  1  0  0  0  0
  2 24  1  0  0  0  0
  2 25  1  0  0  0  0
  3 26  1  0  0  0  0
  3 27  1  0  0  0  0
  4 28  1  0  0  0  0
  4 29  1  0  0  0  0
  6 30  1  0  0  0  0
  7 31  1  0  0  0  0
  9 32  1  0  0  0  0
 10 33  1  0  0  0  0
 12 34  1  0  0  0  0
 13 35  1  0  0  0  0
 14 36  1  0  0  0  0
 16 37  1  0  0  0  0
 17 38  1  0  0  0  0
M  END
