
  xtb     03012221293D
 energy: -10.038136442060 gnorm: 0.000102379554 xtb: 6.4.1 (afa7bdf)
 52 56  0     0  0            999 V2000
   -5.5880   -0.2594    1.8528 C   0  0  0  0  0  0  0  0  0  0  0  0
   -4.8575   -1.3325    1.0618 C   0  0  0  0  0  0  0  0  0  0  0  0
   -3.6761   -0.7932    0.3190 C   0  0  0  0  0  0  0  0  0  0  0  0
   -3.7054   -0.0976   -0.8879 C   0  0  0  0  0  0  0  0  0  0  0  0
   -4.9184    0.2026   -1.6870 C   0  0  0  0  0  0  0  0  0  0  0  0
   -2.3614    0.2984   -1.1866 C   0  0  0  0  0  0  0  0  0  0  0  0
   -1.5990   -0.1986   -0.1304 N   0  0  0  0  0  0  0  0  0  0  0  0
   -2.3361   -0.8329    0.7855 C   0  0  0  0  0  0  0  0  0  0  0  0
   -1.8265   -1.4105    2.0418 C   0  0  0  0  0  0  0  0  0  0  0  0
   -0.1121    0.1129    0.0416 B   0  0  0  0  0  4  0  0  0  0  0  0
    0.5384   -1.0756    0.3571 F   0  0  0  0  0  0  0  0  0  0  0  0
   -0.0301    1.0672    1.0540 F   0  0  0  0  0  0  0  0  0  0  0  0
    0.4830    0.6958   -1.2510 N   0  0  0  0  0  4  0  0  0  0  0  0
    1.8077    0.8874   -1.6243 C   0  0  0  0  0  0  0  0  0  0  0  0
    3.0538    0.5649   -1.0542 C   0  0  0  0  0  0  0  0  0  0  0  0
    3.4220    0.1893    0.2301 C   0  0  0  0  0  0  0  0  0  0  0  0
    2.6488    0.1386    1.4330 C   0  0  0  0  0  0  0  0  0  0  0  0
    3.4252   -0.2367    2.4783 C   0  0  0  0  0  0  0  0  0  0  0  0
    4.7662   -0.4395    1.9997 C   0  0  0  0  0  0  0  0  0  0  0  0
    5.9338   -0.8167    2.6550 C   0  0  0  0  0  0  0  0  0  0  0  0
    7.0995   -0.9246    1.9234 C   0  0  0  0  0  0  0  0  0  0  0  0
    7.1112   -0.6630    0.5588 C   0  0  0  0  0  0  0  0  0  0  0  0
    5.9597   -0.2883   -0.1045 C   0  0  0  0  0  0  0  0  0  0  0  0
    4.7770   -0.1742    0.6187 C   0  0  0  0  0  0  0  0  0  0  0  0
    1.7353    1.4681   -2.9352 C   0  0  0  0  0  0  0  0  0  0  0  0
    0.4363    1.6207   -3.2977 C   0  0  0  0  0  0  0  0  0  0  0  0
   -0.3886    1.1176   -2.2425 C   0  0  0  0  0  0  0  0  0  0  0  0
   -1.7864    0.9993   -2.2407 C   0  0  0  0  0  0  0  0  0  0  0  0
   -2.5997    1.5293   -3.3651 C   0  0  0  0  0  0  0  0  0  0  0  0
   -4.9238    0.2115    2.5793 H   0  0  0  0  0  0  0  0  0  0  0  0
   -6.4443   -0.6612    2.3984 H   0  0  0  0  0  0  0  0  0  0  0  0
   -5.9554    0.5315    1.1970 H   0  0  0  0  0  0  0  0  0  0  0  0
   -5.5372   -1.8209    0.3536 H   0  0  0  0  0  0  0  0  0  0  0  0
   -4.5211   -2.1338    1.7306 H   0  0  0  0  0  0  0  0  0  0  0  0
   -4.7642   -0.0385   -2.7387 H   0  0  0  0  0  0  0  0  0  0  0  0
   -5.1844    1.2570   -1.6089 H   0  0  0  0  0  0  0  0  0  0  0  0
   -5.7741   -0.3785   -1.3441 H   0  0  0  0  0  0  0  0  0  0  0  0
   -0.7611   -1.2021    2.1446 H   0  0  0  0  0  0  0  0  0  0  0  0
   -1.9614   -2.4922    2.0571 H   0  0  0  0  0  0  0  0  0  0  0  0
   -2.3388   -0.9844    2.9046 H   0  0  0  0  0  0  0  0  0  0  0  0
    3.8791    0.6501   -1.7407 H   0  0  0  0  0  0  0  0  0  0  0  0
    1.6050    0.3721    1.4890 H   0  0  0  0  0  0  0  0  0  0  0  0
    3.1033   -0.3594    3.4984 H   0  0  0  0  0  0  0  0  0  0  0  0
    5.9144   -1.0166    3.7127 H   0  0  0  0  0  0  0  0  0  0  0  0
    8.0118   -1.2152    2.4172 H   0  0  0  0  0  0  0  0  0  0  0  0
    8.0343   -0.7544    0.0084 H   0  0  0  0  0  0  0  0  0  0  0  0
    5.9684   -0.0892   -1.1613 H   0  0  0  0  0  0  0  0  0  0  0  0
    2.5879    1.7399   -3.5347 H   0  0  0  0  0  0  0  0  0  0  0  0
    0.0901    2.0141   -4.2376 H   0  0  0  0  0  0  0  0  0  0  0  0
   -3.5130    1.9990   -3.0014 H   0  0  0  0  0  0  0  0  0  0  0  0
   -2.0561    2.2896   -3.9254 H   0  0  0  0  0  0  0  0  0  0  0  0
   -2.8719    0.7328   -4.0582 H   0  0  0  0  0  0  0  0  0  0  0  0
  1  2  1  0  0  0  0
  2  3  1  0  0  0  0
  3  4  1  0  0  0  0
  4  5  1  0  0  0  0
  4  6  2  0  0  0  0
  6  7  1  0  0  0  0
  7  8  1  0  0  0  0
  8  9  1  0  0  0  0
  7 10  1  0  0  0  0
 10 11  1  0  0  0  0
 10 12  1  0  0  0  0
 10 13  1  0  0  0  0
 13 14  2  0  0  0  0
 14 15  1  0  0  0  0
 15 16  2  0  0  0  0
 16 17  1  0  0  0  0
 17 18  2  0  0  0  0
 18 19  1  0  0  0  0
 19 20  2  0  0  0  0
 20 21  1  0  0  0  0
 21 22  2  0  0  0  0
 22 23  1  0  0  0  0
 23 24  2  0  0  0  0
 14 25  1  0  0  0  0
 25 26  2  0  0  0  0
 26 27  1  0  0  0  0
 27 28  2  0  0  0  0
 28 29  1  0  0  0  0
  8  3  2  0  0  0  0
 27 13  1  0  0  0  0
 28  6  1  0  0  0  0
 24 16  1  0  0  0  0
 24 19  1  0  0  0  0
  1 30  1  0  0  0  0
  1 31  1  0  0  0  0
  1 32  1  0  0  0  0
  2 33  1  0  0  0  0
  2 34  1  0  0  0  0
  5 35  1  0  0  0  0
  5 36  1  0  0  0  0
  5 37  1  0  0  0  0
  9 38  1  0  0  0  0
  9 39  1  0  0  0  0
  9 40  1  0  0  0  0
 15 41  1  0  0  0  0
 17 42  1  0  0  0  0
 18 43  1  0  0  0  0
 20 44  1  0  0  0  0
 21 45  1  0  0  0  0
 22 46  1  0  0  0  0
 23 47  1  0  0  0  0
 25 48  1  0  0  0  0
 26 49  1  0  0  0  0
 29 50  1  0  0  0  0
 29 51  1  0  0  0  0
 29 52  1  0  0  0  0
M  CHG  1  10  -1
M  CHG  1  13   1
M  END
