
  xtb     03012221273D
 energy: -3.567240696401 gnorm: 0.000243764271 xtb: 6.4.1 (afa7bdf)
 18 19  0     0  0            999 V2000
    4.1556    0.5001    2.0280 O   0  0  0  0  0  0  0  0  0  0  0  0
    3.9229    0.1726    0.8950 C   0  0  0  0  0  0  0  0  0  0  0  0
    2.6070    0.0345    0.3218 C   0  0  0  0  0  0  0  0  0  0  0  0
    2.3111   -0.3347   -0.9584 C   0  0  0  0  0  0  0  0  0  0  0  0
    0.9260   -0.3817   -1.2269 C   0  0  0  0  0  0  0  0  0  0  0  0
    0.1406   -0.0495   -0.1575 C   0  0  0  0  0  0  0  0  0  0  0  0
   -1.2990   -0.0137   -0.1485 C   0  0  0  0  0  0  0  0  0  0  0  0
   -2.0815    0.3179    0.9191 C   0  0  0  0  0  0  0  0  0  0  0  0
   -3.4737    0.2694    0.6448 C   0  0  0  0  0  0  0  0  0  0  0  0
   -3.7597   -0.0966   -0.6236 C   0  0  0  0  0  0  0  0  0  0  0  0
   -2.3136   -0.3924   -1.5172 S   0  0  0  0  0  0  0  0  0  0  0  0
    1.1475    0.3291    1.2104 S   0  0  0  0  0  0  0  0  0  0  0  0
    4.7799   -0.0315    0.2675 H   0  0  0  0  0  0  0  0  0  0  0  0
    3.0680   -0.5675   -1.6916 H   0  0  0  0  0  0  0  0  0  0  0  0
    0.5150   -0.6541   -2.1865 H   0  0  0  0  0  0  0  0  0  0  0  0
   -1.6719    0.5905    1.8793 H   0  0  0  0  0  0  0  0  0  0  0  0
   -4.2285    0.5034    1.3824 H   0  0  0  0  0  0  0  0  0  0  0  0
   -4.7456   -0.1956   -1.0378 H   0  0  0  0  0  0  0  0  0  0  0  0
  1  2  2  0  0  0  0
  2  3  1  0  0  0  0
  3  4  2  0  0  0  0
  4  5  1  0  0  0  0
  5  6  2  0  0  0  0
  6  7  1  0  0  0  0
  7  8  2  0  0  0  0
  8  9  1  0  0  0  0
  9 10  2  0  0  0  0
 10 11  1  0  0  0  0
  6 12  1  0  0  0  0
 12  3  1  0  0  0  0
 11  7  1  0  0  0  0
  2 13  1  0  0  0  0
  4 14  1  0  0  0  0
  5 15  1  0  0  0  0
  8 16  1  0  0  0  0
  9 17  1  0  0  0  0
 10 18  1  0  0  0  0
M  END
