
  xtb     03012221233D
 energy: -16.695327698512 gnorm: 0.000214027833 xtb: 6.4.1 (afa7bdf)
 88 92  0     0  0            999 V2000
   -8.4535    2.9830    0.3191 C   0  0  0  0  0  0  0  0  0  0  0  0
   -9.3475    2.3240    1.3572 C   0  0  0  0  0  0  0  0  0  0  0  0
   -8.8207    0.9675    1.8413 C   0  0  0  0  0  0  0  0  0  0  0  0
   -9.0536   -0.1711    0.8513 C   0  0  0  0  0  0  0  0  0  0  0  0
   -8.3889    0.0233   -0.4518 N   0  0  0  0  0  0  0  0  0  0  0  0
   -9.2731    0.0576   -1.6362 C   0  0  0  0  0  0  0  0  0  0  0  0
   -9.1465   -1.2005   -2.4874 C   0  0  0  0  0  0  0  0  0  0  0  0
   -9.5045   -2.4806   -1.7294 C   0  0  0  0  0  0  0  0  0  0  0  0
  -10.9813   -2.5808   -1.3799 C   0  0  0  0  0  0  0  0  0  0  0  0
   -6.9881    0.0395   -0.5759 C   0  0  0  0  0  0  0  0  0  0  0  0
   -6.1580   -0.3630    0.4783 C   0  0  0  0  0  0  0  0  0  0  0  0
   -4.7916   -0.3244    0.3643 C   0  0  0  0  0  0  0  0  0  0  0  0
   -4.1773    0.1164   -0.8127 C   0  0  0  0  0  0  0  0  0  0  0  0
   -2.7386    0.1827   -0.9687 C   0  0  0  0  0  0  0  0  0  0  0  0
   -1.8376   -0.0674   -0.0021 C   0  0  0  0  0  0  0  0  0  0  0  0
   -0.3976    0.0078   -0.1550 C   0  0  0  0  0  0  0  0  0  0  0  0
    0.2232    0.2622   -1.3970 C   0  0  0  0  0  0  0  0  0  0  0  0
    1.5789    0.3290   -1.5020 C   0  0  0  0  0  0  0  0  0  0  0  0
    2.4142    0.1492   -0.3797 C   0  0  0  0  0  0  0  0  0  0  0  0
    3.7498    0.2068   -0.5338 N   0  0  0  0  0  0  0  0  0  0  0  0
    4.4531    0.0274    0.5683 C   0  0  0  0  0  0  0  0  0  0  0  0
    5.8886    0.0022    0.4487 C   0  0  0  0  0  0  0  0  0  0  0  0
    6.5182    0.2093   -0.7204 C   0  0  0  0  0  0  0  0  0  0  0  0
    7.9493    0.1898   -0.9238 C   0  0  0  0  0  0  0  0  0  0  0  0
    8.4685    0.3964   -2.2066 C   0  0  0  0  0  0  0  0  0  0  0  0
    9.8202    0.3820   -2.4351 C   0  0  0  0  0  0  0  0  0  0  0  0
   10.7280    0.1602   -1.3923 C   0  0  0  0  0  0  0  0  0  0  0  0
   12.1113    0.1416   -1.6255 N   0  0  0  0  0  0  0  0  0  0  0  0
   12.6654    0.3572   -2.9625 C   0  0  0  0  0  0  0  0  0  0  0  0
   13.0667   -0.1027   -0.5444 C   0  0  0  0  0  0  0  0  0  0  0  0
   10.2072   -0.0435   -0.1085 C   0  0  0  0  0  0  0  0  0  0  0  0
    8.8553   -0.0289    0.1204 C   0  0  0  0  0  0  0  0  0  0  0  0
    3.8423   -0.1782    1.8473 C   0  0  0  0  0  0  0  0  0  0  0  0
    4.6772   -0.3111    3.0647 C   0  0  0  0  0  0  0  0  0  0  0  0
    5.6217    0.6551    3.4129 C   0  0  0  0  0  0  0  0  0  0  0  0
    6.3784    0.5176    4.5548 C   0  0  0  0  0  0  0  0  0  0  0  0
    6.1989   -0.5767    5.3775 C   0  0  0  0  0  0  0  0  0  0  0  0
    5.2533   -1.5311    5.0588 C   0  0  0  0  0  0  0  0  0  0  0  0
    4.4955   -1.3983    3.9168 C   0  0  0  0  0  0  0  0  0  0  0  0
    2.5413   -0.2729    2.0022 N   0  0  0  0  0  0  0  0  0  0  0  0
    1.8121   -0.1067    0.8756 C   0  0  0  0  0  0  0  0  0  0  0  0
    0.4127   -0.1734    0.9503 C   0  0  0  0  0  0  0  0  0  0  0  0
   -5.0041    0.5061   -1.8714 C   0  0  0  0  0  0  0  0  0  0  0  0
   -6.3700    0.4694   -1.7573 C   0  0  0  0  0  0  0  0  0  0  0  0
   -8.3507    2.3624   -0.5700 H   0  0  0  0  0  0  0  0  0  0  0  0
   -8.8415    3.9520   -0.0029 H   0  0  0  0  0  0  0  0  0  0  0  0
   -7.4476    3.1454    0.7107 H   0  0  0  0  0  0  0  0  0  0  0  0
   -9.4633    3.0030    2.2141 H   0  0  0  0  0  0  0  0  0  0  0  0
  -10.3621    2.1950    0.9580 H   0  0  0  0  0  0  0  0  0  0  0  0
   -7.7507    1.0613    2.0579 H   0  0  0  0  0  0  0  0  0  0  0  0
   -9.2867    0.7091    2.8025 H   0  0  0  0  0  0  0  0  0  0  0  0
   -8.7196   -1.1285    1.2630 H   0  0  0  0  0  0  0  0  0  0  0  0
  -10.1275   -0.2887    0.6849 H   0  0  0  0  0  0  0  0  0  0  0  0
  -10.3066    0.1918   -1.3072 H   0  0  0  0  0  0  0  0  0  0  0  0
   -9.0435    0.9536   -2.2203 H   0  0  0  0  0  0  0  0  0  0  0  0
   -8.1177   -1.2735   -2.8619 H   0  0  0  0  0  0  0  0  0  0  0  0
   -9.7770   -1.1177   -3.3819 H   0  0  0  0  0  0  0  0  0  0  0  0
   -9.2098   -3.3570   -2.3238 H   0  0  0  0  0  0  0  0  0  0  0  0
   -8.8964   -2.5386   -0.8175 H   0  0  0  0  0  0  0  0  0  0  0  0
  -11.6019   -2.5391   -2.2769 H   0  0  0  0  0  0  0  0  0  0  0  0
  -11.2998   -1.7632   -0.7324 H   0  0  0  0  0  0  0  0  0  0  0  0
  -11.2168   -3.5135   -0.8621 H   0  0  0  0  0  0  0  0  0  0  0  0
   -6.6003   -0.7290    1.3876 H   0  0  0  0  0  0  0  0  0  0  0  0
   -4.1854   -0.6476    1.1914 H   0  0  0  0  0  0  0  0  0  0  0  0
   -2.3827    0.4751   -1.9394 H   0  0  0  0  0  0  0  0  0  0  0  0
   -2.1942   -0.3297    0.9766 H   0  0  0  0  0  0  0  0  0  0  0  0
   -0.3818    0.3973   -2.2757 H   0  0  0  0  0  0  0  0  0  0  0  0
    2.0450    0.5190   -2.4527 H   0  0  0  0  0  0  0  0  0  0  0  0
    6.4642   -0.2177    1.3261 H   0  0  0  0  0  0  0  0  0  0  0  0
    5.9047    0.4038   -1.5818 H   0  0  0  0  0  0  0  0  0  0  0  0
    7.7871    0.5676   -3.0223 H   0  0  0  0  0  0  0  0  0  0  0  0
   10.1915    0.5425   -3.4315 H   0  0  0  0  0  0  0  0  0  0  0  0
   12.3013   -0.4083   -3.6452 H   0  0  0  0  0  0  0  0  0  0  0  0
   12.3708    1.3366   -3.3351 H   0  0  0  0  0  0  0  0  0  0  0  0
   13.7524    0.3121   -2.9512 H   0  0  0  0  0  0  0  0  0  0  0  0
   12.9713    0.6671    0.2191 H   0  0  0  0  0  0  0  0  0  0  0  0
   12.8802   -1.0761   -0.0946 H   0  0  0  0  0  0  0  0  0  0  0  0
   14.0906   -0.0904   -0.9123 H   0  0  0  0  0  0  0  0  0  0  0  0
   10.8816   -0.2137    0.7116 H   0  0  0  0  0  0  0  0  0  0  0  0
    8.4878   -0.1851    1.1188 H   0  0  0  0  0  0  0  0  0  0  0  0
    5.7418    1.5195    2.7826 H   0  0  0  0  0  0  0  0  0  0  0  0
    7.1083    1.2688    4.8099 H   0  0  0  0  0  0  0  0  0  0  0  0
    6.7911   -0.6819    6.2717 H   0  0  0  0  0  0  0  0  0  0  0  0
    5.1060   -2.3803    5.7062 H   0  0  0  0  0  0  0  0  0  0  0  0
    3.7501   -2.1330    3.6656 H   0  0  0  0  0  0  0  0  0  0  0  0
   -0.0328   -0.3655    1.9095 H   0  0  0  0  0  0  0  0  0  0  0  0
   -4.5510    0.8477   -2.7865 H   0  0  0  0  0  0  0  0  0  0  0  0
   -6.9770    0.7951   -2.5831 H   0  0  0  0  0  0  0  0  0  0  0  0
  1  2  1  0  0  0  0
  2  3  1  0  0  0  0
  3  4  1  0  0  0  0
  4  5  1  0  0  0  0
  5  6  1  0  0  0  0
  6  7  1  0  0  0  0
  7  8  1  0  0  0  0
  8  9  1  0  0  0  0
  5 10  1  0  0  0  0
 10 11  2  0  0  0  0
 11 12  1  0  0  0  0
 12 13  2  0  0  0  0
 13 14  1  0  0  0  0
 14 15  2  0  0  0  0
 15 16  1  0  0  0  0
 16 17  2  0  0  0  0
 17 18  1  0  0  0  0
 18 19  2  0  0  0  0
 19 20  1  0  0  0  0
 20 21  2  0  0  0  0
 21 22  1  0  0  0  0
 22 23  2  0  0  0  0
 23 24  1  0  0  0  0
 24 25  2  0  0  0  0
 25 26  1  0  0  0  0
 26 27  2  0  0  0  0
 27 28  1  0  0  0  0
 28 29  1  0  0  0  0
 28 30  1  0  0  0  0
 27 31  1  0  0  0  0
 31 32  2  0  0  0  0
 21 33  1  0  0  0  0
 33 34  1  0  0  0  0
 34 35  2  0  0  0  0
 35 36  1  0  0  0  0
 36 37  2  0  0  0  0
 37 38  1  0  0  0  0
 38 39  2  0  0  0  0
 33 40  2  0  0  0  0
 40 41  1  0  0  0  0
 41 42  2  0  0  0  0
 13 43  1  0  0  0  0
 43 44  2  0  0  0  0
 44 10  1  0  0  0  0
 42 16  1  0  0  0  0
 41 19  1  0  0  0  0
 32 24  1  0  0  0  0
 39 34  1  0  0  0  0
  1 45  1  0  0  0  0
  1 46  1  0  0  0  0
  1 47  1  0  0  0  0
  2 48  1  0  0  0  0
  2 49  1  0  0  0  0
  3 50  1  0  0  0  0
  3 51  1  0  0  0  0
  4 52  1  0  0  0  0
  4 53  1  0  0  0  0
  6 54  1  0  0  0  0
  6 55  1  0  0  0  0
  7 56  1  0  0  0  0
  7 57  1  0  0  0  0
  8 58  1  0  0  0  0
  8 59  1  0  0  0  0
  9 60  1  0  0  0  0
  9 61  1  0  0  0  0
  9 62  1  0  0  0  0
 11 63  1  0  0  0  0
 12 64  1  0  0  0  0
 14 65  1  0  0  0  0
 15 66  1  0  0  0  0
 17 67  1  0  0  0  0
 18 68  1  0  0  0  0
 22 69  1  0  0  0  0
 23 70  1  0  0  0  0
 25 71  1  0  0  0  0
 26 72  1  0  0  0  0
 29 73  1  0  0  0  0
 29 74  1  0  0  0  0
 29 75  1  0  0  0  0
 30 76  1  0  0  0  0
 30 77  1  0  0  0  0
 30 78  1  0  0  0  0
 31 79  1  0  0  0  0
 32 80  1  0  0  0  0
 35 81  1  0  0  0  0
 36 82  1  0  0  0  0
 37 83  1  0  0  0  0
 38 84  1  0  0  0  0
 39 85  1  0  0  0  0
 42 86  1  0  0  0  0
 43 87  1  0  0  0  0
 44 88  1  0  0  0  0
M  END
