
  xtb     03012221303D
 energy: -14.162891495590 gnorm: 0.000229444124 xtb: 6.4.1 (afa7bdf)
 68 72  0     0  0            999 V2000
    2.2913    2.2986    0.5473 N   0  0  0  0  0  0  0  0  0  0  0  0
    1.4109    1.8295   -0.0506 C   0  0  0  0  0  0  0  0  0  0  0  0
    0.3883    1.2498   -0.8084 C   0  0  0  0  0  0  0  0  0  0  0  0
   -0.8683    1.5371   -0.5172 N   0  0  0  0  0  0  0  0  0  0  0  0
   -1.7748    0.9398   -1.2849 C   0  0  0  0  0  0  0  0  0  0  0  0
   -3.1341    1.0762   -0.8882 N   0  0  0  0  0  0  0  0  0  0  0  0
   -3.4457    2.1167    0.1030 C   0  0  0  0  0  0  0  0  0  0  0  0
   -3.4100    1.6179    1.5052 C   0  0  0  0  0  0  0  0  0  0  0  0
   -2.2721    1.0360    2.0316 C   0  0  0  0  0  0  0  0  0  0  0  0
   -2.2657    0.5179    3.3064 C   0  0  0  0  0  0  0  0  0  0  0  0
   -3.4073    0.5803    4.0757 C   0  0  0  0  0  0  0  0  0  0  0  0
   -4.5456    1.1691    3.5705 C   0  0  0  0  0  0  0  0  0  0  0  0
   -4.5553    1.6961    2.2927 C   0  0  0  0  0  0  0  0  0  0  0  0
   -5.6601    2.3142    1.8118 F   0  0  0  0  0  0  0  0  0  0  0  0
   -4.0856   -0.0586   -0.9139 C   0  0  0  0  0  0  0  0  0  0  0  0
   -3.7780   -1.1175    0.0867 C   0  0  0  0  0  0  0  0  0  0  0  0
   -2.5295   -1.7071    0.1659 C   0  0  0  0  0  0  0  0  0  0  0  0
   -2.2689   -2.6834    1.1006 C   0  0  0  0  0  0  0  0  0  0  0  0
   -3.2548   -3.0879    1.9726 C   0  0  0  0  0  0  0  0  0  0  0  0
   -4.5039   -2.5136    1.9036 C   0  0  0  0  0  0  0  0  0  0  0  0
   -4.7749   -1.5349    0.9659 C   0  0  0  0  0  0  0  0  0  0  0  0
   -6.0083   -0.9809    0.8970 F   0  0  0  0  0  0  0  0  0  0  0  0
   -1.4063    0.1618   -2.4028 C   0  0  0  0  0  0  0  0  0  0  0  0
   -2.3947   -0.3133   -3.2704 C   0  0  0  0  0  0  0  0  0  0  0  0
   -3.2465   -0.7031   -3.9599 N   0  0  0  0  0  0  0  0  0  0  0  0
   -0.1495   -0.1641   -2.6661 N   0  0  0  0  0  0  0  0  0  0  0  0
    0.7445    0.3547   -1.8323 C   0  0  0  0  0  0  0  0  0  0  0  0
    2.1183   -0.0481   -1.9669 N   0  0  0  0  0  0  0  0  0  0  0  0
    2.8870    0.3843   -3.1440 C   0  0  0  0  0  0  0  0  0  0  0  0
    4.2729    0.7920   -2.7911 C   0  0  0  0  0  0  0  0  0  0  0  0
    4.5220    1.6208   -1.7139 C   0  0  0  0  0  0  0  0  0  0  0  0
    5.8093    1.9925   -1.3958 C   0  0  0  0  0  0  0  0  0  0  0  0
    6.8646    1.5366   -2.1559 C   0  0  0  0  0  0  0  0  0  0  0  0
    6.6302    0.7048   -3.2284 C   0  0  0  0  0  0  0  0  0  0  0  0
    5.3413    0.3239   -3.5505 C   0  0  0  0  0  0  0  0  0  0  0  0
    5.1108   -0.5285   -4.5773 F   0  0  0  0  0  0  0  0  0  0  0  0
    2.5447   -1.3167   -1.3493 C   0  0  0  0  0  0  0  0  0  0  0  0
    2.5273   -1.2353    0.1349 C   0  0  0  0  0  0  0  0  0  0  0  0
    3.5427   -0.6013    0.8271 C   0  0  0  0  0  0  0  0  0  0  0  0
    3.4659   -0.4344    2.1925 C   0  0  0  0  0  0  0  0  0  0  0  0
    2.3660   -0.8968    2.8818 C   0  0  0  0  0  0  0  0  0  0  0  0
    1.3462   -1.5268    2.2045 C   0  0  0  0  0  0  0  0  0  0  0  0
    1.4160   -1.6984    0.8347 C   0  0  0  0  0  0  0  0  0  0  0  0
    0.4129   -2.3178    0.1709 F   0  0  0  0  0  0  0  0  0  0  0  0
   -4.4349    2.5242   -0.1208 H   0  0  0  0  0  0  0  0  0  0  0  0
   -2.7296    2.9328   -0.0199 H   0  0  0  0  0  0  0  0  0  0  0  0
   -1.3895    0.9779    1.4206 H   0  0  0  0  0  0  0  0  0  0  0  0
   -1.3717    0.0605    3.6977 H   0  0  0  0  0  0  0  0  0  0  0  0
   -3.4093    0.1721    5.0725 H   0  0  0  0  0  0  0  0  0  0  0  0
   -5.4466    1.2291    4.1559 H   0  0  0  0  0  0  0  0  0  0  0  0
   -5.0874    0.3340   -0.7215 H   0  0  0  0  0  0  0  0  0  0  0  0
   -4.1154   -0.4961   -1.9121 H   0  0  0  0  0  0  0  0  0  0  0  0
   -1.7458   -1.3940   -0.5027 H   0  0  0  0  0  0  0  0  0  0  0  0
   -1.2888   -3.1286    1.1433 H   0  0  0  0  0  0  0  0  0  0  0  0
   -3.0513   -3.8537    2.7023 H   0  0  0  0  0  0  0  0  0  0  0  0
   -5.2918   -2.8176    2.5704 H   0  0  0  0  0  0  0  0  0  0  0  0
    2.3607    1.2171   -3.6155 H   0  0  0  0  0  0  0  0  0  0  0  0
    2.9076   -0.4331   -3.8685 H   0  0  0  0  0  0  0  0  0  0  0  0
    3.6965    1.9486   -1.1043 H   0  0  0  0  0  0  0  0  0  0  0  0
    5.9885    2.6383   -0.5514 H   0  0  0  0  0  0  0  0  0  0  0  0
    7.8722    1.8283   -1.9108 H   0  0  0  0  0  0  0  0  0  0  0  0
    7.4411    0.3348   -3.8313 H   0  0  0  0  0  0  0  0  0  0  0  0
    3.5437   -1.5777   -1.7048 H   0  0  0  0  0  0  0  0  0  0  0  0
    1.8620   -2.1011   -1.6859 H   0  0  0  0  0  0  0  0  0  0  0  0
    4.3812   -0.2055    0.2797 H   0  0  0  0  0  0  0  0  0  0  0  0
    4.2567    0.0767    2.7172 H   0  0  0  0  0  0  0  0  0  0  0  0
    2.3006   -0.7594    3.9481 H   0  0  0  0  0  0  0  0  0  0  0  0
    0.4784   -1.8897    2.7264 H   0  0  0  0  0  0  0  0  0  0  0  0
  1  2  3  0  0  0  0
  2  3  1  0  0  0  0
  3  4  2  0  0  0  0
  4  5  1  0  0  0  0
  5  6  1  0  0  0  0
  6  7  1  0  0  0  0
  7  8  1  0  0  0  0
  8  9  2  0  0  0  0
  9 10  1  0  0  0  0
 10 11  2  0  0  0  0
 11 12  1  0  0  0  0
 12 13  2  0  0  0  0
 13 14  1  0  0  0  0
  6 15  1  0  0  0  0
 15 16  1  0  0  0  0
 16 17  2  0  0  0  0
 17 18  1  0  0  0  0
 18 19  2  0  0  0  0
 19 20  1  0  0  0  0
 20 21  2  0  0  0  0
 21 22  1  0  0  0  0
  5 23  2  0  0  0  0
 23 24  1  0  0  0  0
 24 25  3  0  0  0  0
 23 26  1  0  0  0  0
 26 27  2  0  0  0  0
 27 28  1  0  0  0  0
 28 29  1  0  0  0  0
 29 30  1  0  0  0  0
 30 31  2  0  0  0  0
 31 32  1  0  0  0  0
 32 33  2  0  0  0  0
 33 34  1  0  0  0  0
 34 35  2  0  0  0  0
 35 36  1  0  0  0  0
 28 37  1  0  0  0  0
 37 38  1  0  0  0  0
 38 39  2  0  0  0  0
 39 40  1  0  0  0  0
 40 41  2  0  0  0  0
 41 42  1  0  0  0  0
 42 43  2  0  0  0  0
 43 44  1  0  0  0  0
 27  3  1  0  0  0  0
 35 30  1  0  0  0  0
 43 38  1  0  0  0  0
 13  8  1  0  0  0  0
 21 16  1  0  0  0  0
  7 45  1  0  0  0  0
  7 46  1  0  0  0  0
  9 47  1  0  0  0  0
 10 48  1  0  0  0  0
 11 49  1  0  0  0  0
 12 50  1  0  0  0  0
 15 51  1  0  0  0  0
 15 52  1  0  0  0  0
 17 53  1  0  0  0  0
 18 54  1  0  0  0  0
 19 55  1  0  0  0  0
 20 56  1  0  0  0  0
 29 57  1  0  0  0  0
 29 58  1  0  0  0  0
 31 59  1  0  0  0  0
 32 60  1  0  0  0  0
 33 61  1  0  0  0  0
 34 62  1  0  0  0  0
 37 63  1  0  0  0  0
 37 64  1  0  0  0  0
 39 65  1  0  0  0  0
 40 66  1  0  0  0  0
 41 67  1  0  0  0  0
 42 68  1  0  0  0  0
M  END
