
  xtb     03012221213D
 energy: -12.106359519884 gnorm: 0.000188749914 xtb: 6.4.1 (afa7bdf)
 67 70  0     0  0            999 V2000
    7.4370    1.5008    0.0661 C   0  0  0  0  0  0  0  0  0  0  0  0
    7.5727    0.3194    1.0022 C   0  0  0  0  0  0  0  0  0  0  0  0
    8.5624   -0.6148    0.5672 O   0  0  0  0  0  0  0  0  0  0  0  0
    8.0282   -1.8456    0.0992 C   0  0  0  0  0  0  0  0  0  0  0  0
    7.2375   -1.7043   -1.1937 C   0  0  0  0  0  0  0  0  0  0  0  0
    6.5800   -2.9155   -1.5710 O   0  0  0  0  0  0  0  0  0  0  0  0
    5.1660   -2.7834   -1.5832 C   0  0  0  0  0  0  0  0  0  0  0  0
    4.5608   -2.6604   -0.1813 C   0  0  0  0  0  0  0  0  0  0  0  0
    3.3430   -1.9529   -0.1898 O   0  0  0  0  0  0  0  0  0  0  0  0
    3.5801   -0.6085   -0.2402 C   0  0  0  0  0  0  0  0  0  0  0  0
    4.6947   -0.1122   -0.2637 O   0  0  0  0  0  0  0  0  0  0  0  0
    2.4044    0.2543   -0.2656 C   0  0  0  0  0  0  0  0  0  0  0  0
    1.1601   -0.2393   -0.2089 C   0  0  0  0  0  0  0  0  0  0  0  0
   -0.0289    0.5570   -0.2292 C   0  0  0  0  0  0  0  0  0  0  0  0
   -1.3447    0.0611   -0.1460 C   0  0  0  0  0  0  0  0  0  0  0  0
   -2.2188    1.1472   -0.1991 C   0  0  0  0  0  0  0  0  0  0  0  0
   -3.6285    1.1939   -0.1451 C   0  0  0  0  0  0  0  0  0  0  0  0
   -4.4468   -0.0362   -0.0234 C   0  0  0  0  0  0  0  0  0  0  0  0
   -5.0850   -0.3469    1.1926 C   0  0  0  0  0  0  0  0  0  0  0  0
   -4.9581    0.5554    2.3724 C   0  0  0  0  0  0  0  0  0  0  0  0
   -5.8507   -1.4947    1.2804 C   0  0  0  0  0  0  0  0  0  0  0  0
   -5.9854   -2.3649    0.2100 C   0  0  0  0  0  0  0  0  0  0  0  0
   -6.8281   -3.5866    0.3237 C   0  0  0  0  0  0  0  0  0  0  0  0
   -5.3511   -2.0515   -0.9819 C   0  0  0  0  0  0  0  0  0  0  0  0
   -4.5925   -0.9042   -1.1225 C   0  0  0  0  0  0  0  0  0  0  0  0
   -3.9250   -0.6076   -2.4219 C   0  0  0  0  0  0  0  0  0  0  0  0
   -4.2074    2.4674   -0.2109 C   0  0  0  0  0  0  0  0  0  0  0  0
   -5.5638    2.8684   -0.2046 C   0  0  0  0  0  0  0  0  0  0  0  0
   -5.5933    4.2483   -0.3015 C   0  0  0  0  0  0  0  0  0  0  0  0
   -4.2744    4.7272   -0.3720 C   0  0  0  0  0  0  0  0  0  0  0  0
   -3.4771    3.6561   -0.3183 N   0  0  0  0  0  0  0  0  0  0  0  0
   -1.9493    3.7101   -0.3778 B   0  0  0  0  0  4  0  0  0  0  0  0
   -1.4809    4.4280    0.7167 F   0  0  0  0  0  0  0  0  0  0  0  0
   -1.5649    4.2858   -1.5834 F   0  0  0  0  0  0  0  0  0  0  0  0
   -1.3999    2.2838   -0.3094 N   0  0  0  0  0  4  0  0  0  0  0  0
   -0.1098    1.9723   -0.3306 C   0  0  0  0  0  0  0  0  0  0  0  0
    6.6988    2.2218    0.4230 H   0  0  0  0  0  0  0  0  0  0  0  0
    8.3914    2.0174   -0.0429 H   0  0  0  0  0  0  0  0  0  0  0  0
    7.1281    1.1817   -0.9291 H   0  0  0  0  0  0  0  0  0  0  0  0
    7.8742    0.6476    2.0050 H   0  0  0  0  0  0  0  0  0  0  0  0
    6.6147   -0.2015    1.1241 H   0  0  0  0  0  0  0  0  0  0  0  0
    7.4140   -2.2771    0.8956 H   0  0  0  0  0  0  0  0  0  0  0  0
    8.8697   -2.5317   -0.0454 H   0  0  0  0  0  0  0  0  0  0  0  0
    6.4850   -0.9150   -1.0987 H   0  0  0  0  0  0  0  0  0  0  0  0
    7.8968   -1.4106   -2.0180 H   0  0  0  0  0  0  0  0  0  0  0  0
    4.7514   -3.6444   -2.1193 H   0  0  0  0  0  0  0  0  0  0  0  0
    4.9196   -1.8981   -2.1807 H   0  0  0  0  0  0  0  0  0  0  0  0
    5.2354   -2.1204    0.4902 H   0  0  0  0  0  0  0  0  0  0  0  0
    4.3845   -3.6439    0.2691 H   0  0  0  0  0  0  0  0  0  0  0  0
    2.5698    1.3138   -0.3280 H   0  0  0  0  0  0  0  0  0  0  0  0
    1.0456   -1.3055   -0.1407 H   0  0  0  0  0  0  0  0  0  0  0  0
   -1.6282   -0.9720   -0.0499 H   0  0  0  0  0  0  0  0  0  0  0  0
   -3.9962    1.0692    2.3737 H   0  0  0  0  0  0  0  0  0  0  0  0
   -5.7428    1.3123    2.3688 H   0  0  0  0  0  0  0  0  0  0  0  0
   -5.0333   -0.0032    3.3058 H   0  0  0  0  0  0  0  0  0  0  0  0
   -6.3514   -1.7216    2.2047 H   0  0  0  0  0  0  0  0  0  0  0  0
   -6.4430   -4.3894   -0.3056 H   0  0  0  0  0  0  0  0  0  0  0  0
   -7.8532   -3.3792    0.0158 H   0  0  0  0  0  0  0  0  0  0  0  0
   -6.8523   -3.9538    1.3500 H   0  0  0  0  0  0  0  0  0  0  0  0
   -5.4573   -2.7161   -1.8207 H   0  0  0  0  0  0  0  0  0  0  0  0
   -4.4942   -1.0126   -3.2590 H   0  0  0  0  0  0  0  0  0  0  0  0
   -2.9255   -1.0419   -2.4530 H   0  0  0  0  0  0  0  0  0  0  0  0
   -3.8287    0.4672   -2.5792 H   0  0  0  0  0  0  0  0  0  0  0  0
   -6.4124    2.2095   -0.1428 H   0  0  0  0  0  0  0  0  0  0  0  0
   -6.4820    4.8589   -0.3236 H   0  0  0  0  0  0  0  0  0  0  0  0
   -3.9330    5.7453   -0.4573 H   0  0  0  0  0  0  0  0  0  0  0  0
    0.6923    2.6862   -0.4067 H   0  0  0  0  0  0  0  0  0  0  0  0
  1  2  1  0  0  0  0
  2  3  1  0  0  0  0
  3  4  1  0  0  0  0
  4  5  1  0  0  0  0
  5  6  1  0  0  0  0
  6  7  1  0  0  0  0
  7  8  1  0  0  0  0
  8  9  1  0  0  0  0
  9 10  1  0  0  0  0
 10 11  2  0  0  0  0
 10 12  1  0  0  0  0
 12 13  2  0  0  0  0
 13 14  1  0  0  0  0
 14 15  2  0  0  0  0
 15 16  1  0  0  0  0
 16 17  2  0  0  0  0
 17 18  1  0  0  0  0
 18 19  2  0  0  0  0
 19 20  1  0  0  0  0
 19 21  1  0  0  0  0
 21 22  2  0  0  0  0
 22 23  1  0  0  0  0
 22 24  1  0  0  0  0
 24 25  2  0  0  0  0
 25 26  1  0  0  0  0
 17 27  1  0  0  0  0
 27 28  2  0  0  0  0
 28 29  1  0  0  0  0
 29 30  2  0  0  0  0
 30 31  1  0  0  0  0
 31 32  1  0  0  0  0
 32 33  1  0  0  0  0
 32 34  1  0  0  0  0
 32 35  1  0  0  0  0
 35 36  2  0  0  0  0
 36 14  1  0  0  0  0
 35 16  1  0  0  0  0
 25 18  1  0  0  0  0
 31 27  1  0  0  0  0
  1 37  1  0  0  0  0
  1 38  1  0  0  0  0
  1 39  1  0  0  0  0
  2 40  1  0  0  0  0
  2 41  1  0  0  0  0
  4 42  1  0  0  0  0
  4 43  1  0  0  0  0
  5 44  1  0  0  0  0
  5 45  1  0  0  0  0
  7 46  1  0  0  0  0
  7 47  1  0  0  0  0
  8 48  1  0  0  0  0
  8 49  1  0  0  0  0
 12 50  1  0  0  0  0
 13 51  1  0  0  0  0
 15 52  1  0  0  0  0
 20 53  1  0  0  0  0
 20 54  1  0  0  0  0
 20 55  1  0  0  0  0
 21 56  1  0  0  0  0
 23 57  1  0  0  0  0
 23 58  1  0  0  0  0
 23 59  1  0  0  0  0
 24 60  1  0  0  0  0
 26 61  1  0  0  0  0
 26 62  1  0  0  0  0
 26 63  1  0  0  0  0
 28 64  1  0  0  0  0
 29 65  1  0  0  0  0
 30 66  1  0  0  0  0
 36 67  1  0  0  0  0
M  CHG  1  32  -1
M  CHG  1  35   1
M  END
