
  xtb     03012221203D
 energy: -10.938481566809 gnorm: 0.000159048819 xtb: 6.4.1 (afa7bdf)
 65 66  0     0  0            999 V2000
    7.7217   -0.9413   -2.8678 C   0  0  0  0  0  0  0  0  0  0  0  0
    6.4305   -1.6774   -2.5467 C   0  0  0  0  0  0  0  0  0  0  0  0
    5.9871   -1.4864   -1.0954 C   0  0  0  0  0  0  0  0  0  0  0  0
    4.6895   -2.2240   -0.7624 C   0  0  0  0  0  0  0  0  0  0  0  0
    4.2696   -2.0885    0.7039 C   0  0  0  0  0  0  0  0  0  0  0  0
    3.9786   -0.6513    1.1448 C   0  0  0  0  0  0  0  0  0  0  0  0
    2.8387    0.0231    0.3756 C   0  0  0  0  0  0  0  0  0  0  0  0
    1.4813   -0.6712    0.5283 C   0  0  0  0  0  0  0  0  0  0  0  0
    0.9921   -0.7867    1.9756 C   0  0  0  0  0  0  0  0  0  0  0  0
    0.9228    0.5251    2.7701 C   0  0  0  0  0  0  0  0  0  0  0  0
   -0.1942    1.4900    2.3482 C   0  0  0  0  0  0  0  0  0  0  0  0
    0.1200    2.3380    1.1205 C   0  0  0  0  0  0  0  0  0  0  0  0
   -0.8613    3.3409    0.8765 O   0  0  0  0  0  0  0  0  0  0  0  0
   -2.1092    2.8846    0.4492 C   0  0  0  0  0  0  0  0  0  0  0  0
   -2.3790    1.5943    0.0370 C   0  0  0  0  0  0  0  0  0  0  0  0
   -3.6700    1.1960   -0.3586 C   0  0  0  0  0  0  0  0  0  0  0  0
   -3.9498   -0.1232   -0.7582 C   0  0  0  0  0  0  0  0  0  0  0  0
   -5.2205   -0.5140   -1.1362 C   0  0  0  0  0  0  0  0  0  0  0  0
   -5.4853   -1.8403   -1.5219 N   0  0  0  0  0  0  0  0  0  0  0  0
   -6.8178   -2.2584   -1.9587 C   0  0  0  0  0  0  0  0  0  0  0  0
   -4.4453   -2.8690   -1.4890 C   0  0  0  0  0  0  0  0  0  0  0  0
   -6.2546    0.4560   -1.1201 C   0  0  0  0  0  0  0  0  0  0  0  0
   -6.0163    1.7387   -0.7416 C   0  0  0  0  0  0  0  0  0  0  0  0
   -4.7214    2.1482   -0.3482 C   0  0  0  0  0  0  0  0  0  0  0  0
   -4.4391    3.4624    0.0547 C   0  0  0  0  0  0  0  0  0  0  0  0
   -3.1788    3.8370    0.4430 C   0  0  0  0  0  0  0  0  0  0  0  0
   -2.9430    5.2036    0.8595 C   0  0  0  0  0  0  0  0  0  0  0  0
   -3.7746    6.0723    0.9068 O   0  0  0  0  0  0  0  0  0  0  0  0
    7.6166    0.1321   -2.6996 H   0  0  0  0  0  0  0  0  0  0  0  0
    8.0279   -1.0823   -3.9068 H   0  0  0  0  0  0  0  0  0  0  0  0
    8.5411   -1.2868   -2.2348 H   0  0  0  0  0  0  0  0  0  0  0  0
    6.5451   -2.7498   -2.7533 H   0  0  0  0  0  0  0  0  0  0  0  0
    5.6277   -1.3436   -3.2177 H   0  0  0  0  0  0  0  0  0  0  0  0
    5.8721   -0.4155   -0.8914 H   0  0  0  0  0  0  0  0  0  0  0  0
    6.7841   -1.8214   -0.4204 H   0  0  0  0  0  0  0  0  0  0  0  0
    3.8867   -1.8645   -1.4161 H   0  0  0  0  0  0  0  0  0  0  0  0
    4.8067   -3.2846   -1.0198 H   0  0  0  0  0  0  0  0  0  0  0  0
    5.0587   -2.5145    1.3388 H   0  0  0  0  0  0  0  0  0  0  0  0
    3.3867   -2.7124    0.8960 H   0  0  0  0  0  0  0  0  0  0  0  0
    4.8929   -0.0523    1.0500 H   0  0  0  0  0  0  0  0  0  0  0  0
    3.7488   -0.6346    2.2174 H   0  0  0  0  0  0  0  0  0  0  0  0
    3.1053    0.0853   -0.6872 H   0  0  0  0  0  0  0  0  0  0  0  0
    2.7487    1.0687    0.6958 H   0  0  0  0  0  0  0  0  0  0  0  0
    1.5397   -1.6725    0.0834 H   0  0  0  0  0  0  0  0  0  0  0  0
    0.7266   -0.1565   -0.0756 H   0  0  0  0  0  0  0  0  0  0  0  0
    1.6469   -1.4913    2.5068 H   0  0  0  0  0  0  0  0  0  0  0  0
    0.0024   -1.2634    1.9937 H   0  0  0  0  0  0  0  0  0  0  0  0
    0.7904    0.2791    3.8332 H   0  0  0  0  0  0  0  0  0  0  0  0
    1.8870    1.0425    2.7264 H   0  0  0  0  0  0  0  0  0  0  0  0
   -1.1254    0.9346    2.1963 H   0  0  0  0  0  0  0  0  0  0  0  0
   -0.4178    2.1822    3.1704 H   0  0  0  0  0  0  0  0  0  0  0  0
    0.2446    1.7501    0.2089 H   0  0  0  0  0  0  0  0  0  0  0  0
    1.0669    2.8703    1.2666 H   0  0  0  0  0  0  0  0  0  0  0  0
   -1.5944    0.8638    0.0062 H   0  0  0  0  0  0  0  0  0  0  0  0
   -3.1481   -0.8372   -0.7651 H   0  0  0  0  0  0  0  0  0  0  0  0
   -7.1423   -1.6506   -2.8007 H   0  0  0  0  0  0  0  0  0  0  0  0
   -7.5291   -2.1473   -1.1430 H   0  0  0  0  0  0  0  0  0  0  0  0
   -6.8199   -3.2994   -2.2738 H   0  0  0  0  0  0  0  0  0  0  0  0
   -4.8482   -3.8442   -1.7532 H   0  0  0  0  0  0  0  0  0  0  0  0
   -3.6556   -2.6231   -2.1959 H   0  0  0  0  0  0  0  0  0  0  0  0
   -4.0209   -2.9389   -0.4896 H   0  0  0  0  0  0  0  0  0  0  0  0
   -7.2482    0.1651   -1.4100 H   0  0  0  0  0  0  0  0  0  0  0  0
   -6.8138    2.4614   -0.7337 H   0  0  0  0  0  0  0  0  0  0  0  0
   -5.2226    4.1989    0.0666 H   0  0  0  0  0  0  0  0  0  0  0  0
   -1.9388    5.4740    1.1572 H   0  0  0  0  0  0  0  0  0  0  0  0
  1  2  1  0  0  0  0
  2  3  1  0  0  0  0
  3  4  1  0  0  0  0
  4  5  1  0  0  0  0
  5  6  1  0  0  0  0
  6  7  1  0  0  0  0
  7  8  1  0  0  0  0
  8  9  1  0  0  0  0
  9 10  1  0  0  0  0
 10 11  1  0  0  0  0
 11 12  1  0  0  0  0
 12 13  1  0  0  0  0
 13 14  1  0  0  0  0
 14 15  2  0  0  0  0
 15 16  1  0  0  0  0
 16 17  2  0  0  0  0
 17 18  1  0  0  0  0
 18 19  1  0  0  0  0
 19 20  1  0  0  0  0
 19 21  1  0  0  0  0
 18 22  2  0  0  0  0
 22 23  1  0  0  0  0
 23 24  2  0  0  0  0
 24 25  1  0  0  0  0
 25 26  2  0  0  0  0
 26 27  1  0  0  0  0
 27 28  2  0  0  0  0
 26 14  1  0  0  0  0
 24 16  1  0  0  0  0
  1 29  1  0  0  0  0
  1 30  1  0  0  0  0
  1 31  1  0  0  0  0
  2 32  1  0  0  0  0
  2 33  1  0  0  0  0
  3 34  1  0  0  0  0
  3 35  1  0  0  0  0
  4 36  1  0  0  0  0
  4 37  1  0  0  0  0
  5 38  1  0  0  0  0
  5 39  1  0  0  0  0
  6 40  1  0  0  0  0
  6 41  1  0  0  0  0
  7 42  1  0  0  0  0
  7 43  1  0  0  0  0
  8 44  1  0  0  0  0
  8 45  1  0  0  0  0
  9 46  1  0  0  0  0
  9 47  1  0  0  0  0
 10 48  1  0  0  0  0
 10 49  1  0  0  0  0
 11 50  1  0  0  0  0
 11 51  1  0  0  0  0
 12 52  1  0  0  0  0
 12 53  1  0  0  0  0
 15 54  1  0  0  0  0
 17 55  1  0  0  0  0
 20 56  1  0  0  0  0
 20 57  1  0  0  0  0
 20 58  1  0  0  0  0
 21 59  1  0  0  0  0
 21 60  1  0  0  0  0
 21 61  1  0  0  0  0
 22 62  1  0  0  0  0
 23 63  1  0  0  0  0
 25 64  1  0  0  0  0
 27 65  1  0  0  0  0
M  END
