
  xtb     03012221253D
 energy: -18.682385226715 gnorm: 0.000081017178 xtb: 6.4.1 (afa7bdf)
 93100  0     0  0            999 V2000
    1.1512   -4.4159    1.5315 C   0  0  0  0  0  0  0  0  0  0  0  0
    0.0496   -3.3588    1.6831 C   0  0  0  0  0  0  0  0  0  0  0  0
   -1.0257   -3.9257    2.6192 C   0  0  0  0  0  0  0  0  0  0  0  0
    0.6465   -2.0803    2.2859 C   0  0  0  0  0  0  0  0  0  0  0  0
    0.1494   -1.6052    3.2830 O   0  0  0  0  0  0  0  0  0  0  0  0
    1.8192   -1.4336    1.6631 C   0  0  0  0  0  0  0  0  0  0  0  0
    2.6219   -0.6131    2.4487 C   0  0  0  0  0  0  0  0  0  0  0  0
    3.7422   -0.0156    1.9279 C   0  0  0  0  0  0  0  0  0  0  0  0
    4.0960   -0.2121    0.5926 C   0  0  0  0  0  0  0  0  0  0  0  0
    5.3048    0.3702    0.0570 N   0  0  0  0  0  0  0  0  0  0  0  0
    6.4186   -0.4678   -0.2316 C   0  0  0  0  0  0  0  0  0  0  0  0
    6.3220   -1.8409   -0.0108 C   0  0  0  0  0  0  0  0  0  0  0  0
    7.3752   -2.6844   -0.2703 C   0  0  0  0  0  0  0  0  0  0  0  0
    8.5561   -2.1664   -0.7552 C   0  0  0  0  0  0  0  0  0  0  0  0
    8.6727   -0.8077   -0.9706 C   0  0  0  0  0  0  0  0  0  0  0  0
    7.6220    0.0609   -0.7143 C   0  0  0  0  0  0  0  0  0  0  0  0
    7.8117    1.5656   -0.9482 C   0  0  0  0  0  0  0  0  0  0  0  0
    8.9643    2.0585   -0.0481 C   0  0  0  0  0  0  0  0  0  0  0  0
    8.1633    1.7888   -2.4345 C   0  0  0  0  0  0  0  0  0  0  0  0
    6.5541    2.3806   -0.6173 C   0  0  0  0  0  0  0  0  0  0  0  0
    6.5660    3.7564   -0.7928 C   0  0  0  0  0  0  0  0  0  0  0  0
    5.4538    4.5286   -0.5236 C   0  0  0  0  0  0  0  0  0  0  0  0
    4.2971    3.9311   -0.0723 C   0  0  0  0  0  0  0  0  0  0  0  0
    4.2653    2.5696    0.1111 C   0  0  0  0  0  0  0  0  0  0  0  0
    5.3818    1.7762   -0.1472 C   0  0  0  0  0  0  0  0  0  0  0  0
    3.2720   -1.0070   -0.2049 C   0  0  0  0  0  0  0  0  0  0  0  0
    2.1549   -1.6042    0.3202 C   0  0  0  0  0  0  0  0  0  0  0  0
   -0.5727   -3.0522    0.3145 C   0  0  0  0  0  0  0  0  0  0  0  0
   -0.0763   -3.5261   -0.6834 O   0  0  0  0  0  0  0  0  0  0  0  0
   -1.7686   -2.1919    0.2092 C   0  0  0  0  0  0  0  0  0  0  0  0
   -2.1182   -1.2569    1.1833 C   0  0  0  0  0  0  0  0  0  0  0  0
   -3.2560   -0.5025    1.0551 C   0  0  0  0  0  0  0  0  0  0  0  0
   -4.0873   -0.6508   -0.0556 C   0  0  0  0  0  0  0  0  0  0  0  0
   -5.3162    0.1010   -0.1642 N   0  0  0  0  0  0  0  0  0  0  0  0
   -6.4148   -0.2269    0.6795 C   0  0  0  0  0  0  0  0  0  0  0  0
   -6.2881   -1.2653    1.6010 C   0  0  0  0  0  0  0  0  0  0  0  0
   -7.3252   -1.6175    2.4306 C   0  0  0  0  0  0  0  0  0  0  0  0
   -8.5196   -0.9352    2.3514 C   0  0  0  0  0  0  0  0  0  0  0  0
   -8.6655    0.0898    1.4382 C   0  0  0  0  0  0  0  0  0  0  0  0
   -7.6317    0.4599    0.5906 C   0  0  0  0  0  0  0  0  0  0  0  0
   -7.8532    1.5912   -0.4222 C   0  0  0  0  0  0  0  0  0  0  0  0
   -9.0160    1.1915   -1.3550 C   0  0  0  0  0  0  0  0  0  0  0  0
   -8.2095    2.8778    0.3524 C   0  0  0  0  0  0  0  0  0  0  0  0
   -6.6130    1.8684   -1.2828 C   0  0  0  0  0  0  0  0  0  0  0  0
   -6.6561    2.8716   -2.2397 C   0  0  0  0  0  0  0  0  0  0  0  0
   -5.5604    3.1674   -3.0258 C   0  0  0  0  0  0  0  0  0  0  0  0
   -4.3894    2.4595   -2.8642 C   0  0  0  0  0  0  0  0  0  0  0  0
   -4.3265    1.4601   -1.9232 C   0  0  0  0  0  0  0  0  0  0  0  0
   -5.4258    1.1425   -1.1272 C   0  0  0  0  0  0  0  0  0  0  0  0
   -3.7206   -1.5634   -1.0453 C   0  0  0  0  0  0  0  0  0  0  0  0
   -2.5799   -2.3149   -0.9139 C   0  0  0  0  0  0  0  0  0  0  0  0
    0.7406   -5.3349    1.1161 H   0  0  0  0  0  0  0  0  0  0  0  0
    1.9348   -4.0761    0.8579 H   0  0  0  0  0  0  0  0  0  0  0  0
    1.6068   -4.6441    2.4943 H   0  0  0  0  0  0  0  0  0  0  0  0
   -1.4624   -4.8338    2.2055 H   0  0  0  0  0  0  0  0  0  0  0  0
   -0.5964   -4.1601    3.5922 H   0  0  0  0  0  0  0  0  0  0  0  0
   -1.8268   -3.2080    2.7815 H   0  0  0  0  0  0  0  0  0  0  0  0
    2.3482   -0.4658    3.4786 H   0  0  0  0  0  0  0  0  0  0  0  0
    4.3722    0.6013    2.5444 H   0  0  0  0  0  0  0  0  0  0  0  0
    5.4022   -2.2428    0.3765 H   0  0  0  0  0  0  0  0  0  0  0  0
    7.2785   -3.7431   -0.0950 H   0  0  0  0  0  0  0  0  0  0  0  0
    9.3878   -2.8198   -0.9619 H   0  0  0  0  0  0  0  0  0  0  0  0
    9.6026   -0.4146   -1.3422 H   0  0  0  0  0  0  0  0  0  0  0  0
    9.8898    1.5256   -0.2597 H   0  0  0  0  0  0  0  0  0  0  0  0
    9.1554    3.1205   -0.1928 H   0  0  0  0  0  0  0  0  0  0  0  0
    8.7187    1.9013    1.0015 H   0  0  0  0  0  0  0  0  0  0  0  0
    7.3507    1.4420   -3.0718 H   0  0  0  0  0  0  0  0  0  0  0  0
    9.0650    1.2474   -2.7157 H   0  0  0  0  0  0  0  0  0  0  0  0
    8.3324    2.8426   -2.6495 H   0  0  0  0  0  0  0  0  0  0  0  0
    7.4618    4.2343   -1.1487 H   0  0  0  0  0  0  0  0  0  0  0  0
    5.4889    5.5959   -0.6691 H   0  0  0  0  0  0  0  0  0  0  0  0
    3.4238    4.5271    0.1351 H   0  0  0  0  0  0  0  0  0  0  0  0
    3.3612    2.0989    0.4561 H   0  0  0  0  0  0  0  0  0  0  0  0
    3.5320   -1.1451   -1.2398 H   0  0  0  0  0  0  0  0  0  0  0  0
    1.5220   -2.2058   -0.3065 H   0  0  0  0  0  0  0  0  0  0  0  0
   -1.4792   -1.1253    2.0376 H   0  0  0  0  0  0  0  0  0  0  0  0
   -3.5268    0.2136    1.8111 H   0  0  0  0  0  0  0  0  0  0  0  0
   -5.3575   -1.8025    1.6555 H   0  0  0  0  0  0  0  0  0  0  0  0
   -7.2056   -2.4218    3.1375 H   0  0  0  0  0  0  0  0  0  0  0  0
   -9.3387   -1.2037    2.9982 H   0  0  0  0  0  0  0  0  0  0  0  0
   -9.6052    0.6105    1.3815 H   0  0  0  0  0  0  0  0  0  0  0  0
   -9.9301    1.0052   -0.7937 H   0  0  0  0  0  0  0  0  0  0  0  0
   -8.7671    0.2831   -1.9023 H   0  0  0  0  0  0  0  0  0  0  0  0
   -9.2297    1.9734   -2.0818 H   0  0  0  0  0  0  0  0  0  0  0  0
   -7.3898    3.1621    1.0111 H   0  0  0  0  0  0  0  0  0  0  0  0
   -8.4009    3.7092   -0.3239 H   0  0  0  0  0  0  0  0  0  0  0  0
   -9.0995    2.7401    0.9641 H   0  0  0  0  0  0  0  0  0  0  0  0
   -7.5631    3.4348   -2.3720 H   0  0  0  0  0  0  0  0  0  0  0  0
   -5.6197    3.9524   -3.7619 H   0  0  0  0  0  0  0  0  0  0  0  0
   -3.5289    2.6884   -3.4710 H   0  0  0  0  0  0  0  0  0  0  0  0
   -3.4110    0.9107   -1.7890 H   0  0  0  0  0  0  0  0  0  0  0  0
   -4.3565   -1.6766   -1.9057 H   0  0  0  0  0  0  0  0  0  0  0  0
   -2.2960   -3.0215   -1.6738 H   0  0  0  0  0  0  0  0  0  0  0  0
  1  2  1  0  0  0  0
  2  3  1  0  0  0  0
  2  4  1  0  0  0  0
  4  5  2  0  0  0  0
  4  6  1  0  0  0  0
  6  7  2  0  0  0  0
  7  8  1  0  0  0  0
  8  9  2  0  0  0  0
  9 10  1  0  0  0  0
 10 11  1  0  0  0  0
 11 12  2  0  0  0  0
 12 13  1  0  0  0  0
 13 14  2  0  0  0  0
 14 15  1  0  0  0  0
 15 16  2  0  0  0  0
 16 17  1  0  0  0  0
 17 18  1  0  0  0  0
 17 19  1  0  0  0  0
 17 20  1  0  0  0  0
 20 21  2  0  0  0  0
 21 22  1  0  0  0  0
 22 23  2  0  0  0  0
 23 24  1  0  0  0  0
 24 25  2  0  0  0  0
  9 26  1  0  0  0  0
 26 27  2  0  0  0  0
  2 28  1  0  0  0  0
 28 29  2  0  0  0  0
 28 30  1  0  0  0  0
 30 31  2  0  0  0  0
 31 32  1  0  0  0  0
 32 33  2  0  0  0  0
 33 34  1  0  0  0  0
 34 35  1  0  0  0  0
 35 36  2  0  0  0  0
 36 37  1  0  0  0  0
 37 38  2  0  0  0  0
 38 39  1  0  0  0  0
 39 40  2  0  0  0  0
 40 41  1  0  0  0  0
 41 42  1  0  0  0  0
 41 43  1  0  0  0  0
 41 44  1  0  0  0  0
 44 45  2  0  0  0  0
 45 46  1  0  0  0  0
 46 47  2  0  0  0  0
 47 48  1  0  0  0  0
 48 49  2  0  0  0  0
 33 50  1  0  0  0  0
 50 51  2  0  0  0  0
 27  6  1  0  0  0  0
 51 30  1  0  0  0  0
 25 10  1  0  0  0  0
 49 34  1  0  0  0  0
 16 11  1  0  0  0  0
 25 20  1  0  0  0  0
 40 35  1  0  0  0  0
 49 44  1  0  0  0  0
  1 52  1  0  0  0  0
  1 53  1  0  0  0  0
  1 54  1  0  0  0  0
  3 55  1  0  0  0  0
  3 56  1  0  0  0  0
  3 57  1  0  0  0  0
  7 58  1  0  0  0  0
  8 59  1  0  0  0  0
 12 60  1  0  0  0  0
 13 61  1  0  0  0  0
 14 62  1  0  0  0  0
 15 63  1  0  0  0  0
 18 64  1  0  0  0  0
 18 65  1  0  0  0  0
 18 66  1  0  0  0  0
 19 67  1  0  0  0  0
 19 68  1  0  0  0  0
 19 69  1  0  0  0  0
 21 70  1  0  0  0  0
 22 71  1  0  0  0  0
 23 72  1  0  0  0  0
 24 73  1  0  0  0  0
 26 74  1  0  0  0  0
 27 75  1  0  0  0  0
 31 76  1  0  0  0  0
 32 77  1  0  0  0  0
 36 78  1  0  0  0  0
 37 79  1  0  0  0  0
 38 80  1  0  0  0  0
 39 81  1  0  0  0  0
 42 82  1  0  0  0  0
 42 83  1  0  0  0  0
 42 84  1  0  0  0  0
 43 85  1  0  0  0  0
 43 86  1  0  0  0  0
 43 87  1  0  0  0  0
 45 88  1  0  0  0  0
 46 89  1  0  0  0  0
 47 90  1  0  0  0  0
 48 91  1  0  0  0  0
 50 92  1  0  0  0  0
 51 93  1  0  0  0  0
M  END
