
  xtb     03012221223D
 energy: -6.280298465307 gnorm: 0.000259140618 xtb: 6.4.1 (afa7bdf)
 30 31  0     0  0            999 V2000
   -5.4715    3.3546    2.0209 C   0  0  0  0  0  0  0  0  0  0  0  0
   -4.4093    2.8252    1.2955 O   0  0  0  0  0  0  0  0  0  0  0  0
   -3.6742    1.9993    2.0996 C   0  0  0  0  0  0  0  0  0  0  0  0
   -3.9367    1.7819    3.2674 O   0  0  0  0  0  0  0  0  0  0  0  0
   -2.4968    1.3477    1.4759 C   0  0  0  0  0  0  0  0  0  0  0  0
   -1.6976    0.4950    2.2196 C   0  0  0  0  0  0  0  0  0  0  0  0
   -0.6052   -0.1153    1.6471 C   0  0  0  0  0  0  0  0  0  0  0  0
   -0.2833    0.1124    0.3130 C   0  0  0  0  0  0  0  0  0  0  0  0
    0.8337   -0.5129   -0.2784 C   0  0  0  0  0  0  0  0  0  0  0  0
    1.7964   -1.0512   -0.8011 C   0  0  0  0  0  0  0  0  0  0  0  0
    2.9089   -1.6706   -1.4103 C   0  0  0  0  0  0  0  0  0  0  0  0
    3.3768   -1.2323   -2.6434 C   0  0  0  0  0  0  0  0  0  0  0  0
    4.4639   -1.8380   -3.2378 C   0  0  0  0  0  0  0  0  0  0  0  0
    5.0990   -2.8895   -2.6098 C   0  0  0  0  0  0  0  0  0  0  0  0
    4.6450   -3.3350   -1.3856 C   0  0  0  0  0  0  0  0  0  0  0  0
    3.5581   -2.7308   -0.7893 C   0  0  0  0  0  0  0  0  0  0  0  0
   -1.0896    0.9705   -0.4277 C   0  0  0  0  0  0  0  0  0  0  0  0
   -2.1817    1.5795    0.1468 C   0  0  0  0  0  0  0  0  0  0  0  0
   -6.0823    2.5339    2.4044 H   0  0  0  0  0  0  0  0  0  0  0  0
   -5.0750    3.9354    2.8569 H   0  0  0  0  0  0  0  0  0  0  0  0
   -6.0696    3.9946    1.3691 H   0  0  0  0  0  0  0  0  0  0  0  0
   -1.9519    0.3219    3.2513 H   0  0  0  0  0  0  0  0  0  0  0  0
    0.0131   -0.7779    2.2277 H   0  0  0  0  0  0  0  0  0  0  0  0
    2.8776   -0.4118   -3.1287 H   0  0  0  0  0  0  0  0  0  0  0  0
    4.8179   -1.4896   -4.1940 H   0  0  0  0  0  0  0  0  0  0  0  0
    5.9485   -3.3621   -3.0748 H   0  0  0  0  0  0  0  0  0  0  0  0
    5.1406   -4.1561   -0.8945 H   0  0  0  0  0  0  0  0  0  0  0  0
    3.1997   -3.0742    0.1655 H   0  0  0  0  0  0  0  0  0  0  0  0
   -0.8476    1.1521   -1.4606 H   0  0  0  0  0  0  0  0  0  0  0  0
   -2.8072    2.2432   -0.4247 H   0  0  0  0  0  0  0  0  0  0  0  0
  1  2  1  0  0  0  0
  2  3  1  0  0  0  0
  3  4  2  0  0  0  0
  3  5  1  0  0  0  0
  5  6  2  0  0  0  0
  6  7  1  0  0  0  0
  7  8  2  0  0  0  0
  8  9  1  0  0  0  0
  9 10  3  0  0  0  0
 10 11  1  0  0  0  0
 11 12  2  0  0  0  0
 12 13  1  0  0  0  0
 13 14  2  0  0  0  0
 14 15  1  0  0  0  0
 15 16  2  0  0  0  0
  8 17  1  0  0  0  0
 17 18  2  0  0  0  0
 18  5  1  0  0  0  0
 16 11  1  0  0  0  0
  1 19  1  0  0  0  0
  1 20  1  0  0  0  0
  1 21  1  0  0  0  0
  6 22  1  0  0  0  0
  7 23  1  0  0  0  0
 12 24  1  0  0  0  0
 13 25  1  0  0  0  0
 14 26  1  0  0  0  0
 15 27  1  0  0  0  0
 16 28  1  0  0  0  0
 17 29  1  0  0  0  0
 18 30  1  0  0  0  0
M  END
