
  xtb     03012221283D
 energy: -17.199387229665 gnorm: 0.000374474202 xtb: 6.4.1 (afa7bdf)
103105  0     0  0            999 V2000
  -14.7112   -2.3142   -2.7986 C   0  0  0  0  0  0  0  0  0  0  0  0
  -13.2155   -2.0438   -2.8528 C   0  0  0  0  0  0  0  0  0  0  0  0
  -12.4304   -2.8580   -1.8222 C   0  0  0  0  0  0  0  0  0  0  0  0
  -10.9146   -2.6492   -1.8979 C   0  0  0  0  0  0  0  0  0  0  0  0
  -10.4726   -1.2357   -1.5190 C   0  0  0  0  0  0  0  0  0  0  0  0
   -8.9548   -1.0582   -1.5437 C   0  0  0  0  0  0  0  0  0  0  0  0
   -8.5178    0.3531   -1.1521 C   0  0  0  0  0  0  0  0  0  0  0  0
   -7.0046    0.5751   -1.2317 C   0  0  0  0  0  0  0  0  0  0  0  0
   -6.1860   -0.3335   -0.3118 C   0  0  0  0  0  0  0  0  0  0  0  0
   -6.5121   -0.1678    1.1707 C   0  0  0  0  0  0  0  0  0  0  0  0
   -5.6170   -1.0032    2.0852 C   0  0  0  0  0  0  0  0  0  0  0  0
   -4.1648   -0.5450    2.0603 C   0  0  0  0  0  0  0  0  0  0  0  0
   -3.5629   -0.7448    0.7888 O   0  0  0  0  0  0  0  0  0  0  0  0
   -2.2939   -0.1755    0.6397 C   0  0  0  0  0  0  0  0  0  0  0  0
   -1.7090   -0.2350   -0.6330 C   0  0  0  0  0  0  0  0  0  0  0  0
   -0.4752    0.3113   -0.8715 C   0  0  0  0  0  0  0  0  0  0  0  0
    0.2357    0.9421    0.1458 C   0  0  0  0  0  0  0  0  0  0  0  0
    1.5225    1.5124   -0.0987 C   0  0  0  0  0  0  0  0  0  0  0  0
    2.1273    1.4366   -1.2271 N   0  0  0  0  0  0  0  0  0  0  0  0
    3.4136    1.9176   -1.4547 C   0  0  0  0  0  0  0  0  0  0  0  0
    3.8022    2.2142   -2.7811 C   0  0  0  0  0  0  0  0  0  0  0  0
    5.0636    2.6485   -3.0891 C   0  0  0  0  0  0  0  0  0  0  0  0
    5.9872    2.7864   -2.0534 C   0  0  0  0  0  0  0  0  0  0  0  0
    7.3060    3.1905   -2.0025 N   0  0  0  0  0  0  0  0  0  0  0  0
    7.6888    3.1158   -0.6725 C   0  0  0  0  0  0  0  0  0  0  0  0
    8.9513    3.4704   -0.2400 O   0  0  0  0  0  0  0  0  0  0  0  0
    9.1199    3.1777    1.1369 C   0  0  0  0  0  0  0  0  0  0  0  0
    9.6266    1.7598    1.3586 C   0  0  0  0  0  0  0  0  0  0  0  0
    9.7101    1.3755    2.8350 C   0  0  0  0  0  0  0  0  0  0  0  0
   10.4651    0.0677    3.0823 C   0  0  0  0  0  0  0  0  0  0  0  0
    9.8801   -1.1745    2.3990 C   0  0  0  0  0  0  0  0  0  0  0  0
    8.5014   -1.6105    2.9317 C   0  0  0  0  0  0  0  0  0  0  0  0
    7.2948   -1.0199    2.1944 C   0  0  0  0  0  0  0  0  0  0  0  0
    7.1811   -1.4910    0.7417 C   0  0  0  0  0  0  0  0  0  0  0  0
    5.8611   -1.0894    0.0742 C   0  0  0  0  0  0  0  0  0  0  0  0
    4.6668   -1.9216    0.5488 C   0  0  0  0  0  0  0  0  0  0  0  0
    3.3254   -1.4714   -0.0373 C   0  0  0  0  0  0  0  0  0  0  0  0
    3.2497   -1.5921   -1.5512 C   0  0  0  0  0  0  0  0  0  0  0  0
    6.7025    2.6773    0.0998 N   0  0  0  0  0  0  0  0  0  0  0  0
    5.6301    2.4838   -0.7186 C   0  0  0  0  0  0  0  0  0  0  0  0
    4.3321    2.0586   -0.4269 C   0  0  0  0  0  0  0  0  0  0  0  0
   -0.3260    1.0028    1.4461 C   0  0  0  0  0  0  0  0  0  0  0  0
    0.3840    1.6087    2.4629 O   0  0  0  0  0  0  0  0  0  0  0  0
   -1.5796    0.4427    1.6635 C   0  0  0  0  0  0  0  0  0  0  0  0
  -15.2619   -1.7285   -3.5381 H   0  0  0  0  0  0  0  0  0  0  0  0
  -14.9295   -3.3671   -2.9862 H   0  0  0  0  0  0  0  0  0  0  0  0
  -15.1208   -2.0714   -1.8164 H   0  0  0  0  0  0  0  0  0  0  0  0
  -12.8284   -2.2619   -3.8572 H   0  0  0  0  0  0  0  0  0  0  0  0
  -13.0248   -0.9735   -2.7013 H   0  0  0  0  0  0  0  0  0  0  0  0
  -12.7849   -2.6092   -0.8146 H   0  0  0  0  0  0  0  0  0  0  0  0
  -12.6686   -3.9215   -1.9540 H   0  0  0  0  0  0  0  0  0  0  0  0
  -10.5617   -2.8829   -2.9095 H   0  0  0  0  0  0  0  0  0  0  0  0
  -10.4044   -3.3682   -1.2439 H   0  0  0  0  0  0  0  0  0  0  0  0
  -10.8559   -0.9854   -0.5214 H   0  0  0  0  0  0  0  0  0  0  0  0
  -10.9344   -0.5041   -2.1933 H   0  0  0  0  0  0  0  0  0  0  0  0
   -8.4928   -1.7927   -0.8742 H   0  0  0  0  0  0  0  0  0  0  0  0
   -8.5713   -1.2995   -2.5423 H   0  0  0  0  0  0  0  0  0  0  0  0
   -8.8755    0.5769   -0.1398 H   0  0  0  0  0  0  0  0  0  0  0  0
   -9.0343    1.0772   -1.7964 H   0  0  0  0  0  0  0  0  0  0  0  0
   -6.7735    1.6210   -0.9942 H   0  0  0  0  0  0  0  0  0  0  0  0
   -6.6784    0.4367   -2.2701 H   0  0  0  0  0  0  0  0  0  0  0  0
   -6.3223   -1.3834   -0.5998 H   0  0  0  0  0  0  0  0  0  0  0  0
   -5.1156   -0.1421   -0.4638 H   0  0  0  0  0  0  0  0  0  0  0  0
   -7.5638   -0.4260    1.3424 H   0  0  0  0  0  0  0  0  0  0  0  0
   -6.4253    0.8898    1.4445 H   0  0  0  0  0  0  0  0  0  0  0  0
   -5.9982   -0.9740    3.1151 H   0  0  0  0  0  0  0  0  0  0  0  0
   -5.6632   -2.0547    1.7790 H   0  0  0  0  0  0  0  0  0  0  0  0
   -4.1070    0.5225    2.2991 H   0  0  0  0  0  0  0  0  0  0  0  0
   -3.5642   -1.0897    2.7983 H   0  0  0  0  0  0  0  0  0  0  0  0
   -2.2573   -0.7174   -1.4224 H   0  0  0  0  0  0  0  0  0  0  0  0
   -0.0376    0.2665   -1.8536 H   0  0  0  0  0  0  0  0  0  0  0  0
    1.9983    2.0222    0.7192 H   0  0  0  0  0  0  0  0  0  0  0  0
    3.0681    2.0893   -3.5583 H   0  0  0  0  0  0  0  0  0  0  0  0
    5.3521    2.8784   -4.0982 H   0  0  0  0  0  0  0  0  0  0  0  0
    7.8811    3.5085   -2.7809 H   0  0  0  0  0  0  0  0  0  0  0  0
    8.1615    3.3425    1.6438 H   0  0  0  0  0  0  0  0  0  0  0  0
    9.8225    3.9134    1.5456 H   0  0  0  0  0  0  0  0  0  0  0  0
   10.6110    1.6566    0.8871 H   0  0  0  0  0  0  0  0  0  0  0  0
    8.9780    1.0636    0.8163 H   0  0  0  0  0  0  0  0  0  0  0  0
   10.2002    2.1903    3.3833 H   0  0  0  0  0  0  0  0  0  0  0  0
    8.7035    1.3203    3.2634 H   0  0  0  0  0  0  0  0  0  0  0  0
   10.5318   -0.1203    4.1620 H   0  0  0  0  0  0  0  0  0  0  0  0
   11.5048    0.2028    2.7544 H   0  0  0  0  0  0  0  0  0  0  0  0
   10.5901   -2.0043    2.5215 H   0  0  0  0  0  0  0  0  0  0  0  0
    9.8307   -1.0161    1.3175 H   0  0  0  0  0  0  0  0  0  0  0  0
    8.4445   -1.3734    4.0030 H   0  0  0  0  0  0  0  0  0  0  0  0
    8.4194   -2.7061    2.8853 H   0  0  0  0  0  0  0  0  0  0  0  0
    7.3232    0.0739    2.2218 H   0  0  0  0  0  0  0  0  0  0  0  0
    6.3766   -1.2866    2.7313 H   0  0  0  0  0  0  0  0  0  0  0  0
    7.2897   -2.5822    0.6993 H   0  0  0  0  0  0  0  0  0  0  0  0
    8.0268   -1.0981    0.1626 H   0  0  0  0  0  0  0  0  0  0  0  0
    5.6723   -0.0277    0.2647 H   0  0  0  0  0  0  0  0  0  0  0  0
    5.9509   -1.1747   -1.0158 H   0  0  0  0  0  0  0  0  0  0  0  0
    4.8393   -2.9756    0.2983 H   0  0  0  0  0  0  0  0  0  0  0  0
    4.6161   -1.8949    1.6442 H   0  0  0  0  0  0  0  0  0  0  0  0
    3.1354   -0.4335    0.2616 H   0  0  0  0  0  0  0  0  0  0  0  0
    2.5089   -2.0490    0.4188 H   0  0  0  0  0  0  0  0  0  0  0  0
    3.9846   -0.9518   -2.0412 H   0  0  0  0  0  0  0  0  0  0  0  0
    3.4408   -2.6160   -1.8772 H   0  0  0  0  0  0  0  0  0  0  0  0
    2.2687   -1.3011   -1.9332 H   0  0  0  0  0  0  0  0  0  0  0  0
    4.0719    1.8292    0.5884 H   0  0  0  0  0  0  0  0  0  0  0  0
   -0.1388    1.5789    3.2945 H   0  0  0  0  0  0  0  0  0  0  0  0
   -1.9901    0.4865    2.6531 H   0  0  0  0  0  0  0  0  0  0  0  0
  1  2  1  0  0  0  0
  2  3  1  0  0  0  0
  3  4  1  0  0  0  0
  4  5  1  0  0  0  0
  5  6  1  0  0  0  0
  6  7  1  0  0  0  0
  7  8  1  0  0  0  0
  8  9  1  0  0  0  0
  9 10  1  0  0  0  0
 10 11  1  0  0  0  0
 11 12  1  0  0  0  0
 12 13  1  0  0  0  0
 13 14  1  0  0  0  0
 14 15  2  0  0  0  0
 15 16  1  0  0  0  0
 16 17  2  0  0  0  0
 17 18  1  0  0  0  0
 18 19  2  0  0  0  0
 19 20  1  0  0  0  0
 20 21  2  0  0  0  0
 21 22  1  0  0  0  0
 22 23  2  0  0  0  0
 23 24  1  0  0  0  0
 24 25  1  0  0  0  0
 25 26  1  0  0  0  0
 26 27  1  0  0  0  0
 27 28  1  0  0  0  0
 28 29  1  0  0  0  0
 29 30  1  0  0  0  0
 30 31  1  0  0  0  0
 31 32  1  0  0  0  0
 32 33  1  0  0  0  0
 33 34  1  0  0  0  0
 34 35  1  0  0  0  0
 35 36  1  0  0  0  0
 36 37  1  0  0  0  0
 37 38  1  0  0  0  0
 25 39  2  0  0  0  0
 39 40  1  0  0  0  0
 40 41  2  0  0  0  0
 17 42  1  0  0  0  0
 42 43  1  0  0  0  0
 42 44  2  0  0  0  0
 44 14  1  0  0  0  0
 41 20  1  0  0  0  0
 40 23  1  0  0  0  0
  1 45  1  0  0  0  0
  1 46  1  0  0  0  0
  1 47  1  0  0  0  0
  2 48  1  0  0  0  0
  2 49  1  0  0  0  0
  3 50  1  0  0  0  0
  3 51  1  0  0  0  0
  4 52  1  0  0  0  0
  4 53  1  0  0  0  0
  5 54  1  0  0  0  0
  5 55  1  0  0  0  0
  6 56  1  0  0  0  0
  6 57  1  0  0  0  0
  7 58  1  0  0  0  0
  7 59  1  0  0  0  0
  8 60  1  0  0  0  0
  8 61  1  0  0  0  0
  9 62  1  0  0  0  0
  9 63  1  0  0  0  0
 10 64  1  0  0  0  0
 10 65  1  0  0  0  0
 11 66  1  0  0  0  0
 11 67  1  0  0  0  0
 12 68  1  0  0  0  0
 12 69  1  0  0  0  0
 15 70  1  0  0  0  0
 16 71  1  0  0  0  0
 18 72  1  0  0  0  0
 21 73  1  0  0  0  0
 22 74  1  0  0  0  0
 24 75  1  0  0  0  0
 27 76  1  0  0  0  0
 27 77  1  0  0  0  0
 28 78  1  0  0  0  0
 28 79  1  0  0  0  0
 29 80  1  0  0  0  0
 29 81  1  0  0  0  0
 30 82  1  0  0  0  0
 30 83  1  0  0  0  0
 31 84  1  0  0  0  0
 31 85  1  0  0  0  0
 32 86  1  0  0  0  0
 32 87  1  0  0  0  0
 33 88  1  0  0  0  0
 33 89  1  0  0  0  0
 34 90  1  0  0  0  0
 34 91  1  0  0  0  0
 35 92  1  0  0  0  0
 35 93  1  0  0  0  0
 36 94  1  0  0  0  0
 36 95  1  0  0  0  0
 37 96  1  0  0  0  0
 37 97  1  0  0  0  0
 38 98  1  0  0  0  0
 38 99  1  0  0  0  0
 38100  1  0  0  0  0
 41101  1  0  0  0  0
 43102  1  0  0  0  0
 44103  1  0  0  0  0
M  END
