
  xtb     03012221243D
 energy: -10.166327014254 gnorm: 0.000132805909 xtb: 6.4.1 (afa7bdf)
 47 52  0     0  0            999 V2000
   -3.1475   -3.2384    0.6335 C   0  0  0  0  0  0  0  0  0  0  0  0
   -1.7870   -3.3382    0.8365 C   0  0  0  0  0  0  0  0  0  0  0  0
   -0.9778   -2.2539    0.5880 C   0  0  0  0  0  0  0  0  0  0  0  0
   -1.5088   -1.0497    0.1326 C   0  0  0  0  0  0  0  0  0  0  0  0
   -2.8891   -0.9503   -0.0723 C   0  0  0  0  0  0  0  0  0  0  0  0
   -3.6899   -2.0517    0.1826 C   0  0  0  0  0  0  0  0  0  0  0  0
   -3.5130    0.3265   -0.5592 C   0  0  0  0  0  0  0  0  0  0  0  0
   -2.5526    1.4548   -0.8071 C   0  0  0  0  0  0  0  0  0  0  0  0
   -3.0288    2.6739   -1.2616 C   0  0  0  0  0  0  0  0  0  0  0  0
   -2.1726    3.7308   -1.4968 C   0  0  0  0  0  0  0  0  0  0  0  0
   -0.8191    3.5797   -1.2784 C   0  0  0  0  0  0  0  0  0  0  0  0
   -0.3299    2.3757   -0.8274 C   0  0  0  0  0  0  0  0  0  0  0  0
   -1.1800    1.2996   -0.5853 C   0  0  0  0  0  0  0  0  0  0  0  0
   -0.6432    0.0604   -0.1164 N   0  0  0  0  0  0  0  0  0  0  0  0
    0.7724   -0.0671    0.1182 C   0  0  0  0  0  0  0  0  0  0  0  0
    1.3176    0.2417    1.3906 C   0  0  0  0  0  0  0  0  0  0  0  0
    0.4922    0.6813    2.4460 C   0  0  0  0  0  0  0  0  0  0  0  0
    1.0170    0.9763    3.6686 C   0  0  0  0  0  0  0  0  0  0  0  0
    2.3946    0.8466    3.8984 C   0  0  0  0  0  0  0  0  0  0  0  0
    3.2257    0.4251    2.9060 C   0  0  0  0  0  0  0  0  0  0  0  0
    2.7168    0.1083    1.6197 C   0  0  0  0  0  0  0  0  0  0  0  0
    3.5454   -0.3281    0.5836 C   0  0  0  0  0  0  0  0  0  0  0  0
    3.0319   -0.6386   -0.6776 C   0  0  0  0  0  0  0  0  0  0  0  0
    3.8630   -1.0846   -1.7378 C   0  0  0  0  0  0  0  0  0  0  0  0
    3.3356   -1.3822   -2.9570 C   0  0  0  0  0  0  0  0  0  0  0  0
    1.9583   -1.2535   -3.1895 C   0  0  0  0  0  0  0  0  0  0  0  0
    1.1291   -0.8277   -2.1953 C   0  0  0  0  0  0  0  0  0  0  0  0
    1.6342   -0.5089   -0.9180 C   0  0  0  0  0  0  0  0  0  0  0  0
   -3.7862   -4.0851    0.8268 H   0  0  0  0  0  0  0  0  0  0  0  0
   -1.3595   -4.2624    1.1887 H   0  0  0  0  0  0  0  0  0  0  0  0
    0.0838   -2.3267    0.7447 H   0  0  0  0  0  0  0  0  0  0  0  0
   -4.7517   -1.9717    0.0242 H   0  0  0  0  0  0  0  0  0  0  0  0
   -4.0640    0.1211   -1.4839 H   0  0  0  0  0  0  0  0  0  0  0  0
   -4.2629    0.6541    0.1696 H   0  0  0  0  0  0  0  0  0  0  0  0
   -4.0856    2.7901   -1.4310 H   0  0  0  0  0  0  0  0  0  0  0  0
   -2.5611    4.6724   -1.8501 H   0  0  0  0  0  0  0  0  0  0  0  0
   -0.1473    4.4022   -1.4604 H   0  0  0  0  0  0  0  0  0  0  0  0
    0.7247    2.2529   -0.6556 H   0  0  0  0  0  0  0  0  0  0  0  0
   -0.5636    0.7786    2.2643 H   0  0  0  0  0  0  0  0  0  0  0  0
    0.3730    1.3108    4.4648 H   0  0  0  0  0  0  0  0  0  0  0  0
    2.7951    1.0835    4.8708 H   0  0  0  0  0  0  0  0  0  0  0  0
    4.2820    0.3264    3.0859 H   0  0  0  0  0  0  0  0  0  0  0  0
    4.6006   -0.4278    0.7607 H   0  0  0  0  0  0  0  0  0  0  0  0
    4.9200   -1.1849   -1.5629 H   0  0  0  0  0  0  0  0  0  0  0  0
    3.9789   -1.7204   -3.7533 H   0  0  0  0  0  0  0  0  0  0  0  0
    1.5570   -1.4935   -4.1600 H   0  0  0  0  0  0  0  0  0  0  0  0
    0.0721   -0.7274   -2.3680 H   0  0  0  0  0  0  0  0  0  0  0  0
  1  2  2  0  0  0  0
  2  3  1  0  0  0  0
  3  4  2  0  0  0  0
  4  5  1  0  0  0  0
  5  6  2  0  0  0  0
  5  7  1  0  0  0  0
  7  8  1  0  0  0  0
  8  9  2  0  0  0  0
  9 10  1  0  0  0  0
 10 11  2  0  0  0  0
 11 12  1  0  0  0  0
 12 13  2  0  0  0  0
 13 14  1  0  0  0  0
 14 15  1  0  0  0  0
 15 16  1  0  0  0  0
 16 17  2  0  0  0  0
 17 18  1  0  0  0  0
 18 19  2  0  0  0  0
 19 20  1  0  0  0  0
 20 21  2  0  0  0  0
 21 22  1  0  0  0  0
 22 23  2  0  0  0  0
 23 24  1  0  0  0  0
 24 25  2  0  0  0  0
 25 26  1  0  0  0  0
 26 27  2  0  0  0  0
 27 28  1  0  0  0  0
  6  1  1  0  0  0  0
 13  8  1  0  0  0  0
 28 15  2  0  0  0  0
 14  4  1  0  0  0  0
 21 16  1  0  0  0  0
 28 23  1  0  0  0  0
  1 29  1  0  0  0  0
  2 30  1  0  0  0  0
  3 31  1  0  0  0  0
  6 32  1  0  0  0  0
  7 33  1  0  0  0  0
  7 34  1  0  0  0  0
  9 35  1  0  0  0  0
 10 36  1  0  0  0  0
 11 37  1  0  0  0  0
 12 38  1  0  0  0  0
 17 39  1  0  0  0  0
 18 40  1  0  0  0  0
 19 41  1  0  0  0  0
 20 42  1  0  0  0  0
 22 43  1  0  0  0  0
 24 44  1  0  0  0  0
 25 45  1  0  0  0  0
 26 46  1  0  0  0  0
 27 47  1  0  0  0  0
M  END
