
  xtb     03012221233D
 energy: -5.309816233365 gnorm: 0.000274859503 xtb: 6.4.1 (afa7bdf)
 26 27  0     0  0            999 V2000
    0.5771   -1.9552    0.8553 C   0  0  0  0  0  0  0  0  0  0  0  0
   -0.7603   -1.8535    0.9566 C   0  0  0  0  0  0  0  0  0  0  0  0
   -1.5694   -0.6971    0.5614 C   0  0  0  0  0  0  0  0  0  0  0  0
   -1.2869    0.0345   -0.5932 C   0  0  0  0  0  0  0  0  0  0  0  0
   -2.0636    1.1129   -0.9554 C   0  0  0  0  0  0  0  0  0  0  0  0
   -3.1451    1.4786   -0.1791 C   0  0  0  0  0  0  0  0  0  0  0  0
   -3.4505    0.7591    0.9590 C   0  0  0  0  0  0  0  0  0  0  0  0
   -2.6749   -0.3196    1.3248 C   0  0  0  0  0  0  0  0  0  0  0  0
    1.4944   -0.8857    0.4516 C   0  0  0  0  0  0  0  0  0  0  0  0
    2.5938   -1.1722   -0.3587 C   0  0  0  0  0  0  0  0  0  0  0  0
    3.4681   -0.1778   -0.7398 C   0  0  0  0  0  0  0  0  0  0  0  0
    3.2696    1.1207   -0.3143 C   0  0  0  0  0  0  0  0  0  0  0  0
    2.1959    1.4220    0.4993 C   0  0  0  0  0  0  0  0  0  0  0  0
    1.3200    0.4303    0.8826 C   0  0  0  0  0  0  0  0  0  0  0  0
    1.0374   -2.8975    1.1066 H   0  0  0  0  0  0  0  0  0  0  0  0
   -1.3076   -2.6971    1.3458 H   0  0  0  0  0  0  0  0  0  0  0  0
   -0.4485   -0.2553   -1.2029 H   0  0  0  0  0  0  0  0  0  0  0  0
   -1.8268    1.6716   -1.8462 H   0  0  0  0  0  0  0  0  0  0  0  0
   -3.7521    2.3228   -0.4632 H   0  0  0  0  0  0  0  0  0  0  0  0
   -4.2976    1.0416    1.5626 H   0  0  0  0  0  0  0  0  0  0  0  0
   -2.9117   -0.8805    2.2128 H   0  0  0  0  0  0  0  0  0  0  0  0
    2.7469   -2.1847   -0.6912 H   0  0  0  0  0  0  0  0  0  0  0  0
    4.3092   -0.4140   -1.3712 H   0  0  0  0  0  0  0  0  0  0  0  0
    3.9537    1.8976   -0.6147 H   0  0  0  0  0  0  0  0  0  0  0  0
    2.0422    2.4346    0.8349 H   0  0  0  0  0  0  0  0  0  0  0  0
    0.4867    0.6637    1.5226 H   0  0  0  0  0  0  0  0  0  0  0  0
  1  2  2  0  0  0  0
  2  3  1  0  0  0  0
  3  4  2  0  0  0  0
  4  5  1  0  0  0  0
  5  6  2  0  0  0  0
  6  7  1  0  0  0  0
  7  8  2  0  0  0  0
  1  9  1  0  0  0  0
  9 10  2  0  0  0  0
 10 11  1  0  0  0  0
 11 12  2  0  0  0  0
 12 13  1  0  0  0  0
 13 14  2  0  0  0  0
  8  3  1  0  0  0  0
 14  9  1  0  0  0  0
  1 15  1  0  0  0  0
  2 16  1  0  0  0  0
  4 17  1  0  0  0  0
  5 18  1  0  0  0  0
  6 19  1  0  0  0  0
  7 20  1  0  0  0  0
  8 21  1  0  0  0  0
 10 22  1  0  0  0  0
 11 23  1  0  0  0  0
 12 24  1  0  0  0  0
 13 25  1  0  0  0  0
 14 26  1  0  0  0  0
M  END
