
  xtb     03012221203D
 energy: -12.115570355241 gnorm: 0.000171971191 xtb: 6.4.1 (afa7bdf)
 64 65  0     0  0            999 V2000
    8.5457    2.6301    0.5783 C   0  0  0  0  0  0  0  0  0  0  0  0
    8.5270    1.2576   -0.0598 C   0  0  0  0  0  0  0  0  0  0  0  0
    7.4113    0.4295    0.4343 N   0  0  0  0  0  0  0  0  0  0  0  0
    7.7610   -0.5096    1.5163 C   0  0  0  0  0  0  0  0  0  0  0  0
    8.0354   -1.9042    0.9957 C   0  0  0  0  0  0  0  0  0  0  0  0
    6.1123    0.5243   -0.0907 C   0  0  0  0  0  0  0  0  0  0  0  0
    5.7982    1.4572   -1.0919 C   0  0  0  0  0  0  0  0  0  0  0  0
    4.5335    1.5464   -1.6048 C   0  0  0  0  0  0  0  0  0  0  0  0
    3.5031    0.7140   -1.1540 C   0  0  0  0  0  0  0  0  0  0  0  0
    2.2036    0.8389   -1.7159 C   0  0  0  0  0  0  0  0  0  0  0  0
    1.1729    0.1411   -1.3793 N   0  0  0  0  0  0  0  0  0  0  0  0
   -0.0446    0.3144   -1.9746 C   0  0  0  0  0  0  0  0  0  0  0  0
   -0.1792    1.2647   -2.9862 C   0  0  0  0  0  0  0  0  0  0  0  0
   -0.2152    2.0784   -3.8176 N   0  0  0  0  0  0  0  0  0  0  0  0
   -1.1204   -0.4483   -1.5606 C   0  0  0  0  0  0  0  0  0  0  0  0
   -2.3587   -0.3138   -2.1911 C   0  0  0  0  0  0  0  0  0  0  0  0
   -3.4037   -0.2202   -2.6960 N   0  0  0  0  0  0  0  0  0  0  0  0
   -0.9346   -1.3767   -0.5650 N   0  0  0  0  0  0  0  0  0  0  0  0
   -1.8450   -1.9259    0.1805 C   0  0  0  0  0  0  0  0  0  0  0  0
   -3.2040   -1.4812    0.3527 C   0  0  0  0  0  0  0  0  0  0  0  0
   -4.2519   -2.4090    0.4084 C   0  0  0  0  0  0  0  0  0  0  0  0
   -5.5580   -2.0043    0.4472 C   0  0  0  0  0  0  0  0  0  0  0  0
   -5.8977   -0.6412    0.4339 C   0  0  0  0  0  0  0  0  0  0  0  0
   -7.2360   -0.2208    0.3615 N   0  0  0  0  0  0  0  0  0  0  0  0
   -7.5944    1.1839    0.0891 C   0  0  0  0  0  0  0  0  0  0  0  0
   -7.3244    1.5646   -1.3519 C   0  0  0  0  0  0  0  0  0  0  0  0
   -8.3606   -1.1753    0.3414 C   0  0  0  0  0  0  0  0  0  0  0  0
   -8.7152   -1.6644    1.7290 C   0  0  0  0  0  0  0  0  0  0  0  0
   -4.8574    0.2860    0.4653 C   0  0  0  0  0  0  0  0  0  0  0  0
   -3.5228   -0.0975    0.4533 C   0  0  0  0  0  0  0  0  0  0  0  0
   -2.5188    0.8370    0.5573 O   0  0  0  0  0  0  0  0  0  0  0  0
    3.7955   -0.2385   -0.1413 C   0  0  0  0  0  0  0  0  0  0  0  0
    2.8201   -1.0818    0.3326 O   0  0  0  0  0  0  0  0  0  0  0  0
    5.0895   -0.3067    0.3628 C   0  0  0  0  0  0  0  0  0  0  0  0
    7.6134    3.1646    0.3913 H   0  0  0  0  0  0  0  0  0  0  0  0
    9.3645    3.2476    0.2032 H   0  0  0  0  0  0  0  0  0  0  0  0
    8.6554    2.5546    1.6612 H   0  0  0  0  0  0  0  0  0  0  0  0
    8.4598    1.3213   -1.1502 H   0  0  0  0  0  0  0  0  0  0  0  0
    9.4648    0.7270    0.1362 H   0  0  0  0  0  0  0  0  0  0  0  0
    8.6344   -0.1160    2.0470 H   0  0  0  0  0  0  0  0  0  0  0  0
    6.9548   -0.5072    2.2565 H   0  0  0  0  0  0  0  0  0  0  0  0
    7.1714   -2.3039    0.4634 H   0  0  0  0  0  0  0  0  0  0  0  0
    8.8673   -1.8995    0.2897 H   0  0  0  0  0  0  0  0  0  0  0  0
    8.2841   -2.6020    1.7981 H   0  0  0  0  0  0  0  0  0  0  0  0
    6.5622    2.1179   -1.4598 H   0  0  0  0  0  0  0  0  0  0  0  0
    4.3163    2.2698   -2.3719 H   0  0  0  0  0  0  0  0  0  0  0  0
    2.0667    1.5776   -2.4875 H   0  0  0  0  0  0  0  0  0  0  0  0
   -1.5506   -2.8391    0.6761 H   0  0  0  0  0  0  0  0  0  0  0  0
   -4.0142   -3.4581    0.3701 H   0  0  0  0  0  0  0  0  0  0  0  0
   -6.3369   -2.7450    0.4599 H   0  0  0  0  0  0  0  0  0  0  0  0
   -8.6500    1.3318    0.3395 H   0  0  0  0  0  0  0  0  0  0  0  0
   -7.0464    1.8266    0.7846 H   0  0  0  0  0  0  0  0  0  0  0  0
   -7.5660    2.6098   -1.5555 H   0  0  0  0  0  0  0  0  0  0  0  0
   -7.9120    0.9477   -2.0332 H   0  0  0  0  0  0  0  0  0  0  0  0
   -6.2762    1.4082   -1.6119 H   0  0  0  0  0  0  0  0  0  0  0  0
   -9.2231   -0.6914   -0.1288 H   0  0  0  0  0  0  0  0  0  0  0  0
   -8.1043   -2.0042   -0.3255 H   0  0  0  0  0  0  0  0  0  0  0  0
   -9.0037   -0.8314    2.3720 H   0  0  0  0  0  0  0  0  0  0  0  0
   -9.5423   -2.3774    1.7160 H   0  0  0  0  0  0  0  0  0  0  0  0
   -7.8633   -2.1517    2.2050 H   0  0  0  0  0  0  0  0  0  0  0  0
   -5.0794    1.3344    0.5057 H   0  0  0  0  0  0  0  0  0  0  0  0
   -2.8916    1.7447    0.5326 H   0  0  0  0  0  0  0  0  0  0  0  0
    3.1823   -1.6710    1.0306 H   0  0  0  0  0  0  0  0  0  0  0  0
    5.2959   -1.0343    1.1232 H   0  0  0  0  0  0  0  0  0  0  0  0
  1  2  1  0  0  0  0
  2  3  1  0  0  0  0
  3  4  1  0  0  0  0
  4  5  1  0  0  0  0
  3  6  1  0  0  0  0
  6  7  2  0  0  0  0
  7  8  1  0  0  0  0
  8  9  2  0  0  0  0
  9 10  1  0  0  0  0
 10 11  2  0  0  0  0
 11 12  1  0  0  0  0
 12 13  1  0  0  0  0
 13 14  3  0  0  0  0
 12 15  2  0  0  0  0
 15 16  1  0  0  0  0
 16 17  3  0  0  0  0
 15 18  1  0  0  0  0
 18 19  2  0  0  0  0
 19 20  1  0  0  0  0
 20 21  2  0  0  0  0
 21 22  1  0  0  0  0
 22 23  2  0  0  0  0
 23 24  1  0  0  0  0
 24 25  1  0  0  0  0
 25 26  1  0  0  0  0
 24 27  1  0  0  0  0
 27 28  1  0  0  0  0
 23 29  1  0  0  0  0
 29 30  2  0  0  0  0
 30 31  1  0  0  0  0
  9 32  1  0  0  0  0
 32 33  1  0  0  0  0
 32 34  2  0  0  0  0
 34  6  1  0  0  0  0
 30 20  1  0  0  0  0
  1 35  1  0  0  0  0
  1 36  1  0  0  0  0
  1 37  1  0  0  0  0
  2 38  1  0  0  0  0
  2 39  1  0  0  0  0
  4 40  1  0  0  0  0
  4 41  1  0  0  0  0
  5 42  1  0  0  0  0
  5 43  1  0  0  0  0
  5 44  1  0  0  0  0
  7 45  1  0  0  0  0
  8 46  1  0  0  0  0
 10 47  1  0  0  0  0
 19 48  1  0  0  0  0
 21 49  1  0  0  0  0
 22 50  1  0  0  0  0
 25 51  1  0  0  0  0
 25 52  1  0  0  0  0
 26 53  1  0  0  0  0
 26 54  1  0  0  0  0
 26 55  1  0  0  0  0
 27 56  1  0  0  0  0
 27 57  1  0  0  0  0
 28 58  1  0  0  0  0
 28 59  1  0  0  0  0
 28 60  1  0  0  0  0
 29 61  1  0  0  0  0
 31 62  1  0  0  0  0
 33 63  1  0  0  0  0
 34 64  1  0  0  0  0
M  END
