
  xtb     03012221303D
 energy: -15.465374500799 gnorm: 0.000362899342 xtb: 6.4.1 (afa7bdf)
 76 82  0     0  0            999 V2000
   -8.6771    2.1942    1.7430 O   0  0  0  0  0  0  0  0  0  0  0  0
   -9.2849    1.5182    0.9468 C   0  0  0  0  0  0  0  0  0  0  0  0
  -10.0386    0.4544    1.2980 O   0  0  0  0  0  0  0  0  0  0  0  0
   -9.2153    1.8401   -0.5214 C   0  0  0  0  0  0  0  0  0  0  0  0
   -7.8892    1.7806   -1.0222 O   0  0  0  0  0  0  0  0  0  0  0  0
   -7.1880    0.6058   -0.7314 C   0  0  0  0  0  0  0  0  0  0  0  0
   -7.7831   -0.6202   -0.4247 C   0  0  0  0  0  0  0  0  0  0  0  0
   -7.0137   -1.7255   -0.1415 C   0  0  0  0  0  0  0  0  0  0  0  0
   -5.6407   -1.6379   -0.1481 C   0  0  0  0  0  0  0  0  0  0  0  0
   -5.0036   -0.4297   -0.4453 C   0  0  0  0  0  0  0  0  0  0  0  0
   -3.5252   -0.3144   -0.4073 C   0  0  0  0  0  0  0  0  0  0  0  0
   -2.9311    0.4986    0.5598 C   0  0  0  0  0  0  0  0  0  0  0  0
   -1.6203    0.7083    0.7388 N   0  0  0  0  0  0  0  0  0  0  0  0
   -1.4320    1.5212    1.8112 C   0  0  0  0  0  0  0  0  0  0  0  0
   -0.2481    2.0002    2.2892 C   0  0  0  0  0  0  0  0  0  0  0  0
    1.0311    1.7245    1.7577 C   0  0  0  0  0  0  0  0  0  0  0  0
    2.2303    2.2689    2.2475 C   0  0  0  0  0  0  0  0  0  0  0  0
    3.2604    1.7734    1.4909 C   0  0  0  0  0  0  0  0  0  0  0  0
    2.7125    0.9095    0.5267 C   0  0  0  0  0  0  0  0  0  0  0  0
    1.3459    0.8985    0.7044 N   0  0  0  0  0  0  0  0  0  0  0  0
    3.4784    0.1953   -0.4462 C   0  0  0  0  0  0  0  0  0  0  0  0
    4.9538    0.3541   -0.4344 C   0  0  0  0  0  0  0  0  0  0  0  0
    5.6287    0.9554   -1.5004 C   0  0  0  0  0  0  0  0  0  0  0  0
    6.9961    1.1046   -1.4720 C   0  0  0  0  0  0  0  0  0  0  0  0
    7.7244    0.6656   -0.3895 C   0  0  0  0  0  0  0  0  0  0  0  0
    7.0896    0.0630    0.6997 C   0  0  0  0  0  0  0  0  0  0  0  0
    7.7371   -0.4112    1.8438 O   0  0  0  0  0  0  0  0  0  0  0  0
    9.1445   -0.2659    1.8334 C   0  0  0  0  0  0  0  0  0  0  0  0
    9.7497   -0.8387    3.0852 C   0  0  0  0  0  0  0  0  0  0  0  0
   10.1253   -1.9878    3.0991 O   0  0  0  0  0  0  0  0  0  0  0  0
    9.8354   -0.0155    4.1494 O   0  0  0  0  0  0  0  0  0  0  0  0
    5.7049   -0.0805    0.6536 C   0  0  0  0  0  0  0  0  0  0  0  0
    2.8874   -0.6661   -1.3720 C   0  0  0  0  0  0  0  0  0  0  0  0
    1.5798   -0.9201   -1.5137 N   0  0  0  0  0  0  0  0  0  0  0  0
    1.3999   -1.8468   -2.4912 C   0  0  0  0  0  0  0  0  0  0  0  0
    0.2169   -2.3347   -2.9626 C   0  0  0  0  0  0  0  0  0  0  0  0
   -1.0687   -1.9757   -2.5010 C   0  0  0  0  0  0  0  0  0  0  0  0
   -2.2722   -2.4600   -3.0410 C   0  0  0  0  0  0  0  0  0  0  0  0
   -3.3073   -1.9009   -2.3371 C   0  0  0  0  0  0  0  0  0  0  0  0
   -2.7572   -1.0686   -1.3470 C   0  0  0  0  0  0  0  0  0  0  0  0
   -1.3856   -1.1242   -1.4689 N   0  0  0  0  0  0  0  0  0  0  0  0
    2.7065   -2.3146   -3.0675 C   0  0  0  0  0  0  0  0  0  0  0  0
    3.7295   -1.4758   -2.3252 C   0  0  0  0  0  0  0  0  0  0  0  0
   -2.7311    1.8901    2.4706 C   0  0  0  0  0  0  0  0  0  0  0  0
   -3.7669    1.2216    1.5870 C   0  0  0  0  0  0  0  0  0  0  0  0
   -5.7972    0.6718   -0.7510 C   0  0  0  0  0  0  0  0  0  0  0  0
   -9.9935    0.3807    2.2707 H   0  0  0  0  0  0  0  0  0  0  0  0
   -9.8421    1.1599   -1.1037 H   0  0  0  0  0  0  0  0  0  0  0  0
   -9.5729    2.8592   -0.6929 H   0  0  0  0  0  0  0  0  0  0  0  0
   -8.8552   -0.6918   -0.3936 H   0  0  0  0  0  0  0  0  0  0  0  0
   -7.4893   -2.6614    0.0993 H   0  0  0  0  0  0  0  0  0  0  0  0
   -5.0387   -2.4974    0.0945 H   0  0  0  0  0  0  0  0  0  0  0  0
   -0.2864    2.6516    3.1452 H   0  0  0  0  0  0  0  0  0  0  0  0
    2.3174    2.9564    3.0733 H   0  0  0  0  0  0  0  0  0  0  0  0
    4.3054    2.0020    1.6117 H   0  0  0  0  0  0  0  0  0  0  0  0
    0.6653    0.3668    0.1486 H   0  0  0  0  0  0  0  0  0  0  0  0
    5.0593    1.3205   -2.3384 H   0  0  0  0  0  0  0  0  0  0  0  0
    7.4996    1.5727   -2.3012 H   0  0  0  0  0  0  0  0  0  0  0  0
    8.7914    0.7927   -0.3831 H   0  0  0  0  0  0  0  0  0  0  0  0
    9.5401   -0.7950    0.9622 H   0  0  0  0  0  0  0  0  0  0  0  0
    9.3816    0.7990    1.7617 H   0  0  0  0  0  0  0  0  0  0  0  0
   10.2243   -0.5298    4.8828 H   0  0  0  0  0  0  0  0  0  0  0  0
    5.2126   -0.5490    1.4871 H   0  0  0  0  0  0  0  0  0  0  0  0
    0.2607   -3.0544   -3.7617 H   0  0  0  0  0  0  0  0  0  0  0  0
   -2.3584   -3.1472   -3.8671 H   0  0  0  0  0  0  0  0  0  0  0  0
   -4.3571   -2.0635   -2.5110 H   0  0  0  0  0  0  0  0  0  0  0  0
   -0.7036   -0.6160   -0.8936 H   0  0  0  0  0  0  0  0  0  0  0  0
    2.7317   -2.1491   -4.1515 H   0  0  0  0  0  0  0  0  0  0  0  0
    2.8374   -3.3891   -2.8903 H   0  0  0  0  0  0  0  0  0  0  0  0
    4.4541   -2.0853   -1.7734 H   0  0  0  0  0  0  0  0  0  0  0  0
    4.2893   -0.8178   -2.9982 H   0  0  0  0  0  0  0  0  0  0  0  0
   -2.7548    1.5153    3.5012 H   0  0  0  0  0  0  0  0  0  0  0  0
   -2.8495    2.9799    2.5086 H   0  0  0  0  0  0  0  0  0  0  0  0
   -4.4277    1.9503    1.1053 H   0  0  0  0  0  0  0  0  0  0  0  0
   -4.3973    0.5141    2.1375 H   0  0  0  0  0  0  0  0  0  0  0  0
   -5.3355    1.6093   -1.0037 H   0  0  0  0  0  0  0  0  0  0  0  0
  1  2  2  0  0  0  0
  2  3  1  0  0  0  0
  2  4  1  0  0  0  0
  4  5  1  0  0  0  0
  5  6  1  0  0  0  0
  6  7  2  0  0  0  0
  7  8  1  0  0  0  0
  8  9  2  0  0  0  0
  9 10  1  0  0  0  0
 10 11  1  0  0  0  0
 11 12  1  0  0  0  0
 12 13  2  0  0  0  0
 13 14  1  0  0  0  0
 14 15  2  0  0  0  0
 15 16  1  0  0  0  0
 16 17  2  0  0  0  0
 17 18  1  0  0  0  0
 18 19  2  0  0  0  0
 19 20  1  0  0  0  0
 19 21  1  0  0  0  0
 21 22  1  0  0  0  0
 22 23  2  0  0  0  0
 23 24  1  0  0  0  0
 24 25  2  0  0  0  0
 25 26  1  0  0  0  0
 26 27  1  0  0  0  0
 27 28  1  0  0  0  0
 28 29  1  0  0  0  0
 29 30  2  0  0  0  0
 29 31  1  0  0  0  0
 26 32  2  0  0  0  0
 21 33  2  0  0  0  0
 33 34  1  0  0  0  0
 34 35  2  0  0  0  0
 35 36  1  0  0  0  0
 36 37  2  0  0  0  0
 37 38  1  0  0  0  0
 38 39  2  0  0  0  0
 39 40  1  0  0  0  0
 40 41  1  0  0  0  0
 35 42  1  0  0  0  0
 42 43  1  0  0  0  0
 14 44  1  0  0  0  0
 44 45  1  0  0  0  0
 10 46  2  0  0  0  0
 46  6  1  0  0  0  0
 40 11  2  0  0  0  0
 45 12  1  0  0  0  0
 20 16  1  0  0  0  0
 32 22  1  0  0  0  0
 43 33  1  0  0  0  0
 41 37  1  0  0  0  0
  3 47  1  0  0  0  0
  4 48  1  0  0  0  0
  4 49  1  0  0  0  0
  7 50  1  0  0  0  0
  8 51  1  0  0  0  0
  9 52  1  0  0  0  0
 15 53  1  0  0  0  0
 17 54  1  0  0  0  0
 18 55  1  0  0  0  0
 20 56  1  0  0  0  0
 23 57  1  0  0  0  0
 24 58  1  0  0  0  0
 25 59  1  0  0  0  0
 28 60  1  0  0  0  0
 28 61  1  0  0  0  0
 31 62  1  0  0  0  0
 32 63  1  0  0  0  0
 36 64  1  0  0  0  0
 38 65  1  0  0  0  0
 39 66  1  0  0  0  0
 41 67  1  0  0  0  0
 42 68  1  0  0  0  0
 42 69  1  0  0  0  0
 43 70  1  0  0  0  0
 43 71  1  0  0  0  0
 44 72  1  0  0  0  0
 44 73  1  0  0  0  0
 45 74  1  0  0  0  0
 45 75  1  0  0  0  0
 46 76  1  0  0  0  0
M  END
