
  xtb     03012221323D
 energy: -7.993716069936 gnorm: 0.000304504576 xtb: 6.4.1 (afa7bdf)
 42 45  0     0  0            999 V2000
   -2.5563    0.5136    3.0986 O   0  0  0  0  0  0  0  0  0  0  0  0
   -1.4258    0.5353    2.6374 C   0  0  0  0  0  0  0  0  0  0  0  0
   -0.3159    0.6516    3.4576 N   0  0  0  0  0  0  0  0  0  0  0  0
    0.9929    0.6749    3.0134 C   0  0  0  0  0  0  0  0  0  0  0  0
    1.9247    0.7640    3.7927 O   0  0  0  0  0  0  0  0  0  0  0  0
    1.1800    0.5767    1.6255 N   0  0  0  0  0  0  0  0  0  0  0  0
    2.5270    0.6131    1.0485 C   0  0  0  0  0  0  0  0  0  0  0  0
    2.5113    0.7730   -0.3786 O   0  0  0  0  0  0  0  0  0  0  0  0
    3.6698    0.1203   -0.9410 C   0  0  0  0  0  0  0  0  0  0  0  0
    3.3124   -0.6530   -2.2080 C   0  0  0  0  0  0  0  0  0  0  0  0
    4.3889   -1.4118   -2.7059 O   0  0  0  0  0  0  0  0  0  0  0  0
    4.2926   -0.7960    0.1506 C   0  0  0  0  0  0  0  0  0  0  0  0
    5.5870   -0.3499    0.4968 O   0  0  0  0  0  0  0  0  0  0  0  0
    3.3293   -0.6748    1.3537 C   0  0  0  0  0  0  0  0  0  0  0  0
    4.0267   -0.5667    2.5782 O   0  0  0  0  0  0  0  0  0  0  0  0
    0.1188    0.4717    0.7792 C   0  0  0  0  0  0  0  0  0  0  0  0
   -1.1739    0.4402    1.2071 C   0  0  0  0  0  0  0  0  0  0  0  0
   -2.2519    0.3173    0.2590 C   0  0  0  0  0  0  0  0  0  0  0  0
   -3.5760    0.2845    0.5608 C   0  0  0  0  0  0  0  0  0  0  0  0
   -4.4303    0.1506   -0.5810 C   0  0  0  0  0  0  0  0  0  0  0  0
   -5.8326    0.0857   -0.5955 C   0  0  0  0  0  0  0  0  0  0  0  0
   -6.4851   -0.0466   -1.7928 C   0  0  0  0  0  0  0  0  0  0  0  0
   -5.7698   -0.1166   -2.9862 C   0  0  0  0  0  0  0  0  0  0  0  0
   -4.3977   -0.0543   -2.9907 C   0  0  0  0  0  0  0  0  0  0  0  0
   -3.7256    0.0798   -1.7865 C   0  0  0  0  0  0  0  0  0  0  0  0
   -2.0090    0.1859   -1.4734 S   0  0  0  0  0  0  0  0  0  0  0  0
   -0.4747    0.7224    4.4506 H   0  0  0  0  0  0  0  0  0  0  0  0
    3.0526    1.4842    1.4610 H   0  0  0  0  0  0  0  0  0  0  0  0
    4.3938    0.9153   -1.1691 H   0  0  0  0  0  0  0  0  0  0  0  0
    2.4981   -1.3529   -1.9925 H   0  0  0  0  0  0  0  0  0  0  0  0
    2.9501    0.0222   -2.9924 H   0  0  0  0  0  0  0  0  0  0  0  0
    5.1962   -0.8580   -2.7782 H   0  0  0  0  0  0  0  0  0  0  0  0
    4.3770   -1.8331   -0.2090 H   0  0  0  0  0  0  0  0  0  0  0  0
    5.7264   -0.4993    1.4581 H   0  0  0  0  0  0  0  0  0  0  0  0
    2.6439   -1.5335    1.4140 H   0  0  0  0  0  0  0  0  0  0  0  0
    3.4077   -0.1270    3.2027 H   0  0  0  0  0  0  0  0  0  0  0  0
    0.3331    0.4256   -0.2729 H   0  0  0  0  0  0  0  0  0  0  0  0
   -3.9391    0.3510    1.5725 H   0  0  0  0  0  0  0  0  0  0  0  0
   -6.3755    0.1407    0.3327 H   0  0  0  0  0  0  0  0  0  0  0  0
   -7.5603   -0.0969   -1.8130 H   0  0  0  0  0  0  0  0  0  0  0  0
   -6.3020   -0.2213   -3.9192 H   0  0  0  0  0  0  0  0  0  0  0  0
   -3.8387   -0.1078   -3.9078 H   0  0  0  0  0  0  0  0  0  0  0  0
  1  2  2  0  0  0  0
  2  3  1  0  0  0  0
  3  4  1  0  0  0  0
  4  5  2  0  0  0  0
  4  6  1  0  0  0  0
  6  7  1  0  0  0  0
  7  8  1  0  0  0  0
  8  9  1  0  0  0  0
  9 10  1  0  0  0  0
 10 11  1  0  0  0  0
  9 12  1  0  0  0  0
 12 13  1  0  0  0  0
 12 14  1  0  0  0  0
 14 15  1  0  0  0  0
  6 16  1  0  0  0  0
 16 17  2  0  0  0  0
 17 18  1  0  0  0  0
 18 19  2  0  0  0  0
 19 20  1  0  0  0  0
 20 21  2  0  0  0  0
 21 22  1  0  0  0  0
 22 23  2  0  0  0  0
 23 24  1  0  0  0  0
 24 25  2  0  0  0  0
 25 26  1  0  0  0  0
 17  2  1  0  0  0  0
 26 18  1  0  0  0  0
 14  7  1  0  0  0  0
 25 20  1  0  0  0  0
  3 27  1  0  0  0  0
  7 28  1  0  0  0  0
  9 29  1  0  0  0  0
 10 30  1  0  0  0  0
 10 31  1  0  0  0  0
 11 32  1  0  0  0  0
 12 33  1  0  0  0  0
 13 34  1  0  0  0  0
 14 35  1  0  0  0  0
 15 36  1  0  0  0  0
 16 37  1  0  0  0  0
 19 38  1  0  0  0  0
 21 39  1  0  0  0  0
 22 40  1  0  0  0  0
 23 41  1  0  0  0  0
 24 42  1  0  0  0  0
M  END
