
  xtb     03012221233D
 energy: -12.003266091178 gnorm: 0.000162690333 xtb: 6.4.1 (afa7bdf)
 56 60  0     0  0            999 V2000
    5.7978   -0.3739    0.0099 C   0  0  0  0  0  0  0  0  0  0  0  0
    6.6445    0.3021    0.8025 C   0  0  0  0  0  0  0  0  0  0  0  0
    8.0769    0.1233    0.7387 C   0  0  0  0  0  0  0  0  0  0  0  0
    8.8059    0.8553    1.5897 N   0  0  0  0  0  0  0  0  0  0  0  0
   10.1036    0.6762    1.5192 C   0  0  0  0  0  0  0  0  0  0  0  0
   10.6835   -0.1960    0.6399 C   0  0  0  0  0  0  0  0  0  0  0  0
    9.8466   -0.8942   -0.1862 C   0  0  0  0  0  0  0  0  0  0  0  0
    8.5423   -0.7543   -0.1578 N   0  0  0  0  0  0  0  0  0  0  0  0
    4.3535   -0.2622    0.0162 C   0  0  0  0  0  0  0  0  0  0  0  0
    3.6706    0.6076    0.8704 C   0  0  0  0  0  0  0  0  0  0  0  0
    2.2989    0.6793    0.8551 C   0  0  0  0  0  0  0  0  0  0  0  0
    1.5440   -0.1119   -0.0126 C   0  0  0  0  0  0  0  0  0  0  0  0
    0.0695   -0.0431   -0.0195 C   0  0  0  0  0  0  0  0  0  0  0  0
   -0.6451    0.1951    1.1570 C   0  0  0  0  0  0  0  0  0  0  0  0
   -2.0175    0.2440    1.1522 C   0  0  0  0  0  0  0  0  0  0  0  0
   -2.7374    0.0566   -0.0271 C   0  0  0  0  0  0  0  0  0  0  0  0
   -4.1671    0.0926   -0.0282 N   0  0  0  0  0  0  0  0  0  0  0  0
   -4.9110   -0.7265   -0.9432 C   0  0  0  0  0  0  0  0  0  0  0  0
   -4.4869   -2.0165   -1.2529 C   0  0  0  0  0  0  0  0  0  0  0  0
   -5.2045   -2.8014   -2.1268 C   0  0  0  0  0  0  0  0  0  0  0  0
   -6.3597   -2.3140   -2.7064 C   0  0  0  0  0  0  0  0  0  0  0  0
   -6.7953   -1.0377   -2.4074 C   0  0  0  0  0  0  0  0  0  0  0  0
   -6.0791   -0.2510   -1.5338 C   0  0  0  0  0  0  0  0  0  0  0  0
   -4.8702    0.9390    0.8943 C   0  0  0  0  0  0  0  0  0  0  0  0
   -4.3956    2.2129    1.1969 C   0  0  0  0  0  0  0  0  0  0  0  0
   -5.0733    3.0236    2.0791 C   0  0  0  0  0  0  0  0  0  0  0  0
   -6.2372    2.5781    2.6747 C   0  0  0  0  0  0  0  0  0  0  0  0
   -6.7220    1.3178    2.3836 C   0  0  0  0  0  0  0  0  0  0  0  0
   -6.0463    0.5055    1.5013 C   0  0  0  0  0  0  0  0  0  0  0  0
   -2.0260   -0.1749   -1.2037 C   0  0  0  0  0  0  0  0  0  0  0  0
   -0.6536   -0.2240   -1.2010 C   0  0  0  0  0  0  0  0  0  0  0  0
    2.2272   -0.9774   -0.8685 C   0  0  0  0  0  0  0  0  0  0  0  0
    3.5983   -1.0512   -0.8549 C   0  0  0  0  0  0  0  0  0  0  0  0
    6.2289   -1.0665   -0.6903 H   0  0  0  0  0  0  0  0  0  0  0  0
    6.2737    1.0048    1.5240 H   0  0  0  0  0  0  0  0  0  0  0  0
   10.7174    1.2526    2.1946 H   0  0  0  0  0  0  0  0  0  0  0  0
   11.7520   -0.3276    0.6001 H   0  0  0  0  0  0  0  0  0  0  0  0
   10.2512   -1.5960   -0.8995 H   0  0  0  0  0  0  0  0  0  0  0  0
    4.2246    1.2314    1.5482 H   0  0  0  0  0  0  0  0  0  0  0  0
    1.7924    1.3676    1.5093 H   0  0  0  0  0  0  0  0  0  0  0  0
   -0.1084    0.3173    2.0811 H   0  0  0  0  0  0  0  0  0  0  0  0
   -2.5580    0.4086    2.0679 H   0  0  0  0  0  0  0  0  0  0  0  0
   -3.5930   -2.3948   -0.7882 H   0  0  0  0  0  0  0  0  0  0  0  0
   -4.8655   -3.7981   -2.3575 H   0  0  0  0  0  0  0  0  0  0  0  0
   -6.9208   -2.9292   -3.3904 H   0  0  0  0  0  0  0  0  0  0  0  0
   -7.6965   -0.6569   -2.8593 H   0  0  0  0  0  0  0  0  0  0  0  0
   -6.4088    0.7467   -1.3019 H   0  0  0  0  0  0  0  0  0  0  0  0
   -3.4946    2.5581    0.7204 H   0  0  0  0  0  0  0  0  0  0  0  0
   -4.6960    4.0078    2.3039 H   0  0  0  0  0  0  0  0  0  0  0  0
   -6.7668    3.2134    3.3654 H   0  0  0  0  0  0  0  0  0  0  0  0
   -7.6297    0.9695    2.8485 H   0  0  0  0  0  0  0  0  0  0  0  0
   -6.4140   -0.4802    1.2754 H   0  0  0  0  0  0  0  0  0  0  0  0
   -2.5720   -0.3019   -2.1222 H   0  0  0  0  0  0  0  0  0  0  0  0
   -0.1219   -0.3854   -2.1219 H   0  0  0  0  0  0  0  0  0  0  0  0
    1.6641   -1.6104   -1.5321 H   0  0  0  0  0  0  0  0  0  0  0  0
    4.1067   -1.7292   -1.5184 H   0  0  0  0  0  0  0  0  0  0  0  0
  1  2  2  0  0  0  0
  2  3  1  0  0  0  0
  3  4  2  0  0  0  0
  4  5  1  0  0  0  0
  5  6  2  0  0  0  0
  6  7  1  0  0  0  0
  7  8  2  0  0  0  0
  1  9  1  0  0  0  0
  9 10  2  0  0  0  0
 10 11  1  0  0  0  0
 11 12  2  0  0  0  0
 12 13  1  0  0  0  0
 13 14  2  0  0  0  0
 14 15  1  0  0  0  0
 15 16  2  0  0  0  0
 16 17  1  0  0  0  0
 17 18  1  0  0  0  0
 18 19  2  0  0  0  0
 19 20  1  0  0  0  0
 20 21  2  0  0  0  0
 21 22  1  0  0  0  0
 22 23  2  0  0  0  0
 17 24  1  0  0  0  0
 24 25  2  0  0  0  0
 25 26  1  0  0  0  0
 26 27  2  0  0  0  0
 27 28  1  0  0  0  0
 28 29  2  0  0  0  0
 16 30  1  0  0  0  0
 30 31  2  0  0  0  0
 12 32  1  0  0  0  0
 32 33  2  0  0  0  0
  8  3  1  0  0  0  0
 33  9  1  0  0  0  0
 31 13  1  0  0  0  0
 23 18  1  0  0  0  0
 29 24  1  0  0  0  0
  1 34  1  0  0  0  0
  2 35  1  0  0  0  0
  5 36  1  0  0  0  0
  6 37  1  0  0  0  0
  7 38  1  0  0  0  0
 10 39  1  0  0  0  0
 11 40  1  0  0  0  0
 14 41  1  0  0  0  0
 15 42  1  0  0  0  0
 19 43  1  0  0  0  0
 20 44  1  0  0  0  0
 21 45  1  0  0  0  0
 22 46  1  0  0  0  0
 23 47  1  0  0  0  0
 25 48  1  0  0  0  0
 26 49  1  0  0  0  0
 27 50  1  0  0  0  0
 28 51  1  0  0  0  0
 29 52  1  0  0  0  0
 30 53  1  0  0  0  0
 31 54  1  0  0  0  0
 32 55  1  0  0  0  0
 33 56  1  0  0  0  0
M  END
