
  xtb     03012221293D
 energy: -7.320926169057 gnorm: 0.000418926187 xtb: 6.4.1 (afa7bdf)
 35 37  0     0  0            999 V2000
   -7.8397   -0.6763    0.0447 C   0  0  0  0  0  0  0  0  0  0  0  0
   -6.3582   -0.8117    0.0175 C   0  0  0  0  0  0  0  0  0  0  0  0
   -5.8655   -1.9167   -0.0298 O   0  0  0  0  0  0  0  0  0  0  0  0
   -5.5959    0.3487    0.0655 N   0  0  0  0  0  0  0  0  0  0  0  0
   -4.1978    0.4128    0.0570 C   0  0  0  0  0  0  0  0  0  0  0  0
   -3.5496    1.6473    0.1168 C   0  0  0  0  0  0  0  0  0  0  0  0
   -2.1804    1.7217    0.1082 C   0  0  0  0  0  0  0  0  0  0  0  0
   -1.4072    0.5636    0.0390 C   0  0  0  0  0  0  0  0  0  0  0  0
   -0.0327    0.6375    0.0313 N   0  0  0  0  0  0  0  0  0  0  0  0
    0.6468   -0.4004   -0.0306 N   0  0  0  0  0  0  0  0  0  0  0  0
    2.0059   -0.3405   -0.0341 C   0  0  0  0  0  0  0  0  0  0  0  0
    2.7859   -1.3823   -0.1074 N   0  0  0  0  0  0  0  0  0  0  0  0
    4.1183   -1.0335   -0.0920 C   0  0  0  0  0  0  0  0  0  0  0  0
    5.1950   -1.9304   -0.1588 C   0  0  0  0  0  0  0  0  0  0  0  0
    6.4747   -1.4450   -0.1342 C   0  0  0  0  0  0  0  0  0  0  0  0
    6.7207   -0.0747   -0.0436 C   0  0  0  0  0  0  0  0  0  0  0  0
    8.0933    0.4177   -0.0203 N   0  0  0  0  0  4  0  0  0  0  0  0
    9.0165   -0.4051   -0.0646 O   0  0  0  0  0  0  0  0  0  0  0  0
    8.2793    1.6394    0.0429 O   0  0  0  0  0  1  0  0  0  0  0  0
    5.6751    0.8174    0.0226 C   0  0  0  0  0  0  0  0  0  0  0  0
    4.3772    0.3402   -0.0019 C   0  0  0  0  0  0  0  0  0  0  0  0
    2.8691    1.1925    0.0628 S   0  0  0  0  0  0  0  0  0  0  0  0
   -2.0505   -0.6700   -0.0210 C   0  0  0  0  0  0  0  0  0  0  0  0
   -3.4187   -0.7405   -0.0116 C   0  0  0  0  0  0  0  0  0  0  0  0
   -8.2903   -1.4019   -0.6314 H   0  0  0  0  0  0  0  0  0  0  0  0
   -8.2197   -0.8695    1.0470 H   0  0  0  0  0  0  0  0  0  0  0  0
   -8.1563    0.3199   -0.2615 H   0  0  0  0  0  0  0  0  0  0  0  0
   -6.0925    1.2328    0.1158 H   0  0  0  0  0  0  0  0  0  0  0  0
   -4.1405    2.5450    0.1700 H   0  0  0  0  0  0  0  0  0  0  0  0
   -1.6802    2.6729    0.1544 H   0  0  0  0  0  0  0  0  0  0  0  0
    4.9962   -2.9849   -0.2291 H   0  0  0  0  0  0  0  0  0  0  0  0
    7.3190   -2.1127   -0.1850 H   0  0  0  0  0  0  0  0  0  0  0  0
    5.8725    1.8724    0.0909 H   0  0  0  0  0  0  0  0  0  0  0  0
   -1.4499   -1.5608   -0.0738 H   0  0  0  0  0  0  0  0  0  0  0  0
   -3.9201   -1.6911   -0.0560 H   0  0  0  0  0  0  0  0  0  0  0  0
  1  2  1  0  0  0  0
  2  3  2  0  0  0  0
  2  4  1  0  0  0  0
  4  5  1  0  0  0  0
  5  6  2  0  0  0  0
  6  7  1  0  0  0  0
  7  8  2  0  0  0  0
  8  9  1  0  0  0  0
  9 10  2  0  0  0  0
 10 11  1  0  0  0  0
 11 12  2  0  0  0  0
 12 13  1  0  0  0  0
 13 14  2  0  0  0  0
 14 15  1  0  0  0  0
 15 16  2  0  0  0  0
 16 17  1  0  0  0  0
 17 18  2  0  0  0  0
 17 19  1  0  0  0  0
 16 20  1  0  0  0  0
 20 21  2  0  0  0  0
 21 22  1  0  0  0  0
  8 23  1  0  0  0  0
 23 24  2  0  0  0  0
 24  5  1  0  0  0  0
 22 11  1  0  0  0  0
 21 13  1  0  0  0  0
  1 25  1  0  0  0  0
  1 26  1  0  0  0  0
  1 27  1  0  0  0  0
  4 28  1  0  0  0  0
  6 29  1  0  0  0  0
  7 30  1  0  0  0  0
 14 31  1  0  0  0  0
 15 32  1  0  0  0  0
 20 33  1  0  0  0  0
 23 34  1  0  0  0  0
 24 35  1  0  0  0  0
M  CHG  1  17   1
M  CHG  1  19  -1
M  END
