
  xtb     03012221203D
 energy: -9.031006525734 gnorm: 0.000245615335 xtb: 6.4.1 (afa7bdf)
 42 45  0     0  0            999 V2000
   -3.4687    3.7091   -0.1992 C   0  0  0  0  0  0  0  0  0  0  0  0
   -2.3009    3.5246   -0.9136 C   0  0  0  0  0  0  0  0  0  0  0  0
   -1.6303    2.3248   -0.8400 C   0  0  0  0  0  0  0  0  0  0  0  0
   -2.1148    1.2863   -0.0485 C   0  0  0  0  0  0  0  0  0  0  0  0
   -1.4165    0.0348    0.0275 N   0  0  0  0  0  0  0  0  0  0  0  0
   -2.1576   -1.1924    0.0984 C   0  0  0  0  0  0  0  0  0  0  0  0
   -1.7131   -2.2475    0.8912 C   0  0  0  0  0  0  0  0  0  0  0  0
   -2.4263   -3.4226    0.9622 C   0  0  0  0  0  0  0  0  0  0  0  0
   -3.5970   -3.5656    0.2430 C   0  0  0  0  0  0  0  0  0  0  0  0
   -4.0522   -2.5285   -0.5478 C   0  0  0  0  0  0  0  0  0  0  0  0
   -3.3399   -1.3528   -0.6197 C   0  0  0  0  0  0  0  0  0  0  0  0
    0.0152    0.0111    0.0249 C   0  0  0  0  0  0  0  0  0  0  0  0
    0.7467    1.0219    0.6449 C   0  0  0  0  0  0  0  0  0  0  0  0
    2.1189    0.9982    0.6372 C   0  0  0  0  0  0  0  0  0  0  0  0
    2.8215   -0.0296    0.0090 C   0  0  0  0  0  0  0  0  0  0  0  0
    4.2905   -0.0021    0.0319 C   0  0  0  0  0  0  0  0  0  0  0  0
    5.0539   -0.9041   -0.6913 C   0  0  0  0  0  0  0  0  0  0  0  0
    6.4130   -0.8080   -0.6127 C   0  0  0  0  0  0  0  0  0  0  0  0
    7.0214    0.1022    0.1175 N   0  0  0  0  0  0  0  0  0  0  0  0
    6.2037    0.9092    0.7584 C   0  0  0  0  0  0  0  0  0  0  0  0
    4.8891    0.9315    0.7721 N   0  0  0  0  0  0  0  0  0  0  0  0
    2.0854   -1.0448   -0.6072 C   0  0  0  0  0  0  0  0  0  0  0  0
    0.7122   -1.0225   -0.5981 C   0  0  0  0  0  0  0  0  0  0  0  0
   -3.2940    1.4884    0.6642 C   0  0  0  0  0  0  0  0  0  0  0  0
   -3.9639    2.6886    0.5893 C   0  0  0  0  0  0  0  0  0  0  0  0
   -3.9931    4.6486   -0.2572 H   0  0  0  0  0  0  0  0  0  0  0  0
   -1.9153    4.3198   -1.5300 H   0  0  0  0  0  0  0  0  0  0  0  0
   -0.7258    2.1703   -1.4027 H   0  0  0  0  0  0  0  0  0  0  0  0
   -0.8059   -2.1250    1.4576 H   0  0  0  0  0  0  0  0  0  0  0  0
   -2.0720   -4.2307    1.5806 H   0  0  0  0  0  0  0  0  0  0  0  0
   -4.1550   -4.4858    0.2992 H   0  0  0  0  0  0  0  0  0  0  0  0
   -4.9648   -2.6402   -1.1096 H   0  0  0  0  0  0  0  0  0  0  0  0
   -3.6839   -0.5437   -1.2408 H   0  0  0  0  0  0  0  0  0  0  0  0
    0.2182    1.8168    1.1413 H   0  0  0  0  0  0  0  0  0  0  0  0
    2.6794    1.7789    1.1208 H   0  0  0  0  0  0  0  0  0  0  0  0
    4.5941   -1.6533   -1.3096 H   0  0  0  0  0  0  0  0  0  0  0  0
    7.0386   -1.4943   -1.1641 H   0  0  0  0  0  0  0  0  0  0  0  0
    6.6835    1.6663    1.3630 H   0  0  0  0  0  0  0  0  0  0  0  0
    2.5955   -1.8599   -1.0872 H   0  0  0  0  0  0  0  0  0  0  0  0
    0.1535   -1.8025   -1.0850 H   0  0  0  0  0  0  0  0  0  0  0  0
   -3.6693    0.6919    1.2835 H   0  0  0  0  0  0  0  0  0  0  0  0
   -4.8745    2.8325    1.1469 H   0  0  0  0  0  0  0  0  0  0  0  0
  1  2  2  0  0  0  0
  2  3  1  0  0  0  0
  3  4  2  0  0  0  0
  4  5  1  0  0  0  0
  5  6  1  0  0  0  0
  6  7  2  0  0  0  0
  7  8  1  0  0  0  0
  8  9  2  0  0  0  0
  9 10  1  0  0  0  0
 10 11  2  0  0  0  0
  5 12  1  0  0  0  0
 12 13  2  0  0  0  0
 13 14  1  0  0  0  0
 14 15  2  0  0  0  0
 15 16  1  0  0  0  0
 16 17  2  0  0  0  0
 17 18  1  0  0  0  0
 18 19  2  0  0  0  0
 19 20  1  0  0  0  0
 20 21  2  0  0  0  0
 15 22  1  0  0  0  0
 22 23  2  0  0  0  0
  4 24  1  0  0  0  0
 24 25  2  0  0  0  0
 25  1  1  0  0  0  0
 11  6  1  0  0  0  0
 23 12  1  0  0  0  0
 21 16  1  0  0  0  0
  1 26  1  0  0  0  0
  2 27  1  0  0  0  0
  3 28  1  0  0  0  0
  7 29  1  0  0  0  0
  8 30  1  0  0  0  0
  9 31  1  0  0  0  0
 10 32  1  0  0  0  0
 11 33  1  0  0  0  0
 13 34  1  0  0  0  0
 14 35  1  0  0  0  0
 17 36  1  0  0  0  0
 18 37  1  0  0  0  0
 20 38  1  0  0  0  0
 22 39  1  0  0  0  0
 23 40  1  0  0  0  0
 24 41  1  0  0  0  0
 25 42  1  0  0  0  0
M  END
