
  xtb     03012221293D
 energy: -15.121265359876 gnorm: 0.000243550892 xtb: 6.4.1 (afa7bdf)
 78 84  0     0  0            999 V2000
   11.8482    2.4990   -1.3890 N   0  0  0  0  0  0  0  0  0  0  0  0
   12.2871    1.9029   -0.1402 C   0  0  0  0  0  0  0  0  0  0  0  0
   11.5483    0.6052    0.1683 C   0  0  0  0  0  0  0  0  0  0  0  0
   10.0408    0.8150    0.2903 C   0  0  0  0  0  0  0  0  0  0  0  0
    9.2738   -0.4821    0.5514 C   0  0  0  0  0  0  0  0  0  0  0  0
    7.7653   -0.2799    0.7319 C   0  0  0  0  0  0  0  0  0  0  0  0
    7.0529    0.1942   -0.5365 C   0  0  0  0  0  0  0  0  0  0  0  0
    5.5468    0.3968   -0.3530 C   0  0  0  0  0  0  0  0  0  0  0  0
    4.7794   -0.8956   -0.0806 C   0  0  0  0  0  0  0  0  0  0  0  0
    3.2695   -0.6807    0.0045 C   0  0  0  0  0  0  0  0  0  0  0  0
    2.4960   -1.9688    0.2886 C   0  0  0  0  0  0  0  0  0  0  0  0
    0.9861   -1.7531    0.4047 C   0  0  0  0  0  0  0  0  0  0  0  0
    0.3261   -1.3473   -0.9010 C   0  0  0  0  0  0  0  0  0  0  0  0
   -1.0849   -1.0805   -0.7147 N   0  0  0  0  0  0  0  0  0  0  0  0
   -1.9980   -2.0900   -1.0417 C   0  0  0  0  0  0  0  0  0  0  0  0
   -1.6159   -3.1646   -1.4731 O   0  0  0  0  0  0  0  0  0  0  0  0
   -3.4169   -1.8063   -0.8428 C   0  0  0  0  0  0  0  0  0  0  0  0
   -4.3649   -2.7474   -1.1683 C   0  0  0  0  0  0  0  0  0  0  0  0
   -5.7105   -2.4971   -0.9908 C   0  0  0  0  0  0  0  0  0  0  0  0
   -6.1656   -1.2876   -0.4771 C   0  0  0  0  0  0  0  0  0  0  0  0
   -7.5808   -1.0123   -0.2881 C   0  0  0  0  0  0  0  0  0  0  0  0
   -8.5639   -1.9421   -0.6094 C   0  0  0  0  0  0  0  0  0  0  0  0
   -9.9050   -1.6705   -0.4287 C   0  0  0  0  0  0  0  0  0  0  0  0
  -10.3230   -0.4631    0.0788 C   0  0  0  0  0  0  0  0  0  0  0  0
   -9.3636    0.5169    0.4222 C   0  0  0  0  0  0  0  0  0  0  0  0
   -9.7739    1.7648    0.9452 C   0  0  0  0  0  0  0  0  0  0  0  0
   -8.8265    2.7054    1.2734 C   0  0  0  0  0  0  0  0  0  0  0  0
   -7.4808    2.4520    1.1010 C   0  0  0  0  0  0  0  0  0  0  0  0
   -7.0253    1.2412    0.5905 C   0  0  0  0  0  0  0  0  0  0  0  0
   -5.6100    0.9650    0.4041 C   0  0  0  0  0  0  0  0  0  0  0  0
   -4.6272    1.8934    0.7297 C   0  0  0  0  0  0  0  0  0  0  0  0
   -3.2864    1.6224    0.5466 C   0  0  0  0  0  0  0  0  0  0  0  0
   -2.8676    0.4185    0.0314 C   0  0  0  0  0  0  0  0  0  0  0  0
   -3.8270   -0.5607   -0.3146 C   0  0  0  0  0  0  0  0  0  0  0  0
   -5.2084   -0.2929   -0.1283 C   0  0  0  0  0  0  0  0  0  0  0  0
   -1.4439    0.1518   -0.1555 C   0  0  0  0  0  0  0  0  0  0  0  0
   -0.5929    0.9642    0.1665 O   0  0  0  0  0  0  0  0  0  0  0  0
   -7.9822    0.2470    0.2407 C   0  0  0  0  0  0  0  0  0  0  0  0
  -11.1951    2.0493    1.1334 C   0  0  0  0  0  0  0  0  0  0  0  0
  -11.5709    3.1183    1.5822 O   0  0  0  0  0  0  0  0  0  0  0  0
  -12.0923    1.0508    0.7791 N   0  0  0  0  0  0  0  0  0  0  0  0
  -11.7472   -0.1909    0.2628 C   0  0  0  0  0  0  0  0  0  0  0  0
  -12.5912   -1.0213   -0.0261 O   0  0  0  0  0  0  0  0  0  0  0  0
   12.3571    3.3499   -1.6016 H   0  0  0  0  0  0  0  0  0  0  0  0
   11.9943    1.8593   -2.1601 H   0  0  0  0  0  0  0  0  0  0  0  0
   13.3724    1.7336   -0.1647 H   0  0  0  0  0  0  0  0  0  0  0  0
   12.1113    2.6226    0.6689 H   0  0  0  0  0  0  0  0  0  0  0  0
   11.9344    0.1521    1.0896 H   0  0  0  0  0  0  0  0  0  0  0  0
   11.7502   -0.1252   -0.6235 H   0  0  0  0  0  0  0  0  0  0  0  0
    9.6720    1.2938   -0.6235 H   0  0  0  0  0  0  0  0  0  0  0  0
    9.8336    1.5342    1.0914 H   0  0  0  0  0  0  0  0  0  0  0  0
    9.4529   -1.1836   -0.2717 H   0  0  0  0  0  0  0  0  0  0  0  0
    9.6944   -0.9697    1.4399 H   0  0  0  0  0  0  0  0  0  0  0  0
    7.3080   -1.2158    1.0757 H   0  0  0  0  0  0  0  0  0  0  0  0
    7.5873    0.4394    1.5404 H   0  0  0  0  0  0  0  0  0  0  0  0
    7.5102    1.1289   -0.8813 H   0  0  0  0  0  0  0  0  0  0  0  0
    7.2288   -0.5261   -1.3435 H   0  0  0  0  0  0  0  0  0  0  0  0
    5.1232    0.8785   -1.2451 H   0  0  0  0  0  0  0  0  0  0  0  0
    5.3678    1.1065    0.4651 H   0  0  0  0  0  0  0  0  0  0  0  0
    5.0025   -1.6279   -0.8656 H   0  0  0  0  0  0  0  0  0  0  0  0
    5.1343   -1.3546    0.8489 H   0  0  0  0  0  0  0  0  0  0  0  0
    2.9153   -0.2292   -0.9284 H   0  0  0  0  0  0  0  0  0  0  0  0
    3.0457    0.0599    0.7809 H   0  0  0  0  0  0  0  0  0  0  0  0
    2.7009   -2.7019   -0.4995 H   0  0  0  0  0  0  0  0  0  0  0  0
    2.8819   -2.4206    1.2105 H   0  0  0  0  0  0  0  0  0  0  0  0
    0.7787   -0.9812    1.1553 H   0  0  0  0  0  0  0  0  0  0  0  0
    0.4929   -2.6595    0.7772 H   0  0  0  0  0  0  0  0  0  0  0  0
    0.4318   -2.1321   -1.6577 H   0  0  0  0  0  0  0  0  0  0  0  0
    0.7803   -0.4398   -1.3099 H   0  0  0  0  0  0  0  0  0  0  0  0
   -4.0298   -3.6910   -1.5694 H   0  0  0  0  0  0  0  0  0  0  0  0
   -6.4120   -3.2635   -1.2608 H   0  0  0  0  0  0  0  0  0  0  0  0
   -8.2864   -2.8994   -1.0094 H   0  0  0  0  0  0  0  0  0  0  0  0
  -10.6543   -2.4035   -0.6838 H   0  0  0  0  0  0  0  0  0  0  0  0
   -9.1626    3.6505    1.6703 H   0  0  0  0  0  0  0  0  0  0  0  0
   -6.7789    3.2186    1.3712 H   0  0  0  0  0  0  0  0  0  0  0  0
   -4.9046    2.8482    1.1345 H   0  0  0  0  0  0  0  0  0  0  0  0
   -2.5380    2.3550    0.8045 H   0  0  0  0  0  0  0  0  0  0  0  0
  -13.0739    1.2432    0.9071 H   0  0  0  0  0  0  0  0  0  0  0  0
  1  2  1  0  0  0  0
  2  3  1  0  0  0  0
  3  4  1  0  0  0  0
  4  5  1  0  0  0  0
  5  6  1  0  0  0  0
  6  7  1  0  0  0  0
  7  8  1  0  0  0  0
  8  9  1  0  0  0  0
  9 10  1  0  0  0  0
 10 11  1  0  0  0  0
 11 12  1  0  0  0  0
 12 13  1  0  0  0  0
 13 14  1  0  0  0  0
 14 15  1  0  0  0  0
 15 16  2  0  0  0  0
 15 17  1  0  0  0  0
 17 18  2  0  0  0  0
 18 19  1  0  0  0  0
 19 20  2  0  0  0  0
 20 21  1  0  0  0  0
 21 22  2  0  0  0  0
 22 23  1  0  0  0  0
 23 24  2  0  0  0  0
 24 25  1  0  0  0  0
 25 26  1  0  0  0  0
 26 27  2  0  0  0  0
 27 28  1  0  0  0  0
 28 29  2  0  0  0  0
 29 30  1  0  0  0  0
 30 31  2  0  0  0  0
 31 32  1  0  0  0  0
 32 33  2  0  0  0  0
 33 34  1  0  0  0  0
 34 35  2  0  0  0  0
 33 36  1  0  0  0  0
 36 37  2  0  0  0  0
 29 38  1  0  0  0  0
 26 39  1  0  0  0  0
 39 40  2  0  0  0  0
 39 41  1  0  0  0  0
 41 42  1  0  0  0  0
 42 43  2  0  0  0  0
 36 14  1  0  0  0  0
 34 17  1  0  0  0  0
 35 20  1  0  0  0  0
 38 21  1  0  0  0  0
 42 24  1  0  0  0  0
 38 25  2  0  0  0  0
 35 30  1  0  0  0  0
  1 44  1  0  0  0  0
  1 45  1  0  0  0  0
  2 46  1  0  0  0  0
  2 47  1  0  0  0  0
  3 48  1  0  0  0  0
  3 49  1  0  0  0  0
  4 50  1  0  0  0  0
  4 51  1  0  0  0  0
  5 52  1  0  0  0  0
  5 53  1  0  0  0  0
  6 54  1  0  0  0  0
  6 55  1  0  0  0  0
  7 56  1  0  0  0  0
  7 57  1  0  0  0  0
  8 58  1  0  0  0  0
  8 59  1  0  0  0  0
  9 60  1  0  0  0  0
  9 61  1  0  0  0  0
 10 62  1  0  0  0  0
 10 63  1  0  0  0  0
 11 64  1  0  0  0  0
 11 65  1  0  0  0  0
 12 66  1  0  0  0  0
 12 67  1  0  0  0  0
 13 68  1  0  0  0  0
 13 69  1  0  0  0  0
 18 70  1  0  0  0  0
 19 71  1  0  0  0  0
 22 72  1  0  0  0  0
 23 73  1  0  0  0  0
 27 74  1  0  0  0  0
 28 75  1  0  0  0  0
 31 76  1  0  0  0  0
 32 77  1  0  0  0  0
 41 78  1  0  0  0  0
M  END
