
  xtb     03012221303D
 energy: -5.459492474833 gnorm: 0.000320493800 xtb: 6.4.1 (afa7bdf)
 24 26  0     0  0            999 V2000
   -6.3252   -0.4557   -0.1913 N   0  0  0  0  0  0  0  0  0  0  0  0
   -5.1659   -0.3739   -0.1564 C   0  0  0  0  0  0  0  0  0  0  0  0
   -3.7707   -0.2768   -0.1154 C   0  0  0  0  0  0  0  0  0  0  0  0
   -3.1367    0.9379   -0.3570 C   0  0  0  0  0  0  0  0  0  0  0  0
   -1.7662    1.0296   -0.3160 C   0  0  0  0  0  0  0  0  0  0  0  0
   -0.9814   -0.0854   -0.0330 C   0  0  0  0  0  0  0  0  0  0  0  0
    0.4771    0.0528    0.0021 C   0  0  0  0  0  0  0  0  0  0  0  0
    1.3871   -0.9734    0.2718 C   0  0  0  0  0  0  0  0  0  0  0  0
    2.6476   -0.4297    0.2085 N   0  0  0  0  0  0  0  0  0  0  0  0
    4.0243   -0.5529    0.2987 C   0  0  0  0  0  0  0  0  0  0  0  0
    4.5867    0.6864    0.0489 C   0  0  0  0  0  0  0  0  0  0  0  0
    3.6006    1.6163   -0.2029 C   0  0  0  0  0  0  0  0  0  0  0  0
    2.3872    0.9511   -0.1105 N   0  0  0  0  0  4  0  0  0  0  0  0
    1.0923    1.2193   -0.2292 N   0  0  0  0  0  2  0  0  0  0  0  0
   -1.6197   -1.3014    0.2086 C   0  0  0  0  0  0  0  0  0  0  0  0
   -2.9906   -1.3938    0.1677 C   0  0  0  0  0  0  0  0  0  0  0  0
   -3.7367    1.8044   -0.5765 H   0  0  0  0  0  0  0  0  0  0  0  0
   -1.2760    1.9692   -0.5028 H   0  0  0  0  0  0  0  0  0  0  0  0
    1.1731   -2.0028    0.4910 H   0  0  0  0  0  0  0  0  0  0  0  0
    4.5421   -1.4675    0.5256 H   0  0  0  0  0  0  0  0  0  0  0  0
    5.6439    0.8948    0.0508 H   0  0  0  0  0  0  0  0  0  0  0  0
    3.7182    2.6599   -0.4295 H   0  0  0  0  0  0  0  0  0  0  0  0
   -1.0312   -2.1741    0.4289 H   0  0  0  0  0  0  0  0  0  0  0  0
   -3.4799   -2.3344    0.3548 H   0  0  0  0  0  0  0  0  0  0  0  0
  1  2  3  0  0  0  0
  2  3  1  0  0  0  0
  3  4  2  0  0  0  0
  4  5  1  0  0  0  0
  5  6  2  0  0  0  0
  6  7  1  0  0  0  0
  7  8  2  0  0  0  0
  8  9  1  0  0  0  0
  9 10  1  0  0  0  0
 10 11  2  0  0  0  0
 11 12  1  0  0  0  0
 12 13  2  0  0  0  0
 13 14  1  0  0  0  0
  6 15  1  0  0  0  0
 15 16  2  0  0  0  0
 16  3  1  0  0  0  0
 14  7  1  0  0  0  0
 13  9  1  0  0  0  0
  4 17  1  0  0  0  0
  5 18  1  0  0  0  0
  8 19  1  0  0  0  0
 10 20  1  0  0  0  0
 11 21  1  0  0  0  0
 12 22  1  0  0  0  0
 15 23  1  0  0  0  0
 16 24  1  0  0  0  0
M  CHG  1  13   1
M  CHG  1  14  -1
M  END
