
  xtb     03012221283D
 energy: -10.040902005254 gnorm: 0.000390145784 xtb: 6.4.1 (afa7bdf)
 46 50  0     0  0            999 V2000
   -2.8642    0.5044   -0.0145 C   0  0  0  0  0  0  0  0  0  0  0  0
   -3.6650   -0.5522    0.2051 C   0  0  0  0  0  0  0  0  0  0  0  0
   -5.0975   -0.4728    0.1976 C   0  0  0  0  0  0  0  0  0  0  0  0
   -5.8915   -1.5173    0.4147 N   0  0  0  0  0  0  0  0  0  0  0  0
   -7.1667   -1.0509    0.3276 C   0  0  0  0  0  0  0  0  0  0  0  0
   -8.3947   -1.7163    0.4703 C   0  0  0  0  0  0  0  0  0  0  0  0
   -9.5533   -0.9998    0.3317 C   0  0  0  0  0  0  0  0  0  0  0  0
   -9.5319    0.3760    0.0519 C   0  0  0  0  0  0  0  0  0  0  0  0
   -8.3492    1.0510   -0.0924 C   0  0  0  0  0  0  0  0  0  0  0  0
   -7.1542    0.3362    0.0456 C   0  0  0  0  0  0  0  0  0  0  0  0
   -5.8289    0.6900   -0.0343 N   0  0  0  0  0  0  0  0  0  0  0  0
   -1.4174    0.4833   -0.0190 C   0  0  0  0  0  0  0  0  0  0  0  0
   -0.6797   -0.6814    0.2133 C   0  0  0  0  0  0  0  0  0  0  0  0
    0.6931   -0.6637    0.2014 C   0  0  0  0  0  0  0  0  0  0  0  0
    1.3969    0.5192   -0.0433 C   0  0  0  0  0  0  0  0  0  0  0  0
    2.8423    0.5748   -0.0633 C   0  0  0  0  0  0  0  0  0  0  0  0
    3.6749   -0.4590    0.1418 C   0  0  0  0  0  0  0  0  0  0  0  0
    5.0991   -0.3036    0.1016 C   0  0  0  0  0  0  0  0  0  0  0  0
    5.7212    0.8469   -0.1360 N   0  0  0  0  0  0  0  0  0  0  0  0
    7.0536    0.5733   -0.0885 C   0  0  0  0  0  0  0  0  0  0  0  0
    8.1650    1.4128   -0.2659 C   0  0  0  0  0  0  0  0  0  0  0  0
    9.4204    0.8756   -0.1643 C   0  0  0  0  0  0  0  0  0  0  0  0
    9.6111   -0.4879    0.1117 C   0  0  0  0  0  0  0  0  0  0  0  0
    8.5462   -1.3303    0.2894 C   0  0  0  0  0  0  0  0  0  0  0  0
    7.2548   -0.8007    0.1896 C   0  0  0  0  0  0  0  0  0  0  0  0
    5.9990   -1.3460    0.3080 N   0  0  0  0  0  0  0  0  0  0  0  0
    0.6590    1.6831   -0.2754 C   0  0  0  0  0  0  0  0  0  0  0  0
   -0.7129    1.6655   -0.2635 C   0  0  0  0  0  0  0  0  0  0  0  0
   -3.3282    1.4557   -0.2050 H   0  0  0  0  0  0  0  0  0  0  0  0
   -3.2398   -1.5179    0.3988 H   0  0  0  0  0  0  0  0  0  0  0  0
   -8.4033   -2.7698    0.6844 H   0  0  0  0  0  0  0  0  0  0  0  0
  -10.5018   -1.4999    0.4390 H   0  0  0  0  0  0  0  0  0  0  0  0
  -10.4633    0.9081   -0.0506 H   0  0  0  0  0  0  0  0  0  0  0  0
   -8.3209    2.1043   -0.3066 H   0  0  0  0  0  0  0  0  0  0  0  0
   -5.4749    1.6279   -0.2270 H   0  0  0  0  0  0  0  0  0  0  0  0
   -1.1928   -1.6067    0.4045 H   0  0  0  0  0  0  0  0  0  0  0  0
    1.2338   -1.5751    0.3834 H   0  0  0  0  0  0  0  0  0  0  0  0
    3.2898    1.5338   -0.2609 H   0  0  0  0  0  0  0  0  0  0  0  0
    3.2879   -1.4389    0.3433 H   0  0  0  0  0  0  0  0  0  0  0  0
    8.0115    2.4557   -0.4770 H   0  0  0  0  0  0  0  0  0  0  0  0
   10.2809    1.5103   -0.2985 H   0  0  0  0  0  0  0  0  0  0  0  0
   10.6136   -0.8762    0.1846 H   0  0  0  0  0  0  0  0  0  0  0  0
    8.6805   -2.3758    0.5011 H   0  0  0  0  0  0  0  0  0  0  0  0
    5.7775   -2.3226    0.5079 H   0  0  0  0  0  0  0  0  0  0  0  0
    1.1830    2.6041   -0.4658 H   0  0  0  0  0  0  0  0  0  0  0  0
   -1.2632    2.5729   -0.4446 H   0  0  0  0  0  0  0  0  0  0  0  0
  1  2  2  0  0  0  0
  2  3  1  0  0  0  0
  3  4  2  0  0  0  0
  4  5  1  0  0  0  0
  5  6  2  0  0  0  0
  6  7  1  0  0  0  0
  7  8  2  0  0  0  0
  8  9  1  0  0  0  0
  9 10  2  0  0  0  0
 10 11  1  0  0  0  0
  1 12  1  0  0  0  0
 12 13  2  0  0  0  0
 13 14  1  0  0  0  0
 14 15  2  0  0  0  0
 15 16  1  0  0  0  0
 16 17  2  0  0  0  0
 17 18  1  0  0  0  0
 18 19  2  0  0  0  0
 19 20  1  0  0  0  0
 20 21  2  0  0  0  0
 21 22  1  0  0  0  0
 22 23  2  0  0  0  0
 23 24  1  0  0  0  0
 24 25  2  0  0  0  0
 25 26  1  0  0  0  0
 15 27  1  0  0  0  0
 27 28  2  0  0  0  0
 11  3  1  0  0  0  0
 28 12  1  0  0  0  0
 10  5  1  0  0  0  0
 26 18  1  0  0  0  0
 25 20  1  0  0  0  0
  1 29  1  0  0  0  0
  2 30  1  0  0  0  0
  6 31  1  0  0  0  0
  7 32  1  0  0  0  0
  8 33  1  0  0  0  0
  9 34  1  0  0  0  0
 11 35  1  0  0  0  0
 13 36  1  0  0  0  0
 14 37  1  0  0  0  0
 16 38  1  0  0  0  0
 17 39  1  0  0  0  0
 21 40  1  0  0  0  0
 22 41  1  0  0  0  0
 23 42  1  0  0  0  0
 24 43  1  0  0  0  0
 26 44  1  0  0  0  0
 27 45  1  0  0  0  0
 28 46  1  0  0  0  0
M  END
