
  xtb     03012221273D
 energy: -6.433406679972 gnorm: 0.000211869224 xtb: 6.4.1 (afa7bdf)
 32 33  0     0  0            999 V2000
   -5.2637    0.0339   -0.8206 C   0  0  0  0  0  0  0  0  0  0  0  0
   -4.4299    0.2207    0.3658 N   0  0  0  0  0  0  0  0  0  0  0  0
   -5.1225    0.4773    1.6277 C   0  0  0  0  0  0  0  0  0  0  0  0
   -3.0246    0.1531    0.2972 C   0  0  0  0  0  0  0  0  0  0  0  0
   -2.2332    0.4253    1.4170 C   0  0  0  0  0  0  0  0  0  0  0  0
   -0.8620    0.3587    1.3492 C   0  0  0  0  0  0  0  0  0  0  0  0
   -0.2195    0.0168    0.1613 C   0  0  0  0  0  0  0  0  0  0  0  0
    1.1853   -0.0526    0.0947 C   0  0  0  0  0  0  0  0  0  0  0  0
    2.4050   -0.1142    0.0400 C   0  0  0  0  0  0  0  0  0  0  0  0
    3.8121   -0.1871   -0.0219 C   0  0  0  0  0  0  0  0  0  0  0  0
    4.5923    0.1869    1.0679 C   0  0  0  0  0  0  0  0  0  0  0  0
    5.9681    0.1138    1.0083 C   0  0  0  0  0  0  0  0  0  0  0  0
    6.5872   -0.3342   -0.1412 C   0  0  0  0  0  0  0  0  0  0  0  0
    5.8281   -0.7089   -1.2316 C   0  0  0  0  0  0  0  0  0  0  0  0
    4.4523   -0.6361   -1.1728 C   0  0  0  0  0  0  0  0  0  0  0  0
   -1.0036   -0.2553   -0.9576 C   0  0  0  0  0  0  0  0  0  0  0  0
   -2.3750   -0.1888   -0.8926 C   0  0  0  0  0  0  0  0  0  0  0  0
   -6.3079    0.2523   -0.6051 H   0  0  0  0  0  0  0  0  0  0  0  0
   -5.1928   -0.9954   -1.1682 H   0  0  0  0  0  0  0  0  0  0  0  0
   -4.9383    0.7024   -1.6157 H   0  0  0  0  0  0  0  0  0  0  0  0
   -4.9139    1.4898    1.9687 H   0  0  0  0  0  0  0  0  0  0  0  0
   -4.7917   -0.2299    2.3863 H   0  0  0  0  0  0  0  0  0  0  0  0
   -6.1993    0.3686    1.5140 H   0  0  0  0  0  0  0  0  0  0  0  0
   -2.7058    0.6981    2.3436 H   0  0  0  0  0  0  0  0  0  0  0  0
   -0.2646    0.5720    2.2192 H   0  0  0  0  0  0  0  0  0  0  0  0
    4.1042    0.5355    1.9625 H   0  0  0  0  0  0  0  0  0  0  0  0
    6.5600    0.4064    1.8600 H   0  0  0  0  0  0  0  0  0  0  0  0
    7.6626   -0.3916   -0.1873 H   0  0  0  0  0  0  0  0  0  0  0  0
    6.3108   -1.0587   -2.1293 H   0  0  0  0  0  0  0  0  0  0  0  0
    3.8554   -0.9274   -2.0207 H   0  0  0  0  0  0  0  0  0  0  0  0
   -0.5163   -0.5213   -1.8802 H   0  0  0  0  0  0  0  0  0  0  0  0
   -2.9589   -0.4100   -1.7679 H   0  0  0  0  0  0  0  0  0  0  0  0
  1  2  1  0  0  0  0
  2  3  1  0  0  0  0
  2  4  1  0  0  0  0
  4  5  2  0  0  0  0
  5  6  1  0  0  0  0
  6  7  2  0  0  0  0
  7  8  1  0  0  0  0
  8  9  3  0  0  0  0
  9 10  1  0  0  0  0
 10 11  2  0  0  0  0
 11 12  1  0  0  0  0
 12 13  2  0  0  0  0
 13 14  1  0  0  0  0
 14 15  2  0  0  0  0
  7 16  1  0  0  0  0
 16 17  2  0  0  0  0
 17  4  1  0  0  0  0
 15 10  1  0  0  0  0
  1 18  1  0  0  0  0
  1 19  1  0  0  0  0
  1 20  1  0  0  0  0
  3 21  1  0  0  0  0
  3 22  1  0  0  0  0
  3 23  1  0  0  0  0
  5 24  1  0  0  0  0
  6 25  1  0  0  0  0
 11 26  1  0  0  0  0
 12 27  1  0  0  0  0
 13 28  1  0  0  0  0
 14 29  1  0  0  0  0
 15 30  1  0  0  0  0
 16 31  1  0  0  0  0
 17 32  1  0  0  0  0
M  END
