
  xtb     03012221283D
 energy: -11.756508774862 gnorm: 0.000477177659 xtb: 6.4.1 (afa7bdf)
 57 61  0     0  0            999 V2000
   -4.8267   -2.0031    1.3376 C   0  0  0  0  0  0  0  0  0  0  0  0
   -3.3445   -1.9997    1.2875 C   0  0  0  0  0  0  0  0  0  0  0  0
   -2.5404   -0.9812    0.7285 C   0  0  0  0  0  0  0  0  0  0  0  0
   -2.9502    0.2069    0.1443 C   0  0  0  0  0  0  0  0  0  0  0  0
   -3.2659    1.2679   -0.3843 C   0  0  0  0  0  0  0  0  0  0  0  0
   -3.5885    2.4854   -0.9982 C   0  0  0  0  0  0  0  0  0  0  0  0
   -2.6549    3.1485   -1.7901 C   0  0  0  0  0  0  0  0  0  0  0  0
   -2.9674    4.3461   -2.3949 C   0  0  0  0  0  0  0  0  0  0  0  0
   -4.2186    4.9017   -2.2183 C   0  0  0  0  0  0  0  0  0  0  0  0
   -5.1566    4.2587   -1.4361 C   0  0  0  0  0  0  0  0  0  0  0  0
   -4.8449    3.0609   -0.8310 C   0  0  0  0  0  0  0  0  0  0  0  0
   -1.1811   -1.4078    0.8675 C   0  0  0  0  0  0  0  0  0  0  0  0
    0.0009   -0.7988    0.4888 C   0  0  0  0  0  0  0  0  0  0  0  0
    1.1843   -1.4651    0.7478 C   0  0  0  0  0  0  0  0  0  0  0  0
    2.5419   -1.0973    0.4820 C   0  0  0  0  0  0  0  0  0  0  0  0
    2.9487    0.0795   -0.1264 C   0  0  0  0  0  0  0  0  0  0  0  0
    3.2607    1.1344   -0.6693 C   0  0  0  0  0  0  0  0  0  0  0  0
    3.5817    2.3471   -1.2933 C   0  0  0  0  0  0  0  0  0  0  0  0
    4.8979    2.6564   -1.6242 C   0  0  0  0  0  0  0  0  0  0  0  0
    5.2071    3.8500   -2.2387 C   0  0  0  0  0  0  0  0  0  0  0  0
    4.2070    4.7546   -2.5330 C   0  0  0  0  0  0  0  0  0  0  0  0
    2.8963    4.4645   -2.2120 C   0  0  0  0  0  0  0  0  0  0  0  0
    2.5858    3.2714   -1.5974 C   0  0  0  0  0  0  0  0  0  0  0  0
    3.3490   -2.1557    0.9557 C   0  0  0  0  0  0  0  0  0  0  0  0
    4.8310   -2.1960    0.9188 C   0  0  0  0  0  0  0  0  0  0  0  0
    2.5174   -3.1431    1.5081 C   0  0  0  0  0  0  0  0  0  0  0  0
    2.8982   -4.4213    2.1333 C   0  0  0  0  0  0  0  0  0  0  0  0
    1.2477   -2.7046    1.3647 N   0  0  0  0  0  0  0  0  0  0  0  0
    0.0046   -3.4711    1.8272 B   0  0  0  0  0  4  0  0  0  0  0  0
   -0.0581   -4.6877    1.1546 F   0  0  0  0  0  0  0  0  0  0  0  0
    0.0689   -3.6556    3.2051 F   0  0  0  0  0  0  0  0  0  0  0  0
   -1.2406   -2.6453    1.4884 N   0  0  0  0  0  4  0  0  0  0  0  0
   -2.5092   -3.0298    1.7484 C   0  0  0  0  0  0  0  0  0  0  0  0
   -2.8857   -4.3000    2.3925 C   0  0  0  0  0  0  0  0  0  0  0  0
   -5.2245   -0.9991    1.1886 H   0  0  0  0  0  0  0  0  0  0  0  0
   -5.1835   -2.3644    2.3023 H   0  0  0  0  0  0  0  0  0  0  0  0
   -5.2385   -2.6471    0.5603 H   0  0  0  0  0  0  0  0  0  0  0  0
   -1.6798    2.7093   -1.9238 H   0  0  0  0  0  0  0  0  0  0  0  0
   -2.2359    4.8485   -3.0055 H   0  0  0  0  0  0  0  0  0  0  0  0
   -4.4631    5.8390   -2.6920 H   0  0  0  0  0  0  0  0  0  0  0  0
   -6.1325    4.6933   -1.2982 H   0  0  0  0  0  0  0  0  0  0  0  0
   -5.5727    2.5546   -0.2183 H   0  0  0  0  0  0  0  0  0  0  0  0
   -0.0003    0.1605    0.0075 H   0  0  0  0  0  0  0  0  0  0  0  0
    5.6742    1.9459   -1.3921 H   0  0  0  0  0  0  0  0  0  0  0  0
    6.2298    4.0772   -2.4896 H   0  0  0  0  0  0  0  0  0  0  0  0
    4.4496    5.6887   -3.0141 H   0  0  0  0  0  0  0  0  0  0  0  0
    2.1162    5.1711   -2.4415 H   0  0  0  0  0  0  0  0  0  0  0  0
    1.5645    3.0391   -1.3436 H   0  0  0  0  0  0  0  0  0  0  0  0
    5.2218   -1.4972    0.1789 H   0  0  0  0  0  0  0  0  0  0  0  0
    5.1881   -3.1925    0.6585 H   0  0  0  0  0  0  0  0  0  0  0  0
    5.2494   -1.9281    1.8892 H   0  0  0  0  0  0  0  0  0  0  0  0
    3.4037   -5.0709    1.4189 H   0  0  0  0  0  0  0  0  0  0  0  0
    3.5603   -4.2587    2.9838 H   0  0  0  0  0  0  0  0  0  0  0  0
    2.0075   -4.9400    2.4907 H   0  0  0  0  0  0  0  0  0  0  0  0
   -3.3934   -4.1221    3.3404 H   0  0  0  0  0  0  0  0  0  0  0  0
   -3.5442   -4.8839    1.7497 H   0  0  0  0  0  0  0  0  0  0  0  0
   -1.9929   -4.8939    2.5931 H   0  0  0  0  0  0  0  0  0  0  0  0
  1  2  1  0  0  0  0
  2  3  2  0  0  0  0
  3  4  1  0  0  0  0
  4  5  3  0  0  0  0
  5  6  1  0  0  0  0
  6  7  2  0  0  0  0
  7  8  1  0  0  0  0
  8  9  2  0  0  0  0
  9 10  1  0  0  0  0
 10 11  2  0  0  0  0
  3 12  1  0  0  0  0
 12 13  2  0  0  0  0
 13 14  1  0  0  0  0
 14 15  2  0  0  0  0
 15 16  1  0  0  0  0
 16 17  3  0  0  0  0
 17 18  1  0  0  0  0
 18 19  2  0  0  0  0
 19 20  1  0  0  0  0
 20 21  2  0  0  0  0
 21 22  1  0  0  0  0
 22 23  2  0  0  0  0
 15 24  1  0  0  0  0
 24 25  1  0  0  0  0
 24 26  2  0  0  0  0
 26 27  1  0  0  0  0
 26 28  1  0  0  0  0
 28 29  1  0  0  0  0
 29 30  1  0  0  0  0
 29 31  1  0  0  0  0
 29 32  1  0  0  0  0
 32 33  2  0  0  0  0
 33 34  1  0  0  0  0
 33  2  1  0  0  0  0
 11  6  1  0  0  0  0
 32 12  1  0  0  0  0
 28 14  1  0  0  0  0
 23 18  1  0  0  0  0
  1 35  1  0  0  0  0
  1 36  1  0  0  0  0
  1 37  1  0  0  0  0
  7 38  1  0  0  0  0
  8 39  1  0  0  0  0
  9 40  1  0  0  0  0
 10 41  1  0  0  0  0
 11 42  1  0  0  0  0
 13 43  1  0  0  0  0
 19 44  1  0  0  0  0
 20 45  1  0  0  0  0
 21 46  1  0  0  0  0
 22 47  1  0  0  0  0
 23 48  1  0  0  0  0
 25 49  1  0  0  0  0
 25 50  1  0  0  0  0
 25 51  1  0  0  0  0
 27 52  1  0  0  0  0
 27 53  1  0  0  0  0
 27 54  1  0  0  0  0
 34 55  1  0  0  0  0
 34 56  1  0  0  0  0
 34 57  1  0  0  0  0
M  CHG  1  29  -1
M  CHG  1  32   1
M  END
