
  xtb     03012221303D
 energy: -13.898110059426 gnorm: 0.000217773557 xtb: 6.4.1 (afa7bdf)
 62 69  0     0  0            999 V2000
   -8.8827   -2.7063   -2.1671 C   0  0  0  0  0  0  0  0  0  0  0  0
   -9.4233   -1.8407   -1.2474 C   0  0  0  0  0  0  0  0  0  0  0  0
   -8.5789   -0.9570   -0.6305 C   0  0  0  0  0  0  0  0  0  0  0  0
   -7.2271   -0.9600   -0.9446 C   0  0  0  0  0  0  0  0  0  0  0  0
   -6.3385   -0.0017   -0.2688 C   0  0  0  0  0  0  0  0  0  0  0  0
   -4.9931   -0.0136   -0.5901 C   0  0  0  0  0  0  0  0  0  0  0  0
   -4.1116    0.8613    0.0209 C   0  0  0  0  0  0  0  0  0  0  0  0
   -2.6727    0.8693   -0.3239 C   0  0  0  0  0  0  0  0  0  0  0  0
   -2.2958    0.9120   -1.6686 C   0  0  0  0  0  0  0  0  0  0  0  0
   -0.9786    0.9585   -2.0503 C   0  0  0  0  0  0  0  0  0  0  0  0
    0.0428    0.9568   -1.0965 C   0  0  0  0  0  0  0  0  0  0  0  0
    1.4174    1.0283   -1.4631 C   0  0  0  0  0  0  0  0  0  0  0  0
    2.3938    1.0174   -0.5275 C   0  0  0  0  0  0  0  0  0  0  0  0
    2.0950    0.9201    0.8643 C   0  0  0  0  0  0  0  0  0  0  0  0
    3.1064    0.8987    1.8577 C   0  0  0  0  0  0  0  0  0  0  0  0
    4.5446    0.9136    1.5068 C   0  0  0  0  0  0  0  0  0  0  0  0
    5.4307    1.8145    2.0837 C   0  0  0  0  0  0  0  0  0  0  0  0
    6.7535    1.7736    1.7317 C   0  0  0  0  0  0  0  0  0  0  0  0
    7.2793    0.9255    0.8630 N   0  0  0  0  0  0  0  0  0  0  0  0
    6.4408    0.0470    0.3003 C   0  0  0  0  0  0  0  0  0  0  0  0
    7.0047   -0.9172   -0.6690 C   0  0  0  0  0  0  0  0  0  0  0  0
    6.2154   -1.4161   -1.7004 C   0  0  0  0  0  0  0  0  0  0  0  0
    6.7456   -2.3091   -2.5926 C   0  0  0  0  0  0  0  0  0  0  0  0
    8.0583   -2.6782   -2.4306 C   0  0  0  0  0  0  0  0  0  0  0  0
    8.7714   -2.1337   -1.3914 C   0  0  0  0  0  0  0  0  0  0  0  0
    8.2850   -1.2710   -0.5165 N   0  0  0  0  0  0  0  0  0  0  0  0
    5.0892    0.0121    0.6075 C   0  0  0  0  0  0  0  0  0  0  0  0
    2.7301    0.8517    3.2024 C   0  0  0  0  0  0  0  0  0  0  0  0
    1.4131    0.7977    3.5836 C   0  0  0  0  0  0  0  0  0  0  0  0
    0.3918    0.7967    2.6296 C   0  0  0  0  0  0  0  0  0  0  0  0
   -0.9825    0.7189    2.9958 C   0  0  0  0  0  0  0  0  0  0  0  0
   -1.9591    0.7326    2.0604 C   0  0  0  0  0  0  0  0  0  0  0  0
   -1.6612    0.8384    0.6692 C   0  0  0  0  0  0  0  0  0  0  0  0
   -0.2997    0.8882    0.2746 C   0  0  0  0  0  0  0  0  0  0  0  0
    0.7338    0.8677    1.2585 C   0  0  0  0  0  0  0  0  0  0  0  0
   -4.6691    1.7436    0.9391 C   0  0  0  0  0  0  0  0  0  0  0  0
   -6.0136    1.6866    1.1978 C   0  0  0  0  0  0  0  0  0  0  0  0
   -6.8600    0.8438    0.6296 N   0  0  0  0  0  0  0  0  0  0  0  0
   -6.6968   -1.8013   -1.8400 N   0  0  0  0  0  0  0  0  0  0  0  0
   -7.5337   -2.6430   -2.4202 C   0  0  0  0  0  0  0  0  0  0  0  0
   -9.5051   -3.4209   -2.6799 H   0  0  0  0  0  0  0  0  0  0  0  0
  -10.4765   -1.8568   -1.0191 H   0  0  0  0  0  0  0  0  0  0  0  0
   -8.9451   -0.2556    0.0984 H   0  0  0  0  0  0  0  0  0  0  0  0
   -4.6334   -0.7181   -1.3169 H   0  0  0  0  0  0  0  0  0  0  0  0
   -3.0689    0.9309   -2.4176 H   0  0  0  0  0  0  0  0  0  0  0  0
   -0.7189    1.0044   -3.0933 H   0  0  0  0  0  0  0  0  0  0  0  0
    1.6686    1.0989   -2.5080 H   0  0  0  0  0  0  0  0  0  0  0  0
    3.4212    1.1004   -0.8311 H   0  0  0  0  0  0  0  0  0  0  0  0
    5.0686    2.5390    2.7921 H   0  0  0  0  0  0  0  0  0  0  0  0
    7.4390    2.4765    2.1799 H   0  0  0  0  0  0  0  0  0  0  0  0
    5.1988   -1.0817   -1.8090 H   0  0  0  0  0  0  0  0  0  0  0  0
    6.1527   -2.7073   -3.3999 H   0  0  0  0  0  0  0  0  0  0  0  0
    8.5196   -3.3783   -3.1076 H   0  0  0  0  0  0  0  0  0  0  0  0
    9.8049   -2.4139   -1.2567 H   0  0  0  0  0  0  0  0  0  0  0  0
    4.4586   -0.7433    0.1764 H   0  0  0  0  0  0  0  0  0  0  0  0
    3.5036    0.8358    3.9510 H   0  0  0  0  0  0  0  0  0  0  0  0
    1.1534    0.7485    4.6265 H   0  0  0  0  0  0  0  0  0  0  0  0
   -1.2332    0.6416    4.0403 H   0  0  0  0  0  0  0  0  0  0  0  0
   -2.9861    0.6439    2.3636 H   0  0  0  0  0  0  0  0  0  0  0  0
   -4.0454    2.4763    1.4210 H   0  0  0  0  0  0  0  0  0  0  0  0
   -6.4397    2.3736    1.9129 H   0  0  0  0  0  0  0  0  0  0  0  0
   -7.1019   -3.3196   -3.1417 H   0  0  0  0  0  0  0  0  0  0  0  0
  1  2  2  0  0  0  0
  2  3  1  0  0  0  0
  3  4  2  0  0  0  0
  4  5  1  0  0  0  0
  5  6  2  0  0  0  0
  6  7  1  0  0  0  0
  7  8  1  0  0  0  0
  8  9  2  0  0  0  0
  9 10  1  0  0  0  0
 10 11  2  0  0  0  0
 11 12  1  0  0  0  0
 12 13  2  0  0  0  0
 13 14  1  0  0  0  0
 14 15  2  0  0  0  0
 15 16  1  0  0  0  0
 16 17  2  0  0  0  0
 17 18  1  0  0  0  0
 18 19  2  0  0  0  0
 19 20  1  0  0  0  0
 20 21  1  0  0  0  0
 21 22  2  0  0  0  0
 22 23  1  0  0  0  0
 23 24  2  0  0  0  0
 24 25  1  0  0  0  0
 25 26  2  0  0  0  0
 20 27  2  0  0  0  0
 15 28  1  0  0  0  0
 28 29  2  0  0  0  0
 29 30  1  0  0  0  0
 30 31  2  0  0  0  0
 31 32  1  0  0  0  0
 32 33  2  0  0  0  0
 33 34  1  0  0  0  0
 34 35  2  0  0  0  0
  7 36  2  0  0  0  0
 36 37  1  0  0  0  0
 37 38  2  0  0  0  0
  4 39  1  0  0  0  0
 39 40  2  0  0  0  0
 40  1  1  0  0  0  0
 38  5  1  0  0  0  0
 33  8  1  0  0  0  0
 34 11  1  0  0  0  0
 35 14  1  0  0  0  0
 27 16  1  0  0  0  0
 35 30  1  0  0  0  0
 26 21  1  0  0  0  0
  1 41  1  0  0  0  0
  2 42  1  0  0  0  0
  3 43  1  0  0  0  0
  6 44  1  0  0  0  0
  9 45  1  0  0  0  0
 10 46  1  0  0  0  0
 12 47  1  0  0  0  0
 13 48  1  0  0  0  0
 17 49  1  0  0  0  0
 18 50  1  0  0  0  0
 22 51  1  0  0  0  0
 23 52  1  0  0  0  0
 24 53  1  0  0  0  0
 25 54  1  0  0  0  0
 27 55  1  0  0  0  0
 28 56  1  0  0  0  0
 29 57  1  0  0  0  0
 31 58  1  0  0  0  0
 32 59  1  0  0  0  0
 36 60  1  0  0  0  0
 37 61  1  0  0  0  0
 40 62  1  0  0  0  0
M  END
