
  xtb     03012221233D
 energy: -3.276945477146 gnorm: 0.000456478668 xtb: 6.4.1 (afa7bdf)
 15 16  0     0  0            999 V2000
    0.0815    2.3144   -0.0158 N   0  0  0  0  0  0  0  0  0  0  0  0
    0.5825    1.0258   -0.0411 C   0  0  0  0  0  0  0  0  0  0  0  0
    1.8870    0.8021   -0.0748 N   0  0  0  0  0  0  0  0  0  0  0  0
    2.2711   -0.4788   -0.0836 C   0  0  0  0  0  0  0  0  0  0  0  0
    1.5745   -1.5842   -0.0640 N   0  0  0  0  0  0  0  0  0  0  0  0
    0.2451   -1.3747   -0.0318 C   0  0  0  0  0  0  0  0  0  0  0  0
   -0.7757   -2.2784   -0.0123 N   0  0  0  0  0  0  0  0  0  0  0  0
   -1.8873   -1.5858    0.0072 C   0  0  0  0  0  0  0  0  0  0  0  0
   -1.6578   -0.2288    0.0061 N   0  0  0  0  0  0  0  0  0  0  0  0
   -0.2895   -0.0806   -0.0188 C   0  0  0  0  0  0  0  0  0  0  0  0
   -0.8669    2.5158    0.2675 H   0  0  0  0  0  0  0  0  0  0  0  0
    0.7055    3.0895    0.1480 H   0  0  0  0  0  0  0  0  0  0  0  0
    3.3427   -0.6222   -0.1111 H   0  0  0  0  0  0  0  0  0  0  0  0
   -2.8678   -2.0416    0.0233 H   0  0  0  0  0  0  0  0  0  0  0  0
   -2.3449    0.5277    0.0010 H   0  0  0  0  0  0  0  0  0  0  0  0
  1  2  1  0  0  0  0
  2  3  2  0  0  0  0
  3  4  1  0  0  0  0
  4  5  2  0  0  0  0
  5  6  1  0  0  0  0
  6  7  1  0  0  0  0
  7  8  2  0  0  0  0
  8  9  1  0  0  0  0
  9 10  1  0  0  0  0
 10  2  1  0  0  0  0
 10  6  2  0  0  0  0
  1 11  1  0  0  0  0
  1 12  1  0  0  0  0
  4 13  1  0  0  0  0
  8 14  1  0  0  0  0
  9 15  1  0  0  0  0
M  END
