
  xtb     03012221283D
 energy: -5.557835668758 gnorm: 0.000249631454 xtb: 6.4.1 (afa7bdf)
 28 29  0     0  0            999 V2000
   -5.5493   -0.3065    0.5461 C   0  0  0  0  0  0  0  0  0  0  0  0
   -5.0248    1.1641   -0.2756 S   0  0  0  0  0  0  0  0  0  0  0  0
   -3.2856    0.8184   -0.2972 C   0  0  0  0  0  0  0  0  0  0  0  0
   -2.6949    0.2693   -1.4241 C   0  0  0  0  0  0  0  0  0  0  0  0
   -1.3474   -0.0082   -1.4399 C   0  0  0  0  0  0  0  0  0  0  0  0
   -0.5453    0.2561   -0.3268 C   0  0  0  0  0  0  0  0  0  0  0  0
    0.8738   -0.0502   -0.3803 C   0  0  0  0  0  0  0  0  0  0  0  0
    1.7494    0.1610    0.6156 C   0  0  0  0  0  0  0  0  0  0  0  0
    3.1672   -0.1364    0.5798 C   0  0  0  0  0  0  0  0  0  0  0  0
    3.7784   -0.7015   -0.5288 C   0  0  0  0  0  0  0  0  0  0  0  0
    5.1193   -0.9431   -0.4702 C   0  0  0  0  0  0  0  0  0  0  0  0
    5.8479   -0.6622    0.5901 N   0  0  0  0  0  0  0  0  0  0  0  0
    5.1694   -0.1303    1.5834 C   0  0  0  0  0  0  0  0  0  0  0  0
    3.8882    0.1546    1.6640 N   0  0  0  0  0  0  0  0  0  0  0  0
   -1.1532    0.8122    0.8021 C   0  0  0  0  0  0  0  0  0  0  0  0
   -2.5016    1.0881    0.8133 C   0  0  0  0  0  0  0  0  0  0  0  0
   -6.6318   -0.3109    0.6484 H   0  0  0  0  0  0  0  0  0  0  0  0
   -5.2486   -1.1826   -0.0237 H   0  0  0  0  0  0  0  0  0  0  0  0
   -5.1046   -0.3638    1.5366 H   0  0  0  0  0  0  0  0  0  0  0  0
   -3.3073    0.0626   -2.2858 H   0  0  0  0  0  0  0  0  0  0  0  0
   -0.8973   -0.4347   -2.3198 H   0  0  0  0  0  0  0  0  0  0  0  0
    1.2314   -0.4775   -1.2986 H   0  0  0  0  0  0  0  0  0  0  0  0
    1.3994    0.5907    1.5351 H   0  0  0  0  0  0  0  0  0  0  0  0
    3.2158   -0.9445   -1.4117 H   0  0  0  0  0  0  0  0  0  0  0  0
    5.6302   -1.3819   -1.3145 H   0  0  0  0  0  0  0  0  0  0  0  0
    5.7510    0.1083    2.4632 H   0  0  0  0  0  0  0  0  0  0  0  0
   -0.5649    1.0303    1.6748 H   0  0  0  0  0  0  0  0  0  0  0  0
   -2.9647    1.5185    1.6854 H   0  0  0  0  0  0  0  0  0  0  0  0
  1  2  1  0  0  0  0
  2  3  1  0  0  0  0
  3  4  2  0  0  0  0
  4  5  1  0  0  0  0
  5  6  2  0  0  0  0
  6  7  1  0  0  0  0
  7  8  2  0  0  0  0
  8  9  1  0  0  0  0
  9 10  2  0  0  0  0
 10 11  1  0  0  0  0
 11 12  2  0  0  0  0
 12 13  1  0  0  0  0
 13 14  2  0  0  0  0
  6 15  1  0  0  0  0
 15 16  2  0  0  0  0
 16  3  1  0  0  0  0
 14  9  1  0  0  0  0
  1 17  1  0  0  0  0
  1 18  1  0  0  0  0
  1 19  1  0  0  0  0
  4 20  1  0  0  0  0
  5 21  1  0  0  0  0
  7 22  1  0  0  0  0
  8 23  1  0  0  0  0
 10 24  1  0  0  0  0
 11 25  1  0  0  0  0
 13 26  1  0  0  0  0
 15 27  1  0  0  0  0
 16 28  1  0  0  0  0
M  END
