
  xtb     03012221203D
 energy: -7.014390531905 gnorm: 0.000298165870 xtb: 6.4.1 (afa7bdf)
 32 35  0     0  0            999 V2000
    1.2904   -2.4638   -0.7852 O   0  0  0  0  0  0  0  0  0  0  0  0
    0.6923   -1.4659   -0.4041 C   0  0  0  0  0  0  0  0  0  0  0  0
   -0.6757   -1.3991   -0.4469 O   0  0  0  0  0  0  0  0  0  0  0  0
   -1.2548   -0.2500   -0.0029 C   0  0  0  0  0  0  0  0  0  0  0  0
   -0.4949    0.8179    0.4792 C   0  0  0  0  0  0  0  0  0  0  0  0
   -1.1568    1.9862    0.9259 C   0  0  0  0  0  0  0  0  0  0  0  0
   -2.5084    2.0972    0.8977 C   0  0  0  0  0  0  0  0  0  0  0  0
   -3.3128    1.0338    0.4147 C   0  0  0  0  0  0  0  0  0  0  0  0
   -4.7169    1.1117    0.3696 C   0  0  0  0  0  0  0  0  0  0  0  0
   -5.4560    0.0652   -0.1024 C   0  0  0  0  0  0  0  0  0  0  0  0
   -4.8288   -1.0986   -0.5475 C   0  0  0  0  0  0  0  0  0  0  0  0
   -3.4678   -1.2016   -0.5153 C   0  0  0  0  0  0  0  0  0  0  0  0
   -2.6841   -0.1442   -0.0366 C   0  0  0  0  0  0  0  0  0  0  0  0
    0.8650    0.7694    0.5311 N   0  0  0  0  0  0  0  0  0  0  0  0
    1.4477   -0.3200    0.1080 C   0  0  0  0  0  0  0  0  0  0  0  0
    2.9120   -0.3466    0.1679 C   0  0  0  0  0  0  0  0  0  0  0  0
    3.5848    0.7657    0.6701 C   0  0  0  0  0  0  0  0  0  0  0  0
    4.9583    0.7938    0.7475 C   0  0  0  0  0  0  0  0  0  0  0  0
    5.6959   -0.2919    0.3231 C   0  0  0  0  0  0  0  0  0  0  0  0
    5.0527   -1.4044   -0.1781 C   0  0  0  0  0  0  0  0  0  0  0  0
    3.6797   -1.4308   -0.2541 C   0  0  0  0  0  0  0  0  0  0  0  0
   -0.5510    2.7959    1.2930 H   0  0  0  0  0  0  0  0  0  0  0  0
   -2.9878    2.9965    1.2422 H   0  0  0  0  0  0  0  0  0  0  0  0
   -5.2012    2.0095    0.7128 H   0  0  0  0  0  0  0  0  0  0  0  0
   -6.5306    0.1361   -0.1325 H   0  0  0  0  0  0  0  0  0  0  0  0
   -5.4219   -1.9185   -0.9178 H   0  0  0  0  0  0  0  0  0  0  0  0
   -2.9693   -2.0932   -0.8553 H   0  0  0  0  0  0  0  0  0  0  0  0
    3.0039    1.6095    0.9991 H   0  0  0  0  0  0  0  0  0  0  0  0
    5.4574    1.6642    1.1403 H   0  0  0  0  0  0  0  0  0  0  0  0
    6.7715   -0.2707    0.3832 H   0  0  0  0  0  0  0  0  0  0  0  0
    5.6260   -2.2540   -0.5109 H   0  0  0  0  0  0  0  0  0  0  0  0
    3.1814   -2.2991   -0.6449 H   0  0  0  0  0  0  0  0  0  0  0  0
  1  2  2  0  0  0  0
  2  3  1  0  0  0  0
  3  4  1  0  0  0  0
  4  5  2  0  0  0  0
  5  6  1  0  0  0  0
  6  7  2  0  0  0  0
  7  8  1  0  0  0  0
  8  9  2  0  0  0  0
  9 10  1  0  0  0  0
 10 11  2  0  0  0  0
 11 12  1  0  0  0  0
 12 13  2  0  0  0  0
  5 14  1  0  0  0  0
 14 15  2  0  0  0  0
 15 16  1  0  0  0  0
 16 17  2  0  0  0  0
 17 18  1  0  0  0  0
 18 19  2  0  0  0  0
 19 20  1  0  0  0  0
 20 21  2  0  0  0  0
 15  2  1  0  0  0  0
 21 16  1  0  0  0  0
 13  4  1  0  0  0  0
 13  8  1  0  0  0  0
  6 22  1  0  0  0  0
  7 23  1  0  0  0  0
  9 24  1  0  0  0  0
 10 25  1  0  0  0  0
 11 26  1  0  0  0  0
 12 27  1  0  0  0  0
 17 28  1  0  0  0  0
 18 29  1  0  0  0  0
 19 30  1  0  0  0  0
 20 31  1  0  0  0  0
 21 32  1  0  0  0  0
M  END
