
  xtb     03012221323D
 energy: -5.775928416431 gnorm: 0.000714545588 xtb: 6.4.1 (afa7bdf)
 28 30  0     0  0            999 V2000
   -5.4452   -0.6188    0.0904 C   0  0  0  0  0  0  0  0  0  0  0  0
   -4.7012    0.5139   -0.2833 O   0  0  0  0  0  0  0  0  0  0  0  0
   -3.3159    0.3698   -0.1776 C   0  0  0  0  0  0  0  0  0  0  0  0
   -2.5258    1.4748   -0.5152 C   0  0  0  0  0  0  0  0  0  0  0  0
   -1.1584    1.4165   -0.4355 C   0  0  0  0  0  0  0  0  0  0  0  0
   -0.5091    0.2614   -0.0185 C   0  0  0  0  0  0  0  0  0  0  0  0
    0.9479    0.2474    0.0546 C   0  0  0  0  0  0  0  0  0  0  0  0
    1.6748    1.3036   -0.2706 N   0  0  0  0  0  0  0  0  0  0  0  0
    2.9636    0.9462   -0.0857 C   0  0  0  0  0  0  0  0  0  0  0  0
    4.0664    1.6981   -0.2891 N   0  0  0  0  0  0  0  0  0  0  0  0
    5.1980    1.0923   -0.0259 C   0  0  0  0  0  0  0  0  0  0  0  0
    5.3363   -0.2204    0.4301 C   0  0  0  0  0  0  0  0  0  0  0  0
    4.2327   -0.9899    0.6387 C   0  0  0  0  0  0  0  0  0  0  0  0
    3.0002   -0.3959    0.3746 C   0  0  0  0  0  0  0  0  0  0  0  0
    1.7084   -0.8279    0.4585 O   0  0  0  0  0  0  0  0  0  0  0  0
   -1.2882   -0.8703    0.3260 C   0  0  0  0  0  0  0  0  0  0  0  0
   -0.7063   -2.0432    0.7447 O   0  0  0  0  0  0  0  0  0  0  0  0
   -2.6723   -0.7908    0.2386 C   0  0  0  0  0  0  0  0  0  0  0  0
   -6.5046   -0.3837   -0.0191 H   0  0  0  0  0  0  0  0  0  0  0  0
   -5.2414   -0.8669    1.1327 H   0  0  0  0  0  0  0  0  0  0  0  0
   -5.1966   -1.4559   -0.5630 H   0  0  0  0  0  0  0  0  0  0  0  0
   -3.0209    2.3729   -0.8381 H   0  0  0  0  0  0  0  0  0  0  0  0
   -0.5604    2.2729   -0.6963 H   0  0  0  0  0  0  0  0  0  0  0  0
    6.0884    1.6812   -0.1833 H   0  0  0  0  0  0  0  0  0  0  0  0
    6.3171   -0.6233    0.6168 H   0  0  0  0  0  0  0  0  0  0  0  0
    4.2859   -2.0057    0.9889 H   0  0  0  0  0  0  0  0  0  0  0  0
    0.2625   -1.8956    0.7422 H   0  0  0  0  0  0  0  0  0  0  0  0
   -3.2359   -1.6628    0.5053 H   0  0  0  0  0  0  0  0  0  0  0  0
  1  2  1  0  0  0  0
  2  3  1  0  0  0  0
  3  4  2  0  0  0  0
  4  5  1  0  0  0  0
  5  6  2  0  0  0  0
  6  7  1  0  0  0  0
  7  8  2  0  0  0  0
  8  9  1  0  0  0  0
  9 10  2  0  0  0  0
 10 11  1  0  0  0  0
 11 12  2  0  0  0  0
 12 13  1  0  0  0  0
 13 14  2  0  0  0  0
 14 15  1  0  0  0  0
  6 16  1  0  0  0  0
 16 17  1  0  0  0  0
 16 18  2  0  0  0  0
 18  3  1  0  0  0  0
 15  7  1  0  0  0  0
 14  9  1  0  0  0  0
  1 19  1  0  0  0  0
  1 20  1  0  0  0  0
  1 21  1  0  0  0  0
  4 22  1  0  0  0  0
  5 23  1  0  0  0  0
 11 24  1  0  0  0  0
 12 25  1  0  0  0  0
 13 26  1  0  0  0  0
 17 27  1  0  0  0  0
 18 28  1  0  0  0  0
M  END
