
  xtb     03012221213D
 energy: -10.235522582495 gnorm: 0.000134044114 xtb: 6.4.1 (afa7bdf)
 52 55  0     0  0            999 V2000
   -1.6806    5.9533   -0.3437 C   0  0  0  0  0  0  0  0  0  0  0  0
   -1.5281    4.5977   -0.0764 O   0  0  0  0  0  0  0  0  0  0  0  0
   -2.7081    4.0882    0.3961 C   0  0  0  0  0  0  0  0  0  0  0  0
   -3.7127    4.7588    0.5419 O   0  0  0  0  0  0  0  0  0  0  0  0
   -2.7465    2.6464    0.7399 C   0  0  0  0  0  0  0  0  0  0  0  0
   -3.8939    2.0874    1.2171 C   0  0  0  0  0  0  0  0  0  0  0  0
   -3.9777    0.6971    1.5516 C   0  0  0  0  0  0  0  0  0  0  0  0
   -5.0345    0.1994    1.9437 O   0  0  0  0  0  0  0  0  0  0  0  0
   -2.8315   -0.0875    1.4077 N   0  0  0  0  0  0  0  0  0  0  0  0
   -2.9317   -1.5089    1.7362 C   0  0  0  0  0  0  0  0  0  0  0  0
   -3.3650   -2.3187    0.5606 C   0  0  0  0  0  0  0  0  0  0  0  0
   -4.6114   -2.0951    0.0023 C   0  0  0  0  0  0  0  0  0  0  0  0
   -5.0335   -2.8101   -1.0966 C   0  0  0  0  0  0  0  0  0  0  0  0
   -4.2041   -3.7612   -1.6535 C   0  0  0  0  0  0  0  0  0  0  0  0
   -2.9566   -3.9919   -1.1110 C   0  0  0  0  0  0  0  0  0  0  0  0
   -2.5396   -3.2733   -0.0109 C   0  0  0  0  0  0  0  0  0  0  0  0
   -1.6487    0.4695    0.8937 C   0  0  0  0  0  0  0  0  0  0  0  0
   -0.4157   -0.2006    0.6417 C   0  0  0  0  0  0  0  0  0  0  0  0
    0.5719    0.6049    0.1454 C   0  0  0  0  0  0  0  0  0  0  0  0
    1.9273    0.2185   -0.1997 C   0  0  0  0  0  0  0  0  0  0  0  0
    2.8244    1.1695   -0.6883 C   0  0  0  0  0  0  0  0  0  0  0  0
    4.1125    0.8344   -1.0133 C   0  0  0  0  0  0  0  0  0  0  0  0
    4.5718   -0.4783   -0.8648 C   0  0  0  0  0  0  0  0  0  0  0  0
    5.8950   -0.8252   -1.1915 N   0  0  0  0  0  0  0  0  0  0  0  0
    6.3963   -2.1872   -1.0091 C   0  0  0  0  0  0  0  0  0  0  0  0
    6.8384    0.1643   -1.7119 C   0  0  0  0  0  0  0  0  0  0  0  0
    3.6726   -1.4334   -0.3781 C   0  0  0  0  0  0  0  0  0  0  0  0
    2.3845   -1.0934   -0.0542 C   0  0  0  0  0  0  0  0  0  0  0  0
   -0.0435    2.2302   -0.0218 S   0  0  0  0  0  0  0  0  0  0  0  0
   -1.6174    1.8150    0.5743 C   0  0  0  0  0  0  0  0  0  0  0  0
   -1.9641    6.4652    0.5788 H   0  0  0  0  0  0  0  0  0  0  0  0
   -2.4698    6.0797   -1.0884 H   0  0  0  0  0  0  0  0  0  0  0  0
   -0.7382    6.3539   -0.7220 H   0  0  0  0  0  0  0  0  0  0  0  0
   -4.7676    2.7007    1.3402 H   0  0  0  0  0  0  0  0  0  0  0  0
   -3.6629   -1.6101    2.5425 H   0  0  0  0  0  0  0  0  0  0  0  0
   -1.9773   -1.8603    2.1316 H   0  0  0  0  0  0  0  0  0  0  0  0
   -5.2416   -1.3389    0.4422 H   0  0  0  0  0  0  0  0  0  0  0  0
   -6.0061   -2.6239   -1.5202 H   0  0  0  0  0  0  0  0  0  0  0  0
   -4.5301   -4.3224   -2.5138 H   0  0  0  0  0  0  0  0  0  0  0  0
   -2.3080   -4.7327   -1.5475 H   0  0  0  0  0  0  0  0  0  0  0  0
   -1.5650   -3.4499    0.4132 H   0  0  0  0  0  0  0  0  0  0  0  0
   -0.2835   -1.2521    0.8238 H   0  0  0  0  0  0  0  0  0  0  0  0
    2.4852    2.1853   -0.8053 H   0  0  0  0  0  0  0  0  0  0  0  0
    4.7805    1.5903   -1.3846 H   0  0  0  0  0  0  0  0  0  0  0  0
    7.4471   -2.2591   -1.2799 H   0  0  0  0  0  0  0  0  0  0  0  0
    6.2940   -2.4855    0.0321 H   0  0  0  0  0  0  0  0  0  0  0  0
    5.8354   -2.8776   -1.6355 H   0  0  0  0  0  0  0  0  0  0  0  0
    6.9904    0.9547   -0.9799 H   0  0  0  0  0  0  0  0  0  0  0  0
    6.4531    0.5987   -2.6319 H   0  0  0  0  0  0  0  0  0  0  0  0
    7.8032   -0.2880   -1.9293 H   0  0  0  0  0  0  0  0  0  0  0  0
    3.9987   -2.4504   -0.2568 H   0  0  0  0  0  0  0  0  0  0  0  0
    1.7127   -1.8471    0.3198 H   0  0  0  0  0  0  0  0  0  0  0  0
  1  2  1  0  0  0  0
  2  3  1  0  0  0  0
  3  4  2  0  0  0  0
  3  5  1  0  0  0  0
  5  6  2  0  0  0  0
  6  7  1  0  0  0  0
  7  8  2  0  0  0  0
  7  9  1  0  0  0  0
  9 10  1  0  0  0  0
 10 11  1  0  0  0  0
 11 12  2  0  0  0  0
 12 13  1  0  0  0  0
 13 14  2  0  0  0  0
 14 15  1  0  0  0  0
 15 16  2  0  0  0  0
  9 17  1  0  0  0  0
 17 18  1  0  0  0  0
 18 19  2  0  0  0  0
 19 20  1  0  0  0  0
 20 21  2  0  0  0  0
 21 22  1  0  0  0  0
 22 23  2  0  0  0  0
 23 24  1  0  0  0  0
 24 25  1  0  0  0  0
 24 26  1  0  0  0  0
 23 27  1  0  0  0  0
 27 28  2  0  0  0  0
 19 29  1  0  0  0  0
 29 30  1  0  0  0  0
 30  5  1  0  0  0  0
 16 11  1  0  0  0  0
 30 17  2  0  0  0  0
 28 20  1  0  0  0  0
  1 31  1  0  0  0  0
  1 32  1  0  0  0  0
  1 33  1  0  0  0  0
  6 34  1  0  0  0  0
 10 35  1  0  0  0  0
 10 36  1  0  0  0  0
 12 37  1  0  0  0  0
 13 38  1  0  0  0  0
 14 39  1  0  0  0  0
 15 40  1  0  0  0  0
 16 41  1  0  0  0  0
 18 42  1  0  0  0  0
 21 43  1  0  0  0  0
 22 44  1  0  0  0  0
 25 45  1  0  0  0  0
 25 46  1  0  0  0  0
 25 47  1  0  0  0  0
 26 48  1  0  0  0  0
 26 49  1  0  0  0  0
 26 50  1  0  0  0  0
 27 51  1  0  0  0  0
 28 52  1  0  0  0  0
M  END
