
  xtb     03012221223D
 energy: -11.950162306786 gnorm: 0.000577445367 xtb: 6.4.1 (afa7bdf)
 55 60  0     0  0            999 V2000
    8.4952    1.3200   -0.4372 O   0  0  0  0  0  0  0  0  0  0  0  0
    7.9760    0.9508    0.8251 C   0  0  0  0  0  0  0  0  0  0  0  0
    6.9069   -0.0927    0.7557 C   0  0  0  0  0  0  0  0  0  0  0  0
    6.7748   -0.8403   -0.3888 C   0  0  0  0  0  0  0  0  0  0  0  0
    5.8005   -1.8269   -0.5158 C   0  0  0  0  0  0  0  0  0  0  0  0
    5.6884   -2.5526   -1.6931 N   0  0  0  0  0  0  0  0  0  0  0  0
    4.6236   -2.7027   -2.3186 N   0  0  0  0  0  0  0  0  0  0  0  0
    3.4491   -2.0262   -2.0189 C   0  0  0  0  0  0  0  0  0  0  0  0
    3.2500   -0.7207   -2.4576 C   0  0  0  0  0  0  0  0  0  0  0  0
    2.1038   -0.0387   -2.1383 C   0  0  0  0  0  0  0  0  0  0  0  0
    1.1152   -0.6415   -1.3668 C   0  0  0  0  0  0  0  0  0  0  0  0
   -0.0640    0.0479   -1.0356 C   0  0  0  0  0  0  0  0  0  0  0  0
   -1.0981    0.6293   -0.7405 C   0  0  0  0  0  0  0  0  0  0  0  0
   -2.3057    1.2631   -0.4125 C   0  0  0  0  0  0  0  0  0  0  0  0
   -2.3104    2.6195   -0.0986 C   0  0  0  0  0  0  0  0  0  0  0  0
   -3.4711    3.2807    0.2257 C   0  0  0  0  0  0  0  0  0  0  0  0
   -4.6950    2.6080    0.2508 C   0  0  0  0  0  0  0  0  0  0  0  0
   -5.9196    3.2653    0.5806 C   0  0  0  0  0  0  0  0  0  0  0  0
   -7.0935    2.5954    0.5977 C   0  0  0  0  0  0  0  0  0  0  0  0
   -7.1538    1.2021    0.2866 C   0  0  0  0  0  0  0  0  0  0  0  0
   -8.3525    0.4875    0.2966 C   0  0  0  0  0  0  0  0  0  0  0  0
   -8.3741   -0.8571   -0.0088 C   0  0  0  0  0  0  0  0  0  0  0  0
   -7.2123   -1.5265   -0.3310 C   0  0  0  0  0  0  0  0  0  0  0  0
   -5.9874   -0.8582   -0.3559 C   0  0  0  0  0  0  0  0  0  0  0  0
   -4.7637   -1.5175   -0.6855 C   0  0  0  0  0  0  0  0  0  0  0  0
   -3.5911   -0.8453   -0.7037 C   0  0  0  0  0  0  0  0  0  0  0  0
   -3.5220    0.5484   -0.3954 C   0  0  0  0  0  0  0  0  0  0  0  0
   -4.7193    1.2286   -0.0626 C   0  0  0  0  0  0  0  0  0  0  0  0
   -5.9566    0.5221   -0.0437 C   0  0  0  0  0  0  0  0  0  0  0  0
    1.3142   -1.9430   -0.9212 C   0  0  0  0  0  0  0  0  0  0  0  0
    2.4665   -2.6334   -1.2266 C   0  0  0  0  0  0  0  0  0  0  0  0
    2.6949   -3.8579   -0.6950 F   0  0  0  0  0  0  0  0  0  0  0  0
    4.9557   -2.0697    0.5625 C   0  0  0  0  0  0  0  0  0  0  0  0
    5.0781   -1.3480    1.7177 C   0  0  0  0  0  0  0  0  0  0  0  0
    6.0529   -0.3509    1.8506 C   0  0  0  0  0  0  0  0  0  0  0  0
    6.1332    0.3257    3.0461 O   0  0  0  0  0  0  0  0  0  0  0  0
    7.7823    1.6968   -1.0001 H   0  0  0  0  0  0  0  0  0  0  0  0
    7.6073    1.8574    1.3197 H   0  0  0  0  0  0  0  0  0  0  0  0
    8.8195    0.5789    1.4182 H   0  0  0  0  0  0  0  0  0  0  0  0
    7.4377   -0.6600   -1.2149 H   0  0  0  0  0  0  0  0  0  0  0  0
    4.0193   -0.2568   -3.0529 H   0  0  0  0  0  0  0  0  0  0  0  0
    1.9565    0.9699   -2.4818 H   0  0  0  0  0  0  0  0  0  0  0  0
   -1.3752    3.1528   -0.1136 H   0  0  0  0  0  0  0  0  0  0  0  0
   -3.4466    4.3303    0.4642 H   0  0  0  0  0  0  0  0  0  0  0  0
   -5.8917    4.3149    0.8175 H   0  0  0  0  0  0  0  0  0  0  0  0
   -8.0063    3.1070    0.8480 H   0  0  0  0  0  0  0  0  0  0  0  0
   -9.2649    1.0002    0.5466 H   0  0  0  0  0  0  0  0  0  0  0  0
   -9.3098   -1.3912    0.0044 H   0  0  0  0  0  0  0  0  0  0  0  0
   -7.2402   -2.5758   -0.5677 H   0  0  0  0  0  0  0  0  0  0  0  0
   -4.7913   -2.5665   -0.9211 H   0  0  0  0  0  0  0  0  0  0  0  0
   -2.6794   -1.3594   -0.9547 H   0  0  0  0  0  0  0  0  0  0  0  0
    0.5680   -2.4218   -0.3159 H   0  0  0  0  0  0  0  0  0  0  0  0
    4.2072   -2.8361    0.4644 H   0  0  0  0  0  0  0  0  0  0  0  0
    4.4297   -1.5367    2.5541 H   0  0  0  0  0  0  0  0  0  0  0  0
    6.8889    0.9515    3.0425 H   0  0  0  0  0  0  0  0  0  0  0  0
  1  2  1  0  0  0  0
  2  3  1  0  0  0  0
  3  4  2  0  0  0  0
  4  5  1  0  0  0  0
  5  6  1  0  0  0  0
  6  7  2  0  0  0  0
  7  8  1  0  0  0  0
  8  9  2  0  0  0  0
  9 10  1  0  0  0  0
 10 11  2  0  0  0  0
 11 12  1  0  0  0  0
 12 13  3  0  0  0  0
 13 14  1  0  0  0  0
 14 15  2  0  0  0  0
 15 16  1  0  0  0  0
 16 17  2  0  0  0  0
 17 18  1  0  0  0  0
 18 19  2  0  0  0  0
 19 20  1  0  0  0  0
 20 21  2  0  0  0  0
 21 22  1  0  0  0  0
 22 23  2  0  0  0  0
 23 24  1  0  0  0  0
 24 25  2  0  0  0  0
 25 26  1  0  0  0  0
 26 27  2  0  0  0  0
 27 28  1  0  0  0  0
 28 29  2  0  0  0  0
 11 30  1  0  0  0  0
 30 31  2  0  0  0  0
 31 32  1  0  0  0  0
  5 33  2  0  0  0  0
 33 34  1  0  0  0  0
 34 35  2  0  0  0  0
 35 36  1  0  0  0  0
 35  3  1  0  0  0  0
 31  8  1  0  0  0  0
 27 14  1  0  0  0  0
 28 17  1  0  0  0  0
 29 20  1  0  0  0  0
 29 24  1  0  0  0  0
  1 37  1  0  0  0  0
  2 38  1  0  0  0  0
  2 39  1  0  0  0  0
  4 40  1  0  0  0  0
  9 41  1  0  0  0  0
 10 42  1  0  0  0  0
 15 43  1  0  0  0  0
 16 44  1  0  0  0  0
 18 45  1  0  0  0  0
 19 46  1  0  0  0  0
 21 47  1  0  0  0  0
 22 48  1  0  0  0  0
 23 49  1  0  0  0  0
 25 50  1  0  0  0  0
 26 51  1  0  0  0  0
 30 52  1  0  0  0  0
 33 53  1  0  0  0  0
 34 54  1  0  0  0  0
 36 55  1  0  0  0  0
M  END
