
  xtb     03012221213D
 energy: -7.539011249997 gnorm: 0.000679812047 xtb: 6.4.1 (afa7bdf)
 35 38  0     0  0            999 V2000
    5.5618    1.3499   -0.5596 C   0  0  0  0  0  0  0  0  0  0  0  0
    4.0877    1.5126   -0.6896 C   0  0  0  0  0  0  0  0  0  0  0  0
    3.6467    2.4924   -1.2465 O   0  0  0  0  0  0  0  0  0  0  0  0
    3.2825    0.5003   -0.1693 N   0  0  0  0  0  0  0  0  0  0  0  0
    1.8941    0.4494   -0.1863 C   0  0  0  0  0  0  0  0  0  0  0  0
    1.1701    1.4791   -0.7615 C   0  0  0  0  0  0  0  0  0  0  0  0
   -0.2071    1.4800   -0.8025 C   0  0  0  0  0  0  0  0  0  0  0  0
   -0.9509    0.4391   -0.2646 C   0  0  0  0  0  0  0  0  0  0  0  0
   -0.2481   -0.6456    0.3384 C   0  0  0  0  0  0  0  0  0  0  0  0
   -0.9566   -1.7385    0.9049 C   0  0  0  0  0  0  0  0  0  0  0  0
   -0.2707   -2.7796    1.4837 C   0  0  0  0  0  0  0  0  0  0  0  0
    1.1150   -2.7814    1.5247 C   0  0  0  0  0  0  0  0  0  0  0  0
    1.8220   -1.7416    0.9870 C   0  0  0  0  0  0  0  0  0  0  0  0
    1.1720   -0.6506    0.3825 C   0  0  0  0  0  0  0  0  0  0  0  0
   -2.4186   -1.7716    0.8808 C   0  0  0  0  0  0  0  0  0  0  0  0
   -3.0336   -2.7055    1.3648 O   0  0  0  0  0  0  0  0  0  0  0  0
   -3.1229   -0.6478    0.2573 C   0  0  0  0  0  0  0  0  0  0  0  0
   -4.5098   -0.6621    0.2259 C   0  0  0  0  0  0  0  0  0  0  0  0
   -5.2099    0.3697   -0.3480 C   0  0  0  0  0  0  0  0  0  0  0  0
   -4.5284    1.4373   -0.9022 C   0  0  0  0  0  0  0  0  0  0  0  0
   -3.1554    1.4675   -0.8796 C   0  0  0  0  0  0  0  0  0  0  0  0
   -2.4127    0.4315   -0.3023 C   0  0  0  0  0  0  0  0  0  0  0  0
    6.0410    2.3274   -0.5174 H   0  0  0  0  0  0  0  0  0  0  0  0
    5.9645    0.8135   -1.4181 H   0  0  0  0  0  0  0  0  0  0  0  0
    5.8222    0.8032    0.3462 H   0  0  0  0  0  0  0  0  0  0  0  0
    3.7760   -0.2751    0.2575 H   0  0  0  0  0  0  0  0  0  0  0  0
    1.7181    2.3001   -1.1869 H   0  0  0  0  0  0  0  0  0  0  0  0
   -0.7057    2.3118   -1.2645 H   0  0  0  0  0  0  0  0  0  0  0  0
   -0.8360   -3.5936    1.9045 H   0  0  0  0  0  0  0  0  0  0  0  0
    1.6338   -3.6072    1.9830 H   0  0  0  0  0  0  0  0  0  0  0  0
    2.8945   -1.7662    1.0312 H   0  0  0  0  0  0  0  0  0  0  0  0
   -5.0213   -1.5023    0.6627 H   0  0  0  0  0  0  0  0  0  0  0  0
   -6.2878    0.3475   -0.3664 H   0  0  0  0  0  0  0  0  0  0  0  0
   -5.0771    2.2472   -1.3526 H   0  0  0  0  0  0  0  0  0  0  0  0
   -2.6495    2.3093   -1.3174 H   0  0  0  0  0  0  0  0  0  0  0  0
  1  2  1  0  0  0  0
  2  3  2  0  0  0  0
  2  4  1  0  0  0  0
  4  5  1  0  0  0  0
  5  6  2  0  0  0  0
  6  7  1  0  0  0  0
  7  8  2  0  0  0  0
  8  9  1  0  0  0  0
  9 10  2  0  0  0  0
 10 11  1  0  0  0  0
 11 12  2  0  0  0  0
 12 13  1  0  0  0  0
 13 14  2  0  0  0  0
 10 15  1  0  0  0  0
 15 16  2  0  0  0  0
 15 17  1  0  0  0  0
 17 18  2  0  0  0  0
 18 19  1  0  0  0  0
 19 20  2  0  0  0  0
 20 21  1  0  0  0  0
 21 22  2  0  0  0  0
 14  5  1  0  0  0  0
 22 17  1  0  0  0  0
 22  8  1  0  0  0  0
 14  9  1  0  0  0  0
  1 23  1  0  0  0  0
  1 24  1  0  0  0  0
  1 25  1  0  0  0  0
  4 26  1  0  0  0  0
  6 27  1  0  0  0  0
  7 28  1  0  0  0  0
 11 29  1  0  0  0  0
 12 30  1  0  0  0  0
 13 31  1  0  0  0  0
 18 32  1  0  0  0  0
 19 33  1  0  0  0  0
 20 34  1  0  0  0  0
 21 35  1  0  0  0  0
M  END
