
  xtb     03012221293D
 energy: -7.821261132898 gnorm: 0.000174450529 xtb: 6.4.1 (afa7bdf)
 41 43  0     0  0            999 V2000
   -1.0913   -2.2505    0.6069 C   0  0  0  0  0  0  0  0  0  0  0  0
   -1.5624   -0.8868    0.0795 C   0  0  0  0  0  0  0  0  0  0  0  0
   -2.8666   -1.0764   -0.7100 C   0  0  0  0  0  0  0  0  0  0  0  0
   -1.8128    0.0552    1.2632 C   0  0  0  0  0  0  0  0  0  0  0  0
   -0.4761   -0.2768   -0.8542 C   0  0  0  0  0  0  0  0  0  0  0  0
   -0.9375    0.9761   -1.4665 N   0  0  0  0  0  0  0  0  0  0  0  0
   -0.6830    2.2095   -0.8966 C   0  0  0  0  0  0  0  0  0  0  0  0
   -1.3758    3.3555   -1.2940 C   0  0  0  0  0  0  0  0  0  0  0  0
   -1.1330    4.5634   -0.6859 C   0  0  0  0  0  0  0  0  0  0  0  0
   -0.1917    4.6568    0.3273 C   0  0  0  0  0  0  0  0  0  0  0  0
    0.5073    3.5389    0.7235 C   0  0  0  0  0  0  0  0  0  0  0  0
    0.2765    2.3095    0.1240 C   0  0  0  0  0  0  0  0  0  0  0  0
    1.0647    1.1353    0.5138 C   0  0  0  0  0  0  0  0  0  0  0  0
    1.9217    1.2530    1.3752 O   0  0  0  0  0  0  0  0  0  0  0  0
    0.8160   -0.0919   -0.1368 N   0  0  0  0  0  0  0  0  0  0  0  0
    1.7273   -1.1884   -0.0232 C   0  0  0  0  0  0  0  0  0  0  0  0
    1.8679   -2.1303   -1.0433 C   0  0  0  0  0  0  0  0  0  0  0  0
    2.7146   -3.2072   -0.9006 C   0  0  0  0  0  0  0  0  0  0  0  0
    3.4468   -3.3682    0.2587 C   0  0  0  0  0  0  0  0  0  0  0  0
    3.3367   -2.4380    1.2722 C   0  0  0  0  0  0  0  0  0  0  0  0
    2.4919   -1.3614    1.1281 C   0  0  0  0  0  0  0  0  0  0  0  0
   -0.1946   -2.1440    1.2148 H   0  0  0  0  0  0  0  0  0  0  0  0
   -0.8659   -2.9307   -0.2135 H   0  0  0  0  0  0  0  0  0  0  0  0
   -1.8579   -2.7139    1.2268 H   0  0  0  0  0  0  0  0  0  0  0  0
   -3.6280   -1.5520   -0.0927 H   0  0  0  0  0  0  0  0  0  0  0  0
   -3.2645   -0.1202   -1.0459 H   0  0  0  0  0  0  0  0  0  0  0  0
   -2.7046   -1.7037   -1.5858 H   0  0  0  0  0  0  0  0  0  0  0  0
   -2.1529    1.0304    0.9183 H   0  0  0  0  0  0  0  0  0  0  0  0
   -0.9011    0.2018    1.8407 H   0  0  0  0  0  0  0  0  0  0  0  0
   -2.5727   -0.3495    1.9307 H   0  0  0  0  0  0  0  0  0  0  0  0
   -0.3055   -0.9855   -1.6707 H   0  0  0  0  0  0  0  0  0  0  0  0
   -1.6560    0.8726   -2.1827 H   0  0  0  0  0  0  0  0  0  0  0  0
   -2.1081    3.2758   -2.0780 H   0  0  0  0  0  0  0  0  0  0  0  0
   -1.6751    5.4411   -0.9973 H   0  0  0  0  0  0  0  0  0  0  0  0
   -0.0017    5.6057    0.8000 H   0  0  0  0  0  0  0  0  0  0  0  0
    1.2540    3.5989    1.4967 H   0  0  0  0  0  0  0  0  0  0  0  0
    1.3350   -1.9988   -1.9671 H   0  0  0  0  0  0  0  0  0  0  0  0
    2.8110   -3.9241   -1.6995 H   0  0  0  0  0  0  0  0  0  0  0  0
    4.1094   -4.2106    0.3674 H   0  0  0  0  0  0  0  0  0  0  0  0
    3.9172   -2.5505    2.1731 H   0  0  0  0  0  0  0  0  0  0  0  0
    2.4207   -0.6205    1.9038 H   0  0  0  0  0  0  0  0  0  0  0  0
  1  2  1  0  0  0  0
  2  3  1  0  0  0  0
  2  4  1  0  0  0  0
  2  5  1  0  0  0  0
  5  6  1  0  0  0  0
  6  7  1  0  0  0  0
  7  8  2  0  0  0  0
  8  9  1  0  0  0  0
  9 10  2  0  0  0  0
 10 11  1  0  0  0  0
 11 12  2  0  0  0  0
 12 13  1  0  0  0  0
 13 14  2  0  0  0  0
 13 15  1  0  0  0  0
 15 16  1  0  0  0  0
 16 17  2  0  0  0  0
 17 18  1  0  0  0  0
 18 19  2  0  0  0  0
 19 20  1  0  0  0  0
 20 21  2  0  0  0  0
 15  5  1  0  0  0  0
 21 16  1  0  0  0  0
 12  7  1  0  0  0  0
  1 22  1  0  0  0  0
  1 23  1  0  0  0  0
  1 24  1  0  0  0  0
  3 25  1  0  0  0  0
  3 26  1  0  0  0  0
  3 27  1  0  0  0  0
  4 28  1  0  0  0  0
  4 29  1  0  0  0  0
  4 30  1  0  0  0  0
  5 31  1  0  0  0  0
  6 32  1  0  0  0  0
  8 33  1  0  0  0  0
  9 34  1  0  0  0  0
 10 35  1  0  0  0  0
 11 36  1  0  0  0  0
 17 37  1  0  0  0  0
 18 38  1  0  0  0  0
 19 39  1  0  0  0  0
 20 40  1  0  0  0  0
 21 41  1  0  0  0  0
M  END
