
  xtb     03012221213D
 energy: -4.852120889598 gnorm: 0.000365946663 xtb: 6.4.1 (afa7bdf)
 22 24  0     0  0            999 V2000
   -3.3981   -1.0650    0.6099 C   0  0  0  0  0  0  0  0  0  0  0  0
   -3.6082    0.1878    0.0210 C   0  0  0  0  0  0  0  0  0  0  0  0
   -2.5502    0.9463   -0.3720 C   0  0  0  0  0  0  0  0  0  0  0  0
   -1.2186    0.4984   -0.2002 C   0  0  0  0  0  0  0  0  0  0  0  0
   -0.2148    1.2811   -0.6031 N   0  0  0  0  0  0  0  0  0  0  0  0
    1.0048    0.7767   -0.4010 C   0  0  0  0  0  0  0  0  0  0  0  0
    2.1347    1.5326   -0.7950 C   0  0  0  0  0  0  0  0  0  0  0  0
    3.3983    1.0650   -0.6117 C   0  0  0  0  0  0  0  0  0  0  0  0
    3.6083   -0.1879   -0.0228 C   0  0  0  0  0  0  0  0  0  0  0  0
    2.5501   -0.9461    0.3701 C   0  0  0  0  0  0  0  0  0  0  0  0
    1.2185   -0.4984    0.1984 C   0  0  0  0  0  0  0  0  0  0  0  0
    0.2147   -1.2810    0.6013 N   0  0  0  0  0  0  0  0  0  0  0  0
   -1.0049   -0.7767    0.3992 C   0  0  0  0  0  0  0  0  0  0  0  0
   -2.1346   -1.5328    0.7933 C   0  0  0  0  0  0  0  0  0  0  0  0
   -4.2434   -1.6578    0.9177 H   0  0  0  0  0  0  0  0  0  0  0  0
   -4.6135    0.5491   -0.1197 H   0  0  0  0  0  0  0  0  0  0  0  0
   -2.7043    1.9098   -0.8251 H   0  0  0  0  0  0  0  0  0  0  0  0
    1.9659    2.4943   -1.2468 H   0  0  0  0  0  0  0  0  0  0  0  0
    4.2436    1.6579   -0.9196 H   0  0  0  0  0  0  0  0  0  0  0  0
    4.6135   -0.5493    0.1179 H   0  0  0  0  0  0  0  0  0  0  0  0
    2.7042   -1.9097    0.8233 H   0  0  0  0  0  0  0  0  0  0  0  0
   -1.9660   -2.4944    1.2451 H   0  0  0  0  0  0  0  0  0  0  0  0
  1  2  2  0  0  0  0
  2  3  1  0  0  0  0
  3  4  2  0  0  0  0
  4  5  1  0  0  0  0
  5  6  2  0  0  0  0
  6  7  1  0  0  0  0
  7  8  2  0  0  0  0
  8  9  1  0  0  0  0
  9 10  2  0  0  0  0
 10 11  1  0  0  0  0
 11 12  2  0  0  0  0
 12 13  1  0  0  0  0
 13 14  2  0  0  0  0
 14  1  1  0  0  0  0
 13  4  1  0  0  0  0
 11  6  1  0  0  0  0
  1 15  1  0  0  0  0
  2 16  1  0  0  0  0
  3 17  1  0  0  0  0
  7 18  1  0  0  0  0
  8 19  1  0  0  0  0
  9 20  1  0  0  0  0
 10 21  1  0  0  0  0
 14 22  1  0  0  0  0
M  END
