
  xtb     03012221323D
 energy: -12.881416058235 gnorm: 0.000309712835 xtb: 6.4.1 (afa7bdf)
 64 69  0     0  0            999 V2000
    5.8296    0.6105   -3.1115 O   0  0  0  0  0  0  0  0  0  0  0  0
    6.3042    1.1919   -2.1621 C   0  0  0  0  0  0  0  0  0  0  0  0
    6.9984    2.3463   -2.2655 O   0  0  0  0  0  0  0  0  0  0  0  0
    6.1498    0.6048   -0.7787 C   0  0  0  0  0  0  0  0  0  0  0  0
    6.8780   -0.7469   -0.6582 C   0  0  0  0  0  0  0  0  0  0  0  0
    5.8193   -1.8137   -1.0139 C   0  0  0  0  0  0  0  0  0  0  0  0
    4.4543   -1.1006   -0.9477 C   0  0  0  0  0  0  0  0  0  0  0  0
    4.7308    0.2933   -0.5138 N   0  0  0  0  0  0  0  0  0  0  0  0
    4.0928    0.8714    0.5913 C   0  0  0  0  0  0  0  0  0  0  0  0
    4.6862    1.6491    1.3214 O   0  0  0  0  0  0  0  0  0  0  0  0
    2.6866    0.5074    0.8768 C   0  0  0  0  0  0  0  0  0  0  0  0
    1.7742    0.3098   -0.1500 C   0  0  0  0  0  0  0  0  0  0  0  0
    0.4707   -0.0238    0.1363 C   0  0  0  0  0  0  0  0  0  0  0  0
    0.0478   -0.1663    1.4467 C   0  0  0  0  0  0  0  0  0  0  0  0
   -1.3819   -0.5332    1.7321 C   0  0  0  0  0  0  0  0  0  0  0  0
   -2.3495    0.6440    1.5489 C   0  0  0  0  0  0  0  0  0  0  0  0
   -3.2184    0.2362    0.3870 C   0  0  0  0  0  0  0  0  0  0  0  0
   -4.2524    0.9986   -0.2702 C   0  0  0  0  0  0  0  0  0  0  0  0
   -4.8658    0.3743   -1.3473 C   0  0  0  0  0  0  0  0  0  0  0  0
   -5.8707    0.9779   -2.0892 C   0  0  0  0  0  0  0  0  0  0  0  0
   -6.2936    2.2344   -1.7730 C   0  0  0  0  0  0  0  0  0  0  0  0
   -5.7212    2.9345   -0.6913 C   0  0  0  0  0  0  0  0  0  0  0  0
   -6.1671    4.2362   -0.3722 C   0  0  0  0  0  0  0  0  0  0  0  0
   -5.6285    4.9230    0.6716 C   0  0  0  0  0  0  0  0  0  0  0  0
   -4.6249    4.3387    1.4420 C   0  0  0  0  0  0  0  0  0  0  0  0
   -4.1723    3.0825    1.1585 C   0  0  0  0  0  0  0  0  0  0  0  0
   -4.6932    2.3303    0.0838 C   0  0  0  0  0  0  0  0  0  0  0  0
   -2.9119   -0.9701   -0.0234 N   0  0  0  0  0  0  0  0  0  0  0  0
   -1.9175   -1.4795    0.7223 N   0  0  0  0  0  0  0  0  0  0  0  0
   -1.3889   -2.7809    0.5135 C   0  0  0  0  0  0  0  0  0  0  0  0
   -0.3229   -3.2772    1.2573 C   0  0  0  0  0  0  0  0  0  0  0  0
    0.1657   -4.5419    1.0172 C   0  0  0  0  0  0  0  0  0  0  0  0
   -0.4006   -5.3293    0.0336 C   0  0  0  0  0  0  0  0  0  0  0  0
   -1.4585   -4.8467   -0.7118 C   0  0  0  0  0  0  0  0  0  0  0  0
   -1.9482   -3.5822   -0.4734 C   0  0  0  0  0  0  0  0  0  0  0  0
    0.9525    0.0557    2.4730 C   0  0  0  0  0  0  0  0  0  0  0  0
    2.2578    0.3899    2.1898 C   0  0  0  0  0  0  0  0  0  0  0  0
    7.0043    2.5954   -3.2101 H   0  0  0  0  0  0  0  0  0  0  0  0
    6.4891    1.3379   -0.0320 H   0  0  0  0  0  0  0  0  0  0  0  0
    7.7398   -0.7809   -1.3337 H   0  0  0  0  0  0  0  0  0  0  0  0
    7.2560   -0.8899    0.3606 H   0  0  0  0  0  0  0  0  0  0  0  0
    5.9955   -2.2120   -2.0204 H   0  0  0  0  0  0  0  0  0  0  0  0
    5.8636   -2.6681   -0.3278 H   0  0  0  0  0  0  0  0  0  0  0  0
    3.7688   -1.5811   -0.2433 H   0  0  0  0  0  0  0  0  0  0  0  0
    3.9655   -1.0630   -1.9267 H   0  0  0  0  0  0  0  0  0  0  0  0
    2.0966    0.4338   -1.1691 H   0  0  0  0  0  0  0  0  0  0  0  0
   -0.2390   -0.1851   -0.6552 H   0  0  0  0  0  0  0  0  0  0  0  0
   -1.4749   -0.9916    2.7245 H   0  0  0  0  0  0  0  0  0  0  0  0
   -1.7896    1.5549    1.3143 H   0  0  0  0  0  0  0  0  0  0  0  0
   -2.9519    0.8126    2.4482 H   0  0  0  0  0  0  0  0  0  0  0  0
   -4.5379   -0.6163   -1.6094 H   0  0  0  0  0  0  0  0  0  0  0  0
   -6.3155    0.4513   -2.9174 H   0  0  0  0  0  0  0  0  0  0  0  0
   -7.0723    2.7060   -2.3479 H   0  0  0  0  0  0  0  0  0  0  0  0
   -6.9444    4.6813   -0.9699 H   0  0  0  0  0  0  0  0  0  0  0  0
   -5.9763    5.9155    0.9053 H   0  0  0  0  0  0  0  0  0  0  0  0
   -4.2049    4.8871    2.2699 H   0  0  0  0  0  0  0  0  0  0  0  0
   -3.4056    2.6698    1.7813 H   0  0  0  0  0  0  0  0  0  0  0  0
    0.1262   -2.6598    2.0136 H   0  0  0  0  0  0  0  0  0  0  0  0
    0.9931   -4.9177    1.5963 H   0  0  0  0  0  0  0  0  0  0  0  0
   -0.0164   -6.3187   -0.1529 H   0  0  0  0  0  0  0  0  0  0  0  0
   -1.9002   -5.4595   -1.4802 H   0  0  0  0  0  0  0  0  0  0  0  0
   -2.7698   -3.1914   -1.0465 H   0  0  0  0  0  0  0  0  0  0  0  0
    0.6249   -0.0334    3.4936 H   0  0  0  0  0  0  0  0  0  0  0  0
    2.9644    0.5745    2.9808 H   0  0  0  0  0  0  0  0  0  0  0  0
  1  2  2  0  0  0  0
  2  3  1  0  0  0  0
  2  4  1  0  0  0  0
  4  5  1  0  0  0  0
  5  6  1  0  0  0  0
  6  7  1  0  0  0  0
  7  8  1  0  0  0  0
  8  9  1  0  0  0  0
  9 10  2  0  0  0  0
  9 11  1  0  0  0  0
 11 12  2  0  0  0  0
 12 13  1  0  0  0  0
 13 14  2  0  0  0  0
 14 15  1  0  0  0  0
 15 16  1  0  0  0  0
 16 17  1  0  0  0  0
 17 18  1  0  0  0  0
 18 19  2  0  0  0  0
 19 20  1  0  0  0  0
 20 21  2  0  0  0  0
 21 22  1  0  0  0  0
 22 23  2  0  0  0  0
 23 24  1  0  0  0  0
 24 25  2  0  0  0  0
 25 26  1  0  0  0  0
 26 27  2  0  0  0  0
 17 28  2  0  0  0  0
 28 29  1  0  0  0  0
 29 30  1  0  0  0  0
 30 31  2  0  0  0  0
 31 32  1  0  0  0  0
 32 33  2  0  0  0  0
 33 34  1  0  0  0  0
 34 35  2  0  0  0  0
 14 36  1  0  0  0  0
 36 37  2  0  0  0  0
  8  4  1  0  0  0  0
 37 11  1  0  0  0  0
 29 15  1  0  0  0  0
 35 30  1  0  0  0  0
 27 18  1  0  0  0  0
 27 22  1  0  0  0  0
  3 38  1  0  0  0  0
  4 39  1  0  0  0  0
  5 40  1  0  0  0  0
  5 41  1  0  0  0  0
  6 42  1  0  0  0  0
  6 43  1  0  0  0  0
  7 44  1  0  0  0  0
  7 45  1  0  0  0  0
 12 46  1  0  0  0  0
 13 47  1  0  0  0  0
 15 48  1  0  0  0  0
 16 49  1  0  0  0  0
 16 50  1  0  0  0  0
 19 51  1  0  0  0  0
 20 52  1  0  0  0  0
 21 53  1  0  0  0  0
 23 54  1  0  0  0  0
 24 55  1  0  0  0  0
 25 56  1  0  0  0  0
 26 57  1  0  0  0  0
 31 58  1  0  0  0  0
 32 59  1  0  0  0  0
 33 60  1  0  0  0  0
 34 61  1  0  0  0  0
 35 62  1  0  0  0  0
 36 63  1  0  0  0  0
 37 64  1  0  0  0  0
M  END
