
  xtb     03012221303D
 energy: -8.903201998085 gnorm: 0.000085815203 xtb: 6.4.1 (afa7bdf)
 40 44  0     0  0            999 V2000
    0.7163   -3.6347   -0.1762 C   0  0  0  0  0  0  0  0  0  0  0  0
   -0.6839   -3.6429   -0.1285 C   0  0  0  0  0  0  0  0  0  0  0  0
   -1.3745   -2.4745   -0.0613 C   0  0  0  0  0  0  0  0  0  0  0  0
   -0.7063   -1.2251   -0.0376 C   0  0  0  0  0  0  0  0  0  0  0  0
   -1.4252   -0.0080    0.0250 C   0  0  0  0  0  0  0  0  0  0  0  0
   -2.9074   -0.0155    0.0520 C   0  0  0  0  0  0  0  0  0  0  0  0
   -3.6631   -0.4531   -1.0232 C   0  0  0  0  0  0  0  0  0  0  0  0
   -4.9741   -0.4692   -1.0168 N   0  0  0  0  0  0  0  0  0  0  0  0
   -5.5185   -0.0272    0.0991 C   0  0  0  0  0  0  0  0  0  0  0  0
   -4.9383    0.4197    1.1947 N   0  0  0  0  0  0  0  0  0  0  0  0
   -3.6277    0.4153    1.1538 C   0  0  0  0  0  0  0  0  0  0  0  0
   -0.7171    1.2164    0.0619 C   0  0  0  0  0  0  0  0  0  0  0  0
   -1.3969    2.4588    0.1095 C   0  0  0  0  0  0  0  0  0  0  0  0
   -0.7166    3.6344    0.1523 C   0  0  0  0  0  0  0  0  0  0  0  0
    0.6845    3.6407    0.1500 C   0  0  0  0  0  0  0  0  0  0  0  0
    1.3752    2.4716    0.0949 C   0  0  0  0  0  0  0  0  0  0  0  0
    0.7062    1.2237    0.0388 C   0  0  0  0  0  0  0  0  0  0  0  0
    1.4252    0.0067   -0.0260 C   0  0  0  0  0  0  0  0  0  0  0  0
    2.9073    0.0146   -0.0519 C   0  0  0  0  0  0  0  0  0  0  0  0
    3.6242    0.5402   -1.1142 C   0  0  0  0  0  0  0  0  0  0  0  0
    4.9347    0.5600   -1.1529 N   0  0  0  0  0  0  0  0  0  0  0  0
    5.5184    0.0310   -0.0964 C   0  0  0  0  0  0  0  0  0  0  0  0
    4.9776   -0.5052    0.9792 N   0  0  0  0  0  0  0  0  0  0  0  0
    3.6665   -0.5020    0.9851 C   0  0  0  0  0  0  0  0  0  0  0  0
    0.7170   -1.2176   -0.0654 C   0  0  0  0  0  0  0  0  0  0  0  0
    1.3964   -2.4586   -0.1455 C   0  0  0  0  0  0  0  0  0  0  0  0
    1.2527   -4.5670   -0.2357 H   0  0  0  0  0  0  0  0  0  0  0  0
   -1.2120   -4.5817   -0.1470 H   0  0  0  0  0  0  0  0  0  0  0  0
   -2.4491   -2.4893   -0.0209 H   0  0  0  0  0  0  0  0  0  0  0  0
   -3.1628   -0.7932   -1.9167 H   0  0  0  0  0  0  0  0  0  0  0  0
   -6.6003   -0.0319    0.1185 H   0  0  0  0  0  0  0  0  0  0  0  0
   -3.0986    0.7606    2.0285 H   0  0  0  0  0  0  0  0  0  0  0  0
   -2.4724    2.4626    0.1076 H   0  0  0  0  0  0  0  0  0  0  0  0
   -1.2533    4.5677    0.1898 H   0  0  0  0  0  0  0  0  0  0  0  0
    1.2131    4.5785    0.1906 H   0  0  0  0  0  0  0  0  0  0  0  0
    2.4506    2.4846    0.0975 H   0  0  0  0  0  0  0  0  0  0  0  0
    3.0924    0.9505   -1.9587 H   0  0  0  0  0  0  0  0  0  0  0  0
    6.6002    0.0379   -0.1147 H   0  0  0  0  0  0  0  0  0  0  0  0
    3.1689   -0.9182    1.8473 H   0  0  0  0  0  0  0  0  0  0  0  0
    2.4711   -2.4604   -0.1863 H   0  0  0  0  0  0  0  0  0  0  0  0
  1  2  2  0  0  0  0
  2  3  1  0  0  0  0
  3  4  2  0  0  0  0
  4  5  1  0  0  0  0
  5  6  1  0  0  0  0
  6  7  2  0  0  0  0
  7  8  1  0  0  0  0
  8  9  2  0  0  0  0
  9 10  1  0  0  0  0
 10 11  2  0  0  0  0
  5 12  2  0  0  0  0
 12 13  1  0  0  0  0
 13 14  2  0  0  0  0
 14 15  1  0  0  0  0
 15 16  2  0  0  0  0
 16 17  1  0  0  0  0
 17 18  2  0  0  0  0
 18 19  1  0  0  0  0
 19 20  2  0  0  0  0
 20 21  1  0  0  0  0
 21 22  2  0  0  0  0
 22 23  1  0  0  0  0
 23 24  2  0  0  0  0
 18 25  1  0  0  0  0
 25 26  2  0  0  0  0
 26  1  1  0  0  0  0
 25  4  1  0  0  0  0
 11  6  1  0  0  0  0
 17 12  1  0  0  0  0
 24 19  1  0  0  0  0
  1 27  1  0  0  0  0
  2 28  1  0  0  0  0
  3 29  1  0  0  0  0
  7 30  1  0  0  0  0
  9 31  1  0  0  0  0
 11 32  1  0  0  0  0
 13 33  1  0  0  0  0
 14 34  1  0  0  0  0
 15 35  1  0  0  0  0
 16 36  1  0  0  0  0
 20 37  1  0  0  0  0
 22 38  1  0  0  0  0
 24 39  1  0  0  0  0
 26 40  1  0  0  0  0
M  END
