
  xtb     03012221313D
 energy: -5.867996524024 gnorm: 0.000255318874 xtb: 6.4.1 (afa7bdf)
 30 32  0     0  0            999 V2000
   -0.5089    3.1020   -0.3363 C   0  0  0  0  0  0  0  0  0  0  0  0
   -0.4490    2.1689    0.8414 C   0  0  0  0  0  0  0  0  0  0  0  0
   -0.1514    0.6713    0.4036 B   0  0  0  0  0  0  0  0  0  0  0  0
   -1.2964   -0.2622    0.0642 C   0  0  0  0  0  0  0  0  0  0  0  0
   -2.6413    0.1226    0.0542 C   0  0  0  0  0  0  0  0  0  0  0  0
   -3.6189   -0.7825   -0.2427 C   0  0  0  0  0  0  0  0  0  0  0  0
   -3.2851   -2.1080   -0.5416 C   0  0  0  0  0  0  0  0  0  0  0  0
   -1.9798   -2.5038   -0.5454 C   0  0  0  0  0  0  0  0  0  0  0  0
   -0.9514   -1.5881   -0.2477 C   0  0  0  0  0  0  0  0  0  0  0  0
    0.3656   -1.9696   -0.2745 N   0  0  0  0  0  0  0  0  0  0  0  0
    1.4551   -1.1694   -0.0437 C   0  0  0  0  0  0  0  0  0  0  0  0
    2.7651   -1.6780   -0.1448 C   0  0  0  0  0  0  0  0  0  0  0  0
    3.8426   -0.8678    0.0627 C   0  0  0  0  0  0  0  0  0  0  0  0
    3.6589    0.4829    0.3781 C   0  0  0  0  0  0  0  0  0  0  0  0
    2.3997    0.9985    0.4863 C   0  0  0  0  0  0  0  0  0  0  0  0
    1.2795    0.1855    0.2845 C   0  0  0  0  0  0  0  0  0  0  0  0
   -1.2901    2.8000   -1.0364 H   0  0  0  0  0  0  0  0  0  0  0  0
   -0.7121    4.1323   -0.0355 H   0  0  0  0  0  0  0  0  0  0  0  0
    0.4324    3.0964   -0.8891 H   0  0  0  0  0  0  0  0  0  0  0  0
    0.3294    2.4534    1.5533 H   0  0  0  0  0  0  0  0  0  0  0  0
   -1.3849    2.1558    1.4048 H   0  0  0  0  0  0  0  0  0  0  0  0
   -2.9018    1.1425    0.2743 H   0  0  0  0  0  0  0  0  0  0  0  0
   -4.6527   -0.4779   -0.2481 H   0  0  0  0  0  0  0  0  0  0  0  0
   -4.0642   -2.8159   -0.7724 H   0  0  0  0  0  0  0  0  0  0  0  0
   -1.7180   -3.5208   -0.7800 H   0  0  0  0  0  0  0  0  0  0  0  0
    0.5548   -2.9412   -0.5117 H   0  0  0  0  0  0  0  0  0  0  0  0
    2.9018   -2.7160   -0.3930 H   0  0  0  0  0  0  0  0  0  0  0  0
    4.8406   -1.2662   -0.0194 H   0  0  0  0  0  0  0  0  0  0  0  0
    4.5170    1.1159    0.5347 H   0  0  0  0  0  0  0  0  0  0  0  0
    2.2633    2.0394    0.7201 H   0  0  0  0  0  0  0  0  0  0  0  0
  1  2  1  0  0  0  0
  2  3  1  0  0  0  0
  3  4  1  0  0  0  0
  4  5  2  0  0  0  0
  5  6  1  0  0  0  0
  6  7  2  0  0  0  0
  7  8  1  0  0  0  0
  8  9  2  0  0  0  0
  9 10  1  0  0  0  0
 10 11  1  0  0  0  0
 11 12  2  0  0  0  0
 12 13  1  0  0  0  0
 13 14  2  0  0  0  0
 14 15  1  0  0  0  0
 15 16  2  0  0  0  0
 16  3  1  0  0  0  0
  9  4  1  0  0  0  0
 16 11  1  0  0  0  0
  1 17  1  0  0  0  0
  1 18  1  0  0  0  0
  1 19  1  0  0  0  0
  2 20  1  0  0  0  0
  2 21  1  0  0  0  0
  5 22  1  0  0  0  0
  6 23  1  0  0  0  0
  7 24  1  0  0  0  0
  8 25  1  0  0  0  0
 10 26  1  0  0  0  0
 12 27  1  0  0  0  0
 13 28  1  0  0  0  0
 14 29  1  0  0  0  0
 15 30  1  0  0  0  0
M  END
