
  xtb     03012221273D
 energy: -6.073163359064 gnorm: 0.000249707155 xtb: 6.4.1 (afa7bdf)
 31 33  0     0  0            999 V2000
   -0.0341   -2.2592   -2.9300 F   0  0  0  0  0  0  0  0  0  0  0  0
    0.0012   -2.3226   -1.5442 B   0  0  0  0  0  4  0  0  0  0  0  0
    0.0359   -3.6446   -1.1239 F   0  0  0  0  0  0  0  0  0  0  0  0
   -1.2061   -1.6840   -1.0103 O   0  0  0  0  0  0  0  0  0  0  0  0
   -1.1998   -0.5680   -0.2330 C   0  0  0  0  0  0  0  0  0  0  0  0
   -2.4896   -0.0537    0.1758 C   0  0  0  0  0  0  0  0  0  0  0  0
   -2.6561    1.0820    0.9808 C   0  0  0  0  0  0  0  0  0  0  0  0
   -3.9146    1.5116    1.3285 C   0  0  0  0  0  0  0  0  0  0  0  0
   -5.0334    0.8283    0.8882 C   0  0  0  0  0  0  0  0  0  0  0  0
   -4.8892   -0.2936    0.0937 C   0  0  0  0  0  0  0  0  0  0  0  0
   -3.6346   -0.7287   -0.2576 C   0  0  0  0  0  0  0  0  0  0  0  0
   -0.0000    0.0193    0.1305 C   0  0  0  0  0  0  0  0  0  0  0  0
    1.2010   -0.5253   -0.2905 C   0  0  0  0  0  0  0  0  0  0  0  0
    2.4900    0.0338    0.0578 C   0  0  0  0  0  0  0  0  0  0  0  0
    3.6360   -0.5992   -0.4326 C   0  0  0  0  0  0  0  0  0  0  0  0
    4.8899   -0.1203   -0.1406 C   0  0  0  0  0  0  0  0  0  0  0  0
    5.0321    1.0046    0.6501 C   0  0  0  0  0  0  0  0  0  0  0  0
    3.9123    1.6466    1.1465 C   0  0  0  0  0  0  0  0  0  0  0  0
    2.6546    1.1729    0.8581 C   0  0  0  0  0  0  0  0  0  0  0  0
    1.2089   -1.6398   -1.0696 O   0  0  0  0  0  3  0  0  0  0  0  0
   -1.7963    1.6230    1.3308 H   0  0  0  0  0  0  0  0  0  0  0  0
   -4.0313    2.3855    1.9478 H   0  0  0  0  0  0  0  0  0  0  0  0
   -6.0173    1.1701    1.1641 H   0  0  0  0  0  0  0  0  0  0  0  0
   -5.7601   -0.8265   -0.2501 H   0  0  0  0  0  0  0  0  0  0  0  0
   -3.5056   -1.6008   -0.8761 H   0  0  0  0  0  0  0  0  0  0  0  0
   -0.0010    0.8985    0.7419 H   0  0  0  0  0  0  0  0  0  0  0  0
    3.5083   -1.4742   -1.0472 H   0  0  0  0  0  0  0  0  0  0  0  0
    5.7614   -0.6212   -0.5279 H   0  0  0  0  0  0  0  0  0  0  0  0
    6.0155    1.3807    0.8794 H   0  0  0  0  0  0  0  0  0  0  0  0
    4.0278    2.5228    1.7626 H   0  0  0  0  0  0  0  0  0  0  0  0
    1.7942    1.6821    1.2516 H   0  0  0  0  0  0  0  0  0  0  0  0
  1  2  1  0  0  0  0
  2  3  1  0  0  0  0
  2  4  1  0  0  0  0
  4  5  1  0  0  0  0
  5  6  1  0  0  0  0
  6  7  2  0  0  0  0
  7  8  1  0  0  0  0
  8  9  2  0  0  0  0
  9 10  1  0  0  0  0
 10 11  2  0  0  0  0
  5 12  2  0  0  0  0
 12 13  1  0  0  0  0
 13 14  1  0  0  0  0
 14 15  2  0  0  0  0
 15 16  1  0  0  0  0
 16 17  2  0  0  0  0
 17 18  1  0  0  0  0
 18 19  2  0  0  0  0
 13 20  2  0  0  0  0
 20  2  1  0  0  0  0
 11  6  1  0  0  0  0
 19 14  1  0  0  0  0
  7 21  1  0  0  0  0
  8 22  1  0  0  0  0
  9 23  1  0  0  0  0
 10 24  1  0  0  0  0
 11 25  1  0  0  0  0
 12 26  1  0  0  0  0
 15 27  1  0  0  0  0
 16 28  1  0  0  0  0
 17 29  1  0  0  0  0
 18 30  1  0  0  0  0
 19 31  1  0  0  0  0
M  CHG  1   2  -1
M  CHG  1  20   1
M  END
