
  xtb     03012221223D
 energy: -8.496857852681 gnorm: 0.000409708639 xtb: 6.4.1 (afa7bdf)
 42 45  0     0  0            999 V2000
   -6.7164    1.7867    1.3363 C   0  0  0  0  0  0  0  0  0  0  0  0
   -6.3125    0.4998    0.7695 N   0  0  0  0  0  0  0  0  0  0  0  0
   -7.3835   -0.4419    0.4438 C   0  0  0  0  0  0  0  0  0  0  0  0
   -4.9633    0.1871    0.5399 C   0  0  0  0  0  0  0  0  0  0  0  0
   -4.5810   -1.0830    0.0920 C   0  0  0  0  0  0  0  0  0  0  0  0
   -3.2634   -1.3868   -0.1339 C   0  0  0  0  0  0  0  0  0  0  0  0
   -2.2555   -0.4387    0.0746 C   0  0  0  0  0  0  0  0  0  0  0  0
   -0.8790   -0.7954   -0.1757 C   0  0  0  0  0  0  0  0  0  0  0  0
    0.1895    0.0126   -0.0230 C   0  0  0  0  0  0  0  0  0  0  0  0
    1.5244   -0.4043   -0.2895 C   0  0  0  0  0  0  0  0  0  0  0  0
    2.5637    0.3797   -0.1432 N   0  0  0  0  0  0  0  0  0  0  0  0
    3.7339   -0.2620   -0.4646 C   0  0  0  0  0  0  0  0  0  0  0  0
    3.6041   -1.5868   -0.8742 C   0  0  0  0  0  0  0  0  0  0  0  0
    4.7229   -2.3554   -1.2299 C   0  0  0  0  0  0  0  0  0  0  0  0
    5.9664   -1.8051   -1.1770 C   0  0  0  0  0  0  0  0  0  0  0  0
    6.1590   -0.4553   -0.7653 C   0  0  0  0  0  0  0  0  0  0  0  0
    7.4391    0.1295   -0.7045 C   0  0  0  0  0  0  0  0  0  0  0  0
    7.5947    1.4271   -0.3058 C   0  0  0  0  0  0  0  0  0  0  0  0
    6.4857    2.1974    0.0490 C   0  0  0  0  0  0  0  0  0  0  0  0
    5.2308    1.6599    0.0009 C   0  0  0  0  0  0  0  0  0  0  0  0
    5.0403    0.3310   -0.4042 C   0  0  0  0  0  0  0  0  0  0  0  0
    1.9292   -2.0288   -0.8489 S   0  0  0  0  0  0  0  0  0  0  0  0
   -2.6364    0.8313    0.5231 C   0  0  0  0  0  0  0  0  0  0  0  0
   -3.9543    1.1349    0.7498 C   0  0  0  0  0  0  0  0  0  0  0  0
   -6.1596    1.9845    2.2500 H   0  0  0  0  0  0  0  0  0  0  0  0
   -6.5252    2.5854    0.6224 H   0  0  0  0  0  0  0  0  0  0  0  0
   -7.7760    1.7908    1.5826 H   0  0  0  0  0  0  0  0  0  0  0  0
   -7.3423   -1.2991    1.1126 H   0  0  0  0  0  0  0  0  0  0  0  0
   -7.2804   -0.7852   -0.5836 H   0  0  0  0  0  0  0  0  0  0  0  0
   -8.3604    0.0262    0.5433 H   0  0  0  0  0  0  0  0  0  0  0  0
   -5.3338   -1.8338   -0.0685 H   0  0  0  0  0  0  0  0  0  0  0  0
   -2.9899   -2.3700   -0.4770 H   0  0  0  0  0  0  0  0  0  0  0  0
   -0.6952   -1.7986   -0.5160 H   0  0  0  0  0  0  0  0  0  0  0  0
    0.0564    1.0230    0.3135 H   0  0  0  0  0  0  0  0  0  0  0  0
    4.5791   -3.3756   -1.5410 H   0  0  0  0  0  0  0  0  0  0  0  0
    6.8280   -2.3898   -1.4484 H   0  0  0  0  0  0  0  0  0  0  0  0
    8.2959   -0.4619   -0.9772 H   0  0  0  0  0  0  0  0  0  0  0  0
    8.5799    1.8617   -0.2640 H   0  0  0  0  0  0  0  0  0  0  0  0
    6.6223    3.2195    0.3615 H   0  0  0  0  0  0  0  0  0  0  0  0
    4.3688    2.2443    0.2721 H   0  0  0  0  0  0  0  0  0  0  0  0
   -1.8852    1.5818    0.6923 H   0  0  0  0  0  0  0  0  0  0  0  0
   -4.2211    2.1207    1.0863 H   0  0  0  0  0  0  0  0  0  0  0  0
  1  2  1  0  0  0  0
  2  3  1  0  0  0  0
  2  4  1  0  0  0  0
  4  5  2  0  0  0  0
  5  6  1  0  0  0  0
  6  7  2  0  0  0  0
  7  8  1  0  0  0  0
  8  9  2  0  0  0  0
  9 10  1  0  0  0  0
 10 11  2  0  0  0  0
 11 12  1  0  0  0  0
 12 13  2  0  0  0  0
 13 14  1  0  0  0  0
 14 15  2  0  0  0  0
 15 16  1  0  0  0  0
 16 17  2  0  0  0  0
 17 18  1  0  0  0  0
 18 19  2  0  0  0  0
 19 20  1  0  0  0  0
 20 21  2  0  0  0  0
 13 22  1  0  0  0  0
  7 23  1  0  0  0  0
 23 24  2  0  0  0  0
 24  4  1  0  0  0  0
 22 10  1  0  0  0  0
 21 12  1  0  0  0  0
 21 16  1  0  0  0  0
  1 25  1  0  0  0  0
  1 26  1  0  0  0  0
  1 27  1  0  0  0  0
  3 28  1  0  0  0  0
  3 29  1  0  0  0  0
  3 30  1  0  0  0  0
  5 31  1  0  0  0  0
  6 32  1  0  0  0  0
  8 33  1  0  0  0  0
  9 34  1  0  0  0  0
 14 35  1  0  0  0  0
 15 36  1  0  0  0  0
 17 37  1  0  0  0  0
 18 38  1  0  0  0  0
 19 39  1  0  0  0  0
 20 40  1  0  0  0  0
 23 41  1  0  0  0  0
 24 42  1  0  0  0  0
M  END
