
  xtb     03012221273D
 energy: -7.240887451073 gnorm: 0.000559584331 xtb: 6.4.1 (afa7bdf)
 33 36  0     0  0            999 V2000
   -1.2772    1.9988   -1.6254 O   0  0  0  0  0  0  0  0  0  0  0  0
   -0.4387    1.3256   -1.0505 C   0  0  0  0  0  0  0  0  0  0  0  0
    0.9532    1.4514   -1.1003 N   0  0  0  0  0  0  0  0  0  0  0  0
    1.5834    0.5065   -0.3174 C   0  0  0  0  0  0  0  0  0  0  0  0
    3.0193    0.3525   -0.1537 C   0  0  0  0  0  0  0  0  0  0  0  0
    3.9101    1.1986   -0.8115 C   0  0  0  0  0  0  0  0  0  0  0  0
    5.2689    1.0465   -0.6580 C   0  0  0  0  0  0  0  0  0  0  0  0
    5.7682    0.0490    0.1539 C   0  0  0  0  0  0  0  0  0  0  0  0
    4.9024   -0.7979    0.8141 C   0  0  0  0  0  0  0  0  0  0  0  0
    3.5449   -0.6483    0.6622 C   0  0  0  0  0  0  0  0  0  0  0  0
    0.5714   -0.2701    0.2725 C   0  0  0  0  0  0  0  0  0  0  0  0
    0.3042   -1.3947    1.1646 C   0  0  0  0  0  0  0  0  0  0  0  0
    1.1671   -2.0523    1.7243 O   0  0  0  0  0  0  0  0  0  0  0  0
   -1.0695   -1.5463    1.2317 O   0  0  0  0  0  0  0  0  0  0  0  0
   -1.6648   -0.5902    0.4393 C   0  0  0  0  0  0  0  0  0  0  0  0
   -3.1001   -0.4571    0.2663 C   0  0  0  0  0  0  0  0  0  0  0  0
   -3.6548    0.5223   -0.5535 C   0  0  0  0  0  0  0  0  0  0  0  0
   -5.0175    0.6207   -0.7017 C   0  0  0  0  0  0  0  0  0  0  0  0
   -5.8504   -0.2555   -0.0354 C   0  0  0  0  0  0  0  0  0  0  0  0
   -5.3149   -1.2312    0.7814 C   0  0  0  0  0  0  0  0  0  0  0  0
   -3.9513   -1.3321    0.9317 C   0  0  0  0  0  0  0  0  0  0  0  0
   -0.6759    0.2016   -0.1541 C   0  0  0  0  0  0  0  0  0  0  0  0
    1.3959    2.1686   -1.6677 H   0  0  0  0  0  0  0  0  0  0  0  0
    3.5264    1.9771   -1.4454 H   0  0  0  0  0  0  0  0  0  0  0  0
    5.9453    1.7081   -1.1740 H   0  0  0  0  0  0  0  0  0  0  0  0
    6.8327   -0.0686    0.2722 H   0  0  0  0  0  0  0  0  0  0  0  0
    5.2891   -1.5783    1.4489 H   0  0  0  0  0  0  0  0  0  0  0  0
    2.8654   -1.3072    1.1738 H   0  0  0  0  0  0  0  0  0  0  0  0
   -2.9962    1.2002   -1.0686 H   0  0  0  0  0  0  0  0  0  0  0  0
   -5.4345    1.3825   -1.3399 H   0  0  0  0  0  0  0  0  0  0  0  0
   -6.9183   -0.1781   -0.1529 H   0  0  0  0  0  0  0  0  0  0  0  0
   -5.9655   -1.9145    1.3022 H   0  0  0  0  0  0  0  0  0  0  0  0
   -3.5183   -2.0878    1.5647 H   0  0  0  0  0  0  0  0  0  0  0  0
  1  2  2  0  0  0  0
  2  3  1  0  0  0  0
  3  4  1  0  0  0  0
  4  5  1  0  0  0  0
  5  6  2  0  0  0  0
  6  7  1  0  0  0  0
  7  8  2  0  0  0  0
  8  9  1  0  0  0  0
  9 10  2  0  0  0  0
  4 11  2  0  0  0  0
 11 12  1  0  0  0  0
 12 13  2  0  0  0  0
 12 14  1  0  0  0  0
 14 15  1  0  0  0  0
 15 16  1  0  0  0  0
 16 17  2  0  0  0  0
 17 18  1  0  0  0  0
 18 19  2  0  0  0  0
 19 20  1  0  0  0  0
 20 21  2  0  0  0  0
 15 22  2  0  0  0  0
 22  2  1  0  0  0  0
 10  5  1  0  0  0  0
 22 11  1  0  0  0  0
 21 16  1  0  0  0  0
  3 23  1  0  0  0  0
  6 24  1  0  0  0  0
  7 25  1  0  0  0  0
  8 26  1  0  0  0  0
  9 27  1  0  0  0  0
 10 28  1  0  0  0  0
 17 29  1  0  0  0  0
 18 30  1  0  0  0  0
 19 31  1  0  0  0  0
 20 32  1  0  0  0  0
 21 33  1  0  0  0  0
M  END
