
  xtb     03012221323D
 energy: -18.497297410324 gnorm: 0.000149848914 xtb: 6.4.1 (afa7bdf)
 89 96  0     0  0            999 V2000
   -9.8874    4.8883   -1.5410 C   0  0  0  0  0  0  0  0  0  0  0  0
   -9.1677    3.6482   -1.1381 C   0  0  0  0  0  0  0  0  0  0  0  0
   -7.9827    3.2813   -1.7623 C   0  0  0  0  0  0  0  0  0  0  0  0
   -7.3280    2.1227   -1.4091 C   0  0  0  0  0  0  0  0  0  0  0  0
   -7.8426    1.2899   -0.4203 C   0  0  0  0  0  0  0  0  0  0  0  0
   -7.1659    0.0771   -0.0541 N   0  0  0  0  0  0  0  0  0  0  0  0
   -7.9348   -1.1027    0.2273 C   0  0  0  0  0  0  0  0  0  0  0  0
   -7.5655   -1.9672    1.2532 C   0  0  0  0  0  0  0  0  0  0  0  0
   -8.3080   -3.0949    1.5228 C   0  0  0  0  0  0  0  0  0  0  0  0
   -9.4385   -3.3987    0.7756 C   0  0  0  0  0  0  0  0  0  0  0  0
  -10.2548   -4.6052    1.0855 C   0  0  0  0  0  0  0  0  0  0  0  0
   -9.8139   -2.5298   -0.2406 C   0  0  0  0  0  0  0  0  0  0  0  0
   -9.0741   -1.4012   -0.5136 C   0  0  0  0  0  0  0  0  0  0  0  0
   -5.7379    0.0425    0.0162 C   0  0  0  0  0  0  0  0  0  0  0  0
   -5.0334   -1.1182   -0.2949 C   0  0  0  0  0  0  0  0  0  0  0  0
   -3.6643   -1.1421   -0.2348 C   0  0  0  0  0  0  0  0  0  0  0  0
   -2.9215   -0.0148    0.1297 C   0  0  0  0  0  0  0  0  0  0  0  0
   -1.4567   -0.0501    0.1511 C   0  0  0  0  0  0  0  0  0  0  0  0
   -0.6998    1.0999    0.2651 C   0  0  0  0  0  0  0  0  0  0  0  0
    0.6985    1.0995    0.2665 C   0  0  0  0  0  0  0  0  0  0  0  0
    1.4555   -0.0500    0.1471 C   0  0  0  0  0  0  0  0  0  0  0  0
    2.9205   -0.0153    0.1327 C   0  0  0  0  0  0  0  0  0  0  0  0
    3.6712   -1.1913    0.2262 C   0  0  0  0  0  0  0  0  0  0  0  0
    5.0418   -1.1773    0.2233 C   0  0  0  0  0  0  0  0  0  0  0  0
    5.7401    0.0233    0.1175 C   0  0  0  0  0  0  0  0  0  0  0  0
    7.1699    0.0432    0.0994 N   0  0  0  0  0  0  0  0  0  0  0  0
    7.8698    1.0415   -0.6600 C   0  0  0  0  0  0  0  0  0  0  0  0
    9.0374    1.6178   -0.1697 C   0  0  0  0  0  0  0  0  0  0  0  0
    9.7100    2.5719   -0.9000 C   0  0  0  0  0  0  0  0  0  0  0  0
    9.2373    2.9845   -2.1390 C   0  0  0  0  0  0  0  0  0  0  0  0
    9.9790    3.9992   -2.9379 C   0  0  0  0  0  0  0  0  0  0  0  0
    8.0791    2.3998   -2.6343 C   0  0  0  0  0  0  0  0  0  0  0  0
    7.4036    1.4454   -1.9073 C   0  0  0  0  0  0  0  0  0  0  0  0
    7.9182   -0.9454    0.8240 C   0  0  0  0  0  0  0  0  0  0  0  0
    7.4996   -1.3800    2.0778 C   0  0  0  0  0  0  0  0  0  0  0  0
    8.2212   -2.3269    2.7697 C   0  0  0  0  0  0  0  0  0  0  0  0
    9.3859   -2.8641    2.2373 C   0  0  0  0  0  0  0  0  0  0  0  0
   10.1506   -3.9074    2.9754 C   0  0  0  0  0  0  0  0  0  0  0  0
    9.8001   -2.4354    0.9830 C   0  0  0  0  0  0  0  0  0  0  0  0
    9.0814   -1.4888    0.2878 C   0  0  0  0  0  0  0  0  0  0  0  0
    5.0057    1.2034    0.0158 C   0  0  0  0  0  0  0  0  0  0  0  0
    3.6334    1.1857    0.0225 C   0  0  0  0  0  0  0  0  0  0  0  0
    0.7277   -1.2928    0.0347 C   0  0  0  0  0  0  0  0  0  0  0  0
    1.2315   -2.5027   -0.0787 N   0  0  0  0  0  0  0  0  0  0  0  0
   -0.0017   -3.5801   -0.1801 S   0  0  0  0  0  0  0  0  0  0  0  0
   -1.2341   -2.5019   -0.0803 N   0  0  0  0  0  0  0  0  0  0  0  0
   -0.7293   -1.2923    0.0328 C   0  0  0  0  0  0  0  0  0  0  0  0
   -3.6411    1.1428    0.4536 C   0  0  0  0  0  0  0  0  0  0  0  0
   -5.0121    1.1699    0.3967 C   0  0  0  0  0  0  0  0  0  0  0  0
   -9.0359    1.6517    0.1969 C   0  0  0  0  0  0  0  0  0  0  0  0
   -9.6876    2.8111   -0.1594 C   0  0  0  0  0  0  0  0  0  0  0  0
  -10.5774    4.6863   -2.3611 H   0  0  0  0  0  0  0  0  0  0  0  0
  -10.4630    5.2974   -0.7098 H   0  0  0  0  0  0  0  0  0  0  0  0
   -9.1892    5.6588   -1.8705 H   0  0  0  0  0  0  0  0  0  0  0  0
   -7.5790    3.9150   -2.5338 H   0  0  0  0  0  0  0  0  0  0  0  0
   -6.4151    1.8400   -1.9030 H   0  0  0  0  0  0  0  0  0  0  0  0
   -6.6952   -1.7339    1.8411 H   0  0  0  0  0  0  0  0  0  0  0  0
   -8.0162   -3.7537    2.3232 H   0  0  0  0  0  0  0  0  0  0  0  0
  -10.7374   -4.9949    0.1883 H   0  0  0  0  0  0  0  0  0  0  0  0
  -11.0338   -4.3696    1.8115 H   0  0  0  0  0  0  0  0  0  0  0  0
   -9.6372   -5.4024    1.5011 H   0  0  0  0  0  0  0  0  0  0  0  0
  -10.6963   -2.7487   -0.8178 H   0  0  0  0  0  0  0  0  0  0  0  0
   -9.3646   -0.7377   -1.3089 H   0  0  0  0  0  0  0  0  0  0  0  0
   -5.5806   -1.9939   -0.5955 H   0  0  0  0  0  0  0  0  0  0  0  0
   -3.1432   -2.0492   -0.4739 H   0  0  0  0  0  0  0  0  0  0  0  0
   -1.2011    2.0481    0.3348 H   0  0  0  0  0  0  0  0  0  0  0  0
    1.1996    2.0438    0.3782 H   0  0  0  0  0  0  0  0  0  0  0  0
    3.1555   -2.1299    0.2934 H   0  0  0  0  0  0  0  0  0  0  0  0
    5.5954   -2.0975    0.2831 H   0  0  0  0  0  0  0  0  0  0  0  0
    9.4034    1.3097    0.7938 H   0  0  0  0  0  0  0  0  0  0  0  0
   10.6148    3.0087   -0.5125 H   0  0  0  0  0  0  0  0  0  0  0  0
   10.7110    3.5199   -3.5891 H   0  0  0  0  0  0  0  0  0  0  0  0
   10.5106    4.6981   -2.2909 H   0  0  0  0  0  0  0  0  0  0  0  0
    9.3004    4.5797   -3.5642 H   0  0  0  0  0  0  0  0  0  0  0  0
    7.7125    2.7003   -3.6012 H   0  0  0  0  0  0  0  0  0  0  0  0
    6.5115    0.9906   -2.3007 H   0  0  0  0  0  0  0  0  0  0  0  0
    6.6057   -0.9581    2.5022 H   0  0  0  0  0  0  0  0  0  0  0  0
    7.8845   -2.6605    3.7367 H   0  0  0  0  0  0  0  0  0  0  0  0
   11.2162   -3.8471    2.7504 H   0  0  0  0  0  0  0  0  0  0  0  0
    9.8050   -4.9055    2.7037 H   0  0  0  0  0  0  0  0  0  0  0  0
   10.0336   -3.7926    4.0537 H   0  0  0  0  0  0  0  0  0  0  0  0
   10.6945   -2.8553    0.5548 H   0  0  0  0  0  0  0  0  0  0  0  0
    9.4051   -1.1643   -0.6854 H   0  0  0  0  0  0  0  0  0  0  0  0
    5.5354    2.1364   -0.0609 H   0  0  0  0  0  0  0  0  0  0  0  0
    3.1026    2.1153   -0.0772 H   0  0  0  0  0  0  0  0  0  0  0  0
   -3.1170    2.0262    0.7712 H   0  0  0  0  0  0  0  0  0  0  0  0
   -5.5481    2.0648    0.6589 H   0  0  0  0  0  0  0  0  0  0  0  0
   -9.4389    1.0124    0.9625 H   0  0  0  0  0  0  0  0  0  0  0  0
  -10.6130    3.0791    0.3218 H   0  0  0  0  0  0  0  0  0  0  0  0
  1  2  1  0  0  0  0
  2  3  2  0  0  0  0
  3  4  1  0  0  0  0
  4  5  2  0  0  0  0
  5  6  1  0  0  0  0
  6  7  1  0  0  0  0
  7  8  2  0  0  0  0
  8  9  1  0  0  0  0
  9 10  2  0  0  0  0
 10 11  1  0  0  0  0
 10 12  1  0  0  0  0
 12 13  2  0  0  0  0
  6 14  1  0  0  0  0
 14 15  2  0  0  0  0
 15 16  1  0  0  0  0
 16 17  2  0  0  0  0
 17 18  1  0  0  0  0
 18 19  2  0  0  0  0
 19 20  1  0  0  0  0
 20 21  2  0  0  0  0
 21 22  1  0  0  0  0
 22 23  2  0  0  0  0
 23 24  1  0  0  0  0
 24 25  2  0  0  0  0
 25 26  1  0  0  0  0
 26 27  1  0  0  0  0
 27 28  2  0  0  0  0
 28 29  1  0  0  0  0
 29 30  2  0  0  0  0
 30 31  1  0  0  0  0
 30 32  1  0  0  0  0
 32 33  2  0  0  0  0
 26 34  1  0  0  0  0
 34 35  2  0  0  0  0
 35 36  1  0  0  0  0
 36 37  2  0  0  0  0
 37 38  1  0  0  0  0
 37 39  1  0  0  0  0
 39 40  2  0  0  0  0
 25 41  1  0  0  0  0
 41 42  2  0  0  0  0
 21 43  1  0  0  0  0
 43 44  2  0  0  0  0
 44 45  1  0  0  0  0
 45 46  1  0  0  0  0
 46 47  2  0  0  0  0
 17 48  1  0  0  0  0
 48 49  2  0  0  0  0
  5 50  1  0  0  0  0
 50 51  2  0  0  0  0
 51  2  1  0  0  0  0
 13  7  1  0  0  0  0
 49 14  1  0  0  0  0
 47 18  1  0  0  0  0
 42 22  1  0  0  0  0
 47 43  1  0  0  0  0
 33 27  1  0  0  0  0
 40 34  1  0  0  0  0
  1 52  1  0  0  0  0
  1 53  1  0  0  0  0
  1 54  1  0  0  0  0
  3 55  1  0  0  0  0
  4 56  1  0  0  0  0
  8 57  1  0  0  0  0
  9 58  1  0  0  0  0
 11 59  1  0  0  0  0
 11 60  1  0  0  0  0
 11 61  1  0  0  0  0
 12 62  1  0  0  0  0
 13 63  1  0  0  0  0
 15 64  1  0  0  0  0
 16 65  1  0  0  0  0
 19 66  1  0  0  0  0
 20 67  1  0  0  0  0
 23 68  1  0  0  0  0
 24 69  1  0  0  0  0
 28 70  1  0  0  0  0
 29 71  1  0  0  0  0
 31 72  1  0  0  0  0
 31 73  1  0  0  0  0
 31 74  1  0  0  0  0
 32 75  1  0  0  0  0
 33 76  1  0  0  0  0
 35 77  1  0  0  0  0
 36 78  1  0  0  0  0
 38 79  1  0  0  0  0
 38 80  1  0  0  0  0
 38 81  1  0  0  0  0
 39 82  1  0  0  0  0
 40 83  1  0  0  0  0
 41 84  1  0  0  0  0
 42 85  1  0  0  0  0
 48 86  1  0  0  0  0
 49 87  1  0  0  0  0
 50 88  1  0  0  0  0
 51 89  1  0  0  0  0
M  END
