
  xtb     03012221253D
 energy: -7.499925254537 gnorm: 0.000168070016 xtb: 6.4.1 (afa7bdf)
 36 39  0     0  0            999 V2000
    4.3472   -1.9947    0.5019 C   0  0  0  0  0  0  0  0  0  0  0  0
    4.4231   -0.6261    0.6666 C   0  0  0  0  0  0  0  0  0  0  0  0
    3.3596    0.1752    0.3117 C   0  0  0  0  0  0  0  0  0  0  0  0
    2.1935   -0.3802   -0.2189 C   0  0  0  0  0  0  0  0  0  0  0  0
    1.0557    0.4424   -0.5952 C   0  0  0  0  0  0  0  0  0  0  0  0
    0.8583    1.7524   -0.3694 C   0  0  0  0  0  0  0  0  0  0  0  0
   -0.4395    2.2830   -0.8226 C   0  0  0  0  0  0  0  0  0  0  0  0
   -0.9007    3.5943   -0.6688 C   0  0  0  0  0  0  0  0  0  0  0  0
   -2.1632    3.9246   -1.1178 C   0  0  0  0  0  0  0  0  0  0  0  0
   -2.9731    2.9711   -1.7127 C   0  0  0  0  0  0  0  0  0  0  0  0
   -2.5256    1.6702   -1.8679 C   0  0  0  0  0  0  0  0  0  0  0  0
   -1.2680    1.3425   -1.4255 C   0  0  0  0  0  0  0  0  0  0  0  0
   -0.3904   -0.2249   -1.4498 P   0  0  0  0  0  0  0  0  0  0  0  0
   -1.1942   -0.9928   -0.0281 C   0  0  0  0  0  0  0  0  0  0  0  0
   -1.6238   -2.2939   -0.1638 C   0  0  0  0  0  0  0  0  0  0  0  0
   -2.2355   -2.9310    0.9016 C   0  0  0  0  0  0  0  0  0  0  0  0
   -2.4124   -2.2598    2.0952 C   0  0  0  0  0  0  0  0  0  0  0  0
   -1.9805   -0.9549    2.2264 C   0  0  0  0  0  0  0  0  0  0  0  0
   -1.3696   -0.3213    1.1604 C   0  0  0  0  0  0  0  0  0  0  0  0
    2.1384   -1.7659   -0.3761 C   0  0  0  0  0  0  0  0  0  0  0  0
    3.2030   -2.5634   -0.0198 C   0  0  0  0  0  0  0  0  0  0  0  0
    5.1806   -2.6187    0.7817 H   0  0  0  0  0  0  0  0  0  0  0  0
    5.3172   -0.1829    1.0743 H   0  0  0  0  0  0  0  0  0  0  0  0
    3.4273    1.2414    0.4385 H   0  0  0  0  0  0  0  0  0  0  0  0
    1.5743    2.3785    0.1408 H   0  0  0  0  0  0  0  0  0  0  0  0
   -0.2696    4.3277   -0.1982 H   0  0  0  0  0  0  0  0  0  0  0  0
   -2.5239    4.9335   -1.0009 H   0  0  0  0  0  0  0  0  0  0  0  0
   -3.9584    3.2421   -2.0554 H   0  0  0  0  0  0  0  0  0  0  0  0
   -3.1460    0.9164   -2.3226 H   0  0  0  0  0  0  0  0  0  0  0  0
   -1.4779   -2.8054   -1.1028 H   0  0  0  0  0  0  0  0  0  0  0  0
   -2.5726   -3.9496    0.7989 H   0  0  0  0  0  0  0  0  0  0  0  0
   -2.8884   -2.7553    2.9260 H   0  0  0  0  0  0  0  0  0  0  0  0
   -2.1184   -0.4307    3.1581 H   0  0  0  0  0  0  0  0  0  0  0  0
   -1.0286    0.6965    1.2513 H   0  0  0  0  0  0  0  0  0  0  0  0
    1.2409   -2.2080   -0.7714 H   0  0  0  0  0  0  0  0  0  0  0  0
    3.1412   -3.6323   -0.1456 H   0  0  0  0  0  0  0  0  0  0  0  0
  1  2  2  0  0  0  0
  2  3  1  0  0  0  0
  3  4  2  0  0  0  0
  4  5  1  0  0  0  0
  5  6  2  0  0  0  0
  6  7  1  0  0  0  0
  7  8  2  0  0  0  0
  8  9  1  0  0  0  0
  9 10  2  0  0  0  0
 10 11  1  0  0  0  0
 11 12  2  0  0  0  0
 12 13  1  0  0  0  0
 13 14  1  0  0  0  0
 14 15  2  0  0  0  0
 15 16  1  0  0  0  0
 16 17  2  0  0  0  0
 17 18  1  0  0  0  0
 18 19  2  0  0  0  0
  4 20  1  0  0  0  0
 20 21  2  0  0  0  0
 21  1  1  0  0  0  0
 13  5  1  0  0  0  0
 19 14  1  0  0  0  0
 12  7  1  0  0  0  0
  1 22  1  0  0  0  0
  2 23  1  0  0  0  0
  3 24  1  0  0  0  0
  6 25  1  0  0  0  0
  8 26  1  0  0  0  0
  9 27  1  0  0  0  0
 10 28  1  0  0  0  0
 11 29  1  0  0  0  0
 15 30  1  0  0  0  0
 16 31  1  0  0  0  0
 17 32  1  0  0  0  0
 18 33  1  0  0  0  0
 19 34  1  0  0  0  0
 20 35  1  0  0  0  0
 21 36  1  0  0  0  0
M  END
