
  xtb     03012221333D
 energy: -17.525431830082 gnorm: 0.000174099486 xtb: 6.4.1 (afa7bdf)
 82 88  0     0  0            999 V2000
   -3.2905   -1.0932    2.7394 C   0  0  0  0  0  0  0  0  0  0  0  0
   -2.0037   -0.8977    2.4003 C   0  0  0  0  0  0  0  0  0  0  0  0
   -0.8513   -1.2591    3.1974 C   0  0  0  0  0  0  0  0  0  0  0  0
   -0.9714   -1.8310    4.4546 C   0  0  0  0  0  0  0  0  0  0  0  0
    0.1710   -2.1491    5.1272 C   0  0  0  0  0  0  0  0  0  0  0  0
    1.3732   -1.9420    4.6377 N   0  0  0  0  0  0  0  0  0  0  0  0
    1.4068   -1.3863    3.4222 C   0  0  0  0  0  0  0  0  0  0  0  0
    2.7162   -1.1574    2.8574 C   0  0  0  0  0  0  0  0  0  0  0  0
    2.8935   -0.5773    1.6597 C   0  0  0  0  0  0  0  0  0  0  0  0
    4.1664   -0.3313    1.0162 C   0  0  0  0  0  0  0  0  0  0  0  0
    5.3768   -0.7866    1.5495 C   0  0  0  0  0  0  0  0  0  0  0  0
    6.5642   -0.5495    0.9034 C   0  0  0  0  0  0  0  0  0  0  0  0
    6.5983    0.1537   -0.3001 C   0  0  0  0  0  0  0  0  0  0  0  0
    7.8360    0.3842   -0.9780 N   0  0  0  0  0  0  0  0  0  0  0  0
    8.0313    1.5834   -1.7454 C   0  0  0  0  0  0  0  0  0  0  0  0
    7.5400    2.8060   -1.2941 C   0  0  0  0  0  0  0  0  0  0  0  0
    7.7348    3.9549   -2.0277 C   0  0  0  0  0  0  0  0  0  0  0  0
    8.4240    3.9041   -3.2239 C   0  0  0  0  0  0  0  0  0  0  0  0
    8.9186    2.6991   -3.6842 C   0  0  0  0  0  0  0  0  0  0  0  0
    8.7252    1.5489   -2.9524 C   0  0  0  0  0  0  0  0  0  0  0  0
    8.8878   -0.5932   -0.9121 C   0  0  0  0  0  0  0  0  0  0  0  0
   10.2203   -0.1987   -0.8203 C   0  0  0  0  0  0  0  0  0  0  0  0
   11.2277   -1.1358   -0.7655 C   0  0  0  0  0  0  0  0  0  0  0  0
   10.9234   -2.4828   -0.8021 C   0  0  0  0  0  0  0  0  0  0  0  0
    9.6065   -2.8900   -0.8945 C   0  0  0  0  0  0  0  0  0  0  0  0
    8.5974   -1.9549   -0.9498 C   0  0  0  0  0  0  0  0  0  0  0  0
    5.3944    0.6139   -0.8317 C   0  0  0  0  0  0  0  0  0  0  0  0
    4.2049    0.3746   -0.1906 C   0  0  0  0  0  0  0  0  0  0  0  0
    0.3550   -1.0306    2.6794 N   0  0  0  0  0  0  0  0  0  0  0  0
   -4.4337   -0.7398    1.9225 C   0  0  0  0  0  0  0  0  0  0  0  0
   -4.3072   -0.1146    0.6771 C   0  0  0  0  0  0  0  0  0  0  0  0
   -5.4152    0.1975   -0.0706 C   0  0  0  0  0  0  0  0  0  0  0  0
   -6.6985   -0.0992    0.3876 C   0  0  0  0  0  0  0  0  0  0  0  0
   -7.8507    0.2225   -0.3959 N   0  0  0  0  0  0  0  0  0  0  0  0
   -9.0240   -0.6043   -0.3330 C   0  0  0  0  0  0  0  0  0  0  0  0
  -10.2949   -0.0360   -0.3619 C   0  0  0  0  0  0  0  0  0  0  0  0
  -11.4198   -0.8280   -0.3049 C   0  0  0  0  0  0  0  0  0  0  0  0
  -11.2962   -2.2013   -0.2198 C   0  0  0  0  0  0  0  0  0  0  0  0
  -10.0423   -2.7803   -0.1933 C   0  0  0  0  0  0  0  0  0  0  0  0
   -8.9160   -1.9904   -0.2503 C   0  0  0  0  0  0  0  0  0  0  0  0
   -7.8440    1.3717   -1.2580 C   0  0  0  0  0  0  0  0  0  0  0  0
   -7.2401    2.5607   -0.8565 C   0  0  0  0  0  0  0  0  0  0  0  0
   -7.2379    3.6613   -1.6838 C   0  0  0  0  0  0  0  0  0  0  0  0
   -7.8398    3.5955   -2.9255 C   0  0  0  0  0  0  0  0  0  0  0  0
   -8.4456    2.4241   -3.3368 C   0  0  0  0  0  0  0  0  0  0  0  0
   -8.4490    1.3221   -2.5113 C   0  0  0  0  0  0  0  0  0  0  0  0
   -6.8284   -0.7198    1.6294 C   0  0  0  0  0  0  0  0  0  0  0  0
   -5.7230   -1.0324    2.3797 C   0  0  0  0  0  0  0  0  0  0  0  0
   -3.5089   -1.5568    3.6836 H   0  0  0  0  0  0  0  0  0  0  0  0
   -1.7780   -0.4460    1.4527 H   0  0  0  0  0  0  0  0  0  0  0  0
   -1.9356   -2.0189    4.8916 H   0  0  0  0  0  0  0  0  0  0  0  0
    0.1132   -2.5947    6.1082 H   0  0  0  0  0  0  0  0  0  0  0  0
    3.5603   -1.4703    3.4421 H   0  0  0  0  0  0  0  0  0  0  0  0
    2.0111   -0.2684    1.1284 H   0  0  0  0  0  0  0  0  0  0  0  0
    5.3782   -1.3376    2.4724 H   0  0  0  0  0  0  0  0  0  0  0  0
    7.4907   -0.8982    1.3250 H   0  0  0  0  0  0  0  0  0  0  0  0
    7.0137    2.8403   -0.3561 H   0  0  0  0  0  0  0  0  0  0  0  0
    7.3507    4.8952   -1.6672 H   0  0  0  0  0  0  0  0  0  0  0  0
    8.5760    4.8037   -3.7973 H   0  0  0  0  0  0  0  0  0  0  0  0
    9.4560    2.6590   -4.6176 H   0  0  0  0  0  0  0  0  0  0  0  0
    9.1022    0.6059   -3.3080 H   0  0  0  0  0  0  0  0  0  0  0  0
   10.4495    0.8522   -0.7856 H   0  0  0  0  0  0  0  0  0  0  0  0
   12.2550   -0.8178   -0.6933 H   0  0  0  0  0  0  0  0  0  0  0  0
   11.7124   -3.2154   -0.7591 H   0  0  0  0  0  0  0  0  0  0  0  0
    9.3686   -3.9407   -0.9249 H   0  0  0  0  0  0  0  0  0  0  0  0
    7.5704   -2.2651   -1.0330 H   0  0  0  0  0  0  0  0  0  0  0  0
    5.4105    1.1472   -1.7660 H   0  0  0  0  0  0  0  0  0  0  0  0
    3.2830    0.7308   -0.6168 H   0  0  0  0  0  0  0  0  0  0  0  0
   -3.3313    0.1257    0.2962 H   0  0  0  0  0  0  0  0  0  0  0  0
   -5.3052    0.6657   -1.0335 H   0  0  0  0  0  0  0  0  0  0  0  0
  -10.3835    1.0347   -0.4216 H   0  0  0  0  0  0  0  0  0  0  0  0
  -12.3979   -0.3758   -0.3259 H   0  0  0  0  0  0  0  0  0  0  0  0
  -12.1771   -2.8203   -0.1747 H   0  0  0  0  0  0  0  0  0  0  0  0
   -9.9453   -3.8518   -0.1293 H   0  0  0  0  0  0  0  0  0  0  0  0
   -7.9365   -2.4357   -0.2416 H   0  0  0  0  0  0  0  0  0  0  0  0
   -6.7833    2.6087    0.1166 H   0  0  0  0  0  0  0  0  0  0  0  0
   -6.7673    4.5758   -1.3615 H   0  0  0  0  0  0  0  0  0  0  0  0
   -7.8373    4.4573   -3.5724 H   0  0  0  0  0  0  0  0  0  0  0  0
   -8.9155    2.3723   -4.3053 H   0  0  0  0  0  0  0  0  0  0  0  0
   -8.9129    0.4043   -2.8279 H   0  0  0  0  0  0  0  0  0  0  0  0
   -7.8151   -0.9404    1.9983 H   0  0  0  0  0  0  0  0  0  0  0  0
   -5.8415   -1.5113    3.3363 H   0  0  0  0  0  0  0  0  0  0  0  0
  1  2  2  0  0  0  0
  2  3  1  0  0  0  0
  3  4  2  0  0  0  0
  4  5  1  0  0  0  0
  5  6  2  0  0  0  0
  6  7  1  0  0  0  0
  7  8  1  0  0  0  0
  8  9  2  0  0  0  0
  9 10  1  0  0  0  0
 10 11  2  0  0  0  0
 11 12  1  0  0  0  0
 12 13  2  0  0  0  0
 13 14  1  0  0  0  0
 14 15  1  0  0  0  0
 15 16  2  0  0  0  0
 16 17  1  0  0  0  0
 17 18  2  0  0  0  0
 18 19  1  0  0  0  0
 19 20  2  0  0  0  0
 14 21  1  0  0  0  0
 21 22  2  0  0  0  0
 22 23  1  0  0  0  0
 23 24  2  0  0  0  0
 24 25  1  0  0  0  0
 25 26  2  0  0  0  0
 13 27  1  0  0  0  0
 27 28  2  0  0  0  0
  7 29  2  0  0  0  0
  1 30  1  0  0  0  0
 30 31  2  0  0  0  0
 31 32  1  0  0  0  0
 32 33  2  0  0  0  0
 33 34  1  0  0  0  0
 34 35  1  0  0  0  0
 35 36  2  0  0  0  0
 36 37  1  0  0  0  0
 37 38  2  0  0  0  0
 38 39  1  0  0  0  0
 39 40  2  0  0  0  0
 34 41  1  0  0  0  0
 41 42  2  0  0  0  0
 42 43  1  0  0  0  0
 43 44  2  0  0  0  0
 44 45  1  0  0  0  0
 45 46  2  0  0  0  0
 33 47  1  0  0  0  0
 47 48  2  0  0  0  0
 29  3  1  0  0  0  0
 48 30  1  0  0  0  0
 28 10  1  0  0  0  0
 40 35  1  0  0  0  0
 46 41  1  0  0  0  0
 20 15  1  0  0  0  0
 26 21  1  0  0  0  0
  1 49  1  0  0  0  0
  2 50  1  0  0  0  0
  4 51  1  0  0  0  0
  5 52  1  0  0  0  0
  8 53  1  0  0  0  0
  9 54  1  0  0  0  0
 11 55  1  0  0  0  0
 12 56  1  0  0  0  0
 16 57  1  0  0  0  0
 17 58  1  0  0  0  0
 18 59  1  0  0  0  0
 19 60  1  0  0  0  0
 20 61  1  0  0  0  0
 22 62  1  0  0  0  0
 23 63  1  0  0  0  0
 24 64  1  0  0  0  0
 25 65  1  0  0  0  0
 26 66  1  0  0  0  0
 27 67  1  0  0  0  0
 28 68  1  0  0  0  0
 31 69  1  0  0  0  0
 32 70  1  0  0  0  0
 36 71  1  0  0  0  0
 37 72  1  0  0  0  0
 38 73  1  0  0  0  0
 39 74  1  0  0  0  0
 40 75  1  0  0  0  0
 42 76  1  0  0  0  0
 43 77  1  0  0  0  0
 44 78  1  0  0  0  0
 45 79  1  0  0  0  0
 46 80  1  0  0  0  0
 47 81  1  0  0  0  0
 48 82  1  0  0  0  0
M  END
