
  xtb     03012221263D
 energy: -6.251529401266 gnorm: 0.000194576343 xtb: 6.4.1 (afa7bdf)
 31 32  0     0  0            999 V2000
    5.6926    1.1940   -0.6104 C   0  0  0  0  0  0  0  0  0  0  0  0
    4.3771    0.6518   -0.2016 C   0  0  0  0  0  0  0  0  0  0  0  0
    4.2979   -0.3438    0.7147 C   0  0  0  0  0  0  0  0  0  0  0  0
    3.0524   -0.8645    1.1126 C   0  0  0  0  0  0  0  0  0  0  0  0
    3.0458   -1.8616    2.0355 O   0  0  0  0  0  0  0  0  0  0  0  0
    1.8849   -0.3371    0.5467 C   0  0  0  0  0  0  0  0  0  0  0  0
    0.5786   -0.8619    0.9485 C   0  0  0  0  0  0  0  0  0  0  0  0
    0.4711   -1.7567    1.7724 O   0  0  0  0  0  0  0  0  0  0  0  0
   -0.6477   -0.3254    0.3718 C   0  0  0  0  0  0  0  0  0  0  0  0
   -1.8471   -0.7889    0.7247 C   0  0  0  0  0  0  0  0  0  0  0  0
   -3.1192   -0.3144    0.2053 C   0  0  0  0  0  0  0  0  0  0  0  0
   -4.3050   -0.8919    0.6548 C   0  0  0  0  0  0  0  0  0  0  0  0
   -5.5208   -0.4605    0.1790 C   0  0  0  0  0  0  0  0  0  0  0  0
   -5.5854    0.5521   -0.7519 C   0  0  0  0  0  0  0  0  0  0  0  0
   -4.4227    1.1335   -1.2063 C   0  0  0  0  0  0  0  0  0  0  0  0
   -3.2017    0.7096   -0.7371 C   0  0  0  0  0  0  0  0  0  0  0  0
    2.0161    0.7273   -0.4311 C   0  0  0  0  0  0  0  0  0  0  0  0
    1.0128    1.2109   -0.9458 O   0  0  0  0  0  0  0  0  0  0  0  0
    3.2695    1.1959   -0.7817 O   0  0  0  0  0  0  0  0  0  0  0  0
    5.5545    1.9682   -1.3645 H   0  0  0  0  0  0  0  0  0  0  0  0
    6.3220    0.4128   -1.0359 H   0  0  0  0  0  0  0  0  0  0  0  0
    6.2129    1.6364    0.2388 H   0  0  0  0  0  0  0  0  0  0  0  0
    5.1873   -0.7529    1.1544 H   0  0  0  0  0  0  0  0  0  0  0  0
    2.1146   -2.1025    2.1983 H   0  0  0  0  0  0  0  0  0  0  0  0
   -0.5673    0.4613   -0.3507 H   0  0  0  0  0  0  0  0  0  0  0  0
   -1.8702   -1.5789    1.4545 H   0  0  0  0  0  0  0  0  0  0  0  0
   -4.2606   -1.6832    1.3818 H   0  0  0  0  0  0  0  0  0  0  0  0
   -6.4300   -0.9189    0.5379 H   0  0  0  0  0  0  0  0  0  0  0  0
   -6.5392    0.8875   -1.1222 H   0  0  0  0  0  0  0  0  0  0  0  0
   -4.4693    1.9278   -1.9361 H   0  0  0  0  0  0  0  0  0  0  0  0
   -2.3037    1.1737   -1.1014 H   0  0  0  0  0  0  0  0  0  0  0  0
  1  2  1  0  0  0  0
  2  3  2  0  0  0  0
  3  4  1  0  0  0  0
  4  5  1  0  0  0  0
  4  6  2  0  0  0  0
  6  7  1  0  0  0  0
  7  8  2  0  0  0  0
  7  9  1  0  0  0  0
  9 10  2  0  0  0  0
 10 11  1  0  0  0  0
 11 12  2  0  0  0  0
 12 13  1  0  0  0  0
 13 14  2  0  0  0  0
 14 15  1  0  0  0  0
 15 16  2  0  0  0  0
  6 17  1  0  0  0  0
 17 18  2  0  0  0  0
 17 19  1  0  0  0  0
 19  2  1  0  0  0  0
 16 11  1  0  0  0  0
  1 20  1  0  0  0  0
  1 21  1  0  0  0  0
  1 22  1  0  0  0  0
  3 23  1  0  0  0  0
  5 24  1  0  0  0  0
  9 25  1  0  0  0  0
 10 26  1  0  0  0  0
 12 27  1  0  0  0  0
 13 28  1  0  0  0  0
 14 29  1  0  0  0  0
 15 30  1  0  0  0  0
 16 31  1  0  0  0  0
M  END
