
  xtb     03012221223D
 energy: -6.179643305456 gnorm: 0.000382724783 xtb: 6.4.1 (afa7bdf)
 33 35  0     0  0            999 V2000
    4.9490   -0.7158   -0.3196 C   0  0  0  0  0  0  0  0  0  0  0  0
    4.1962    0.3869    0.1185 O   0  0  0  0  0  0  0  0  0  0  0  0
    2.8076    0.2164    0.0455 C   0  0  0  0  0  0  0  0  0  0  0  0
    2.0192    1.2958    0.5088 C   0  0  0  0  0  0  0  0  0  0  0  0
    0.6366    1.2835    0.5022 C   0  0  0  0  0  0  0  0  0  0  0  0
   -0.1913    2.3112    0.9474 O   0  0  0  0  0  0  0  0  0  0  0  0
    0.4914    3.4357    1.4452 C   0  0  0  0  0  0  0  0  0  0  0  0
    0.0190    0.1057   -0.0075 C   0  0  0  0  0  0  0  0  0  0  0  0
   -1.3432   -0.2435   -0.1624 C   0  0  0  0  0  0  0  0  0  0  0  0
   -1.3744   -1.5138   -0.7018 C   0  0  0  0  0  0  0  0  0  0  0  0
   -0.0806   -1.9656   -0.8878 N   0  0  0  0  0  0  0  0  0  0  0  0
    0.7907   -0.9783   -0.4674 C   0  0  0  0  0  0  0  0  0  0  0  0
    2.1870   -0.9227   -0.4429 C   0  0  0  0  0  0  0  0  0  0  0  0
   -2.6099   -2.2263   -0.9974 C   0  0  0  0  0  0  0  0  0  0  0  0
   -2.6001   -3.3693   -1.3941 O   0  0  0  0  0  0  0  0  0  0  0  0
   -3.8974   -1.4716   -0.7848 C   0  0  0  0  0  0  0  0  0  0  0  0
   -3.8083   -0.3873    0.3179 C   0  0  0  0  0  0  0  0  0  0  0  0
   -2.5710    0.5318    0.1832 C   0  0  0  0  0  0  0  0  0  0  0  0
    4.7127   -1.5907    0.2878 H   0  0  0  0  0  0  0  0  0  0  0  0
    4.7430   -0.9105   -1.3731 H   0  0  0  0  0  0  0  0  0  0  0  0
    6.0073   -0.4783   -0.2031 H   0  0  0  0  0  0  0  0  0  0  0  0
    2.5448    2.1542    0.8785 H   0  0  0  0  0  0  0  0  0  0  0  0
    1.1090    3.8712    0.6589 H   0  0  0  0  0  0  0  0  0  0  0  0
   -0.2450    4.1723    1.7677 H   0  0  0  0  0  0  0  0  0  0  0  0
    1.1038    3.1474    2.3003 H   0  0  0  0  0  0  0  0  0  0  0  0
    0.1576   -2.8815   -1.2691 H   0  0  0  0  0  0  0  0  0  0  0  0
    2.7510   -1.7606   -0.8022 H   0  0  0  0  0  0  0  0  0  0  0  0
   -4.6831   -2.1986   -0.5526 H   0  0  0  0  0  0  0  0  0  0  0  0
   -4.1846   -1.0104   -1.7346 H   0  0  0  0  0  0  0  0  0  0  0  0
   -4.7252    0.2166    0.3242 H   0  0  0  0  0  0  0  0  0  0  0  0
   -3.7808   -0.8806    1.2966 H   0  0  0  0  0  0  0  0  0  0  0  0
   -2.7423    1.2868   -0.5916 H   0  0  0  0  0  0  0  0  0  0  0  0
   -2.3888    1.0895    1.1096 H   0  0  0  0  0  0  0  0  0  0  0  0
  1  2  1  0  0  0  0
  2  3  1  0  0  0  0
  3  4  2  0  0  0  0
  4  5  1  0  0  0  0
  5  6  1  0  0  0  0
  6  7  1  0  0  0  0
  5  8  2  0  0  0  0
  8  9  1  0  0  0  0
  9 10  2  0  0  0  0
 10 11  1  0  0  0  0
 11 12  1  0  0  0  0
 12 13  2  0  0  0  0
 10 14  1  0  0  0  0
 14 15  2  0  0  0  0
 14 16  1  0  0  0  0
 16 17  1  0  0  0  0
 17 18  1  0  0  0  0
 13  3  1  0  0  0  0
 12  8  1  0  0  0  0
 18  9  1  0  0  0  0
  1 19  1  0  0  0  0
  1 20  1  0  0  0  0
  1 21  1  0  0  0  0
  4 22  1  0  0  0  0
  7 23  1  0  0  0  0
  7 24  1  0  0  0  0
  7 25  1  0  0  0  0
 11 26  1  0  0  0  0
 13 27  1  0  0  0  0
 16 28  1  0  0  0  0
 16 29  1  0  0  0  0
 17 30  1  0  0  0  0
 17 31  1  0  0  0  0
 18 32  1  0  0  0  0
 18 33  1  0  0  0  0
M  END
