
  xtb     03012221233D
 energy: -7.863351529817 gnorm: 0.000395984574 xtb: 6.4.1 (afa7bdf)
 43 45  0     0  0            999 V2000
    5.5393    0.3483   -0.7910 C   0  0  0  0  0  0  0  0  0  0  0  0
    4.2637    1.0590   -0.4736 C   0  0  0  0  0  0  0  0  0  0  0  0
    4.2786    2.2715   -0.4333 O   0  0  0  0  0  0  0  0  0  0  0  0
    3.0511    0.2929   -0.2001 C   0  0  0  0  0  0  0  0  0  0  0  0
    3.1277   -1.0447    0.2226 C   0  0  0  0  0  0  0  0  0  0  0  0
    4.3170   -1.6300    0.4421 O   0  0  0  0  0  0  0  0  0  0  0  0
    1.8947   -1.8879    0.4491 C   0  0  0  0  0  0  0  0  0  0  0  0
    0.6688   -1.1774   -0.1252 C   0  0  0  0  0  0  0  0  0  0  0  0
   -0.6512   -1.7198    0.0073 O   0  0  0  0  0  0  0  0  0  0  0  0
   -1.5082   -0.6236   -0.1370 C   0  0  0  0  0  0  0  0  0  0  0  0
   -2.8935   -0.6435   -0.3913 C   0  0  0  0  0  0  0  0  0  0  0  0
   -3.5987   -1.9048   -0.5730 C   0  0  0  0  0  0  0  0  0  0  0  0
   -2.8304   -3.1817   -0.5061 C   0  0  0  0  0  0  0  0  0  0  0  0
   -4.7927   -1.9610   -0.7807 O   0  0  0  0  0  0  0  0  0  0  0  0
   -3.5674    0.6031   -0.4771 C   0  0  0  0  0  0  0  0  0  0  0  0
   -4.9113    0.6611   -0.7462 O   0  0  0  0  0  0  0  0  0  0  0  0
   -2.8867    1.8143   -0.2760 C   0  0  0  0  0  0  0  0  0  0  0  0
   -3.6562    3.0736   -0.3432 C   0  0  0  0  0  0  0  0  0  0  0  0
   -1.5138    1.8269    0.0221 C   0  0  0  0  0  0  0  0  0  0  0  0
   -0.8320    2.9697    0.3681 O   0  0  0  0  0  0  0  0  0  0  0  0
   -0.8368    0.6022    0.0122 C   0  0  0  0  0  0  0  0  0  0  0  0
    0.5956    0.2894    0.3818 C   0  0  0  0  0  0  0  0  0  0  0  0
    0.7577    0.4507    1.8949 C   0  0  0  0  0  0  0  0  0  0  0  0
    1.7577    0.9698   -0.3431 C   0  0  0  0  0  0  0  0  0  0  0  0
    1.5834    1.9683   -1.0034 O   0  0  0  0  0  0  0  0  0  0  0  0
    6.0187    0.0057    0.1254 H   0  0  0  0  0  0  0  0  0  0  0  0
    5.3536   -0.5192   -1.4235 H   0  0  0  0  0  0  0  0  0  0  0  0
    6.2212    1.0209   -1.3099 H   0  0  0  0  0  0  0  0  0  0  0  0
    4.1900   -2.5539    0.7469 H   0  0  0  0  0  0  0  0  0  0  0  0
    2.0171   -2.8686   -0.0194 H   0  0  0  0  0  0  0  0  0  0  0  0
    1.7514   -2.0722    1.5161 H   0  0  0  0  0  0  0  0  0  0  0  0
    0.8077   -1.1268   -1.2213 H   0  0  0  0  0  0  0  0  0  0  0  0
   -2.0720   -3.2161   -1.2877 H   0  0  0  0  0  0  0  0  0  0  0  0
   -2.3306   -3.2815    0.4571 H   0  0  0  0  0  0  0  0  0  0  0  0
   -3.5030   -4.0283   -0.6382 H   0  0  0  0  0  0  0  0  0  0  0  0
   -5.2239   -0.2585   -0.8403 H   0  0  0  0  0  0  0  0  0  0  0  0
   -4.6978    2.8664   -0.6013 H   0  0  0  0  0  0  0  0  0  0  0  0
   -3.6483    3.5921    0.6180 H   0  0  0  0  0  0  0  0  0  0  0  0
   -3.2520    3.7409   -1.1076 H   0  0  0  0  0  0  0  0  0  0  0  0
   -1.3742    3.7709    0.2110 H   0  0  0  0  0  0  0  0  0  0  0  0
    0.0290   -0.1582    2.4279 H   0  0  0  0  0  0  0  0  0  0  0  0
    1.7560    0.1664    2.2229 H   0  0  0  0  0  0  0  0  0  0  0  0
    0.6006    1.4936    2.1695 H   0  0  0  0  0  0  0  0  0  0  0  0
  1  2  1  0  0  0  0
  2  3  2  0  0  0  0
  2  4  1  0  0  0  0
  4  5  2  0  0  0  0
  5  6  1  0  0  0  0
  5  7  1  0  0  0  0
  7  8  1  0  0  0  0
  8  9  1  0  0  0  0
  9 10  1  0  0  0  0
 10 11  2  0  0  0  0
 11 12  1  0  0  0  0
 12 13  1  0  0  0  0
 12 14  2  0  0  0  0
 11 15  1  0  0  0  0
 15 16  1  0  0  0  0
 15 17  2  0  0  0  0
 17 18  1  0  0  0  0
 17 19  1  0  0  0  0
 19 20  1  0  0  0  0
 19 21  2  0  0  0  0
 21 22  1  0  0  0  0
 22 23  1  0  0  0  0
 22 24  1  0  0  0  0
 24 25  2  0  0  0  0
 24  4  1  0  0  0  0
 22  8  1  0  0  0  0
 21 10  1  0  0  0  0
  1 26  1  0  0  0  0
  1 27  1  0  0  0  0
  1 28  1  0  0  0  0
  6 29  1  0  0  0  0
  7 30  1  0  0  0  0
  7 31  1  0  0  0  0
  8 32  1  0  0  0  0
 13 33  1  0  0  0  0
 13 34  1  0  0  0  0
 13 35  1  0  0  0  0
 16 36  1  0  0  0  0
 18 37  1  0  0  0  0
 18 38  1  0  0  0  0
 18 39  1  0  0  0  0
 20 40  1  0  0  0  0
 23 41  1  0  0  0  0
 23 42  1  0  0  0  0
 23 43  1  0  0  0  0
M  END
