
  xtb     03012221213D
 energy: -10.810807615518 gnorm: 0.000247362661 xtb: 6.4.1 (afa7bdf)
 58 62  0     0  0            999 V2000
    5.5842   -1.2344    1.9315 C   0  0  0  0  0  0  0  0  0  0  0  0
    4.3300   -1.5680    1.7037 C   0  0  0  0  0  0  0  0  0  0  0  0
    3.7557   -1.6740    0.3229 C   0  0  0  0  0  0  0  0  0  0  0  0
    2.4079   -2.4476    0.2910 C   0  0  0  0  0  0  0  0  0  0  0  0
    1.3456   -1.6225   -0.3364 N   0  0  0  0  0  0  0  0  0  0  0  0
    1.7115   -1.2824   -1.7462 C   0  0  0  0  0  0  0  0  0  0  0  0
    3.0213   -0.4746   -1.7799 C   0  0  0  0  0  0  0  0  0  0  0  0
    3.5185   -0.2727   -0.3287 C   0  0  0  0  0  0  0  0  0  0  0  0
    2.4183    0.4697    0.4633 C   0  0  0  0  0  0  0  0  0  0  0  0
    1.1378   -0.4025    0.5108 C   0  0  0  0  0  0  0  0  0  0  0  0
   -0.1483    0.3707    0.1374 C   0  0  0  0  0  0  0  0  0  0  0  0
   -1.3250   -0.4201    0.3641 O   0  0  0  0  0  0  0  0  0  0  0  0
   -1.4893   -1.5029   -0.5431 C   0  0  0  0  0  0  0  0  0  0  0  0
   -2.8290   -2.1609   -0.4194 C   0  0  0  0  0  0  0  0  0  0  0  0
   -3.0752   -3.3844   -1.0202 C   0  0  0  0  0  0  0  0  0  0  0  0
   -4.3174   -3.9769   -0.9172 C   0  0  0  0  0  0  0  0  0  0  0  0
   -5.3257   -3.3492   -0.2152 C   0  0  0  0  0  0  0  0  0  0  0  0
   -5.0921   -2.1280    0.3822 C   0  0  0  0  0  0  0  0  0  0  0  0
   -3.8489   -1.5381    0.2766 C   0  0  0  0  0  0  0  0  0  0  0  0
   -0.2945    1.6984    0.8478 C   0  0  0  0  0  0  0  0  0  0  0  0
    0.1561    1.8868    2.1190 C   0  0  0  0  0  0  0  0  0  0  0  0
    0.0067    3.1226    2.7399 C   0  0  0  0  0  0  0  0  0  0  0  0
   -0.5562    4.1695    2.2040 N   0  0  0  0  0  0  0  0  0  0  0  0
   -1.0625    4.0049    0.9560 C   0  0  0  0  0  0  0  0  0  0  0  0
   -1.7194    5.0948    0.3415 C   0  0  0  0  0  0  0  0  0  0  0  0
   -2.2792    4.9850   -0.8912 C   0  0  0  0  0  0  0  0  0  0  0  0
   -2.2322    3.7635   -1.6008 C   0  0  0  0  0  0  0  0  0  0  0  0
   -2.8109    3.6262   -2.8469 O   0  0  0  0  0  0  0  0  0  0  0  0
   -1.5912    2.6886   -1.0205 C   0  0  0  0  0  0  0  0  0  0  0  0
   -0.9787    2.7821    0.2430 C   0  0  0  0  0  0  0  0  0  0  0  0
    5.9760   -1.1404    2.9258 H   0  0  0  0  0  0  0  0  0  0  0  0
    6.2605   -1.0435    1.1219 H   0  0  0  0  0  0  0  0  0  0  0  0
    3.6635   -1.7275    2.5344 H   0  0  0  0  0  0  0  0  0  0  0  0
    4.4830   -2.2167   -0.3017 H   0  0  0  0  0  0  0  0  0  0  0  0
    2.4940   -3.3882   -0.2636 H   0  0  0  0  0  0  0  0  0  0  0  0
    2.0909   -2.7206    1.3015 H   0  0  0  0  0  0  0  0  0  0  0  0
    1.8064   -2.2196   -2.3057 H   0  0  0  0  0  0  0  0  0  0  0  0
    0.8873   -0.7379   -2.2159 H   0  0  0  0  0  0  0  0  0  0  0  0
    3.7846   -0.9914   -2.3737 H   0  0  0  0  0  0  0  0  0  0  0  0
    2.8661    0.4973   -2.2634 H   0  0  0  0  0  0  0  0  0  0  0  0
    4.4575    0.3066   -0.3119 H   0  0  0  0  0  0  0  0  0  0  0  0
    2.1887    1.4220   -0.0241 H   0  0  0  0  0  0  0  0  0  0  0  0
    2.7676    0.7179    1.4709 H   0  0  0  0  0  0  0  0  0  0  0  0
    0.9895   -0.7757    1.5332 H   0  0  0  0  0  0  0  0  0  0  0  0
   -0.1013    0.5748   -0.9380 H   0  0  0  0  0  0  0  0  0  0  0  0
   -0.6979   -2.2307   -0.3440 H   0  0  0  0  0  0  0  0  0  0  0  0
   -1.3586   -1.1264   -1.5619 H   0  0  0  0  0  0  0  0  0  0  0  0
   -2.2855   -3.8675   -1.5698 H   0  0  0  0  0  0  0  0  0  0  0  0
   -4.5002   -4.9292   -1.3864 H   0  0  0  0  0  0  0  0  0  0  0  0
   -6.2963   -3.8123   -0.1347 H   0  0  0  0  0  0  0  0  0  0  0  0
   -5.8781   -1.6353    0.9299 H   0  0  0  0  0  0  0  0  0  0  0  0
   -3.6500   -0.5859    0.7379 H   0  0  0  0  0  0  0  0  0  0  0  0
    0.6265    1.0773    2.6485 H   0  0  0  0  0  0  0  0  0  0  0  0
    0.3865    3.2494    3.7420 H   0  0  0  0  0  0  0  0  0  0  0  0
   -1.7700    6.0228    0.8838 H   0  0  0  0  0  0  0  0  0  0  0  0
   -2.7760    5.8265   -1.3392 H   0  0  0  0  0  0  0  0  0  0  0  0
   -3.2322    4.4734   -3.1118 H   0  0  0  0  0  0  0  0  0  0  0  0
   -1.6004    1.7575   -1.5528 H   0  0  0  0  0  0  0  0  0  0  0  0
  1  2  2  0  0  0  0
  2  3  1  0  0  0  0
  3  4  1  0  0  0  0
  4  5  1  0  0  0  0
  5  6  1  0  0  0  0
  6  7  1  0  0  0  0
  7  8  1  0  0  0  0
  8  9  1  0  0  0  0
  9 10  1  0  0  0  0
 10 11  1  0  0  0  0
 11 12  1  0  0  0  0
 12 13  1  0  0  0  0
 13 14  1  0  0  0  0
 14 15  2  0  0  0  0
 15 16  1  0  0  0  0
 16 17  2  0  0  0  0
 17 18  1  0  0  0  0
 18 19  2  0  0  0  0
 11 20  1  0  0  0  0
 20 21  2  0  0  0  0
 21 22  1  0  0  0  0
 22 23  2  0  0  0  0
 23 24  1  0  0  0  0
 24 25  2  0  0  0  0
 25 26  1  0  0  0  0
 26 27  2  0  0  0  0
 27 28  1  0  0  0  0
 27 29  1  0  0  0  0
 29 30  2  0  0  0  0
  8  3  1  0  0  0  0
 19 14  1  0  0  0  0
 30 20  1  0  0  0  0
 10  5  1  0  0  0  0
 30 24  1  0  0  0  0
  1 31  1  0  0  0  0
  1 32  1  0  0  0  0
  2 33  1  0  0  0  0
  3 34  1  0  0  0  0
  4 35  1  0  0  0  0
  4 36  1  0  0  0  0
  6 37  1  0  0  0  0
  6 38  1  0  0  0  0
  7 39  1  0  0  0  0
  7 40  1  0  0  0  0
  8 41  1  0  0  0  0
  9 42  1  0  0  0  0
  9 43  1  0  0  0  0
 10 44  1  0  0  0  0
 11 45  1  0  0  0  0
 13 46  1  0  0  0  0
 13 47  1  0  0  0  0
 15 48  1  0  0  0  0
 16 49  1  0  0  0  0
 17 50  1  0  0  0  0
 18 51  1  0  0  0  0
 19 52  1  0  0  0  0
 21 53  1  0  0  0  0
 22 54  1  0  0  0  0
 25 55  1  0  0  0  0
 26 56  1  0  0  0  0
 28 57  1  0  0  0  0
 29 58  1  0  0  0  0
M  END
