
  xtb     03012221243D
 energy: -6.004024520637 gnorm: 0.000257291747 xtb: 6.4.1 (afa7bdf)
 33 34  0     0  0            999 V2000
   -4.3768   -0.3538   -1.3149 C   0  0  0  0  0  0  0  0  0  0  0  0
   -3.8380    0.1825   -0.0648 N   0  0  0  0  0  0  0  0  0  0  0  0
   -4.7973    0.7824    0.8630 C   0  0  0  0  0  0  0  0  0  0  0  0
   -2.4682    0.1197    0.2325 C   0  0  0  0  0  0  0  0  0  0  0  0
   -1.9763    0.5418    1.4727 C   0  0  0  0  0  0  0  0  0  0  0  0
   -0.6375    0.4796    1.7607 C   0  0  0  0  0  0  0  0  0  0  0  0
    0.2878    0.0001    0.8260 C   0  0  0  0  0  0  0  0  0  0  0  0
    1.6916   -0.0454    1.1915 C   0  0  0  0  0  0  0  0  0  0  0  0
    2.7704   -0.1813    0.3953 C   0  0  0  0  0  0  0  0  0  0  0  0
    2.8564   -0.2667   -1.1045 C   0  0  0  0  0  0  0  0  0  0  0  0
    4.3402   -0.0947   -1.4849 C   0  0  0  0  0  0  0  0  0  0  0  0
    5.1253   -0.2704   -0.1736 C   0  0  0  0  0  0  0  0  0  0  0  0
    4.1237   -0.1701    0.9482 C   0  0  0  0  0  0  0  0  0  0  0  0
    4.3951   -0.0737    2.1230 O   0  0  0  0  0  0  0  0  0  0  0  0
   -0.2069   -0.4326   -0.4090 C   0  0  0  0  0  0  0  0  0  0  0  0
   -1.5462   -0.3727   -0.6982 C   0  0  0  0  0  0  0  0  0  0  0  0
   -4.0656   -1.3886   -1.4420 H   0  0  0  0  0  0  0  0  0  0  0  0
   -4.0177    0.2334   -2.1575 H   0  0  0  0  0  0  0  0  0  0  0  0
   -5.4642   -0.3271   -1.3163 H   0  0  0  0  0  0  0  0  0  0  0  0
   -4.8858    0.1675    1.7563 H   0  0  0  0  0  0  0  0  0  0  0  0
   -4.4684    1.7800    1.1467 H   0  0  0  0  0  0  0  0  0  0  0  0
   -5.7811    0.8705    0.4074 H   0  0  0  0  0  0  0  0  0  0  0  0
   -2.6618    0.9123    2.2135 H   0  0  0  0  0  0  0  0  0  0  0  0
   -0.2809    0.8095    2.7215 H   0  0  0  0  0  0  0  0  0  0  0  0
    1.9054    0.0728    2.2404 H   0  0  0  0  0  0  0  0  0  0  0  0
    2.4888   -1.2443   -1.4362 H   0  0  0  0  0  0  0  0  0  0  0  0
    2.2261    0.4992   -1.5715 H   0  0  0  0  0  0  0  0  0  0  0  0
    4.5146    0.9047   -1.9024 H   0  0  0  0  0  0  0  0  0  0  0  0
    4.6561   -0.8109   -2.2542 H   0  0  0  0  0  0  0  0  0  0  0  0
    5.9110    0.4823   -0.0456 H   0  0  0  0  0  0  0  0  0  0  0  0
    5.6106   -1.2514   -0.1294 H   0  0  0  0  0  0  0  0  0  0  0  0
    0.4664   -0.8457   -1.1358 H   0  0  0  0  0  0  0  0  0  0  0  0
   -1.8962   -0.7088   -1.6578 H   0  0  0  0  0  0  0  0  0  0  0  0
  1  2  1  0  0  0  0
  2  3  1  0  0  0  0
  2  4  1  0  0  0  0
  4  5  2  0  0  0  0
  5  6  1  0  0  0  0
  6  7  2  0  0  0  0
  7  8  1  0  0  0  0
  8  9  2  0  0  0  0
  9 10  1  0  0  0  0
 10 11  1  0  0  0  0
 11 12  1  0  0  0  0
 12 13  1  0  0  0  0
 13 14  2  0  0  0  0
  7 15  1  0  0  0  0
 15 16  2  0  0  0  0
 16  4  1  0  0  0  0
 13  9  1  0  0  0  0
  1 17  1  0  0  0  0
  1 18  1  0  0  0  0
  1 19  1  0  0  0  0
  3 20  1  0  0  0  0
  3 21  1  0  0  0  0
  3 22  1  0  0  0  0
  5 23  1  0  0  0  0
  6 24  1  0  0  0  0
  8 25  1  0  0  0  0
 10 26  1  0  0  0  0
 10 27  1  0  0  0  0
 11 28  1  0  0  0  0
 11 29  1  0  0  0  0
 12 30  1  0  0  0  0
 12 31  1  0  0  0  0
 15 32  1  0  0  0  0
 16 33  1  0  0  0  0
M  END
