
  xtb     03012221203D
 energy: -5.973028668070 gnorm: 0.000228970826 xtb: 6.4.1 (afa7bdf)
 28 30  0     0  0            999 V2000
    5.0852    0.4616    0.4378 C   0  0  0  0  0  0  0  0  0  0  0  0
    4.0927    0.7476    1.3532 C   0  0  0  0  0  0  0  0  0  0  0  0
    2.7719    0.5351    1.0254 C   0  0  0  0  0  0  0  0  0  0  0  0
    2.4216    0.0334   -0.2223 C   0  0  0  0  0  0  0  0  0  0  0  0
    1.0083   -0.1785   -0.5329 C   0  0  0  0  0  0  0  0  0  0  0  0
    0.4581   -0.6703   -1.7206 C   0  0  0  0  0  0  0  0  0  0  0  0
   -0.8643   -0.7186   -1.6199 N   0  0  0  0  0  0  0  0  0  0  0  0
   -1.1533   -0.2696   -0.4001 C   0  0  0  0  0  0  0  0  0  0  0  0
   -2.5122   -0.1587    0.1213 C   0  0  0  0  0  0  0  0  0  0  0  0
   -3.6041   -0.5288   -0.6563 C   0  0  0  0  0  0  0  0  0  0  0  0
   -4.8835   -0.4219   -0.1590 C   0  0  0  0  0  0  0  0  0  0  0  0
   -5.0897    0.0554    1.1204 C   0  0  0  0  0  0  0  0  0  0  0  0
   -4.0134    0.4260    1.9023 C   0  0  0  0  0  0  0  0  0  0  0  0
   -2.7328    0.3202    1.4073 C   0  0  0  0  0  0  0  0  0  0  0  0
   -0.0325    0.0765    0.3101 O   0  0  0  0  0  0  0  0  0  0  0  0
    3.4331   -0.2507   -1.1360 C   0  0  0  0  0  0  0  0  0  0  0  0
    4.7533   -0.0373   -0.8058 C   0  0  0  0  0  0  0  0  0  0  0  0
    6.1189    0.6277    0.6937 H   0  0  0  0  0  0  0  0  0  0  0  0
    4.3507    1.1371    2.3242 H   0  0  0  0  0  0  0  0  0  0  0  0
    1.9886    0.7542    1.7305 H   0  0  0  0  0  0  0  0  0  0  0  0
    1.0025   -0.9726   -2.6015 H   0  0  0  0  0  0  0  0  0  0  0  0
   -3.4295   -0.8991   -1.6514 H   0  0  0  0  0  0  0  0  0  0  0  0
   -5.7237   -0.7110   -0.7685 H   0  0  0  0  0  0  0  0  0  0  0  0
   -6.0915    0.1387    1.5089 H   0  0  0  0  0  0  0  0  0  0  0  0
   -4.1755    0.7983    2.9004 H   0  0  0  0  0  0  0  0  0  0  0  0
   -1.8846    0.6054    2.0055 H   0  0  0  0  0  0  0  0  0  0  0  0
    3.1768   -0.6395   -2.1056 H   0  0  0  0  0  0  0  0  0  0  0  0
    5.5289   -0.2604   -1.5199 H   0  0  0  0  0  0  0  0  0  0  0  0
  1  2  2  0  0  0  0
  2  3  1  0  0  0  0
  3  4  2  0  0  0  0
  4  5  1  0  0  0  0
  5  6  2  0  0  0  0
  6  7  1  0  0  0  0
  7  8  2  0  0  0  0
  8  9  1  0  0  0  0
  9 10  2  0  0  0  0
 10 11  1  0  0  0  0
 11 12  2  0  0  0  0
 12 13  1  0  0  0  0
 13 14  2  0  0  0  0
  8 15  1  0  0  0  0
  4 16  1  0  0  0  0
 16 17  2  0  0  0  0
 17  1  1  0  0  0  0
 15  5  1  0  0  0  0
 14  9  1  0  0  0  0
  1 18  1  0  0  0  0
  2 19  1  0  0  0  0
  3 20  1  0  0  0  0
  6 21  1  0  0  0  0
 10 22  1  0  0  0  0
 11 23  1  0  0  0  0
 12 24  1  0  0  0  0
 13 25  1  0  0  0  0
 14 26  1  0  0  0  0
 16 27  1  0  0  0  0
 17 28  1  0  0  0  0
M  END
