
  xtb     03012221293D
 energy: -17.252455719827 gnorm: 0.000450487121 xtb: 6.4.1 (afa7bdf)
 76 84  0     0  0            999 V2000
   -3.4661   -2.0397    1.0805 C   0  0  0  0  0  0  0  0  0  0  0  0
   -2.4735   -2.2396    1.7636 C   0  0  0  0  0  0  0  0  0  0  0  0
   -1.3246   -2.4575    2.5529 C   0  0  0  0  0  0  0  0  0  0  0  0
   -1.3592   -3.3222    3.6417 C   0  0  0  0  0  0  0  0  0  0  0  0
   -0.2342   -3.5304    4.4112 C   0  0  0  0  0  0  0  0  0  0  0  0
    0.9421   -2.8787    4.1062 C   0  0  0  0  0  0  0  0  0  0  0  0
    1.0113   -2.0072    3.0245 C   0  0  0  0  0  0  0  0  0  0  0  0
    2.2135   -1.3392    2.7094 C   0  0  0  0  0  0  0  0  0  0  0  0
    3.2544   -0.7618    2.4361 C   0  0  0  0  0  0  0  0  0  0  0  0
    4.4579   -0.0995    2.1210 C   0  0  0  0  0  0  0  0  0  0  0  0
    4.6509    1.2342    2.4713 C   0  0  0  0  0  0  0  0  0  0  0  0
    5.8267    1.8794    2.1649 C   0  0  0  0  0  0  0  0  0  0  0  0
    6.8476    1.2119    1.4978 C   0  0  0  0  0  0  0  0  0  0  0  0
    8.0768    1.8840    1.1797 N   0  0  0  0  0  0  0  0  0  0  0  0
    8.8689    2.6353    2.0735 C   0  0  0  0  0  0  0  0  0  0  0  0
    8.7062    2.9092    3.4310 C   0  0  0  0  0  0  0  0  0  0  0  0
    9.6551    3.6686    4.0707 C   0  0  0  0  0  0  0  0  0  0  0  0
   10.7688    4.1594    3.3833 C   0  0  0  0  0  0  0  0  0  0  0  0
   10.9488    3.8924    2.0472 C   0  0  0  0  0  0  0  0  0  0  0  0
    9.9930    3.1212    1.3842 C   0  0  0  0  0  0  0  0  0  0  0  0
    9.8936    2.6579    0.0202 C   0  0  0  0  0  0  0  0  0  0  0  0
   10.7126    2.8385   -1.0956 C   0  0  0  0  0  0  0  0  0  0  0  0
   10.3370    2.2677   -2.2880 C   0  0  0  0  0  0  0  0  0  0  0  0
    9.1583    1.5232   -2.3887 C   0  0  0  0  0  0  0  0  0  0  0  0
    8.3433    1.3365   -1.2991 C   0  0  0  0  0  0  0  0  0  0  0  0
    8.7131    1.9022   -0.0795 C   0  0  0  0  0  0  0  0  0  0  0  0
    6.6576   -0.1196    1.1458 C   0  0  0  0  0  0  0  0  0  0  0  0
    5.4822   -0.7649    1.4525 C   0  0  0  0  0  0  0  0  0  0  0  0
   -0.1313   -1.8086    2.2591 C   0  0  0  0  0  0  0  0  0  0  0  0
   -4.6086   -1.7965    0.2921 C   0  0  0  0  0  0  0  0  0  0  0  0
   -4.5415   -1.8542   -1.0975 C   0  0  0  0  0  0  0  0  0  0  0  0
   -5.6547   -1.6066   -1.8669 C   0  0  0  0  0  0  0  0  0  0  0  0
   -6.8713   -1.2921   -1.2717 C   0  0  0  0  0  0  0  0  0  0  0  0
   -8.0296   -1.0158   -2.0750 N   0  0  0  0  0  0  0  0  0  0  0  0
   -8.5167   -1.8063   -3.1373 C   0  0  0  0  0  0  0  0  0  0  0  0
   -8.0628   -3.0169   -3.6596 C   0  0  0  0  0  0  0  0  0  0  0  0
   -8.7466   -3.5827   -4.7078 C   0  0  0  0  0  0  0  0  0  0  0  0
   -9.8796   -2.9660   -5.2462 C   0  0  0  0  0  0  0  0  0  0  0  0
  -10.3450   -1.7767   -4.7387 C   0  0  0  0  0  0  0  0  0  0  0  0
   -9.6610   -1.1907   -3.6725 C   0  0  0  0  0  0  0  0  0  0  0  0
   -9.8890    0.0204   -2.9200 C   0  0  0  0  0  0  0  0  0  0  0  0
  -10.8603    1.0181   -3.0163 C   0  0  0  0  0  0  0  0  0  0  0  0
  -10.8024    2.0805   -2.1464 C   0  0  0  0  0  0  0  0  0  0  0  0
   -9.7917    2.1679   -1.1849 C   0  0  0  0  0  0  0  0  0  0  0  0
   -8.8297    1.1935   -1.0783 C   0  0  0  0  0  0  0  0  0  0  0  0
   -8.8779    0.1045   -1.9477 C   0  0  0  0  0  0  0  0  0  0  0  0
   -6.9426   -1.2379    0.1157 C   0  0  0  0  0  0  0  0  0  0  0  0
   -5.8295   -1.4858    0.8850 C   0  0  0  0  0  0  0  0  0  0  0  0
   -2.2805   -3.8283    3.8765 H   0  0  0  0  0  0  0  0  0  0  0  0
   -0.2746   -4.2028    5.2518 H   0  0  0  0  0  0  0  0  0  0  0  0
    1.8234   -3.0384    4.7044 H   0  0  0  0  0  0  0  0  0  0  0  0
    3.8628    1.7567    2.9858 H   0  0  0  0  0  0  0  0  0  0  0  0
    5.9657    2.9142    2.4247 H   0  0  0  0  0  0  0  0  0  0  0  0
    7.8535    2.5185    3.9567 H   0  0  0  0  0  0  0  0  0  0  0  0
    9.5413    3.8883    5.1196 H   0  0  0  0  0  0  0  0  0  0  0  0
   11.4977    4.7525    3.9104 H   0  0  0  0  0  0  0  0  0  0  0  0
   11.8056    4.2618    1.5118 H   0  0  0  0  0  0  0  0  0  0  0  0
   11.6158    3.4166   -1.0102 H   0  0  0  0  0  0  0  0  0  0  0  0
   10.9576    2.3979   -3.1592 H   0  0  0  0  0  0  0  0  0  0  0  0
    8.8847    1.0911   -3.3374 H   0  0  0  0  0  0  0  0  0  0  0  0
    7.4293    0.7749   -1.3727 H   0  0  0  0  0  0  0  0  0  0  0  0
    7.4525   -0.6421    0.6428 H   0  0  0  0  0  0  0  0  0  0  0  0
    5.3417   -1.7968    1.1800 H   0  0  0  0  0  0  0  0  0  0  0  0
   -0.0914   -1.1366    1.4195 H   0  0  0  0  0  0  0  0  0  0  0  0
   -3.6008   -2.0916   -1.5639 H   0  0  0  0  0  0  0  0  0  0  0  0
   -5.5940   -1.6348   -2.9407 H   0  0  0  0  0  0  0  0  0  0  0  0
   -7.1975   -3.4920   -3.2335 H   0  0  0  0  0  0  0  0  0  0  0  0
   -8.4064   -4.5179   -5.1214 H   0  0  0  0  0  0  0  0  0  0  0  0
  -10.3963   -3.4320   -6.0689 H   0  0  0  0  0  0  0  0  0  0  0  0
  -11.2186   -1.2973   -5.1440 H   0  0  0  0  0  0  0  0  0  0  0  0
  -11.6316    0.9458   -3.7628 H   0  0  0  0  0  0  0  0  0  0  0  0
  -11.5442    2.8596   -2.2076 H   0  0  0  0  0  0  0  0  0  0  0  0
   -9.7664    3.0148   -0.5189 H   0  0  0  0  0  0  0  0  0  0  0  0
   -8.0422    1.2611   -0.3492 H   0  0  0  0  0  0  0  0  0  0  0  0
   -7.8868   -1.0104    0.5787 H   0  0  0  0  0  0  0  0  0  0  0  0
   -5.8904   -1.4415    1.9588 H   0  0  0  0  0  0  0  0  0  0  0  0
  1  2  3  0  0  0  0
  2  3  1  0  0  0  0
  3  4  2  0  0  0  0
  4  5  1  0  0  0  0
  5  6  2  0  0  0  0
  6  7  1  0  0  0  0
  7  8  1  0  0  0  0
  8  9  3  0  0  0  0
  9 10  1  0  0  0  0
 10 11  2  0  0  0  0
 11 12  1  0  0  0  0
 12 13  2  0  0  0  0
 13 14  1  0  0  0  0
 14 15  1  0  0  0  0
 15 16  2  0  0  0  0
 16 17  1  0  0  0  0
 17 18  2  0  0  0  0
 18 19  1  0  0  0  0
 19 20  2  0  0  0  0
 20 21  1  0  0  0  0
 21 22  2  0  0  0  0
 22 23  1  0  0  0  0
 23 24  2  0  0  0  0
 24 25  1  0  0  0  0
 25 26  2  0  0  0  0
 13 27  1  0  0  0  0
 27 28  2  0  0  0  0
  7 29  2  0  0  0  0
  1 30  1  0  0  0  0
 30 31  2  0  0  0  0
 31 32  1  0  0  0  0
 32 33  2  0  0  0  0
 33 34  1  0  0  0  0
 34 35  1  0  0  0  0
 35 36  2  0  0  0  0
 36 37  1  0  0  0  0
 37 38  2  0  0  0  0
 38 39  1  0  0  0  0
 39 40  2  0  0  0  0
 40 41  1  0  0  0  0
 41 42  2  0  0  0  0
 42 43  1  0  0  0  0
 43 44  2  0  0  0  0
 44 45  1  0  0  0  0
 45 46  2  0  0  0  0
 33 47  1  0  0  0  0
 47 48  2  0  0  0  0
 29  3  1  0  0  0  0
 48 30  1  0  0  0  0
 28 10  1  0  0  0  0
 46 34  1  0  0  0  0
 26 14  1  0  0  0  0
 40 35  1  0  0  0  0
 46 41  1  0  0  0  0
 20 15  1  0  0  0  0
 26 21  1  0  0  0  0
  4 49  1  0  0  0  0
  5 50  1  0  0  0  0
  6 51  1  0  0  0  0
 11 52  1  0  0  0  0
 12 53  1  0  0  0  0
 16 54  1  0  0  0  0
 17 55  1  0  0  0  0
 18 56  1  0  0  0  0
 19 57  1  0  0  0  0
 22 58  1  0  0  0  0
 23 59  1  0  0  0  0
 24 60  1  0  0  0  0
 25 61  1  0  0  0  0
 27 62  1  0  0  0  0
 28 63  1  0  0  0  0
 29 64  1  0  0  0  0
 31 65  1  0  0  0  0
 32 66  1  0  0  0  0
 36 67  1  0  0  0  0
 37 68  1  0  0  0  0
 38 69  1  0  0  0  0
 39 70  1  0  0  0  0
 42 71  1  0  0  0  0
 43 72  1  0  0  0  0
 44 73  1  0  0  0  0
 45 74  1  0  0  0  0
 47 75  1  0  0  0  0
 48 76  1  0  0  0  0
M  END
