
  xtb     03012221223D
 energy: -14.210487067220 gnorm: 0.000341556351 xtb: 6.4.1 (afa7bdf)
 72 77  0     0  0            999 V2000
   -0.2020   -4.4216   -2.0556 C   0  0  0  0  0  0  0  0  0  0  0  0
   -0.3596   -3.0966   -1.3959 C   0  0  0  0  0  0  0  0  0  0  0  0
   -0.5813   -3.0085   -0.0301 C   0  0  0  0  0  0  0  0  0  0  0  0
   -0.7232   -1.7882    0.6046 C   0  0  0  0  0  0  0  0  0  0  0  0
   -1.0098   -1.7633    2.0658 C   0  0  0  0  0  0  0  0  0  0  0  0
   -0.6256   -0.6179   -0.1547 C   0  0  0  0  0  0  0  0  0  0  0  0
   -0.6650    0.7913    0.5319 B   0  0  0  0  0  0  0  0  0  0  0  0
    0.2609    1.0745    1.7386 C   0  0  0  0  0  0  0  0  0  0  0  0
   -0.2905    1.8754    2.7331 C   0  0  0  0  0  0  0  0  0  0  0  0
    0.3700    2.0807    3.9177 C   0  0  0  0  0  0  0  0  0  0  0  0
    1.6012    1.4758    4.1407 C   0  0  0  0  0  0  0  0  0  0  0  0
    2.1637    0.6840    3.1721 C   0  0  0  0  0  0  0  0  0  0  0  0
    1.5238    0.4769    1.9451 C   0  0  0  0  0  0  0  0  0  0  0  0
    2.1518   -0.3482    0.9578 N   0  0  0  0  0  0  0  0  0  0  0  0
    2.4857    0.0114   -0.3735 C   0  0  0  0  0  0  0  0  0  0  0  0
    2.4917    1.2505   -1.0044 C   0  0  0  0  0  0  0  0  0  0  0  0
    2.8681    1.3219   -2.3269 C   0  0  0  0  0  0  0  0  0  0  0  0
    3.2468    0.1777   -3.0265 C   0  0  0  0  0  0  0  0  0  0  0  0
    3.2758   -1.0537   -2.4063 C   0  0  0  0  0  0  0  0  0  0  0  0
    2.9045   -1.1350   -1.0691 C   0  0  0  0  0  0  0  0  0  0  0  0
    2.8780   -2.2410   -0.1306 C   0  0  0  0  0  0  0  0  0  0  0  0
    3.1706   -3.5925   -0.2719 C   0  0  0  0  0  0  0  0  0  0  0  0
    3.0432   -4.4143    0.8282 C   0  0  0  0  0  0  0  0  0  0  0  0
    2.6376   -3.9035    2.0597 C   0  0  0  0  0  0  0  0  0  0  0  0
    2.3465   -2.5664    2.2110 C   0  0  0  0  0  0  0  0  0  0  0  0
    2.4603   -1.7262    1.1079 C   0  0  0  0  0  0  0  0  0  0  0  0
   -1.7897    1.8170    0.1317 C   0  0  0  0  0  0  0  0  0  0  0  0
   -1.4573    3.1345   -0.2019 C   0  0  0  0  0  0  0  0  0  0  0  0
   -0.0547    3.6302   -0.1704 C   0  0  0  0  0  0  0  0  0  0  0  0
   -2.4583    3.9969   -0.6124 C   0  0  0  0  0  0  0  0  0  0  0  0
   -3.7834    3.5969   -0.6770 C   0  0  0  0  0  0  0  0  0  0  0  0
   -4.8409    4.5331   -1.1495 C   0  0  0  0  0  0  0  0  0  0  0  0
   -4.0953    2.2924   -0.3289 C   0  0  0  0  0  0  0  0  0  0  0  0
   -3.1225    1.3979    0.0825 C   0  0  0  0  0  0  0  0  0  0  0  0
   -3.5160    0.0157    0.4664 C   0  0  0  0  0  0  0  0  0  0  0  0
   -0.4568   -0.6861   -1.5393 C   0  0  0  0  0  0  0  0  0  0  0  0
   -0.4526    0.5444   -2.3736 C   0  0  0  0  0  0  0  0  0  0  0  0
   -0.3281   -1.9260   -2.1386 C   0  0  0  0  0  0  0  0  0  0  0  0
    0.4317   -4.3467   -2.9406 H   0  0  0  0  0  0  0  0  0  0  0  0
    0.2595   -5.1435   -1.3801 H   0  0  0  0  0  0  0  0  0  0  0  0
   -1.1696   -4.8190   -2.3652 H   0  0  0  0  0  0  0  0  0  0  0  0
   -0.6400   -3.9114    0.5518 H   0  0  0  0  0  0  0  0  0  0  0  0
   -0.2287   -2.2770    2.6252 H   0  0  0  0  0  0  0  0  0  0  0  0
   -1.9548   -2.2634    2.2828 H   0  0  0  0  0  0  0  0  0  0  0  0
   -1.0781   -0.7458    2.4474 H   0  0  0  0  0  0  0  0  0  0  0  0
   -1.2577    2.3164    2.5682 H   0  0  0  0  0  0  0  0  0  0  0  0
   -0.0702    2.7017    4.6807 H   0  0  0  0  0  0  0  0  0  0  0  0
    2.1139    1.6311    5.0750 H   0  0  0  0  0  0  0  0  0  0  0  0
    3.1217    0.2212    3.3342 H   0  0  0  0  0  0  0  0  0  0  0  0
    2.2341    2.1309   -0.4463 H   0  0  0  0  0  0  0  0  0  0  0  0
    2.8717    2.2762   -2.8275 H   0  0  0  0  0  0  0  0  0  0  0  0
    3.5320    0.2586   -4.0625 H   0  0  0  0  0  0  0  0  0  0  0  0
    3.5834   -1.9400   -2.9327 H   0  0  0  0  0  0  0  0  0  0  0  0
    3.4823   -3.9774   -1.2268 H   0  0  0  0  0  0  0  0  0  0  0  0
    3.2621   -5.4653    0.7349 H   0  0  0  0  0  0  0  0  0  0  0  0
    2.5493   -4.5655    2.9054 H   0  0  0  0  0  0  0  0  0  0  0  0
    2.0369   -2.1639    3.1589 H   0  0  0  0  0  0  0  0  0  0  0  0
   -0.0171    4.6713    0.1535 H   0  0  0  0  0  0  0  0  0  0  0  0
    0.4018    3.5740   -1.1593 H   0  0  0  0  0  0  0  0  0  0  0  0
    0.5555    3.0561    0.5236 H   0  0  0  0  0  0  0  0  0  0  0  0
   -2.2011    5.0033   -0.8923 H   0  0  0  0  0  0  0  0  0  0  0  0
   -5.8001    4.3137   -0.6781 H   0  0  0  0  0  0  0  0  0  0  0  0
   -4.5856    5.5673   -0.9140 H   0  0  0  0  0  0  0  0  0  0  0  0
   -4.9715    4.4561   -2.2299 H   0  0  0  0  0  0  0  0  0  0  0  0
   -5.1199    1.9692   -0.3813 H   0  0  0  0  0  0  0  0  0  0  0  0
   -4.6007   -0.0932    0.5074 H   0  0  0  0  0  0  0  0  0  0  0  0
   -3.1388   -0.7126   -0.2520 H   0  0  0  0  0  0  0  0  0  0  0  0
   -3.1254   -0.2359    1.4518 H   0  0  0  0  0  0  0  0  0  0  0  0
   -1.4673    0.8209   -2.6626 H   0  0  0  0  0  0  0  0  0  0  0  0
    0.1344    0.4049   -3.2823 H   0  0  0  0  0  0  0  0  0  0  0  0
   -0.0198    1.3808   -1.8274 H   0  0  0  0  0  0  0  0  0  0  0  0
   -0.1914   -1.9835   -3.2039 H   0  0  0  0  0  0  0  0  0  0  0  0
  1  2  1  0  0  0  0
  2  3  2  0  0  0  0
  3  4  1  0  0  0  0
  4  5  1  0  0  0  0
  4  6  2  0  0  0  0
  6  7  1  0  0  0  0
  7  8  1  0  0  0  0
  8  9  2  0  0  0  0
  9 10  1  0  0  0  0
 10 11  2  0  0  0  0
 11 12  1  0  0  0  0
 12 13  2  0  0  0  0
 13 14  1  0  0  0  0
 14 15  1  0  0  0  0
 15 16  2  0  0  0  0
 16 17  1  0  0  0  0
 17 18  2  0  0  0  0
 18 19  1  0  0  0  0
 19 20  2  0  0  0  0
 20 21  1  0  0  0  0
 21 22  2  0  0  0  0
 22 23  1  0  0  0  0
 23 24  2  0  0  0  0
 24 25  1  0  0  0  0
 25 26  2  0  0  0  0
  7 27  1  0  0  0  0
 27 28  2  0  0  0  0
 28 29  1  0  0  0  0
 28 30  1  0  0  0  0
 30 31  2  0  0  0  0
 31 32  1  0  0  0  0
 31 33  1  0  0  0  0
 33 34  2  0  0  0  0
 34 35  1  0  0  0  0
  6 36  1  0  0  0  0
 36 37  1  0  0  0  0
 36 38  2  0  0  0  0
 38  2  1  0  0  0  0
 13  8  1  0  0  0  0
 26 14  1  0  0  0  0
 34 27  1  0  0  0  0
 20 15  1  0  0  0  0
 26 21  1  0  0  0  0
  1 39  1  0  0  0  0
  1 40  1  0  0  0  0
  1 41  1  0  0  0  0
  3 42  1  0  0  0  0
  5 43  1  0  0  0  0
  5 44  1  0  0  0  0
  5 45  1  0  0  0  0
  9 46  1  0  0  0  0
 10 47  1  0  0  0  0
 11 48  1  0  0  0  0
 12 49  1  0  0  0  0
 16 50  1  0  0  0  0
 17 51  1  0  0  0  0
 18 52  1  0  0  0  0
 19 53  1  0  0  0  0
 22 54  1  0  0  0  0
 23 55  1  0  0  0  0
 24 56  1  0  0  0  0
 25 57  1  0  0  0  0
 29 58  1  0  0  0  0
 29 59  1  0  0  0  0
 29 60  1  0  0  0  0
 30 61  1  0  0  0  0
 32 62  1  0  0  0  0
 32 63  1  0  0  0  0
 32 64  1  0  0  0  0
 33 65  1  0  0  0  0
 35 66  1  0  0  0  0
 35 67  1  0  0  0  0
 35 68  1  0  0  0  0
 37 69  1  0  0  0  0
 37 70  1  0  0  0  0
 37 71  1  0  0  0  0
 38 72  1  0  0  0  0
M  END
