
  xtb     03012221213D
 energy: -14.919470373900 gnorm: 0.000338380796 xtb: 6.4.1 (afa7bdf)
 80 84  0     0  0            999 V2000
    6.7202   -1.1278    1.8945 C   0  0  0  0  0  0  0  0  0  0  0  0
    6.9417   -0.1572    0.7453 C   0  0  0  0  0  0  0  0  0  0  0  0
    6.2304   -0.5869   -0.5438 C   0  0  0  0  0  0  0  0  0  0  0  0
    4.7441   -0.6478   -0.3940 C   0  0  0  0  0  0  0  0  0  0  0  0
    3.9997   -1.7682   -0.1713 C   0  0  0  0  0  0  0  0  0  0  0  0
    2.6575   -1.3269   -0.0268 C   0  0  0  0  0  0  0  0  0  0  0  0
    2.5883    0.0053   -0.1498 N   0  0  0  0  0  0  0  0  0  0  0  0
    3.8261    0.4632   -0.3701 C   0  0  0  0  0  0  0  0  0  0  0  0
    4.1917    1.8322   -0.5521 C   0  0  0  0  0  0  0  0  0  0  0  0
    3.4199    2.9612   -0.5420 C   0  0  0  0  0  0  0  0  0  0  0  0
    2.0166    3.1346   -0.3393 C   0  0  0  0  0  0  0  0  0  0  0  0
    1.0714    2.1708   -0.0801 N   0  0  0  0  0  0  0  0  0  0  0  0
   -0.1778    2.7053    0.0297 C   0  0  0  0  0  0  0  0  0  0  0  0
   -0.0376    4.0875   -0.1621 C   0  0  0  0  0  0  0  0  0  0  0  0
    1.3039    4.3614   -0.3777 C   0  0  0  0  0  0  0  0  0  0  0  0
    1.8710    5.7103   -0.6823 C   0  0  0  0  0  0  0  0  0  0  0  0
    2.0517    5.9514   -2.1809 C   0  0  0  0  0  0  0  0  0  0  0  0
    2.6367    7.3190   -2.4904 C   0  0  0  0  0  0  0  0  0  0  0  0
   -1.3549    1.9136    0.2696 C   0  0  0  0  0  0  0  0  0  0  0  0
   -1.2991    0.5887    0.4381 N   0  0  0  0  0  0  0  0  0  0  0  0
   -2.5521    0.1392    0.6148 C   0  0  0  0  0  0  0  0  0  0  0  0
   -2.9435   -1.2397    0.8184 C   0  0  0  0  0  0  0  0  0  0  0  0
   -4.2948   -1.4167    1.0347 O   0  0  0  0  0  0  0  0  0  0  0  0
   -4.8713   -2.6760    1.1020 C   0  0  0  0  0  0  0  0  0  0  0  0
   -6.3272   -2.6693    1.4360 C   0  0  0  0  0  0  0  0  0  0  0  0
   -4.3273   -3.7351    0.9023 O   0  0  0  0  0  0  0  0  0  0  0  0
   -2.0732   -2.3469    0.8236 C   0  0  0  0  0  0  0  0  0  0  0  0
   -0.7024   -2.5009    0.6261 C   0  0  0  0  0  0  0  0  0  0  0  0
    0.2583   -1.5425    0.3741 N   0  0  0  0  0  0  0  0  0  0  0  0
    1.4857   -2.1048    0.2317 C   0  0  0  0  0  0  0  0  0  0  0  0
    1.3258   -3.5056    0.3924 C   0  0  0  0  0  0  0  0  0  0  0  0
    0.0003   -3.7576    0.6384 C   0  0  0  0  0  0  0  0  0  0  0  0
   -0.6267   -5.1010    0.8309 C   0  0  0  0  0  0  0  0  0  0  0  0
   -1.4334   -5.5591   -0.3835 C   0  0  0  0  0  0  0  0  0  0  0  0
   -2.1513   -6.8759   -0.1530 C   0  0  0  0  0  0  0  0  0  0  0  0
   -3.4587    1.2507    0.5632 C   0  0  0  0  0  0  0  0  0  0  0  0
   -4.9492    1.2159    0.6417 C   0  0  0  0  0  0  0  0  0  0  0  0
   -5.5950    0.7560   -0.6658 C   0  0  0  0  0  0  0  0  0  0  0  0
   -7.1107    0.7304   -0.5982 C   0  0  0  0  0  0  0  0  0  0  0  0
   -2.6960    2.3600    0.3376 C   0  0  0  0  0  0  0  0  0  0  0  0
    7.0773   -2.1273    1.6408 H   0  0  0  0  0  0  0  0  0  0  0  0
    5.6597   -1.2170    2.1357 H   0  0  0  0  0  0  0  0  0  0  0  0
    7.2376   -0.8138    2.8035 H   0  0  0  0  0  0  0  0  0  0  0  0
    6.5913    0.8427    1.0336 H   0  0  0  0  0  0  0  0  0  0  0  0
    8.0182   -0.0416    0.5570 H   0  0  0  0  0  0  0  0  0  0  0  0
    6.4793    0.0903   -1.3685 H   0  0  0  0  0  0  0  0  0  0  0  0
    6.5954   -1.5718   -0.8537 H   0  0  0  0  0  0  0  0  0  0  0  0
    4.3576   -2.7806   -0.1026 H   0  0  0  0  0  0  0  0  0  0  0  0
    5.2438    1.9823   -0.7287 H   0  0  0  0  0  0  0  0  0  0  0  0
    3.9467    3.8868   -0.7169 H   0  0  0  0  0  0  0  0  0  0  0  0
    1.2800    1.1799   -0.0171 H   0  0  0  0  0  0  0  0  0  0  0  0
   -0.8368    4.8095   -0.1531 H   0  0  0  0  0  0  0  0  0  0  0  0
    2.8288    5.8298   -0.1632 H   0  0  0  0  0  0  0  0  0  0  0  0
    1.2161    6.4807   -0.2586 H   0  0  0  0  0  0  0  0  0  0  0  0
    2.6890    5.1618   -2.5998 H   0  0  0  0  0  0  0  0  0  0  0  0
    1.0836    5.8285   -2.6838 H   0  0  0  0  0  0  0  0  0  0  0  0
    1.9968    8.1176   -2.1097 H   0  0  0  0  0  0  0  0  0  0  0  0
    2.7591    7.4800   -3.5641 H   0  0  0  0  0  0  0  0  0  0  0  0
    3.6170    7.4433   -2.0258 H   0  0  0  0  0  0  0  0  0  0  0  0
   -6.6102   -1.7261    1.9006 H   0  0  0  0  0  0  0  0  0  0  0  0
   -6.9253   -2.8065    0.5365 H   0  0  0  0  0  0  0  0  0  0  0  0
   -6.5594   -3.4775    2.1278 H   0  0  0  0  0  0  0  0  0  0  0  0
   -2.5729   -3.2752    1.0117 H   0  0  0  0  0  0  0  0  0  0  0  0
    0.0446   -0.5523    0.3150 H   0  0  0  0  0  0  0  0  0  0  0  0
    2.1079   -4.2410    0.3269 H   0  0  0  0  0  0  0  0  0  0  0  0
    0.1505   -5.8369    1.0613 H   0  0  0  0  0  0  0  0  0  0  0  0
   -1.2714   -5.0730    1.7155 H   0  0  0  0  0  0  0  0  0  0  0  0
   -0.7660   -5.6319   -1.2540 H   0  0  0  0  0  0  0  0  0  0  0  0
   -2.1611   -4.7804   -0.6527 H   0  0  0  0  0  0  0  0  0  0  0  0
   -1.4474   -7.6714    0.0959 H   0  0  0  0  0  0  0  0  0  0  0  0
   -2.7142   -7.1951   -1.0324 H   0  0  0  0  0  0  0  0  0  0  0  0
   -2.8570   -6.7958    0.6756 H   0  0  0  0  0  0  0  0  0  0  0  0
   -5.3235    2.2075    0.9175 H   0  0  0  0  0  0  0  0  0  0  0  0
   -5.2458    0.5491    1.4579 H   0  0  0  0  0  0  0  0  0  0  0  0
   -5.2097   -0.2399   -0.9194 H   0  0  0  0  0  0  0  0  0  0  0  0
   -5.2608    1.4080   -1.4826 H   0  0  0  0  0  0  0  0  0  0  0  0
   -7.5583    0.3905   -1.5360 H   0  0  0  0  0  0  0  0  0  0  0  0
   -7.4599    0.0624    0.1924 H   0  0  0  0  0  0  0  0  0  0  0  0
   -7.5139    1.7225   -0.3818 H   0  0  0  0  0  0  0  0  0  0  0  0
   -3.0460    3.3707    0.2178 H   0  0  0  0  0  0  0  0  0  0  0  0
  1  2  1  0  0  0  0
  2  3  1  0  0  0  0
  3  4  1  0  0  0  0
  4  5  2  0  0  0  0
  5  6  1  0  0  0  0
  6  7  2  0  0  0  0
  7  8  1  0  0  0  0
  8  9  2  0  0  0  0
  9 10  1  0  0  0  0
 10 11  2  0  0  0  0
 11 12  1  0  0  0  0
 12 13  1  0  0  0  0
 13 14  1  0  0  0  0
 14 15  2  0  0  0  0
 15 16  1  0  0  0  0
 16 17  1  0  0  0  0
 17 18  1  0  0  0  0
 13 19  2  0  0  0  0
 19 20  1  0  0  0  0
 20 21  2  0  0  0  0
 21 22  1  0  0  0  0
 22 23  1  0  0  0  0
 23 24  1  0  0  0  0
 24 25  1  0  0  0  0
 24 26  2  0  0  0  0
 22 27  2  0  0  0  0
 27 28  1  0  0  0  0
 28 29  1  0  0  0  0
 29 30  1  0  0  0  0
 30 31  2  0  0  0  0
 31 32  1  0  0  0  0
 32 33  1  0  0  0  0
 33 34  1  0  0  0  0
 34 35  1  0  0  0  0
 21 36  1  0  0  0  0
 36 37  1  0  0  0  0
 37 38  1  0  0  0  0
 38 39  1  0  0  0  0
 36 40  2  0  0  0  0
  8  4  1  0  0  0  0
 15 11  1  0  0  0  0
 40 19  1  0  0  0  0
 30  6  1  0  0  0  0
 32 28  2  0  0  0  0
  1 41  1  0  0  0  0
  1 42  1  0  0  0  0
  1 43  1  0  0  0  0
  2 44  1  0  0  0  0
  2 45  1  0  0  0  0
  3 46  1  0  0  0  0
  3 47  1  0  0  0  0
  5 48  1  0  0  0  0
  9 49  1  0  0  0  0
 10 50  1  0  0  0  0
 12 51  1  0  0  0  0
 14 52  1  0  0  0  0
 16 53  1  0  0  0  0
 16 54  1  0  0  0  0
 17 55  1  0  0  0  0
 17 56  1  0  0  0  0
 18 57  1  0  0  0  0
 18 58  1  0  0  0  0
 18 59  1  0  0  0  0
 25 60  1  0  0  0  0
 25 61  1  0  0  0  0
 25 62  1  0  0  0  0
 27 63  1  0  0  0  0
 29 64  1  0  0  0  0
 31 65  1  0  0  0  0
 33 66  1  0  0  0  0
 33 67  1  0  0  0  0
 34 68  1  0  0  0  0
 34 69  1  0  0  0  0
 35 70  1  0  0  0  0
 35 71  1  0  0  0  0
 35 72  1  0  0  0  0
 37 73  1  0  0  0  0
 37 74  1  0  0  0  0
 38 75  1  0  0  0  0
 38 76  1  0  0  0  0
 39 77  1  0  0  0  0
 39 78  1  0  0  0  0
 39 79  1  0  0  0  0
 40 80  1  0  0  0  0
M  END
