
  xtb     03012221203D
 energy: -11.305128278240 gnorm: 0.000125920772 xtb: 6.4.1 (afa7bdf)
 60 64  0     0  0            999 V2000
    7.9038   -2.0262   -1.1960 C   0  0  0  0  0  0  0  0  0  0  0  0
    7.5623   -0.5627   -1.3746 C   0  0  0  0  0  0  0  0  0  0  0  0
    6.9137    0.0091   -0.1747 N   0  0  0  0  0  0  0  0  0  0  0  0
    7.7603    0.1894    1.0238 C   0  0  0  0  0  0  0  0  0  0  0  0
    9.1075    0.8253    0.7443 C   0  0  0  0  0  0  0  0  0  0  0  0
    5.5008    0.0393   -0.0611 C   0  0  0  0  0  0  0  0  0  0  0  0
    4.8664   -0.2166    1.1606 C   0  0  0  0  0  0  0  0  0  0  0  0
    3.4991   -0.1959    1.2717 C   0  0  0  0  0  0  0  0  0  0  0  0
    2.6924    0.0873    0.1664 C   0  0  0  0  0  0  0  0  0  0  0  0
    1.2413    0.1186    0.2597 C   0  0  0  0  0  0  0  0  0  0  0  0
    0.4845   -0.1641    1.3657 C   0  0  0  0  0  0  0  0  0  0  0  0
   -0.9067   -0.0493    1.1546 C   0  0  0  0  0  0  0  0  0  0  0  0
   -1.2453    0.3262   -0.1150 C   0  0  0  0  0  0  0  0  0  0  0  0
   -2.6021    0.5211   -0.5952 C   0  0  0  0  0  0  0  0  0  0  0  0
   -3.5872    0.2685    0.2891 N   0  0  0  0  0  0  0  0  0  0  0  0
   -4.8319    0.4194   -0.1256 C   0  0  0  0  0  0  0  0  0  0  0  0
   -5.8695    0.0384    0.7533 N   0  0  0  0  0  0  0  0  0  0  0  0
   -5.5222   -0.1691    2.1758 C   0  0  0  0  0  0  0  0  0  0  0  0
   -6.7634   -0.5517    2.9835 C   0  0  0  0  0  0  0  0  0  0  0  0
   -7.3570   -1.7770    2.5239 O   0  0  0  0  0  0  0  0  0  0  0  0
   -7.1428   -2.0473    1.1300 C   0  0  0  0  0  0  0  0  0  0  0  0
   -7.0386   -0.7668    0.3012 C   0  0  0  0  0  0  0  0  0  0  0  0
   -5.1034    0.9206   -1.4279 C   0  0  0  0  0  0  0  0  0  0  0  0
   -6.3886    1.2618   -1.8860 C   0  0  0  0  0  0  0  0  0  0  0  0
   -6.5766    1.7346   -3.1538 C   0  0  0  0  0  0  0  0  0  0  0  0
   -5.4879    1.8983   -4.0107 C   0  0  0  0  0  0  0  0  0  0  0  0
   -4.2259    1.6086   -3.5788 C   0  0  0  0  0  0  0  0  0  0  0  0
   -3.9996    1.1296   -2.2735 C   0  0  0  0  0  0  0  0  0  0  0  0
   -2.7392    0.9112   -1.8511 N   0  0  0  0  0  0  0  0  0  0  0  0
    0.1919    0.5381   -1.0740 S   0  0  0  0  0  0  0  0  0  0  0  0
    3.3230    0.3485   -1.0514 C   0  0  0  0  0  0  0  0  0  0  0  0
    4.6895    0.3241   -1.1655 C   0  0  0  0  0  0  0  0  0  0  0  0
    8.6073   -2.1710   -0.3748 H   0  0  0  0  0  0  0  0  0  0  0  0
    8.3519   -2.4574   -2.0939 H   0  0  0  0  0  0  0  0  0  0  0  0
    7.0105   -2.6062   -0.9584 H   0  0  0  0  0  0  0  0  0  0  0  0
    8.4518    0.0288   -1.6105 H   0  0  0  0  0  0  0  0  0  0  0  0
    6.8979   -0.4326   -2.2330 H   0  0  0  0  0  0  0  0  0  0  0  0
    7.2018    0.8148    1.7283 H   0  0  0  0  0  0  0  0  0  0  0  0
    7.8780   -0.7849    1.5091 H   0  0  0  0  0  0  0  0  0  0  0  0
    8.9891    1.7651    0.2025 H   0  0  0  0  0  0  0  0  0  0  0  0
    9.7413    0.1762    0.1384 H   0  0  0  0  0  0  0  0  0  0  0  0
    9.6556    1.0415    1.6641 H   0  0  0  0  0  0  0  0  0  0  0  0
    5.4646   -0.4638    2.0206 H   0  0  0  0  0  0  0  0  0  0  0  0
    3.0396   -0.4009    2.2217 H   0  0  0  0  0  0  0  0  0  0  0  0
    0.9063   -0.4518    2.3148 H   0  0  0  0  0  0  0  0  0  0  0  0
   -1.6472   -0.2357    1.9171 H   0  0  0  0  0  0  0  0  0  0  0  0
   -4.7735   -0.9644    2.2256 H   0  0  0  0  0  0  0  0  0  0  0  0
   -5.0490    0.7413    2.5578 H   0  0  0  0  0  0  0  0  0  0  0  0
   -7.5304    0.2259    2.9016 H   0  0  0  0  0  0  0  0  0  0  0  0
   -6.5357   -0.6741    4.0492 H   0  0  0  0  0  0  0  0  0  0  0  0
   -7.9616   -2.6916    0.7877 H   0  0  0  0  0  0  0  0  0  0  0  0
   -6.2178   -2.6295    1.0557 H   0  0  0  0  0  0  0  0  0  0  0  0
   -7.9423   -0.1648    0.4268 H   0  0  0  0  0  0  0  0  0  0  0  0
   -6.9353   -0.9962   -0.7638 H   0  0  0  0  0  0  0  0  0  0  0  0
   -7.2241    1.1856   -1.2148 H   0  0  0  0  0  0  0  0  0  0  0  0
   -7.5669    1.9909   -3.4928 H   0  0  0  0  0  0  0  0  0  0  0  0
   -5.6443    2.2688   -5.0105 H   0  0  0  0  0  0  0  0  0  0  0  0
   -3.3762    1.7518   -4.2229 H   0  0  0  0  0  0  0  0  0  0  0  0
    2.7139    0.5764   -1.9078 H   0  0  0  0  0  0  0  0  0  0  0  0
    5.1468    0.5668   -2.1087 H   0  0  0  0  0  0  0  0  0  0  0  0
  1  2  1  0  0  0  0
  2  3  1  0  0  0  0
  3  4  1  0  0  0  0
  4  5  1  0  0  0  0
  3  6  1  0  0  0  0
  6  7  2  0  0  0  0
  7  8  1  0  0  0  0
  8  9  2  0  0  0  0
  9 10  1  0  0  0  0
 10 11  2  0  0  0  0
 11 12  1  0  0  0  0
 12 13  2  0  0  0  0
 13 14  1  0  0  0  0
 14 15  2  0  0  0  0
 15 16  1  0  0  0  0
 16 17  1  0  0  0  0
 17 18  1  0  0  0  0
 18 19  1  0  0  0  0
 19 20  1  0  0  0  0
 20 21  1  0  0  0  0
 21 22  1  0  0  0  0
 16 23  2  0  0  0  0
 23 24  1  0  0  0  0
 24 25  2  0  0  0  0
 25 26  1  0  0  0  0
 26 27  2  0  0  0  0
 27 28  1  0  0  0  0
 28 29  2  0  0  0  0
 13 30  1  0  0  0  0
  9 31  1  0  0  0  0
 31 32  2  0  0  0  0
 32  6  1  0  0  0  0
 30 10  1  0  0  0  0
 29 14  1  0  0  0  0
 22 17  1  0  0  0  0
 28 23  1  0  0  0  0
  1 33  1  0  0  0  0
  1 34  1  0  0  0  0
  1 35  1  0  0  0  0
  2 36  1  0  0  0  0
  2 37  1  0  0  0  0
  4 38  1  0  0  0  0
  4 39  1  0  0  0  0
  5 40  1  0  0  0  0
  5 41  1  0  0  0  0
  5 42  1  0  0  0  0
  7 43  1  0  0  0  0
  8 44  1  0  0  0  0
 11 45  1  0  0  0  0
 12 46  1  0  0  0  0
 18 47  1  0  0  0  0
 18 48  1  0  0  0  0
 19 49  1  0  0  0  0
 19 50  1  0  0  0  0
 21 51  1  0  0  0  0
 21 52  1  0  0  0  0
 22 53  1  0  0  0  0
 22 54  1  0  0  0  0
 24 55  1  0  0  0  0
 25 56  1  0  0  0  0
 26 57  1  0  0  0  0
 27 58  1  0  0  0  0
 31 59  1  0  0  0  0
 32 60  1  0  0  0  0
M  END
