
  xtb     03012221333D
 energy: -6.544171100681 gnorm: 0.000352402944 xtb: 6.4.1 (afa7bdf)
 32 34  0     0  0            999 V2000
   -6.1359    0.0058    0.4249 N   0  0  0  0  0  0  0  0  0  0  0  0
   -4.7776    0.1474    0.2108 C   0  0  0  0  0  0  0  0  0  0  0  0
   -4.2871    1.0339   -0.7624 C   0  0  0  0  0  0  0  0  0  0  0  0
   -2.9429    1.1737   -0.9708 C   0  0  0  0  0  0  0  0  0  0  0  0
   -2.0222    0.4310   -0.2141 C   0  0  0  0  0  0  0  0  0  0  0  0
   -0.6225    0.5396   -0.3929 C   0  0  0  0  0  0  0  0  0  0  0  0
    0.2327   -0.2013    0.3650 C   0  0  0  0  0  0  0  0  0  0  0  0
    1.6893   -0.1233    0.2184 C   0  0  0  0  0  0  0  0  0  0  0  0
    2.4767   -0.8492    1.1047 C   0  0  0  0  0  0  0  0  0  0  0  0
    3.8484   -0.8197    1.0225 C   0  0  0  0  0  0  0  0  0  0  0  0
    4.4646   -0.0651    0.0462 C   0  0  0  0  0  0  0  0  0  0  0  0
    5.9779   -0.0064   -0.0461 C   0  0  0  0  0  0  0  0  0  0  0  0
    6.5055   -1.0109    0.6814 F   0  0  0  0  0  0  0  0  0  0  0  0
    6.3876    1.1833    0.4364 F   0  0  0  0  0  0  0  0  0  0  0  0
    6.3356   -0.1299   -1.3399 F   0  0  0  0  0  0  0  0  0  0  0  0
    3.6993    0.6609   -0.8419 C   0  0  0  0  0  0  0  0  0  0  0  0
    2.3268    0.6335   -0.7624 C   0  0  0  0  0  0  0  0  0  0  0  0
   -0.2156   -1.0831    1.3373 O   0  0  0  0  0  0  0  0  0  0  0  0
   -1.5638   -1.2337    1.5605 C   0  0  0  0  0  0  0  0  0  0  0  0
   -2.0155   -1.9934    2.4028 O   0  0  0  0  0  0  0  0  0  0  0  0
   -2.5033   -0.4539    0.7594 C   0  0  0  0  0  0  0  0  0  0  0  0
   -3.8654   -0.5849    0.9605 C   0  0  0  0  0  0  0  0  0  0  0  0
   -6.8307    0.4180   -0.1804 H   0  0  0  0  0  0  0  0  0  0  0  0
   -6.5204   -0.7085    1.0256 H   0  0  0  0  0  0  0  0  0  0  0  0
   -4.9905    1.6050   -1.3414 H   0  0  0  0  0  0  0  0  0  0  0  0
   -2.5767    1.8553   -1.7178 H   0  0  0  0  0  0  0  0  0  0  0  0
   -0.2497    1.2222   -1.1315 H   0  0  0  0  0  0  0  0  0  0  0  0
    1.9820   -1.4398    1.8602 H   0  0  0  0  0  0  0  0  0  0  0  0
    4.4592   -1.3808    1.7091 H   0  0  0  0  0  0  0  0  0  0  0  0
    4.1990    1.2431   -1.5974 H   0  0  0  0  0  0  0  0  0  0  0  0
    1.7465    1.1986   -1.4710 H   0  0  0  0  0  0  0  0  0  0  0  0
   -4.2115   -1.2670    1.7152 H   0  0  0  0  0  0  0  0  0  0  0  0
  1  2  1  0  0  0  0
  2  3  2  0  0  0  0
  3  4  1  0  0  0  0
  4  5  2  0  0  0  0
  5  6  1  0  0  0  0
  6  7  2  0  0  0  0
  7  8  1  0  0  0  0
  8  9  2  0  0  0  0
  9 10  1  0  0  0  0
 10 11  2  0  0  0  0
 11 12  1  0  0  0  0
 12 13  1  0  0  0  0
 12 14  1  0  0  0  0
 12 15  1  0  0  0  0
 11 16  1  0  0  0  0
 16 17  2  0  0  0  0
  7 18  1  0  0  0  0
 18 19  1  0  0  0  0
 19 20  2  0  0  0  0
 19 21  1  0  0  0  0
 21 22  2  0  0  0  0
 22  2  1  0  0  0  0
 21  5  1  0  0  0  0
 17  8  1  0  0  0  0
  1 23  1  0  0  0  0
  1 24  1  0  0  0  0
  3 25  1  0  0  0  0
  4 26  1  0  0  0  0
  6 27  1  0  0  0  0
  9 28  1  0  0  0  0
 10 29  1  0  0  0  0
 16 30  1  0  0  0  0
 17 31  1  0  0  0  0
 22 32  1  0  0  0  0
M  END
