
  xtb     03012221263D
 energy: -2.205741089636 gnorm: 0.000426467872 xtb: 6.4.1 (afa7bdf)
 12 12  0     0  0            999 V2000
   -2.2345    0.2635   -0.1798 C   0  0  0  0  0  0  0  0  0  0  0  0
   -1.4151   -0.3903   -1.1040 O   0  0  0  0  0  0  0  0  0  0  0  0
   -0.0688   -0.2868   -0.7718 C   0  0  0  0  0  0  0  0  0  0  0  0
    0.2667    0.3903    0.3155 N   0  0  0  0  0  0  0  0  0  0  0  0
    1.5101    0.4791    0.6005 N   0  0  0  0  0  0  0  0  0  0  0  0
    2.3686   -0.1061   -0.2090 C   0  0  0  0  0  0  0  0  0  0  0  0
    4.0583    0.0349    0.1741 Cl  0  0  0  0  0  0  0  0  0  0  0  0
    2.0433   -0.7870   -1.2873 N   0  0  0  0  0  0  0  0  0  0  0  0
    0.8026   -0.8817   -1.5765 N   0  0  0  0  0  0  0  0  0  0  0  0
   -2.0844   -0.1799    0.8069 H   0  0  0  0  0  0  0  0  0  0  0  0
   -1.9733    1.3238   -0.1598 H   0  0  0  0  0  0  0  0  0  0  0  0
   -3.2736    0.1403   -0.4908 H   0  0  0  0  0  0  0  0  0  0  0  0
  1  2  1  0  0  0  0
  2  3  1  0  0  0  0
  3  4  2  0  0  0  0
  4  5  1  0  0  0  0
  5  6  2  0  0  0  0
  6  7  1  0  0  0  0
  6  8  1  0  0  0  0
  8  9  2  0  0  0  0
  9  3  1  0  0  0  0
  1 10  1  0  0  0  0
  1 11  1  0  0  0  0
  1 12  1  0  0  0  0
M  END
