
  xtb     03012221273D
 energy: -7.426565803528 gnorm: 0.000224241976 xtb: 6.4.1 (afa7bdf)
 37 40  0     0  0            999 V2000
    6.6859   -0.1992    0.1263 C   0  0  0  0  0  0  0  0  0  0  0  0
    5.2020   -0.1497    0.0640 C   0  0  0  0  0  0  0  0  0  0  0  0
    4.5026   -0.9134   -0.8581 C   0  0  0  0  0  0  0  0  0  0  0  0
    3.1268   -0.8857   -0.9029 C   0  0  0  0  0  0  0  0  0  0  0  0
    2.4049   -0.0914   -0.0161 C   0  0  0  0  0  0  0  0  0  0  0  0
    0.9382   -0.0101   -0.0043 C   0  0  0  0  0  0  0  0  0  0  0  0
    0.1505   -0.6856   -0.8844 C   0  0  0  0  0  0  0  0  0  0  0  0
   -1.2640   -0.5838   -0.8471 C   0  0  0  0  0  0  0  0  0  0  0  0
   -2.0563   -1.2976   -1.7707 C   0  0  0  0  0  0  0  0  0  0  0  0
   -3.4086   -1.2039   -1.7408 C   0  0  0  0  0  0  0  0  0  0  0  0
   -4.0459   -0.3873   -0.7815 C   0  0  0  0  0  0  0  0  0  0  0  0
   -5.4468   -0.2573   -0.7113 C   0  0  0  0  0  0  0  0  0  0  0  0
   -6.0233    0.5426    0.2305 C   0  0  0  0  0  0  0  0  0  0  0  0
   -5.2294    1.2450    1.1401 C   0  0  0  0  0  0  0  0  0  0  0  0
   -3.8721    1.1370    1.0942 C   0  0  0  0  0  0  0  0  0  0  0  0
   -3.2437    0.3226    0.1380 C   0  0  0  0  0  0  0  0  0  0  0  0
   -1.8716    0.1962    0.0705 N   0  0  0  0  0  4  0  0  0  0  0  0
   -1.0638    0.9942    1.1046 B   0  0  0  0  0  4  0  0  0  0  0  0
   -1.4655    0.5633    2.3640 F   0  0  0  0  0  0  0  0  0  0  0  0
   -1.3720    2.3377    0.9218 F   0  0  0  0  0  0  0  0  0  0  0  0
    0.3839    0.7906    0.9472 O   0  0  0  0  0  0  0  0  0  0  0  0
    3.1104    0.6630    0.9121 C   0  0  0  0  0  0  0  0  0  0  0  0
    4.4854    0.6335    0.9546 C   0  0  0  0  0  0  0  0  0  0  0  0
    7.0183   -0.9103    0.8851 H   0  0  0  0  0  0  0  0  0  0  0  0
    7.1010    0.7794    0.3760 H   0  0  0  0  0  0  0  0  0  0  0  0
    7.1125   -0.5043   -0.8313 H   0  0  0  0  0  0  0  0  0  0  0  0
    5.0504   -1.5354   -1.5449 H   0  0  0  0  0  0  0  0  0  0  0  0
    2.6098   -1.4869   -1.6285 H   0  0  0  0  0  0  0  0  0  0  0  0
    0.5940   -1.3131   -1.6329 H   0  0  0  0  0  0  0  0  0  0  0  0
   -1.5708   -1.9201   -2.5024 H   0  0  0  0  0  0  0  0  0  0  0  0
   -4.0103   -1.7495   -2.4464 H   0  0  0  0  0  0  0  0  0  0  0  0
   -6.0570   -0.7993   -1.4129 H   0  0  0  0  0  0  0  0  0  0  0  0
   -7.0957    0.6353    0.2758 H   0  0  0  0  0  0  0  0  0  0  0  0
   -5.6942    1.8748    1.8807 H   0  0  0  0  0  0  0  0  0  0  0  0
   -3.2534    1.6748    1.7911 H   0  0  0  0  0  0  0  0  0  0  0  0
    2.5516    1.2730    1.6017 H   0  0  0  0  0  0  0  0  0  0  0  0
    5.0161    1.2208    1.6840 H   0  0  0  0  0  0  0  0  0  0  0  0
  1  2  1  0  0  0  0
  2  3  2  0  0  0  0
  3  4  1  0  0  0  0
  4  5  2  0  0  0  0
  5  6  1  0  0  0  0
  6  7  2  0  0  0  0
  7  8  1  0  0  0  0
  8  9  2  0  0  0  0
  9 10  1  0  0  0  0
 10 11  2  0  0  0  0
 11 12  1  0  0  0  0
 12 13  2  0  0  0  0
 13 14  1  0  0  0  0
 14 15  2  0  0  0  0
 15 16  1  0  0  0  0
 16 17  2  0  0  0  0
 17 18  1  0  0  0  0
 18 19  1  0  0  0  0
 18 20  1  0  0  0  0
 18 21  1  0  0  0  0
  5 22  1  0  0  0  0
 22 23  2  0  0  0  0
 23  2  1  0  0  0  0
 21  6  1  0  0  0  0
 17  8  1  0  0  0  0
 16 11  1  0  0  0  0
  1 24  1  0  0  0  0
  1 25  1  0  0  0  0
  1 26  1  0  0  0  0
  3 27  1  0  0  0  0
  4 28  1  0  0  0  0
  7 29  1  0  0  0  0
  9 30  1  0  0  0  0
 10 31  1  0  0  0  0
 12 32  1  0  0  0  0
 13 33  1  0  0  0  0
 14 34  1  0  0  0  0
 15 35  1  0  0  0  0
 22 36  1  0  0  0  0
 23 37  1  0  0  0  0
M  CHG  1  17   1
M  CHG  1  18  -1
M  END
