
  xtb     03012221213D
 energy: -7.681834117654 gnorm: 0.000738077490 xtb: 6.4.1 (afa7bdf)
 39 42  0     0  0            999 V2000
    0.5818    3.5799    0.0632 C   0  0  0  0  0  0  0  0  0  0  0  0
    0.1943    2.7067   -0.9778 O   0  0  0  0  0  0  0  0  0  0  0  0
   -0.3073    1.4710   -0.5028 C   0  0  0  0  0  0  0  0  0  0  0  0
   -1.6905    1.2769   -0.2414 C   0  0  0  0  0  0  0  0  0  0  0  0
   -2.6158    2.3087   -0.4929 C   0  0  0  0  0  0  0  0  0  0  0  0
   -3.9427    2.1371   -0.2348 C   0  0  0  0  0  0  0  0  0  0  0  0
   -4.4122    0.9252    0.2910 C   0  0  0  0  0  0  0  0  0  0  0  0
   -3.5494   -0.0988    0.5435 C   0  0  0  0  0  0  0  0  0  0  0  0
   -2.1703    0.0355    0.2836 C   0  0  0  0  0  0  0  0  0  0  0  0
   -1.2813   -1.0410    0.5370 C   0  0  0  0  0  0  0  0  0  0  0  0
   -1.7525   -2.2922    1.0054 O   0  0  0  0  0  0  0  0  0  0  0  0
   -2.1116   -3.1570   -0.0505 C   0  0  0  0  0  0  0  0  0  0  0  0
    0.0803   -0.8303    0.2804 C   0  0  0  0  0  0  0  0  0  0  0  0
    0.5512    0.3921   -0.2419 C   0  0  0  0  0  0  0  0  0  0  0  0
    1.9726    0.2719   -0.4049 C   0  0  0  0  0  0  0  0  0  0  0  0
    2.9309    1.1586   -0.8967 C   0  0  0  0  0  0  0  0  0  0  0  0
    4.2466    0.7558   -0.9249 C   0  0  0  0  0  0  0  0  0  0  0  0
    5.4544    1.8448   -1.5217 Cl  0  0  0  0  0  0  0  0  0  0  0  0
    4.6197   -0.5174   -0.4762 C   0  0  0  0  0  0  0  0  0  0  0  0
    3.6849   -1.4045    0.0021 C   0  0  0  0  0  0  0  0  0  0  0  0
    2.3461   -1.0105    0.0381 C   0  0  0  0  0  0  0  0  0  0  0  0
    1.1827   -1.6802    0.4599 N   0  0  0  0  0  0  0  0  0  0  0  0
    1.1447   -2.9995    1.0711 C   0  0  0  0  0  0  0  0  0  0  0  0
    1.3381    3.0979    0.6823 H   0  0  0  0  0  0  0  0  0  0  0  0
    0.9925    4.4901   -0.3734 H   0  0  0  0  0  0  0  0  0  0  0  0
   -0.2859    3.8270    0.6741 H   0  0  0  0  0  0  0  0  0  0  0  0
   -2.2508    3.2345   -0.9023 H   0  0  0  0  0  0  0  0  0  0  0  0
   -4.6378    2.9353   -0.4358 H   0  0  0  0  0  0  0  0  0  0  0  0
   -5.4633    0.8060    0.4956 H   0  0  0  0  0  0  0  0  0  0  0  0
   -3.9050   -1.0264    0.9566 H   0  0  0  0  0  0  0  0  0  0  0  0
   -1.2507   -3.3175   -0.6998 H   0  0  0  0  0  0  0  0  0  0  0  0
   -2.4374   -4.1100    0.3661 H   0  0  0  0  0  0  0  0  0  0  0  0
   -2.9245   -2.7151   -0.6268 H   0  0  0  0  0  0  0  0  0  0  0  0
    2.6437    2.1290   -1.2573 H   0  0  0  0  0  0  0  0  0  0  0  0
    5.6594   -0.7913   -0.5172 H   0  0  0  0  0  0  0  0  0  0  0  0
    3.9647   -2.3855    0.3413 H   0  0  0  0  0  0  0  0  0  0  0  0
    1.9624   -3.1070    1.7805 H   0  0  0  0  0  0  0  0  0  0  0  0
    1.2339   -3.7671    0.3057 H   0  0  0  0  0  0  0  0  0  0  0  0
    0.2041   -3.1327    1.6013 H   0  0  0  0  0  0  0  0  0  0  0  0
  1  2  1  0  0  0  0
  2  3  1  0  0  0  0
  3  4  2  0  0  0  0
  4  5  1  0  0  0  0
  5  6  2  0  0  0  0
  6  7  1  0  0  0  0
  7  8  2  0  0  0  0
  8  9  1  0  0  0  0
  9 10  2  0  0  0  0
 10 11  1  0  0  0  0
 11 12  1  0  0  0  0
 10 13  1  0  0  0  0
 13 14  2  0  0  0  0
 14 15  1  0  0  0  0
 15 16  2  0  0  0  0
 16 17  1  0  0  0  0
 17 18  1  0  0  0  0
 17 19  2  0  0  0  0
 19 20  1  0  0  0  0
 20 21  2  0  0  0  0
 21 22  1  0  0  0  0
 22 23  1  0  0  0  0
 14  3  1  0  0  0  0
 21 15  1  0  0  0  0
  9  4  1  0  0  0  0
 22 13  1  0  0  0  0
  1 24  1  0  0  0  0
  1 25  1  0  0  0  0
  1 26  1  0  0  0  0
  5 27  1  0  0  0  0
  6 28  1  0  0  0  0
  7 29  1  0  0  0  0
  8 30  1  0  0  0  0
 12 31  1  0  0  0  0
 12 32  1  0  0  0  0
 12 33  1  0  0  0  0
 16 34  1  0  0  0  0
 19 35  1  0  0  0  0
 20 36  1  0  0  0  0
 23 37  1  0  0  0  0
 23 38  1  0  0  0  0
 23 39  1  0  0  0  0
M  END
