
  xtb     03012221323D
 energy: -8.833070961189 gnorm: 0.000080869712 xtb: 6.4.1 (afa7bdf)
 46 49  0     0  0            999 V2000
    2.3137   -0.0317   -2.3484 C   0  0  0  0  0  0  0  0  0  0  0  0
    2.5898   -0.2393   -0.9323 N   0  0  0  0  0  0  0  0  0  0  0  0
    1.6351   -0.7388   -0.1215 N   0  0  0  0  0  0  0  0  0  0  0  0
    0.3637   -0.4432   -0.2340 C   0  0  0  0  0  0  0  0  0  0  0  0
   -0.0365    0.5192   -1.1387 N   0  0  0  0  0  0  0  0  0  0  0  0
   -1.2847    0.8815   -1.1849 C   0  0  0  0  0  0  0  0  0  0  0  0
   -1.6441    1.8421   -2.1058 N   0  0  0  0  0  0  0  0  0  0  0  0
   -2.3949    0.3557   -0.2789 C   0  0  0  0  0  0  0  0  0  0  0  0
   -3.6032   -0.1193   -1.1622 C   0  0  0  0  0  0  0  0  0  0  0  0
   -4.8636    0.6101   -0.6558 C   0  0  0  0  0  0  0  0  0  0  0  0
   -4.3686    1.8645    0.0885 C   0  0  0  0  0  0  0  0  0  0  0  0
   -2.9488    1.5379    0.5929 C   0  0  0  0  0  0  0  0  0  0  0  0
   -1.9222   -0.7746    0.6192 C   0  0  0  0  0  0  0  0  0  0  0  0
   -2.7984   -1.4466    1.4543 C   0  0  0  0  0  0  0  0  0  0  0  0
   -2.3556   -2.4595    2.2842 C   0  0  0  0  0  0  0  0  0  0  0  0
   -1.0204   -2.8115    2.2918 C   0  0  0  0  0  0  0  0  0  0  0  0
   -0.1360   -2.1513    1.4719 C   0  0  0  0  0  0  0  0  0  0  0  0
   -0.5711   -1.1292    0.6262 C   0  0  0  0  0  0  0  0  0  0  0  0
    3.9029   -0.0492   -0.4238 C   0  0  0  0  0  0  0  0  0  0  0  0
    4.9338    0.4870   -1.1929 C   0  0  0  0  0  0  0  0  0  0  0  0
    6.1865    0.6681   -0.6506 C   0  0  0  0  0  0  0  0  0  0  0  0
    6.4339    0.3225    0.6636 C   0  0  0  0  0  0  0  0  0  0  0  0
    5.4195   -0.2055    1.4375 C   0  0  0  0  0  0  0  0  0  0  0  0
    4.1663   -0.3882    0.8989 C   0  0  0  0  0  0  0  0  0  0  0  0
    1.3354   -0.4380   -2.5922 H   0  0  0  0  0  0  0  0  0  0  0  0
    3.0562   -0.5387   -2.9604 H   0  0  0  0  0  0  0  0  0  0  0  0
    2.3148    1.0317   -2.5761 H   0  0  0  0  0  0  0  0  0  0  0  0
   -0.9248    2.3401   -2.6089 H   0  0  0  0  0  0  0  0  0  0  0  0
   -2.5172    2.3514   -2.0737 H   0  0  0  0  0  0  0  0  0  0  0  0
   -3.4035    0.1196   -2.2114 H   0  0  0  0  0  0  0  0  0  0  0  0
   -3.7097   -1.2079   -1.1109 H   0  0  0  0  0  0  0  0  0  0  0  0
   -5.4340   -0.0349    0.0231 H   0  0  0  0  0  0  0  0  0  0  0  0
   -5.5425    0.8659   -1.4794 H   0  0  0  0  0  0  0  0  0  0  0  0
   -5.0383    2.1399    0.9135 H   0  0  0  0  0  0  0  0  0  0  0  0
   -4.3474    2.7262   -0.5893 H   0  0  0  0  0  0  0  0  0  0  0  0
   -2.9625    1.2417    1.6466 H   0  0  0  0  0  0  0  0  0  0  0  0
   -2.2801    2.4024    0.5247 H   0  0  0  0  0  0  0  0  0  0  0  0
   -3.8379   -1.1685    1.4581 H   0  0  0  0  0  0  0  0  0  0  0  0
   -3.0521   -2.9728    2.9267 H   0  0  0  0  0  0  0  0  0  0  0  0
   -0.6727   -3.6003    2.9385 H   0  0  0  0  0  0  0  0  0  0  0  0
    0.9072   -2.4151    1.4673 H   0  0  0  0  0  0  0  0  0  0  0  0
    4.7451    0.7706   -2.2125 H   0  0  0  0  0  0  0  0  0  0  0  0
    6.9775    1.0848   -1.2540 H   0  0  0  0  0  0  0  0  0  0  0  0
    7.4150    0.4673    1.0848 H   0  0  0  0  0  0  0  0  0  0  0  0
    5.6082   -0.4728    2.4652 H   0  0  0  0  0  0  0  0  0  0  0  0
    3.3665   -0.7929    1.4926 H   0  0  0  0  0  0  0  0  0  0  0  0
  1  2  1  0  0  0  0
  2  3  1  0  0  0  0
  3  4  2  0  0  0  0
  4  5  1  0  0  0  0
  5  6  2  0  0  0  0
  6  7  1  0  0  0  0
  6  8  1  0  0  0  0
  8  9  1  0  0  0  0
  9 10  1  0  0  0  0
 10 11  1  0  0  0  0
 11 12  1  0  0  0  0
  8 13  1  0  0  0  0
 13 14  2  0  0  0  0
 14 15  1  0  0  0  0
 15 16  2  0  0  0  0
 16 17  1  0  0  0  0
 17 18  2  0  0  0  0
  2 19  1  0  0  0  0
 19 20  2  0  0  0  0
 20 21  1  0  0  0  0
 21 22  2  0  0  0  0
 22 23  1  0  0  0  0
 23 24  2  0  0  0  0
 18  4  1  0  0  0  0
 24 19  1  0  0  0  0
 12  8  1  0  0  0  0
 18 13  1  0  0  0  0
  1 25  1  0  0  0  0
  1 26  1  0  0  0  0
  1 27  1  0  0  0  0
  7 28  1  0  0  0  0
  7 29  1  0  0  0  0
  9 30  1  0  0  0  0
  9 31  1  0  0  0  0
 10 32  1  0  0  0  0
 10 33  1  0  0  0  0
 11 34  1  0  0  0  0
 11 35  1  0  0  0  0
 12 36  1  0  0  0  0
 12 37  1  0  0  0  0
 14 38  1  0  0  0  0
 15 39  1  0  0  0  0
 16 40  1  0  0  0  0
 17 41  1  0  0  0  0
 20 42  1  0  0  0  0
 21 43  1  0  0  0  0
 22 44  1  0  0  0  0
 23 45  1  0  0  0  0
 24 46  1  0  0  0  0
M  END
