
  xtb     03012221253D
 energy: -7.654856591980 gnorm: 0.000350763146 xtb: 6.4.1 (afa7bdf)
 37 39  0     0  0            999 V2000
   -4.5890    1.0317    1.4633 C   0  0  0  0  0  0  0  0  0  0  0  0
   -3.5153    0.1004    1.1570 N   0  0  0  0  0  0  0  0  0  0  0  0
   -3.4946   -1.1768    1.8567 C   0  0  0  0  0  0  0  0  0  0  0  0
   -2.5058    0.4667    0.2583 C   0  0  0  0  0  0  0  0  0  0  0  0
   -2.5402    1.6471   -0.3364 N   0  0  0  0  0  0  0  0  0  0  0  0
   -1.5350    1.9667   -1.1889 C   0  0  0  0  0  0  0  0  0  0  0  0
   -1.6241    3.2176   -1.7899 N   0  0  0  0  0  0  0  0  0  0  0  0
   -0.4879    1.2223   -1.5264 N   0  0  0  0  0  0  0  0  0  0  0  0
   -0.4647    0.0316   -0.9272 C   0  0  0  0  0  0  0  0  0  0  0  0
   -1.4354   -0.4081   -0.0232 C   0  0  0  0  0  0  0  0  0  0  0  0
   -1.1208   -1.6440    0.4576 N   0  0  0  0  0  0  0  0  0  0  0  0
    0.0100   -1.9924   -0.1259 C   0  0  0  0  0  0  0  0  0  0  0  0
    0.7301   -3.1656    0.1201 C   0  0  0  0  0  0  0  0  0  0  0  0
    1.4012   -4.0991    0.3006 N   0  0  0  0  0  0  0  0  0  0  0  0
    0.4511   -0.9968   -1.0043 N   0  0  0  0  0  0  0  0  0  0  0  0
    1.7231   -0.9609   -1.7269 C   0  0  0  0  0  0  0  0  0  0  0  0
    2.8376   -0.4798   -0.8583 C   0  0  0  0  0  0  0  0  0  0  0  0
    3.4153   -1.3267    0.0733 C   0  0  0  0  0  0  0  0  0  0  0  0
    4.4242   -0.8787    0.8967 C   0  0  0  0  0  0  0  0  0  0  0  0
    4.8596    0.4252    0.8105 C   0  0  0  0  0  0  0  0  0  0  0  0
    4.2763    1.2824   -0.0964 C   0  0  0  0  0  0  0  0  0  0  0  0
    3.2677    0.8354   -0.9224 C   0  0  0  0  0  0  0  0  0  0  0  0
   -4.4980    1.9177    0.8377 H   0  0  0  0  0  0  0  0  0  0  0  0
   -4.5348    1.3339    2.5073 H   0  0  0  0  0  0  0  0  0  0  0  0
   -5.5549    0.5677    1.2733 H   0  0  0  0  0  0  0  0  0  0  0  0
   -4.3658   -1.2817    2.5001 H   0  0  0  0  0  0  0  0  0  0  0  0
   -2.5945   -1.2467    2.4647 H   0  0  0  0  0  0  0  0  0  0  0  0
   -3.4884   -1.9903    1.1337 H   0  0  0  0  0  0  0  0  0  0  0  0
   -2.4907    3.7336   -1.7608 H   0  0  0  0  0  0  0  0  0  0  0  0
   -1.0577    3.4323   -2.5969 H   0  0  0  0  0  0  0  0  0  0  0  0
    1.6040   -0.3114   -2.5980 H   0  0  0  0  0  0  0  0  0  0  0  0
    1.9377   -1.9647   -2.1032 H   0  0  0  0  0  0  0  0  0  0  0  0
    3.0478   -2.3335    0.1706 H   0  0  0  0  0  0  0  0  0  0  0  0
    4.8661   -1.5492    1.6174 H   0  0  0  0  0  0  0  0  0  0  0  0
    5.6466    0.7759    1.4572 H   0  0  0  0  0  0  0  0  0  0  0  0
    4.6048    2.3085   -0.1566 H   0  0  0  0  0  0  0  0  0  0  0  0
    2.7944    1.5099   -1.6143 H   0  0  0  0  0  0  0  0  0  0  0  0
  1  2  1  0  0  0  0
  2  3  1  0  0  0  0
  2  4  1  0  0  0  0
  4  5  2  0  0  0  0
  5  6  1  0  0  0  0
  6  7  1  0  0  0  0
  6  8  2  0  0  0  0
  8  9  1  0  0  0  0
  9 10  2  0  0  0  0
 10 11  1  0  0  0  0
 11 12  2  0  0  0  0
 12 13  1  0  0  0  0
 13 14  3  0  0  0  0
 12 15  1  0  0  0  0
 15 16  1  0  0  0  0
 16 17  1  0  0  0  0
 17 18  2  0  0  0  0
 18 19  1  0  0  0  0
 19 20  2  0  0  0  0
 20 21  1  0  0  0  0
 21 22  2  0  0  0  0
 10  4  1  0  0  0  0
 22 17  1  0  0  0  0
 15  9  1  0  0  0  0
  1 23  1  0  0  0  0
  1 24  1  0  0  0  0
  1 25  1  0  0  0  0
  3 26  1  0  0  0  0
  3 27  1  0  0  0  0
  3 28  1  0  0  0  0
  7 29  1  0  0  0  0
  7 30  1  0  0  0  0
 16 31  1  0  0  0  0
 16 32  1  0  0  0  0
 18 33  1  0  0  0  0
 19 34  1  0  0  0  0
 20 35  1  0  0  0  0
 21 36  1  0  0  0  0
 22 37  1  0  0  0  0
M  END
