
  xtb     03012221293D
 energy: -9.277009998065 gnorm: 0.000282170342 xtb: 6.4.1 (afa7bdf)
 44 47  0     0  0            999 V2000
   -0.9155    0.2655   -0.0138 C   0  0  0  0  0  0  0  0  0  0  0  0
   -1.8740    0.8791    0.7025 C   0  0  0  0  0  0  0  0  0  0  0  0
   -3.3041    0.6852    0.5377 C   0  0  0  0  0  0  0  0  0  0  0  0
   -4.1972    1.3786    1.3923 C   0  0  0  0  0  0  0  0  0  0  0  0
   -5.5440    1.2297    1.2838 C   0  0  0  0  0  0  0  0  0  0  0  0
   -6.0992    0.3715    0.3059 C   0  0  0  0  0  0  0  0  0  0  0  0
   -7.4920    0.1915    0.1644 C   0  0  0  0  0  0  0  0  0  0  0  0
   -7.9913   -0.6445   -0.7906 C   0  0  0  0  0  0  0  0  0  0  0  0
   -7.1287   -1.3387   -1.6475 C   0  0  0  0  0  0  0  0  0  0  0  0
   -5.7788   -1.1887   -1.5388 C   0  0  0  0  0  0  0  0  0  0  0  0
   -5.2257   -0.3302   -0.5598 C   0  0  0  0  0  0  0  0  0  0  0  0
   -3.8344   -0.1537   -0.4208 C   0  0  0  0  0  0  0  0  0  0  0  0
    0.5127    0.4510    0.1564 C   0  0  0  0  0  0  0  0  0  0  0  0
    1.0550    1.3482    1.0839 C   0  0  0  0  0  0  0  0  0  0  0  0
    2.4134    1.4885    1.2207 C   0  0  0  0  0  0  0  0  0  0  0  0
    3.2967    0.7320    0.4463 C   0  0  0  0  0  0  0  0  0  0  0  0
    4.6839    0.8969    0.6001 N   0  0  0  0  0  0  0  0  0  0  0  0
    5.7278    0.0275    0.2049 C   0  0  0  0  0  0  0  0  0  0  0  0
    6.9971    0.5405   -0.0633 C   0  0  0  0  0  0  0  0  0  0  0  0
    8.0297   -0.2927   -0.4303 C   0  0  0  0  0  0  0  0  0  0  0  0
    7.8212   -1.6550   -0.5266 C   0  0  0  0  0  0  0  0  0  0  0  0
    6.5751   -2.1819   -0.2470 C   0  0  0  0  0  0  0  0  0  0  0  0
    5.5396   -1.3517    0.1184 C   0  0  0  0  0  0  0  0  0  0  0  0
    2.7587   -0.1487   -0.4943 C   0  0  0  0  0  0  0  0  0  0  0  0
    1.4010   -0.2872   -0.6339 C   0  0  0  0  0  0  0  0  0  0  0  0
   -1.2106   -0.4319   -0.7758 H   0  0  0  0  0  0  0  0  0  0  0  0
   -1.5787    1.5687    1.4717 H   0  0  0  0  0  0  0  0  0  0  0  0
   -3.7884    2.0346    2.1424 H   0  0  0  0  0  0  0  0  0  0  0  0
   -6.2058    1.7642    1.9428 H   0  0  0  0  0  0  0  0  0  0  0  0
   -8.1560    0.7248    0.8228 H   0  0  0  0  0  0  0  0  0  0  0  0
   -9.0567   -0.7739   -0.8889 H   0  0  0  0  0  0  0  0  0  0  0  0
   -7.5385   -1.9958   -2.3973 H   0  0  0  0  0  0  0  0  0  0  0  0
   -5.1163   -1.7229   -2.1980 H   0  0  0  0  0  0  0  0  0  0  0  0
   -3.1858   -0.6921   -1.0863 H   0  0  0  0  0  0  0  0  0  0  0  0
    0.4008    1.9397    1.6988 H   0  0  0  0  0  0  0  0  0  0  0  0
    2.8171    2.1794    1.9402 H   0  0  0  0  0  0  0  0  0  0  0  0
    4.9776    1.7549    1.0618 H   0  0  0  0  0  0  0  0  0  0  0  0
    7.1548    1.6025    0.0106 H   0  0  0  0  0  0  0  0  0  0  0  0
    9.0034    0.1185   -0.6423 H   0  0  0  0  0  0  0  0  0  0  0  0
    8.6308   -2.3062   -0.8128 H   0  0  0  0  0  0  0  0  0  0  0  0
    6.4152   -3.2462   -0.3084 H   0  0  0  0  0  0  0  0  0  0  0  0
    4.5820   -1.7661    0.3792 H   0  0  0  0  0  0  0  0  0  0  0  0
    3.4241   -0.6945   -1.1390 H   0  0  0  0  0  0  0  0  0  0  0  0
    1.0038   -0.9704   -1.3650 H   0  0  0  0  0  0  0  0  0  0  0  0
  1  2  2  0  0  0  0
  2  3  1  0  0  0  0
  3  4  2  0  0  0  0
  4  5  1  0  0  0  0
  5  6  2  0  0  0  0
  6  7  1  0  0  0  0
  7  8  2  0  0  0  0
  8  9  1  0  0  0  0
  9 10  2  0  0  0  0
 10 11  1  0  0  0  0
 11 12  2  0  0  0  0
  1 13  1  0  0  0  0
 13 14  2  0  0  0  0
 14 15  1  0  0  0  0
 15 16  2  0  0  0  0
 16 17  1  0  0  0  0
 17 18  1  0  0  0  0
 18 19  2  0  0  0  0
 19 20  1  0  0  0  0
 20 21  2  0  0  0  0
 21 22  1  0  0  0  0
 22 23  2  0  0  0  0
 16 24  1  0  0  0  0
 24 25  2  0  0  0  0
 12  3  1  0  0  0  0
 25 13  1  0  0  0  0
 11  6  1  0  0  0  0
 23 18  1  0  0  0  0
  1 26  1  0  0  0  0
  2 27  1  0  0  0  0
  4 28  1  0  0  0  0
  5 29  1  0  0  0  0
  7 30  1  0  0  0  0
  8 31  1  0  0  0  0
  9 32  1  0  0  0  0
 10 33  1  0  0  0  0
 12 34  1  0  0  0  0
 14 35  1  0  0  0  0
 15 36  1  0  0  0  0
 17 37  1  0  0  0  0
 19 38  1  0  0  0  0
 20 39  1  0  0  0  0
 21 40  1  0  0  0  0
 22 41  1  0  0  0  0
 23 42  1  0  0  0  0
 24 43  1  0  0  0  0
 25 44  1  0  0  0  0
M  END
