
  xtb     03012221313D
 energy: -8.241074405760 gnorm: 0.000227128684 xtb: 6.4.1 (afa7bdf)
 38 41  0     0  0            999 V2000
   -1.5266   -1.2134    2.1622 O   0  0  0  0  0  0  0  0  0  0  0  0
   -2.2897   -1.7281    1.3665 C   0  0  0  0  0  0  0  0  0  0  0  0
   -2.5920   -3.0502    1.4212 O   0  0  0  0  0  0  0  0  0  0  0  0
   -2.9720   -0.9306    0.3132 C   0  0  0  0  0  0  0  0  0  0  0  0
   -4.3198   -1.1650    0.0889 C   0  0  0  0  0  0  0  0  0  0  0  0
   -5.0259   -0.4284   -0.8333 C   0  0  0  0  0  0  0  0  0  0  0  0
   -4.3898    0.5620   -1.5560 C   0  0  0  0  0  0  0  0  0  0  0  0
   -3.0523    0.8046   -1.3595 C   0  0  0  0  0  0  0  0  0  0  0  0
   -2.3126    0.0687   -0.4318 C   0  0  0  0  0  0  0  0  0  0  0  0
   -0.8759    0.3028   -0.3052 C   0  0  0  0  0  0  0  0  0  0  0  0
    0.0254   -0.6618   -0.1545 N   0  0  0  0  0  0  0  0  0  0  0  0
    1.2343   -0.0874   -0.0829 C   0  0  0  0  0  0  0  0  0  0  0  0
    2.4539   -0.8602    0.1440 C   0  0  0  0  0  0  0  0  0  0  0  0
    2.3600   -2.0769    0.8156 C   0  0  0  0  0  0  0  0  0  0  0  0
    3.4762   -2.8452    1.0465 C   0  0  0  0  0  0  0  0  0  0  0  0
    4.7102   -2.4139    0.6013 C   0  0  0  0  0  0  0  0  0  0  0  0
    4.8228   -1.2171   -0.0791 C   0  0  0  0  0  0  0  0  0  0  0  0
    3.7061   -0.4476   -0.3085 C   0  0  0  0  0  0  0  0  0  0  0  0
    1.0921    1.3200   -0.1969 C   0  0  0  0  0  0  0  0  0  0  0  0
    2.0066    2.3850   -0.1132 C   0  0  0  0  0  0  0  0  0  0  0  0
    1.5311    3.6554   -0.2059 C   0  0  0  0  0  0  0  0  0  0  0  0
    0.1540    3.8966   -0.3625 C   0  0  0  0  0  0  0  0  0  0  0  0
   -0.7216    2.8644   -0.4216 C   0  0  0  0  0  0  0  0  0  0  0  0
   -0.2579    1.5617   -0.3486 N   0  0  0  0  0  0  0  0  0  0  0  0
   -2.0801   -3.4236    2.1655 H   0  0  0  0  0  0  0  0  0  0  0  0
   -4.8078   -1.9374    0.6590 H   0  0  0  0  0  0  0  0  0  0  0  0
   -6.0733   -0.6237   -0.9916 H   0  0  0  0  0  0  0  0  0  0  0  0
   -4.9408    1.1358   -2.2829 H   0  0  0  0  0  0  0  0  0  0  0  0
   -2.5471    1.5435   -1.9558 H   0  0  0  0  0  0  0  0  0  0  0  0
    1.3889   -2.3955    1.1600 H   0  0  0  0  0  0  0  0  0  0  0  0
    3.3878   -3.7803    1.5731 H   0  0  0  0  0  0  0  0  0  0  0  0
    5.5867   -3.0153    0.7805 H   0  0  0  0  0  0  0  0  0  0  0  0
    5.7847   -0.8894   -0.4356 H   0  0  0  0  0  0  0  0  0  0  0  0
    3.7881    0.4634   -0.8760 H   0  0  0  0  0  0  0  0  0  0  0  0
    3.0498    2.1947    0.0561 H   0  0  0  0  0  0  0  0  0  0  0  0
    2.2114    4.4901   -0.1416 H   0  0  0  0  0  0  0  0  0  0  0  0
   -0.2048    4.9102   -0.4160 H   0  0  0  0  0  0  0  0  0  0  0  0
   -1.7802    3.0324   -0.4945 H   0  0  0  0  0  0  0  0  0  0  0  0
  1  2  2  0  0  0  0
  2  3  1  0  0  0  0
  2  4  1  0  0  0  0
  4  5  2  0  0  0  0
  5  6  1  0  0  0  0
  6  7  2  0  0  0  0
  7  8  1  0  0  0  0
  8  9  2  0  0  0  0
  9 10  1  0  0  0  0
 10 11  2  0  0  0  0
 11 12  1  0  0  0  0
 12 13  1  0  0  0  0
 13 14  2  0  0  0  0
 14 15  1  0  0  0  0
 15 16  2  0  0  0  0
 16 17  1  0  0  0  0
 17 18  2  0  0  0  0
 12 19  2  0  0  0  0
 19 20  1  0  0  0  0
 20 21  2  0  0  0  0
 21 22  1  0  0  0  0
 22 23  2  0  0  0  0
 23 24  1  0  0  0  0
  9  4  1  0  0  0  0
 24 10  1  0  0  0  0
 18 13  1  0  0  0  0
 24 19  1  0  0  0  0
  3 25  1  0  0  0  0
  5 26  1  0  0  0  0
  6 27  1  0  0  0  0
  7 28  1  0  0  0  0
  8 29  1  0  0  0  0
 14 30  1  0  0  0  0
 15 31  1  0  0  0  0
 16 32  1  0  0  0  0
 17 33  1  0  0  0  0
 18 34  1  0  0  0  0
 20 35  1  0  0  0  0
 21 36  1  0  0  0  0
 22 37  1  0  0  0  0
 23 38  1  0  0  0  0
M  END
