
  xtb     03012221233D
 energy: -9.291869623370 gnorm: 0.000240902528 xtb: 6.4.1 (afa7bdf)
 45 48  0     0  0            999 V2000
   -6.4074   -1.3926    1.8088 O   0  0  0  0  0  0  0  0  0  0  0  0
   -7.1267   -1.2501    0.5998 C   0  0  0  0  0  0  0  0  0  0  0  0
   -6.3517   -0.5543   -0.4723 C   0  0  0  0  0  0  0  0  0  0  0  0
   -4.9898   -0.4425   -0.3385 C   0  0  0  0  0  0  0  0  0  0  0  0
   -4.2051    0.1805   -1.3014 C   0  0  0  0  0  0  0  0  0  0  0  0
   -2.8409    0.2715   -1.1297 N   0  0  0  0  0  0  0  0  0  0  0  0
   -2.3038   -0.1937   -0.1209 N   0  0  0  0  0  0  0  0  0  0  0  0
   -0.9455   -0.1362    0.0858 C   0  0  0  0  0  0  0  0  0  0  0  0
   -0.4021   -0.5904    1.2849 C   0  0  0  0  0  0  0  0  0  0  0  0
    0.9481   -0.5375    1.5140 C   0  0  0  0  0  0  0  0  0  0  0  0
    1.8134   -0.0278    0.5461 C   0  0  0  0  0  0  0  0  0  0  0  0
    3.2705    0.0332    0.7849 C   0  0  0  0  0  0  0  0  0  0  0  0
    3.7772    0.3674    2.0624 C   0  0  0  0  0  0  0  0  0  0  0  0
    5.1141    0.4277    2.2972 C   0  0  0  0  0  0  0  0  0  0  0  0
    6.0418    0.1553    1.2667 C   0  0  0  0  0  0  0  0  0  0  0  0
    7.4366    0.2059    1.4761 C   0  0  0  0  0  0  0  0  0  0  0  0
    8.3018   -0.0648    0.4587 C   0  0  0  0  0  0  0  0  0  0  0  0
    7.8186   -0.3977   -0.8125 C   0  0  0  0  0  0  0  0  0  0  0  0
    6.4791   -0.4549   -1.0498 C   0  0  0  0  0  0  0  0  0  0  0  0
    5.5538   -0.1795   -0.0179 C   0  0  0  0  0  0  0  0  0  0  0  0
    4.1620   -0.2313   -0.2291 C   0  0  0  0  0  0  0  0  0  0  0  0
    1.2691    0.4225   -0.6552 C   0  0  0  0  0  0  0  0  0  0  0  0
   -0.0865    0.3757   -0.8938 C   0  0  0  0  0  0  0  0  0  0  0  0
   -0.5815    0.8186   -2.0704 F   0  0  0  0  0  0  0  0  0  0  0  0
   -4.8219    0.7032   -2.4337 C   0  0  0  0  0  0  0  0  0  0  0  0
   -6.1772    0.5930   -2.5931 C   0  0  0  0  0  0  0  0  0  0  0  0
   -6.9739   -0.0412   -1.6310 C   0  0  0  0  0  0  0  0  0  0  0  0
   -8.3272   -0.1389   -1.8654 O   0  0  0  0  0  0  0  0  0  0  0  0
   -6.1780   -0.5083    2.1726 H   0  0  0  0  0  0  0  0  0  0  0  0
   -7.3950   -2.2599    0.2685 H   0  0  0  0  0  0  0  0  0  0  0  0
   -8.0616   -0.7197    0.8167 H   0  0  0  0  0  0  0  0  0  0  0  0
   -4.5110   -0.8459    0.5352 H   0  0  0  0  0  0  0  0  0  0  0  0
   -1.0702   -0.9870    2.0318 H   0  0  0  0  0  0  0  0  0  0  0  0
    1.3524   -0.9055    2.4398 H   0  0  0  0  0  0  0  0  0  0  0  0
    3.0822    0.5926    2.8522 H   0  0  0  0  0  0  0  0  0  0  0  0
    5.4834    0.6873    3.2744 H   0  0  0  0  0  0  0  0  0  0  0  0
    7.8079    0.4618    2.4539 H   0  0  0  0  0  0  0  0  0  0  0  0
    9.3642   -0.0235    0.6302 H   0  0  0  0  0  0  0  0  0  0  0  0
    8.5152   -0.6098   -1.6075 H   0  0  0  0  0  0  0  0  0  0  0  0
    6.1089   -0.7110   -2.0275 H   0  0  0  0  0  0  0  0  0  0  0  0
    3.7932   -0.5006   -1.2016 H   0  0  0  0  0  0  0  0  0  0  0  0
    1.9066    0.8339   -1.4140 H   0  0  0  0  0  0  0  0  0  0  0  0
   -4.2130    1.1866   -3.1776 H   0  0  0  0  0  0  0  0  0  0  0  0
   -6.6607    0.9865   -3.4689 H   0  0  0  0  0  0  0  0  0  0  0  0
   -8.7693   -0.6426   -1.1489 H   0  0  0  0  0  0  0  0  0  0  0  0
  1  2  1  0  0  0  0
  2  3  1  0  0  0  0
  3  4  2  0  0  0  0
  4  5  1  0  0  0  0
  5  6  1  0  0  0  0
  6  7  2  0  0  0  0
  7  8  1  0  0  0  0
  8  9  2  0  0  0  0
  9 10  1  0  0  0  0
 10 11  2  0  0  0  0
 11 12  1  0  0  0  0
 12 13  2  0  0  0  0
 13 14  1  0  0  0  0
 14 15  2  0  0  0  0
 15 16  1  0  0  0  0
 16 17  2  0  0  0  0
 17 18  1  0  0  0  0
 18 19  2  0  0  0  0
 19 20  1  0  0  0  0
 20 21  2  0  0  0  0
 11 22  1  0  0  0  0
 22 23  2  0  0  0  0
 23 24  1  0  0  0  0
  5 25  2  0  0  0  0
 25 26  1  0  0  0  0
 26 27  2  0  0  0  0
 27 28  1  0  0  0  0
 27  3  1  0  0  0  0
 23  8  1  0  0  0  0
 21 12  1  0  0  0  0
 20 15  1  0  0  0  0
  1 29  1  0  0  0  0
  2 30  1  0  0  0  0
  2 31  1  0  0  0  0
  4 32  1  0  0  0  0
  9 33  1  0  0  0  0
 10 34  1  0  0  0  0
 13 35  1  0  0  0  0
 14 36  1  0  0  0  0
 16 37  1  0  0  0  0
 17 38  1  0  0  0  0
 18 39  1  0  0  0  0
 19 40  1  0  0  0  0
 21 41  1  0  0  0  0
 22 42  1  0  0  0  0
 25 43  1  0  0  0  0
 26 44  1  0  0  0  0
 28 45  1  0  0  0  0
M  END
