
  xtb     03012221273D
 energy: -5.438445021886 gnorm: 0.000701264361 xtb: 6.4.1 (afa7bdf)
 27 29  0     0  0            999 V2000
   -3.3633    1.3656    0.1951 C   0  0  0  0  0  0  0  0  0  0  0  0
   -2.4597    0.2281    0.1102 N   0  0  0  0  0  0  0  0  0  0  0  0
   -3.0593   -1.0990    0.0445 C   0  0  0  0  0  0  0  0  0  0  0  0
   -1.0861    0.4425    0.0682 C   0  0  0  0  0  0  0  0  0  0  0  0
   -0.5434    1.6555    0.0972 N   0  0  0  0  0  0  0  0  0  0  0  0
    0.8296    1.5014    0.0355 C   0  0  0  0  0  0  0  0  0  0  0  0
    1.8930    2.3892    0.0267 C   0  0  0  0  0  0  0  0  0  0  0  0
    3.1994    1.8861   -0.0478 C   0  0  0  0  0  0  0  0  0  0  0  0
    3.4726    0.5341   -0.1130 C   0  0  0  0  0  0  0  0  0  0  0  0
    2.4182   -0.4089   -0.1069 C   0  0  0  0  0  0  0  0  0  0  0  0
    2.4789   -1.8205   -0.1646 C   0  0  0  0  0  0  0  0  0  0  0  0
    1.3186   -2.5662   -0.1450 C   0  0  0  0  0  0  0  0  0  0  0  0
    0.0457   -1.9786   -0.0704 C   0  0  0  0  0  0  0  0  0  0  0  0
   -0.0535   -0.5987   -0.0152 C   0  0  0  0  0  0  0  0  0  0  0  0
    1.1345    0.1290   -0.0330 C   0  0  0  0  0  0  0  0  0  0  0  0
   -2.7912    2.2860    0.3028 H   0  0  0  0  0  0  0  0  0  0  0  0
   -4.0207    1.2609    1.0571 H   0  0  0  0  0  0  0  0  0  0  0  0
   -3.9663    1.4335   -0.7092 H   0  0  0  0  0  0  0  0  0  0  0  0
   -2.7478   -1.6914    0.9026 H   0  0  0  0  0  0  0  0  0  0  0  0
   -2.7545   -1.6006   -0.8719 H   0  0  0  0  0  0  0  0  0  0  0  0
   -4.1454   -1.0286    0.0514 H   0  0  0  0  0  0  0  0  0  0  0  0
    1.7017    3.4459    0.0767 H   0  0  0  0  0  0  0  0  0  0  0  0
    4.0203    2.5839   -0.0544 H   0  0  0  0  0  0  0  0  0  0  0  0
    4.4874    0.1817   -0.1691 H   0  0  0  0  0  0  0  0  0  0  0  0
    3.4399   -2.3005   -0.2232 H   0  0  0  0  0  0  0  0  0  0  0  0
    1.3889   -3.6405   -0.1887 H   0  0  0  0  0  0  0  0  0  0  0  0
   -0.8377   -2.5900   -0.0553 H   0  0  0  0  0  0  0  0  0  0  0  0
  1  2  1  0  0  0  0
  2  3  1  0  0  0  0
  2  4  1  0  0  0  0
  4  5  2  0  0  0  0
  5  6  1  0  0  0  0
  6  7  2  0  0  0  0
  7  8  1  0  0  0  0
  8  9  2  0  0  0  0
  9 10  1  0  0  0  0
 10 11  2  0  0  0  0
 11 12  1  0  0  0  0
 12 13  2  0  0  0  0
 13 14  1  0  0  0  0
 14 15  2  0  0  0  0
 14  4  1  0  0  0  0
 15  6  1  0  0  0  0
 15 10  1  0  0  0  0
  1 16  1  0  0  0  0
  1 17  1  0  0  0  0
  1 18  1  0  0  0  0
  3 19  1  0  0  0  0
  3 20  1  0  0  0  0
  3 21  1  0  0  0  0
  7 22  1  0  0  0  0
  8 23  1  0  0  0  0
  9 24  1  0  0  0  0
 11 25  1  0  0  0  0
 12 26  1  0  0  0  0
 13 27  1  0  0  0  0
M  END
