
  xtb     03012221293D
 energy: -11.470056898216 gnorm: 0.000363129065 xtb: 6.4.1 (afa7bdf)
 59 62  0     0  0            999 V2000
    0.3993   -3.9102    2.3498 C   0  0  0  0  0  0  0  0  0  0  0  0
    0.2491   -4.0464    0.8485 C   0  0  0  0  0  0  0  0  0  0  0  0
    0.2646   -2.7886    0.2243 O   0  0  0  0  0  0  0  0  0  0  0  0
   -0.8935   -2.1122    0.5022 C   0  0  0  0  0  0  0  0  0  0  0  0
   -1.8670   -2.6305    1.0180 O   0  0  0  0  0  0  0  0  0  0  0  0
   -0.9043   -0.6764    0.1417 C   0  0  0  0  0  0  0  0  0  0  0  0
    0.1952    0.2292    0.1377 C   0  0  0  0  0  0  0  0  0  0  0  0
    1.5704   -0.0626    0.5557 C   0  0  0  0  0  0  0  0  0  0  0  0
    2.6009    0.3912   -0.1952 C   0  0  0  0  0  0  0  0  0  0  0  0
    3.9424    0.0964    0.1452 C   0  0  0  0  0  0  0  0  0  0  0  0
    5.0214    0.5353   -0.6220 C   0  0  0  0  0  0  0  0  0  0  0  0
    6.3312    0.2211   -0.2865 C   0  0  0  0  0  0  0  0  0  0  0  0
    7.3411    0.7132   -1.1233 O   0  0  0  0  0  0  0  0  0  0  0  0
    8.6464    0.3660   -0.7368 C   0  0  0  0  0  0  0  0  0  0  0  0
    6.5494   -0.5622    0.8582 C   0  0  0  0  0  0  0  0  0  0  0  0
    5.5023   -1.0001    1.6199 C   0  0  0  0  0  0  0  0  0  0  0  0
    4.1822   -0.6840    1.2877 C   0  0  0  0  0  0  0  0  0  0  0  0
    3.1546   -1.1384    2.0982 O   0  0  0  0  0  0  0  0  0  0  0  0
    1.8563   -0.8042    1.7929 C   0  0  0  0  0  0  0  0  0  0  0  0
    0.9339   -1.0993    2.5376 O   0  0  0  0  0  0  0  0  0  0  0  0
   -0.1813    1.4068   -0.3406 N   0  0  0  0  0  0  0  0  0  0  0  0
   -1.4781    1.3121   -0.5887 N   0  0  0  0  0  0  0  0  0  0  0  0
   -2.2250    2.4266   -1.1149 C   0  0  0  0  0  0  0  0  0  0  0  0
   -1.5566    3.4407   -1.7775 C   0  0  0  0  0  0  0  0  0  0  0  0
   -2.2513    4.5177   -2.2759 C   0  0  0  0  0  0  0  0  0  0  0  0
   -3.6182    4.5969   -2.1139 C   0  0  0  0  0  0  0  0  0  0  0  0
   -4.3065    3.5988   -1.4425 C   0  0  0  0  0  0  0  0  0  0  0  0
   -5.7809    3.6601   -1.2718 C   0  0  0  0  0  0  0  0  0  0  0  0
   -3.5975    2.5203   -0.9511 C   0  0  0  0  0  0  0  0  0  0  0  0
   -1.9831    0.0428   -0.3121 C   0  0  0  0  0  0  0  0  0  0  0  0
   -3.3528   -0.4867   -0.5434 C   0  0  0  0  0  0  0  0  0  0  0  0
   -3.5673   -1.2284   -1.4873 O   0  0  0  0  0  0  0  0  0  0  0  0
   -4.3129   -0.1324    0.3736 O   0  0  0  0  0  0  0  0  0  0  0  0
   -5.3965   -1.0252    0.2806 C   0  0  0  0  0  0  0  0  0  0  0  0
   -5.0005   -2.4177    0.7333 C   0  0  0  0  0  0  0  0  0  0  0  0
   -0.4161   -3.3031    2.7500 H   0  0  0  0  0  0  0  0  0  0  0  0
    1.3211   -3.3762    2.5907 H   0  0  0  0  0  0  0  0  0  0  0  0
    0.4043   -4.8735    2.8632 H   0  0  0  0  0  0  0  0  0  0  0  0
    1.0664   -4.6339    0.4108 H   0  0  0  0  0  0  0  0  0  0  0  0
   -0.6958   -4.5355    0.5743 H   0  0  0  0  0  0  0  0  0  0  0  0
    2.3931    0.9636   -1.0808 H   0  0  0  0  0  0  0  0  0  0  0  0
    4.8466    1.1317   -1.5001 H   0  0  0  0  0  0  0  0  0  0  0  0
    8.7592   -0.7192   -0.7418 H   0  0  0  0  0  0  0  0  0  0  0  0
    8.8604    0.7715    0.2533 H   0  0  0  0  0  0  0  0  0  0  0  0
    9.3445    0.7984   -1.4552 H   0  0  0  0  0  0  0  0  0  0  0  0
    7.5525   -0.8205    1.1417 H   0  0  0  0  0  0  0  0  0  0  0  0
    5.6709   -1.5972    2.4993 H   0  0  0  0  0  0  0  0  0  0  0  0
   -0.4900    3.3689   -1.8910 H   0  0  0  0  0  0  0  0  0  0  0  0
   -1.7240    5.3028   -2.7957 H   0  0  0  0  0  0  0  0  0  0  0  0
   -4.1611    5.4379   -2.5092 H   0  0  0  0  0  0  0  0  0  0  0  0
   -6.2739    2.9318   -1.9170 H   0  0  0  0  0  0  0  0  0  0  0  0
   -6.0613    3.4411   -0.2406 H   0  0  0  0  0  0  0  0  0  0  0  0
   -6.1695    4.6484   -1.5201 H   0  0  0  0  0  0  0  0  0  0  0  0
   -4.1138    1.7356   -0.4323 H   0  0  0  0  0  0  0  0  0  0  0  0
   -5.7336   -1.0182   -0.7658 H   0  0  0  0  0  0  0  0  0  0  0  0
   -6.2114   -0.6147    0.8915 H   0  0  0  0  0  0  0  0  0  0  0  0
   -4.1606   -2.7779    0.1353 H   0  0  0  0  0  0  0  0  0  0  0  0
   -4.6561   -2.3987    1.7672 H   0  0  0  0  0  0  0  0  0  0  0  0
   -5.8192   -3.1333    0.6509 H   0  0  0  0  0  0  0  0  0  0  0  0
  1  2  1  0  0  0  0
  2  3  1  0  0  0  0
  3  4  1  0  0  0  0
  4  5  2  0  0  0  0
  4  6  1  0  0  0  0
  6  7  1  0  0  0  0
  7  8  1  0  0  0  0
  8  9  2  0  0  0  0
  9 10  1  0  0  0  0
 10 11  2  0  0  0  0
 11 12  1  0  0  0  0
 12 13  1  0  0  0  0
 13 14  1  0  0  0  0
 12 15  2  0  0  0  0
 15 16  1  0  0  0  0
 16 17  2  0  0  0  0
 17 18  1  0  0  0  0
 18 19  1  0  0  0  0
 19 20  2  0  0  0  0
  7 21  2  0  0  0  0
 21 22  1  0  0  0  0
 22 23  1  0  0  0  0
 23 24  2  0  0  0  0
 24 25  1  0  0  0  0
 25 26  2  0  0  0  0
 26 27  1  0  0  0  0
 27 28  1  0  0  0  0
 27 29  2  0  0  0  0
 22 30  1  0  0  0  0
 30 31  1  0  0  0  0
 31 32  2  0  0  0  0
 31 33  1  0  0  0  0
 33 34  1  0  0  0  0
 34 35  1  0  0  0  0
 30  6  2  0  0  0  0
 19  8  1  0  0  0  0
 29 23  1  0  0  0  0
 17 10  1  0  0  0  0
  1 36  1  0  0  0  0
  1 37  1  0  0  0  0
  1 38  1  0  0  0  0
  2 39  1  0  0  0  0
  2 40  1  0  0  0  0
  9 41  1  0  0  0  0
 11 42  1  0  0  0  0
 14 43  1  0  0  0  0
 14 44  1  0  0  0  0
 14 45  1  0  0  0  0
 15 46  1  0  0  0  0
 16 47  1  0  0  0  0
 24 48  1  0  0  0  0
 25 49  1  0  0  0  0
 26 50  1  0  0  0  0
 28 51  1  0  0  0  0
 28 52  1  0  0  0  0
 28 53  1  0  0  0  0
 29 54  1  0  0  0  0
 34 55  1  0  0  0  0
 34 56  1  0  0  0  0
 35 57  1  0  0  0  0
 35 58  1  0  0  0  0
 35 59  1  0  0  0  0
M  END
