
  xtb     03012221263D
 energy: -11.850739103779 gnorm: 0.000462127049 xtb: 6.4.1 (afa7bdf)
 54 56  0     0  0            999 V2000
    4.9939   -0.7136    0.7409 C   0  0  0  0  0  0  0  0  0  0  0  0
    4.7517    0.5627    0.1983 O   0  0  0  0  0  0  0  0  0  0  0  0
    3.4129    0.9596    0.1864 C   0  0  0  0  0  0  0  0  0  0  0  0
    2.3520    0.0616    0.1824 C   0  0  0  0  0  0  0  0  0  0  0  0
    1.0355    0.4876    0.0897 C   0  0  0  0  0  0  0  0  0  0  0  0
   -0.0349   -0.4592    0.1871 N   0  0  0  0  0  0  0  0  0  0  0  0
    0.1040   -1.5917    1.0674 C   0  0  0  0  0  0  0  0  0  0  0  0
   -0.3552   -2.8506    0.6861 C   0  0  0  0  0  0  0  0  0  0  0  0
   -0.2132   -3.9300    1.5277 C   0  0  0  0  0  0  0  0  0  0  0  0
    0.3879   -3.7745    2.7603 C   0  0  0  0  0  0  0  0  0  0  0  0
    0.8482   -2.5337    3.1512 C   0  0  0  0  0  0  0  0  0  0  0  0
    0.7087   -1.4500    2.3150 C   0  0  0  0  0  0  0  0  0  0  0  0
   -1.2441   -0.2789   -0.5579 C   0  0  0  0  0  0  0  0  0  0  0  0
   -1.2198    0.2857   -1.8345 C   0  0  0  0  0  0  0  0  0  0  0  0
   -2.3756    0.4453   -2.5489 C   0  0  0  0  0  0  0  0  0  0  0  0
   -3.6117    0.0504   -2.0309 C   0  0  0  0  0  0  0  0  0  0  0  0
   -4.8607    0.1874   -2.7344 C   0  0  0  0  0  0  0  0  0  0  0  0
   -5.0830    0.7048   -3.9651 C   0  0  0  0  0  0  0  0  0  0  0  0
   -4.0738    1.2159   -4.7795 C   0  0  0  0  0  0  0  0  0  0  0  0
   -3.1840    1.6257   -5.4062 N   0  0  0  0  0  0  0  0  0  0  0  0
   -6.3929    0.7288   -4.4438 C   0  0  0  0  0  0  0  0  0  0  0  0
   -7.4948    0.7341   -4.8168 N   0  0  0  0  0  0  0  0  0  0  0  0
   -3.6512   -0.5260   -0.7330 C   0  0  0  0  0  0  0  0  0  0  0  0
   -4.9017   -0.9084   -0.2489 O   0  0  0  0  0  0  0  0  0  0  0  0
   -4.9032   -1.4473    1.0511 C   0  0  0  0  0  0  0  0  0  0  0  0
   -2.4621   -0.6764   -0.0280 C   0  0  0  0  0  0  0  0  0  0  0  0
    0.7789    1.8528   -0.0602 C   0  0  0  0  0  0  0  0  0  0  0  0
    1.8002    2.7635   -0.0016 C   0  0  0  0  0  0  0  0  0  0  0  0
    3.1282    2.3536    0.1495 C   0  0  0  0  0  0  0  0  0  0  0  0
    4.1916    3.3368    0.3173 C   0  0  0  0  0  0  0  0  0  0  0  0
    5.1321    3.3029    1.2925 C   0  0  0  0  0  0  0  0  0  0  0  0
    6.0996    4.3068    1.3404 C   0  0  0  0  0  0  0  0  0  0  0  0
    6.8931    5.1571    1.3642 N   0  0  0  0  0  0  0  0  0  0  0  0
    5.1172    2.3432    2.3085 C   0  0  0  0  0  0  0  0  0  0  0  0
    5.0673    1.5406    3.1488 N   0  0  0  0  0  0  0  0  0  0  0  0
    6.0674   -0.8102    0.9037 H   0  0  0  0  0  0  0  0  0  0  0  0
    4.4803   -0.8026    1.6987 H   0  0  0  0  0  0  0  0  0  0  0  0
    4.6634   -1.4837    0.0447 H   0  0  0  0  0  0  0  0  0  0  0  0
    2.5456   -0.9917    0.2348 H   0  0  0  0  0  0  0  0  0  0  0  0
   -0.8122   -2.9684   -0.2800 H   0  0  0  0  0  0  0  0  0  0  0  0
   -0.5695   -4.9006    1.2220 H   0  0  0  0  0  0  0  0  0  0  0  0
    0.4992   -4.6221    3.4173 H   0  0  0  0  0  0  0  0  0  0  0  0
    1.3185   -2.4128    4.1140 H   0  0  0  0  0  0  0  0  0  0  0  0
    1.0610   -0.4800    2.6171 H   0  0  0  0  0  0  0  0  0  0  0  0
   -0.2749    0.5786   -2.2564 H   0  0  0  0  0  0  0  0  0  0  0  0
   -2.3225    0.8814   -3.5291 H   0  0  0  0  0  0  0  0  0  0  0  0
   -5.7234   -0.1733   -2.2002 H   0  0  0  0  0  0  0  0  0  0  0  0
   -5.9316   -1.6915    1.3165 H   0  0  0  0  0  0  0  0  0  0  0  0
   -4.5197   -0.7104    1.7565 H   0  0  0  0  0  0  0  0  0  0  0  0
   -4.3032   -2.3568    1.0752 H   0  0  0  0  0  0  0  0  0  0  0  0
   -2.4726   -1.1019    0.9558 H   0  0  0  0  0  0  0  0  0  0  0  0
   -0.2406    2.1851   -0.1399 H   0  0  0  0  0  0  0  0  0  0  0  0
    1.5845    3.8180   -0.0239 H   0  0  0  0  0  0  0  0  0  0  0  0
    4.2088    4.1763   -0.3586 H   0  0  0  0  0  0  0  0  0  0  0  0
  1  2  1  0  0  0  0
  2  3  1  0  0  0  0
  3  4  2  0  0  0  0
  4  5  1  0  0  0  0
  5  6  1  0  0  0  0
  6  7  1  0  0  0  0
  7  8  2  0  0  0  0
  8  9  1  0  0  0  0
  9 10  2  0  0  0  0
 10 11  1  0  0  0  0
 11 12  2  0  0  0  0
  6 13  1  0  0  0  0
 13 14  2  0  0  0  0
 14 15  1  0  0  0  0
 15 16  2  0  0  0  0
 16 17  1  0  0  0  0
 17 18  2  0  0  0  0
 18 19  1  0  0  0  0
 19 20  3  0  0  0  0
 18 21  1  0  0  0  0
 21 22  3  0  0  0  0
 16 23  1  0  0  0  0
 23 24  1  0  0  0  0
 24 25  1  0  0  0  0
 23 26  2  0  0  0  0
  5 27  2  0  0  0  0
 27 28  1  0  0  0  0
 28 29  2  0  0  0  0
 29 30  1  0  0  0  0
 30 31  2  0  0  0  0
 31 32  1  0  0  0  0
 32 33  3  0  0  0  0
 31 34  1  0  0  0  0
 34 35  3  0  0  0  0
 29  3  1  0  0  0  0
 12  7  1  0  0  0  0
 26 13  1  0  0  0  0
  1 36  1  0  0  0  0
  1 37  1  0  0  0  0
  1 38  1  0  0  0  0
  4 39  1  0  0  0  0
  8 40  1  0  0  0  0
  9 41  1  0  0  0  0
 10 42  1  0  0  0  0
 11 43  1  0  0  0  0
 12 44  1  0  0  0  0
 14 45  1  0  0  0  0
 15 46  1  0  0  0  0
 17 47  1  0  0  0  0
 25 48  1  0  0  0  0
 25 49  1  0  0  0  0
 25 50  1  0  0  0  0
 26 51  1  0  0  0  0
 27 52  1  0  0  0  0
 28 53  1  0  0  0  0
 30 54  1  0  0  0  0
M  END
