
  xtb     03012221203D
 energy: -2.839511434738 gnorm: 0.000569458028 xtb: 6.4.1 (afa7bdf)
 14 14  0     0  0            999 V2000
    2.9643   -0.9244   -0.0847 O   0  0  0  0  0  0  0  0  0  0  0  0
    2.3155    0.1074    0.1212 N   0  0  0  0  0  4  0  0  0  0  0  0
    2.8410    1.1942    0.3887 O   0  0  0  0  0  1  0  0  0  0  0  0
    0.8577    0.0395    0.0448 C   0  0  0  0  0  0  0  0  0  0  0  0
    0.0999    1.1715    0.2687 C   0  0  0  0  0  0  0  0  0  0  0  0
   -1.2739    1.1089    0.1970 C   0  0  0  0  0  0  0  0  0  0  0  0
   -1.8939   -0.0877   -0.0991 C   0  0  0  0  0  0  0  0  0  0  0  0
   -1.1390   -1.2207   -0.3233 C   0  0  0  0  0  0  0  0  0  0  0  0
    0.2348   -1.1565   -0.2513 C   0  0  0  0  0  0  0  0  0  0  0  0
    0.6047    2.0950    0.4983 H   0  0  0  0  0  0  0  0  0  0  0  0
   -1.8630    1.9940    0.3722 H   0  0  0  0  0  0  0  0  0  0  0  0
   -2.9687   -0.1373   -0.1553 H   0  0  0  0  0  0  0  0  0  0  0  0
   -1.6230   -2.1553   -0.5546 H   0  0  0  0  0  0  0  0  0  0  0  0
    0.8433   -2.0287   -0.4228 H   0  0  0  0  0  0  0  0  0  0  0  0
  1  2  2  0  0  0  0
  2  3  1  0  0  0  0
  2  4  1  0  0  0  0
  4  5  2  0  0  0  0
  5  6  1  0  0  0  0
  6  7  2  0  0  0  0
  7  8  1  0  0  0  0
  8  9  2  0  0  0  0
  9  4  1  0  0  0  0
  5 10  1  0  0  0  0
  6 11  1  0  0  0  0
  7 12  1  0  0  0  0
  8 13  1  0  0  0  0
  9 14  1  0  0  0  0
M  CHG  1   2   1
M  CHG  1   3  -1
M  END
