
  xtb     03012221213D
 energy: -7.829037423645 gnorm: 0.000441557782 xtb: 6.4.1 (afa7bdf)
 36 39  0     0  0            999 V2000
    6.7322   -0.5624    0.7877 N   0  0  0  0  0  0  0  0  0  0  0  0
    5.4017   -0.3408    0.5146 C   0  0  0  0  0  0  0  0  0  0  0  0
    4.9592    0.9055    0.0541 C   0  0  0  0  0  0  0  0  0  0  0  0
    3.6347    1.1228   -0.2206 C   0  0  0  0  0  0  0  0  0  0  0  0
    2.6865    0.1102   -0.0489 C   0  0  0  0  0  0  0  0  0  0  0  0
    1.2616    0.3455   -0.3445 C   0  0  0  0  0  0  0  0  0  0  0  0
    0.8665    1.2105   -1.3705 C   0  0  0  0  0  0  0  0  0  0  0  0
   -0.4628    1.4248   -1.6395 C   0  0  0  0  0  0  0  0  0  0  0  0
   -1.4495    0.7897   -0.9004 C   0  0  0  0  0  0  0  0  0  0  0  0
   -1.0748   -0.0824    0.1314 C   0  0  0  0  0  0  0  0  0  0  0  0
    0.2663   -0.2903    0.3920 C   0  0  0  0  0  0  0  0  0  0  0  0
   -2.0879   -0.7750    0.9416 C   0  0  0  0  0  0  0  0  0  0  0  0
   -1.7582   -1.5320    1.8339 O   0  0  0  0  0  0  0  0  0  0  0  0
   -3.5060   -0.5262    0.6416 C   0  0  0  0  0  0  0  0  0  0  0  0
   -4.4904   -1.1580    1.3857 C   0  0  0  0  0  0  0  0  0  0  0  0
   -5.8223   -0.9379    1.1200 C   0  0  0  0  0  0  0  0  0  0  0  0
   -6.1912   -0.0793    0.1019 C   0  0  0  0  0  0  0  0  0  0  0  0
   -5.2266    0.5554   -0.6457 C   0  0  0  0  0  0  0  0  0  0  0  0
   -3.8801    0.3450   -0.3910 C   0  0  0  0  0  0  0  0  0  0  0  0
   -2.8658    1.0358   -1.2031 C   0  0  0  0  0  0  0  0  0  0  0  0
   -3.1907    1.7906   -2.0997 O   0  0  0  0  0  0  0  0  0  0  0  0
    3.1284   -1.1328    0.4139 C   0  0  0  0  0  0  0  0  0  0  0  0
    4.4521   -1.3553    0.6884 C   0  0  0  0  0  0  0  0  0  0  0  0
    7.4496    0.1424    0.6832 H   0  0  0  0  0  0  0  0  0  0  0  0
    7.0944   -1.4430    1.1277 H   0  0  0  0  0  0  0  0  0  0  0  0
    5.6797    1.6944   -0.0778 H   0  0  0  0  0  0  0  0  0  0  0  0
    3.3105    2.0928   -0.5543 H   0  0  0  0  0  0  0  0  0  0  0  0
    1.6180    1.6960   -1.9676 H   0  0  0  0  0  0  0  0  0  0  0  0
   -0.7672    2.0877   -2.4308 H   0  0  0  0  0  0  0  0  0  0  0  0
    0.5282   -0.9481    1.2010 H   0  0  0  0  0  0  0  0  0  0  0  0
   -4.1859   -1.8237    2.1753 H   0  0  0  0  0  0  0  0  0  0  0  0
   -6.5775   -1.4350    1.7060 H   0  0  0  0  0  0  0  0  0  0  0  0
   -7.2341    0.0934   -0.1066 H   0  0  0  0  0  0  0  0  0  0  0  0
   -5.4964    1.2278   -1.4427 H   0  0  0  0  0  0  0  0  0  0  0  0
    2.4164   -1.9301    0.5359 H   0  0  0  0  0  0  0  0  0  0  0  0
    4.7812   -2.3179    1.0403 H   0  0  0  0  0  0  0  0  0  0  0  0
  1  2  1  0  0  0  0
  2  3  2  0  0  0  0
  3  4  1  0  0  0  0
  4  5  2  0  0  0  0
  5  6  1  0  0  0  0
  6  7  2  0  0  0  0
  7  8  1  0  0  0  0
  8  9  2  0  0  0  0
  9 10  1  0  0  0  0
 10 11  2  0  0  0  0
 10 12  1  0  0  0  0
 12 13  2  0  0  0  0
 12 14  1  0  0  0  0
 14 15  2  0  0  0  0
 15 16  1  0  0  0  0
 16 17  2  0  0  0  0
 17 18  1  0  0  0  0
 18 19  2  0  0  0  0
 19 20  1  0  0  0  0
 20 21  2  0  0  0  0
  5 22  1  0  0  0  0
 22 23  2  0  0  0  0
 23  2  1  0  0  0  0
 11  6  1  0  0  0  0
 19 14  1  0  0  0  0
 20  9  1  0  0  0  0
  1 24  1  0  0  0  0
  1 25  1  0  0  0  0
  3 26  1  0  0  0  0
  4 27  1  0  0  0  0
  7 28  1  0  0  0  0
  8 29  1  0  0  0  0
 11 30  1  0  0  0  0
 15 31  1  0  0  0  0
 16 32  1  0  0  0  0
 17 33  1  0  0  0  0
 18 34  1  0  0  0  0
 22 35  1  0  0  0  0
 23 36  1  0  0  0  0
M  END
