
  xtb     03012221323D
 energy: -18.876901161172 gnorm: 0.000066370325 xtb: 6.4.1 (afa7bdf)
 94101  0     0  0            999 V2000
    1.7129    5.4482   -1.2293 C   0  0  0  0  0  0  0  0  0  0  0  0
    2.6090    4.2444   -0.8846 C   0  0  0  0  0  0  0  0  0  0  0  0
    3.5484    3.9794   -2.0755 C   0  0  0  0  0  0  0  0  0  0  0  0
    3.4418    4.5966    0.3607 C   0  0  0  0  0  0  0  0  0  0  0  0
    1.7829    2.9815   -0.6026 C   0  0  0  0  0  0  0  0  0  0  0  0
    0.3985    2.9662   -0.6549 C   0  0  0  0  0  0  0  0  0  0  0  0
   -0.3339    1.7993   -0.4056 C   0  0  0  0  0  0  0  0  0  0  0  0
   -1.7524    1.7758   -0.4471 C   0  0  0  0  0  0  0  0  0  0  0  0
   -2.4740    0.6346   -0.2100 C   0  0  0  0  0  0  0  0  0  0  0  0
   -3.9058    0.6662   -0.2960 N   0  0  0  0  0  0  0  0  0  0  0  0
   -4.6127   -0.3435   -1.0334 C   0  0  0  0  0  0  0  0  0  0  0  0
   -5.8410   -0.8254   -0.5881 C   0  0  0  0  0  0  0  0  0  0  0  0
   -6.4889   -1.8308   -1.2697 C   0  0  0  0  0  0  0  0  0  0  0  0
   -5.9230   -2.3730   -2.4075 C   0  0  0  0  0  0  0  0  0  0  0  0
   -4.7047   -1.9058   -2.8612 C   0  0  0  0  0  0  0  0  0  0  0  0
   -4.0548   -0.9009   -2.1809 C   0  0  0  0  0  0  0  0  0  0  0  0
   -4.6263    1.7504    0.3078 C   0  0  0  0  0  0  0  0  0  0  0  0
   -5.7895    2.2510   -0.2706 C   0  0  0  0  0  0  0  0  0  0  0  0
   -6.4734    3.2924    0.3154 C   0  0  0  0  0  0  0  0  0  0  0  0
   -6.0078    3.8539    1.4887 C   0  0  0  0  0  0  0  0  0  0  0  0
   -4.8533    3.3703    2.0732 C   0  0  0  0  0  0  0  0  0  0  0  0
   -4.1682    2.3293    1.4884 C   0  0  0  0  0  0  0  0  0  0  0  0
   -1.7758   -0.5861    0.1272 C   0  0  0  0  0  0  0  0  0  0  0  0
   -2.4485   -1.7634    0.4437 C   0  0  0  0  0  0  0  0  0  0  0  0
   -1.7873   -2.9425    0.7575 C   0  0  0  0  0  0  0  0  0  0  0  0
   -2.6137   -4.2024    1.0520 C   0  0  0  0  0  0  0  0  0  0  0  0
   -3.5129   -3.9467    2.2745 C   0  0  0  0  0  0  0  0  0  0  0  0
   -3.4883   -4.5321   -0.1717 C   0  0  0  0  0  0  0  0  0  0  0  0
   -1.7164   -5.4174    1.3509 C   0  0  0  0  0  0  0  0  0  0  0  0
   -0.4021   -2.9343    0.7810 C   0  0  0  0  0  0  0  0  0  0  0  0
    0.3313   -1.7757    0.4983 C   0  0  0  0  0  0  0  0  0  0  0  0
    1.7500   -1.7548    0.5294 C   0  0  0  0  0  0  0  0  0  0  0  0
    2.4730   -0.6247    0.2472 C   0  0  0  0  0  0  0  0  0  0  0  0
    3.9068   -0.6731    0.2652 N   0  0  0  0  0  0  0  0  0  0  0  0
    4.6669   -0.1141   -0.8178 C   0  0  0  0  0  0  0  0  0  0  0  0
    4.1808   -0.1645   -2.1216 C   0  0  0  0  0  0  0  0  0  0  0  0
    4.8808    0.4159   -3.1551 C   0  0  0  0  0  0  0  0  0  0  0  0
    6.0782    1.0580   -2.9054 C   0  0  0  0  0  0  0  0  0  0  0  0
    6.5729    1.1175   -1.6167 C   0  0  0  0  0  0  0  0  0  0  0  0
    5.8749    0.5372   -0.5817 C   0  0  0  0  0  0  0  0  0  0  0  0
    4.5780   -1.3421    1.3427 C   0  0  0  0  0  0  0  0  0  0  0  0
    5.7648   -2.0379    1.1287 C   0  0  0  0  0  0  0  0  0  0  0  0
    6.4009   -2.6782    2.1684 C   0  0  0  0  0  0  0  0  0  0  0  0
    5.8632   -2.6368    3.4404 C   0  0  0  0  0  0  0  0  0  0  0  0
    4.6846   -1.9531    3.6681 C   0  0  0  0  0  0  0  0  0  0  0  0
    4.0473   -1.3125    2.6296 C   0  0  0  0  0  0  0  0  0  0  0  0
    1.7740    0.6028   -0.0624 C   0  0  0  0  0  0  0  0  0  0  0  0
    2.4443    1.8011   -0.2942 C   0  0  0  0  0  0  0  0  0  0  0  0
    0.3625    0.6037   -0.1066 C   0  0  0  0  0  0  0  0  0  0  0  0
   -0.3641   -0.5881    0.1667 C   0  0  0  0  0  0  0  0  0  0  0  0
    2.3157    6.3339   -1.4302 H   0  0  0  0  0  0  0  0  0  0  0  0
    1.1136    5.2493   -2.1177 H   0  0  0  0  0  0  0  0  0  0  0  0
    1.0418    5.6869   -0.4044 H   0  0  0  0  0  0  0  0  0  0  0  0
    4.1322    4.8673   -2.3179 H   0  0  0  0  0  0  0  0  0  0  0  0
    4.2468    3.1725   -1.8577 H   0  0  0  0  0  0  0  0  0  0  0  0
    2.9783    3.6973   -2.9606 H   0  0  0  0  0  0  0  0  0  0  0  0
    4.0246    5.5029    0.1967 H   0  0  0  0  0  0  0  0  0  0  0  0
    2.7949    4.7619    1.2221 H   0  0  0  0  0  0  0  0  0  0  0  0
    4.1364    3.7959    0.6127 H   0  0  0  0  0  0  0  0  0  0  0  0
   -0.1440    3.8636   -0.8879 H   0  0  0  0  0  0  0  0  0  0  0  0
   -2.2802    2.6792   -0.6908 H   0  0  0  0  0  0  0  0  0  0  0  0
   -6.2674   -0.4114    0.3091 H   0  0  0  0  0  0  0  0  0  0  0  0
   -7.4376   -2.1979   -0.9130 H   0  0  0  0  0  0  0  0  0  0  0  0
   -6.4305   -3.1611   -2.9395 H   0  0  0  0  0  0  0  0  0  0  0  0
   -4.2607   -2.3304   -3.7468 H   0  0  0  0  0  0  0  0  0  0  0  0
   -3.1019   -0.5363   -2.5233 H   0  0  0  0  0  0  0  0  0  0  0  0
   -6.1408    1.8180   -1.1910 H   0  0  0  0  0  0  0  0  0  0  0  0
   -7.3727    3.6709   -0.1427 H   0  0  0  0  0  0  0  0  0  0  0  0
   -6.5443    4.6687    1.9472 H   0  0  0  0  0  0  0  0  0  0  0  0
   -4.4890    3.8074    2.9886 H   0  0  0  0  0  0  0  0  0  0  0  0
   -3.2722    1.9425    1.9420 H   0  0  0  0  0  0  0  0  0  0  0  0
   -3.5213   -1.7527    0.4415 H   0  0  0  0  0  0  0  0  0  0  0  0
   -2.9124   -3.6863    3.1461 H   0  0  0  0  0  0  0  0  0  0  0  0
   -4.2084   -3.1284    2.0909 H   0  0  0  0  0  0  0  0  0  0  0  0
   -4.0987   -4.8324    2.5200 H   0  0  0  0  0  0  0  0  0  0  0  0
   -4.1877   -3.7257   -0.3883 H   0  0  0  0  0  0  0  0  0  0  0  0
   -2.8708   -4.6846   -1.0567 H   0  0  0  0  0  0  0  0  0  0  0  0
   -4.0691   -5.4389   -0.0040 H   0  0  0  0  0  0  0  0  0  0  0  0
   -2.3192   -6.3030    1.5518 H   0  0  0  0  0  0  0  0  0  0  0  0
   -1.0692   -5.6446    0.5038 H   0  0  0  0  0  0  0  0  0  0  0  0
   -1.0922   -5.2385    2.2262 H   0  0  0  0  0  0  0  0  0  0  0  0
    0.1401   -3.8294    1.0235 H   0  0  0  0  0  0  0  0  0  0  0  0
    2.2781   -2.6603    0.7643 H   0  0  0  0  0  0  0  0  0  0  0  0
    3.2437   -0.6601   -2.3063 H   0  0  0  0  0  0  0  0  0  0  0  0
    4.4922    0.3719   -4.1596 H   0  0  0  0  0  0  0  0  0  0  0  0
    6.6249    1.5138   -3.7148 H   0  0  0  0  0  0  0  0  0  0  0  0
    7.5051    1.6218   -1.4208 H   0  0  0  0  0  0  0  0  0  0  0  0
    6.2454    0.5956    0.4270 H   0  0  0  0  0  0  0  0  0  0  0  0
    6.1725   -2.0773    0.1336 H   0  0  0  0  0  0  0  0  0  0  0  0
    7.3190   -3.2137    1.9894 H   0  0  0  0  0  0  0  0  0  0  0  0
    6.3622   -3.1379    4.2539 H   0  0  0  0  0  0  0  0  0  0  0  0
    4.2640   -1.9199    4.6600 H   0  0  0  0  0  0  0  0  0  0  0  0
    3.1327   -0.7718    2.8010 H   0  0  0  0  0  0  0  0  0  0  0  0
    3.5153    1.8051   -0.2326 H   0  0  0  0  0  0  0  0  0  0  0  0
  1  2  1  0  0  0  0
  2  3  1  0  0  0  0
  2  4  1  0  0  0  0
  2  5  1  0  0  0  0
  5  6  2  0  0  0  0
  6  7  1  0  0  0  0
  7  8  2  0  0  0  0
  8  9  1  0  0  0  0
  9 10  1  0  0  0  0
 10 11  1  0  0  0  0
 11 12  2  0  0  0  0
 12 13  1  0  0  0  0
 13 14  2  0  0  0  0
 14 15  1  0  0  0  0
 15 16  2  0  0  0  0
 10 17  1  0  0  0  0
 17 18  2  0  0  0  0
 18 19  1  0  0  0  0
 19 20  2  0  0  0  0
 20 21  1  0  0  0  0
 21 22  2  0  0  0  0
  9 23  2  0  0  0  0
 23 24  1  0  0  0  0
 24 25  2  0  0  0  0
 25 26  1  0  0  0  0
 26 27  1  0  0  0  0
 26 28  1  0  0  0  0
 26 29  1  0  0  0  0
 25 30  1  0  0  0  0
 30 31  2  0  0  0  0
 31 32  1  0  0  0  0
 32 33  2  0  0  0  0
 33 34  1  0  0  0  0
 34 35  1  0  0  0  0
 35 36  2  0  0  0  0
 36 37  1  0  0  0  0
 37 38  2  0  0  0  0
 38 39  1  0  0  0  0
 39 40  2  0  0  0  0
 34 41  1  0  0  0  0
 41 42  2  0  0  0  0
 42 43  1  0  0  0  0
 43 44  2  0  0  0  0
 44 45  1  0  0  0  0
 45 46  2  0  0  0  0
 33 47  1  0  0  0  0
 47 48  2  0  0  0  0
 47 49  1  0  0  0  0
 49 50  2  0  0  0  0
 48  5  1  0  0  0  0
 49  7  1  0  0  0  0
 16 11  1  0  0  0  0
 22 17  1  0  0  0  0
 50 23  1  0  0  0  0
 50 31  1  0  0  0  0
 40 35  1  0  0  0  0
 46 41  1  0  0  0  0
  1 51  1  0  0  0  0
  1 52  1  0  0  0  0
  1 53  1  0  0  0  0
  3 54  1  0  0  0  0
  3 55  1  0  0  0  0
  3 56  1  0  0  0  0
  4 57  1  0  0  0  0
  4 58  1  0  0  0  0
  4 59  1  0  0  0  0
  6 60  1  0  0  0  0
  8 61  1  0  0  0  0
 12 62  1  0  0  0  0
 13 63  1  0  0  0  0
 14 64  1  0  0  0  0
 15 65  1  0  0  0  0
 16 66  1  0  0  0  0
 18 67  1  0  0  0  0
 19 68  1  0  0  0  0
 20 69  1  0  0  0  0
 21 70  1  0  0  0  0
 22 71  1  0  0  0  0
 24 72  1  0  0  0  0
 27 73  1  0  0  0  0
 27 74  1  0  0  0  0
 27 75  1  0  0  0  0
 28 76  1  0  0  0  0
 28 77  1  0  0  0  0
 28 78  1  0  0  0  0
 29 79  1  0  0  0  0
 29 80  1  0  0  0  0
 29 81  1  0  0  0  0
 30 82  1  0  0  0  0
 32 83  1  0  0  0  0
 36 84  1  0  0  0  0
 37 85  1  0  0  0  0
 38 86  1  0  0  0  0
 39 87  1  0  0  0  0
 40 88  1  0  0  0  0
 42 89  1  0  0  0  0
 43 90  1  0  0  0  0
 44 91  1  0  0  0  0
 45 92  1  0  0  0  0
 46 93  1  0  0  0  0
 48 94  1  0  0  0  0
M  END
