
  xtb     03012221233D
 energy: -9.783437338833 gnorm: 0.000287968563 xtb: 6.4.1 (afa7bdf)
 48 51  0     0  0            999 V2000
   -3.1965    2.7798    3.7281 C   0  0  0  0  0  0  0  0  0  0  0  0
   -2.8299    2.3700    2.4507 O   0  0  0  0  0  0  0  0  0  0  0  0
   -1.5362    1.9243    2.4707 C   0  0  0  0  0  0  0  0  0  0  0  0
   -0.8536    1.9038    3.4804 O   0  0  0  0  0  0  0  0  0  0  0  0
   -0.9767    1.4521    1.1965 C   0  0  0  0  0  0  0  0  0  0  0  0
    0.2497    0.9857    1.0518 N   0  0  0  0  0  0  0  0  0  0  0  0
    0.3710    0.6105   -0.2490 C   0  0  0  0  0  0  0  0  0  0  0  0
    1.4299   -0.0009   -0.9591 C   0  0  0  0  0  0  0  0  0  0  0  0
    2.6221   -0.2477   -0.3098 O   0  0  0  0  0  0  0  0  0  0  0  0
    3.5447   -0.8658   -1.1810 C   0  0  0  0  0  0  0  0  0  0  0  0
    4.8709   -1.1141   -0.5321 C   0  0  0  0  0  0  0  0  0  0  0  0
    5.1142   -2.3036    0.1306 C   0  0  0  0  0  0  0  0  0  0  0  0
    6.3184   -2.5100    0.7684 C   0  0  0  0  0  0  0  0  0  0  0  0
    7.2855   -1.5284    0.7589 C   0  0  0  0  0  0  0  0  0  0  0  0
    7.0412   -0.3352    0.1143 C   0  0  0  0  0  0  0  0  0  0  0  0
    5.8382   -0.1257   -0.5245 C   0  0  0  0  0  0  0  0  0  0  0  0
    1.2418   -0.3220   -2.2270 N   0  0  0  0  0  0  0  0  0  0  0  0
    0.0343   -0.0591   -2.7872 C   0  0  0  0  0  0  0  0  0  0  0  0
   -0.1108   -0.4312   -4.1165 N   0  0  0  0  0  0  0  0  0  0  0  0
   -1.0191    0.5128   -2.2154 N   0  0  0  0  0  0  0  0  0  0  0  0
   -0.8170    0.8499   -0.9413 C   0  0  0  0  0  0  0  0  0  0  0  0
   -1.6731    1.4085   -0.0179 N   0  0  0  0  0  0  0  0  0  0  0  0
   -3.0879    1.6806   -0.2588 C   0  0  0  0  0  0  0  0  0  0  0  0
   -3.9127    0.4421   -0.1394 C   0  0  0  0  0  0  0  0  0  0  0  0
   -3.6746   -0.6255   -0.9874 C   0  0  0  0  0  0  0  0  0  0  0  0
   -4.4161   -1.7798   -0.8873 C   0  0  0  0  0  0  0  0  0  0  0  0
   -5.4011   -1.8864    0.0691 C   0  0  0  0  0  0  0  0  0  0  0  0
   -5.6348   -0.8365    0.9296 C   0  0  0  0  0  0  0  0  0  0  0  0
   -4.8943    0.3208    0.8307 C   0  0  0  0  0  0  0  0  0  0  0  0
   -2.5160    3.5706    4.0531 H   0  0  0  0  0  0  0  0  0  0  0  0
   -4.2230    3.1513    3.7102 H   0  0  0  0  0  0  0  0  0  0  0  0
   -3.1161    1.9288    4.4087 H   0  0  0  0  0  0  0  0  0  0  0  0
    3.0958   -1.8042   -1.5235 H   0  0  0  0  0  0  0  0  0  0  0  0
    3.6566   -0.2160   -2.0555 H   0  0  0  0  0  0  0  0  0  0  0  0
    4.3490   -3.0591    0.1542 H   0  0  0  0  0  0  0  0  0  0  0  0
    6.5013   -3.4408    1.2829 H   0  0  0  0  0  0  0  0  0  0  0  0
    8.2249   -1.6897    1.2607 H   0  0  0  0  0  0  0  0  0  0  0  0
    7.7913    0.4406    0.1156 H   0  0  0  0  0  0  0  0  0  0  0  0
    5.6351    0.8125   -1.0098 H   0  0  0  0  0  0  0  0  0  0  0  0
    0.6950   -0.6878   -4.6667 H   0  0  0  0  0  0  0  0  0  0  0  0
   -0.8840   -0.0863   -4.6654 H   0  0  0  0  0  0  0  0  0  0  0  0
   -3.4208    2.4441    0.4489 H   0  0  0  0  0  0  0  0  0  0  0  0
   -3.1884    2.1055   -1.2614 H   0  0  0  0  0  0  0  0  0  0  0  0
   -2.8754   -0.5500   -1.7022 H   0  0  0  0  0  0  0  0  0  0  0  0
   -4.2176   -2.6060   -1.5532 H   0  0  0  0  0  0  0  0  0  0  0  0
   -5.9799   -2.7917    0.1508 H   0  0  0  0  0  0  0  0  0  0  0  0
   -6.3968   -0.9224    1.6894 H   0  0  0  0  0  0  0  0  0  0  0  0
   -5.0583    1.1321    1.5173 H   0  0  0  0  0  0  0  0  0  0  0  0
  1  2  1  0  0  0  0
  2  3  1  0  0  0  0
  3  4  2  0  0  0  0
  3  5  1  0  0  0  0
  5  6  2  0  0  0  0
  6  7  1  0  0  0  0
  7  8  2  0  0  0  0
  8  9  1  0  0  0  0
  9 10  1  0  0  0  0
 10 11  1  0  0  0  0
 11 12  2  0  0  0  0
 12 13  1  0  0  0  0
 13 14  2  0  0  0  0
 14 15  1  0  0  0  0
 15 16  2  0  0  0  0
  8 17  1  0  0  0  0
 17 18  2  0  0  0  0
 18 19  1  0  0  0  0
 18 20  1  0  0  0  0
 20 21  2  0  0  0  0
 21 22  1  0  0  0  0
 22 23  1  0  0  0  0
 23 24  1  0  0  0  0
 24 25  2  0  0  0  0
 25 26  1  0  0  0  0
 26 27  2  0  0  0  0
 27 28  1  0  0  0  0
 28 29  2  0  0  0  0
 22  5  1  0  0  0  0
 29 24  1  0  0  0  0
 21  7  1  0  0  0  0
 16 11  1  0  0  0  0
  1 30  1  0  0  0  0
  1 31  1  0  0  0  0
  1 32  1  0  0  0  0
 10 33  1  0  0  0  0
 10 34  1  0  0  0  0
 12 35  1  0  0  0  0
 13 36  1  0  0  0  0
 14 37  1  0  0  0  0
 15 38  1  0  0  0  0
 16 39  1  0  0  0  0
 19 40  1  0  0  0  0
 19 41  1  0  0  0  0
 23 42  1  0  0  0  0
 23 43  1  0  0  0  0
 25 44  1  0  0  0  0
 26 45  1  0  0  0  0
 27 46  1  0  0  0  0
 28 47  1  0  0  0  0
 29 48  1  0  0  0  0
M  END
