
  xtb     03012221293D
 energy: -12.926607345657 gnorm: 0.000082309623 xtb: 6.4.1 (afa7bdf)
 60 66  0     0  0            999 V2000
   -1.5345   -1.0106    3.1510 C   0  0  0  0  0  0  0  0  0  0  0  0
   -2.1833   -0.5564    1.9871 O   0  0  0  0  0  0  0  0  0  0  0  0
   -1.3405   -0.2292    0.9196 C   0  0  0  0  0  0  0  0  0  0  0  0
    0.0429   -0.3433    0.9879 C   0  0  0  0  0  0  0  0  0  0  0  0
    0.8706   -0.0169   -0.0738 C   0  0  0  0  0  0  0  0  0  0  0  0
    2.3041   -0.1668    0.0859 C   0  0  0  0  0  0  0  0  0  0  0  0
    2.8906   -0.6039    1.2006 N   0  0  0  0  0  0  0  0  0  0  0  0
    4.2168   -0.5985    0.9470 C   0  0  0  0  0  0  0  0  0  0  0  0
    5.3197   -0.9732    1.7958 C   0  0  0  0  0  0  0  0  0  0  0  0
    5.1207   -1.4245    3.0908 C   0  0  0  0  0  0  0  0  0  0  0  0
    6.2151   -1.7603    3.8323 C   0  0  0  0  0  0  0  0  0  0  0  0
    7.4685   -1.6372    3.2650 C   0  0  0  0  0  0  0  0  0  0  0  0
    7.7042   -1.2141    2.0420 N   0  0  0  0  0  0  0  0  0  0  0  0
    6.6376   -0.8788    1.2968 C   0  0  0  0  0  0  0  0  0  0  0  0
    6.8757   -0.4062   -0.0647 C   0  0  0  0  0  0  0  0  0  0  0  0
    8.1465   -0.3333   -0.4948 N   0  0  0  0  0  0  0  0  0  0  0  0
    8.3362    0.0950   -1.7238 C   0  0  0  0  0  0  0  0  0  0  0  0
    7.3322    0.4715   -2.5953 C   0  0  0  0  0  0  0  0  0  0  0  0
    6.0363    0.4043   -2.1767 C   0  0  0  0  0  0  0  0  0  0  0  0
    5.7871   -0.0419   -0.8871 C   0  0  0  0  0  0  0  0  0  0  0  0
    4.4577   -0.1461   -0.3587 C   0  0  0  0  0  0  0  0  0  0  0  0
    3.2343    0.1252   -0.8963 N   0  0  0  0  0  0  0  0  0  0  0  0
    0.3065    0.4530   -1.2845 C   0  0  0  0  0  0  0  0  0  0  0  0
    1.1588    0.7790   -2.3488 O   0  0  0  0  0  0  0  0  0  0  0  0
    0.5166    1.2405   -3.5119 C   0  0  0  0  0  0  0  0  0  0  0  0
   -1.0758    0.5668   -1.3527 C   0  0  0  0  0  0  0  0  0  0  0  0
   -1.9138    0.2402   -0.2885 C   0  0  0  0  0  0  0  0  0  0  0  0
   -3.3358    0.3942   -0.4609 C   0  0  0  0  0  0  0  0  0  0  0  0
   -4.2799    0.1258    0.4575 C   0  0  0  0  0  0  0  0  0  0  0  0
   -5.6823    0.3004    0.2252 C   0  0  0  0  0  0  0  0  0  0  0  0
   -6.6094    0.0316    1.1388 N   0  0  0  0  0  0  0  0  0  0  0  0
   -7.8040    0.3181    0.5585 C   0  0  0  0  0  0  0  0  0  0  0  0
   -9.1107    0.2212    1.0627 C   0  0  0  0  0  0  0  0  0  0  0  0
  -10.1571    0.5798    0.2560 C   0  0  0  0  0  0  0  0  0  0  0  0
   -9.9450    1.0382   -1.0547 C   0  0  0  0  0  0  0  0  0  0  0  0
   -8.6818    1.1428   -1.5728 C   0  0  0  0  0  0  0  0  0  0  0  0
   -7.5986    0.7812   -0.7643 C   0  0  0  0  0  0  0  0  0  0  0  0
   -6.2402    0.7648   -0.9638 N   0  0  0  0  0  0  0  0  0  0  0  0
   -2.2912   -1.2289    3.9044 H   0  0  0  0  0  0  0  0  0  0  0  0
   -0.8703   -0.2348    3.5319 H   0  0  0  0  0  0  0  0  0  0  0  0
   -0.9789   -1.9228    2.9336 H   0  0  0  0  0  0  0  0  0  0  0  0
    0.5074   -0.6959    1.8885 H   0  0  0  0  0  0  0  0  0  0  0  0
    4.1214   -1.5015    3.4843 H   0  0  0  0  0  0  0  0  0  0  0  0
    6.1041   -2.1155    4.8436 H   0  0  0  0  0  0  0  0  0  0  0  0
    8.3364   -1.9019    3.8488 H   0  0  0  0  0  0  0  0  0  0  0  0
    9.3624    0.1474   -2.0530 H   0  0  0  0  0  0  0  0  0  0  0  0
    7.5699    0.8125   -3.5896 H   0  0  0  0  0  0  0  0  0  0  0  0
    5.2204    0.6867   -2.8194 H   0  0  0  0  0  0  0  0  0  0  0  0
    3.0148    0.4753   -1.8333 H   0  0  0  0  0  0  0  0  0  0  0  0
   -0.1479    0.4677   -3.9004 H   0  0  0  0  0  0  0  0  0  0  0  0
   -0.0383    2.1534   -3.2921 H   0  0  0  0  0  0  0  0  0  0  0  0
    1.2764    1.4618   -4.2621 H   0  0  0  0  0  0  0  0  0  0  0  0
   -1.5300    0.9205   -2.2594 H   0  0  0  0  0  0  0  0  0  0  0  0
   -3.6629    0.7586   -1.4178 H   0  0  0  0  0  0  0  0  0  0  0  0
   -3.9918   -0.2399    1.4246 H   0  0  0  0  0  0  0  0  0  0  0  0
   -9.2644   -0.1307    2.0672 H   0  0  0  0  0  0  0  0  0  0  0  0
  -11.1642    0.5097    0.6320 H   0  0  0  0  0  0  0  0  0  0  0  0
  -10.7920    1.3118   -1.6614 H   0  0  0  0  0  0  0  0  0  0  0  0
   -8.5076    1.4925   -2.5748 H   0  0  0  0  0  0  0  0  0  0  0  0
   -5.7596    1.0415   -1.8203 H   0  0  0  0  0  0  0  0  0  0  0  0
  1  2  1  0  0  0  0
  2  3  1  0  0  0  0
  3  4  2  0  0  0  0
  4  5  1  0  0  0  0
  5  6  1  0  0  0  0
  6  7  2  0  0  0  0
  7  8  1  0  0  0  0
  8  9  2  0  0  0  0
  9 10  1  0  0  0  0
 10 11  2  0  0  0  0
 11 12  1  0  0  0  0
 12 13  2  0  0  0  0
 13 14  1  0  0  0  0
 14 15  2  0  0  0  0
 15 16  1  0  0  0  0
 16 17  2  0  0  0  0
 17 18  1  0  0  0  0
 18 19  2  0  0  0  0
 19 20  1  0  0  0  0
 20 21  2  0  0  0  0
 21 22  1  0  0  0  0
  5 23  2  0  0  0  0
 23 24  1  0  0  0  0
 24 25  1  0  0  0  0
 23 26  1  0  0  0  0
 26 27  2  0  0  0  0
 27 28  1  0  0  0  0
 28 29  2  0  0  0  0
 29 30  1  0  0  0  0
 30 31  2  0  0  0  0
 31 32  1  0  0  0  0
 32 33  2  0  0  0  0
 33 34  1  0  0  0  0
 34 35  2  0  0  0  0
 35 36  1  0  0  0  0
 36 37  2  0  0  0  0
 37 38  1  0  0  0  0
 27  3  1  0  0  0  0
 38 30  1  0  0  0  0
 22  6  1  0  0  0  0
 37 32  1  0  0  0  0
 21  8  1  0  0  0  0
 14  9  1  0  0  0  0
 20 15  1  0  0  0  0
  1 39  1  0  0  0  0
  1 40  1  0  0  0  0
  1 41  1  0  0  0  0
  4 42  1  0  0  0  0
 10 43  1  0  0  0  0
 11 44  1  0  0  0  0
 12 45  1  0  0  0  0
 17 46  1  0  0  0  0
 18 47  1  0  0  0  0
 19 48  1  0  0  0  0
 22 49  1  0  0  0  0
 25 50  1  0  0  0  0
 25 51  1  0  0  0  0
 25 52  1  0  0  0  0
 26 53  1  0  0  0  0
 28 54  1  0  0  0  0
 29 55  1  0  0  0  0
 33 56  1  0  0  0  0
 34 57  1  0  0  0  0
 35 58  1  0  0  0  0
 36 59  1  0  0  0  0
 38 60  1  0  0  0  0
M  END
