
  xtb     03012221313D
 energy: -8.344495829531 gnorm: 0.000424783786 xtb: 6.4.1 (afa7bdf)
 42 45  0     0  0            999 V2000
   -5.5694   -0.8222    0.0270 C   0  0  0  0  0  0  0  0  0  0  0  0
   -4.3698    0.0462    0.0518 C   0  0  0  0  0  0  0  0  0  0  0  0
   -4.3418    1.4279   -0.0229 C   0  0  0  0  0  0  0  0  0  0  0  0
   -2.9998    1.8626    0.0082 C   0  0  0  0  0  0  0  0  0  0  0  0
   -2.4821    3.2423   -0.0318 C   0  0  0  0  0  0  0  0  0  0  0  0
   -2.2537    0.7553    0.0860 N   0  0  0  0  0  0  0  0  0  0  0  0
   -3.0172   -0.3942    0.1189 C   0  0  0  0  0  0  0  0  0  0  0  0
   -2.4525   -1.6651    0.1797 C   0  0  0  0  0  0  0  0  0  0  0  0
   -1.0864   -1.7590    0.1734 C   0  0  0  0  0  0  0  0  0  0  0  0
   -0.2613   -2.9608    0.1423 C   0  0  0  0  0  0  0  0  0  0  0  0
   -0.6368   -4.1156    0.1876 O   0  0  0  0  0  0  0  0  0  0  0  0
    1.0663   -2.5028    0.0532 N   0  0  0  0  0  0  0  0  0  0  0  0
    2.1616   -3.4519    0.1289 C   0  0  0  0  0  0  0  0  0  0  0  0
    1.0961   -1.1219    0.0408 C   0  0  0  0  0  0  0  0  0  0  0  0
    2.2772   -0.2815   -0.0584 C   0  0  0  0  0  0  0  0  0  0  0  0
    3.4225   -0.7185   -0.7279 C   0  0  0  0  0  0  0  0  0  0  0  0
    4.5362    0.0796   -0.8118 C   0  0  0  0  0  0  0  0  0  0  0  0
    4.5408    1.3355   -0.2363 C   0  0  0  0  0  0  0  0  0  0  0  0
    5.7302    2.1786   -0.3242 N   0  0  0  0  0  4  0  0  0  0  0  0
    5.6961    3.3024    0.1966 O   0  0  0  0  0  0  0  0  0  0  0  0
    6.7251    1.7351   -0.9148 O   0  0  0  0  0  1  0  0  0  0  0  0
    3.4120    1.7917    0.4157 C   0  0  0  0  0  0  0  0  0  0  0  0
    2.2975    0.9972    0.5008 C   0  0  0  0  0  0  0  0  0  0  0  0
   -0.1994   -0.7114    0.1344 N   0  0  0  0  0  4  0  0  0  0  0  0
   -0.7272    0.7310    0.2248 B   0  0  0  0  0  4  0  0  0  0  0  0
   -0.1740    1.4948   -0.7997 F   0  0  0  0  0  0  0  0  0  0  0  0
   -0.4211    1.2562    1.4799 F   0  0  0  0  0  0  0  0  0  0  0  0
   -5.5282   -1.5630    0.8254 H   0  0  0  0  0  0  0  0  0  0  0  0
   -5.6439   -1.3513   -0.9230 H   0  0  0  0  0  0  0  0  0  0  0  0
   -6.4791   -0.2369    0.1599 H   0  0  0  0  0  0  0  0  0  0  0  0
   -5.2029    2.0693   -0.0931 H   0  0  0  0  0  0  0  0  0  0  0  0
   -2.7376    3.7268   -0.9739 H   0  0  0  0  0  0  0  0  0  0  0  0
   -2.8898    3.8359    0.7860 H   0  0  0  0  0  0  0  0  0  0  0  0
   -1.3954    3.2363    0.0616 H   0  0  0  0  0  0  0  0  0  0  0  0
   -3.0596   -2.5501    0.1903 H   0  0  0  0  0  0  0  0  0  0  0  0
    2.9792   -3.0440    0.7191 H   0  0  0  0  0  0  0  0  0  0  0  0
    2.5107   -3.7001   -0.8708 H   0  0  0  0  0  0  0  0  0  0  0  0
    1.8043   -4.3638    0.6047 H   0  0  0  0  0  0  0  0  0  0  0  0
    3.4150   -1.6769   -1.2135 H   0  0  0  0  0  0  0  0  0  0  0  0
    5.4200   -0.2527   -1.3313 H   0  0  0  0  0  0  0  0  0  0  0  0
    3.4254    2.7794    0.8466 H   0  0  0  0  0  0  0  0  0  0  0  0
    1.4126    1.3592    0.9896 H   0  0  0  0  0  0  0  0  0  0  0  0
  1  2  1  0  0  0  0
  2  3  1  0  0  0  0
  3  4  2  0  0  0  0
  4  5  1  0  0  0  0
  4  6  1  0  0  0  0
  6  7  1  0  0  0  0
  7  8  1  0  0  0  0
  8  9  2  0  0  0  0
  9 10  1  0  0  0  0
 10 11  2  0  0  0  0
 10 12  1  0  0  0  0
 12 13  1  0  0  0  0
 12 14  1  0  0  0  0
 14 15  1  0  0  0  0
 15 16  2  0  0  0  0
 16 17  1  0  0  0  0
 17 18  2  0  0  0  0
 18 19  1  0  0  0  0
 19 20  2  0  0  0  0
 19 21  1  0  0  0  0
 18 22  1  0  0  0  0
 22 23  2  0  0  0  0
 14 24  2  0  0  0  0
 24 25  1  0  0  0  0
 25 26  1  0  0  0  0
 25 27  1  0  0  0  0
  7  2  2  0  0  0  0
 24  9  1  0  0  0  0
 25  6  1  0  0  0  0
 23 15  1  0  0  0  0
  1 28  1  0  0  0  0
  1 29  1  0  0  0  0
  1 30  1  0  0  0  0
  3 31  1  0  0  0  0
  5 32  1  0  0  0  0
  5 33  1  0  0  0  0
  5 34  1  0  0  0  0
  8 35  1  0  0  0  0
 13 36  1  0  0  0  0
 13 37  1  0  0  0  0
 13 38  1  0  0  0  0
 16 39  1  0  0  0  0
 17 40  1  0  0  0  0
 22 41  1  0  0  0  0
 23 42  1  0  0  0  0
M  CHG  1  19   1
M  CHG  1  21  -1
M  CHG  1  24   1
M  CHG  1  25  -1
M  END
