
  xtb     03012221253D
 energy: -3.444095011484 gnorm: 0.000294799343 xtb: 6.4.1 (afa7bdf)
 16 17  0     0  0            999 V2000
    3.6372   -0.4345   -0.2214 O   0  0  0  0  0  0  0  0  0  0  0  0
    2.4249   -0.2892   -0.1477 C   0  0  0  0  0  0  0  0  0  0  0  0
    1.4825   -1.2973   -0.0019 N   0  0  0  0  0  0  0  0  0  0  0  0
    0.2057   -0.7305    0.0431 C   0  0  0  0  0  0  0  0  0  0  0  0
   -1.0595   -1.2865    0.1759 C   0  0  0  0  0  0  0  0  0  0  0  0
   -2.1485   -0.4425    0.1859 C   0  0  0  0  0  0  0  0  0  0  0  0
   -1.9914    0.9362    0.0662 C   0  0  0  0  0  0  0  0  0  0  0  0
   -0.7418    1.5013   -0.0662 C   0  0  0  0  0  0  0  0  0  0  0  0
    0.3644    0.6626   -0.0779 C   0  0  0  0  0  0  0  0  0  0  0  0
    1.7346    0.9138   -0.1940 N   0  0  0  0  0  0  0  0  0  0  0  0
    1.7014   -2.2879    0.0607 H   0  0  0  0  0  0  0  0  0  0  0  0
   -1.1700   -2.3521    0.2677 H   0  0  0  0  0  0  0  0  0  0  0  0
   -3.1382   -0.8560    0.2881 H   0  0  0  0  0  0  0  0  0  0  0  0
   -2.8614    1.5716    0.0772 H   0  0  0  0  0  0  0  0  0  0  0  0
   -0.6093    2.5643   -0.1594 H   0  0  0  0  0  0  0  0  0  0  0  0
    2.1696    1.8266   -0.2965 H   0  0  0  0  0  0  0  0  0  0  0  0
  1  2  2  0  0  0  0
  2  3  1  0  0  0  0
  3  4  1  0  0  0  0
  4  5  2  0  0  0  0
  5  6  1  0  0  0  0
  6  7  2  0  0  0  0
  7  8  1  0  0  0  0
  8  9  2  0  0  0  0
  9 10  1  0  0  0  0
 10  2  1  0  0  0  0
  9  4  1  0  0  0  0
  3 11  1  0  0  0  0
  5 12  1  0  0  0  0
  6 13  1  0  0  0  0
  7 14  1  0  0  0  0
  8 15  1  0  0  0  0
 10 16  1  0  0  0  0
M  END
