
  xtb     03012221323D
 energy: -8.561958879304 gnorm: 0.000444259398 xtb: 6.4.1 (afa7bdf)
 40 44  0     0  0            999 V2000
   -4.3383    2.3549   -0.0201 C   0  0  0  0  0  0  0  0  0  0  0  0
   -3.2953    1.4123    0.0242 O   0  0  0  0  0  0  0  0  0  0  0  0
   -3.6949    0.0773    0.0463 C   0  0  0  0  0  0  0  0  0  0  0  0
   -5.0348   -0.3209    0.0500 C   0  0  0  0  0  0  0  0  0  0  0  0
   -5.3855   -1.6500    0.0714 C   0  0  0  0  0  0  0  0  0  0  0  0
   -4.4107   -2.6274    0.0893 C   0  0  0  0  0  0  0  0  0  0  0  0
   -3.0838   -2.2661    0.0862 C   0  0  0  0  0  0  0  0  0  0  0  0
   -2.7021   -0.9325    0.0656 C   0  0  0  0  0  0  0  0  0  0  0  0
   -1.2764   -0.6231    0.0652 C   0  0  0  0  0  0  0  0  0  0  0  0
   -0.7612    0.6002    0.0507 N   0  0  0  0  0  0  0  0  0  0  0  0
    0.5712    0.4348    0.0573 C   0  0  0  0  0  0  0  0  0  0  0  0
    1.6155    1.4261    0.0485 C   0  0  0  0  0  0  0  0  0  0  0  0
    1.3046    2.7853    0.0300 C   0  0  0  0  0  0  0  0  0  0  0  0
    2.3004    3.7247    0.0225 C   0  0  0  0  0  0  0  0  0  0  0  0
    3.6280    3.3247    0.0333 C   0  0  0  0  0  0  0  0  0  0  0  0
    3.9526    1.9916    0.0515 C   0  0  0  0  0  0  0  0  0  0  0  0
    2.9625    1.0007    0.0596 C   0  0  0  0  0  0  0  0  0  0  0  0
    3.2784   -0.4321    0.0793 C   0  0  0  0  0  0  0  0  0  0  0  0
    4.5944   -0.9117    0.0911 C   0  0  0  0  0  0  0  0  0  0  0  0
    4.8637   -2.2568    0.1095 C   0  0  0  0  0  0  0  0  0  0  0  0
    3.8294   -3.1804    0.1169 C   0  0  0  0  0  0  0  0  0  0  0  0
    2.5298   -2.7507    0.1059 C   0  0  0  0  0  0  0  0  0  0  0  0
    2.2369   -1.3877    0.0873 C   0  0  0  0  0  0  0  0  0  0  0  0
    0.8719   -0.9365    0.0762 C   0  0  0  0  0  0  0  0  0  0  0  0
   -0.3127   -1.6079    0.0811 O   0  0  0  0  0  0  0  0  0  0  0  0
   -4.9589    2.2648    0.8722 H   0  0  0  0  0  0  0  0  0  0  0  0
   -4.9332    2.2089   -0.9224 H   0  0  0  0  0  0  0  0  0  0  0  0
   -3.8984    3.3524   -0.0449 H   0  0  0  0  0  0  0  0  0  0  0  0
   -5.8098    0.4230    0.0365 H   0  0  0  0  0  0  0  0  0  0  0  0
   -6.4261   -1.9313    0.0744 H   0  0  0  0  0  0  0  0  0  0  0  0
   -4.6881   -3.6683    0.1057 H   0  0  0  0  0  0  0  0  0  0  0  0
   -2.3133   -3.0179    0.1002 H   0  0  0  0  0  0  0  0  0  0  0  0
    0.2687    3.0768    0.0220 H   0  0  0  0  0  0  0  0  0  0  0  0
    2.0530    4.7741    0.0084 H   0  0  0  0  0  0  0  0  0  0  0  0
    4.4084    4.0673    0.0275 H   0  0  0  0  0  0  0  0  0  0  0  0
    4.9900    1.7088    0.0596 H   0  0  0  0  0  0  0  0  0  0  0  0
    5.4150   -0.2169    0.0857 H   0  0  0  0  0  0  0  0  0  0  0  0
    5.8848   -2.6000    0.1183 H   0  0  0  0  0  0  0  0  0  0  0  0
    4.0491   -4.2360    0.1314 H   0  0  0  0  0  0  0  0  0  0  0  0
    1.7154   -3.4542    0.1116 H   0  0  0  0  0  0  0  0  0  0  0  0
  1  2  1  0  0  0  0
  2  3  1  0  0  0  0
  3  4  2  0  0  0  0
  4  5  1  0  0  0  0
  5  6  2  0  0  0  0
  6  7  1  0  0  0  0
  7  8  2  0  0  0  0
  8  9  1  0  0  0  0
  9 10  2  0  0  0  0
 10 11  1  0  0  0  0
 11 12  2  0  0  0  0
 12 13  1  0  0  0  0
 13 14  2  0  0  0  0
 14 15  1  0  0  0  0
 15 16  2  0  0  0  0
 16 17  1  0  0  0  0
 17 18  2  0  0  0  0
 18 19  1  0  0  0  0
 19 20  2  0  0  0  0
 20 21  1  0  0  0  0
 21 22  2  0  0  0  0
 22 23  1  0  0  0  0
 23 24  2  0  0  0  0
 24 25  1  0  0  0  0
  8  3  1  0  0  0  0
 25  9  1  0  0  0  0
 24 11  1  0  0  0  0
 17 12  1  0  0  0  0
 23 18  1  0  0  0  0
  1 26  1  0  0  0  0
  1 27  1  0  0  0  0
  1 28  1  0  0  0  0
  4 29  1  0  0  0  0
  5 30  1  0  0  0  0
  6 31  1  0  0  0  0
  7 32  1  0  0  0  0
 13 33  1  0  0  0  0
 14 34  1  0  0  0  0
 15 35  1  0  0  0  0
 16 36  1  0  0  0  0
 19 37  1  0  0  0  0
 20 38  1  0  0  0  0
 21 39  1  0  0  0  0
 22 40  1  0  0  0  0
M  END
