
  xtb     03012221303D
 energy: -14.017440681337 gnorm: 0.000225585094 xtb: 6.4.1 (afa7bdf)
 68 72  0     0  0            999 V2000
    1.0183    0.6027   -2.9294 N   0  0  0  0  0  0  0  0  0  0  0  0
    0.5932    0.8113   -1.8671 C   0  0  0  0  0  0  0  0  0  0  0  0
    0.1275    1.0382   -0.5669 C   0  0  0  0  0  0  0  0  0  0  0  0
   -1.1389    1.3991   -0.4151 N   0  0  0  0  0  0  0  0  0  0  0  0
   -1.5593    1.5075    0.8406 C   0  0  0  0  0  0  0  0  0  0  0  0
   -2.9302    1.8457    1.0429 N   0  0  0  0  0  0  0  0  0  0  0  0
   -3.8021    1.0757    1.9563 C   0  0  0  0  0  0  0  0  0  0  0  0
   -4.3424   -0.1651    1.3306 C   0  0  0  0  0  0  0  0  0  0  0  0
   -5.7048   -0.4328    1.3325 C   0  0  0  0  0  0  0  0  0  0  0  0
   -6.1994   -1.5548    0.7065 C   0  0  0  0  0  0  0  0  0  0  0  0
   -5.3350   -2.4304    0.0737 C   0  0  0  0  0  0  0  0  0  0  0  0
   -5.9574   -3.8165   -0.7475 Cl  0  0  0  0  0  0  0  0  0  0  0  0
   -3.9736   -2.1847    0.0828 C   0  0  0  0  0  0  0  0  0  0  0  0
   -3.4850   -1.0605    0.7081 C   0  0  0  0  0  0  0  0  0  0  0  0
   -3.6121    2.6396    0.0092 C   0  0  0  0  0  0  0  0  0  0  0  0
   -4.3812    1.8127   -0.9695 C   0  0  0  0  0  0  0  0  0  0  0  0
   -5.7674    1.8711   -1.0244 C   0  0  0  0  0  0  0  0  0  0  0  0
   -6.4691    1.0614   -1.8893 C   0  0  0  0  0  0  0  0  0  0  0  0
   -5.7930    0.1793   -2.7140 C   0  0  0  0  0  0  0  0  0  0  0  0
   -6.6752   -0.8692   -3.7651 Cl  0  0  0  0  0  0  0  0  0  0  0  0
   -4.4114    0.1211   -2.6780 C   0  0  0  0  0  0  0  0  0  0  0  0
   -3.7179    0.9318   -1.8105 C   0  0  0  0  0  0  0  0  0  0  0  0
   -0.7038    1.2701    1.9328 C   0  0  0  0  0  0  0  0  0  0  0  0
   -1.1977    1.4391    3.2319 C   0  0  0  0  0  0  0  0  0  0  0  0
   -1.6646    1.5636    4.2900 N   0  0  0  0  0  0  0  0  0  0  0  0
    0.5652    0.9153    1.7823 N   0  0  0  0  0  0  0  0  0  0  0  0
    0.9878    0.8170    0.5250 C   0  0  0  0  0  0  0  0  0  0  0  0
    2.3526    0.4664    0.3264 N   0  0  0  0  0  0  0  0  0  0  0  0
    3.0397   -0.1916    1.4460 C   0  0  0  0  0  0  0  0  0  0  0  0
    3.7834   -1.4200    1.0409 C   0  0  0  0  0  0  0  0  0  0  0  0
    5.0156   -1.7252    1.6031 C   0  0  0  0  0  0  0  0  0  0  0  0
    5.7158   -2.8368    1.1921 C   0  0  0  0  0  0  0  0  0  0  0  0
    5.1873   -3.6638    0.2164 C   0  0  0  0  0  0  0  0  0  0  0  0
    6.0803   -5.0394   -0.3252 Cl  0  0  0  0  0  0  0  0  0  0  0  0
    3.9508   -3.3795   -0.3365 C   0  0  0  0  0  0  0  0  0  0  0  0
    3.2555   -2.2658    0.0770 C   0  0  0  0  0  0  0  0  0  0  0  0
    3.1519    1.0715   -0.7667 C   0  0  0  0  0  0  0  0  0  0  0  0
    4.6297    0.9467   -0.6182 C   0  0  0  0  0  0  0  0  0  0  0  0
    5.3271   -0.0249   -1.3234 C   0  0  0  0  0  0  0  0  0  0  0  0
    6.6797   -0.1946   -1.1341 C   0  0  0  0  0  0  0  0  0  0  0  0
    7.3557    0.6106   -0.2347 C   0  0  0  0  0  0  0  0  0  0  0  0
    9.0440    0.3701    0.0394 Cl  0  0  0  0  0  0  0  0  0  0  0  0
    6.6743    1.5940    0.4610 C   0  0  0  0  0  0  0  0  0  0  0  0
    5.3210    1.7590    0.2687 C   0  0  0  0  0  0  0  0  0  0  0  0
   -3.2422    0.8025    2.8500 H   0  0  0  0  0  0  0  0  0  0  0  0
   -4.6137    1.7265    2.2865 H   0  0  0  0  0  0  0  0  0  0  0  0
   -6.3766    0.2551    1.8166 H   0  0  0  0  0  0  0  0  0  0  0  0
   -7.2559   -1.7609    0.6923 H   0  0  0  0  0  0  0  0  0  0  0  0
   -3.3129   -2.8737   -0.4148 H   0  0  0  0  0  0  0  0  0  0  0  0
   -2.4296   -0.8502    0.6930 H   0  0  0  0  0  0  0  0  0  0  0  0
   -2.8543    3.2230   -0.5189 H   0  0  0  0  0  0  0  0  0  0  0  0
   -4.2680    3.3584    0.5041 H   0  0  0  0  0  0  0  0  0  0  0  0
   -6.2930    2.5477   -0.3725 H   0  0  0  0  0  0  0  0  0  0  0  0
   -7.5443    1.0955   -1.9305 H   0  0  0  0  0  0  0  0  0  0  0  0
   -3.8971   -0.5718   -3.3218 H   0  0  0  0  0  0  0  0  0  0  0  0
   -2.6469    0.8675   -1.7489 H   0  0  0  0  0  0  0  0  0  0  0  0
    3.7061    0.5308    1.9198 H   0  0  0  0  0  0  0  0  0  0  0  0
    2.2858   -0.4562    2.1895 H   0  0  0  0  0  0  0  0  0  0  0  0
    5.4293   -1.0727    2.3529 H   0  0  0  0  0  0  0  0  0  0  0  0
    6.6788   -3.0713    1.6123 H   0  0  0  0  0  0  0  0  0  0  0  0
    3.5517   -4.0331   -1.0930 H   0  0  0  0  0  0  0  0  0  0  0  0
    2.3019   -2.0246   -0.3607 H   0  0  0  0  0  0  0  0  0  0  0  0
    2.8543    0.6055   -1.7071 H   0  0  0  0  0  0  0  0  0  0  0  0
    2.8761    2.1253   -0.8411 H   0  0  0  0  0  0  0  0  0  0  0  0
    4.7944   -0.6624   -2.0085 H   0  0  0  0  0  0  0  0  0  0  0  0
    7.2223   -0.9568   -1.6667 H   0  0  0  0  0  0  0  0  0  0  0  0
    7.2153    2.2159    1.1534 H   0  0  0  0  0  0  0  0  0  0  0  0
    4.7837    2.5151    0.8156 H   0  0  0  0  0  0  0  0  0  0  0  0
  1  2  3  0  0  0  0
  2  3  1  0  0  0  0
  3  4  2  0  0  0  0
  4  5  1  0  0  0  0
  5  6  1  0  0  0  0
  6  7  1  0  0  0  0
  7  8  1  0  0  0  0
  8  9  2  0  0  0  0
  9 10  1  0  0  0  0
 10 11  2  0  0  0  0
 11 12  1  0  0  0  0
 11 13  1  0  0  0  0
 13 14  2  0  0  0  0
  6 15  1  0  0  0  0
 15 16  1  0  0  0  0
 16 17  2  0  0  0  0
 17 18  1  0  0  0  0
 18 19  2  0  0  0  0
 19 20  1  0  0  0  0
 19 21  1  0  0  0  0
 21 22  2  0  0  0  0
  5 23  2  0  0  0  0
 23 24  1  0  0  0  0
 24 25  3  0  0  0  0
 23 26  1  0  0  0  0
 26 27  2  0  0  0  0
 27 28  1  0  0  0  0
 28 29  1  0  0  0  0
 29 30  1  0  0  0  0
 30 31  2  0  0  0  0
 31 32  1  0  0  0  0
 32 33  2  0  0  0  0
 33 34  1  0  0  0  0
 33 35  1  0  0  0  0
 35 36  2  0  0  0  0
 28 37  1  0  0  0  0
 37 38  1  0  0  0  0
 38 39  2  0  0  0  0
 39 40  1  0  0  0  0
 40 41  2  0  0  0  0
 41 42  1  0  0  0  0
 41 43  1  0  0  0  0
 43 44  2  0  0  0  0
 27  3  1  0  0  0  0
 36 30  1  0  0  0  0
 44 38  1  0  0  0  0
 14  8  1  0  0  0  0
 22 16  1  0  0  0  0
  7 45  1  0  0  0  0
  7 46  1  0  0  0  0
  9 47  1  0  0  0  0
 10 48  1  0  0  0  0
 13 49  1  0  0  0  0
 14 50  1  0  0  0  0
 15 51  1  0  0  0  0
 15 52  1  0  0  0  0
 17 53  1  0  0  0  0
 18 54  1  0  0  0  0
 21 55  1  0  0  0  0
 22 56  1  0  0  0  0
 29 57  1  0  0  0  0
 29 58  1  0  0  0  0
 31 59  1  0  0  0  0
 32 60  1  0  0  0  0
 35 61  1  0  0  0  0
 36 62  1  0  0  0  0
 37 63  1  0  0  0  0
 37 64  1  0  0  0  0
 39 65  1  0  0  0  0
 40 66  1  0  0  0  0
 43 67  1  0  0  0  0
 44 68  1  0  0  0  0
M  END
