
  xtb     03012221263D
 energy: -8.488300392321 gnorm: 0.000376772455 xtb: 6.4.1 (afa7bdf)
 41 45  0     0  0            999 V2000
   -1.8510    3.1369   -0.7364 C   0  0  0  0  0  0  0  0  0  0  0  0
   -0.9243    1.9948   -0.5197 C   0  0  0  0  0  0  0  0  0  0  0  0
    0.4087    2.1168   -0.8165 C   0  0  0  0  0  0  0  0  0  0  0  0
    1.2917    1.0297   -0.6254 C   0  0  0  0  0  0  0  0  0  0  0  0
    2.6885    0.8994   -0.9334 C   0  0  0  0  0  0  0  0  0  0  0  0
    3.6299    1.7991   -1.4464 C   0  0  0  0  0  0  0  0  0  0  0  0
    4.9088    1.3563   -1.6710 C   0  0  0  0  0  0  0  0  0  0  0  0
    5.2711    0.0308   -1.3999 C   0  0  0  0  0  0  0  0  0  0  0  0
    4.3599   -0.8652   -0.9011 C   0  0  0  0  0  0  0  0  0  0  0  0
    3.0524   -0.4311   -0.6590 C   0  0  0  0  0  0  0  0  0  0  0  0
    1.9223   -1.1147   -0.1879 N   0  0  0  0  0  0  0  0  0  0  0  0
    1.8244   -2.5711   -0.1797 C   0  0  0  0  0  0  0  0  0  0  0  0
    0.8506   -0.2071   -0.1291 C   0  0  0  0  0  0  0  0  0  0  0  0
   -0.5163   -0.3291    0.2481 C   0  0  0  0  0  0  0  0  0  0  0  0
   -1.3869    0.7548    0.0207 C   0  0  0  0  0  0  0  0  0  0  0  0
   -2.6884    0.3575    0.4965 C   0  0  0  0  0  0  0  0  0  0  0  0
   -3.9347    0.9980    0.5291 C   0  0  0  0  0  0  0  0  0  0  0  0
   -5.0028    0.3496    1.0955 C   0  0  0  0  0  0  0  0  0  0  0  0
   -4.8635   -0.9317    1.6405 C   0  0  0  0  0  0  0  0  0  0  0  0
   -3.6542   -1.5767    1.6222 C   0  0  0  0  0  0  0  0  0  0  0  0
   -2.5558   -0.9328    1.0431 C   0  0  0  0  0  0  0  0  0  0  0  0
   -1.2242   -1.3423    0.9118 N   0  0  0  0  0  0  0  0  0  0  0  0
   -0.6474   -2.4314    1.6944 C   0  0  0  0  0  0  0  0  0  0  0  0
   -1.3301    3.9946   -1.1643 H   0  0  0  0  0  0  0  0  0  0  0  0
   -2.6512    2.8633   -1.4251 H   0  0  0  0  0  0  0  0  0  0  0  0
   -2.2973    3.4600    0.2048 H   0  0  0  0  0  0  0  0  0  0  0  0
    0.7909    3.0373   -1.2181 H   0  0  0  0  0  0  0  0  0  0  0  0
    3.3419    2.8138   -1.6580 H   0  0  0  0  0  0  0  0  0  0  0  0
    5.6462    2.0366   -2.0645 H   0  0  0  0  0  0  0  0  0  0  0  0
    6.2828   -0.2892   -1.5875 H   0  0  0  0  0  0  0  0  0  0  0  0
    4.6348   -1.8827   -0.6877 H   0  0  0  0  0  0  0  0  0  0  0  0
    2.5056   -2.9950   -0.9149 H   0  0  0  0  0  0  0  0  0  0  0  0
    0.8152   -2.8781   -0.4441 H   0  0  0  0  0  0  0  0  0  0  0  0
    2.0858   -2.9640    0.8005 H   0  0  0  0  0  0  0  0  0  0  0  0
   -4.0502    1.9829    0.1155 H   0  0  0  0  0  0  0  0  0  0  0  0
   -5.9651    0.8339    1.1242 H   0  0  0  0  0  0  0  0  0  0  0  0
   -5.7196   -1.4169    2.0798 H   0  0  0  0  0  0  0  0  0  0  0  0
   -3.5408   -2.5639    2.0336 H   0  0  0  0  0  0  0  0  0  0  0  0
   -0.6685   -3.3595    1.1272 H   0  0  0  0  0  0  0  0  0  0  0  0
   -1.2156   -2.5739    2.6115 H   0  0  0  0  0  0  0  0  0  0  0  0
    0.3764   -2.1898    1.9706 H   0  0  0  0  0  0  0  0  0  0  0  0
  1  2  1  0  0  0  0
  2  3  2  0  0  0  0
  3  4  1  0  0  0  0
  4  5  1  0  0  0  0
  5  6  2  0  0  0  0
  6  7  1  0  0  0  0
  7  8  2  0  0  0  0
  8  9  1  0  0  0  0
  9 10  2  0  0  0  0
 10 11  1  0  0  0  0
 11 12  1  0  0  0  0
 11 13  1  0  0  0  0
 13 14  1  0  0  0  0
 14 15  2  0  0  0  0
 15 16  1  0  0  0  0
 16 17  2  0  0  0  0
 17 18  1  0  0  0  0
 18 19  2  0  0  0  0
 19 20  1  0  0  0  0
 20 21  2  0  0  0  0
 21 22  1  0  0  0  0
 22 23  1  0  0  0  0
 15  2  1  0  0  0  0
 21 16  1  0  0  0  0
 13  4  2  0  0  0  0
 22 14  1  0  0  0  0
 10  5  1  0  0  0  0
  1 24  1  0  0  0  0
  1 25  1  0  0  0  0
  1 26  1  0  0  0  0
  3 27  1  0  0  0  0
  6 28  1  0  0  0  0
  7 29  1  0  0  0  0
  8 30  1  0  0  0  0
  9 31  1  0  0  0  0
 12 32  1  0  0  0  0
 12 33  1  0  0  0  0
 12 34  1  0  0  0  0
 17 35  1  0  0  0  0
 18 36  1  0  0  0  0
 19 37  1  0  0  0  0
 20 38  1  0  0  0  0
 23 39  1  0  0  0  0
 23 40  1  0  0  0  0
 23 41  1  0  0  0  0
M  END
