
  xtb     03012221243D
 energy: -4.182723364892 gnorm: 0.000237218611 xtb: 6.4.1 (afa7bdf)
 23 23  0     0  0            999 V2000
    4.2316    0.3697    0.2342 C   0  0  0  0  0  0  0  0  0  0  0  0
    2.7526    0.3656    0.2599 C   0  0  0  0  0  0  0  0  0  0  0  0
    2.0283   -0.5347   -0.3998 C   0  0  0  0  0  0  0  0  0  0  0  0
    0.5646   -0.5937   -0.4056 C   0  0  0  0  0  0  0  0  0  0  0  0
   -0.0827   -1.7824   -0.7393 C   0  0  0  0  0  0  0  0  0  0  0  0
   -1.4597   -1.8536   -0.7529 C   0  0  0  0  0  0  0  0  0  0  0  0
   -2.2189   -0.7492   -0.4398 C   0  0  0  0  0  0  0  0  0  0  0  0
   -1.6090    0.4623   -0.1056 C   0  0  0  0  0  0  0  0  0  0  0  0
   -2.2977    1.6373    0.2228 O   0  0  0  0  0  0  0  0  0  0  0  0
   -3.7002    1.5250    0.1993 C   0  0  0  0  0  0  0  0  0  0  0  0
   -0.2150    0.5137   -0.0976 C   0  0  0  0  0  0  0  0  0  0  0  0
    4.6311   -0.5387    0.6884 H   0  0  0  0  0  0  0  0  0  0  0  0
    4.6024    0.4178   -0.7910 H   0  0  0  0  0  0  0  0  0  0  0  0
    4.6487    1.2214    0.7755 H   0  0  0  0  0  0  0  0  0  0  0  0
    2.2475    1.1039    0.8597 H   0  0  0  0  0  0  0  0  0  0  0  0
    2.5463   -1.2884   -0.9671 H   0  0  0  0  0  0  0  0  0  0  0  0
    0.5066   -2.6496   -0.9834 H   0  0  0  0  0  0  0  0  0  0  0  0
   -1.9444   -2.7812   -1.0109 H   0  0  0  0  0  0  0  0  0  0  0  0
   -3.2911   -0.8218   -0.4555 H   0  0  0  0  0  0  0  0  0  0  0  0
   -4.0352    1.2621   -0.8046 H   0  0  0  0  0  0  0  0  0  0  0  0
   -4.0255    0.7748    0.9207 H   0  0  0  0  0  0  0  0  0  0  0  0
   -4.1299    2.4887    0.4742 H   0  0  0  0  0  0  0  0  0  0  0  0
    0.2495    1.4512    0.1420 H   0  0  0  0  0  0  0  0  0  0  0  0
  1  2  1  0  0  0  0
  2  3  2  0  0  0  0
  3  4  1  0  0  0  0
  4  5  2  0  0  0  0
  5  6  1  0  0  0  0
  6  7  2  0  0  0  0
  7  8  1  0  0  0  0
  8  9  1  0  0  0  0
  9 10  1  0  0  0  0
  8 11  2  0  0  0  0
 11  4  1  0  0  0  0
  1 12  1  0  0  0  0
  1 13  1  0  0  0  0
  1 14  1  0  0  0  0
  2 15  1  0  0  0  0
  3 16  1  0  0  0  0
  5 17  1  0  0  0  0
  6 18  1  0  0  0  0
  7 19  1  0  0  0  0
 10 20  1  0  0  0  0
 10 21  1  0  0  0  0
 10 22  1  0  0  0  0
 11 23  1  0  0  0  0
M  END
