
  xtb     03012221283D
 energy: -9.614889288320 gnorm: 0.000088904614 xtb: 6.4.1 (afa7bdf)
 56 58  0     0  0            999 V2000
   -5.6005   -1.2712    0.8709 C   0  0  0  0  0  0  0  0  0  0  0  0
   -4.3544   -2.4995    0.6381 S   0  0  0  0  0  0  0  0  0  0  0  0
   -2.9557   -1.4675    0.8372 C   0  0  0  0  0  0  0  0  0  0  0  0
   -1.7100   -1.9387    0.7611 C   0  0  0  0  0  0  0  0  0  0  0  0
   -0.4979   -1.1448    0.9149 C   0  0  0  0  0  0  0  0  0  0  0  0
   -0.5197    0.2506    0.9577 C   0  0  0  0  0  0  0  0  0  0  0  0
    0.6405    0.9728    1.1077 C   0  0  0  0  0  0  0  0  0  0  0  0
    1.8754    0.3326    1.2233 C   0  0  0  0  0  0  0  0  0  0  0  0
    3.1240    1.0644    1.3833 C   0  0  0  0  0  0  0  0  0  0  0  0
    3.2827    2.3800    1.2242 C   0  0  0  0  0  0  0  0  0  0  0  0
    4.8154    3.2217    1.3901 S   0  0  0  0  0  0  0  0  0  0  0  0
    5.9369    1.8599    1.3578 C   0  0  0  0  0  0  0  0  0  0  0  0
    6.2024    1.1241    0.2801 C   0  0  0  0  0  0  0  0  0  0  0  0
    7.1121   -0.0721    0.3561 C   0  0  0  0  0  0  0  0  0  0  0  0
    6.4008   -1.3351   -0.1724 C   0  0  0  0  0  0  0  0  0  0  0  0
    5.8064   -1.0965   -1.5752 C   0  0  0  0  0  0  0  0  0  0  0  0
    4.8666    0.1259   -1.6000 C   0  0  0  0  0  0  0  0  0  0  0  0
    5.5732    1.3872   -1.0604 C   0  0  0  0  0  0  0  0  0  0  0  0
    1.8972   -1.0622    1.1792 C   0  0  0  0  0  0  0  0  0  0  0  0
    0.7382   -1.7838    1.0244 C   0  0  0  0  0  0  0  0  0  0  0  0
   -5.8584   -0.2871    0.0119 C   0  0  0  0  0  0  0  0  0  0  0  0
   -6.9450    0.7183    0.2830 C   0  0  0  0  0  0  0  0  0  0  0  0
   -7.9685    0.7871   -0.8782 C   0  0  0  0  0  0  0  0  0  0  0  0
   -7.5479   -0.0894   -2.0777 C   0  0  0  0  0  0  0  0  0  0  0  0
   -6.0783    0.1547   -2.4699 C   0  0  0  0  0  0  0  0  0  0  0  0
   -5.1183   -0.1379   -1.2918 C   0  0  0  0  0  0  0  0  0  0  0  0
   -6.1709   -1.3529    1.7766 H   0  0  0  0  0  0  0  0  0  0  0  0
   -3.1444   -0.4314    1.0349 H   0  0  0  0  0  0  0  0  0  0  0  0
   -1.5841   -2.9934    0.5838 H   0  0  0  0  0  0  0  0  0  0  0  0
   -1.4572    0.7694    0.8631 H   0  0  0  0  0  0  0  0  0  0  0  0
    0.5944    2.0467    1.1478 H   0  0  0  0  0  0  0  0  0  0  0  0
    3.9901    0.4767    1.6308 H   0  0  0  0  0  0  0  0  0  0  0  0
    2.4469    3.0009    0.9689 H   0  0  0  0  0  0  0  0  0  0  0  0
    6.4112    1.6272    2.2923 H   0  0  0  0  0  0  0  0  0  0  0  0
    8.0154    0.1260   -0.2329 H   0  0  0  0  0  0  0  0  0  0  0  0
    7.4543   -0.2188    1.3883 H   0  0  0  0  0  0  0  0  0  0  0  0
    7.0886   -2.1922   -0.1823 H   0  0  0  0  0  0  0  0  0  0  0  0
    5.5961   -1.6129    0.5196 H   0  0  0  0  0  0  0  0  0  0  0  0
    6.6235   -0.9371   -2.2899 H   0  0  0  0  0  0  0  0  0  0  0  0
    5.2811   -1.9947   -1.9297 H   0  0  0  0  0  0  0  0  0  0  0  0
    4.4852    0.3011   -2.6157 H   0  0  0  0  0  0  0  0  0  0  0  0
    3.9806   -0.0847   -0.9890 H   0  0  0  0  0  0  0  0  0  0  0  0
    6.3509    1.7111   -1.7621 H   0  0  0  0  0  0  0  0  0  0  0  0
    4.8719    2.2271   -0.9873 H   0  0  0  0  0  0  0  0  0  0  0  0
    2.8416   -1.5726    1.2637 H   0  0  0  0  0  0  0  0  0  0  0  0
    0.7744   -2.8595    0.9920 H   0  0  0  0  0  0  0  0  0  0  0  0
   -7.4454    0.4779    1.2290 H   0  0  0  0  0  0  0  0  0  0  0  0
   -6.4784    1.6983    0.4432 H   0  0  0  0  0  0  0  0  0  0  0  0
   -8.9610    0.4783   -0.5225 H   0  0  0  0  0  0  0  0  0  0  0  0
   -8.0965    1.8251   -1.2110 H   0  0  0  0  0  0  0  0  0  0  0  0
   -7.6787   -1.1471   -1.8165 H   0  0  0  0  0  0  0  0  0  0  0  0
   -8.2115    0.0828   -2.9369 H   0  0  0  0  0  0  0  0  0  0  0  0
   -5.9697    1.2016   -2.7814 H   0  0  0  0  0  0  0  0  0  0  0  0
   -5.8060   -0.4384   -3.3536 H   0  0  0  0  0  0  0  0  0  0  0  0
   -4.3625    0.6507   -1.1917 H   0  0  0  0  0  0  0  0  0  0  0  0
   -4.5570   -1.0590   -1.4878 H   0  0  0  0  0  0  0  0  0  0  0  0
  1  2  1  0  0  0  0
  2  3  1  0  0  0  0
  3  4  2  0  0  0  0
  4  5  1  0  0  0  0
  5  6  2  0  0  0  0
  6  7  1  0  0  0  0
  7  8  2  0  0  0  0
  8  9  1  0  0  0  0
  9 10  2  0  0  0  0
 10 11  1  0  0  0  0
 11 12  1  0  0  0  0
 12 13  2  0  0  0  0
 13 14  1  0  0  0  0
 14 15  1  0  0  0  0
 15 16  1  0  0  0  0
 16 17  1  0  0  0  0
 17 18  1  0  0  0  0
  8 19  1  0  0  0  0
 19 20  2  0  0  0  0
  1 21  2  0  0  0  0
 21 22  1  0  0  0  0
 22 23  1  0  0  0  0
 23 24  1  0  0  0  0
 24 25  1  0  0  0  0
 25 26  1  0  0  0  0
 20  5  1  0  0  0  0
 26 21  1  0  0  0  0
 18 13  1  0  0  0  0
  1 27  1  0  0  0  0
  3 28  1  0  0  0  0
  4 29  1  0  0  0  0
  6 30  1  0  0  0  0
  7 31  1  0  0  0  0
  9 32  1  0  0  0  0
 10 33  1  0  0  0  0
 12 34  1  0  0  0  0
 14 35  1  0  0  0  0
 14 36  1  0  0  0  0
 15 37  1  0  0  0  0
 15 38  1  0  0  0  0
 16 39  1  0  0  0  0
 16 40  1  0  0  0  0
 17 41  1  0  0  0  0
 17 42  1  0  0  0  0
 18 43  1  0  0  0  0
 18 44  1  0  0  0  0
 19 45  1  0  0  0  0
 20 46  1  0  0  0  0
 22 47  1  0  0  0  0
 22 48  1  0  0  0  0
 23 49  1  0  0  0  0
 23 50  1  0  0  0  0
 24 51  1  0  0  0  0
 24 52  1  0  0  0  0
 25 53  1  0  0  0  0
 25 54  1  0  0  0  0
 26 55  1  0  0  0  0
 26 56  1  0  0  0  0
M  END
