
  xtb     03012221263D
 energy: -4.679531009441 gnorm: 0.000561529037 xtb: 6.4.1 (afa7bdf)
 24 25  0     0  0            999 V2000
   -1.6299   -3.5629    1.0085 N   0  0  0  0  0  0  0  0  0  0  0  0
   -1.2441   -2.6696    0.3829 C   0  0  0  0  0  0  0  0  0  0  0  0
   -0.7715   -1.5622   -0.3668 C   0  0  0  0  0  0  0  0  0  0  0  0
    0.7371   -1.6382   -0.7243 C   0  0  0  0  0  0  0  0  0  0  0  0
    1.2966   -0.2046   -0.6195 C   0  0  0  0  0  0  0  0  0  0  0  0
    2.4690   -0.1125    0.3220 C   0  0  0  0  0  0  0  0  0  0  0  0
    2.5890    1.0326    1.0459 N   0  0  0  0  0  0  0  0  0  0  0  0
    3.2516   -1.0379    0.3944 O   0  0  0  0  0  0  0  0  0  0  0  0
    0.1770    0.6435   -0.1355 N   0  0  0  0  0  0  0  0  0  0  0  0
    0.1299    1.9545   -0.3972 N   0  0  0  0  0  0  0  0  0  0  0  0
   -1.0506    2.4796   -0.3759 C   0  0  0  0  0  0  0  0  0  0  0  0
   -2.2571    1.7619   -0.1622 C   0  0  0  0  0  0  0  0  0  0  0  0
   -2.2339    0.4735    0.1735 C   0  0  0  0  0  0  0  0  0  0  0  0
   -0.9309   -0.2026    0.3743 C   0  0  0  0  0  0  0  0  0  0  0  0
   -1.3606   -1.5039   -1.2948 H   0  0  0  0  0  0  0  0  0  0  0  0
    1.2541   -2.2765    0.0000 H   0  0  0  0  0  0  0  0  0  0  0  0
    0.9084   -2.0805   -1.7119 H   0  0  0  0  0  0  0  0  0  0  0  0
    1.5960    0.1781   -1.6036 H   0  0  0  0  0  0  0  0  0  0  0  0
    3.3540    1.1634    1.6878 H   0  0  0  0  0  0  0  0  0  0  0  0
    1.9194    1.7975    0.9599 H   0  0  0  0  0  0  0  0  0  0  0  0
   -1.1067    3.5344   -0.5944 H   0  0  0  0  0  0  0  0  0  0  0  0
   -3.1991    2.2710   -0.2831 H   0  0  0  0  0  0  0  0  0  0  0  0
   -3.1442   -0.0855    0.3088 H   0  0  0  0  0  0  0  0  0  0  0  0
   -0.7531   -0.3531    1.4483 H   0  0  0  0  0  0  0  0  0  0  0  0
  1  2  3  0  0  0  0
  2  3  1  0  0  0  0
  3  4  1  0  0  0  0
  4  5  1  0  0  0  0
  5  6  1  0  0  0  0
  6  7  1  0  0  0  0
  6  8  2  0  0  0  0
  5  9  1  0  0  0  0
  9 10  1  0  0  0  0
 10 11  2  0  0  0  0
 11 12  1  0  0  0  0
 12 13  2  0  0  0  0
 13 14  1  0  0  0  0
 14  3  1  0  0  0  0
 14  9  1  0  0  0  0
  3 15  1  0  0  0  0
  4 16  1  0  0  0  0
  4 17  1  0  0  0  0
  5 18  1  0  0  0  0
  7 19  1  0  0  0  0
  7 20  1  0  0  0  0
 11 21  1  0  0  0  0
 12 22  1  0  0  0  0
 13 23  1  0  0  0  0
 14 24  1  0  0  0  0
M  END
