
  xtb     03012221323D
 energy: -13.925313441844 gnorm: 0.000452433180 xtb: 6.4.1 (afa7bdf)
 68 73  0     0  0            999 V2000
    0.7036   -6.5463   -3.3551 C   0  0  0  0  0  0  0  0  0  0  0  0
    1.7254   -5.7629   -2.8344 O   0  0  0  0  0  0  0  0  0  0  0  0
    1.2036   -4.6186   -2.2938 C   0  0  0  0  0  0  0  0  0  0  0  0
    0.0064   -4.3798   -2.2985 O   0  0  0  0  0  0  0  0  0  0  0  0
    2.1620   -3.6778   -1.6995 C   0  0  0  0  0  0  0  0  0  0  0  0
    3.5154   -3.9750   -1.7070 C   0  0  0  0  0  0  0  0  0  0  0  0
    4.6670   -4.1446   -1.6686 N   0  0  0  0  0  0  0  0  0  0  0  0
    1.7465   -2.5018   -1.1297 C   0  0  0  0  0  0  0  0  0  0  0  0
    0.0851   -1.9608   -1.0254 S   0  0  0  0  0  0  0  0  0  0  0  0
    0.4564   -0.4571   -0.2016 C   0  0  0  0  0  0  0  0  0  0  0  0
   -0.4467    0.5025    0.1995 C   0  0  0  0  0  0  0  0  0  0  0  0
   -0.0798    2.0105    1.0180 S   0  0  0  0  0  0  0  0  0  0  0  0
   -1.7426    2.5478    1.1186 C   0  0  0  0  0  0  0  0  0  0  0  0
   -2.1616    3.7259    1.6815 C   0  0  0  0  0  0  0  0  0  0  0  0
   -3.5164    4.0167    1.6912 C   0  0  0  0  0  0  0  0  0  0  0  0
   -4.6691    4.1800    1.6566 N   0  0  0  0  0  0  0  0  0  0  0  0
   -1.2061    4.6737    2.2692 C   0  0  0  0  0  0  0  0  0  0  0  0
   -0.0083    4.4381    2.2762 O   0  0  0  0  0  0  0  0  0  0  0  0
   -1.7313    5.8207    2.8007 O   0  0  0  0  0  0  0  0  0  0  0  0
   -0.7119    6.6113    3.3152 C   0  0  0  0  0  0  0  0  0  0  0  0
   -2.5575    1.5316    0.5099 C   0  0  0  0  0  0  0  0  0  0  0  0
   -3.9627    1.3970    0.3027 C   0  0  0  0  0  0  0  0  0  0  0  0
   -4.3221    0.2368   -0.3254 C   0  0  0  0  0  0  0  0  0  0  0  0
   -5.6762   -0.1663   -0.6576 C   0  0  0  0  0  0  0  0  0  0  0  0
   -6.7821    0.6238   -0.3350 C   0  0  0  0  0  0  0  0  0  0  0  0
   -8.0550    0.2278   -0.6520 C   0  0  0  0  0  0  0  0  0  0  0  0
   -8.2852   -0.9841   -1.3114 C   0  0  0  0  0  0  0  0  0  0  0  0
   -9.5438   -1.4656   -1.6717 O   0  0  0  0  0  0  0  0  0  0  0  0
  -10.6217   -0.6380   -1.3117 C   0  0  0  0  0  0  0  0  0  0  0  0
   -7.1781   -1.7745   -1.6353 C   0  0  0  0  0  0  0  0  0  0  0  0
   -5.9087   -1.3742   -1.3154 C   0  0  0  0  0  0  0  0  0  0  0  0
   -2.9028   -0.7358   -0.6904 S   0  0  0  0  0  0  0  0  0  0  0  0
   -1.8348    0.4366    0.0203 C   0  0  0  0  0  0  0  0  0  0  0  0
    1.8444   -0.3975   -0.0184 C   0  0  0  0  0  0  0  0  0  0  0  0
    2.9154    0.7629    0.7076 S   0  0  0  0  0  0  0  0  0  0  0  0
    4.3294   -0.2230    0.3584 C   0  0  0  0  0  0  0  0  0  0  0  0
    5.6818    0.1586    0.7219 C   0  0  0  0  0  0  0  0  0  0  0  0
    6.7801   -0.6575    0.4411 C   0  0  0  0  0  0  0  0  0  0  0  0
    8.0507   -0.2851    0.7939 C   0  0  0  0  0  0  0  0  0  0  0  0
    8.2862    0.9285    1.4482 C   0  0  0  0  0  0  0  0  0  0  0  0
    9.5429    1.3865    1.8443 O   0  0  0  0  0  0  0  0  0  0  0  0
   10.6120    0.5267    1.5381 C   0  0  0  0  0  0  0  0  0  0  0  0
    7.1869    1.7458    1.7287 C   0  0  0  0  0  0  0  0  0  0  0  0
    5.9197    1.3685    1.3742 C   0  0  0  0  0  0  0  0  0  0  0  0
    3.9677   -1.3724   -0.2880 C   0  0  0  0  0  0  0  0  0  0  0  0
    2.5639   -1.4925   -0.5130 C   0  0  0  0  0  0  0  0  0  0  0  0
    0.0094   -6.7996   -2.5500 H   0  0  0  0  0  0  0  0  0  0  0  0
    1.1346   -7.4538   -3.7833 H   0  0  0  0  0  0  0  0  0  0  0  0
    0.1804   -5.9748   -4.1258 H   0  0  0  0  0  0  0  0  0  0  0  0
   -1.1445    7.5270    3.7239 H   0  0  0  0  0  0  0  0  0  0  0  0
   -0.0112    6.8491    2.5111 H   0  0  0  0  0  0  0  0  0  0  0  0
   -0.1956    6.0526    4.0997 H   0  0  0  0  0  0  0  0  0  0  0  0
   -4.6617    2.1491    0.6211 H   0  0  0  0  0  0  0  0  0  0  0  0
   -6.6302    1.5608    0.1739 H   0  0  0  0  0  0  0  0  0  0  0  0
   -8.8845    0.8573   -0.3896 H   0  0  0  0  0  0  0  0  0  0  0  0
  -10.6499   -0.5183   -0.2278 H   0  0  0  0  0  0  0  0  0  0  0  0
  -11.5447   -1.1166   -1.6410 H   0  0  0  0  0  0  0  0  0  0  0  0
  -10.5271    0.3297   -1.8060 H   0  0  0  0  0  0  0  0  0  0  0  0
   -7.3508   -2.7067   -2.1419 H   0  0  0  0  0  0  0  0  0  0  0  0
   -5.0658   -1.9946   -1.5709 H   0  0  0  0  0  0  0  0  0  0  0  0
    6.6239   -1.5975   -0.0610 H   0  0  0  0  0  0  0  0  0  0  0  0
    8.8741   -0.9352    0.5645 H   0  0  0  0  0  0  0  0  0  0  0  0
   10.4747   -0.4294    2.0447 H   0  0  0  0  0  0  0  0  0  0  0  0
   11.5342    0.9881    1.8934 H   0  0  0  0  0  0  0  0  0  0  0  0
   10.6772    0.3876    0.4582 H   0  0  0  0  0  0  0  0  0  0  0  0
    7.3636    2.6793    2.2314 H   0  0  0  0  0  0  0  0  0  0  0  0
    5.0825    2.0084    1.5981 H   0  0  0  0  0  0  0  0  0  0  0  0
    4.6633   -2.1295   -0.6020 H   0  0  0  0  0  0  0  0  0  0  0  0
  1  2  1  0  0  0  0
  2  3  1  0  0  0  0
  3  4  2  0  0  0  0
  3  5  1  0  0  0  0
  5  6  1  0  0  0  0
  6  7  3  0  0  0  0
  5  8  2  0  0  0  0
  8  9  1  0  0  0  0
  9 10  1  0  0  0  0
 10 11  2  0  0  0  0
 11 12  1  0  0  0  0
 12 13  1  0  0  0  0
 13 14  2  0  0  0  0
 14 15  1  0  0  0  0
 15 16  3  0  0  0  0
 14 17  1  0  0  0  0
 17 18  2  0  0  0  0
 17 19  1  0  0  0  0
 19 20  1  0  0  0  0
 13 21  1  0  0  0  0
 21 22  1  0  0  0  0
 22 23  2  0  0  0  0
 23 24  1  0  0  0  0
 24 25  2  0  0  0  0
 25 26  1  0  0  0  0
 26 27  2  0  0  0  0
 27 28  1  0  0  0  0
 28 29  1  0  0  0  0
 27 30  1  0  0  0  0
 30 31  2  0  0  0  0
 23 32  1  0  0  0  0
 32 33  1  0  0  0  0
 10 34  1  0  0  0  0
 34 35  1  0  0  0  0
 35 36  1  0  0  0  0
 36 37  1  0  0  0  0
 37 38  2  0  0  0  0
 38 39  1  0  0  0  0
 39 40  2  0  0  0  0
 40 41  1  0  0  0  0
 41 42  1  0  0  0  0
 40 43  1  0  0  0  0
 43 44  2  0  0  0  0
 36 45  2  0  0  0  0
 45 46  1  0  0  0  0
 46  8  1  0  0  0  0
 33 11  1  0  0  0  0
 46 34  2  0  0  0  0
 33 21  2  0  0  0  0
 44 37  1  0  0  0  0
 31 24  1  0  0  0  0
  1 47  1  0  0  0  0
  1 48  1  0  0  0  0
  1 49  1  0  0  0  0
 20 50  1  0  0  0  0
 20 51  1  0  0  0  0
 20 52  1  0  0  0  0
 22 53  1  0  0  0  0
 25 54  1  0  0  0  0
 26 55  1  0  0  0  0
 29 56  1  0  0  0  0
 29 57  1  0  0  0  0
 29 58  1  0  0  0  0
 30 59  1  0  0  0  0
 31 60  1  0  0  0  0
 38 61  1  0  0  0  0
 39 62  1  0  0  0  0
 42 63  1  0  0  0  0
 42 64  1  0  0  0  0
 42 65  1  0  0  0  0
 43 66  1  0  0  0  0
 44 67  1  0  0  0  0
 45 68  1  0  0  0  0
M  END
