
  xtb     03012221263D
 energy: -15.824933030612 gnorm: 0.000059401853 xtb: 6.4.1 (afa7bdf)
 72 80  0     0  0            999 V2000
    7.8190    1.4111    0.5953 C   0  0  0  0  0  0  0  0  0  0  0  0
    6.9891    0.9327    1.5895 C   0  0  0  0  0  0  0  0  0  0  0  0
    5.6362    0.8131    1.3620 C   0  0  0  0  0  0  0  0  0  0  0  0
    5.0865    1.1584    0.1260 C   0  0  0  0  0  0  0  0  0  0  0  0
    3.6231    1.0618   -0.1098 C   0  0  0  0  0  0  0  0  0  0  0  0
    2.9451    2.2434   -0.3477 C   0  0  0  0  0  0  0  0  0  0  0  0
    1.5698    2.2931   -0.4262 C   0  0  0  0  0  0  0  0  0  0  0  0
    0.7905    1.1611   -0.2356 C   0  0  0  0  0  0  0  0  0  0  0  0
   -0.6664    1.2254   -0.2811 C   0  0  0  0  0  0  0  0  0  0  0  0
   -1.3272    2.3958   -0.6249 C   0  0  0  0  0  0  0  0  0  0  0  0
   -2.7026    2.4535   -0.6951 C   0  0  0  0  0  0  0  0  0  0  0  0
   -3.4980    1.3626   -0.3960 C   0  0  0  0  0  0  0  0  0  0  0  0
   -4.9533    1.4957   -0.6624 C   0  0  0  0  0  0  0  0  0  0  0  0
   -5.5789    0.7099   -1.6320 C   0  0  0  0  0  0  0  0  0  0  0  0
   -6.9219    0.8569   -1.8987 C   0  0  0  0  0  0  0  0  0  0  0  0
   -7.6651    1.7984   -1.2150 C   0  0  0  0  0  0  0  0  0  0  0  0
   -7.0592    2.6013   -0.2692 C   0  0  0  0  0  0  0  0  0  0  0  0
   -5.7162    2.4590    0.0005 C   0  0  0  0  0  0  0  0  0  0  0  0
   -2.8721    0.1514    0.0526 C   0  0  0  0  0  0  0  0  0  0  0  0
   -3.6146   -0.9854    0.5179 C   0  0  0  0  0  0  0  0  0  0  0  0
   -5.0677   -0.9582    0.8253 C   0  0  0  0  0  0  0  0  0  0  0  0
   -5.9507   -1.8307    0.1862 C   0  0  0  0  0  0  0  0  0  0  0  0
   -7.2930   -1.8243    0.4943 C   0  0  0  0  0  0  0  0  0  0  0  0
   -7.7795   -0.9606    1.4554 C   0  0  0  0  0  0  0  0  0  0  0  0
   -6.9179   -0.1078    2.1160 C   0  0  0  0  0  0  0  0  0  0  0  0
   -5.5750   -0.1094    1.8108 C   0  0  0  0  0  0  0  0  0  0  0  0
   -2.9355   -2.1574    0.7964 C   0  0  0  0  0  0  0  0  0  0  0  0
   -1.5640   -2.2490    0.6931 C   0  0  0  0  0  0  0  0  0  0  0  0
   -0.7884   -1.1557    0.3354 C   0  0  0  0  0  0  0  0  0  0  0  0
    0.6660   -1.2474    0.2629 C   0  0  0  0  0  0  0  0  0  0  0  0
    1.3235   -2.4560    0.4416 C   0  0  0  0  0  0  0  0  0  0  0  0
    2.6953   -2.5520    0.3452 C   0  0  0  0  0  0  0  0  0  0  0  0
    3.4915   -1.4482    0.1002 C   0  0  0  0  0  0  0  0  0  0  0  0
    4.9348   -1.6977   -0.1471 C   0  0  0  0  0  0  0  0  0  0  0  0
    5.7361   -2.2897    0.8311 C   0  0  0  0  0  0  0  0  0  0  0  0
    7.0676   -2.5460    0.5899 C   0  0  0  0  0  0  0  0  0  0  0  0
    7.6232   -2.2324   -0.6346 C   0  0  0  0  0  0  0  0  0  0  0  0
    6.8409   -1.6692   -1.6230 C   0  0  0  0  0  0  0  0  0  0  0  0
    5.5092   -1.4100   -1.3865 C   0  0  0  0  0  0  0  0  0  0  0  0
    2.8729   -0.1570   -0.0008 C   0  0  0  0  0  0  0  0  0  0  0  0
    1.4457   -0.0813    0.0084 C   0  0  0  0  0  0  0  0  0  0  0  0
   -1.4450    0.0738    0.0354 C   0  0  0  0  0  0  0  0  0  0  0  0
    5.9385    1.6632   -0.8582 C   0  0  0  0  0  0  0  0  0  0  0  0
    7.2910    1.7799   -0.6259 C   0  0  0  0  0  0  0  0  0  0  0  0
    8.8785    1.4991    0.7734 H   0  0  0  0  0  0  0  0  0  0  0  0
    7.4009    0.6489    2.5443 H   0  0  0  0  0  0  0  0  0  0  0  0
    4.9845    0.4431    2.1347 H   0  0  0  0  0  0  0  0  0  0  0  0
    3.5159    3.1528   -0.4353 H   0  0  0  0  0  0  0  0  0  0  0  0
    1.1039    3.2457   -0.5972 H   0  0  0  0  0  0  0  0  0  0  0  0
   -0.7670    3.2747   -0.8846 H   0  0  0  0  0  0  0  0  0  0  0  0
   -3.1805    3.3606   -1.0255 H   0  0  0  0  0  0  0  0  0  0  0  0
   -4.9947   -0.0211   -2.1640 H   0  0  0  0  0  0  0  0  0  0  0  0
   -7.3944    0.2331   -2.6400 H   0  0  0  0  0  0  0  0  0  0  0  0
   -8.7174    1.9082   -1.4212 H   0  0  0  0  0  0  0  0  0  0  0  0
   -7.6388    3.3394    0.2609 H   0  0  0  0  0  0  0  0  0  0  0  0
   -5.2409    3.0819    0.7386 H   0  0  0  0  0  0  0  0  0  0  0  0
   -5.5682   -2.5013   -0.5639 H   0  0  0  0  0  0  0  0  0  0  0  0
   -7.9653   -2.4934   -0.0176 H   0  0  0  0  0  0  0  0  0  0  0  0
   -8.8312   -0.9540    1.6917 H   0  0  0  0  0  0  0  0  0  0  0  0
   -7.2973    0.5634    2.8691 H   0  0  0  0  0  0  0  0  0  0  0  0
   -4.8987    0.5518    2.3247 H   0  0  0  0  0  0  0  0  0  0  0  0
   -3.5009   -3.0081    1.1386 H   0  0  0  0  0  0  0  0  0  0  0  0
   -1.0964   -3.1842    0.9390 H   0  0  0  0  0  0  0  0  0  0  0  0
    0.7617   -3.3541    0.6191 H   0  0  0  0  0  0  0  0  0  0  0  0
    3.1678   -3.5166    0.4261 H   0  0  0  0  0  0  0  0  0  0  0  0
    5.3003   -2.5307    1.7853 H   0  0  0  0  0  0  0  0  0  0  0  0
    7.6776   -2.9903    1.3594 H   0  0  0  0  0  0  0  0  0  0  0  0
    8.6667   -2.4295   -0.8196 H   0  0  0  0  0  0  0  0  0  0  0  0
    7.2739   -1.4282   -2.5800 H   0  0  0  0  0  0  0  0  0  0  0  0
    4.8946   -0.9730   -2.1546 H   0  0  0  0  0  0  0  0  0  0  0  0
    5.5238    1.9478   -1.8098 H   0  0  0  0  0  0  0  0  0  0  0  0
    7.9388    2.1578   -1.4000 H   0  0  0  0  0  0  0  0  0  0  0  0
  1  2  2  0  0  0  0
  2  3  1  0  0  0  0
  3  4  2  0  0  0  0
  4  5  1  0  0  0  0
  5  6  2  0  0  0  0
  6  7  1  0  0  0  0
  7  8  2  0  0  0  0
  8  9  1  0  0  0  0
  9 10  2  0  0  0  0
 10 11  1  0  0  0  0
 11 12  2  0  0  0  0
 12 13  1  0  0  0  0
 13 14  2  0  0  0  0
 14 15  1  0  0  0  0
 15 16  2  0  0  0  0
 16 17  1  0  0  0  0
 17 18  2  0  0  0  0
 12 19  1  0  0  0  0
 19 20  2  0  0  0  0
 20 21  1  0  0  0  0
 21 22  2  0  0  0  0
 22 23  1  0  0  0  0
 23 24  2  0  0  0  0
 24 25  1  0  0  0  0
 25 26  2  0  0  0  0
 20 27  1  0  0  0  0
 27 28  2  0  0  0  0
 28 29  1  0  0  0  0
 29 30  1  0  0  0  0
 30 31  1  0  0  0  0
 31 32  2  0  0  0  0
 32 33  1  0  0  0  0
 33 34  1  0  0  0  0
 34 35  2  0  0  0  0
 35 36  1  0  0  0  0
 36 37  2  0  0  0  0
 37 38  1  0  0  0  0
 38 39  2  0  0  0  0
 33 40  2  0  0  0  0
 40 41  1  0  0  0  0
 29 42  2  0  0  0  0
  4 43  1  0  0  0  0
 43 44  2  0  0  0  0
 44  1  1  0  0  0  0
 40  5  1  0  0  0  0
 41  8  1  0  0  0  0
 42  9  1  0  0  0  0
 18 13  1  0  0  0  0
 42 19  1  0  0  0  0
 26 21  1  0  0  0  0
 41 30  2  0  0  0  0
 39 34  1  0  0  0  0
  1 45  1  0  0  0  0
  2 46  1  0  0  0  0
  3 47  1  0  0  0  0
  6 48  1  0  0  0  0
  7 49  1  0  0  0  0
 10 50  1  0  0  0  0
 11 51  1  0  0  0  0
 14 52  1  0  0  0  0
 15 53  1  0  0  0  0
 16 54  1  0  0  0  0
 17 55  1  0  0  0  0
 18 56  1  0  0  0  0
 22 57  1  0  0  0  0
 23 58  1  0  0  0  0
 24 59  1  0  0  0  0
 25 60  1  0  0  0  0
 26 61  1  0  0  0  0
 27 62  1  0  0  0  0
 28 63  1  0  0  0  0
 31 64  1  0  0  0  0
 32 65  1  0  0  0  0
 35 66  1  0  0  0  0
 36 67  1  0  0  0  0
 37 68  1  0  0  0  0
 38 69  1  0  0  0  0
 39 70  1  0  0  0  0
 43 71  1  0  0  0  0
 44 72  1  0  0  0  0
M  END
