
  xtb     03012221273D
 energy: -5.120855390039 gnorm: 0.000287348993 xtb: 6.4.1 (afa7bdf)
 27 29  0     0  0            999 V2000
   -1.2729    2.6997    0.3117 C   0  0  0  0  0  0  0  0  0  0  0  0
   -0.7989    1.3040    0.1450 C   0  0  0  0  0  0  0  0  0  0  0  0
    0.5540    1.0034   -0.0160 C   0  0  0  0  0  0  0  0  0  0  0  0
    1.6996    1.8333   -0.0784 C   0  0  0  0  0  0  0  0  0  0  0  0
    2.8081    1.0194   -0.2491 C   0  0  0  0  0  0  0  0  0  0  0  0
    2.3871   -0.3220   -0.2978 C   0  0  0  0  0  0  0  0  0  0  0  0
    3.2028   -1.5376   -0.4593 C   0  0  0  0  0  0  0  0  0  0  0  0
    1.0507   -0.3005   -0.1542 N   0  0  0  0  0  4  0  0  0  0  0  0
    0.1752   -1.5522   -0.1418 B   0  0  0  0  0  4  0  0  0  0  0  0
    0.2969   -2.1996   -1.3664 F   0  0  0  0  0  0  0  0  0  0  0  0
    0.5699   -2.3687    0.9122 F   0  0  0  0  0  0  0  0  0  0  0  0
   -1.2767   -1.1215    0.0650 N   0  0  0  0  0  0  0  0  0  0  0  0
   -2.3145   -1.9635    0.1503 C   0  0  0  0  0  0  0  0  0  0  0  0
   -3.4561   -1.1748    0.3442 C   0  0  0  0  0  0  0  0  0  0  0  0
   -3.0793    0.1586    0.3727 C   0  0  0  0  0  0  0  0  0  0  0  0
   -1.6753    0.2190    0.1932 C   0  0  0  0  0  0  0  0  0  0  0  0
   -2.2921    2.8158   -0.0568 H   0  0  0  0  0  0  0  0  0  0  0  0
   -1.2576    2.9902    1.3624 H   0  0  0  0  0  0  0  0  0  0  0  0
   -0.6436    3.3968   -0.2416 H   0  0  0  0  0  0  0  0  0  0  0  0
    1.7050    2.9070   -0.0019 H   0  0  0  0  0  0  0  0  0  0  0  0
    3.8296    1.3505   -0.3339 H   0  0  0  0  0  0  0  0  0  0  0  0
    3.8688   -1.6755    0.3924 H   0  0  0  0  0  0  0  0  0  0  0  0
    3.8052   -1.4868   -1.3663 H   0  0  0  0  0  0  0  0  0  0  0  0
    2.5556   -2.4133   -0.5285 H   0  0  0  0  0  0  0  0  0  0  0  0
   -2.2444   -3.0363    0.0794 H   0  0  0  0  0  0  0  0  0  0  0  0
   -4.4621   -1.5467    0.4535 H   0  0  0  0  0  0  0  0  0  0  0  0
   -3.7346    1.0014    0.5101 H   0  0  0  0  0  0  0  0  0  0  0  0
  1  2  1  0  0  0  0
  2  3  2  0  0  0  0
  3  4  1  0  0  0  0
  4  5  2  0  0  0  0
  5  6  1  0  0  0  0
  6  7  1  0  0  0  0
  6  8  2  0  0  0  0
  8  9  1  0  0  0  0
  9 10  1  0  0  0  0
  9 11  1  0  0  0  0
  9 12  1  0  0  0  0
 12 13  1  0  0  0  0
 13 14  2  0  0  0  0
 14 15  1  0  0  0  0
 15 16  2  0  0  0  0
 16  2  1  0  0  0  0
  8  3  1  0  0  0  0
 16 12  1  0  0  0  0
  1 17  1  0  0  0  0
  1 18  1  0  0  0  0
  1 19  1  0  0  0  0
  4 20  1  0  0  0  0
  5 21  1  0  0  0  0
  7 22  1  0  0  0  0
  7 23  1  0  0  0  0
  7 24  1  0  0  0  0
 13 25  1  0  0  0  0
 14 26  1  0  0  0  0
 15 27  1  0  0  0  0
M  CHG  1   8   1
M  CHG  1   9  -1
M  END
