
  xtb     03012221293D
 energy: -7.366427745725 gnorm: 0.000779950612 xtb: 6.4.1 (afa7bdf)
 36 38  0     0  0            999 V2000
   -4.9505    0.3504    0.3970 C   0  0  0  0  0  0  0  0  0  0  0  0
   -3.6581   -0.3466    0.1497 C   0  0  0  0  0  0  0  0  0  0  0  0
   -3.4337   -1.6009    0.7001 C   0  0  0  0  0  0  0  0  0  0  0  0
   -2.2460   -2.2635    0.4962 C   0  0  0  0  0  0  0  0  0  0  0  0
   -1.2440   -1.6854   -0.2632 C   0  0  0  0  0  0  0  0  0  0  0  0
    0.0297   -2.4186   -0.4728 C   0  0  0  0  0  0  0  0  0  0  0  0
   -0.0096   -3.6164   -0.6962 O   0  0  0  0  0  0  0  0  0  0  0  0
    1.3152   -1.7267   -0.4701 C   0  0  0  0  0  0  0  0  0  0  0  0
    1.6780   -0.6147    0.2174 C   0  0  0  0  0  0  0  0  0  0  0  0
    0.9397    0.1452    1.2556 C   0  0  0  0  0  0  0  0  0  0  0  0
   -0.1582   -0.0940    1.7171 O   0  0  0  0  0  0  0  0  0  0  0  0
    1.7635    1.1984    1.6388 N   0  0  0  0  0  0  0  0  0  0  0  0
    2.9865    1.1425    0.9758 C   0  0  0  0  0  0  0  0  0  0  0  0
    4.1074    1.9576    1.0727 C   0  0  0  0  0  0  0  0  0  0  0  0
    5.2039    1.6644    0.2949 C   0  0  0  0  0  0  0  0  0  0  0  0
    5.1947    0.5757   -0.5718 C   0  0  0  0  0  0  0  0  0  0  0  0
    4.0881   -0.2392   -0.6753 C   0  0  0  0  0  0  0  0  0  0  0  0
    2.9727    0.0419    0.1042 C   0  0  0  0  0  0  0  0  0  0  0  0
   -1.4738   -0.4439   -0.8399 C   0  0  0  0  0  0  0  0  0  0  0  0
   -2.6647    0.2340   -0.6449 C   0  0  0  0  0  0  0  0  0  0  0  0
   -2.8476    1.5842   -1.2419 C   0  0  0  0  0  0  0  0  0  0  0  0
   -5.5677    0.3549   -0.5016 H   0  0  0  0  0  0  0  0  0  0  0  0
   -5.5183   -0.1392    1.1883 H   0  0  0  0  0  0  0  0  0  0  0  0
   -4.7853    1.3832    0.7039 H   0  0  0  0  0  0  0  0  0  0  0  0
   -4.2016   -2.0548    1.3021 H   0  0  0  0  0  0  0  0  0  0  0  0
   -2.0704   -3.2341    0.9283 H   0  0  0  0  0  0  0  0  0  0  0  0
    2.0717   -2.1983   -1.0717 H   0  0  0  0  0  0  0  0  0  0  0  0
    1.5238    1.8519    2.3784 H   0  0  0  0  0  0  0  0  0  0  0  0
    4.1032    2.7944    1.7476 H   0  0  0  0  0  0  0  0  0  0  0  0
    6.0826    2.2848    0.3589 H   0  0  0  0  0  0  0  0  0  0  0  0
    6.0660    0.3664   -1.1696 H   0  0  0  0  0  0  0  0  0  0  0  0
    4.0804   -1.0808   -1.3445 H   0  0  0  0  0  0  0  0  0  0  0  0
   -0.6975    0.0057   -1.4322 H   0  0  0  0  0  0  0  0  0  0  0  0
   -2.7314    2.3603   -0.4827 H   0  0  0  0  0  0  0  0  0  0  0  0
   -2.1113    1.7731   -2.0258 H   0  0  0  0  0  0  0  0  0  0  0  0
   -3.8375    1.6880   -1.6900 H   0  0  0  0  0  0  0  0  0  0  0  0
  1  2  1  0  0  0  0
  2  3  2  0  0  0  0
  3  4  1  0  0  0  0
  4  5  2  0  0  0  0
  5  6  1  0  0  0  0
  6  7  2  0  0  0  0
  6  8  1  0  0  0  0
  8  9  2  0  0  0  0
  9 10  1  0  0  0  0
 10 11  2  0  0  0  0
 10 12  1  0  0  0  0
 12 13  1  0  0  0  0
 13 14  2  0  0  0  0
 14 15  1  0  0  0  0
 15 16  2  0  0  0  0
 16 17  1  0  0  0  0
 17 18  2  0  0  0  0
  5 19  1  0  0  0  0
 19 20  2  0  0  0  0
 20 21  1  0  0  0  0
 20  2  1  0  0  0  0
 18  9  1  0  0  0  0
 18 13  1  0  0  0  0
  1 22  1  0  0  0  0
  1 23  1  0  0  0  0
  1 24  1  0  0  0  0
  3 25  1  0  0  0  0
  4 26  1  0  0  0  0
  8 27  1  0  0  0  0
 12 28  1  0  0  0  0
 14 29  1  0  0  0  0
 15 30  1  0  0  0  0
 16 31  1  0  0  0  0
 17 32  1  0  0  0  0
 19 33  1  0  0  0  0
 21 34  1  0  0  0  0
 21 35  1  0  0  0  0
 21 36  1  0  0  0  0
M  END
