
  xtb     03012221293D
 energy: -8.926471214243 gnorm: 0.000388605105 xtb: 6.4.1 (afa7bdf)
 46 48  0     0  0            999 V2000
   -7.4961   -0.4386    0.3824 C   0  0  0  0  0  0  0  0  0  0  0  0
   -6.3109    0.3237    0.7770 N   0  0  0  0  0  0  0  0  0  0  0  0
   -6.5200    1.4586    1.6761 C   0  0  0  0  0  0  0  0  0  0  0  0
   -5.0270   -0.0206    0.3127 C   0  0  0  0  0  0  0  0  0  0  0  0
   -4.8424   -1.0715   -0.5907 C   0  0  0  0  0  0  0  0  0  0  0  0
   -3.5884   -1.4055   -1.0376 C   0  0  0  0  0  0  0  0  0  0  0  0
   -2.4567   -0.7141   -0.6073 C   0  0  0  0  0  0  0  0  0  0  0  0
   -1.1376   -1.1192   -1.1161 C   0  0  0  0  0  0  0  0  0  0  0  0
    0.0304   -0.5850   -0.6088 C   0  0  0  0  0  0  0  0  0  0  0  0
    1.2437   -1.0047   -1.1170 C   0  0  0  0  0  0  0  0  0  0  0  0
    2.5172   -0.4721   -0.6088 C   0  0  0  0  0  0  0  0  0  0  0  0
    2.5960    0.6389    0.2345 C   0  0  0  0  0  0  0  0  0  0  0  0
    3.8097    1.0983    0.6836 C   0  0  0  0  0  0  0  0  0  0  0  0
    5.0045    0.4736    0.3123 C   0  0  0  0  0  0  0  0  0  0  0  0
    6.2478    0.9445    0.7768 N   0  0  0  0  0  0  0  0  0  0  0  0
    6.3532    2.1636    1.5783 C   0  0  0  0  0  0  0  0  0  0  0  0
    7.4916    0.2290    0.4919 C   0  0  0  0  0  0  0  0  0  0  0  0
    4.9227   -0.6335   -0.5376 C   0  0  0  0  0  0  0  0  0  0  0  0
    3.7085   -1.0900   -0.9865 C   0  0  0  0  0  0  0  0  0  0  0  0
    1.2868   -1.9250   -2.0818 N   0  0  0  0  0  0  0  0  0  0  0  0
    0.1156   -2.3627   -2.4839 C   0  0  0  0  0  0  0  0  0  0  0  0
   -1.0920   -2.0378   -2.0826 N   0  0  0  0  0  0  0  0  0  0  0  0
   -2.6388    0.3412    0.2901 C   0  0  0  0  0  0  0  0  0  0  0  0
   -3.8925    0.6774    0.7386 C   0  0  0  0  0  0  0  0  0  0  0  0
   -7.3629   -1.4900    0.6286 H   0  0  0  0  0  0  0  0  0  0  0  0
   -8.3838   -0.0813    0.8995 H   0  0  0  0  0  0  0  0  0  0  0  0
   -7.6618   -0.3411   -0.6884 H   0  0  0  0  0  0  0  0  0  0  0  0
   -7.5790    1.6225    1.8622 H   0  0  0  0  0  0  0  0  0  0  0  0
   -6.0301    1.2736    2.6297 H   0  0  0  0  0  0  0  0  0  0  0  0
   -6.1110    2.3650    1.2347 H   0  0  0  0  0  0  0  0  0  0  0  0
   -5.6963   -1.6222   -0.9426 H   0  0  0  0  0  0  0  0  0  0  0  0
   -3.4568   -2.2148   -1.7343 H   0  0  0  0  0  0  0  0  0  0  0  0
   -0.0022    0.1239    0.1932 H   0  0  0  0  0  0  0  0  0  0  0  0
    1.6979    1.1525    0.5260 H   0  0  0  0  0  0  0  0  0  0  0  0
    3.8443    1.9517    1.3370 H   0  0  0  0  0  0  0  0  0  0  0  0
    5.8943    2.0102    2.5528 H   0  0  0  0  0  0  0  0  0  0  0  0
    5.8527    2.9871    1.0732 H   0  0  0  0  0  0  0  0  0  0  0  0
    7.3931    2.4451    1.7286 H   0  0  0  0  0  0  0  0  0  0  0  0
    7.7230    0.2926   -0.5691 H   0  0  0  0  0  0  0  0  0  0  0  0
    7.3941   -0.8172    0.7738 H   0  0  0  0  0  0  0  0  0  0  0  0
    8.3233    0.6513    1.0512 H   0  0  0  0  0  0  0  0  0  0  0  0
    5.8250   -1.1276   -0.8504 H   0  0  0  0  0  0  0  0  0  0  0  0
    3.6560   -1.9404   -1.6435 H   0  0  0  0  0  0  0  0  0  0  0  0
    0.1511   -3.1076   -3.2667 H   0  0  0  0  0  0  0  0  0  0  0  0
   -1.7903    0.9077    0.6282 H   0  0  0  0  0  0  0  0  0  0  0  0
   -4.0059    1.4908    1.4328 H   0  0  0  0  0  0  0  0  0  0  0  0
  1  2  1  0  0  0  0
  2  3  1  0  0  0  0
  2  4  1  0  0  0  0
  4  5  2  0  0  0  0
  5  6  1  0  0  0  0
  6  7  2  0  0  0  0
  7  8  1  0  0  0  0
  8  9  2  0  0  0  0
  9 10  1  0  0  0  0
 10 11  1  0  0  0  0
 11 12  2  0  0  0  0
 12 13  1  0  0  0  0
 13 14  2  0  0  0  0
 14 15  1  0  0  0  0
 15 16  1  0  0  0  0
 15 17  1  0  0  0  0
 14 18  1  0  0  0  0
 18 19  2  0  0  0  0
 10 20  2  0  0  0  0
 20 21  1  0  0  0  0
 21 22  2  0  0  0  0
  7 23  1  0  0  0  0
 23 24  2  0  0  0  0
 24  4  1  0  0  0  0
 22  8  1  0  0  0  0
 19 11  1  0  0  0  0
  1 25  1  0  0  0  0
  1 26  1  0  0  0  0
  1 27  1  0  0  0  0
  3 28  1  0  0  0  0
  3 29  1  0  0  0  0
  3 30  1  0  0  0  0
  5 31  1  0  0  0  0
  6 32  1  0  0  0  0
  9 33  1  0  0  0  0
 12 34  1  0  0  0  0
 13 35  1  0  0  0  0
 16 36  1  0  0  0  0
 16 37  1  0  0  0  0
 16 38  1  0  0  0  0
 17 39  1  0  0  0  0
 17 40  1  0  0  0  0
 17 41  1  0  0  0  0
 18 42  1  0  0  0  0
 19 43  1  0  0  0  0
 21 44  1  0  0  0  0
 23 45  1  0  0  0  0
 24 46  1  0  0  0  0
M  END
