
  xtb     03012221273D
 energy: -5.177081171574 gnorm: 0.000587059511 xtb: 6.4.1 (afa7bdf)
 25 27  0     0  0            999 V2000
    4.3836   -0.0506   -0.1396 N   0  0  0  0  0  0  0  0  0  0  0  0
    3.0150    0.1271   -0.0669 C   0  0  0  0  0  0  0  0  0  0  0  0
    2.4746    1.3992    0.1860 C   0  0  0  0  0  0  0  0  0  0  0  0
    1.1162    1.5984    0.2631 C   0  0  0  0  0  0  0  0  0  0  0  0
    0.2646    0.5123    0.0856 C   0  0  0  0  0  0  0  0  0  0  0  0
    0.7887   -0.7633   -0.1673 C   0  0  0  0  0  0  0  0  0  0  0  0
    2.1474   -0.9599   -0.2446 C   0  0  0  0  0  0  0  0  0  0  0  0
   -0.3530   -1.7360   -0.3175 C   0  0  0  0  0  0  0  0  0  0  0  0
   -1.5882   -0.8939   -0.1241 C   0  0  0  0  0  0  0  0  0  0  0  0
   -2.9249   -1.2375   -0.1483 C   0  0  0  0  0  0  0  0  0  0  0  0
   -3.8735   -0.2526    0.0674 C   0  0  0  0  0  0  0  0  0  0  0  0
   -3.4922    1.0598    0.3052 C   0  0  0  0  0  0  0  0  0  0  0  0
   -2.1582    1.4136    0.3311 C   0  0  0  0  0  0  0  0  0  0  0  0
   -1.2005    0.4304    0.1134 C   0  0  0  0  0  0  0  0  0  0  0  0
    4.8216   -0.9465   -0.3058 H   0  0  0  0  0  0  0  0  0  0  0  0
    5.0510    0.6969   -0.0048 H   0  0  0  0  0  0  0  0  0  0  0  0
    3.1493    2.2264    0.3195 H   0  0  0  0  0  0  0  0  0  0  0  0
    0.7060    2.5739    0.4563 H   0  0  0  0  0  0  0  0  0  0  0  0
    2.5438   -1.9388   -0.4402 H   0  0  0  0  0  0  0  0  0  0  0  0
   -0.3451   -2.2023   -1.3086 H   0  0  0  0  0  0  0  0  0  0  0  0
   -0.2952   -2.5299    0.4350 H   0  0  0  0  0  0  0  0  0  0  0  0
   -3.2123   -2.2580   -0.3325 H   0  0  0  0  0  0  0  0  0  0  0  0
   -4.9199   -0.5090    0.0508 H   0  0  0  0  0  0  0  0  0  0  0  0
   -4.2456    1.8119    0.4717 H   0  0  0  0  0  0  0  0  0  0  0  0
   -1.8531    2.4287    0.5148 H   0  0  0  0  0  0  0  0  0  0  0  0
  1  2  1  0  0  0  0
  2  3  2  0  0  0  0
  3  4  1  0  0  0  0
  4  5  2  0  0  0  0
  5  6  1  0  0  0  0
  6  7  2  0  0  0  0
  6  8  1  0  0  0  0
  8  9  1  0  0  0  0
  9 10  2  0  0  0  0
 10 11  1  0  0  0  0
 11 12  2  0  0  0  0
 12 13  1  0  0  0  0
 13 14  2  0  0  0  0
  7  2  1  0  0  0  0
 14  9  1  0  0  0  0
 14  5  1  0  0  0  0
  1 15  1  0  0  0  0
  1 16  1  0  0  0  0
  3 17  1  0  0  0  0
  4 18  1  0  0  0  0
  7 19  1  0  0  0  0
  8 20  1  0  0  0  0
  8 21  1  0  0  0  0
 10 22  1  0  0  0  0
 11 23  1  0  0  0  0
 12 24  1  0  0  0  0
 13 25  1  0  0  0  0
M  END
