
  xtb     03012221203D
 energy: -4.670620206336 gnorm: 0.000456215848 xtb: 6.4.1 (afa7bdf)
 21 23  0     0  0            999 V2000
    0.2710    2.9182   -0.4704 O   0  0  0  0  0  0  0  0  0  0  0  0
    0.2324    1.7175   -0.3245 C   0  0  0  0  0  0  0  0  0  0  0  0
   -0.9655    0.8785   -0.1287 C   0  0  0  0  0  0  0  0  0  0  0  0
   -2.2988    1.2311   -0.0639 C   0  0  0  0  0  0  0  0  0  0  0  0
   -3.2358    0.2352    0.1297 C   0  0  0  0  0  0  0  0  0  0  0  0
   -2.8470   -1.0898    0.2561 C   0  0  0  0  0  0  0  0  0  0  0  0
   -1.5144   -1.4479    0.1920 C   0  0  0  0  0  0  0  0  0  0  0  0
   -0.5675   -0.4557   -0.0019 C   0  0  0  0  0  0  0  0  0  0  0  0
    0.8950   -0.5093   -0.1127 C   0  0  0  0  0  0  0  0  0  0  0  0
    1.7995   -1.5525   -0.0610 C   0  0  0  0  0  0  0  0  0  0  0  0
    3.1072   -1.3816   -0.1861 N   0  0  0  0  0  0  0  0  0  0  0  0
    3.5327   -0.1350   -0.3684 C   0  0  0  0  0  0  0  0  0  0  0  0
    2.7249    0.9774   -0.4360 C   0  0  0  0  0  0  0  0  0  0  0  0
    1.3694    0.7834   -0.3045 C   0  0  0  0  0  0  0  0  0  0  0  0
   -2.5804    2.2648   -0.1643 H   0  0  0  0  0  0  0  0  0  0  0  0
   -4.2809    0.4919    0.1828 H   0  0  0  0  0  0  0  0  0  0  0  0
   -3.5945   -1.8509    0.4065 H   0  0  0  0  0  0  0  0  0  0  0  0
   -1.2058   -2.4736    0.2892 H   0  0  0  0  0  0  0  0  0  0  0  0
    1.4402   -2.5570    0.0872 H   0  0  0  0  0  0  0  0  0  0  0  0
    4.6005   -0.0125   -0.4685 H   0  0  0  0  0  0  0  0  0  0  0  0
    3.1177    1.9680   -0.5853 H   0  0  0  0  0  0  0  0  0  0  0  0
  1  2  2  0  0  0  0
  2  3  1  0  0  0  0
  3  4  2  0  0  0  0
  4  5  1  0  0  0  0
  5  6  2  0  0  0  0
  6  7  1  0  0  0  0
  7  8  2  0  0  0  0
  8  9  1  0  0  0  0
  9 10  2  0  0  0  0
 10 11  1  0  0  0  0
 11 12  2  0  0  0  0
 12 13  1  0  0  0  0
 13 14  2  0  0  0  0
 14  2  1  0  0  0  0
  8  3  1  0  0  0  0
 14  9  1  0  0  0  0
  4 15  1  0  0  0  0
  5 16  1  0  0  0  0
  6 17  1  0  0  0  0
  7 18  1  0  0  0  0
 10 19  1  0  0  0  0
 12 20  1  0  0  0  0
 13 21  1  0  0  0  0
M  END
