
  xtb     03012221293D
 energy: -8.981444997541 gnorm: 0.000513177313 xtb: 6.4.1 (afa7bdf)
 44 48  0     0  0            999 V2000
   -6.4611    1.5001   -0.7028 C   0  0  0  0  0  0  0  0  0  0  0  0
   -5.0730    0.9888   -0.5298 C   0  0  0  0  0  0  0  0  0  0  0  0
   -4.0639    1.3304   -1.4200 C   0  0  0  0  0  0  0  0  0  0  0  0
   -2.7833    0.8578   -1.2510 C   0  0  0  0  0  0  0  0  0  0  0  0
   -2.4623    0.0217   -0.1796 C   0  0  0  0  0  0  0  0  0  0  0  0
   -1.0915   -0.4857    0.0077 C   0  0  0  0  0  0  0  0  0  0  0  0
    0.0383    0.3560   -0.0777 C   0  0  0  0  0  0  0  0  0  0  0  0
    0.0941    1.7541   -0.3055 C   0  0  0  0  0  0  0  0  0  0  0  0
    1.4078    2.1360   -0.2814 C   0  0  0  0  0  0  0  0  0  0  0  0
    2.2195    0.9967   -0.0299 C   0  0  0  0  0  0  0  0  0  0  0  0
    3.6743    0.9920    0.0666 C   0  0  0  0  0  0  0  0  0  0  0  0
    4.4069    2.1642   -0.1386 C   0  0  0  0  0  0  0  0  0  0  0  0
    5.7804    2.1681   -0.0517 C   0  0  0  0  0  0  0  0  0  0  0  0
    6.4615    1.0047    0.2416 C   0  0  0  0  0  0  0  0  0  0  0  0
    5.7603   -0.1647    0.4484 C   0  0  0  0  0  0  0  0  0  0  0  0
    4.3879   -0.1693    0.3621 C   0  0  0  0  0  0  0  0  0  0  0  0
    1.3532   -0.0441    0.0924 N   0  0  0  0  0  4  0  0  0  0  0  0
    1.6906   -1.5086    0.4141 B   0  0  0  0  0  4  0  0  0  0  0  0
    2.3100   -1.5633    1.6584 F   0  0  0  0  0  0  0  0  0  0  0  0
    2.4938   -2.0178   -0.6009 F   0  0  0  0  0  0  0  0  0  0  0  0
    0.4149   -2.3444    0.4818 N   0  0  0  0  0  0  0  0  0  0  0  0
    0.3816   -3.6967    0.7172 C   0  0  0  0  0  0  0  0  0  0  0  0
    1.7054   -4.7060    1.0048 Cl  0  0  0  0  0  0  0  0  0  0  0  0
   -0.9917   -4.0784    0.6619 C   0  0  0  0  0  0  0  0  0  0  0  0
   -1.7323   -2.9653    0.4023 C   0  0  0  0  0  0  0  0  0  0  0  0
   -0.8381   -1.8369    0.2902 C   0  0  0  0  0  0  0  0  0  0  0  0
   -3.4828   -0.3192    0.7105 C   0  0  0  0  0  0  0  0  0  0  0  0
   -4.7610    0.1576    0.5364 C   0  0  0  0  0  0  0  0  0  0  0  0
   -7.1698    0.6763   -0.7919 H   0  0  0  0  0  0  0  0  0  0  0  0
   -6.5503    2.1150   -1.5987 H   0  0  0  0  0  0  0  0  0  0  0  0
   -6.7587    2.1095    0.1510 H   0  0  0  0  0  0  0  0  0  0  0  0
   -4.2944    1.9717   -2.2534 H   0  0  0  0  0  0  0  0  0  0  0  0
   -2.0166    1.1104   -1.9623 H   0  0  0  0  0  0  0  0  0  0  0  0
   -0.7530    2.4025   -0.4483 H   0  0  0  0  0  0  0  0  0  0  0  0
    1.7622    3.1437   -0.4181 H   0  0  0  0  0  0  0  0  0  0  0  0
    3.8889    3.0771   -0.3706 H   0  0  0  0  0  0  0  0  0  0  0  0
    6.3268    3.0829   -0.2140 H   0  0  0  0  0  0  0  0  0  0  0  0
    7.5369    1.0094    0.3092 H   0  0  0  0  0  0  0  0  0  0  0  0
    6.2872   -1.0765    0.6786 H   0  0  0  0  0  0  0  0  0  0  0  0
    3.8516   -1.0837    0.5280 H   0  0  0  0  0  0  0  0  0  0  0  0
   -1.3624   -5.0804    0.7958 H   0  0  0  0  0  0  0  0  0  0  0  0
   -2.8007   -2.9311    0.2787 H   0  0  0  0  0  0  0  0  0  0  0  0
   -3.2502   -0.9453    1.5540 H   0  0  0  0  0  0  0  0  0  0  0  0
   -5.5362   -0.1096    1.2343 H   0  0  0  0  0  0  0  0  0  0  0  0
  1  2  1  0  0  0  0
  2  3  2  0  0  0  0
  3  4  1  0  0  0  0
  4  5  2  0  0  0  0
  5  6  1  0  0  0  0
  6  7  2  0  0  0  0
  7  8  1  0  0  0  0
  8  9  2  0  0  0  0
  9 10  1  0  0  0  0
 10 11  1  0  0  0  0
 11 12  2  0  0  0  0
 12 13  1  0  0  0  0
 13 14  2  0  0  0  0
 14 15  1  0  0  0  0
 15 16  2  0  0  0  0
 10 17  2  0  0  0  0
 17 18  1  0  0  0  0
 18 19  1  0  0  0  0
 18 20  1  0  0  0  0
 18 21  1  0  0  0  0
 21 22  1  0  0  0  0
 22 23  1  0  0  0  0
 22 24  2  0  0  0  0
 24 25  1  0  0  0  0
 25 26  2  0  0  0  0
  5 27  1  0  0  0  0
 27 28  2  0  0  0  0
 28  2  1  0  0  0  0
 26  6  1  0  0  0  0
 17  7  1  0  0  0  0
 26 21  1  0  0  0  0
 16 11  1  0  0  0  0
  1 29  1  0  0  0  0
  1 30  1  0  0  0  0
  1 31  1  0  0  0  0
  3 32  1  0  0  0  0
  4 33  1  0  0  0  0
  8 34  1  0  0  0  0
  9 35  1  0  0  0  0
 12 36  1  0  0  0  0
 13 37  1  0  0  0  0
 14 38  1  0  0  0  0
 15 39  1  0  0  0  0
 16 40  1  0  0  0  0
 24 41  1  0  0  0  0
 25 42  1  0  0  0  0
 27 43  1  0  0  0  0
 28 44  1  0  0  0  0
M  CHG  1  17   1
M  CHG  1  18  -1
M  END
