
  xtb     03012221313D
 energy: -9.499522799231 gnorm: 0.000485779464 xtb: 6.4.1 (afa7bdf)
 44 46  0     0  0            999 V2000
    2.8947    2.3685   -1.6181 C   0  0  0  0  0  0  0  0  0  0  0  0
    3.3406    1.5702   -0.5489 O   0  0  0  0  0  0  0  0  0  0  0  0
    2.3708    0.7428    0.0169 C   0  0  0  0  0  0  0  0  0  0  0  0
    1.0465    0.6937   -0.4051 C   0  0  0  0  0  0  0  0  0  0  0  0
    0.1192   -0.1487    0.1889 C   0  0  0  0  0  0  0  0  0  0  0  0
   -1.2351   -0.1732   -0.2656 N   0  0  0  0  0  0  0  0  0  0  0  0
   -2.0133   -1.3781   -0.1702 C   0  0  0  0  0  0  0  0  0  0  0  0
   -3.3562   -1.3265    0.1944 C   0  0  0  0  0  0  0  0  0  0  0  0
   -4.1024   -2.4797    0.2862 C   0  0  0  0  0  0  0  0  0  0  0  0
   -3.5235   -3.7031    0.0138 C   0  0  0  0  0  0  0  0  0  0  0  0
   -2.1942   -3.7699   -0.3532 C   0  0  0  0  0  0  0  0  0  0  0  0
   -1.4446   -2.6191   -0.4463 C   0  0  0  0  0  0  0  0  0  0  0  0
   -1.8326    1.0116   -0.8197 C   0  0  0  0  0  0  0  0  0  0  0  0
   -1.5995    2.2607   -0.2494 C   0  0  0  0  0  0  0  0  0  0  0  0
   -2.1749    3.3922   -0.7817 C   0  0  0  0  0  0  0  0  0  0  0  0
   -2.9932    3.2974   -1.8896 C   0  0  0  0  0  0  0  0  0  0  0  0
   -3.2363    2.0656   -2.4639 C   0  0  0  0  0  0  0  0  0  0  0  0
   -2.6631    0.9315   -1.9345 C   0  0  0  0  0  0  0  0  0  0  0  0
    0.5360   -0.9656    1.2409 C   0  0  0  0  0  0  0  0  0  0  0  0
    1.8326   -0.9373    1.6770 C   0  0  0  0  0  0  0  0  0  0  0  0
    2.7791   -0.0950    1.0888 C   0  0  0  0  0  0  0  0  0  0  0  0
    4.1565   -0.0216    1.5021 C   0  0  0  0  0  0  0  0  0  0  0  0
    4.7727   -0.6849    2.5095 C   0  0  0  0  0  0  0  0  0  0  0  0
    6.1159   -0.4005    2.7557 C   0  0  0  0  0  0  0  0  0  0  0  0
    7.2362   -0.1454    2.9388 N   0  0  0  0  0  0  0  0  0  0  0  0
    4.1409   -1.6395    3.3049 C   0  0  0  0  0  0  0  0  0  0  0  0
    3.5530   -2.4223    3.9329 N   0  0  0  0  0  0  0  0  0  0  0  0
    2.5340    1.7343   -2.4287 H   0  0  0  0  0  0  0  0  0  0  0  0
    3.7374    2.9596   -1.9783 H   0  0  0  0  0  0  0  0  0  0  0  0
    2.1087    3.0425   -1.2753 H   0  0  0  0  0  0  0  0  0  0  0  0
    0.7208    1.3116   -1.2186 H   0  0  0  0  0  0  0  0  0  0  0  0
   -3.7986   -0.3708    0.4128 H   0  0  0  0  0  0  0  0  0  0  0  0
   -5.1398   -2.4282    0.5735 H   0  0  0  0  0  0  0  0  0  0  0  0
   -4.1084   -4.6055    0.0878 H   0  0  0  0  0  0  0  0  0  0  0  0
   -1.7430   -4.7248   -0.5673 H   0  0  0  0  0  0  0  0  0  0  0  0
   -0.4113   -2.6636   -0.7418 H   0  0  0  0  0  0  0  0  0  0  0  0
   -0.9701    2.3258    0.6204 H   0  0  0  0  0  0  0  0  0  0  0  0
   -1.9883    4.3533   -0.3315 H   0  0  0  0  0  0  0  0  0  0  0  0
   -3.4433    4.1843   -2.3051 H   0  0  0  0  0  0  0  0  0  0  0  0
   -3.8753    1.9921   -3.3285 H   0  0  0  0  0  0  0  0  0  0  0  0
   -2.8429   -0.0306   -2.3803 H   0  0  0  0  0  0  0  0  0  0  0  0
   -0.1831   -1.6092    1.7163 H   0  0  0  0  0  0  0  0  0  0  0  0
    2.1204   -1.5771    2.4897 H   0  0  0  0  0  0  0  0  0  0  0  0
    4.7572    0.6823    0.9505 H   0  0  0  0  0  0  0  0  0  0  0  0
  1  2  1  0  0  0  0
  2  3  1  0  0  0  0
  3  4  2  0  0  0  0
  4  5  1  0  0  0  0
  5  6  1  0  0  0  0
  6  7  1  0  0  0  0
  7  8  2  0  0  0  0
  8  9  1  0  0  0  0
  9 10  2  0  0  0  0
 10 11  1  0  0  0  0
 11 12  2  0  0  0  0
  6 13  1  0  0  0  0
 13 14  2  0  0  0  0
 14 15  1  0  0  0  0
 15 16  2  0  0  0  0
 16 17  1  0  0  0  0
 17 18  2  0  0  0  0
  5 19  2  0  0  0  0
 19 20  1  0  0  0  0
 20 21  2  0  0  0  0
 21 22  1  0  0  0  0
 22 23  2  0  0  0  0
 23 24  1  0  0  0  0
 24 25  3  0  0  0  0
 23 26  1  0  0  0  0
 26 27  3  0  0  0  0
 21  3  1  0  0  0  0
 12  7  1  0  0  0  0
 18 13  1  0  0  0  0
  1 28  1  0  0  0  0
  1 29  1  0  0  0  0
  1 30  1  0  0  0  0
  4 31  1  0  0  0  0
  8 32  1  0  0  0  0
  9 33  1  0  0  0  0
 10 34  1  0  0  0  0
 11 35  1  0  0  0  0
 12 36  1  0  0  0  0
 14 37  1  0  0  0  0
 15 38  1  0  0  0  0
 16 39  1  0  0  0  0
 17 40  1  0  0  0  0
 18 41  1  0  0  0  0
 19 42  1  0  0  0  0
 20 43  1  0  0  0  0
 22 44  1  0  0  0  0
M  END
