
  xtb     03012221313D
 energy: -14.633653511569 gnorm: 0.000668584592 xtb: 6.4.1 (afa7bdf)
 75 79  0     0  0            999 V2000
   -5.4061    0.9527    4.6213 C   0  0  0  0  0  0  0  0  0  0  0  0
   -5.3169    1.4438    3.1864 C   0  0  0  0  0  0  0  0  0  0  0  0
   -5.6708    0.3676    2.1688 C   0  0  0  0  0  0  0  0  0  0  0  0
   -5.5391    0.8573    0.7813 N   0  0  0  0  0  0  0  0  0  0  0  0
   -6.6280    1.6154    0.2357 C   0  0  0  0  0  0  0  0  0  0  0  0
   -7.9368    1.1337    0.2779 C   0  0  0  0  0  0  0  0  0  0  0  0
   -8.9750    1.8755   -0.2370 C   0  0  0  0  0  0  0  0  0  0  0  0
   -8.7317    3.1129   -0.8001 C   0  0  0  0  0  0  0  0  0  0  0  0
   -7.4431    3.6073   -0.8469 C   0  0  0  0  0  0  0  0  0  0  0  0
   -6.4019    2.8686   -0.3347 C   0  0  0  0  0  0  0  0  0  0  0  0
   -4.3055    0.7086    0.0959 C   0  0  0  0  0  0  0  0  0  0  0  0
   -4.2504    0.9038   -1.2925 C   0  0  0  0  0  0  0  0  0  0  0  0
   -3.0771    0.7707   -1.9963 C   0  0  0  0  0  0  0  0  0  0  0  0
   -1.9164    0.4307   -1.3098 C   0  0  0  0  0  0  0  0  0  0  0  0
   -1.9515    0.2249    0.0725 C   0  0  0  0  0  0  0  0  0  0  0  0
   -3.1293    0.3571    0.7700 C   0  0  0  0  0  0  0  0  0  0  0  0
   -0.5483   -0.1462    0.5782 C   0  0  0  0  0  0  0  0  0  0  0  0
   -0.6184   -1.5728    1.2084 C   0  0  0  0  0  0  0  0  0  0  0  0
    0.6726   -2.3772    1.2224 C   0  0  0  0  0  0  0  0  0  0  0  0
   -0.0973    0.9471    1.5891 C   0  0  0  0  0  0  0  0  0  0  0  0
    1.2398    0.7385    2.2778 C   0  0  0  0  0  0  0  0  0  0  0  0
    0.2790   -0.1086   -0.7170 C   0  0  0  0  0  0  0  0  0  0  0  0
    1.6196   -0.3328   -0.9353 C   0  0  0  0  0  0  0  0  0  0  0  0
    2.1553   -0.2327   -2.2266 C   0  0  0  0  0  0  0  0  0  0  0  0
    3.5599   -0.4689   -2.4927 C   0  0  0  0  0  0  0  0  0  0  0  0
    4.4659   -0.8532   -1.5725 C   0  0  0  0  0  0  0  0  0  0  0  0
    5.8506   -1.0852   -1.8334 C   0  0  0  0  0  0  0  0  0  0  0  0
    6.5230   -0.9572   -3.0234 C   0  0  0  0  0  0  0  0  0  0  0  0
    7.8917   -1.2656   -2.9384 C   0  0  0  0  0  0  0  0  0  0  0  0
    8.3126   -1.6395   -1.6839 C   0  0  0  0  0  0  0  0  0  0  0  0
    9.6575   -1.9974   -1.3668 C   0  0  0  0  0  0  0  0  0  0  0  0
   10.1489   -2.3814   -0.1644 C   0  0  0  0  0  0  0  0  0  0  0  0
    9.3846   -2.4909    0.9942 C   0  0  0  0  0  0  0  0  0  0  0  0
    8.7381   -2.5866    1.9562 N   0  0  0  0  0  0  0  0  0  0  0  0
   11.5861   -2.7038   -0.0896 C   0  0  0  0  0  0  0  0  0  0  0  0
   12.2781   -2.6230   -1.0886 O   0  0  0  0  0  0  0  0  0  0  0  0
   12.1008   -3.0859    1.1056 O   0  0  0  0  0  0  0  0  0  0  0  0
    6.9534   -1.5980   -0.5934 S   0  0  0  0  0  0  0  0  0  0  0  0
    1.2982    0.1058   -3.2850 C   0  0  0  0  0  0  0  0  0  0  0  0
   -0.0410    0.3359   -3.0786 C   0  0  0  0  0  0  0  0  0  0  0  0
   -0.5538    0.2299   -1.7910 C   0  0  0  0  0  0  0  0  0  0  0  0
   -6.4130    0.6041    4.8569 H   0  0  0  0  0  0  0  0  0  0  0  0
   -4.7268    0.1163    4.7945 H   0  0  0  0  0  0  0  0  0  0  0  0
   -5.1530    1.7357    5.3392 H   0  0  0  0  0  0  0  0  0  0  0  0
   -4.3098    1.8253    2.9760 H   0  0  0  0  0  0  0  0  0  0  0  0
   -5.9785    2.3070    3.0364 H   0  0  0  0  0  0  0  0  0  0  0  0
   -5.0461   -0.5193    2.2975 H   0  0  0  0  0  0  0  0  0  0  0  0
   -6.6953    0.0242    2.3280 H   0  0  0  0  0  0  0  0  0  0  0  0
   -8.1238    0.1595    0.6941 H   0  0  0  0  0  0  0  0  0  0  0  0
   -9.9804    1.4882   -0.2042 H   0  0  0  0  0  0  0  0  0  0  0  0
   -9.5464    3.6917   -1.2026 H   0  0  0  0  0  0  0  0  0  0  0  0
   -7.2529    4.5744   -1.2830 H   0  0  0  0  0  0  0  0  0  0  0  0
   -5.3979    3.2554   -0.3546 H   0  0  0  0  0  0  0  0  0  0  0  0
   -5.1589    1.1481   -1.8136 H   0  0  0  0  0  0  0  0  0  0  0  0
   -3.0457    0.9218   -3.0607 H   0  0  0  0  0  0  0  0  0  0  0  0
   -3.1300    0.2010    1.8317 H   0  0  0  0  0  0  0  0  0  0  0  0
   -1.0213   -1.4797    2.2232 H   0  0  0  0  0  0  0  0  0  0  0  0
   -1.3775   -2.1389    0.6544 H   0  0  0  0  0  0  0  0  0  0  0  0
    1.0227   -2.5799    0.2092 H   0  0  0  0  0  0  0  0  0  0  0  0
    1.4766   -1.8606    1.7443 H   0  0  0  0  0  0  0  0  0  0  0  0
    0.5412   -3.3442    1.7125 H   0  0  0  0  0  0  0  0  0  0  0  0
   -0.0927    1.9044    1.0548 H   0  0  0  0  0  0  0  0  0  0  0  0
   -0.8825    1.0493    2.3470 H   0  0  0  0  0  0  0  0  0  0  0  0
    2.0547    0.6439    1.5612 H   0  0  0  0  0  0  0  0  0  0  0  0
    1.4902    1.5769    2.9317 H   0  0  0  0  0  0  0  0  0  0  0  0
    1.2345   -0.1551    2.9022 H   0  0  0  0  0  0  0  0  0  0  0  0
    2.2532   -0.5912   -0.1105 H   0  0  0  0  0  0  0  0  0  0  0  0
    3.8907   -0.3275   -3.5051 H   0  0  0  0  0  0  0  0  0  0  0  0
    4.1503   -1.0108   -0.5565 H   0  0  0  0  0  0  0  0  0  0  0  0
    6.0465   -0.6492   -3.9408 H   0  0  0  0  0  0  0  0  0  0  0  0
    8.5609   -1.2154   -3.7836 H   0  0  0  0  0  0  0  0  0  0  0  0
   10.3672   -1.9597   -2.1765 H   0  0  0  0  0  0  0  0  0  0  0  0
   13.0529   -3.2559    0.9663 H   0  0  0  0  0  0  0  0  0  0  0  0
    1.7063    0.1836   -4.2782 H   0  0  0  0  0  0  0  0  0  0  0  0
   -0.6923    0.5961   -3.8940 H   0  0  0  0  0  0  0  0  0  0  0  0
  1  2  1  0  0  0  0
  2  3  1  0  0  0  0
  3  4  1  0  0  0  0
  4  5  1  0  0  0  0
  5  6  2  0  0  0  0
  6  7  1  0  0  0  0
  7  8  2  0  0  0  0
  8  9  1  0  0  0  0
  9 10  2  0  0  0  0
  4 11  1  0  0  0  0
 11 12  2  0  0  0  0
 12 13  1  0  0  0  0
 13 14  2  0  0  0  0
 14 15  1  0  0  0  0
 15 16  2  0  0  0  0
 15 17  1  0  0  0  0
 17 18  1  0  0  0  0
 18 19  1  0  0  0  0
 17 20  1  0  0  0  0
 20 21  1  0  0  0  0
 17 22  1  0  0  0  0
 22 23  2  0  0  0  0
 23 24  1  0  0  0  0
 24 25  1  0  0  0  0
 25 26  2  0  0  0  0
 26 27  1  0  0  0  0
 27 28  2  0  0  0  0
 28 29  1  0  0  0  0
 29 30  2  0  0  0  0
 30 31  1  0  0  0  0
 31 32  2  0  0  0  0
 32 33  1  0  0  0  0
 33 34  3  0  0  0  0
 32 35  1  0  0  0  0
 35 36  2  0  0  0  0
 35 37  1  0  0  0  0
 30 38  1  0  0  0  0
 24 39  2  0  0  0  0
 39 40  1  0  0  0  0
 40 41  2  0  0  0  0
 10  5  1  0  0  0  0
 16 11  1  0  0  0  0
 41 22  1  0  0  0  0
 41 14  1  0  0  0  0
 38 27  1  0  0  0  0
  1 42  1  0  0  0  0
  1 43  1  0  0  0  0
  1 44  1  0  0  0  0
  2 45  1  0  0  0  0
  2 46  1  0  0  0  0
  3 47  1  0  0  0  0
  3 48  1  0  0  0  0
  6 49  1  0  0  0  0
  7 50  1  0  0  0  0
  8 51  1  0  0  0  0
  9 52  1  0  0  0  0
 10 53  1  0  0  0  0
 12 54  1  0  0  0  0
 13 55  1  0  0  0  0
 16 56  1  0  0  0  0
 18 57  1  0  0  0  0
 18 58  1  0  0  0  0
 19 59  1  0  0  0  0
 19 60  1  0  0  0  0
 19 61  1  0  0  0  0
 20 62  1  0  0  0  0
 20 63  1  0  0  0  0
 21 64  1  0  0  0  0
 21 65  1  0  0  0  0
 21 66  1  0  0  0  0
 23 67  1  0  0  0  0
 25 68  1  0  0  0  0
 26 69  1  0  0  0  0
 28 70  1  0  0  0  0
 29 71  1  0  0  0  0
 31 72  1  0  0  0  0
 37 73  1  0  0  0  0
 39 74  1  0  0  0  0
 40 75  1  0  0  0  0
M  END
