
  xtb     03012221223D
 energy: -8.765236570583 gnorm: 0.000332068767 xtb: 6.4.1 (afa7bdf)
 47 49  0     0  0            999 V2000
    8.4677   -0.6135    0.0510 C   0  0  0  0  0  0  0  0  0  0  0  0
    7.3494    0.3260   -0.0113 N   0  0  0  0  0  0  0  0  0  0  0  0
    7.6792    1.7356   -0.2151 C   0  0  0  0  0  0  0  0  0  0  0  0
    6.0153   -0.1066    0.1117 C   0  0  0  0  0  0  0  0  0  0  0  0
    5.7145   -1.4572    0.3931 C   0  0  0  0  0  0  0  0  0  0  0  0
    4.4246   -1.8980    0.5150 C   0  0  0  0  0  0  0  0  0  0  0  0
    3.3636   -0.9928    0.3581 C   0  0  0  0  0  0  0  0  0  0  0  0
    2.0220   -1.3073    0.4567 N   0  0  0  0  0  0  0  0  0  0  0  0
    1.2640   -0.2661    0.2649 C   0  0  0  0  0  0  0  0  0  0  0  0
   -0.1792   -0.3167    0.3138 C   0  0  0  0  0  0  0  0  0  0  0  0
   -0.9551    0.8246    0.1029 C   0  0  0  0  0  0  0  0  0  0  0  0
   -2.3258    0.7599    0.1527 C   0  0  0  0  0  0  0  0  0  0  0  0
   -2.9652   -0.4448    0.4141 C   0  0  0  0  0  0  0  0  0  0  0  0
   -4.4424   -0.5198    0.4679 C   0  0  0  0  0  0  0  0  0  0  0  0
   -4.9773   -1.5895    0.6922 O   0  0  0  0  0  0  0  0  0  0  0  0
   -5.1035    0.6640    0.2524 O   0  0  0  0  0  0  0  0  0  0  0  0
   -6.5492    0.5550    0.3101 C   0  0  0  0  0  0  0  0  0  0  0  0
   -6.9797    0.0763    1.7018 C   0  0  0  0  0  0  0  0  0  0  0  0
   -7.1261    1.9535    0.0501 C   0  0  0  0  0  0  0  0  0  0  0  0
   -7.0413   -0.4098   -0.7754 C   0  0  0  0  0  0  0  0  0  0  0  0
   -2.2005   -1.5842    0.6249 C   0  0  0  0  0  0  0  0  0  0  0  0
   -0.8295   -1.5227    0.5760 C   0  0  0  0  0  0  0  0  0  0  0  0
    2.1629    1.2246   -0.0630 S   0  0  0  0  0  0  0  0  0  0  0  0
    3.6532    0.3480    0.0784 C   0  0  0  0  0  0  0  0  0  0  0  0
    4.9587    0.7875   -0.0426 C   0  0  0  0  0  0  0  0  0  0  0  0
    9.4086   -0.1201   -0.1831 H   0  0  0  0  0  0  0  0  0  0  0  0
    8.5424   -1.0384    1.0501 H   0  0  0  0  0  0  0  0  0  0  0  0
    8.3214   -1.4165   -0.6687 H   0  0  0  0  0  0  0  0  0  0  0  0
    8.7541    1.8975   -0.1717 H   0  0  0  0  0  0  0  0  0  0  0  0
    7.3213    2.0646   -1.1888 H   0  0  0  0  0  0  0  0  0  0  0  0
    7.2158    2.3436    0.5594 H   0  0  0  0  0  0  0  0  0  0  0  0
    6.5226   -2.1546    0.5204 H   0  0  0  0  0  0  0  0  0  0  0  0
    4.2030   -2.9274    0.7305 H   0  0  0  0  0  0  0  0  0  0  0  0
   -0.4619    1.7591   -0.1000 H   0  0  0  0  0  0  0  0  0  0  0  0
   -2.9252    1.6387   -0.0096 H   0  0  0  0  0  0  0  0  0  0  0  0
   -6.6121    0.7575    2.4669 H   0  0  0  0  0  0  0  0  0  0  0  0
   -6.5652   -0.9094    1.9054 H   0  0  0  0  0  0  0  0  0  0  0  0
   -8.0641    0.0173    1.7808 H   0  0  0  0  0  0  0  0  0  0  0  0
   -8.2147    1.9439    0.0818 H   0  0  0  0  0  0  0  0  0  0  0  0
   -6.8117    2.3162   -0.9267 H   0  0  0  0  0  0  0  0  0  0  0  0
   -6.7647    2.6561    0.7987 H   0  0  0  0  0  0  0  0  0  0  0  0
   -8.1279   -0.4811   -0.7772 H   0  0  0  0  0  0  0  0  0  0  0  0
   -6.6309   -1.4041   -0.6090 H   0  0  0  0  0  0  0  0  0  0  0  0
   -6.7136   -0.0735   -1.7572 H   0  0  0  0  0  0  0  0  0  0  0  0
   -2.7060   -2.5127    0.8266 H   0  0  0  0  0  0  0  0  0  0  0  0
   -0.2348   -2.4048    0.7392 H   0  0  0  0  0  0  0  0  0  0  0  0
    5.1438    1.8217   -0.2638 H   0  0  0  0  0  0  0  0  0  0  0  0
  1  2  1  0  0  0  0
  2  3  1  0  0  0  0
  2  4  1  0  0  0  0
  4  5  2  0  0  0  0
  5  6  1  0  0  0  0
  6  7  2  0  0  0  0
  7  8  1  0  0  0  0
  8  9  2  0  0  0  0
  9 10  1  0  0  0  0
 10 11  2  0  0  0  0
 11 12  1  0  0  0  0
 12 13  2  0  0  0  0
 13 14  1  0  0  0  0
 14 15  2  0  0  0  0
 14 16  1  0  0  0  0
 16 17  1  0  0  0  0
 17 18  1  0  0  0  0
 17 19  1  0  0  0  0
 17 20  1  0  0  0  0
 13 21  1  0  0  0  0
 21 22  2  0  0  0  0
  9 23  1  0  0  0  0
 23 24  1  0  0  0  0
 24 25  2  0  0  0  0
 25  4  1  0  0  0  0
 24  7  1  0  0  0  0
 22 10  1  0  0  0  0
  1 26  1  0  0  0  0
  1 27  1  0  0  0  0
  1 28  1  0  0  0  0
  3 29  1  0  0  0  0
  3 30  1  0  0  0  0
  3 31  1  0  0  0  0
  5 32  1  0  0  0  0
  6 33  1  0  0  0  0
 11 34  1  0  0  0  0
 12 35  1  0  0  0  0
 18 36  1  0  0  0  0
 18 37  1  0  0  0  0
 18 38  1  0  0  0  0
 19 39  1  0  0  0  0
 19 40  1  0  0  0  0
 19 41  1  0  0  0  0
 20 42  1  0  0  0  0
 20 43  1  0  0  0  0
 20 44  1  0  0  0  0
 21 45  1  0  0  0  0
 22 46  1  0  0  0  0
 25 47  1  0  0  0  0
M  END
