
  xtb     03012221223D
 energy: -5.742298831061 gnorm: 0.000130886449 xtb: 6.4.1 (afa7bdf)
 26 29  0     0  0            999 V2000
    3.3378   -1.0131    0.2244 C   0  0  0  0  0  0  0  0  0  0  0  0
    2.3388   -1.9635    0.1740 C   0  0  0  0  0  0  0  0  0  0  0  0
    0.9985   -1.5857    0.0843 C   0  0  0  0  0  0  0  0  0  0  0  0
   -0.0661   -2.5418    0.0298 C   0  0  0  0  0  0  0  0  0  0  0  0
   -1.3562   -2.1503   -0.0570 C   0  0  0  0  0  0  0  0  0  0  0  0
   -1.7106   -0.7635   -0.0979 C   0  0  0  0  0  0  0  0  0  0  0  0
   -3.0348   -0.3325   -0.1873 C   0  0  0  0  0  0  0  0  0  0  0  0
   -3.3378    1.0131   -0.2245 C   0  0  0  0  0  0  0  0  0  0  0  0
   -2.3388    1.9634   -0.1740 C   0  0  0  0  0  0  0  0  0  0  0  0
   -0.9985    1.5857   -0.0843 C   0  0  0  0  0  0  0  0  0  0  0  0
    0.0661    2.5418   -0.0298 C   0  0  0  0  0  0  0  0  0  0  0  0
    1.3562    2.1503    0.0570 C   0  0  0  0  0  0  0  0  0  0  0  0
    1.7106    0.7635    0.0979 C   0  0  0  0  0  0  0  0  0  0  0  0
    3.0347    0.3325    0.1873 C   0  0  0  0  0  0  0  0  0  0  0  0
    0.6807   -0.2066    0.0458 C   0  0  0  0  0  0  0  0  0  0  0  0
   -0.6807    0.2066   -0.0458 C   0  0  0  0  0  0  0  0  0  0  0  0
    4.3670   -1.3254    0.2937 H   0  0  0  0  0  0  0  0  0  0  0  0
    2.5859   -3.0107    0.2036 H   0  0  0  0  0  0  0  0  0  0  0  0
    0.1822   -3.5887    0.0595 H   0  0  0  0  0  0  0  0  0  0  0  0
   -2.1439   -2.8826   -0.0970 H   0  0  0  0  0  0  0  0  0  0  0  0
   -3.8216   -1.0658   -0.2273 H   0  0  0  0  0  0  0  0  0  0  0  0
   -4.3670    1.3254   -0.2937 H   0  0  0  0  0  0  0  0  0  0  0  0
   -2.5859    3.0106   -0.2036 H   0  0  0  0  0  0  0  0  0  0  0  0
   -0.1822    3.5886   -0.0595 H   0  0  0  0  0  0  0  0  0  0  0  0
    2.1439    2.8826    0.0969 H   0  0  0  0  0  0  0  0  0  0  0  0
    3.8216    1.0659    0.2272 H   0  0  0  0  0  0  0  0  0  0  0  0
  1  2  2  0  0  0  0
  2  3  1  0  0  0  0
  3  4  2  0  0  0  0
  4  5  1  0  0  0  0
  5  6  2  0  0  0  0
  6  7  1  0  0  0  0
  7  8  2  0  0  0  0
  8  9  1  0  0  0  0
  9 10  2  0  0  0  0
 10 11  1  0  0  0  0
 11 12  2  0  0  0  0
 12 13  1  0  0  0  0
 13 14  2  0  0  0  0
 13 15  1  0  0  0  0
 15 16  2  0  0  0  0
 14  1  1  0  0  0  0
 15  3  1  0  0  0  0
 16  6  1  0  0  0  0
 16 10  1  0  0  0  0
  1 17  1  0  0  0  0
  2 18  1  0  0  0  0
  4 19  1  0  0  0  0
  5 20  1  0  0  0  0
  7 21  1  0  0  0  0
  8 22  1  0  0  0  0
  9 23  1  0  0  0  0
 11 24  1  0  0  0  0
 12 25  1  0  0  0  0
 14 26  1  0  0  0  0
M  END
