
  xtb     03012221273D
 energy: -6.201510967372 gnorm: 0.000321588743 xtb: 6.4.1 (afa7bdf)
 33 35  0     0  0            999 V2000
    1.7933    3.0027    1.3004 C   0  0  0  0  0  0  0  0  0  0  0  0
    1.0549    1.7872    0.8865 C   0  0  0  0  0  0  0  0  0  0  0  0
   -0.2790    1.7386    0.7081 N   0  0  0  0  0  0  0  0  0  0  0  0
   -0.5723    0.5094    0.3088 C   0  0  0  0  0  0  0  0  0  0  0  0
   -1.9270    0.0612   -0.0336 C   0  0  0  0  0  0  0  0  0  0  0  0
   -2.3586   -1.2166    0.2978 C   0  0  0  0  0  0  0  0  0  0  0  0
   -3.6163   -1.6680   -0.0467 C   0  0  0  0  0  0  0  0  0  0  0  0
   -4.0040   -2.9281    0.2852 F   0  0  0  0  0  0  0  0  0  0  0  0
   -4.4745   -0.8274   -0.7336 C   0  0  0  0  0  0  0  0  0  0  0  0
   -4.0870    0.4518   -1.0536 C   0  0  0  0  0  0  0  0  0  0  0  0
   -2.8245    0.9277   -0.7057 C   0  0  0  0  0  0  0  0  0  0  0  0
   -2.4764    2.2243   -1.0195 O   0  0  0  0  0  0  0  0  0  0  0  0
    0.5916   -0.2542    0.1888 N   0  0  0  0  0  0  0  0  0  0  0  0
    1.6230    0.5681    0.5498 C   0  0  0  0  0  0  0  0  0  0  0  0
    3.0610    0.1834    0.4748 C   0  0  0  0  0  0  0  0  0  0  0  0
    3.2637   -1.0046   -0.4831 C   0  0  0  0  0  0  0  0  0  0  0  0
    2.2094   -2.1038   -0.2628 C   0  0  0  0  0  0  0  0  0  0  0  0
    0.7788   -1.5800   -0.4407 C   0  0  0  0  0  0  0  0  0  0  0  0
    2.3190    3.4441    0.4538 H   0  0  0  0  0  0  0  0  0  0  0  0
    2.5236    2.7713    2.0757 H   0  0  0  0  0  0  0  0  0  0  0  0
    1.1040    3.7482    1.6963 H   0  0  0  0  0  0  0  0  0  0  0  0
   -1.7269   -1.8640    0.8748 H   0  0  0  0  0  0  0  0  0  0  0  0
   -5.4504   -1.1925   -0.9991 H   0  0  0  0  0  0  0  0  0  0  0  0
   -4.7545    1.1157   -1.5732 H   0  0  0  0  0  0  0  0  0  0  0  0
   -1.6139    2.4138   -0.5908 H   0  0  0  0  0  0  0  0  0  0  0  0
    3.4156   -0.0738    1.4790 H   0  0  0  0  0  0  0  0  0  0  0  0
    3.6529    1.0494    0.1555 H   0  0  0  0  0  0  0  0  0  0  0  0
    3.1963   -0.6476   -1.5180 H   0  0  0  0  0  0  0  0  0  0  0  0
    4.2774   -1.4158   -0.3803 H   0  0  0  0  0  0  0  0  0  0  0  0
    2.3200   -2.5054    0.7513 H   0  0  0  0  0  0  0  0  0  0  0  0
    2.3934   -2.9526   -0.9351 H   0  0  0  0  0  0  0  0  0  0  0  0
    0.0559   -2.2804   -0.0153 H   0  0  0  0  0  0  0  0  0  0  0  0
    0.5313   -1.4821   -1.5018 H   0  0  0  0  0  0  0  0  0  0  0  0
  1  2  1  0  0  0  0
  2  3  1  0  0  0  0
  3  4  2  0  0  0  0
  4  5  1  0  0  0  0
  5  6  2  0  0  0  0
  6  7  1  0  0  0  0
  7  8  1  0  0  0  0
  7  9  2  0  0  0  0
  9 10  1  0  0  0  0
 10 11  2  0  0  0  0
 11 12  1  0  0  0  0
  4 13  1  0  0  0  0
 13 14  1  0  0  0  0
 14 15  1  0  0  0  0
 15 16  1  0  0  0  0
 16 17  1  0  0  0  0
 17 18  1  0  0  0  0
 14  2  2  0  0  0  0
 11  5  1  0  0  0  0
 18 13  1  0  0  0  0
  1 19  1  0  0  0  0
  1 20  1  0  0  0  0
  1 21  1  0  0  0  0
  6 22  1  0  0  0  0
  9 23  1  0  0  0  0
 10 24  1  0  0  0  0
 12 25  1  0  0  0  0
 15 26  1  0  0  0  0
 15 27  1  0  0  0  0
 16 28  1  0  0  0  0
 16 29  1  0  0  0  0
 17 30  1  0  0  0  0
 17 31  1  0  0  0  0
 18 32  1  0  0  0  0
 18 33  1  0  0  0  0
M  END
