
  xtb     03012221283D
 energy: -6.358264728009 gnorm: 0.000212161952 xtb: 6.4.1 (afa7bdf)
 34 35  0     0  0            999 V2000
    5.4637   -0.5912   -1.1161 C   0  0  0  0  0  0  0  0  0  0  0  0
    4.8945    0.5913   -0.3565 C   0  0  0  0  0  0  0  0  0  0  0  0
    3.8143    0.1709    0.5986 C   0  0  0  0  0  0  0  0  0  0  0  0
    4.1257   -0.2055    1.7062 O   0  0  0  0  0  0  0  0  0  0  0  0
    2.3998    0.1903    0.1883 C   0  0  0  0  0  0  0  0  0  0  0  0
    1.9894    0.4281   -1.1429 C   0  0  0  0  0  0  0  0  0  0  0  0
    0.6717    0.4292   -1.4790 C   0  0  0  0  0  0  0  0  0  0  0  0
   -0.3266    0.1886   -0.5037 C   0  0  0  0  0  0  0  0  0  0  0  0
   -1.6948    0.1831   -0.8190 C   0  0  0  0  0  0  0  0  0  0  0  0
   -2.6604   -0.0591    0.1410 C   0  0  0  0  0  0  0  0  0  0  0  0
   -4.0260   -0.0652   -0.1920 N   0  0  0  0  0  0  0  0  0  0  0  0
   -5.0522   -0.4169    0.7898 C   0  0  0  0  0  0  0  0  0  0  0  0
   -4.4878    0.2676   -1.5397 C   0  0  0  0  0  0  0  0  0  0  0  0
   -2.2380   -0.3039    1.4715 C   0  0  0  0  0  0  0  0  0  0  0  0
   -0.9221   -0.3049    1.8072 C   0  0  0  0  0  0  0  0  0  0  0  0
    0.0741   -0.0593    0.8323 C   0  0  0  0  0  0  0  0  0  0  0  0
    1.4440   -0.0533    1.1444 C   0  0  0  0  0  0  0  0  0  0  0  0
    5.8624   -1.3367   -0.4263 H   0  0  0  0  0  0  0  0  0  0  0  0
    6.2688   -0.2979   -1.7925 H   0  0  0  0  0  0  0  0  0  0  0  0
    4.6936   -1.0854   -1.7102 H   0  0  0  0  0  0  0  0  0  0  0  0
    5.6831    1.0818    0.2265 H   0  0  0  0  0  0  0  0  0  0  0  0
    4.5165    1.3615   -1.0383 H   0  0  0  0  0  0  0  0  0  0  0  0
    2.7315    0.5974   -1.9027 H   0  0  0  0  0  0  0  0  0  0  0  0
    0.3703    0.6107   -2.4962 H   0  0  0  0  0  0  0  0  0  0  0  0
   -1.9875    0.3646   -1.8356 H   0  0  0  0  0  0  0  0  0  0  0  0
   -4.8217   -1.3790    1.2426 H   0  0  0  0  0  0  0  0  0  0  0  0
   -6.0321   -0.4915    0.3235 H   0  0  0  0  0  0  0  0  0  0  0  0
   -5.0991    0.3424    1.5678 H   0  0  0  0  0  0  0  0  0  0  0  0
   -5.5733    0.3266   -1.5790 H   0  0  0  0  0  0  0  0  0  0  0  0
   -4.0877    1.2326   -1.8439 H   0  0  0  0  0  0  0  0  0  0  0  0
   -4.1597   -0.4937   -2.2445 H   0  0  0  0  0  0  0  0  0  0  0  0
   -2.9785   -0.4855    2.2293 H   0  0  0  0  0  0  0  0  0  0  0  0
   -0.6190   -0.4918    2.8229 H   0  0  0  0  0  0  0  0  0  0  0  0
    1.7628   -0.2460    2.1530 H   0  0  0  0  0  0  0  0  0  0  0  0
  1  2  1  0  0  0  0
  2  3  1  0  0  0  0
  3  4  2  0  0  0  0
  3  5  1  0  0  0  0
  5  6  2  0  0  0  0
  6  7  1  0  0  0  0
  7  8  2  0  0  0  0
  8  9  1  0  0  0  0
  9 10  2  0  0  0  0
 10 11  1  0  0  0  0
 11 12  1  0  0  0  0
 11 13  1  0  0  0  0
 10 14  1  0  0  0  0
 14 15  2  0  0  0  0
 15 16  1  0  0  0  0
 16 17  2  0  0  0  0
 17  5  1  0  0  0  0
 16  8  1  0  0  0  0
  1 18  1  0  0  0  0
  1 19  1  0  0  0  0
  1 20  1  0  0  0  0
  2 21  1  0  0  0  0
  2 22  1  0  0  0  0
  6 23  1  0  0  0  0
  7 24  1  0  0  0  0
  9 25  1  0  0  0  0
 12 26  1  0  0  0  0
 12 27  1  0  0  0  0
 12 28  1  0  0  0  0
 13 29  1  0  0  0  0
 13 30  1  0  0  0  0
 13 31  1  0  0  0  0
 14 32  1  0  0  0  0
 15 33  1  0  0  0  0
 17 34  1  0  0  0  0
M  END
