
  xtb     03012221243D
 energy: -13.884262996016 gnorm: 0.000290488261 xtb: 6.4.1 (afa7bdf)
 74 77  0     0  0            999 V2000
   11.0183    0.0833   -1.5812 C   0  0  0  0  0  0  0  0  0  0  0  0
   10.5804    1.1148   -0.6424 N   0  0  0  0  0  0  0  0  0  0  0  0
   11.6026    2.0317   -0.1413 C   0  0  0  0  0  0  0  0  0  0  0  0
    9.2363    1.2156   -0.2361 C   0  0  0  0  0  0  0  0  0  0  0  0
    8.8426    2.1571    0.7397 C   0  0  0  0  0  0  0  0  0  0  0  0
    7.5422    2.2676    1.1514 C   0  0  0  0  0  0  0  0  0  0  0  0
    6.5645    1.4281    0.5958 C   0  0  0  0  0  0  0  0  0  0  0  0
    5.2228    1.4319    0.9271 N   0  0  0  0  0  0  0  0  0  0  0  0
    4.5521    0.5396    0.2562 C   0  0  0  0  0  0  0  0  0  0  0  0
    3.1325    0.3273    0.4187 C   0  0  0  0  0  0  0  0  0  0  0  0
    2.4108    1.0900    1.3371 C   0  0  0  0  0  0  0  0  0  0  0  0
    1.0642    0.8897    1.5086 C   0  0  0  0  0  0  0  0  0  0  0  0
    0.3959   -0.0763    0.7704 C   0  0  0  0  0  0  0  0  0  0  0  0
   -1.0521   -0.2943    0.9632 C   0  0  0  0  0  0  0  0  0  0  0  0
   -1.6737    0.4245    1.7205 O   0  0  0  0  0  0  0  0  0  0  0  0
   -1.5997   -1.3228    0.2473 O   0  0  0  0  0  0  0  0  0  0  0  0
   -2.9865   -1.4404    0.4847 C   0  0  0  0  0  0  0  0  0  0  0  0
   -3.7709   -1.4543   -0.8238 C   0  0  0  0  0  0  0  0  0  0  0  0
   -3.6145   -0.1705   -1.4968 N   0  0  0  0  0  0  0  0  0  0  0  0
   -3.8969    1.0151   -0.8357 C   0  0  0  0  0  0  0  0  0  0  0  0
   -4.5281    1.0085    0.2071 O   0  0  0  0  0  0  0  0  0  0  0  0
   -3.3723    2.1461   -1.4029 O   0  0  0  0  0  0  0  0  0  0  0  0
   -3.4607    3.3155   -0.5494 C   0  0  0  0  0  0  0  0  0  0  0  0
   -2.7729    4.4733   -1.2873 C   0  0  0  0  0  0  0  0  0  0  0  0
   -2.7232    3.0358    0.7702 C   0  0  0  0  0  0  0  0  0  0  0  0
   -4.9328    3.6693   -0.2977 C   0  0  0  0  0  0  0  0  0  0  0  0
   -5.2348   -1.7765   -0.6119 C   0  0  0  0  0  0  0  0  0  0  0  0
   -5.9600   -1.8452   -1.5788 O   0  0  0  0  0  0  0  0  0  0  0  0
   -5.6289   -1.9945    0.6746 O   0  0  0  0  0  0  0  0  0  0  0  0
   -7.0161   -2.2419    0.7379 C   0  0  0  0  0  0  0  0  0  0  0  0
   -7.3662   -3.6873    0.5548 C   0  0  0  0  0  0  0  0  0  0  0  0
   -7.7487   -4.4703    1.6301 C   0  0  0  0  0  0  0  0  0  0  0  0
   -8.0429   -5.8059    1.4540 C   0  0  0  0  0  0  0  0  0  0  0  0
   -7.9504   -6.3734    0.2002 C   0  0  0  0  0  0  0  0  0  0  0  0
   -7.5577   -5.6057   -0.8759 C   0  0  0  0  0  0  0  0  0  0  0  0
   -7.2643   -4.2719   -0.6938 C   0  0  0  0  0  0  0  0  0  0  0  0
    1.1059   -0.8370   -0.1472 C   0  0  0  0  0  0  0  0  0  0  0  0
    2.4523   -0.6407   -0.3224 C   0  0  0  0  0  0  0  0  0  0  0  0
    5.5435   -0.3961   -0.8746 S   0  0  0  0  0  0  0  0  0  0  0  0
    6.9462    0.4930   -0.3732 C   0  0  0  0  0  0  0  0  0  0  0  0
    8.2616    0.3862   -0.7852 C   0  0  0  0  0  0  0  0  0  0  0  0
   10.7202   -0.8993   -1.2212 H   0  0  0  0  0  0  0  0  0  0  0  0
   10.5722    0.2559   -2.5586 H   0  0  0  0  0  0  0  0  0  0  0  0
   12.1004    0.0873   -1.6922 H   0  0  0  0  0  0  0  0  0  0  0  0
   11.2957    3.0618   -0.3107 H   0  0  0  0  0  0  0  0  0  0  0  0
   11.7537    1.8742    0.9248 H   0  0  0  0  0  0  0  0  0  0  0  0
   12.5521    1.8760   -0.6488 H   0  0  0  0  0  0  0  0  0  0  0  0
    9.5879    2.7983    1.1745 H   0  0  0  0  0  0  0  0  0  0  0  0
    7.2498    2.9847    1.8968 H   0  0  0  0  0  0  0  0  0  0  0  0
    2.9320    1.8358    1.9125 H   0  0  0  0  0  0  0  0  0  0  0  0
    0.5040    1.4715    2.2223 H   0  0  0  0  0  0  0  0  0  0  0  0
   -3.3191   -0.5913    1.0994 H   0  0  0  0  0  0  0  0  0  0  0  0
   -3.1569   -2.3564    1.0621 H   0  0  0  0  0  0  0  0  0  0  0  0
   -3.3529   -2.2374   -1.4723 H   0  0  0  0  0  0  0  0  0  0  0  0
   -2.9485   -0.1552   -2.2689 H   0  0  0  0  0  0  0  0  0  0  0  0
   -3.2685    4.6612   -2.2376 H   0  0  0  0  0  0  0  0  0  0  0  0
   -1.7353    4.2216   -1.4975 H   0  0  0  0  0  0  0  0  0  0  0  0
   -2.7957    5.3875   -0.6966 H   0  0  0  0  0  0  0  0  0  0  0  0
   -2.7658    3.8922    1.4405 H   0  0  0  0  0  0  0  0  0  0  0  0
   -1.6801    2.7948    0.5757 H   0  0  0  0  0  0  0  0  0  0  0  0
   -3.1583    2.1734    1.2752 H   0  0  0  0  0  0  0  0  0  0  0  0
   -5.0249    4.5628    0.3172 H   0  0  0  0  0  0  0  0  0  0  0  0
   -5.4353    2.8474    0.2091 H   0  0  0  0  0  0  0  0  0  0  0  0
   -5.4461    3.8409   -1.2416 H   0  0  0  0  0  0  0  0  0  0  0  0
   -7.3624   -1.8802    1.7128 H   0  0  0  0  0  0  0  0  0  0  0  0
   -7.5005   -1.6229   -0.0282 H   0  0  0  0  0  0  0  0  0  0  0  0
   -7.8081   -4.0261    2.6096 H   0  0  0  0  0  0  0  0  0  0  0  0
   -8.3417   -6.4067    2.2966 H   0  0  0  0  0  0  0  0  0  0  0  0
   -8.1792   -7.4177    0.0624 H   0  0  0  0  0  0  0  0  0  0  0  0
   -7.4744   -6.0478   -1.8545 H   0  0  0  0  0  0  0  0  0  0  0  0
   -6.9301   -3.6662   -1.5195 H   0  0  0  0  0  0  0  0  0  0  0  0
    0.5783   -1.5853   -0.7158 H   0  0  0  0  0  0  0  0  0  0  0  0
    3.0003   -1.2348   -1.0331 H   0  0  0  0  0  0  0  0  0  0  0  0
    8.5170   -0.3388   -1.5350 H   0  0  0  0  0  0  0  0  0  0  0  0
  1  2  1  0  0  0  0
  2  3  1  0  0  0  0
  2  4  1  0  0  0  0
  4  5  2  0  0  0  0
  5  6  1  0  0  0  0
  6  7  2  0  0  0  0
  7  8  1  0  0  0  0
  8  9  2  0  0  0  0
  9 10  1  0  0  0  0
 10 11  2  0  0  0  0
 11 12  1  0  0  0  0
 12 13  2  0  0  0  0
 13 14  1  0  0  0  0
 14 15  2  0  0  0  0
 14 16  1  0  0  0  0
 16 17  1  0  0  0  0
 17 18  1  0  0  0  0
 18 19  1  0  0  0  0
 19 20  1  0  0  0  0
 20 21  2  0  0  0  0
 20 22  1  0  0  0  0
 22 23  1  0  0  0  0
 23 24  1  0  0  0  0
 23 25  1  0  0  0  0
 23 26  1  0  0  0  0
 18 27  1  0  0  0  0
 27 28  2  0  0  0  0
 27 29  1  0  0  0  0
 29 30  1  0  0  0  0
 30 31  1  0  0  0  0
 31 32  2  0  0  0  0
 32 33  1  0  0  0  0
 33 34  2  0  0  0  0
 34 35  1  0  0  0  0
 35 36  2  0  0  0  0
 13 37  1  0  0  0  0
 37 38  2  0  0  0  0
  9 39  1  0  0  0  0
 39 40  1  0  0  0  0
 40 41  2  0  0  0  0
 41  4  1  0  0  0  0
 40  7  1  0  0  0  0
 38 10  1  0  0  0  0
 36 31  1  0  0  0  0
  1 42  1  0  0  0  0
  1 43  1  0  0  0  0
  1 44  1  0  0  0  0
  3 45  1  0  0  0  0
  3 46  1  0  0  0  0
  3 47  1  0  0  0  0
  5 48  1  0  0  0  0
  6 49  1  0  0  0  0
 11 50  1  0  0  0  0
 12 51  1  0  0  0  0
 17 52  1  0  0  0  0
 17 53  1  0  0  0  0
 18 54  1  0  0  0  0
 19 55  1  0  0  0  0
 24 56  1  0  0  0  0
 24 57  1  0  0  0  0
 24 58  1  0  0  0  0
 25 59  1  0  0  0  0
 25 60  1  0  0  0  0
 25 61  1  0  0  0  0
 26 62  1  0  0  0  0
 26 63  1  0  0  0  0
 26 64  1  0  0  0  0
 30 65  1  0  0  0  0
 30 66  1  0  0  0  0
 32 67  1  0  0  0  0
 33 68  1  0  0  0  0
 34 69  1  0  0  0  0
 35 70  1  0  0  0  0
 36 71  1  0  0  0  0
 37 72  1  0  0  0  0
 38 73  1  0  0  0  0
 41 74  1  0  0  0  0
M  END
