
  xtb     03012221243D
 energy: -8.937994006986 gnorm: 0.000226233810 xtb: 6.4.1 (afa7bdf)
 49 51  0     0  0            999 V2000
   -3.9729    3.0005   -2.1203 C   0  0  0  0  0  0  0  0  0  0  0  0
   -4.2833    1.8894   -1.1308 C   0  0  0  0  0  0  0  0  0  0  0  0
   -3.1569    1.6648   -0.1232 C   0  0  0  0  0  0  0  0  0  0  0  0
   -3.4527    0.5451    0.8645 C   0  0  0  0  0  0  0  0  0  0  0  0
   -2.3361    0.2940    1.7668 N   0  0  0  0  0  0  0  0  0  0  0  0
   -1.2062   -0.3162    1.2215 C   0  0  0  0  0  0  0  0  0  0  0  0
   -0.1883    0.4828    0.8978 N   0  0  0  0  0  0  0  0  0  0  0  0
    0.8814   -0.0744    0.3296 C   0  0  0  0  0  0  0  0  0  0  0  0
    1.9519    0.7993   -0.0192 C   0  0  0  0  0  0  0  0  0  0  0  0
    3.1138    0.4390   -0.6043 C   0  0  0  0  0  0  0  0  0  0  0  0
    4.1947    1.3294   -0.9565 C   0  0  0  0  0  0  0  0  0  0  0  0
    4.1470    2.7065   -0.7141 C   0  0  0  0  0  0  0  0  0  0  0  0
    5.1992    3.5199   -1.0670 C   0  0  0  0  0  0  0  0  0  0  0  0
    6.3218    2.9860   -1.6681 C   0  0  0  0  0  0  0  0  0  0  0  0
    6.3890    1.6294   -1.9157 C   0  0  0  0  0  0  0  0  0  0  0  0
    5.3415    0.8096   -1.5657 C   0  0  0  0  0  0  0  0  0  0  0  0
    0.9667   -1.4575    0.0799 N   0  0  0  0  0  4  0  0  0  0  0  0
    1.9891   -1.9693   -0.4696 O   0  0  0  0  0  1  0  0  0  0  0  0
   -0.0917   -2.2801    0.4489 C   0  0  0  0  0  0  0  0  0  0  0  0
   -1.1944   -1.7125    1.0237 C   0  0  0  0  0  0  0  0  0  0  0  0
   -2.3608   -2.5468    1.4746 C   0  0  0  0  0  0  0  0  0  0  0  0
   -1.9874   -4.0225    1.6901 C   0  0  0  0  0  0  0  0  0  0  0  0
   -1.2162   -4.5666    0.4800 C   0  0  0  0  0  0  0  0  0  0  0  0
    0.0621   -3.7499    0.2175 C   0  0  0  0  0  0  0  0  0  0  0  0
   -4.7840    3.1523   -2.8357 H   0  0  0  0  0  0  0  0  0  0  0  0
   -3.0692    2.7788   -2.6909 H   0  0  0  0  0  0  0  0  0  0  0  0
   -3.8046    3.9493   -1.6078 H   0  0  0  0  0  0  0  0  0  0  0  0
   -4.4828    0.9512   -1.6663 H   0  0  0  0  0  0  0  0  0  0  0  0
   -5.2140    2.1113   -0.5910 H   0  0  0  0  0  0  0  0  0  0  0  0
   -2.2243    1.4392   -0.6535 H   0  0  0  0  0  0  0  0  0  0  0  0
   -2.9547    2.5937    0.4223 H   0  0  0  0  0  0  0  0  0  0  0  0
   -3.6763   -0.3779    0.3213 H   0  0  0  0  0  0  0  0  0  0  0  0
   -4.3514    0.7689    1.4510 H   0  0  0  0  0  0  0  0  0  0  0  0
   -2.1066    1.1900    2.2016 H   0  0  0  0  0  0  0  0  0  0  0  0
    1.7923    1.8351    0.2167 H   0  0  0  0  0  0  0  0  0  0  0  0
    3.2570   -0.5996   -0.8327 H   0  0  0  0  0  0  0  0  0  0  0  0
    3.2806    3.1376   -0.2464 H   0  0  0  0  0  0  0  0  0  0  0  0
    5.1474    4.5795   -0.8734 H   0  0  0  0  0  0  0  0  0  0  0  0
    7.1438    3.6268   -1.9433 H   0  0  0  0  0  0  0  0  0  0  0  0
    7.2654    1.2115   -2.3849 H   0  0  0  0  0  0  0  0  0  0  0  0
    5.3967   -0.2476   -1.7601 H   0  0  0  0  0  0  0  0  0  0  0  0
   -3.1564   -2.4796    0.7244 H   0  0  0  0  0  0  0  0  0  0  0  0
   -2.7762   -2.1128    2.3927 H   0  0  0  0  0  0  0  0  0  0  0  0
   -1.3634   -4.1113    2.5878 H   0  0  0  0  0  0  0  0  0  0  0  0
   -2.8818   -4.6289    1.8896 H   0  0  0  0  0  0  0  0  0  0  0  0
   -1.8621   -4.5259   -0.4058 H   0  0  0  0  0  0  0  0  0  0  0  0
   -0.9766   -5.6299    0.6195 H   0  0  0  0  0  0  0  0  0  0  0  0
    0.8752   -4.1118    0.8575 H   0  0  0  0  0  0  0  0  0  0  0  0
    0.4148   -3.8997   -0.8105 H   0  0  0  0  0  0  0  0  0  0  0  0
  1  2  1  0  0  0  0
  2  3  1  0  0  0  0
  3  4  1  0  0  0  0
  4  5  1  0  0  0  0
  5  6  1  0  0  0  0
  6  7  2  0  0  0  0
  7  8  1  0  0  0  0
  8  9  1  0  0  0  0
  9 10  2  0  0  0  0
 10 11  1  0  0  0  0
 11 12  2  0  0  0  0
 12 13  1  0  0  0  0
 13 14  2  0  0  0  0
 14 15  1  0  0  0  0
 15 16  2  0  0  0  0
  8 17  2  0  0  0  0
 17 18  1  0  0  0  0
 17 19  1  0  0  0  0
 19 20  2  0  0  0  0
 20 21  1  0  0  0  0
 21 22  1  0  0  0  0
 22 23  1  0  0  0  0
 23 24  1  0  0  0  0
 20  6  1  0  0  0  0
 16 11  1  0  0  0  0
 24 19  1  0  0  0  0
  1 25  1  0  0  0  0
  1 26  1  0  0  0  0
  1 27  1  0  0  0  0
  2 28  1  0  0  0  0
  2 29  1  0  0  0  0
  3 30  1  0  0  0  0
  3 31  1  0  0  0  0
  4 32  1  0  0  0  0
  4 33  1  0  0  0  0
  5 34  1  0  0  0  0
  9 35  1  0  0  0  0
 10 36  1  0  0  0  0
 12 37  1  0  0  0  0
 13 38  1  0  0  0  0
 14 39  1  0  0  0  0
 15 40  1  0  0  0  0
 16 41  1  0  0  0  0
 21 42  1  0  0  0  0
 21 43  1  0  0  0  0
 22 44  1  0  0  0  0
 22 45  1  0  0  0  0
 23 46  1  0  0  0  0
 23 47  1  0  0  0  0
 24 48  1  0  0  0  0
 24 49  1  0  0  0  0
M  CHG  1  17   1
M  CHG  1  18  -1
M  END
