
  xtb     03012221303D
 energy: -16.205344244564 gnorm: 0.000179471219 xtb: 6.4.1 (afa7bdf)
 83 89  0     0  0            999 V2000
    1.4557    0.0513    2.9686 C   0  0  0  0  0  0  0  0  0  0  0  0
    0.4670   -1.0037    2.5042 C   0  0  0  0  0  0  0  0  0  0  0  0
    0.7783   -1.5915    1.1209 C   0  0  0  0  0  0  0  0  0  0  0  0
    0.4972   -0.6577   -0.0902 C   0  0  0  0  0  0  0  0  0  0  0  0
    0.7035   -1.4485   -1.4130 C   0  0  0  0  0  0  0  0  0  0  0  0
    0.6195   -0.6235   -2.7046 C   0  0  0  0  0  0  0  0  0  0  0  0
   -0.7875   -0.1884   -3.0751 C   0  0  0  0  0  0  0  0  0  0  0  0
   -0.9103   -0.0671    0.0045 C   0  0  0  0  0  0  0  0  0  0  0  0
   -2.1358   -0.6942    0.0361 C   0  0  0  0  0  0  0  0  0  0  0  0
   -3.2965    0.0751    0.1312 C   0  0  0  0  0  0  0  0  0  0  0  0
   -4.6275   -0.5308    0.1632 C   0  0  0  0  0  0  0  0  0  0  0  0
   -4.9304   -1.8864    0.1113 C   0  0  0  0  0  0  0  0  0  0  0  0
   -6.3061   -1.9994    0.1694 C   0  0  0  0  0  0  0  0  0  0  0  0
   -6.8214   -0.7106    0.2560 C   0  0  0  0  0  0  0  0  0  0  0  0
   -8.2319   -0.3318    0.3409 C   0  0  0  0  0  0  0  0  0  0  0  0
   -9.2604   -1.2721    0.3393 C   0  0  0  0  0  0  0  0  0  0  0  0
  -10.5741   -0.8791    0.4193 C   0  0  0  0  0  0  0  0  0  0  0  0
  -10.9161    0.4745    0.5043 C   0  0  0  0  0  0  0  0  0  0  0  0
  -12.2240    0.9612    0.5873 O   0  0  0  0  0  0  0  0  0  0  0  0
  -13.2240   -0.0285    0.5796 C   0  0  0  0  0  0  0  0  0  0  0  0
   -9.8778    1.4108    0.5064 C   0  0  0  0  0  0  0  0  0  0  0  0
   -8.5664    1.0151    0.4263 C   0  0  0  0  0  0  0  0  0  0  0  0
   -5.7905    0.1952    0.2518 O   0  0  0  0  0  0  0  0  0  0  0  0
   -3.1938    1.4663    0.1970 C   0  0  0  0  0  0  0  0  0  0  0  0
   -1.9722    2.0993    0.1704 C   0  0  0  0  0  0  0  0  0  0  0  0
   -0.8214    1.3276    0.0741 C   0  0  0  0  0  0  0  0  0  0  0  0
    0.5855    1.7272    0.0213 C   0  0  0  0  0  0  0  0  0  0  0  0
    1.1647    2.9895    0.0536 C   0  0  0  0  0  0  0  0  0  0  0  0
    2.5360    3.0956   -0.0018 C   0  0  0  0  0  0  0  0  0  0  0  0
    3.3485    1.9599   -0.0906 C   0  0  0  0  0  0  0  0  0  0  0  0
    4.8075    2.0547   -0.1429 C   0  0  0  0  0  0  0  0  0  0  0  0
    5.5670    3.2189   -0.1465 C   0  0  0  0  0  0  0  0  0  0  0  0
    6.8941    2.8405   -0.2022 C   0  0  0  0  0  0  0  0  0  0  0  0
    6.9247    1.4507   -0.2311 C   0  0  0  0  0  0  0  0  0  0  0  0
    8.1165    0.6044   -0.2900 C   0  0  0  0  0  0  0  0  0  0  0  0
    9.4056    1.1326   -0.3120 C   0  0  0  0  0  0  0  0  0  0  0  0
   10.4984    0.3041   -0.3678 C   0  0  0  0  0  0  0  0  0  0  0  0
   10.3549   -1.0863   -0.4039 C   0  0  0  0  0  0  0  0  0  0  0  0
   11.5218   -1.8541   -0.4603 O   0  0  0  0  0  0  0  0  0  0  0  0
   11.3119   -3.2448   -0.4942 C   0  0  0  0  0  0  0  0  0  0  0  0
    9.0580   -1.6094   -0.3810 C   0  0  0  0  0  0  0  0  0  0  0  0
    7.9665   -0.7779   -0.3251 C   0  0  0  0  0  0  0  0  0  0  0  0
    5.6417    0.9639   -0.1952 O   0  0  0  0  0  0  0  0  0  0  0  0
    2.7585    0.6984   -0.1255 C   0  0  0  0  0  0  0  0  0  0  0  0
    1.3878    0.5850   -0.0666 C   0  0  0  0  0  0  0  0  0  0  0  0
    1.2545    0.3791    3.9923 H   0  0  0  0  0  0  0  0  0  0  0  0
    2.4805   -0.3269    2.9413 H   0  0  0  0  0  0  0  0  0  0  0  0
    1.4243    0.9416    2.3386 H   0  0  0  0  0  0  0  0  0  0  0  0
    0.4392   -1.8157    3.2436 H   0  0  0  0  0  0  0  0  0  0  0  0
   -0.5490   -0.5903    2.5024 H   0  0  0  0  0  0  0  0  0  0  0  0
    1.8252   -1.9074    1.0852 H   0  0  0  0  0  0  0  0  0  0  0  0
    0.1908   -2.5048    0.9737 H   0  0  0  0  0  0  0  0  0  0  0  0
    1.6846   -1.9330   -1.3551 H   0  0  0  0  0  0  0  0  0  0  0  0
   -0.0245   -2.2643   -1.4521 H   0  0  0  0  0  0  0  0  0  0  0  0
    1.2722    0.2537   -2.6173 H   0  0  0  0  0  0  0  0  0  0  0  0
    1.0419   -1.2069   -3.5341 H   0  0  0  0  0  0  0  0  0  0  0  0
   -0.8177    0.3197   -4.0430 H   0  0  0  0  0  0  0  0  0  0  0  0
   -1.2049    0.5025   -2.3412 H   0  0  0  0  0  0  0  0  0  0  0  0
   -1.4642   -1.0443   -3.1336 H   0  0  0  0  0  0  0  0  0  0  0  0
   -2.1913   -1.7649   -0.0143 H   0  0  0  0  0  0  0  0  0  0  0  0
   -4.2265   -2.6971    0.0398 H   0  0  0  0  0  0  0  0  0  0  0  0
   -6.8717   -2.9149    0.1517 H   0  0  0  0  0  0  0  0  0  0  0  0
   -9.0173   -2.3179    0.2742 H   0  0  0  0  0  0  0  0  0  0  0  0
  -11.3486   -1.6240    0.4164 H   0  0  0  0  0  0  0  0  0  0  0  0
  -14.1962    0.4612    0.6439 H   0  0  0  0  0  0  0  0  0  0  0  0
  -13.1761   -0.5982   -0.3491 H   0  0  0  0  0  0  0  0  0  0  0  0
  -13.1019   -0.6867    1.4406 H   0  0  0  0  0  0  0  0  0  0  0  0
  -10.1341    2.4532    0.5721 H   0  0  0  0  0  0  0  0  0  0  0  0
   -7.7728    1.7424    0.4280 H   0  0  0  0  0  0  0  0  0  0  0  0
   -4.1019    2.0399    0.2703 H   0  0  0  0  0  0  0  0  0  0  0  0
   -1.8980    3.1709    0.2216 H   0  0  0  0  0  0  0  0  0  0  0  0
    0.5410    3.8628    0.1229 H   0  0  0  0  0  0  0  0  0  0  0  0
    2.9950    4.0680    0.0256 H   0  0  0  0  0  0  0  0  0  0  0  0
    5.1942    4.2277   -0.1141 H   0  0  0  0  0  0  0  0  0  0  0  0
    7.7441    3.5004   -0.2204 H   0  0  0  0  0  0  0  0  0  0  0  0
    9.5415    2.1991   -0.2844 H   0  0  0  0  0  0  0  0  0  0  0  0
   11.4940    0.7105   -0.3848 H   0  0  0  0  0  0  0  0  0  0  0  0
   10.7378   -3.5126   -1.3819 H   0  0  0  0  0  0  0  0  0  0  0  0
   12.2822   -3.7405   -0.5380 H   0  0  0  0  0  0  0  0  0  0  0  0
   10.7922   -3.5643    0.4098 H   0  0  0  0  0  0  0  0  0  0  0  0
    8.9111   -2.6735   -0.4071 H   0  0  0  0  0  0  0  0  0  0  0  0
    6.9699   -1.1841   -0.3074 H   0  0  0  0  0  0  0  0  0  0  0  0
    3.3775   -0.1765   -0.1949 H   0  0  0  0  0  0  0  0  0  0  0  0
  1  2  1  0  0  0  0
  2  3  1  0  0  0  0
  3  4  1  0  0  0  0
  4  5  1  0  0  0  0
  5  6  1  0  0  0  0
  6  7  1  0  0  0  0
  4  8  1  0  0  0  0
  8  9  2  0  0  0  0
  9 10  1  0  0  0  0
 10 11  1  0  0  0  0
 11 12  2  0  0  0  0
 12 13  1  0  0  0  0
 13 14  2  0  0  0  0
 14 15  1  0  0  0  0
 15 16  2  0  0  0  0
 16 17  1  0  0  0  0
 17 18  2  0  0  0  0
 18 19  1  0  0  0  0
 19 20  1  0  0  0  0
 18 21  1  0  0  0  0
 21 22  2  0  0  0  0
 14 23  1  0  0  0  0
 10 24  2  0  0  0  0
 24 25  1  0  0  0  0
 25 26  2  0  0  0  0
 26 27  1  0  0  0  0
 27 28  2  0  0  0  0
 28 29  1  0  0  0  0
 29 30  2  0  0  0  0
 30 31  1  0  0  0  0
 31 32  2  0  0  0  0
 32 33  1  0  0  0  0
 33 34  2  0  0  0  0
 34 35  1  0  0  0  0
 35 36  2  0  0  0  0
 36 37  1  0  0  0  0
 37 38  2  0  0  0  0
 38 39  1  0  0  0  0
 39 40  1  0  0  0  0
 38 41  1  0  0  0  0
 41 42  2  0  0  0  0
 34 43  1  0  0  0  0
 30 44  1  0  0  0  0
 44 45  2  0  0  0  0
 45  4  1  0  0  0  0
 26  8  1  0  0  0  0
 45 27  1  0  0  0  0
 23 11  1  0  0  0  0
 43 31  1  0  0  0  0
 22 15  1  0  0  0  0
 42 35  1  0  0  0  0
  1 46  1  0  0  0  0
  1 47  1  0  0  0  0
  1 48  1  0  0  0  0
  2 49  1  0  0  0  0
  2 50  1  0  0  0  0
  3 51  1  0  0  0  0
  3 52  1  0  0  0  0
  5 53  1  0  0  0  0
  5 54  1  0  0  0  0
  6 55  1  0  0  0  0
  6 56  1  0  0  0  0
  7 57  1  0  0  0  0
  7 58  1  0  0  0  0
  7 59  1  0  0  0  0
  9 60  1  0  0  0  0
 12 61  1  0  0  0  0
 13 62  1  0  0  0  0
 16 63  1  0  0  0  0
 17 64  1  0  0  0  0
 20 65  1  0  0  0  0
 20 66  1  0  0  0  0
 20 67  1  0  0  0  0
 21 68  1  0  0  0  0
 22 69  1  0  0  0  0
 24 70  1  0  0  0  0
 25 71  1  0  0  0  0
 28 72  1  0  0  0  0
 29 73  1  0  0  0  0
 32 74  1  0  0  0  0
 33 75  1  0  0  0  0
 36 76  1  0  0  0  0
 37 77  1  0  0  0  0
 40 78  1  0  0  0  0
 40 79  1  0  0  0  0
 40 80  1  0  0  0  0
 41 81  1  0  0  0  0
 42 82  1  0  0  0  0
 44 83  1  0  0  0  0
M  END
