
  xtb     03012221283D
 energy: -11.741804772610 gnorm: 0.000320078220 xtb: 6.4.1 (afa7bdf)
 57 64  0     0  0            999 V2000
   -7.4395   -4.9788    0.4482 C   0  0  0  0  0  0  0  0  0  0  0  0
   -6.4350   -4.0307    0.6117 O   0  0  0  0  0  0  0  0  0  0  0  0
   -5.4010   -4.3103   -0.2372 C   0  0  0  0  0  0  0  0  0  0  0  0
   -5.3948   -5.2539   -1.0058 O   0  0  0  0  0  0  0  0  0  0  0  0
   -4.2404   -3.3921   -0.1916 C   0  0  0  0  0  0  0  0  0  0  0  0
   -3.1548   -3.6006   -1.0287 C   0  0  0  0  0  0  0  0  0  0  0  0
   -2.0737   -2.7564   -0.9935 C   0  0  0  0  0  0  0  0  0  0  0  0
   -2.0416   -1.6665   -0.1168 C   0  0  0  0  0  0  0  0  0  0  0  0
   -0.8864   -0.7603   -0.0765 C   0  0  0  0  0  0  0  0  0  0  0  0
   -1.0357    0.6406   -0.0112 C   0  0  0  0  0  0  0  0  0  0  0  0
   -2.2088    1.4519   -0.0311 C   0  0  0  0  0  0  0  0  0  0  0  0
   -1.8122    2.7784    0.0165 C   0  0  0  0  0  0  0  0  0  0  0  0
   -2.4130    4.4294    0.0334 S   0  0  0  0  0  0  0  0  0  0  0  0
   -0.7807    5.1025    0.0946 C   0  0  0  0  0  0  0  0  0  0  0  0
   -0.4984    6.5056    0.1326 C   0  0  0  0  0  0  0  0  0  0  0  0
   -1.4245    7.5122    0.1263 C   0  0  0  0  0  0  0  0  0  0  0  0
   -0.8563    8.8087    0.1712 C   0  0  0  0  0  0  0  0  0  0  0  0
    0.4968    8.8085    0.2118 C   0  0  0  0  0  0  0  0  0  0  0  0
    1.1039    7.1966    0.1955 S   0  0  0  0  0  0  0  0  0  0  0  0
    0.1703    4.1130    0.1008 C   0  0  0  0  0  0  0  0  0  0  0  0
   -0.3970    2.8189    0.0601 C   0  0  0  0  0  0  0  0  0  0  0  0
    0.0302    1.5186    0.0360 N   0  0  0  0  0  4  0  0  0  0  0  0
    1.4964    1.1087    0.0149 B   0  0  0  0  0  4  0  0  0  0  0  0
    2.1116    1.6533   -1.1053 F   0  0  0  0  0  0  0  0  0  0  0  0
    2.1087    1.5262    1.1899 F   0  0  0  0  0  0  0  0  0  0  0  0
    1.5472   -0.4106   -0.0688 N   0  0  0  0  0  0  0  0  0  0  0  0
    0.4406   -1.2373   -0.1010 C   0  0  0  0  0  0  0  0  0  0  0  0
    0.9496   -2.5699   -0.1117 C   0  0  0  0  0  0  0  0  0  0  0  0
    2.3330   -2.4994   -0.0983 C   0  0  0  0  0  0  0  0  0  0  0  0
    3.7939   -3.4754   -0.0940 S   0  0  0  0  0  0  0  0  0  0  0  0
    4.8363   -2.0495   -0.0557 C   0  0  0  0  0  0  0  0  0  0  0  0
    6.2666   -2.1085   -0.0367 C   0  0  0  0  0  0  0  0  0  0  0  0
    7.0246   -3.2471   -0.0463 C   0  0  0  0  0  0  0  0  0  0  0  0
    8.4194   -3.0023   -0.0231 C   0  0  0  0  0  0  0  0  0  0  0  0
    8.7406   -1.6876    0.0045 C   0  0  0  0  0  0  0  0  0  0  0  0
    7.3185   -0.7155    0.0024 S   0  0  0  0  0  0  0  0  0  0  0  0
    4.1014   -0.8905   -0.0465 C   0  0  0  0  0  0  0  0  0  0  0  0
    2.7093   -1.1341   -0.0729 C   0  0  0  0  0  0  0  0  0  0  0  0
   -3.1444   -1.4668    0.7208 C   0  0  0  0  0  0  0  0  0  0  0  0
   -4.2216   -2.3159    0.6831 C   0  0  0  0  0  0  0  0  0  0  0  0
   -7.0336   -5.9667    0.6776 H   0  0  0  0  0  0  0  0  0  0  0  0
   -8.2667   -4.7458    1.1215 H   0  0  0  0  0  0  0  0  0  0  0  0
   -7.7807   -4.9565   -0.5894 H   0  0  0  0  0  0  0  0  0  0  0  0
   -3.1841   -4.4360   -1.7071 H   0  0  0  0  0  0  0  0  0  0  0  0
   -1.2486   -2.9093   -1.6668 H   0  0  0  0  0  0  0  0  0  0  0  0
   -3.2250    1.1059   -0.1057 H   0  0  0  0  0  0  0  0  0  0  0  0
   -2.4865    7.3265    0.0906 H   0  0  0  0  0  0  0  0  0  0  0  0
   -1.4514    9.7120    0.1732 H   0  0  0  0  0  0  0  0  0  0  0  0
    1.1205    9.6803    0.2494 H   0  0  0  0  0  0  0  0  0  0  0  0
    1.2315    4.2883    0.1313 H   0  0  0  0  0  0  0  0  0  0  0  0
    0.3702   -3.4765   -0.0968 H   0  0  0  0  0  0  0  0  0  0  0  0
    6.5917   -4.2348   -0.0698 H   0  0  0  0  0  0  0  0  0  0  0  0
    9.1557   -3.7947   -0.0272 H   0  0  0  0  0  0  0  0  0  0  0  0
    9.7359   -1.2884    0.0250 H   0  0  0  0  0  0  0  0  0  0  0  0
    4.5241    0.0986   -0.0212 H   0  0  0  0  0  0  0  0  0  0  0  0
   -3.1255   -0.6513    1.4223 H   0  0  0  0  0  0  0  0  0  0  0  0
   -5.0662   -2.1648    1.3326 H   0  0  0  0  0  0  0  0  0  0  0  0
  1  2  1  0  0  0  0
  2  3  1  0  0  0  0
  3  4  2  0  0  0  0
  3  5  1  0  0  0  0
  5  6  2  0  0  0  0
  6  7  1  0  0  0  0
  7  8  2  0  0  0  0
  8  9  1  0  0  0  0
  9 10  2  0  0  0  0
 10 11  1  0  0  0  0
 11 12  2  0  0  0  0
 12 13  1  0  0  0  0
 13 14  1  0  0  0  0
 14 15  1  0  0  0  0
 15 16  2  0  0  0  0
 16 17  1  0  0  0  0
 17 18  2  0  0  0  0
 18 19  1  0  0  0  0
 14 20  2  0  0  0  0
 20 21  1  0  0  0  0
 21 22  2  0  0  0  0
 22 23  1  0  0  0  0
 23 24  1  0  0  0  0
 23 25  1  0  0  0  0
 23 26  1  0  0  0  0
 26 27  1  0  0  0  0
 27 28  2  0  0  0  0
 28 29  1  0  0  0  0
 29 30  1  0  0  0  0
 30 31  1  0  0  0  0
 31 32  1  0  0  0  0
 32 33  2  0  0  0  0
 33 34  1  0  0  0  0
 34 35  2  0  0  0  0
 35 36  1  0  0  0  0
 31 37  2  0  0  0  0
 37 38  1  0  0  0  0
  8 39  1  0  0  0  0
 39 40  2  0  0  0  0
 40  5  1  0  0  0  0
 27  9  1  0  0  0  0
 38 29  2  0  0  0  0
 22 10  1  0  0  0  0
 38 26  1  0  0  0  0
 21 12  1  0  0  0  0
 36 32  1  0  0  0  0
 19 15  1  0  0  0  0
  1 41  1  0  0  0  0
  1 42  1  0  0  0  0
  1 43  1  0  0  0  0
  6 44  1  0  0  0  0
  7 45  1  0  0  0  0
 11 46  1  0  0  0  0
 16 47  1  0  0  0  0
 17 48  1  0  0  0  0
 18 49  1  0  0  0  0
 20 50  1  0  0  0  0
 28 51  1  0  0  0  0
 33 52  1  0  0  0  0
 34 53  1  0  0  0  0
 35 54  1  0  0  0  0
 37 55  1  0  0  0  0
 39 56  1  0  0  0  0
 40 57  1  0  0  0  0
M  CHG  1  22   1
M  CHG  1  23  -1
M  END
