
  xtb     03012221243D
 energy: -17.532314659153 gnorm: 0.000430324936 xtb: 6.4.1 (afa7bdf)
 86 94  0     0  0            999 V2000
    1.9966    5.6772   -1.5876 C   0  0  0  0  0  0  0  0  0  0  0  0
    0.6479    5.5306   -0.9005 C   0  0  0  0  0  0  0  0  0  0  0  0
    0.2278    4.0717   -0.6983 C   0  0  0  0  0  0  0  0  0  0  0  0
    1.1436    3.3027    0.2582 C   0  0  0  0  0  0  0  0  0  0  0  0
    0.6813    1.8671    0.6151 C   0  0  0  0  0  0  0  0  0  0  0  0
   -0.2828    1.8078    1.8201 C   0  0  0  0  0  0  0  0  0  0  0  0
   -1.5387    2.6531    1.6987 C   0  0  0  0  0  0  0  0  0  0  0  0
    0.1275    1.1134   -0.5971 C   0  0  0  0  0  0  0  0  0  0  0  0
   -0.0419   -0.3161   -0.3247 N   0  0  0  0  0  0  0  0  0  0  0  0
    1.0102   -1.2287   -0.1718 C   0  0  0  0  0  0  0  0  0  0  0  0
    2.3880   -1.0660   -0.2896 C   0  0  0  0  0  0  0  0  0  0  0  0
    3.2172   -2.1487   -0.0669 C   0  0  0  0  0  0  0  0  0  0  0  0
    4.6416   -1.9917   -0.1779 N   0  0  0  0  0  0  0  0  0  0  0  0
    5.5985   -2.3551    0.7914 C   0  0  0  0  0  0  0  0  0  0  0  0
    5.4496   -2.9411    2.0481 C   0  0  0  0  0  0  0  0  0  0  0  0
    6.5712   -3.1726    2.8059 C   0  0  0  0  0  0  0  0  0  0  0  0
    7.8424   -2.8279    2.3363 C   0  0  0  0  0  0  0  0  0  0  0  0
    8.0066   -2.2432    1.1038 C   0  0  0  0  0  0  0  0  0  0  0  0
    6.8753   -2.0006    0.3221 C   0  0  0  0  0  0  0  0  0  0  0  0
    6.7026   -1.3984   -0.9783 C   0  0  0  0  0  0  0  0  0  0  0  0
    7.6096   -0.8689   -1.8985 C   0  0  0  0  0  0  0  0  0  0  0  0
    7.1273   -0.3593   -3.0799 C   0  0  0  0  0  0  0  0  0  0  0  0
    5.7580   -0.3694   -3.3626 C   0  0  0  0  0  0  0  0  0  0  0  0
    4.8540   -0.8858   -2.4671 C   0  0  0  0  0  0  0  0  0  0  0  0
    5.3257   -1.4022   -1.2604 C   0  0  0  0  0  0  0  0  0  0  0  0
    2.6647   -3.4001    0.2692 C   0  0  0  0  0  0  0  0  0  0  0  0
    1.3104   -3.5783    0.3841 C   0  0  0  0  0  0  0  0  0  0  0  0
    0.4681   -2.4841    0.1629 C   0  0  0  0  0  0  0  0  0  0  0  0
   -0.9635   -2.3317    0.2086 C   0  0  0  0  0  0  0  0  0  0  0  0
   -1.9974   -3.2347    0.4752 C   0  0  0  0  0  0  0  0  0  0  0  0
   -3.2907   -2.7827    0.4407 C   0  0  0  0  0  0  0  0  0  0  0  0
   -3.5916   -1.4387    0.1473 C   0  0  0  0  0  0  0  0  0  0  0  0
   -4.9583   -0.9921    0.1304 N   0  0  0  0  0  0  0  0  0  0  0  0
   -5.4806    0.0843    0.8742 C   0  0  0  0  0  0  0  0  0  0  0  0
   -4.8760    0.9182    1.8132 C   0  0  0  0  0  0  0  0  0  0  0  0
   -5.6306    1.9007    2.4054 C   0  0  0  0  0  0  0  0  0  0  0  0
   -6.9811    2.0650    2.0812 C   0  0  0  0  0  0  0  0  0  0  0  0
   -7.5945    1.2454    1.1644 C   0  0  0  0  0  0  0  0  0  0  0  0
   -6.8399    0.2413    0.5543 C   0  0  0  0  0  0  0  0  0  0  0  0
   -7.1695   -0.7725   -0.4195 C   0  0  0  0  0  0  0  0  0  0  0  0
   -8.3530   -1.0831   -1.0923 C   0  0  0  0  0  0  0  0  0  0  0  0
   -8.3458   -2.1219   -1.9917 C   0  0  0  0  0  0  0  0  0  0  0  0
   -7.1807   -2.8558   -2.2353 C   0  0  0  0  0  0  0  0  0  0  0  0
   -6.0094   -2.5628   -1.5809 C   0  0  0  0  0  0  0  0  0  0  0  0
   -6.0007   -1.5157   -0.6605 C   0  0  0  0  0  0  0  0  0  0  0  0
   -2.5729   -0.5431   -0.1182 C   0  0  0  0  0  0  0  0  0  0  0  0
   -1.2525   -0.9852   -0.0902 C   0  0  0  0  0  0  0  0  0  0  0  0
    2.8016    5.2452   -0.9902 H   0  0  0  0  0  0  0  0  0  0  0  0
    2.2536    6.7243   -1.7660 H   0  0  0  0  0  0  0  0  0  0  0  0
    2.0043    5.1695   -2.5543 H   0  0  0  0  0  0  0  0  0  0  0  0
   -0.1201    6.0583   -1.4834 H   0  0  0  0  0  0  0  0  0  0  0  0
    0.6659    6.0392    0.0725 H   0  0  0  0  0  0  0  0  0  0  0  0
   -0.8070    4.0311   -0.3401 H   0  0  0  0  0  0  0  0  0  0  0  0
    0.2063    3.5660   -1.6719 H   0  0  0  0  0  0  0  0  0  0  0  0
    2.1436    3.2550   -0.1890 H   0  0  0  0  0  0  0  0  0  0  0  0
    1.2734    3.8765    1.1825 H   0  0  0  0  0  0  0  0  0  0  0  0
    1.5838    1.3092    0.9265 H   0  0  0  0  0  0  0  0  0  0  0  0
   -0.5627    0.7595    1.9853 H   0  0  0  0  0  0  0  0  0  0  0  0
    0.2609    2.1034    2.7268 H   0  0  0  0  0  0  0  0  0  0  0  0
   -2.1021    2.4152    0.7951 H   0  0  0  0  0  0  0  0  0  0  0  0
   -1.3031    3.7187    1.6716 H   0  0  0  0  0  0  0  0  0  0  0  0
   -2.2107    2.5045    2.5479 H   0  0  0  0  0  0  0  0  0  0  0  0
   -0.8319    1.5319   -0.9059 H   0  0  0  0  0  0  0  0  0  0  0  0
    0.7999    1.2163   -1.4535 H   0  0  0  0  0  0  0  0  0  0  0  0
    2.8050   -0.1105   -0.5448 H   0  0  0  0  0  0  0  0  0  0  0  0
    4.4677   -3.1935    2.4064 H   0  0  0  0  0  0  0  0  0  0  0  0
    6.4710   -3.6249    3.7789 H   0  0  0  0  0  0  0  0  0  0  0  0
    8.7053   -3.0210    2.9527 H   0  0  0  0  0  0  0  0  0  0  0  0
    8.9803   -1.9696    0.7374 H   0  0  0  0  0  0  0  0  0  0  0  0
    8.6617   -0.8676   -1.6743 H   0  0  0  0  0  0  0  0  0  0  0  0
    7.8142    0.0524   -3.8014 H   0  0  0  0  0  0  0  0  0  0  0  0
    5.4075    0.0329   -4.2989 H   0  0  0  0  0  0  0  0  0  0  0  0
    3.8004   -0.9062   -2.6810 H   0  0  0  0  0  0  0  0  0  0  0  0
    3.3340   -4.2280    0.4232 H   0  0  0  0  0  0  0  0  0  0  0  0
    0.8901   -4.5351    0.6384 H   0  0  0  0  0  0  0  0  0  0  0  0
   -1.7675   -4.2606    0.7020 H   0  0  0  0  0  0  0  0  0  0  0  0
   -4.1052   -3.4534    0.6503 H   0  0  0  0  0  0  0  0  0  0  0  0
   -3.8420    0.7698    2.0672 H   0  0  0  0  0  0  0  0  0  0  0  0
   -5.1774    2.5528    3.1338 H   0  0  0  0  0  0  0  0  0  0  0  0
   -7.5502    2.8442    2.5618 H   0  0  0  0  0  0  0  0  0  0  0  0
   -8.6341    1.3618    0.9138 H   0  0  0  0  0  0  0  0  0  0  0  0
   -9.2438   -0.5108   -0.9024 H   0  0  0  0  0  0  0  0  0  0  0  0
   -9.2509   -2.3738   -2.5201 H   0  0  0  0  0  0  0  0  0  0  0  0
   -7.2029   -3.6627   -2.9493 H   0  0  0  0  0  0  0  0  0  0  0  0
   -5.1066   -3.1167   -1.7670 H   0  0  0  0  0  0  0  0  0  0  0  0
   -2.8054    0.4759   -0.3607 H   0  0  0  0  0  0  0  0  0  0  0  0
  1  2  1  0  0  0  0
  2  3  1  0  0  0  0
  3  4  1  0  0  0  0
  4  5  1  0  0  0  0
  5  6  1  0  0  0  0
  6  7  1  0  0  0  0
  5  8  1  0  0  0  0
  8  9  1  0  0  0  0
  9 10  1  0  0  0  0
 10 11  2  0  0  0  0
 11 12  1  0  0  0  0
 12 13  1  0  0  0  0
 13 14  1  0  0  0  0
 14 15  2  0  0  0  0
 15 16  1  0  0  0  0
 16 17  2  0  0  0  0
 17 18  1  0  0  0  0
 18 19  2  0  0  0  0
 19 20  1  0  0  0  0
 20 21  2  0  0  0  0
 21 22  1  0  0  0  0
 22 23  2  0  0  0  0
 23 24  1  0  0  0  0
 24 25  2  0  0  0  0
 12 26  2  0  0  0  0
 26 27  1  0  0  0  0
 27 28  2  0  0  0  0
 28 29  1  0  0  0  0
 29 30  2  0  0  0  0
 30 31  1  0  0  0  0
 31 32  2  0  0  0  0
 32 33  1  0  0  0  0
 33 34  1  0  0  0  0
 34 35  2  0  0  0  0
 35 36  1  0  0  0  0
 36 37  2  0  0  0  0
 37 38  1  0  0  0  0
 38 39  2  0  0  0  0
 39 40  1  0  0  0  0
 40 41  2  0  0  0  0
 41 42  1  0  0  0  0
 42 43  2  0  0  0  0
 43 44  1  0  0  0  0
 44 45  2  0  0  0  0
 32 46  1  0  0  0  0
 46 47  2  0  0  0  0
 47  9  1  0  0  0  0
 28 10  1  0  0  0  0
 47 29  1  0  0  0  0
 25 13  1  0  0  0  0
 45 33  1  0  0  0  0
 19 14  1  0  0  0  0
 25 20  1  0  0  0  0
 39 34  1  0  0  0  0
 45 40  1  0  0  0  0
  1 48  1  0  0  0  0
  1 49  1  0  0  0  0
  1 50  1  0  0  0  0
  2 51  1  0  0  0  0
  2 52  1  0  0  0  0
  3 53  1  0  0  0  0
  3 54  1  0  0  0  0
  4 55  1  0  0  0  0
  4 56  1  0  0  0  0
  5 57  1  0  0  0  0
  6 58  1  0  0  0  0
  6 59  1  0  0  0  0
  7 60  1  0  0  0  0
  7 61  1  0  0  0  0
  7 62  1  0  0  0  0
  8 63  1  0  0  0  0
  8 64  1  0  0  0  0
 11 65  1  0  0  0  0
 15 66  1  0  0  0  0
 16 67  1  0  0  0  0
 17 68  1  0  0  0  0
 18 69  1  0  0  0  0
 21 70  1  0  0  0  0
 22 71  1  0  0  0  0
 23 72  1  0  0  0  0
 24 73  1  0  0  0  0
 26 74  1  0  0  0  0
 27 75  1  0  0  0  0
 30 76  1  0  0  0  0
 31 77  1  0  0  0  0
 35 78  1  0  0  0  0
 36 79  1  0  0  0  0
 37 80  1  0  0  0  0
 38 81  1  0  0  0  0
 41 82  1  0  0  0  0
 42 83  1  0  0  0  0
 43 84  1  0  0  0  0
 44 85  1  0  0  0  0
 46 86  1  0  0  0  0
M  END
