
  xtb     03012221243D
 energy: -9.593499823765 gnorm: 0.000277323634 xtb: 6.4.1 (afa7bdf)
 50 53  0     0  0            999 V2000
    6.9936    2.7645   -0.8698 C   0  0  0  0  0  0  0  0  0  0  0  0
    5.7817    2.0981   -0.7186 O   0  0  0  0  0  0  0  0  0  0  0  0
    6.0018    0.7518   -0.6892 C   0  0  0  0  0  0  0  0  0  0  0  0
    7.1091    0.2478   -0.7837 O   0  0  0  0  0  0  0  0  0  0  0  0
    4.8280   -0.0989   -0.5343 C   0  0  0  0  0  0  0  0  0  0  0  0
    3.5933    0.4112   -0.4252 C   0  0  0  0  0  0  0  0  0  0  0  0
    2.4021   -0.3673   -0.2683 C   0  0  0  0  0  0  0  0  0  0  0  0
    1.0982    0.1544   -0.1567 C   0  0  0  0  0  0  0  0  0  0  0  0
    0.2168   -0.9171   -0.0141 C   0  0  0  0  0  0  0  0  0  0  0  0
   -1.1875   -0.9371    0.1280 C   0  0  0  0  0  0  0  0  0  0  0  0
   -1.9855    0.3114    0.1667 C   0  0  0  0  0  0  0  0  0  0  0  0
   -2.7817    0.6799   -0.9345 C   0  0  0  0  0  0  0  0  0  0  0  0
   -2.8425   -0.1776   -2.1523 C   0  0  0  0  0  0  0  0  0  0  0  0
   -3.5225    1.8455   -0.8730 C   0  0  0  0  0  0  0  0  0  0  0  0
   -3.4906    2.6722    0.2388 C   0  0  0  0  0  0  0  0  0  0  0  0
   -4.2707    3.9396    0.2614 C   0  0  0  0  0  0  0  0  0  0  0  0
   -2.6878    2.3109    1.3096 C   0  0  0  0  0  0  0  0  0  0  0  0
   -1.9469    1.1438    1.3017 C   0  0  0  0  0  0  0  0  0  0  0  0
   -1.1028    0.7907    2.4786 C   0  0  0  0  0  0  0  0  0  0  0  0
   -1.7802   -2.2018    0.2328 C   0  0  0  0  0  0  0  0  0  0  0  0
   -3.1326   -2.5793    0.4024 C   0  0  0  0  0  0  0  0  0  0  0  0
   -3.1778   -3.9610    0.4590 C   0  0  0  0  0  0  0  0  0  0  0  0
   -1.8725   -4.4642    0.3308 C   0  0  0  0  0  0  0  0  0  0  0  0
   -1.0680   -3.4054    0.2005 N   0  0  0  0  0  0  0  0  0  0  0  0
    0.4521   -3.4876    0.0534 B   0  0  0  0  0  4  0  0  0  0  0  0
    0.9808   -4.1045    1.1810 F   0  0  0  0  0  0  0  0  0  0  0  0
    0.7548   -4.1815   -1.1121 F   0  0  0  0  0  0  0  0  0  0  0  0
    1.0187   -2.0707   -0.0499 N   0  0  0  0  0  4  0  0  0  0  0  0
    2.3064   -1.7835   -0.1964 C   0  0  0  0  0  0  0  0  0  0  0  0
    7.6462    2.5028   -0.0346 H   0  0  0  0  0  0  0  0  0  0  0  0
    6.8133    3.8404   -0.8842 H   0  0  0  0  0  0  0  0  0  0  0  0
    7.4556    2.4470   -1.8067 H   0  0  0  0  0  0  0  0  0  0  0  0
    4.9868   -1.1606   -0.5101 H   0  0  0  0  0  0  0  0  0  0  0  0
    3.4889    1.4804   -0.4571 H   0  0  0  0  0  0  0  0  0  0  0  0
    0.8268    1.1945   -0.1805 H   0  0  0  0  0  0  0  0  0  0  0  0
   -3.0369    0.4180   -3.0446 H   0  0  0  0  0  0  0  0  0  0  0  0
   -3.6349   -0.9213   -2.0647 H   0  0  0  0  0  0  0  0  0  0  0  0
   -1.9018   -0.7066   -2.3090 H   0  0  0  0  0  0  0  0  0  0  0  0
   -4.1345    2.1235   -1.7125 H   0  0  0  0  0  0  0  0  0  0  0  0
   -5.2470    3.8062   -0.2052 H   0  0  0  0  0  0  0  0  0  0  0  0
   -4.4362    4.2837    1.2826 H   0  0  0  0  0  0  0  0  0  0  0  0
   -3.7440    4.7274   -0.2777 H   0  0  0  0  0  0  0  0  0  0  0  0
   -2.6437    2.9537    2.1707 H   0  0  0  0  0  0  0  0  0  0  0  0
   -1.5375    1.1709    3.4034 H   0  0  0  0  0  0  0  0  0  0  0  0
   -0.1020    1.2116    2.3792 H   0  0  0  0  0  0  0  0  0  0  0  0
   -1.0032   -0.2902    2.5824 H   0  0  0  0  0  0  0  0  0  0  0  0
   -3.9672   -1.9043    0.4791 H   0  0  0  0  0  0  0  0  0  0  0  0
   -4.0677   -4.5570    0.5859 H   0  0  0  0  0  0  0  0  0  0  0  0
   -1.5438   -5.4901    0.3365 H   0  0  0  0  0  0  0  0  0  0  0  0
    3.0952   -2.5139   -0.2532 H   0  0  0  0  0  0  0  0  0  0  0  0
  1  2  1  0  0  0  0
  2  3  1  0  0  0  0
  3  4  2  0  0  0  0
  3  5  1  0  0  0  0
  5  6  2  0  0  0  0
  6  7  1  0  0  0  0
  7  8  2  0  0  0  0
  8  9  1  0  0  0  0
  9 10  2  0  0  0  0
 10 11  1  0  0  0  0
 11 12  2  0  0  0  0
 12 13  1  0  0  0  0
 12 14  1  0  0  0  0
 14 15  2  0  0  0  0
 15 16  1  0  0  0  0
 15 17  1  0  0  0  0
 17 18  2  0  0  0  0
 18 19  1  0  0  0  0
 10 20  1  0  0  0  0
 20 21  2  0  0  0  0
 21 22  1  0  0  0  0
 22 23  2  0  0  0  0
 23 24  1  0  0  0  0
 24 25  1  0  0  0  0
 25 26  1  0  0  0  0
 25 27  1  0  0  0  0
 25 28  1  0  0  0  0
 28 29  2  0  0  0  0
 29  7  1  0  0  0  0
 28  9  1  0  0  0  0
 18 11  1  0  0  0  0
 24 20  1  0  0  0  0
  1 30  1  0  0  0  0
  1 31  1  0  0  0  0
  1 32  1  0  0  0  0
  5 33  1  0  0  0  0
  6 34  1  0  0  0  0
  8 35  1  0  0  0  0
 13 36  1  0  0  0  0
 13 37  1  0  0  0  0
 13 38  1  0  0  0  0
 14 39  1  0  0  0  0
 16 40  1  0  0  0  0
 16 41  1  0  0  0  0
 16 42  1  0  0  0  0
 17 43  1  0  0  0  0
 19 44  1  0  0  0  0
 19 45  1  0  0  0  0
 19 46  1  0  0  0  0
 21 47  1  0  0  0  0
 22 48  1  0  0  0  0
 23 49  1  0  0  0  0
 29 50  1  0  0  0  0
M  CHG  1  25  -1
M  CHG  1  28   1
M  END
