
  xtb     03012221233D
 energy: -4.255575861037 gnorm: 0.000249831857 xtb: 6.4.1 (afa7bdf)
 23 23  0     0  0            999 V2000
    3.7153    0.1934    0.5834 C   0  0  0  0  0  0  0  0  0  0  0  0
    2.9367   -1.0504    0.2108 C   0  0  0  0  0  0  0  0  0  0  0  0
    1.5427   -0.8741    0.3228 O   0  0  0  0  0  0  0  0  0  0  0  0
    1.0818   -0.0693   -0.6842 C   0  0  0  0  0  0  0  0  0  0  0  0
    1.7880    0.4223   -1.5442 O   0  0  0  0  0  0  0  0  0  0  0  0
   -0.3760    0.1951   -0.6855 C   0  0  0  0  0  0  0  0  0  0  0  0
   -0.9473    0.9871   -1.6712 C   0  0  0  0  0  0  0  0  0  0  0  0
   -2.3050    1.2317   -1.6679 C   0  0  0  0  0  0  0  0  0  0  0  0
   -3.1037    0.6906   -0.6858 C   0  0  0  0  0  0  0  0  0  0  0  0
   -2.5537   -0.1119    0.3175 C   0  0  0  0  0  0  0  0  0  0  0  0
   -3.3502   -0.6621    1.3124 N   0  0  0  0  0  0  0  0  0  0  0  0
   -1.1798   -0.3470    0.2984 C   0  0  0  0  0  0  0  0  0  0  0  0
    3.4363    1.0202   -0.0707 H   0  0  0  0  0  0  0  0  0  0  0  0
    4.7931    0.0459    0.5018 H   0  0  0  0  0  0  0  0  0  0  0  0
    3.4891    0.4977    1.6052 H   0  0  0  0  0  0  0  0  0  0  0  0
    3.1390   -1.3570   -0.8251 H   0  0  0  0  0  0  0  0  0  0  0  0
    3.2042   -1.8990    0.8543 H   0  0  0  0  0  0  0  0  0  0  0  0
   -0.3097    1.4018   -2.4332 H   0  0  0  0  0  0  0  0  0  0  0  0
   -2.7407    1.8481   -2.4368 H   0  0  0  0  0  0  0  0  0  0  0  0
   -4.1620    0.8805   -0.6772 H   0  0  0  0  0  0  0  0  0  0  0  0
   -3.0098   -1.4022    1.9092 H   0  0  0  0  0  0  0  0  0  0  0  0
   -4.3565   -0.6838    1.2297 H   0  0  0  0  0  0  0  0  0  0  0  0
   -0.7316   -0.9575    1.0601 H   0  0  0  0  0  0  0  0  0  0  0  0
  1  2  1  0  0  0  0
  2  3  1  0  0  0  0
  3  4  1  0  0  0  0
  4  5  2  0  0  0  0
  4  6  1  0  0  0  0
  6  7  2  0  0  0  0
  7  8  1  0  0  0  0
  8  9  2  0  0  0  0
  9 10  1  0  0  0  0
 10 11  1  0  0  0  0
 10 12  2  0  0  0  0
 12  6  1  0  0  0  0
  1 13  1  0  0  0  0
  1 14  1  0  0  0  0
  1 15  1  0  0  0  0
  2 16  1  0  0  0  0
  2 17  1  0  0  0  0
  7 18  1  0  0  0  0
  8 19  1  0  0  0  0
  9 20  1  0  0  0  0
 11 21  1  0  0  0  0
 11 22  1  0  0  0  0
 12 23  1  0  0  0  0
M  END
