
  xtb     03012221303D
 energy: -5.424249548478 gnorm: 0.000289469668 xtb: 6.4.1 (afa7bdf)
 25 27  0     0  0            999 V2000
   -2.2198   -2.2664    0.6676 C   0  0  0  0  0  0  0  0  0  0  0  0
   -2.1240   -0.8065    0.4211 C   0  0  0  0  0  0  0  0  0  0  0  0
   -3.2401   -0.0143    0.4549 C   0  0  0  0  0  0  0  0  0  0  0  0
   -3.1543    1.3588    0.2280 C   0  0  0  0  0  0  0  0  0  0  0  0
   -1.9501    1.9384   -0.0319 C   0  0  0  0  0  0  0  0  0  0  0  0
   -0.7696    1.1719   -0.0773 C   0  0  0  0  0  0  0  0  0  0  0  0
    0.3966    1.7868   -0.3372 N   0  0  0  0  0  0  0  0  0  0  0  0
    1.4407    0.9871   -0.3574 C   0  0  0  0  0  0  0  0  0  0  0  0
    2.6904    1.5353   -0.6189 N   0  0  0  0  0  0  0  0  0  0  0  0
    3.8644    0.8088   -0.6685 C   0  0  0  0  0  0  0  0  0  0  0  0
    4.9327    1.3422   -0.9023 O   0  0  0  0  0  0  0  0  0  0  0  0
    3.7660   -0.5506   -0.4398 N   0  0  0  0  0  0  0  0  0  0  0  0
    2.5791   -1.2082   -0.1701 C   0  0  0  0  0  0  0  0  0  0  0  0
    2.5520   -2.4092    0.0233 O   0  0  0  0  0  0  0  0  0  0  0  0
    1.3535   -0.4082   -0.1253 C   0  0  0  0  0  0  0  0  0  0  0  0
    0.2252   -1.0224    0.1286 N   0  0  0  0  0  0  0  0  0  0  0  0
   -0.8575   -0.2235    0.1538 C   0  0  0  0  0  0  0  0  0  0  0  0
   -2.9083   -2.7369   -0.0352 H   0  0  0  0  0  0  0  0  0  0  0  0
   -1.2440   -2.7412    0.5496 H   0  0  0  0  0  0  0  0  0  0  0  0
   -2.5700   -2.4681    1.6803 H   0  0  0  0  0  0  0  0  0  0  0  0
   -4.1965   -0.4644    0.6610 H   0  0  0  0  0  0  0  0  0  0  0  0
   -4.0463    1.9618    0.2590 H   0  0  0  0  0  0  0  0  0  0  0  0
   -1.8745    2.9974   -0.2085 H   0  0  0  0  0  0  0  0  0  0  0  0
    2.7434    2.5311   -0.7837 H   0  0  0  0  0  0  0  0  0  0  0  0
    4.6110   -1.0994   -0.4712 H   0  0  0  0  0  0  0  0  0  0  0  0
  1  2  1  0  0  0  0
  2  3  2  0  0  0  0
  3  4  1  0  0  0  0
  4  5  2  0  0  0  0
  5  6  1  0  0  0  0
  6  7  2  0  0  0  0
  7  8  1  0  0  0  0
  8  9  1  0  0  0  0
  9 10  1  0  0  0  0
 10 11  2  0  0  0  0
 10 12  1  0  0  0  0
 12 13  1  0  0  0  0
 13 14  2  0  0  0  0
 13 15  1  0  0  0  0
 15 16  1  0  0  0  0
 16 17  2  0  0  0  0
 17  2  1  0  0  0  0
 17  6  1  0  0  0  0
 15  8  2  0  0  0  0
  1 18  1  0  0  0  0
  1 19  1  0  0  0  0
  1 20  1  0  0  0  0
  3 21  1  0  0  0  0
  4 22  1  0  0  0  0
  5 23  1  0  0  0  0
  9 24  1  0  0  0  0
 12 25  1  0  0  0  0
M  END
