
  xtb     03012221203D
 energy: -4.196443994403 gnorm: 0.000210214443 xtb: 6.4.1 (afa7bdf)
 21 22  0     0  0            999 V2000
   -2.2982    1.3068    0.2224 C   0  0  0  0  0  0  0  0  0  0  0  0
   -1.3972    0.1255    0.1049 C   0  0  0  0  0  0  0  0  0  0  0  0
   -1.9209   -1.1399    0.0905 C   0  0  0  0  0  0  0  0  0  0  0  0
   -1.1015   -2.2701   -0.0159 C   0  0  0  0  0  0  0  0  0  0  0  0
    0.2485   -2.1352   -0.1084 C   0  0  0  0  0  0  0  0  0  0  0  0
    0.8435   -0.8541   -0.0981 C   0  0  0  0  0  0  0  0  0  0  0  0
    2.2448   -0.6880   -0.1929 C   0  0  0  0  0  0  0  0  0  0  0  0
    2.8006    0.5544   -0.1804 C   0  0  0  0  0  0  0  0  0  0  0  0
    1.9888    1.6900   -0.0727 C   0  0  0  0  0  0  0  0  0  0  0  0
    0.6356    1.5661    0.0202 C   0  0  0  0  0  0  0  0  0  0  0  0
    0.0173    0.2921    0.0101 C   0  0  0  0  0  0  0  0  0  0  0  0
   -2.0869    1.8690    1.1332 H   0  0  0  0  0  0  0  0  0  0  0  0
   -2.1760    1.9775   -0.6293 H   0  0  0  0  0  0  0  0  0  0  0  0
   -3.3465    1.0067    0.2562 H   0  0  0  0  0  0  0  0  0  0  0  0
   -2.9877   -1.2662    0.1634 H   0  0  0  0  0  0  0  0  0  0  0  0
   -1.5469   -3.2517   -0.0240 H   0  0  0  0  0  0  0  0  0  0  0  0
    0.8796   -3.0036   -0.1900 H   0  0  0  0  0  0  0  0  0  0  0  0
    2.8680   -1.5620   -0.2753 H   0  0  0  0  0  0  0  0  0  0  0  0
    3.8700    0.6681   -0.2534 H   0  0  0  0  0  0  0  0  0  0  0  0
    2.4419    2.6680   -0.0637 H   0  0  0  0  0  0  0  0  0  0  0  0
    0.0230    2.4466    0.1033 H   0  0  0  0  0  0  0  0  0  0  0  0
  1  2  1  0  0  0  0
  2  3  2  0  0  0  0
  3  4  1  0  0  0  0
  4  5  2  0  0  0  0
  5  6  1  0  0  0  0
  6  7  2  0  0  0  0
  7  8  1  0  0  0  0
  8  9  2  0  0  0  0
  9 10  1  0  0  0  0
 10 11  2  0  0  0  0
 11  2  1  0  0  0  0
 11  6  1  0  0  0  0
  1 12  1  0  0  0  0
  1 13  1  0  0  0  0
  1 14  1  0  0  0  0
  3 15  1  0  0  0  0
  4 16  1  0  0  0  0
  5 17  1  0  0  0  0
  7 18  1  0  0  0  0
  8 19  1  0  0  0  0
  9 20  1  0  0  0  0
 10 21  1  0  0  0  0
M  END
