
  xtb     03012221243D
 energy: -3.384538617545 gnorm: 0.000609428235 xtb: 6.4.1 (afa7bdf)
 18 18  0     0  0            999 V2000
    3.0078   -1.6301    0.1983 O   0  0  0  0  0  0  0  0  0  0  0  0
    2.5465   -0.5187    0.0341 C   0  0  0  0  0  0  0  0  0  0  0  0
    3.3271    0.5705   -0.1480 O   0  0  0  0  0  0  0  0  0  0  0  0
    1.0878   -0.3182    0.0282 C   0  0  0  0  0  0  0  0  0  0  0  0
    0.2405   -1.4039    0.1857 C   0  0  0  0  0  0  0  0  0  0  0  0
   -1.1346   -1.2335    0.1825 C   0  0  0  0  0  0  0  0  0  0  0  0
   -2.0132   -2.2809    0.3348 O   0  0  0  0  0  0  0  0  0  0  0  0
   -1.6646    0.0546    0.0180 C   0  0  0  0  0  0  0  0  0  0  0  0
   -3.0247    0.2326    0.0137 O   0  0  0  0  0  0  0  0  0  0  0  0
   -0.8125    1.1582   -0.1419 C   0  0  0  0  0  0  0  0  0  0  0  0
   -1.4086    2.3939   -0.2986 O   0  0  0  0  0  0  0  0  0  0  0  0
    0.5599    0.9535   -0.1344 C   0  0  0  0  0  0  0  0  0  0  0  0
    4.2533    0.2687   -0.1165 H   0  0  0  0  0  0  0  0  0  0  0  0
    0.6543   -2.3889    0.3126 H   0  0  0  0  0  0  0  0  0  0  0  0
   -2.9250   -1.9188    0.2996 H   0  0  0  0  0  0  0  0  0  0  0  0
   -3.1998    1.1897   -0.1121 H   0  0  0  0  0  0  0  0  0  0  0  0
   -0.7255    3.0874   -0.4004 H   0  0  0  0  0  0  0  0  0  0  0  0
    1.2314    1.7841   -0.2553 H   0  0  0  0  0  0  0  0  0  0  0  0
  1  2  2  0  0  0  0
  2  3  1  0  0  0  0
  2  4  1  0  0  0  0
  4  5  2  0  0  0  0
  5  6  1  0  0  0  0
  6  7  1  0  0  0  0
  6  8  2  0  0  0  0
  8  9  1  0  0  0  0
  8 10  1  0  0  0  0
 10 11  1  0  0  0  0
 10 12  2  0  0  0  0
 12  4  1  0  0  0  0
  3 13  1  0  0  0  0
  5 14  1  0  0  0  0
  7 15  1  0  0  0  0
  9 16  1  0  0  0  0
 11 17  1  0  0  0  0
 12 18  1  0  0  0  0
M  END
