
  xtb     03012221243D
 energy: -16.434545115765 gnorm: 0.000247630262 xtb: 6.4.1 (afa7bdf)
 74 83  0     0  0            999 V2000
   -7.7092   -0.9792   -0.8189 C   0  0  0  0  0  0  0  0  0  0  0  0
   -7.0192   -1.7411    0.1029 C   0  0  0  0  0  0  0  0  0  0  0  0
   -5.6571   -1.5923    0.2411 C   0  0  0  0  0  0  0  0  0  0  0  0
   -4.9559   -0.6801   -0.5471 C   0  0  0  0  0  0  0  0  0  0  0  0
   -3.4913   -0.5059   -0.3968 C   0  0  0  0  0  0  0  0  0  0  0  0
   -2.9930    0.7286   -0.0952 C   0  0  0  0  0  0  0  0  0  0  0  0
   -1.6062    0.9787    0.0879 C   0  0  0  0  0  0  0  0  0  0  0  0
   -1.1335    2.2676    0.4059 C   0  0  0  0  0  0  0  0  0  0  0  0
   -2.0856    3.3942    0.5758 C   0  0  0  0  0  0  0  0  0  0  0  0
   -3.0448    3.3779    1.5926 C   0  0  0  0  0  0  0  0  0  0  0  0
   -3.9305    4.4201    1.7425 C   0  0  0  0  0  0  0  0  0  0  0  0
   -3.8801    5.5023    0.8861 C   0  0  0  0  0  0  0  0  0  0  0  0
   -2.9389    5.5387   -0.1239 C   0  0  0  0  0  0  0  0  0  0  0  0
   -2.0516    4.4988   -0.2803 C   0  0  0  0  0  0  0  0  0  0  0  0
    0.2725    2.4802    0.5695 C   0  0  0  0  0  0  0  0  0  0  0  0
    0.7865    3.7357    0.9292 C   0  0  0  0  0  0  0  0  0  0  0  0
    2.1334    3.9286    1.1068 C   0  0  0  0  0  0  0  0  0  0  0  0
    3.0203    2.8842    0.9309 C   0  0  0  0  0  0  0  0  0  0  0  0
    2.5761    1.6149    0.5697 C   0  0  0  0  0  0  0  0  0  0  0  0
    3.4919    0.5068    0.3954 C   0  0  0  0  0  0  0  0  0  0  0  0
    4.9569    0.6818    0.5401 C   0  0  0  0  0  0  0  0  0  0  0  0
    5.6774   -0.0923    1.4490 C   0  0  0  0  0  0  0  0  0  0  0  0
    7.0402    0.0594    1.5781 C   0  0  0  0  0  0  0  0  0  0  0  0
    7.7114    0.9817    0.8003 C   0  0  0  0  0  0  0  0  0  0  0  0
    7.0159    1.7502   -0.1118 C   0  0  0  0  0  0  0  0  0  0  0  0
    5.6532    1.6008   -0.2444 C   0  0  0  0  0  0  0  0  0  0  0  0
    2.9932   -0.7279    0.0953 C   0  0  0  0  0  0  0  0  0  0  0  0
    1.6062   -0.9785   -0.0851 C   0  0  0  0  0  0  0  0  0  0  0  0
    1.1333   -2.2677   -0.4011 C   0  0  0  0  0  0  0  0  0  0  0  0
    2.0849   -3.3952   -0.5685 C   0  0  0  0  0  0  0  0  0  0  0  0
    3.0404   -3.3836   -1.5889 C   0  0  0  0  0  0  0  0  0  0  0  0
    3.9251   -4.4270   -1.7370 C   0  0  0  0  0  0  0  0  0  0  0  0
    3.8774   -5.5051   -0.8753 C   0  0  0  0  0  0  0  0  0  0  0  0
    2.9400   -5.5365    0.1385 C   0  0  0  0  0  0  0  0  0  0  0  0
    2.0535   -4.4955    0.2931 C   0  0  0  0  0  0  0  0  0  0  0  0
   -0.2726   -2.4804   -0.5649 C   0  0  0  0  0  0  0  0  0  0  0  0
   -0.7865   -3.7364   -0.9230 C   0  0  0  0  0  0  0  0  0  0  0  0
   -2.1334   -3.9293   -1.1008 C   0  0  0  0  0  0  0  0  0  0  0  0
   -3.0202   -2.8845   -0.9271 C   0  0  0  0  0  0  0  0  0  0  0  0
   -2.5759   -1.6146   -0.5681 C   0  0  0  0  0  0  0  0  0  0  0  0
   -1.1814   -1.3992   -0.3957 C   0  0  0  0  0  0  0  0  0  0  0  0
   -0.6942   -0.1047   -0.0733 C   0  0  0  0  0  0  0  0  0  0  0  0
    0.6941    0.1051    0.0756 C   0  0  0  0  0  0  0  0  0  0  0  0
    1.1815    1.3994    0.3983 C   0  0  0  0  0  0  0  0  0  0  0  0
   -5.6707    0.0873   -1.4660 C   0  0  0  0  0  0  0  0  0  0  0  0
   -7.0330   -0.0640   -1.6009 C   0  0  0  0  0  0  0  0  0  0  0  0
   -8.7753   -1.0965   -0.9258 H   0  0  0  0  0  0  0  0  0  0  0  0
   -7.5478   -2.4513    0.7178 H   0  0  0  0  0  0  0  0  0  0  0  0
   -5.1184   -2.1738    0.9698 H   0  0  0  0  0  0  0  0  0  0  0  0
   -3.6839    1.5437    0.0152 H   0  0  0  0  0  0  0  0  0  0  0  0
   -3.0759    2.5370    2.2641 H   0  0  0  0  0  0  0  0  0  0  0  0
   -4.6648    4.3923    2.5315 H   0  0  0  0  0  0  0  0  0  0  0  0
   -4.5747    6.3178    1.0059 H   0  0  0  0  0  0  0  0  0  0  0  0
   -2.9006    6.3833   -0.7930 H   0  0  0  0  0  0  0  0  0  0  0  0
   -1.3236    4.5194   -1.0731 H   0  0  0  0  0  0  0  0  0  0  0  0
    0.1061    4.5544    1.0810 H   0  0  0  0  0  0  0  0  0  0  0  0
    2.5027    4.9013    1.3892 H   0  0  0  0  0  0  0  0  0  0  0  0
    4.0712    3.0466    1.0894 H   0  0  0  0  0  0  0  0  0  0  0  0
    5.1504   -0.8088    2.0558 H   0  0  0  0  0  0  0  0  0  0  0  0
    7.5835   -0.5431    2.2880 H   0  0  0  0  0  0  0  0  0  0  0  0
    8.7779    1.0997    0.9030 H   0  0  0  0  0  0  0  0  0  0  0  0
    7.5405    2.4662   -0.7235 H   0  0  0  0  0  0  0  0  0  0  0  0
    5.1104    2.1870   -0.9663 H   0  0  0  0  0  0  0  0  0  0  0  0
    3.6840   -1.5428   -0.0173 H   0  0  0  0  0  0  0  0  0  0  0  0
    3.0696   -2.5459   -2.2642 H   0  0  0  0  0  0  0  0  0  0  0  0
    4.6564   -4.4033   -2.5289 H   0  0  0  0  0  0  0  0  0  0  0  0
    4.5709   -6.3216   -0.9941 H   0  0  0  0  0  0  0  0  0  0  0  0
    2.9041   -6.3778    0.8117 H   0  0  0  0  0  0  0  0  0  0  0  0
    1.3283   -4.5122    1.0884 H   0  0  0  0  0  0  0  0  0  0  0  0
   -0.1060   -4.5553   -1.0732 H   0  0  0  0  0  0  0  0  0  0  0  0
   -2.5028   -4.9025   -1.3816 H   0  0  0  0  0  0  0  0  0  0  0  0
   -4.0712   -3.0469   -1.0851 H   0  0  0  0  0  0  0  0  0  0  0  0
   -5.1398    0.7982   -2.0759 H   0  0  0  0  0  0  0  0  0  0  0  0
   -7.5720    0.5331   -2.3184 H   0  0  0  0  0  0  0  0  0  0  0  0
  1  2  2  0  0  0  0
  2  3  1  0  0  0  0
  3  4  2  0  0  0  0
  4  5  1  0  0  0  0
  5  6  2  0  0  0  0
  6  7  1  0  0  0  0
  7  8  2  0  0  0  0
  8  9  1  0  0  0  0
  9 10  2  0  0  0  0
 10 11  1  0  0  0  0
 11 12  2  0  0  0  0
 12 13  1  0  0  0  0
 13 14  2  0  0  0  0
  8 15  1  0  0  0  0
 15 16  2  0  0  0  0
 16 17  1  0  0  0  0
 17 18  2  0  0  0  0
 18 19  1  0  0  0  0
 19 20  2  0  0  0  0
 20 21  1  0  0  0  0
 21 22  2  0  0  0  0
 22 23  1  0  0  0  0
 23 24  2  0  0  0  0
 24 25  1  0  0  0  0
 25 26  2  0  0  0  0
 20 27  1  0  0  0  0
 27 28  2  0  0  0  0
 28 29  1  0  0  0  0
 29 30  1  0  0  0  0
 30 31  2  0  0  0  0
 31 32  1  0  0  0  0
 32 33  2  0  0  0  0
 33 34  1  0  0  0  0
 34 35  2  0  0  0  0
 29 36  2  0  0  0  0
 36 37  1  0  0  0  0
 37 38  2  0  0  0  0
 38 39  1  0  0  0  0
 39 40  2  0  0  0  0
 40 41  1  0  0  0  0
 41 42  2  0  0  0  0
 42 43  1  0  0  0  0
 43 44  2  0  0  0  0
  4 45  1  0  0  0  0
 45 46  2  0  0  0  0
 46  1  1  0  0  0  0
 40  5  1  0  0  0  0
 42  7  1  0  0  0  0
 14  9  1  0  0  0  0
 44 15  1  0  0  0  0
 44 19  1  0  0  0  0
 26 21  1  0  0  0  0
 43 28  1  0  0  0  0
 35 30  1  0  0  0  0
 41 36  1  0  0  0  0
  1 47  1  0  0  0  0
  2 48  1  0  0  0  0
  3 49  1  0  0  0  0
  6 50  1  0  0  0  0
 10 51  1  0  0  0  0
 11 52  1  0  0  0  0
 12 53  1  0  0  0  0
 13 54  1  0  0  0  0
 14 55  1  0  0  0  0
 16 56  1  0  0  0  0
 17 57  1  0  0  0  0
 18 58  1  0  0  0  0
 22 59  1  0  0  0  0
 23 60  1  0  0  0  0
 24 61  1  0  0  0  0
 25 62  1  0  0  0  0
 26 63  1  0  0  0  0
 27 64  1  0  0  0  0
 31 65  1  0  0  0  0
 32 66  1  0  0  0  0
 33 67  1  0  0  0  0
 34 68  1  0  0  0  0
 35 69  1  0  0  0  0
 37 70  1  0  0  0  0
 38 71  1  0  0  0  0
 39 72  1  0  0  0  0
 45 73  1  0  0  0  0
 46 74  1  0  0  0  0
M  END
