
  xtb     03012221273D
 energy: -10.283454577407 gnorm: 0.000405165033 xtb: 6.4.1 (afa7bdf)
 49 54  0     0  0            999 V2000
   -3.9780   -2.1059   -2.4102 C   0  0  0  0  0  0  0  0  0  0  0  0
   -2.8745   -1.4990   -1.7832 O   0  0  0  0  0  0  0  0  0  0  0  0
   -3.0753   -1.1323   -0.4522 C   0  0  0  0  0  0  0  0  0  0  0  0
   -4.2947   -1.2703    0.2157 C   0  0  0  0  0  0  0  0  0  0  0  0
   -4.4457   -0.8500    1.5169 C   0  0  0  0  0  0  0  0  0  0  0  0
   -3.3857   -0.2782    2.1935 C   0  0  0  0  0  0  0  0  0  0  0  0
   -2.1712   -0.1366    1.5642 C   0  0  0  0  0  0  0  0  0  0  0  0
   -1.9893   -0.5608    0.2523 C   0  0  0  0  0  0  0  0  0  0  0  0
   -0.6849   -0.4015   -0.3840 C   0  0  0  0  0  0  0  0  0  0  0  0
   -0.1603   -1.2616   -1.2001 N   0  0  0  0  0  0  0  0  0  0  0  0
    1.1232   -0.8408   -1.6042 C   0  0  0  0  0  0  0  0  0  0  0  0
    2.2266   -1.7365   -1.0728 C   0  0  0  0  0  0  0  0  0  0  0  0
    2.5067   -3.0592   -1.2483 C   0  0  0  0  0  0  0  0  0  0  0  0
    3.6208   -3.6173   -0.5912 C   0  0  0  0  0  0  0  0  0  0  0  0
    4.4327   -2.8694    0.2199 C   0  0  0  0  0  0  0  0  0  0  0  0
    4.1668   -1.4959    0.4302 C   0  0  0  0  0  0  0  0  0  0  0  0
    4.9139   -0.5931    1.2217 C   0  0  0  0  0  0  0  0  0  0  0  0
    4.5391    0.7210    1.3134 C   0  0  0  0  0  0  0  0  0  0  0  0
    3.4041    1.2215    0.6451 C   0  0  0  0  0  0  0  0  0  0  0  0
    2.6456    0.3751   -0.1110 C   0  0  0  0  0  0  0  0  0  0  0  0
    3.0483   -0.9712   -0.2228 C   0  0  0  0  0  0  0  0  0  0  0  0
    1.3919    0.5599   -0.9374 C   0  0  0  0  0  0  0  0  0  0  0  0
    0.1501    0.7335   -0.1569 N   0  0  0  0  0  0  0  0  0  0  0  0
   -0.3692    2.0354    0.1378 C   0  0  0  0  0  0  0  0  0  0  0  0
   -1.5787    2.4564   -0.4146 C   0  0  0  0  0  0  0  0  0  0  0  0
   -2.0851    3.7032   -0.1292 C   0  0  0  0  0  0  0  0  0  0  0  0
   -1.3965    4.5534    0.7139 C   0  0  0  0  0  0  0  0  0  0  0  0
   -0.1996    4.1498    1.2732 C   0  0  0  0  0  0  0  0  0  0  0  0
    0.3110    2.9041    0.9888 C   0  0  0  0  0  0  0  0  0  0  0  0
   -4.2605   -3.0107   -1.8704 H   0  0  0  0  0  0  0  0  0  0  0  0
   -3.6904   -2.3770   -3.4266 H   0  0  0  0  0  0  0  0  0  0  0  0
   -4.8135   -1.4062   -2.4539 H   0  0  0  0  0  0  0  0  0  0  0  0
   -5.1342   -1.7041   -0.2953 H   0  0  0  0  0  0  0  0  0  0  0  0
   -5.3973   -0.9631    2.0106 H   0  0  0  0  0  0  0  0  0  0  0  0
   -3.5095    0.0543    3.2107 H   0  0  0  0  0  0  0  0  0  0  0  0
   -1.3385    0.3051    2.0838 H   0  0  0  0  0  0  0  0  0  0  0  0
    1.1619   -0.7871   -2.7037 H   0  0  0  0  0  0  0  0  0  0  0  0
    1.8744   -3.6598   -1.8777 H   0  0  0  0  0  0  0  0  0  0  0  0
    3.8376   -4.6636   -0.7353 H   0  0  0  0  0  0  0  0  0  0  0  0
    5.2812   -3.3158    0.7074 H   0  0  0  0  0  0  0  0  0  0  0  0
    5.7840   -0.9529    1.7418 H   0  0  0  0  0  0  0  0  0  0  0  0
    5.1278    1.3966    1.9130 H   0  0  0  0  0  0  0  0  0  0  0  0
    3.1520    2.2645    0.7047 H   0  0  0  0  0  0  0  0  0  0  0  0
    1.4997    1.3712   -1.6689 H   0  0  0  0  0  0  0  0  0  0  0  0
   -2.1078    1.7871   -1.0695 H   0  0  0  0  0  0  0  0  0  0  0  0
   -3.0200    4.0169   -0.5636 H   0  0  0  0  0  0  0  0  0  0  0  0
   -1.7944    5.5302    0.9378 H   0  0  0  0  0  0  0  0  0  0  0  0
    0.3328    4.8102    1.9378 H   0  0  0  0  0  0  0  0  0  0  0  0
    1.2224    2.5712    1.4483 H   0  0  0  0  0  0  0  0  0  0  0  0
  1  2  1  0  0  0  0
  2  3  1  0  0  0  0
  3  4  2  0  0  0  0
  4  5  1  0  0  0  0
  5  6  2  0  0  0  0
  6  7  1  0  0  0  0
  7  8  2  0  0  0  0
  8  9  1  0  0  0  0
  9 10  2  0  0  0  0
 10 11  1  0  0  0  0
 11 12  1  0  0  0  0
 12 13  2  0  0  0  0
 13 14  1  0  0  0  0
 14 15  2  0  0  0  0
 15 16  1  0  0  0  0
 16 17  2  0  0  0  0
 17 18  1  0  0  0  0
 18 19  2  0  0  0  0
 19 20  1  0  0  0  0
 20 21  2  0  0  0  0
 20 22  1  0  0  0  0
 22 23  1  0  0  0  0
 23 24  1  0  0  0  0
 24 25  2  0  0  0  0
 25 26  1  0  0  0  0
 26 27  2  0  0  0  0
 27 28  1  0  0  0  0
 28 29  2  0  0  0  0
  8  3  1  0  0  0  0
 23  9  1  0  0  0  0
 29 24  1  0  0  0  0
 22 11  1  0  0  0  0
 21 12  1  0  0  0  0
 21 16  1  0  0  0  0
  1 30  1  0  0  0  0
  1 31  1  0  0  0  0
  1 32  1  0  0  0  0
  4 33  1  0  0  0  0
  5 34  1  0  0  0  0
  6 35  1  0  0  0  0
  7 36  1  0  0  0  0
 11 37  1  0  0  0  0
 13 38  1  0  0  0  0
 14 39  1  0  0  0  0
 15 40  1  0  0  0  0
 17 41  1  0  0  0  0
 18 42  1  0  0  0  0
 19 43  1  0  0  0  0
 22 44  1  0  0  0  0
 25 45  1  0  0  0  0
 26 46  1  0  0  0  0
 27 47  1  0  0  0  0
 28 48  1  0  0  0  0
 29 49  1  0  0  0  0
M  END
