
  xtb     03012221323D
 energy: -14.235112873701 gnorm: 0.000245369943 xtb: 6.4.1 (afa7bdf)
 66 73  0     0  0            999 V2000
   -3.1902    3.7423    2.4951 C   0  0  0  0  0  0  0  0  0  0  0  0
   -3.6642    2.9642    1.4555 C   0  0  0  0  0  0  0  0  0  0  0  0
   -2.8259    2.0822    0.8162 C   0  0  0  0  0  0  0  0  0  0  0  0
   -1.4891    1.9548    1.2035 C   0  0  0  0  0  0  0  0  0  0  0  0
   -0.6138    1.0400    0.5623 N   0  0  0  0  0  0  0  0  0  0  0  0
    0.6633    1.3705    0.1527 C   0  0  0  0  0  0  0  0  0  0  0  0
    1.0367    2.7284   -0.0195 C   0  0  0  0  0  0  0  0  0  0  0  0
    2.2068    3.0713   -0.6109 C   0  0  0  0  0  0  0  0  0  0  0  0
    3.0770    2.0770   -1.1347 C   0  0  0  0  0  0  0  0  0  0  0  0
    4.2305    2.4245   -1.8604 C   0  0  0  0  0  0  0  0  0  0  0  0
    5.0076    1.4622   -2.4428 C   0  0  0  0  0  0  0  0  0  0  0  0
    4.6543    0.1188   -2.3381 C   0  0  0  0  0  0  0  0  0  0  0  0
    3.5471   -0.2497   -1.6264 C   0  0  0  0  0  0  0  0  0  0  0  0
    2.7490    0.7071   -0.9662 C   0  0  0  0  0  0  0  0  0  0  0  0
    1.5828    0.3477   -0.1981 C   0  0  0  0  0  0  0  0  0  0  0  0
    1.2962   -1.0026    0.2348 C   0  0  0  0  0  0  0  0  0  0  0  0
    2.2716   -1.9641    0.6479 C   0  0  0  0  0  0  0  0  0  0  0  0
    3.6228   -1.6452    0.8862 C   0  0  0  0  0  0  0  0  0  0  0  0
    4.5176   -2.6021    1.2755 C   0  0  0  0  0  0  0  0  0  0  0  0
    4.0963   -3.9149    1.4657 C   0  0  0  0  0  0  0  0  0  0  0  0
    2.7802   -4.2447    1.2962 C   0  0  0  0  0  0  0  0  0  0  0  0
    1.8292   -3.2819    0.9126 C   0  0  0  0  0  0  0  0  0  0  0  0
    0.5166   -3.6445    0.8595 N   0  0  0  0  0  0  0  0  0  0  0  0
   -0.3193   -2.6764    0.6226 C   0  0  0  0  0  0  0  0  0  0  0  0
    0.0046   -1.3971    0.3342 N   0  0  0  0  0  4  0  0  0  0  0  0
   -1.0953   -0.3489    0.0534 B   0  0  0  0  0  4  0  0  0  0  0  0
   -2.4289   -0.8031    0.8224 C   0  0  0  0  0  0  0  0  0  0  0  0
   -2.3679   -0.8214    2.1965 C   0  0  0  0  0  0  0  0  0  0  0  0
   -3.4633   -1.2226    2.9334 C   0  0  0  0  0  0  0  0  0  0  0  0
   -4.6192   -1.6139    2.2875 C   0  0  0  0  0  0  0  0  0  0  0  0
   -4.6755   -1.6056    0.9077 C   0  0  0  0  0  0  0  0  0  0  0  0
   -3.5770   -1.2017    0.1767 C   0  0  0  0  0  0  0  0  0  0  0  0
   -1.3151   -0.2716   -1.5350 C   0  0  0  0  0  0  0  0  0  0  0  0
   -1.5354    0.9347   -2.1580 C   0  0  0  0  0  0  0  0  0  0  0  0
   -1.7245    0.9876   -3.5238 C   0  0  0  0  0  0  0  0  0  0  0  0
   -1.6906   -0.1754   -4.2671 C   0  0  0  0  0  0  0  0  0  0  0  0
   -1.4610   -1.3856   -3.6431 C   0  0  0  0  0  0  0  0  0  0  0  0
   -1.2708   -1.4292   -2.2770 C   0  0  0  0  0  0  0  0  0  0  0  0
   -1.0298    2.7488    2.2583 C   0  0  0  0  0  0  0  0  0  0  0  0
   -1.8712    3.6312    2.8939 C   0  0  0  0  0  0  0  0  0  0  0  0
   -3.8489    4.4331    2.9956 H   0  0  0  0  0  0  0  0  0  0  0  0
   -4.6931    3.0479    1.1466 H   0  0  0  0  0  0  0  0  0  0  0  0
   -3.1942    1.4775    0.0076 H   0  0  0  0  0  0  0  0  0  0  0  0
    0.3510    3.4945    0.2948 H   0  0  0  0  0  0  0  0  0  0  0  0
    2.4655    4.1074   -0.7424 H   0  0  0  0  0  0  0  0  0  0  0  0
    4.4852    3.4648   -1.9673 H   0  0  0  0  0  0  0  0  0  0  0  0
    5.8861    1.7428   -3.0014 H   0  0  0  0  0  0  0  0  0  0  0  0
    5.2564   -0.6315   -2.8238 H   0  0  0  0  0  0  0  0  0  0  0  0
    3.2631   -1.2858   -1.5782 H   0  0  0  0  0  0  0  0  0  0  0  0
    3.9460   -0.6258    0.7749 H   0  0  0  0  0  0  0  0  0  0  0  0
    5.5500   -2.3410    1.4396 H   0  0  0  0  0  0  0  0  0  0  0  0
    4.8065   -4.6676    1.7670 H   0  0  0  0  0  0  0  0  0  0  0  0
    2.4407   -5.2497    1.4744 H   0  0  0  0  0  0  0  0  0  0  0  0
   -1.3650   -2.9253    0.6400 H   0  0  0  0  0  0  0  0  0  0  0  0
   -1.4563   -0.5172    2.6809 H   0  0  0  0  0  0  0  0  0  0  0  0
   -3.4149   -1.2312    4.0097 H   0  0  0  0  0  0  0  0  0  0  0  0
   -5.4761   -1.9285    2.8600 H   0  0  0  0  0  0  0  0  0  0  0  0
   -5.5753   -1.9145    0.4021 H   0  0  0  0  0  0  0  0  0  0  0  0
   -3.6088   -1.1934   -0.8982 H   0  0  0  0  0  0  0  0  0  0  0  0
   -1.5364    1.8352   -1.5713 H   0  0  0  0  0  0  0  0  0  0  0  0
   -1.8939    1.9348   -4.0086 H   0  0  0  0  0  0  0  0  0  0  0  0
   -1.8375   -0.1381   -5.3339 H   0  0  0  0  0  0  0  0  0  0  0  0
   -1.4266   -2.2941   -4.2212 H   0  0  0  0  0  0  0  0  0  0  0  0
   -1.0741   -2.3630   -1.7818 H   0  0  0  0  0  0  0  0  0  0  0  0
   -0.0082    2.6427    2.5789 H   0  0  0  0  0  0  0  0  0  0  0  0
   -1.5029    4.2345    3.7072 H   0  0  0  0  0  0  0  0  0  0  0  0
  1  2  2  0  0  0  0
  2  3  1  0  0  0  0
  3  4  2  0  0  0  0
  4  5  1  0  0  0  0
  5  6  1  0  0  0  0
  6  7  2  0  0  0  0
  7  8  1  0  0  0  0
  8  9  2  0  0  0  0
  9 10  1  0  0  0  0
 10 11  2  0  0  0  0
 11 12  1  0  0  0  0
 12 13  2  0  0  0  0
 13 14  1  0  0  0  0
 14 15  2  0  0  0  0
 15 16  1  0  0  0  0
 16 17  2  0  0  0  0
 17 18  1  0  0  0  0
 18 19  2  0  0  0  0
 19 20  1  0  0  0  0
 20 21  2  0  0  0  0
 21 22  1  0  0  0  0
 22 23  2  0  0  0  0
 23 24  1  0  0  0  0
 24 25  2  0  0  0  0
 25 26  1  0  0  0  0
 26 27  1  0  0  0  0
 27 28  2  0  0  0  0
 28 29  1  0  0  0  0
 29 30  2  0  0  0  0
 30 31  1  0  0  0  0
 31 32  2  0  0  0  0
 26 33  1  0  0  0  0
 33 34  2  0  0  0  0
 34 35  1  0  0  0  0
 35 36  2  0  0  0  0
 36 37  1  0  0  0  0
 37 38  2  0  0  0  0
  4 39  1  0  0  0  0
 39 40  2  0  0  0  0
 40  1  1  0  0  0  0
 26  5  1  0  0  0  0
 32 27  1  0  0  0  0
 38 33  1  0  0  0  0
 15  6  1  0  0  0  0
 25 16  1  0  0  0  0
 14  9  1  0  0  0  0
 22 17  1  0  0  0  0
  1 41  1  0  0  0  0
  2 42  1  0  0  0  0
  3 43  1  0  0  0  0
  7 44  1  0  0  0  0
  8 45  1  0  0  0  0
 10 46  1  0  0  0  0
 11 47  1  0  0  0  0
 12 48  1  0  0  0  0
 13 49  1  0  0  0  0
 18 50  1  0  0  0  0
 19 51  1  0  0  0  0
 20 52  1  0  0  0  0
 21 53  1  0  0  0  0
 24 54  1  0  0  0  0
 28 55  1  0  0  0  0
 29 56  1  0  0  0  0
 30 57  1  0  0  0  0
 31 58  1  0  0  0  0
 32 59  1  0  0  0  0
 34 60  1  0  0  0  0
 35 61  1  0  0  0  0
 36 62  1  0  0  0  0
 37 63  1  0  0  0  0
 38 64  1  0  0  0  0
 39 65  1  0  0  0  0
 40 66  1  0  0  0  0
M  CHG  1  25   1
M  CHG  1  26  -1
M  END
