
  xtb     03012221203D
 energy: -11.715572135601 gnorm: 0.000418745478 xtb: 6.4.1 (afa7bdf)
 59 62  0     0  0            999 V2000
   -5.6091   -4.2439   -2.5356 C   0  0  0  0  0  0  0  0  0  0  0  0
   -4.5149   -3.5518   -3.0860 O   0  0  0  0  0  0  0  0  0  0  0  0
   -3.8923   -2.6481   -2.2131 C   0  0  0  0  0  0  0  0  0  0  0  0
   -2.7984   -1.9288   -2.7019 C   0  0  0  0  0  0  0  0  0  0  0  0
   -2.1291   -1.0272   -1.9129 C   0  0  0  0  0  0  0  0  0  0  0  0
   -2.5237   -0.8081   -0.5972 C   0  0  0  0  0  0  0  0  0  0  0  0
   -1.8298    0.1392    0.2346 N   0  0  0  0  0  0  0  0  0  0  0  0
   -0.4066    0.1725    0.2625 C   0  0  0  0  0  0  0  0  0  0  0  0
    0.3407   -0.9580   -0.0700 C   0  0  0  0  0  0  0  0  0  0  0  0
    1.7112   -0.9260   -0.0606 C   0  0  0  0  0  0  0  0  0  0  0  0
    2.4054    0.2426    0.2719 C   0  0  0  0  0  0  0  0  0  0  0  0
    3.8644    0.3114    0.3023 C   0  0  0  0  0  0  0  0  0  0  0  0
    4.7338   -0.2984   -0.5416 C   0  0  0  0  0  0  0  0  0  0  0  0
    4.2553   -1.0898   -1.7101 C   0  0  0  0  0  0  0  0  0  0  0  0
    6.1862   -0.1696   -0.3386 C   0  0  0  0  0  0  0  0  0  0  0  0
    6.7457    0.9542    0.2792 C   0  0  0  0  0  0  0  0  0  0  0  0
    8.1067    1.0614    0.4596 C   0  0  0  0  0  0  0  0  0  0  0  0
    8.9459    0.0534    0.0280 C   0  0  0  0  0  0  0  0  0  0  0  0
    8.4182   -1.0636   -0.5884 C   0  0  0  0  0  0  0  0  0  0  0  0
    7.0580   -1.1744   -0.7708 C   0  0  0  0  0  0  0  0  0  0  0  0
    1.6505    1.3650    0.6318 C   0  0  0  0  0  0  0  0  0  0  0  0
    0.2798    1.3330    0.6214 C   0  0  0  0  0  0  0  0  0  0  0  0
   -2.6087    1.0546    1.0252 C   0  0  0  0  0  0  0  0  0  0  0  0
   -2.2857    1.3065    2.3545 C   0  0  0  0  0  0  0  0  0  0  0  0
   -3.0455    2.1673    3.1066 C   0  0  0  0  0  0  0  0  0  0  0  0
   -4.1620    2.8110    2.5658 C   0  0  0  0  0  0  0  0  0  0  0  0
   -4.8818    3.6743    3.4043 O   0  0  0  0  0  0  0  0  0  0  0  0
   -5.9958    4.2872    2.8022 C   0  0  0  0  0  0  0  0  0  0  0  0
   -4.4824    2.5486    1.2307 C   0  0  0  0  0  0  0  0  0  0  0  0
   -3.7212    1.6871    0.4796 C   0  0  0  0  0  0  0  0  0  0  0  0
   -3.6168   -1.5133   -0.1042 C   0  0  0  0  0  0  0  0  0  0  0  0
   -4.2876   -2.4161   -0.8924 C   0  0  0  0  0  0  0  0  0  0  0  0
   -6.3850   -3.5374   -2.2381 H   0  0  0  0  0  0  0  0  0  0  0  0
   -6.0139   -4.9131   -3.2956 H   0  0  0  0  0  0  0  0  0  0  0  0
   -5.2821   -4.8370   -1.6807 H   0  0  0  0  0  0  0  0  0  0  0  0
   -2.4927   -2.0998   -3.7196 H   0  0  0  0  0  0  0  0  0  0  0  0
   -1.2949   -0.4723   -2.3045 H   0  0  0  0  0  0  0  0  0  0  0  0
   -0.1773   -1.8677   -0.3166 H   0  0  0  0  0  0  0  0  0  0  0  0
    2.2644   -1.8249   -0.2726 H   0  0  0  0  0  0  0  0  0  0  0  0
    4.2804    0.9194    1.0863 H   0  0  0  0  0  0  0  0  0  0  0  0
    3.2955   -0.7209   -2.0732 H   0  0  0  0  0  0  0  0  0  0  0  0
    4.1467   -2.1443   -1.4548 H   0  0  0  0  0  0  0  0  0  0  0  0
    4.9581   -1.0181   -2.5412 H   0  0  0  0  0  0  0  0  0  0  0  0
    6.1058    1.7608    0.5919 H   0  0  0  0  0  0  0  0  0  0  0  0
    8.5189    1.9363    0.9349 H   0  0  0  0  0  0  0  0  0  0  0  0
   10.0110    0.1393    0.1702 H   0  0  0  0  0  0  0  0  0  0  0  0
    9.0724   -1.8509   -0.9250 H   0  0  0  0  0  0  0  0  0  0  0  0
    6.6531   -2.0560   -1.2376 H   0  0  0  0  0  0  0  0  0  0  0  0
    2.1658    2.2710    0.9060 H   0  0  0  0  0  0  0  0  0  0  0  0
   -0.2840    2.2130    0.8749 H   0  0  0  0  0  0  0  0  0  0  0  0
   -1.4370    0.8069    2.7871 H   0  0  0  0  0  0  0  0  0  0  0  0
   -2.7965    2.3624    4.1353 H   0  0  0  0  0  0  0  0  0  0  0  0
   -5.6729    4.8985    1.9584 H   0  0  0  0  0  0  0  0  0  0  0  0
   -6.7070    3.5275    2.4755 H   0  0  0  0  0  0  0  0  0  0  0  0
   -6.4788    4.9297    3.5394 H   0  0  0  0  0  0  0  0  0  0  0  0
   -5.3354    3.0266    0.7834 H   0  0  0  0  0  0  0  0  0  0  0  0
   -3.9730    1.4913   -0.5478 H   0  0  0  0  0  0  0  0  0  0  0  0
   -3.9249   -1.3419    0.9122 H   0  0  0  0  0  0  0  0  0  0  0  0
   -5.1272   -2.9506   -0.4851 H   0  0  0  0  0  0  0  0  0  0  0  0
  1  2  1  0  0  0  0
  2  3  1  0  0  0  0
  3  4  2  0  0  0  0
  4  5  1  0  0  0  0
  5  6  2  0  0  0  0
  6  7  1  0  0  0  0
  7  8  1  0  0  0  0
  8  9  2  0  0  0  0
  9 10  1  0  0  0  0
 10 11  2  0  0  0  0
 11 12  1  0  0  0  0
 12 13  2  0  0  0  0
 13 14  1  0  0  0  0
 13 15  1  0  0  0  0
 15 16  2  0  0  0  0
 16 17  1  0  0  0  0
 17 18  2  0  0  0  0
 18 19  1  0  0  0  0
 19 20  2  0  0  0  0
 11 21  1  0  0  0  0
 21 22  2  0  0  0  0
  7 23  1  0  0  0  0
 23 24  2  0  0  0  0
 24 25  1  0  0  0  0
 25 26  2  0  0  0  0
 26 27  1  0  0  0  0
 27 28  1  0  0  0  0
 26 29  1  0  0  0  0
 29 30  2  0  0  0  0
  6 31  1  0  0  0  0
 31 32  2  0  0  0  0
 32  3  1  0  0  0  0
 22  8  1  0  0  0  0
 30 23  1  0  0  0  0
 20 15  1  0  0  0  0
  1 33  1  0  0  0  0
  1 34  1  0  0  0  0
  1 35  1  0  0  0  0
  4 36  1  0  0  0  0
  5 37  1  0  0  0  0
  9 38  1  0  0  0  0
 10 39  1  0  0  0  0
 12 40  1  0  0  0  0
 14 41  1  0  0  0  0
 14 42  1  0  0  0  0
 14 43  1  0  0  0  0
 16 44  1  0  0  0  0
 17 45  1  0  0  0  0
 18 46  1  0  0  0  0
 19 47  1  0  0  0  0
 20 48  1  0  0  0  0
 21 49  1  0  0  0  0
 22 50  1  0  0  0  0
 24 51  1  0  0  0  0
 25 52  1  0  0  0  0
 28 53  1  0  0  0  0
 28 54  1  0  0  0  0
 28 55  1  0  0  0  0
 29 56  1  0  0  0  0
 30 57  1  0  0  0  0
 31 58  1  0  0  0  0
 32 59  1  0  0  0  0
M  END
