
  xtb     03012221243D
 energy: -14.365633615858 gnorm: 0.000259694697 xtb: 6.4.1 (afa7bdf)
 74 79  0     0  0            999 V2000
    9.2129   -1.7806    2.7634 C   0  0  0  0  0  0  0  0  0  0  0  0
    8.0020   -1.0064    3.2387 C   0  0  0  0  0  0  0  0  0  0  0  0
    7.9693    0.3118    2.7415 O   0  0  0  0  0  0  0  0  0  0  0  0
    7.6611    0.3114    1.4171 C   0  0  0  0  0  0  0  0  0  0  0  0
    7.4672   -0.6790    0.7460 O   0  0  0  0  0  0  0  0  0  0  0  0
    7.5504    1.6670    0.7669 C   0  0  0  0  0  0  0  0  0  0  0  0
    6.4420    2.4266    1.2340 O   0  0  0  0  0  0  0  0  0  0  0  0
    5.1957    1.9686    0.8699 C   0  0  0  0  0  0  0  0  0  0  0  0
    4.0926    2.7888    1.1742 C   0  0  0  0  0  0  0  0  0  0  0  0
    2.8242    2.4263    0.8292 C   0  0  0  0  0  0  0  0  0  0  0  0
    2.5708    1.2190    0.1592 C   0  0  0  0  0  0  0  0  0  0  0  0
    1.2247    0.8687   -0.1767 C   0  0  0  0  0  0  0  0  0  0  0  0
    0.8358   -0.2400   -0.8542 C   0  0  0  0  0  0  0  0  0  0  0  0
   -0.5413   -0.5684   -1.1560 C   0  0  0  0  0  0  0  0  0  0  0  0
   -0.9075   -1.0038   -2.4595 C   0  0  0  0  0  0  0  0  0  0  0  0
   -0.1409   -1.2457   -3.6339 C   0  0  0  0  0  0  0  0  0  0  0  0
    1.3304   -1.1481   -3.7963 C   0  0  0  0  0  0  0  0  0  0  0  0
   -1.0315   -1.5995   -4.6390 C   0  0  0  0  0  0  0  0  0  0  0  0
   -2.3380   -1.5643   -4.1239 C   0  0  0  0  0  0  0  0  0  0  0  0
   -3.5951   -1.8889   -4.8217 C   0  0  0  0  0  0  0  0  0  0  0  0
   -2.2214   -1.1977   -2.8392 N   0  0  0  0  0  4  0  0  0  0  0  0
   -3.4021   -1.0830   -1.8765 B   0  0  0  0  0  4  0  0  0  0  0  0
   -3.8492   -2.3813   -1.6409 F   0  0  0  0  0  0  0  0  0  0  0  0
   -4.3817   -0.2834   -2.4567 F   0  0  0  0  0  0  0  0  0  0  0  0
   -2.9431   -0.4626   -0.5489 N   0  0  0  0  0  0  0  0  0  0  0  0
   -1.5995   -0.3678   -0.2413 C   0  0  0  0  0  0  0  0  0  0  0  0
   -1.5538    0.0439    1.1540 C   0  0  0  0  0  0  0  0  0  0  0  0
   -0.5233    0.1543    2.0869 C   0  0  0  0  0  0  0  0  0  0  0  0
   -0.8172    0.5536    3.3736 C   0  0  0  0  0  0  0  0  0  0  0  0
   -2.1255    0.8276    3.7567 C   0  0  0  0  0  0  0  0  0  0  0  0
   -3.1635    0.6909    2.8621 C   0  0  0  0  0  0  0  0  0  0  0  0
   -2.8817    0.2917    1.5577 C   0  0  0  0  0  0  0  0  0  0  0  0
   -3.7675   -0.0390    0.4609 C   0  0  0  0  0  0  0  0  0  0  0  0
   -5.1841    0.2354    0.4726 C   0  0  0  0  0  0  0  0  0  0  0  0
   -5.7268    1.3406    1.1190 N   0  0  0  0  0  0  0  0  0  0  0  0
   -7.0740    1.3554    0.9542 C   0  0  0  0  0  0  0  0  0  0  0  0
   -7.9949    2.3903    1.4680 C   0  0  0  0  0  0  0  0  0  0  0  0
   -7.4259    0.2313    0.2168 C   0  0  0  0  0  0  0  0  0  0  0  0
   -6.2710   -0.4793   -0.0829 C   0  0  0  0  0  0  0  0  0  0  0  0
   -6.2360   -1.7712   -0.8040 C   0  0  0  0  0  0  0  0  0  0  0  0
    3.6661    0.3893   -0.1300 C   0  0  0  0  0  0  0  0  0  0  0  0
    4.9353    0.7499    0.2161 C   0  0  0  0  0  0  0  0  0  0  0  0
    9.2136   -1.8450    1.6747 H   0  0  0  0  0  0  0  0  0  0  0  0
    9.2371   -2.7958    3.1626 H   0  0  0  0  0  0  0  0  0  0  0  0
   10.1329   -1.2762    3.0588 H   0  0  0  0  0  0  0  0  0  0  0  0
    7.9778   -0.9335    4.3341 H   0  0  0  0  0  0  0  0  0  0  0  0
    7.0658   -1.4911    2.9287 H   0  0  0  0  0  0  0  0  0  0  0  0
    7.4763    1.5724   -0.3202 H   0  0  0  0  0  0  0  0  0  0  0  0
    8.4484    2.2515    0.9879 H   0  0  0  0  0  0  0  0  0  0  0  0
    4.2802    3.7171    1.6830 H   0  0  0  0  0  0  0  0  0  0  0  0
    1.9960    3.0716    1.0706 H   0  0  0  0  0  0  0  0  0  0  0  0
    0.4564    1.5621    0.1218 H   0  0  0  0  0  0  0  0  0  0  0  0
    1.5969   -0.8840   -1.2544 H   0  0  0  0  0  0  0  0  0  0  0  0
    1.6997   -0.1822   -3.4501 H   0  0  0  0  0  0  0  0  0  0  0  0
    1.6134   -1.2510   -4.8444 H   0  0  0  0  0  0  0  0  0  0  0  0
    1.8385   -1.9355   -3.2388 H   0  0  0  0  0  0  0  0  0  0  0  0
   -0.7677   -1.8544   -5.6508 H   0  0  0  0  0  0  0  0  0  0  0  0
   -3.6371   -2.9486   -5.0724 H   0  0  0  0  0  0  0  0  0  0  0  0
   -3.6917   -1.3116   -5.7410 H   0  0  0  0  0  0  0  0  0  0  0  0
   -4.4485   -1.6578   -4.1844 H   0  0  0  0  0  0  0  0  0  0  0  0
    0.4829   -0.1021    1.8135 H   0  0  0  0  0  0  0  0  0  0  0  0
   -0.0229    0.6451    4.0956 H   0  0  0  0  0  0  0  0  0  0  0  0
   -2.3309    1.1324    4.7694 H   0  0  0  0  0  0  0  0  0  0  0  0
   -4.1815    0.8592    3.1603 H   0  0  0  0  0  0  0  0  0  0  0  0
   -5.1703    2.0776    1.5538 H   0  0  0  0  0  0  0  0  0  0  0  0
   -8.7268    1.9548    2.1484 H   0  0  0  0  0  0  0  0  0  0  0  0
   -8.5334    2.8699    0.6506 H   0  0  0  0  0  0  0  0  0  0  0  0
   -7.4475    3.1614    2.0096 H   0  0  0  0  0  0  0  0  0  0  0  0
   -8.4269   -0.0452   -0.0662 H   0  0  0  0  0  0  0  0  0  0  0  0
   -5.9130   -1.6245   -1.8345 H   0  0  0  0  0  0  0  0  0  0  0  0
   -7.2174   -2.2456   -0.8181 H   0  0  0  0  0  0  0  0  0  0  0  0
   -5.5332   -2.4576   -0.3312 H   0  0  0  0  0  0  0  0  0  0  0  0
    3.5015   -0.5578   -0.6133 H   0  0  0  0  0  0  0  0  0  0  0  0
    5.7476    0.0715    0.0376 H   0  0  0  0  0  0  0  0  0  0  0  0
  1  2  1  0  0  0  0
  2  3  1  0  0  0  0
  3  4  1  0  0  0  0
  4  5  2  0  0  0  0
  4  6  1  0  0  0  0
  6  7  1  0  0  0  0
  7  8  1  0  0  0  0
  8  9  2  0  0  0  0
  9 10  1  0  0  0  0
 10 11  2  0  0  0  0
 11 12  1  0  0  0  0
 12 13  2  0  0  0  0
 13 14  1  0  0  0  0
 14 15  2  0  0  0  0
 15 16  1  0  0  0  0
 16 17  1  0  0  0  0
 16 18  2  0  0  0  0
 18 19  1  0  0  0  0
 19 20  1  0  0  0  0
 19 21  2  0  0  0  0
 21 22  1  0  0  0  0
 22 23  1  0  0  0  0
 22 24  1  0  0  0  0
 22 25  1  0  0  0  0
 25 26  1  0  0  0  0
 26 27  2  0  0  0  0
 27 28  1  0  0  0  0
 28 29  2  0  0  0  0
 29 30  1  0  0  0  0
 30 31  2  0  0  0  0
 31 32  1  0  0  0  0
 32 33  2  0  0  0  0
 33 34  1  0  0  0  0
 34 35  1  0  0  0  0
 35 36  1  0  0  0  0
 36 37  1  0  0  0  0
 36 38  2  0  0  0  0
 38 39  1  0  0  0  0
 39 40  1  0  0  0  0
 11 41  1  0  0  0  0
 41 42  2  0  0  0  0
 42  8  1  0  0  0  0
 26 14  1  0  0  0  0
 32 27  1  0  0  0  0
 39 34  2  0  0  0  0
 21 15  1  0  0  0  0
 33 25  1  0  0  0  0
  1 43  1  0  0  0  0
  1 44  1  0  0  0  0
  1 45  1  0  0  0  0
  2 46  1  0  0  0  0
  2 47  1  0  0  0  0
  6 48  1  0  0  0  0
  6 49  1  0  0  0  0
  9 50  1  0  0  0  0
 10 51  1  0  0  0  0
 12 52  1  0  0  0  0
 13 53  1  0  0  0  0
 17 54  1  0  0  0  0
 17 55  1  0  0  0  0
 17 56  1  0  0  0  0
 18 57  1  0  0  0  0
 20 58  1  0  0  0  0
 20 59  1  0  0  0  0
 20 60  1  0  0  0  0
 28 61  1  0  0  0  0
 29 62  1  0  0  0  0
 30 63  1  0  0  0  0
 31 64  1  0  0  0  0
 35 65  1  0  0  0  0
 37 66  1  0  0  0  0
 37 67  1  0  0  0  0
 37 68  1  0  0  0  0
 38 69  1  0  0  0  0
 40 70  1  0  0  0  0
 40 71  1  0  0  0  0
 40 72  1  0  0  0  0
 41 73  1  0  0  0  0
 42 74  1  0  0  0  0
M  CHG  1  21   1
M  CHG  1  22  -1
M  END
