
  xtb     03012221253D
 energy: -16.154509754917 gnorm: 0.000200650062 xtb: 6.4.1 (afa7bdf)
 74 78  0     0  0            999 V2000
   -3.0129    3.8701    0.0718 C   0  0  0  0  0  0  0  0  0  0  0  0
   -2.5658    2.4529    0.1915 C   0  0  0  0  0  0  0  0  0  0  0  0
   -3.3497    1.4380   -0.2697 C   0  0  0  0  0  0  0  0  0  0  0  0
   -4.6109    1.6800   -0.8412 C   0  0  0  0  0  0  0  0  0  0  0  0
   -5.7019    1.8974   -1.3484 C   0  0  0  0  0  0  0  0  0  0  0  0
   -6.9572    2.1478   -1.9409 C   0  0  0  0  0  0  0  0  0  0  0  0
   -7.0670    2.3580   -3.3120 C   0  0  0  0  0  0  0  0  0  0  0  0
   -8.2945    2.6005   -3.8918 C   0  0  0  0  0  0  0  0  0  0  0  0
   -9.4322    2.6370   -3.1117 C   0  0  0  0  0  0  0  0  0  0  0  0
   -9.3410    2.4308   -1.7502 C   0  0  0  0  0  0  0  0  0  0  0  0
   -8.1142    2.1883   -1.1690 C   0  0  0  0  0  0  0  0  0  0  0  0
   -2.8658    0.1177   -0.2398 C   0  0  0  0  0  0  0  0  0  0  0  0
   -2.2918   -0.9615   -0.2081 C   0  0  0  0  0  0  0  0  0  0  0  0
   -1.4802   -2.1141   -0.1714 C   0  0  0  0  0  0  0  0  0  0  0  0
   -1.7698   -3.2326   -0.9454 C   0  0  0  0  0  0  0  0  0  0  0  0
   -0.9362   -4.3310   -0.9316 C   0  0  0  0  0  0  0  0  0  0  0  0
    0.1990   -4.3288   -0.1464 C   0  0  0  0  0  0  0  0  0  0  0  0
    0.5009   -3.2263    0.6264 C   0  0  0  0  0  0  0  0  0  0  0  0
   -0.3314   -2.1281    0.6129 C   0  0  0  0  0  0  0  0  0  0  0  0
   -1.2299    2.1683    0.7737 C   0  0  0  0  0  0  0  0  0  0  0  0
   -0.0641    2.6156    0.1464 C   0  0  0  0  0  0  0  0  0  0  0  0
    1.1711    2.2486    0.6175 C   0  0  0  0  0  0  0  0  0  0  0  0
    1.3000    1.4345    1.7474 C   0  0  0  0  0  0  0  0  0  0  0  0
    2.6310    0.9472    2.1888 C   0  0  0  0  0  0  0  0  0  0  0  0
    3.1097    1.2982    3.5565 C   0  0  0  0  0  0  0  0  0  0  0  0
    3.3806    0.1503    1.3762 C   0  0  0  0  0  0  0  0  0  0  0  0
    4.6338   -0.3435    1.7777 C   0  0  0  0  0  0  0  0  0  0  0  0
    5.7164   -0.7827    2.1382 C   0  0  0  0  0  0  0  0  0  0  0  0
    6.9608   -1.2983    2.5568 C   0  0  0  0  0  0  0  0  0  0  0  0
    8.0880   -1.1825    1.7494 C   0  0  0  0  0  0  0  0  0  0  0  0
    9.3032   -1.6897    2.1587 C   0  0  0  0  0  0  0  0  0  0  0  0
    9.4124   -2.3211    3.3810 C   0  0  0  0  0  0  0  0  0  0  0  0
    8.3042   -2.4445    4.1941 C   0  0  0  0  0  0  0  0  0  0  0  0
    7.0884   -1.9376    3.7861 C   0  0  0  0  0  0  0  0  0  0  0  0
    2.8665   -0.2525    0.1306 C   0  0  0  0  0  0  0  0  0  0  0  0
    2.2702   -0.5731   -0.8877 C   0  0  0  0  0  0  0  0  0  0  0  0
    1.4359   -0.9088   -1.9738 C   0  0  0  0  0  0  0  0  0  0  0  0
    0.2991   -0.1507   -2.2348 C   0  0  0  0  0  0  0  0  0  0  0  0
   -0.5550   -0.4897   -3.2617 C   0  0  0  0  0  0  0  0  0  0  0  0
   -0.2871   -1.5942   -4.0441 C   0  0  0  0  0  0  0  0  0  0  0  0
    0.8359   -2.3581   -3.7981 C   0  0  0  0  0  0  0  0  0  0  0  0
    1.6912   -2.0195   -2.7707 C   0  0  0  0  0  0  0  0  0  0  0  0
    0.1351    1.0322    2.4061 C   0  0  0  0  0  0  0  0  0  0  0  0
   -1.1005    1.3833    1.9239 C   0  0  0  0  0  0  0  0  0  0  0  0
   -4.0060    4.0027    0.5020 H   0  0  0  0  0  0  0  0  0  0  0  0
   -3.0534    4.1769   -0.9738 H   0  0  0  0  0  0  0  0  0  0  0  0
   -2.3302    4.5414    0.5938 H   0  0  0  0  0  0  0  0  0  0  0  0
   -6.1764    2.3277   -3.9165 H   0  0  0  0  0  0  0  0  0  0  0  0
   -8.3651    2.7610   -4.9551 H   0  0  0  0  0  0  0  0  0  0  0  0
  -10.3917    2.8260   -3.5656 H   0  0  0  0  0  0  0  0  0  0  0  0
  -10.2292    2.4587   -1.1406 H   0  0  0  0  0  0  0  0  0  0  0  0
   -8.0379    2.0258   -0.1072 H   0  0  0  0  0  0  0  0  0  0  0  0
   -2.6492   -3.2233   -1.5667 H   0  0  0  0  0  0  0  0  0  0  0  0
   -1.1686   -5.1898   -1.5396 H   0  0  0  0  0  0  0  0  0  0  0  0
    0.8528   -5.1859   -0.1410 H   0  0  0  0  0  0  0  0  0  0  0  0
    1.3941   -3.2166    1.2291 H   0  0  0  0  0  0  0  0  0  0  0  0
   -0.0850   -1.2515    1.1870 H   0  0  0  0  0  0  0  0  0  0  0  0
   -0.1497    3.2234   -0.7383 H   0  0  0  0  0  0  0  0  0  0  0  0
    2.0628    2.5682    0.1056 H   0  0  0  0  0  0  0  0  0  0  0  0
    3.1359    0.4159    4.1966 H   0  0  0  0  0  0  0  0  0  0  0  0
    2.4547    2.0343    4.0236 H   0  0  0  0  0  0  0  0  0  0  0  0
    4.1145    1.7202    3.5209 H   0  0  0  0  0  0  0  0  0  0  0  0
    7.9974   -0.6898    0.7961 H   0  0  0  0  0  0  0  0  0  0  0  0
   10.1682   -1.5933    1.5231 H   0  0  0  0  0  0  0  0  0  0  0  0
   10.3626   -2.7180    3.7002 H   0  0  0  0  0  0  0  0  0  0  0  0
    8.3887   -2.9381    5.1484 H   0  0  0  0  0  0  0  0  0  0  0  0
    6.2205   -2.0321    4.4166 H   0  0  0  0  0  0  0  0  0  0  0  0
    0.0798    0.6901   -1.5995 H   0  0  0  0  0  0  0  0  0  0  0  0
   -1.4384    0.1001   -3.4432 H   0  0  0  0  0  0  0  0  0  0  0  0
   -0.9574   -1.8633   -4.8444 H   0  0  0  0  0  0  0  0  0  0  0  0
    1.0425   -3.2236   -4.4060 H   0  0  0  0  0  0  0  0  0  0  0  0
    2.5611   -2.6199   -2.5652 H   0  0  0  0  0  0  0  0  0  0  0  0
    0.2202    0.4077    3.2791 H   0  0  0  0  0  0  0  0  0  0  0  0
   -1.9928    1.0373    2.4173 H   0  0  0  0  0  0  0  0  0  0  0  0
  1  2  1  0  0  0  0
  2  3  2  0  0  0  0
  3  4  1  0  0  0  0
  4  5  3  0  0  0  0
  5  6  1  0  0  0  0
  6  7  2  0  0  0  0
  7  8  1  0  0  0  0
  8  9  2  0  0  0  0
  9 10  1  0  0  0  0
 10 11  2  0  0  0  0
  3 12  1  0  0  0  0
 12 13  3  0  0  0  0
 13 14  1  0  0  0  0
 14 15  2  0  0  0  0
 15 16  1  0  0  0  0
 16 17  2  0  0  0  0
 17 18  1  0  0  0  0
 18 19  2  0  0  0  0
  2 20  1  0  0  0  0
 20 21  2  0  0  0  0
 21 22  1  0  0  0  0
 22 23  2  0  0  0  0
 23 24  1  0  0  0  0
 24 25  1  0  0  0  0
 24 26  2  0  0  0  0
 26 27  1  0  0  0  0
 27 28  3  0  0  0  0
 28 29  1  0  0  0  0
 29 30  2  0  0  0  0
 30 31  1  0  0  0  0
 31 32  2  0  0  0  0
 32 33  1  0  0  0  0
 33 34  2  0  0  0  0
 26 35  1  0  0  0  0
 35 36  3  0  0  0  0
 36 37  1  0  0  0  0
 37 38  2  0  0  0  0
 38 39  1  0  0  0  0
 39 40  2  0  0  0  0
 40 41  1  0  0  0  0
 41 42  2  0  0  0  0
 23 43  1  0  0  0  0
 43 44  2  0  0  0  0
 11  6  1  0  0  0  0
 19 14  1  0  0  0  0
 44 20  1  0  0  0  0
 34 29  1  0  0  0  0
 42 37  1  0  0  0  0
  1 45  1  0  0  0  0
  1 46  1  0  0  0  0
  1 47  1  0  0  0  0
  7 48  1  0  0  0  0
  8 49  1  0  0  0  0
  9 50  1  0  0  0  0
 10 51  1  0  0  0  0
 11 52  1  0  0  0  0
 15 53  1  0  0  0  0
 16 54  1  0  0  0  0
 17 55  1  0  0  0  0
 18 56  1  0  0  0  0
 19 57  1  0  0  0  0
 21 58  1  0  0  0  0
 22 59  1  0  0  0  0
 25 60  1  0  0  0  0
 25 61  1  0  0  0  0
 25 62  1  0  0  0  0
 30 63  1  0  0  0  0
 31 64  1  0  0  0  0
 32 65  1  0  0  0  0
 33 66  1  0  0  0  0
 34 67  1  0  0  0  0
 38 68  1  0  0  0  0
 39 69  1  0  0  0  0
 40 70  1  0  0  0  0
 41 71  1  0  0  0  0
 42 72  1  0  0  0  0
 43 73  1  0  0  0  0
 44 74  1  0  0  0  0
M  END
