
  xtb     03012221273D
 energy: -4.454237561054 gnorm: 0.000247652237 xtb: 6.4.1 (afa7bdf)
 22 22  0     0  0            999 V2000
   -0.7123   -1.3539    3.6379 C   0  0  0  0  0  0  0  0  0  0  0  0
    0.0961   -1.5963    2.4564 N   0  0  0  0  0  0  0  0  0  0  0  0
    0.0574   -0.8423    1.2879 C   0  0  0  0  0  0  0  0  0  0  0  0
    0.8841   -1.1757    0.2115 C   0  0  0  0  0  0  0  0  0  0  0  0
    0.8593   -0.4460   -0.9498 C   0  0  0  0  0  0  0  0  0  0  0  0
    0.0063    0.6533   -1.0913 C   0  0  0  0  0  0  0  0  0  0  0  0
   -0.0480    1.4492   -2.3039 C   0  0  0  0  0  0  0  0  0  0  0  0
    0.6804    1.2453   -3.4087 C   0  0  0  0  0  0  0  0  0  0  0  0
    0.5830    2.0410   -4.5347 C   0  0  0  0  0  0  0  0  0  0  0  0
    0.4894    2.7198   -5.4745 N   0  0  0  0  0  0  0  0  0  0  0  0
   -0.8191    0.9842   -0.0120 C   0  0  0  0  0  0  0  0  0  0  0  0
   -0.7955    0.2557    1.1498 C   0  0  0  0  0  0  0  0  0  0  0  0
   -0.5031   -2.0779    4.4253 H   0  0  0  0  0  0  0  0  0  0  0  0
   -0.5103   -0.3580    4.0292 H   0  0  0  0  0  0  0  0  0  0  0  0
   -1.7693   -1.4211    3.3856 H   0  0  0  0  0  0  0  0  0  0  0  0
    0.7248   -2.3969    2.5260 H   0  0  0  0  0  0  0  0  0  0  0  0
    1.5452   -2.0191    0.3078 H   0  0  0  0  0  0  0  0  0  0  0  0
    1.5064   -0.7252   -1.7615 H   0  0  0  0  0  0  0  0  0  0  0  0
   -0.7368    2.2762   -2.3106 H   0  0  0  0  0  0  0  0  0  0  0  0
    1.3829    0.4338   -3.4551 H   0  0  0  0  0  0  0  0  0  0  0  0
   -1.4821    1.8275   -0.1029 H   0  0  0  0  0  0  0  0  0  0  0  0
   -1.4387    0.5266    1.9679 H   0  0  0  0  0  0  0  0  0  0  0  0
  1  2  1  0  0  0  0
  2  3  1  0  0  0  0
  3  4  2  0  0  0  0
  4  5  1  0  0  0  0
  5  6  2  0  0  0  0
  6  7  1  0  0  0  0
  7  8  2  0  0  0  0
  8  9  1  0  0  0  0
  9 10  3  0  0  0  0
  6 11  1  0  0  0  0
 11 12  2  0  0  0  0
 12  3  1  0  0  0  0
  1 13  1  0  0  0  0
  1 14  1  0  0  0  0
  1 15  1  0  0  0  0
  2 16  1  0  0  0  0
  4 17  1  0  0  0  0
  5 18  1  0  0  0  0
  7 19  1  0  0  0  0
  8 20  1  0  0  0  0
 11 21  1  0  0  0  0
 12 22  1  0  0  0  0
M  END
