
  xtb     03012221293D
 energy: -8.756821139105 gnorm: 0.000442913920 xtb: 6.4.1 (afa7bdf)
 43 47  0     0  0            999 V2000
   -0.6525    2.3701   -2.1330 F   0  0  0  0  0  0  0  0  0  0  0  0
   -0.3564    2.0692   -0.8022 B   0  0  0  0  0  4  0  0  0  0  0  0
   -0.5787    3.1784    0.0169 F   0  0  0  0  0  0  0  0  0  0  0  0
    1.0480    1.6598   -0.6971 O   0  0  0  0  0  0  0  0  0  0  0  0
    1.4271    0.4402   -0.2417 C   0  0  0  0  0  0  0  0  0  0  0  0
    2.8714    0.1842   -0.1940 C   0  0  0  0  0  0  0  0  0  0  0  0
    3.4325   -0.9506    0.3872 C   0  0  0  0  0  0  0  0  0  0  0  0
    4.7961   -1.1271    0.3945 C   0  0  0  0  0  0  0  0  0  0  0  0
    5.6280   -0.1813   -0.1676 C   0  0  0  0  0  0  0  0  0  0  0  0
    7.1315   -0.3931   -0.1809 C   0  0  0  0  0  0  0  0  0  0  0  0
    7.4628   -1.2626    0.7974 F   0  0  0  0  0  0  0  0  0  0  0  0
    7.7400    0.7945    0.0247 F   0  0  0  0  0  0  0  0  0  0  0  0
    7.4802   -0.8927   -1.3854 F   0  0  0  0  0  0  0  0  0  0  0  0
    5.0850    0.9474   -0.7444 C   0  0  0  0  0  0  0  0  0  0  0  0
    3.7224    1.1290   -0.7540 C   0  0  0  0  0  0  0  0  0  0  0  0
    0.5005   -0.4847    0.1368 C   0  0  0  0  0  0  0  0  0  0  0  0
   -0.8933   -0.2295    0.0850 C   0  0  0  0  0  0  0  0  0  0  0  0
   -1.8525   -1.2313    0.4936 C   0  0  0  0  0  0  0  0  0  0  0  0
   -1.4588   -2.4980    0.9600 C   0  0  0  0  0  0  0  0  0  0  0  0
   -2.3797   -3.4337    1.3429 C   0  0  0  0  0  0  0  0  0  0  0  0
   -3.7325   -3.1443    1.2768 C   0  0  0  0  0  0  0  0  0  0  0  0
   -4.1506   -1.9218    0.8284 C   0  0  0  0  0  0  0  0  0  0  0  0
   -3.2324   -0.9390    0.4275 C   0  0  0  0  0  0  0  0  0  0  0  0
   -3.6612    0.3591   -0.0491 C   0  0  0  0  0  0  0  0  0  0  0  0
   -5.0113    0.7262   -0.1445 C   0  0  0  0  0  0  0  0  0  0  0  0
   -5.3814    1.9627   -0.5987 C   0  0  0  0  0  0  0  0  0  0  0  0
   -4.4154    2.8828   -0.9761 C   0  0  0  0  0  0  0  0  0  0  0  0
   -3.0935    2.5528   -0.8943 C   0  0  0  0  0  0  0  0  0  0  0  0
   -2.6814    1.2960   -0.4341 C   0  0  0  0  0  0  0  0  0  0  0  0
   -1.3317    0.9626   -0.3518 N   0  0  0  0  0  4  0  0  0  0  0  0
    2.8028   -1.6918    0.8443 H   0  0  0  0  0  0  0  0  0  0  0  0
    5.2387   -2.0024    0.8420 H   0  0  0  0  0  0  0  0  0  0  0  0
    5.7464    1.6787   -1.1804 H   0  0  0  0  0  0  0  0  0  0  0  0
    3.2869    2.0091   -1.1972 H   0  0  0  0  0  0  0  0  0  0  0  0
    0.8433   -1.4418    0.4711 H   0  0  0  0  0  0  0  0  0  0  0  0
   -0.4166   -2.7483    1.0223 H   0  0  0  0  0  0  0  0  0  0  0  0
   -2.0550   -4.3980    1.6968 H   0  0  0  0  0  0  0  0  0  0  0  0
   -4.4545   -3.8849    1.5800 H   0  0  0  0  0  0  0  0  0  0  0  0
   -5.2043   -1.7187    0.7862 H   0  0  0  0  0  0  0  0  0  0  0  0
   -5.7769    0.0290    0.1421 H   0  0  0  0  0  0  0  0  0  0  0  0
   -6.4245    2.2245   -0.6640 H   0  0  0  0  0  0  0  0  0  0  0  0
   -4.7084    3.8564   -1.3338 H   0  0  0  0  0  0  0  0  0  0  0  0
   -2.3404    3.2631   -1.1864 H   0  0  0  0  0  0  0  0  0  0  0  0
  1  2  1  0  0  0  0
  2  3  1  0  0  0  0
  2  4  1  0  0  0  0
  4  5  1  0  0  0  0
  5  6  1  0  0  0  0
  6  7  2  0  0  0  0
  7  8  1  0  0  0  0
  8  9  2  0  0  0  0
  9 10  1  0  0  0  0
 10 11  1  0  0  0  0
 10 12  1  0  0  0  0
 10 13  1  0  0  0  0
  9 14  1  0  0  0  0
 14 15  2  0  0  0  0
  5 16  2  0  0  0  0
 16 17  1  0  0  0  0
 17 18  2  0  0  0  0
 18 19  1  0  0  0  0
 19 20  2  0  0  0  0
 20 21  1  0  0  0  0
 21 22  2  0  0  0  0
 22 23  1  0  0  0  0
 23 24  2  0  0  0  0
 24 25  1  0  0  0  0
 25 26  2  0  0  0  0
 26 27  1  0  0  0  0
 27 28  2  0  0  0  0
 28 29  1  0  0  0  0
 29 30  2  0  0  0  0
 30  2  1  0  0  0  0
 15  6  1  0  0  0  0
 30 17  1  0  0  0  0
 23 18  1  0  0  0  0
 29 24  1  0  0  0  0
  7 31  1  0  0  0  0
  8 32  1  0  0  0  0
 14 33  1  0  0  0  0
 15 34  1  0  0  0  0
 16 35  1  0  0  0  0
 19 36  1  0  0  0  0
 20 37  1  0  0  0  0
 21 38  1  0  0  0  0
 22 39  1  0  0  0  0
 25 40  1  0  0  0  0
 26 41  1  0  0  0  0
 27 42  1  0  0  0  0
 28 43  1  0  0  0  0
M  CHG  1   2  -1
M  CHG  1  30   1
M  END
