
  xtb     03012221283D
 energy: -4.277787500138 gnorm: 0.000159768937 xtb: 6.4.1 (afa7bdf)
 21 22  0     0  0            999 V2000
   -3.4017    0.9820   -0.5861 N   0  0  0  0  0  0  0  0  0  0  0  0
   -2.1937    0.3431   -0.3555 C   0  0  0  0  0  0  0  0  0  0  0  0
   -2.1431   -1.0642   -0.2107 C   0  0  0  0  0  0  0  0  0  0  0  0
   -0.9656   -1.7053    0.0160 C   0  0  0  0  0  0  0  0  0  0  0  0
    0.2451   -0.9825    0.1132 C   0  0  0  0  0  0  0  0  0  0  0  0
    1.4843   -1.6167    0.3480 C   0  0  0  0  0  0  0  0  0  0  0  0
    2.6313   -0.8912    0.4346 C   0  0  0  0  0  0  0  0  0  0  0  0
    2.6218    0.5163    0.2924 C   0  0  0  0  0  0  0  0  0  0  0  0
    3.8121    1.2120    0.3861 O   0  0  0  0  0  0  0  0  0  0  0  0
    1.4188    1.1529    0.0629 C   0  0  0  0  0  0  0  0  0  0  0  0
    0.2146    0.4288   -0.0312 C   0  0  0  0  0  0  0  0  0  0  0  0
   -1.0192    1.0643   -0.2649 C   0  0  0  0  0  0  0  0  0  0  0  0
   -4.2852    0.5079   -0.4599 H   0  0  0  0  0  0  0  0  0  0  0  0
   -3.5000    1.9835   -0.4917 H   0  0  0  0  0  0  0  0  0  0  0  0
   -3.0604   -1.6211   -0.2862 H   0  0  0  0  0  0  0  0  0  0  0  0
   -0.9418   -2.7758    0.1237 H   0  0  0  0  0  0  0  0  0  0  0  0
    1.5090   -2.6871    0.4576 H   0  0  0  0  0  0  0  0  0  0  0  0
    3.5762   -1.3727    0.6128 H   0  0  0  0  0  0  0  0  0  0  0  0
    3.6478    2.1727    0.2630 H   0  0  0  0  0  0  0  0  0  0  0  0
    1.3996    2.2209   -0.0464 H   0  0  0  0  0  0  0  0  0  0  0  0
   -1.0498    2.1320   -0.3778 H   0  0  0  0  0  0  0  0  0  0  0  0
  1  2  1  0  0  0  0
  2  3  2  0  0  0  0
  3  4  1  0  0  0  0
  4  5  2  0  0  0  0
  5  6  1  0  0  0  0
  6  7  2  0  0  0  0
  7  8  1  0  0  0  0
  8  9  1  0  0  0  0
  8 10  2  0  0  0  0
 10 11  1  0  0  0  0
 11 12  2  0  0  0  0
 12  2  1  0  0  0  0
 11  5  1  0  0  0  0
  1 13  1  0  0  0  0
  1 14  1  0  0  0  0
  3 15  1  0  0  0  0
  4 16  1  0  0  0  0
  6 17  1  0  0  0  0
  7 18  1  0  0  0  0
  9 19  1  0  0  0  0
 10 20  1  0  0  0  0
 12 21  1  0  0  0  0
M  END
