
  xtb     03012221223D
 energy: -11.227260831108 gnorm: 0.000433364560 xtb: 6.4.1 (afa7bdf)
 56 59  0     0  0            999 V2000
    8.9006    2.3866    0.8940 C   0  0  0  0  0  0  0  0  0  0  0  0
    8.3676    1.3369    0.0265 N   0  0  0  0  0  0  0  0  0  0  0  0
    9.3213    0.6532   -0.8459 C   0  0  0  0  0  0  0  0  0  0  0  0
    7.0040    0.9862    0.0454 C   0  0  0  0  0  0  0  0  0  0  0  0
    6.4873    0.0476   -0.8533 C   0  0  0  0  0  0  0  0  0  0  0  0
    5.1572   -0.2980   -0.8308 C   0  0  0  0  0  0  0  0  0  0  0  0
    4.2839    0.2778    0.0888 C   0  0  0  0  0  0  0  0  0  0  0  0
    2.9232   -0.0810    0.1130 C   0  0  0  0  0  0  0  0  0  0  0  0
    1.7429   -0.3976    0.1362 C   0  0  0  0  0  0  0  0  0  0  0  0
    0.3823   -0.7633    0.1699 C   0  0  0  0  0  0  0  0  0  0  0  0
    0.0063   -2.0961    0.4263 C   0  0  0  0  0  0  0  0  0  0  0  0
   -1.3068   -2.4656    0.4569 C   0  0  0  0  0  0  0  0  0  0  0  0
   -2.3331   -1.5318    0.2204 C   0  0  0  0  0  0  0  0  0  0  0  0
   -3.7245   -1.8899    0.2400 C   0  0  0  0  0  0  0  0  0  0  0  0
   -4.1446   -3.2392    0.3459 N   0  0  0  0  0  0  0  0  0  0  0  0
   -3.5641   -4.2978   -0.4876 C   0  0  0  0  0  0  0  0  0  0  0  0
   -5.4484   -3.5764    0.9129 C   0  0  0  0  0  0  0  0  0  0  0  0
   -4.6655   -0.8821    0.1229 C   0  0  0  0  0  0  0  0  0  0  0  0
   -4.3147    0.4626   -0.0716 C   0  0  0  0  0  0  0  0  0  0  0  0
   -5.3629    1.4995   -0.2104 C   0  0  0  0  0  0  0  0  0  0  0  0
   -5.2114    2.7539    0.3797 C   0  0  0  0  0  0  0  0  0  0  0  0
   -6.1885    3.7174    0.2512 C   0  0  0  0  0  0  0  0  0  0  0  0
   -7.3355    3.4483   -0.4682 C   0  0  0  0  0  0  0  0  0  0  0  0
   -7.5039    2.2123   -1.0599 C   0  0  0  0  0  0  0  0  0  0  0  0
   -6.5286    1.2468   -0.9331 C   0  0  0  0  0  0  0  0  0  0  0  0
   -2.9780    0.7950   -0.1413 C   0  0  0  0  0  0  0  0  0  0  0  0
   -1.9708   -0.1778    0.0065 C   0  0  0  0  0  0  0  0  0  0  0  0
   -0.6034    0.1723   -0.0283 C   0  0  0  0  0  0  0  0  0  0  0  0
    4.7922    1.2150    0.9852 C   0  0  0  0  0  0  0  0  0  0  0  0
    6.1220    1.5625    0.9648 C   0  0  0  0  0  0  0  0  0  0  0  0
    9.9348    2.6148    0.6439 H   0  0  0  0  0  0  0  0  0  0  0  0
    8.8609    2.0667    1.9338 H   0  0  0  0  0  0  0  0  0  0  0  0
    8.3186    3.2993    0.7790 H   0  0  0  0  0  0  0  0  0  0  0  0
    9.1133    0.8929   -1.8871 H   0  0  0  0  0  0  0  0  0  0  0  0
    9.2509   -0.4242   -0.7079 H   0  0  0  0  0  0  0  0  0  0  0  0
   10.3430    0.9532   -0.6217 H   0  0  0  0  0  0  0  0  0  0  0  0
    7.1409   -0.4047   -1.5777 H   0  0  0  0  0  0  0  0  0  0  0  0
    4.7726   -1.0221   -1.5286 H   0  0  0  0  0  0  0  0  0  0  0  0
    0.7800   -2.8234    0.6063 H   0  0  0  0  0  0  0  0  0  0  0  0
   -1.5681   -3.4786    0.7010 H   0  0  0  0  0  0  0  0  0  0  0  0
   -3.0994   -5.0591    0.1363 H   0  0  0  0  0  0  0  0  0  0  0  0
   -4.3405   -4.7691   -1.0877 H   0  0  0  0  0  0  0  0  0  0  0  0
   -2.8196   -3.8863   -1.1667 H   0  0  0  0  0  0  0  0  0  0  0  0
   -6.2275   -3.4665    0.1608 H   0  0  0  0  0  0  0  0  0  0  0  0
   -5.4493   -4.6050    1.2694 H   0  0  0  0  0  0  0  0  0  0  0  0
   -5.6717   -2.9235    1.7548 H   0  0  0  0  0  0  0  0  0  0  0  0
   -5.7074   -1.1389    0.1531 H   0  0  0  0  0  0  0  0  0  0  0  0
   -4.3234    2.9598    0.9522 H   0  0  0  0  0  0  0  0  0  0  0  0
   -6.0578    4.6815    0.7144 H   0  0  0  0  0  0  0  0  0  0  0  0
   -8.0992    4.2027   -0.5680 H   0  0  0  0  0  0  0  0  0  0  0  0
   -8.3982    2.0033   -1.6235 H   0  0  0  0  0  0  0  0  0  0  0  0
   -6.6543    0.2888   -1.4074 H   0  0  0  0  0  0  0  0  0  0  0  0
   -2.6952    1.8182   -0.3092 H   0  0  0  0  0  0  0  0  0  0  0  0
   -0.3273    1.1966   -0.2053 H   0  0  0  0  0  0  0  0  0  0  0  0
    4.1243    1.6641    1.7003 H   0  0  0  0  0  0  0  0  0  0  0  0
    6.4931    2.2825    1.6721 H   0  0  0  0  0  0  0  0  0  0  0  0
  1  2  1  0  0  0  0
  2  3  1  0  0  0  0
  2  4  1  0  0  0  0
  4  5  2  0  0  0  0
  5  6  1  0  0  0  0
  6  7  2  0  0  0  0
  7  8  1  0  0  0  0
  8  9  3  0  0  0  0
  9 10  1  0  0  0  0
 10 11  2  0  0  0  0
 11 12  1  0  0  0  0
 12 13  2  0  0  0  0
 13 14  1  0  0  0  0
 14 15  1  0  0  0  0
 15 16  1  0  0  0  0
 15 17  1  0  0  0  0
 14 18  2  0  0  0  0
 18 19  1  0  0  0  0
 19 20  1  0  0  0  0
 20 21  2  0  0  0  0
 21 22  1  0  0  0  0
 22 23  2  0  0  0  0
 23 24  1  0  0  0  0
 24 25  2  0  0  0  0
 19 26  2  0  0  0  0
 26 27  1  0  0  0  0
 27 28  2  0  0  0  0
  7 29  1  0  0  0  0
 29 30  2  0  0  0  0
 30  4  1  0  0  0  0
 28 10  1  0  0  0  0
 27 13  1  0  0  0  0
 25 20  1  0  0  0  0
  1 31  1  0  0  0  0
  1 32  1  0  0  0  0
  1 33  1  0  0  0  0
  3 34  1  0  0  0  0
  3 35  1  0  0  0  0
  3 36  1  0  0  0  0
  5 37  1  0  0  0  0
  6 38  1  0  0  0  0
 11 39  1  0  0  0  0
 12 40  1  0  0  0  0
 16 41  1  0  0  0  0
 16 42  1  0  0  0  0
 16 43  1  0  0  0  0
 17 44  1  0  0  0  0
 17 45  1  0  0  0  0
 17 46  1  0  0  0  0
 18 47  1  0  0  0  0
 21 48  1  0  0  0  0
 22 49  1  0  0  0  0
 23 50  1  0  0  0  0
 24 51  1  0  0  0  0
 25 52  1  0  0  0  0
 26 53  1  0  0  0  0
 28 54  1  0  0  0  0
 29 55  1  0  0  0  0
 30 56  1  0  0  0  0
M  END
