
  xtb     03012221263D
 energy: -6.886182647500 gnorm: 0.000331080891 xtb: 6.4.1 (afa7bdf)
 35 37  0     0  0            999 V2000
    6.7092    0.7277   -0.1767 C   0  0  0  0  0  0  0  0  0  0  0  0
    5.6314    1.5829   -0.4659 O   0  0  0  0  0  0  0  0  0  0  0  0
    4.3660    0.9863   -0.3808 C   0  0  0  0  0  0  0  0  0  0  0  0
    4.1391   -0.3481   -0.0343 C   0  0  0  0  0  0  0  0  0  0  0  0
    2.8605   -0.8498    0.0235 C   0  0  0  0  0  0  0  0  0  0  0  0
    1.7721   -0.0422   -0.2595 C   0  0  0  0  0  0  0  0  0  0  0  0
    0.4320   -0.5780   -0.1940 N   0  0  0  0  0  0  0  0  0  0  0  0
    0.2109   -1.8567    0.0858 N   0  0  0  0  0  0  0  0  0  0  0  0
   -1.1002   -1.9404    0.0504 C   0  0  0  0  0  0  0  0  0  0  0  0
   -1.8389   -3.1100    0.2858 C   0  0  0  0  0  0  0  0  0  0  0  0
   -2.4874   -4.0537    0.4855 N   0  0  0  0  0  0  0  0  0  0  0  0
   -1.6267   -0.6436   -0.2597 C   0  0  0  0  0  0  0  0  0  0  0  0
   -3.0089   -0.3125   -0.3793 N   0  0  0  0  0  0  0  0  0  0  0  0
   -3.4161    1.0924   -0.5914 C   0  0  0  0  0  0  0  0  0  0  0  0
   -4.9299    1.1454   -0.3305 C   0  0  0  0  0  0  0  0  0  0  0  0
   -5.2385   -0.0741    0.5632 C   0  0  0  0  0  0  0  0  0  0  0  0
   -4.0589   -1.0468    0.3741 C   0  0  0  0  0  0  0  0  0  0  0  0
   -0.6375    0.1974   -0.4097 N   0  0  0  0  0  0  0  0  0  0  0  0
    1.9822    1.2818   -0.6038 C   0  0  0  0  0  0  0  0  0  0  0  0
    3.2578    1.7885   -0.6638 C   0  0  0  0  0  0  0  0  0  0  0  0
    6.6286    0.3643    0.8484 H   0  0  0  0  0  0  0  0  0  0  0  0
    6.7213   -0.1045   -0.8813 H   0  0  0  0  0  0  0  0  0  0  0  0
    7.6353    1.2939   -0.2805 H   0  0  0  0  0  0  0  0  0  0  0  0
    4.9699   -0.9912    0.1900 H   0  0  0  0  0  0  0  0  0  0  0  0
    2.6827   -1.8769    0.2891 H   0  0  0  0  0  0  0  0  0  0  0  0
   -3.1466    1.3980   -1.6063 H   0  0  0  0  0  0  0  0  0  0  0  0
   -2.8576    1.7215    0.1067 H   0  0  0  0  0  0  0  0  0  0  0  0
   -5.2323    2.0894    0.1389 H   0  0  0  0  0  0  0  0  0  0  0  0
   -5.4797    1.0742   -1.2759 H   0  0  0  0  0  0  0  0  0  0  0  0
   -5.3142    0.2334    1.6128 H   0  0  0  0  0  0  0  0  0  0  0  0
   -6.1974   -0.5404    0.3066 H   0  0  0  0  0  0  0  0  0  0  0  0
   -4.3411   -1.9301   -0.2058 H   0  0  0  0  0  0  0  0  0  0  0  0
   -3.6467   -1.3950    1.3252 H   0  0  0  0  0  0  0  0  0  0  0  0
    1.1303    1.9010   -0.8221 H   0  0  0  0  0  0  0  0  0  0  0  0
    3.4293    2.8157   -0.9312 H   0  0  0  0  0  0  0  0  0  0  0  0
  1  2  1  0  0  0  0
  2  3  1  0  0  0  0
  3  4  2  0  0  0  0
  4  5  1  0  0  0  0
  5  6  2  0  0  0  0
  6  7  1  0  0  0  0
  7  8  1  0  0  0  0
  8  9  2  0  0  0  0
  9 10  1  0  0  0  0
 10 11  3  0  0  0  0
  9 12  1  0  0  0  0
 12 13  1  0  0  0  0
 13 14  1  0  0  0  0
 14 15  1  0  0  0  0
 15 16  1  0  0  0  0
 16 17  1  0  0  0  0
 12 18  2  0  0  0  0
  6 19  1  0  0  0  0
 19 20  2  0  0  0  0
 20  3  1  0  0  0  0
 18  7  1  0  0  0  0
 17 13  1  0  0  0  0
  1 21  1  0  0  0  0
  1 22  1  0  0  0  0
  1 23  1  0  0  0  0
  4 24  1  0  0  0  0
  5 25  1  0  0  0  0
 14 26  1  0  0  0  0
 14 27  1  0  0  0  0
 15 28  1  0  0  0  0
 15 29  1  0  0  0  0
 16 30  1  0  0  0  0
 16 31  1  0  0  0  0
 17 32  1  0  0  0  0
 17 33  1  0  0  0  0
 19 34  1  0  0  0  0
 20 35  1  0  0  0  0
M  END
