
  xtb     03012221223D
 energy: -12.478662756367 gnorm: 0.000170276902 xtb: 6.4.1 (afa7bdf)
 63 67  0     0  0            999 V2000
    6.1491   -4.6679   -0.0567 C   0  0  0  0  0  0  0  0  0  0  0  0
    5.4794   -3.5481    0.4301 O   0  0  0  0  0  0  0  0  0  0  0  0
    4.3567   -3.3321   -0.3106 C   0  0  0  0  0  0  0  0  0  0  0  0
    4.0148   -4.0178   -1.2482 O   0  0  0  0  0  0  0  0  0  0  0  0
    3.5108   -2.1582    0.0828 C   0  0  0  0  0  0  0  0  0  0  0  0
    3.2962   -1.2099   -1.0893 C   0  0  0  0  0  0  0  0  0  0  0  0
    2.3920   -0.0729   -0.7581 C   0  0  0  0  0  0  0  0  0  0  0  0
    2.7687    1.1921   -0.3747 C   0  0  0  0  0  0  0  0  0  0  0  0
    1.6074    1.9666   -0.1005 C   0  0  0  0  0  0  0  0  0  0  0  0
    1.5081    3.2823    0.3168 C   0  0  0  0  0  0  0  0  0  0  0  0
    1.4145    4.4450    0.6968 C   0  0  0  0  0  0  0  0  0  0  0  0
    1.3215    5.7702    1.1382 C   0  0  0  0  0  0  0  0  0  0  0  0
    2.4588    6.6144    1.3830 C   0  0  0  0  0  0  0  0  0  0  0  0
    2.1315    7.8523    1.8048 C   0  0  0  0  0  0  0  0  0  0  0  0
    0.4167    8.0303    1.9176 S   0  0  0  0  0  0  0  0  0  0  0  0
    0.1500    6.4179    1.3901 C   0  0  0  0  0  0  0  0  0  0  0  0
    0.5595    1.1415   -0.3170 N   0  0  0  0  0  4  0  0  0  0  0  0
    0.9583   -0.1262   -0.7141 C   0  0  0  0  0  0  0  0  0  0  0  0
    0.0830   -1.1647   -0.9714 C   0  0  0  0  0  0  0  0  0  0  0  0
   -1.2693   -0.9200   -0.8307 C   0  0  0  0  0  0  0  0  0  0  0  0
   -2.4147   -1.7698   -1.0044 C   0  0  0  0  0  0  0  0  0  0  0  0
   -2.3838   -3.2207   -1.3424 C   0  0  0  0  0  0  0  0  0  0  0  0
   -2.1513   -4.1049   -0.1244 C   0  0  0  0  0  0  0  0  0  0  0  0
   -2.1720   -5.5599   -0.4864 C   0  0  0  0  0  0  0  0  0  0  0  0
   -3.1057   -6.0013   -1.1182 O   0  0  0  0  0  0  0  0  0  0  0  0
   -1.1109   -6.3026   -0.0646 O   0  0  0  0  0  0  0  0  0  0  0  0
   -1.2687   -7.6211   -0.4833 C   0  0  0  0  0  0  0  0  0  0  0  0
   -3.5319   -1.0219   -0.7143 C   0  0  0  0  0  0  0  0  0  0  0  0
   -3.1330    0.2991   -0.3715 C   0  0  0  0  0  0  0  0  0  0  0  0
   -3.8534    1.4219   -0.0064 C   0  0  0  0  0  0  0  0  0  0  0  0
   -4.1562    2.5594    0.3406 C   0  0  0  0  0  0  0  0  0  0  0  0
   -4.0970    3.9027    0.7284 C   0  0  0  0  0  0  0  0  0  0  0  0
   -5.2035    4.7823    0.9730 C   0  0  0  0  0  0  0  0  0  0  0  0
   -4.8242    6.0266    1.3257 C   0  0  0  0  0  0  0  0  0  0  0  0
   -3.1002    6.1678    1.3669 S   0  0  0  0  0  0  0  0  0  0  0  0
   -2.8959    4.5227    0.9090 C   0  0  0  0  0  0  0  0  0  0  0  0
   -1.7846    0.3082   -0.4510 N   0  0  0  0  0  0  0  0  0  0  0  0
   -0.9108    1.5355   -0.1584 B   0  0  0  0  0  4  0  0  0  0  0  0
   -1.2119    2.5409   -1.0670 F   0  0  0  0  0  0  0  0  0  0  0  0
   -1.1294    1.9635    1.1438 F   0  0  0  0  0  0  0  0  0  0  0  0
    6.4200   -4.4922   -1.0988 H   0  0  0  0  0  0  0  0  0  0  0  0
    7.0450   -4.8375    0.5413 H   0  0  0  0  0  0  0  0  0  0  0  0
    5.4847   -5.5310    0.0072 H   0  0  0  0  0  0  0  0  0  0  0  0
    2.5492   -2.5238    0.4544 H   0  0  0  0  0  0  0  0  0  0  0  0
    3.9847   -1.6346    0.9180 H   0  0  0  0  0  0  0  0  0  0  0  0
    4.2604   -0.8249   -1.4367 H   0  0  0  0  0  0  0  0  0  0  0  0
    2.8837   -1.7696   -1.9352 H   0  0  0  0  0  0  0  0  0  0  0  0
    3.7819    1.5432   -0.2897 H   0  0  0  0  0  0  0  0  0  0  0  0
    3.4733    6.2763    1.2386 H   0  0  0  0  0  0  0  0  0  0  0  0
    2.8287    8.6346    2.0435 H   0  0  0  0  0  0  0  0  0  0  0  0
   -0.8199    5.9827    1.2744 H   0  0  0  0  0  0  0  0  0  0  0  0
    0.4435   -2.1316   -1.2644 H   0  0  0  0  0  0  0  0  0  0  0  0
   -3.3264   -3.5069   -1.8207 H   0  0  0  0  0  0  0  0  0  0  0  0
   -1.6075   -3.4077   -2.0912 H   0  0  0  0  0  0  0  0  0  0  0  0
   -1.1924   -3.8656    0.3444 H   0  0  0  0  0  0  0  0  0  0  0  0
   -2.9191   -3.9155    0.6312 H   0  0  0  0  0  0  0  0  0  0  0  0
   -2.1940   -8.0167   -0.0616 H   0  0  0  0  0  0  0  0  0  0  0  0
   -0.4164   -8.2087   -0.1407 H   0  0  0  0  0  0  0  0  0  0  0  0
   -1.3257   -7.6404   -1.5727 H   0  0  0  0  0  0  0  0  0  0  0  0
   -4.5462   -1.3793   -0.7327 H   0  0  0  0  0  0  0  0  0  0  0  0
   -6.2309    4.4666    0.8797 H   0  0  0  0  0  0  0  0  0  0  0  0
   -5.4903    6.8389    1.5528 H   0  0  0  0  0  0  0  0  0  0  0  0
   -1.9548    4.0206    0.7758 H   0  0  0  0  0  0  0  0  0  0  0  0
  1  2  1  0  0  0  0
  2  3  1  0  0  0  0
  3  4  2  0  0  0  0
  3  5  1  0  0  0  0
  5  6  1  0  0  0  0
  6  7  1  0  0  0  0
  7  8  2  0  0  0  0
  8  9  1  0  0  0  0
  9 10  1  0  0  0  0
 10 11  3  0  0  0  0
 11 12  1  0  0  0  0
 12 13  1  0  0  0  0
 13 14  2  0  0  0  0
 14 15  1  0  0  0  0
 15 16  1  0  0  0  0
  9 17  2  0  0  0  0
 17 18  1  0  0  0  0
 18 19  2  0  0  0  0
 19 20  1  0  0  0  0
 20 21  2  0  0  0  0
 21 22  1  0  0  0  0
 22 23  1  0  0  0  0
 23 24  1  0  0  0  0
 24 25  2  0  0  0  0
 24 26  1  0  0  0  0
 26 27  1  0  0  0  0
 21 28  1  0  0  0  0
 28 29  2  0  0  0  0
 29 30  1  0  0  0  0
 30 31  3  0  0  0  0
 31 32  1  0  0  0  0
 32 33  1  0  0  0  0
 33 34  2  0  0  0  0
 34 35  1  0  0  0  0
 35 36  1  0  0  0  0
 29 37  1  0  0  0  0
 37 38  1  0  0  0  0
 38 39  1  0  0  0  0
 38 40  1  0  0  0  0
 18  7  1  0  0  0  0
 37 20  1  0  0  0  0
 16 12  2  0  0  0  0
 38 17  1  0  0  0  0
 36 32  2  0  0  0  0
  1 41  1  0  0  0  0
  1 42  1  0  0  0  0
  1 43  1  0  0  0  0
  5 44  1  0  0  0  0
  5 45  1  0  0  0  0
  6 46  1  0  0  0  0
  6 47  1  0  0  0  0
  8 48  1  0  0  0  0
 13 49  1  0  0  0  0
 14 50  1  0  0  0  0
 16 51  1  0  0  0  0
 19 52  1  0  0  0  0
 22 53  1  0  0  0  0
 22 54  1  0  0  0  0
 23 55  1  0  0  0  0
 23 56  1  0  0  0  0
 27 57  1  0  0  0  0
 27 58  1  0  0  0  0
 27 59  1  0  0  0  0
 28 60  1  0  0  0  0
 33 61  1  0  0  0  0
 34 62  1  0  0  0  0
 36 63  1  0  0  0  0
M  CHG  1  17   1
M  CHG  1  38  -1
M  END
