
  xtb     03012221323D
 energy: -17.192428463226 gnorm: 0.000639890396 xtb: 6.4.1 (afa7bdf)
 86 92  0     0  0            999 V2000
   10.8725    2.0935   -2.7115 O   0  0  0  0  0  0  0  0  0  0  0  0
   10.4171    2.8478   -1.8803 C   0  0  0  0  0  0  0  0  0  0  0  0
   10.6066    4.1863   -1.9242 O   0  0  0  0  0  0  0  0  0  0  0  0
    9.5852    2.3267   -0.7417 C   0  0  0  0  0  0  0  0  0  0  0  0
    9.9247    0.8841   -0.3919 C   0  0  0  0  0  0  0  0  0  0  0  0
    9.4277   -0.0763   -1.4647 C   0  0  0  0  0  0  0  0  0  0  0  0
    8.0100   -0.1030   -1.5529 O   0  0  0  0  0  0  0  0  0  0  0  0
    7.3454   -0.7729   -0.5187 C   0  0  0  0  0  0  0  0  0  0  0  0
    7.9613   -1.5357    0.4765 C   0  0  0  0  0  0  0  0  0  0  0  0
    7.2112   -2.1574    1.4488 C   0  0  0  0  0  0  0  0  0  0  0  0
    5.8409   -2.0437    1.4579 C   0  0  0  0  0  0  0  0  0  0  0  0
    5.1811   -1.2940    0.4789 C   0  0  0  0  0  0  0  0  0  0  0  0
    3.7076   -1.1756    0.4657 C   0  0  0  0  0  0  0  0  0  0  0  0
    3.0263   -0.7450    1.6340 C   0  0  0  0  0  0  0  0  0  0  0  0
    1.6927   -0.6409    1.7965 N   0  0  0  0  0  0  0  0  0  0  0  0
    1.4982   -0.1891    3.0599 C   0  0  0  0  0  0  0  0  0  0  0  0
    0.2816    0.0657    3.6871 C   0  0  0  0  0  0  0  0  0  0  0  0
   -0.9678   -0.0694    3.0915 C   0  0  0  0  0  0  0  0  0  0  0  0
   -2.2060    0.1952    3.7236 C   0  0  0  0  0  0  0  0  0  0  0  0
   -3.1972   -0.0164    2.8108 C   0  0  0  0  0  0  0  0  0  0  0  0
   -2.6020   -0.4176    1.5911 C   0  0  0  0  0  0  0  0  0  0  0  0
   -1.2461   -0.4469    1.7899 N   0  0  0  0  0  0  0  0  0  0  0  0
   -3.3145   -0.6947    0.3896 C   0  0  0  0  0  0  0  0  0  0  0  0
   -4.7971   -0.6075    0.4169 C   0  0  0  0  0  0  0  0  0  0  0  0
   -5.5523   -1.5077    1.1715 C   0  0  0  0  0  0  0  0  0  0  0  0
   -6.9248   -1.4191    1.1970 C   0  0  0  0  0  0  0  0  0  0  0  0
   -7.5774   -0.4415    0.4818 C   0  0  0  0  0  0  0  0  0  0  0  0
   -6.8591    0.4837   -0.2807 C   0  0  0  0  0  0  0  0  0  0  0  0
   -7.4329    1.5146   -1.0327 O   0  0  0  0  0  0  0  0  0  0  0  0
   -8.8482    1.5785   -0.9588 C   0  0  0  0  0  0  0  0  0  0  0  0
   -9.4172    2.8061   -1.6541 C   0  0  0  0  0  0  0  0  0  0  0  0
  -10.9325    2.8958   -1.5147 C   0  0  0  0  0  0  0  0  0  0  0  0
  -11.3540    2.9474   -0.0749 C   0  0  0  0  0  0  0  0  0  0  0  0
  -11.1106    2.0131    0.6573 O   0  0  0  0  0  0  0  0  0  0  0  0
  -11.9891    4.0663    0.3419 O   0  0  0  0  0  0  0  0  0  0  0  0
   -5.4705    0.3808   -0.2959 C   0  0  0  0  0  0  0  0  0  0  0  0
   -2.6692   -1.0536   -0.7966 C   0  0  0  0  0  0  0  0  0  0  0  0
   -1.3525   -1.2109   -0.9855 N   0  0  0  0  0  0  0  0  0  0  0  0
   -1.1167   -1.6212   -2.2600 C   0  0  0  0  0  0  0  0  0  0  0  0
    0.0880   -1.9108   -2.8330 C   0  0  0  0  0  0  0  0  0  0  0  0
    1.3499   -1.8322   -2.2080 C   0  0  0  0  0  0  0  0  0  0  0  0
    2.5695   -2.1828   -2.8197 C   0  0  0  0  0  0  0  0  0  0  0  0
    3.5723   -1.9839   -1.9123 C   0  0  0  0  0  0  0  0  0  0  0  0
    2.9968   -1.4956   -0.7176 C   0  0  0  0  0  0  0  0  0  0  0  0
    1.6323   -1.4224   -0.9303 N   0  0  0  0  0  0  0  0  0  0  0  0
   -2.3896   -1.7681   -3.0433 C   0  0  0  0  0  0  0  0  0  0  0  0
   -3.4566   -1.3698   -2.0417 C   0  0  0  0  0  0  0  0  0  0  0  0
    2.7576    0.0128    3.7159 C   0  0  0  0  0  0  0  0  0  0  0  0
    3.7059   -0.3264    2.8290 C   0  0  0  0  0  0  0  0  0  0  0  0
    5.9574   -0.6700   -0.4966 C   0  0  0  0  0  0  0  0  0  0  0  0
   11.1489    4.3709   -2.7156 H   0  0  0  0  0  0  0  0  0  0  0  0
    8.5284    2.3990   -1.0146 H   0  0  0  0  0  0  0  0  0  0  0  0
    9.7307    2.9862    0.1198 H   0  0  0  0  0  0  0  0  0  0  0  0
   11.0112    0.7882   -0.2673 H   0  0  0  0  0  0  0  0  0  0  0  0
    9.4798    0.6140    0.5736 H   0  0  0  0  0  0  0  0  0  0  0  0
    9.7950   -1.0997   -1.3336 H   0  0  0  0  0  0  0  0  0  0  0  0
    9.7801    0.2605   -2.4481 H   0  0  0  0  0  0  0  0  0  0  0  0
    9.0291   -1.6486    0.4831 H   0  0  0  0  0  0  0  0  0  0  0  0
    7.7029   -2.7455    2.2081 H   0  0  0  0  0  0  0  0  0  0  0  0
    5.2585   -2.5510    2.2070 H   0  0  0  0  0  0  0  0  0  0  0  0
    0.3102    0.4044    4.7081 H   0  0  0  0  0  0  0  0  0  0  0  0
   -2.3344    0.5184    4.7435 H   0  0  0  0  0  0  0  0  0  0  0  0
   -4.2529    0.1143    2.9791 H   0  0  0  0  0  0  0  0  0  0  0  0
   -0.5370   -0.6832    1.0848 H   0  0  0  0  0  0  0  0  0  0  0  0
   -5.0439   -2.2750    1.7286 H   0  0  0  0  0  0  0  0  0  0  0  0
   -7.4950   -2.1221    1.7842 H   0  0  0  0  0  0  0  0  0  0  0  0
   -8.6495   -0.3887    0.5186 H   0  0  0  0  0  0  0  0  0  0  0  0
   -9.1285    1.6011    0.0997 H   0  0  0  0  0  0  0  0  0  0  0  0
   -9.2561    0.6608   -1.3961 H   0  0  0  0  0  0  0  0  0  0  0  0
   -8.9515    3.7011   -1.2230 H   0  0  0  0  0  0  0  0  0  0  0  0
   -9.1179    2.7972   -2.7099 H   0  0  0  0  0  0  0  0  0  0  0  0
  -11.3233    3.7800   -2.0276 H   0  0  0  0  0  0  0  0  0  0  0  0
  -11.4054    2.0284   -1.9835 H   0  0  0  0  0  0  0  0  0  0  0  0
  -12.1921    3.9429    1.2895 H   0  0  0  0  0  0  0  0  0  0  0  0
   -4.9107    1.1022   -0.8618 H   0  0  0  0  0  0  0  0  0  0  0  0
    0.0788   -2.2409   -3.8579 H   0  0  0  0  0  0  0  0  0  0  0  0
    2.6834   -2.5537   -3.8252 H   0  0  0  0  0  0  0  0  0  0  0  0
    4.6185   -2.1795   -2.0752 H   0  0  0  0  0  0  0  0  0  0  0  0
    0.9292   -1.1256   -0.2435 H   0  0  0  0  0  0  0  0  0  0  0  0
   -2.5072   -2.8007   -3.3935 H   0  0  0  0  0  0  0  0  0  0  0  0
   -2.3754   -1.1158   -3.9248 H   0  0  0  0  0  0  0  0  0  0  0  0
   -4.0255   -0.4934   -2.3719 H   0  0  0  0  0  0  0  0  0  0  0  0
   -4.1723   -2.1769   -1.8463 H   0  0  0  0  0  0  0  0  0  0  0  0
    2.9061    0.3786    4.7190 H   0  0  0  0  0  0  0  0  0  0  0  0
    4.7714   -0.2704    2.9759 H   0  0  0  0  0  0  0  0  0  0  0  0
    5.4804   -0.0739   -1.2526 H   0  0  0  0  0  0  0  0  0  0  0  0
  1  2  2  0  0  0  0
  2  3  1  0  0  0  0
  2  4  1  0  0  0  0
  4  5  1  0  0  0  0
  5  6  1  0  0  0  0
  6  7  1  0  0  0  0
  7  8  1  0  0  0  0
  8  9  2  0  0  0  0
  9 10  1  0  0  0  0
 10 11  2  0  0  0  0
 11 12  1  0  0  0  0
 12 13  1  0  0  0  0
 13 14  1  0  0  0  0
 14 15  2  0  0  0  0
 15 16  1  0  0  0  0
 16 17  2  0  0  0  0
 17 18  1  0  0  0  0
 18 19  2  0  0  0  0
 19 20  1  0  0  0  0
 20 21  2  0  0  0  0
 21 22  1  0  0  0  0
 21 23  1  0  0  0  0
 23 24  1  0  0  0  0
 24 25  2  0  0  0  0
 25 26  1  0  0  0  0
 26 27  2  0  0  0  0
 27 28  1  0  0  0  0
 28 29  1  0  0  0  0
 29 30  1  0  0  0  0
 30 31  1  0  0  0  0
 31 32  1  0  0  0  0
 32 33  1  0  0  0  0
 33 34  2  0  0  0  0
 33 35  1  0  0  0  0
 28 36  2  0  0  0  0
 23 37  2  0  0  0  0
 37 38  1  0  0  0  0
 38 39  2  0  0  0  0
 39 40  1  0  0  0  0
 40 41  2  0  0  0  0
 41 42  1  0  0  0  0
 42 43  2  0  0  0  0
 43 44  1  0  0  0  0
 44 45  1  0  0  0  0
 39 46  1  0  0  0  0
 46 47  1  0  0  0  0
 16 48  1  0  0  0  0
 48 49  2  0  0  0  0
 12 50  2  0  0  0  0
 50  8  1  0  0  0  0
 44 13  2  0  0  0  0
 49 14  1  0  0  0  0
 22 18  1  0  0  0  0
 36 24  1  0  0  0  0
 47 37  1  0  0  0  0
 45 41  1  0  0  0  0
  3 51  1  0  0  0  0
  4 52  1  0  0  0  0
  4 53  1  0  0  0  0
  5 54  1  0  0  0  0
  5 55  1  0  0  0  0
  6 56  1  0  0  0  0
  6 57  1  0  0  0  0
  9 58  1  0  0  0  0
 10 59  1  0  0  0  0
 11 60  1  0  0  0  0
 17 61  1  0  0  0  0
 19 62  1  0  0  0  0
 20 63  1  0  0  0  0
 22 64  1  0  0  0  0
 25 65  1  0  0  0  0
 26 66  1  0  0  0  0
 27 67  1  0  0  0  0
 30 68  1  0  0  0  0
 30 69  1  0  0  0  0
 31 70  1  0  0  0  0
 31 71  1  0  0  0  0
 32 72  1  0  0  0  0
 32 73  1  0  0  0  0
 35 74  1  0  0  0  0
 36 75  1  0  0  0  0
 40 76  1  0  0  0  0
 42 77  1  0  0  0  0
 43 78  1  0  0  0  0
 45 79  1  0  0  0  0
 46 80  1  0  0  0  0
 46 81  1  0  0  0  0
 47 82  1  0  0  0  0
 47 83  1  0  0  0  0
 48 84  1  0  0  0  0
 49 85  1  0  0  0  0
 50 86  1  0  0  0  0
M  END
