
  xtb     03012221203D
 energy: -14.724197003585 gnorm: 0.000179573090 xtb: 6.4.1 (afa7bdf)
 67 75  0     0  0            999 V2000
    4.4971    2.1310    3.0386 C   0  0  0  0  0  0  0  0  0  0  0  0
    4.9123    0.8882    2.6091 C   0  0  0  0  0  0  0  0  0  0  0  0
    4.1900    0.2127    1.6474 C   0  0  0  0  0  0  0  0  0  0  0  0
    3.0500    0.7718    1.0903 C   0  0  0  0  0  0  0  0  0  0  0  0
    2.2211   -0.0076    0.0650 C   0  0  0  0  0  0  0  0  0  0  0  0
    3.0971   -0.7957   -0.9135 C   0  0  0  0  0  0  0  0  0  0  0  0
    2.6993   -2.0372   -1.3863 C   0  0  0  0  0  0  0  0  0  0  0  0
    3.4634   -2.7225   -2.3077 C   0  0  0  0  0  0  0  0  0  0  0  0
    4.6347   -2.1695   -2.7807 C   0  0  0  0  0  0  0  0  0  0  0  0
    5.0346   -0.9277   -2.3339 C   0  0  0  0  0  0  0  0  0  0  0  0
    4.2678   -0.2451   -1.4126 C   0  0  0  0  0  0  0  0  0  0  0  0
    1.2304   -0.9127    0.8027 C   0  0  0  0  0  0  0  0  0  0  0  0
    1.4968   -1.9375    1.7026 C   0  0  0  0  0  0  0  0  0  0  0  0
    0.4614   -2.7046    2.1663 C   0  0  0  0  0  0  0  0  0  0  0  0
   -0.8424   -2.5506    1.6567 C   0  0  0  0  0  0  0  0  0  0  0  0
   -1.9064   -3.3858    2.1202 C   0  0  0  0  0  0  0  0  0  0  0  0
   -3.1326   -3.3311    1.5619 C   0  0  0  0  0  0  0  0  0  0  0  0
   -3.3911   -2.4949    0.4337 C   0  0  0  0  0  0  0  0  0  0  0  0
   -4.6304   -2.5330   -0.2276 C   0  0  0  0  0  0  0  0  0  0  0  0
   -4.8356   -1.8158   -1.3731 C   0  0  0  0  0  0  0  0  0  0  0  0
   -3.8031   -1.0555   -1.9113 C   0  0  0  0  0  0  0  0  0  0  0  0
   -2.5927   -0.9912   -1.2786 C   0  0  0  0  0  0  0  0  0  0  0  0
   -2.3658   -1.6602   -0.0641 C   0  0  0  0  0  0  0  0  0  0  0  0
   -1.1049   -1.5786    0.6577 C   0  0  0  0  0  0  0  0  0  0  0  0
   -0.0676   -0.6349    0.3785 C   0  0  0  0  0  0  0  0  0  0  0  0
   -0.0407    0.6383   -0.3793 C   0  0  0  0  0  0  0  0  0  0  0  0
    1.2819    0.9072   -0.7261 C   0  0  0  0  0  0  0  0  0  0  0  0
    1.6083    1.9330   -1.6048 C   0  0  0  0  0  0  0  0  0  0  0  0
    0.6077    2.7088   -2.1266 C   0  0  0  0  0  0  0  0  0  0  0  0
   -0.7252    2.5622   -1.6963 C   0  0  0  0  0  0  0  0  0  0  0  0
   -1.7543    3.4050   -2.2207 C   0  0  0  0  0  0  0  0  0  0  0  0
   -3.0123    3.3563   -1.7376 C   0  0  0  0  0  0  0  0  0  0  0  0
   -3.3432    2.5195   -0.6289 C   0  0  0  0  0  0  0  0  0  0  0  0
   -4.6200    2.5631   -0.0437 C   0  0  0  0  0  0  0  0  0  0  0  0
   -4.8976    1.8459    1.0863 C   0  0  0  0  0  0  0  0  0  0  0  0
   -3.9032    1.0803    1.6853 C   0  0  0  0  0  0  0  0  0  0  0  0
   -2.6572    1.0104    1.1267 C   0  0  0  0  0  0  0  0  0  0  0  0
   -2.3543    1.6787   -0.0715 C   0  0  0  0  0  0  0  0  0  0  0  0
   -1.0531    1.5899   -0.7170 C   0  0  0  0  0  0  0  0  0  0  0  0
    2.6354    2.0142    1.5461 C   0  0  0  0  0  0  0  0  0  0  0  0
    3.3549    2.6922    2.5078 C   0  0  0  0  0  0  0  0  0  0  0  0
    5.0603    2.6594    3.7903 H   0  0  0  0  0  0  0  0  0  0  0  0
    5.8008    0.4424    3.0267 H   0  0  0  0  0  0  0  0  0  0  0  0
    4.5102   -0.7609    1.3183 H   0  0  0  0  0  0  0  0  0  0  0  0
    1.7776   -2.4631   -1.0303 H   0  0  0  0  0  0  0  0  0  0  0  0
    3.1423   -3.6892   -2.6608 H   0  0  0  0  0  0  0  0  0  0  0  0
    5.2326   -2.7034   -3.5010 H   0  0  0  0  0  0  0  0  0  0  0  0
    5.9459   -0.4883   -2.7066 H   0  0  0  0  0  0  0  0  0  0  0  0
    4.5765    0.7275   -1.0700 H   0  0  0  0  0  0  0  0  0  0  0  0
    2.5053   -2.1026    2.0384 H   0  0  0  0  0  0  0  0  0  0  0  0
    0.6461   -3.4740    2.8959 H   0  0  0  0  0  0  0  0  0  0  0  0
   -1.7117   -4.0625    2.9342 H   0  0  0  0  0  0  0  0  0  0  0  0
   -3.9247   -3.9621    1.9278 H   0  0  0  0  0  0  0  0  0  0  0  0
   -5.4158   -3.1519    0.1723 H   0  0  0  0  0  0  0  0  0  0  0  0
   -5.7899   -1.8552   -1.8724 H   0  0  0  0  0  0  0  0  0  0  0  0
   -3.9596   -0.5130   -2.8299 H   0  0  0  0  0  0  0  0  0  0  0  0
   -1.7934   -0.4239   -1.7181 H   0  0  0  0  0  0  0  0  0  0  0  0
    2.6361    2.0922   -1.8791 H   0  0  0  0  0  0  0  0  0  0  0  0
    0.8408    3.4789   -2.8414 H   0  0  0  0  0  0  0  0  0  0  0  0
   -1.5069    4.0823   -3.0198 H   0  0  0  0  0  0  0  0  0  0  0  0
   -3.7772    3.9927   -2.1492 H   0  0  0  0  0  0  0  0  0  0  0  0
   -5.3768    3.1861   -0.4899 H   0  0  0  0  0  0  0  0  0  0  0  0
   -5.8803    1.8891    1.5269 H   0  0  0  0  0  0  0  0  0  0  0  0
   -4.1174    0.5380    2.5923 H   0  0  0  0  0  0  0  0  0  0  0  0
   -1.8886    0.4391    1.6132 H   0  0  0  0  0  0  0  0  0  0  0  0
    1.7356    2.4464    1.1444 H   0  0  0  0  0  0  0  0  0  0  0  0
    3.0214    3.6597    2.8470 H   0  0  0  0  0  0  0  0  0  0  0  0
  1  2  2  0  0  0  0
  2  3  1  0  0  0  0
  3  4  2  0  0  0  0
  4  5  1  0  0  0  0
  5  6  1  0  0  0  0
  6  7  2  0  0  0  0
  7  8  1  0  0  0  0
  8  9  2  0  0  0  0
  9 10  1  0  0  0  0
 10 11  2  0  0  0  0
  5 12  1  0  0  0  0
 12 13  2  0  0  0  0
 13 14  1  0  0  0  0
 14 15  2  0  0  0  0
 15 16  1  0  0  0  0
 16 17  2  0  0  0  0
 17 18  1  0  0  0  0
 18 19  2  0  0  0  0
 19 20  1  0  0  0  0
 20 21  2  0  0  0  0
 21 22  1  0  0  0  0
 22 23  2  0  0  0  0
 23 24  1  0  0  0  0
 24 25  2  0  0  0  0
 25 26  1  0  0  0  0
 26 27  2  0  0  0  0
 27 28  1  0  0  0  0
 28 29  2  0  0  0  0
 29 30  1  0  0  0  0
 30 31  2  0  0  0  0
 31 32  1  0  0  0  0
 32 33  2  0  0  0  0
 33 34  1  0  0  0  0
 34 35  2  0  0  0  0
 35 36  1  0  0  0  0
 36 37  2  0  0  0  0
 37 38  1  0  0  0  0
 38 39  2  0  0  0  0
  4 40  1  0  0  0  0
 40 41  2  0  0  0  0
 41  1  1  0  0  0  0
 27  5  1  0  0  0  0
 39 30  1  0  0  0  0
 11  6  1  0  0  0  0
 25 12  1  0  0  0  0
 39 26  1  0  0  0  0
 24 15  1  0  0  0  0
 38 33  1  0  0  0  0
 23 18  1  0  0  0  0
  1 42  1  0  0  0  0
  2 43  1  0  0  0  0
  3 44  1  0  0  0  0
  7 45  1  0  0  0  0
  8 46  1  0  0  0  0
  9 47  1  0  0  0  0
 10 48  1  0  0  0  0
 11 49  1  0  0  0  0
 13 50  1  0  0  0  0
 14 51  1  0  0  0  0
 16 52  1  0  0  0  0
 17 53  1  0  0  0  0
 19 54  1  0  0  0  0
 20 55  1  0  0  0  0
 21 56  1  0  0  0  0
 22 57  1  0  0  0  0
 28 58  1  0  0  0  0
 29 59  1  0  0  0  0
 31 60  1  0  0  0  0
 32 61  1  0  0  0  0
 34 62  1  0  0  0  0
 35 63  1  0  0  0  0
 36 64  1  0  0  0  0
 37 65  1  0  0  0  0
 40 66  1  0  0  0  0
 41 67  1  0  0  0  0
M  END
