
  xtb     03012221333D
 energy: -16.322975290842 gnorm: 0.000290079084 xtb: 6.4.1 (afa7bdf)
 73 82  0     0  0            999 V2000
   -8.4810    2.5721    1.1514 C   0  0  0  0  0  0  0  0  0  0  0  0
   -7.1825    1.9756    0.7671 C   0  0  0  0  0  0  0  0  0  0  0  0
   -6.8409    1.6466   -0.4613 N   0  0  0  0  0  0  0  0  0  0  0  0
   -5.6048    1.1275   -0.3870 N   0  0  0  0  0  0  0  0  0  0  0  0
   -4.8835    0.6046   -1.5245 C   0  0  0  0  0  0  0  0  0  0  0  0
   -5.1346   -0.6821   -1.9740 C   0  0  0  0  0  0  0  0  0  0  0  0
   -4.3876   -1.2160   -3.0003 C   0  0  0  0  0  0  0  0  0  0  0  0
   -3.3826   -0.4712   -3.5840 C   0  0  0  0  0  0  0  0  0  0  0  0
   -3.1334    0.8142   -3.1470 C   0  0  0  0  0  0  0  0  0  0  0  0
   -3.8829    1.3531   -2.1251 C   0  0  0  0  0  0  0  0  0  0  0  0
   -5.1322    1.1104    0.9226 C   0  0  0  0  0  0  0  0  0  0  0  0
   -6.1400    1.6507    1.6739 C   0  0  0  0  0  0  0  0  0  0  0  0
   -6.0292    1.7850    3.1241 C   0  0  0  0  0  0  0  0  0  0  0  0
   -6.9575    2.2793    3.7452 O   0  0  0  0  0  0  0  0  0  0  0  0
   -4.8600    1.3335    3.7152 O   0  0  0  0  0  0  0  0  0  0  0  0
   -3.8363    0.7749    2.9368 C   0  0  0  0  0  0  0  0  0  0  0  0
   -2.6746    0.3214    3.5641 C   0  0  0  0  0  0  0  0  0  0  0  0
   -1.6465   -0.2288    2.8412 C   0  0  0  0  0  0  0  0  0  0  0  0
   -1.7341   -0.3468    1.4536 C   0  0  0  0  0  0  0  0  0  0  0  0
   -0.6659   -0.9079    0.6763 N   0  0  0  0  0  0  0  0  0  0  0  0
   -0.8089   -1.8582   -0.3524 C   0  0  0  0  0  0  0  0  0  0  0  0
   -1.9338   -2.5402   -0.8132 C   0  0  0  0  0  0  0  0  0  0  0  0
   -1.7888   -3.4227   -1.8541 C   0  0  0  0  0  0  0  0  0  0  0  0
   -0.5422   -3.6425   -2.4466 C   0  0  0  0  0  0  0  0  0  0  0  0
    0.5765   -2.9833   -1.9997 C   0  0  0  0  0  0  0  0  0  0  0  0
    0.4464   -2.0837   -0.9407 C   0  0  0  0  0  0  0  0  0  0  0  0
    1.3962   -1.2430   -0.2553 C   0  0  0  0  0  0  0  0  0  0  0  0
    2.7650   -1.0445   -0.4235 C   0  0  0  0  0  0  0  0  0  0  0  0
    3.4173   -0.1308    0.3836 C   0  0  0  0  0  0  0  0  0  0  0  0
    4.8301    0.0918    0.2273 N   0  0  0  0  0  0  0  0  0  0  0  0
    5.4907    0.4145   -0.9737 C   0  0  0  0  0  0  0  0  0  0  0  0
    4.9970    0.6127   -2.2627 C   0  0  0  0  0  0  0  0  0  0  0  0
    5.8789    0.9322   -3.2648 C   0  0  0  0  0  0  0  0  0  0  0  0
    7.2472    1.0610   -3.0078 C   0  0  0  0  0  0  0  0  0  0  0  0
    7.7496    0.8744   -1.7431 C   0  0  0  0  0  0  0  0  0  0  0  0
    6.8653    0.5497   -0.7127 C   0  0  0  0  0  0  0  0  0  0  0  0
    7.0601    0.3016    0.6946 C   0  0  0  0  0  0  0  0  0  0  0  0
    8.1999    0.2936    1.5008 C   0  0  0  0  0  0  0  0  0  0  0  0
    8.0600    0.0053    2.8364 C   0  0  0  0  0  0  0  0  0  0  0  0
    6.8050   -0.2781    3.3838 C   0  0  0  0  0  0  0  0  0  0  0  0
    5.6751   -0.2736    2.6046 C   0  0  0  0  0  0  0  0  0  0  0  0
    5.7981    0.0231    1.2476 C   0  0  0  0  0  0  0  0  0  0  0  0
    2.6940    0.5873    1.3541 C   0  0  0  0  0  0  0  0  0  0  0  0
    1.3482    0.4001    1.5313 C   0  0  0  0  0  0  0  0  0  0  0  0
    0.6898   -0.5288    0.7266 C   0  0  0  0  0  0  0  0  0  0  0  0
   -2.8753    0.0936    0.8180 C   0  0  0  0  0  0  0  0  0  0  0  0
   -3.9260    0.6480    1.5358 C   0  0  0  0  0  0  0  0  0  0  0  0
   -8.6685    3.4833    0.5841 H   0  0  0  0  0  0  0  0  0  0  0  0
   -9.2956    1.8747    0.9582 H   0  0  0  0  0  0  0  0  0  0  0  0
   -8.4883    2.8206    2.2137 H   0  0  0  0  0  0  0  0  0  0  0  0
   -5.9113   -1.2556   -1.4996 H   0  0  0  0  0  0  0  0  0  0  0  0
   -4.5847   -2.2183   -3.3442 H   0  0  0  0  0  0  0  0  0  0  0  0
   -2.7927   -0.8935   -4.3816 H   0  0  0  0  0  0  0  0  0  0  0  0
   -2.3491    1.3959   -3.6035 H   0  0  0  0  0  0  0  0  0  0  0  0
   -3.6924    2.3496   -1.7673 H   0  0  0  0  0  0  0  0  0  0  0  0
   -2.6087    0.4129    4.6338 H   0  0  0  0  0  0  0  0  0  0  0  0
   -0.7626   -0.5882    3.3369 H   0  0  0  0  0  0  0  0  0  0  0  0
   -2.8890   -2.3723   -0.3504 H   0  0  0  0  0  0  0  0  0  0  0  0
   -2.6505   -3.9571   -2.2209 H   0  0  0  0  0  0  0  0  0  0  0  0
   -0.4588   -4.3406   -3.2627 H   0  0  0  0  0  0  0  0  0  0  0  0
    1.5412   -3.1472   -2.4480 H   0  0  0  0  0  0  0  0  0  0  0  0
    3.3096   -1.5983   -1.1658 H   0  0  0  0  0  0  0  0  0  0  0  0
    3.9425    0.5202   -2.4509 H   0  0  0  0  0  0  0  0  0  0  0  0
    5.5116    1.0884   -4.2659 H   0  0  0  0  0  0  0  0  0  0  0  0
    7.9160    1.3126   -3.8140 H   0  0  0  0  0  0  0  0  0  0  0  0
    8.8005    0.9747   -1.5362 H   0  0  0  0  0  0  0  0  0  0  0  0
    9.1623    0.5096    1.0712 H   0  0  0  0  0  0  0  0  0  0  0  0
    8.9295   -0.0050    3.4724 H   0  0  0  0  0  0  0  0  0  0  0  0
    6.7249   -0.5050    4.4344 H   0  0  0  0  0  0  0  0  0  0  0  0
    4.7078   -0.4987    3.0164 H   0  0  0  0  0  0  0  0  0  0  0  0
    3.2236    1.3069    1.9548 H   0  0  0  0  0  0  0  0  0  0  0  0
    0.7962    0.9605    2.2632 H   0  0  0  0  0  0  0  0  0  0  0  0
   -2.9388    0.0141   -0.2494 H   0  0  0  0  0  0  0  0  0  0  0  0
  1  2  1  0  0  0  0
  2  3  2  0  0  0  0
  3  4  1  0  0  0  0
  4  5  1  0  0  0  0
  5  6  2  0  0  0  0
  6  7  1  0  0  0  0
  7  8  2  0  0  0  0
  8  9  1  0  0  0  0
  9 10  2  0  0  0  0
  4 11  1  0  0  0  0
 11 12  2  0  0  0  0
 12 13  1  0  0  0  0
 13 14  2  0  0  0  0
 13 15  1  0  0  0  0
 15 16  1  0  0  0  0
 16 17  2  0  0  0  0
 17 18  1  0  0  0  0
 18 19  2  0  0  0  0
 19 20  1  0  0  0  0
 20 21  1  0  0  0  0
 21 22  2  0  0  0  0
 22 23  1  0  0  0  0
 23 24  2  0  0  0  0
 24 25  1  0  0  0  0
 25 26  2  0  0  0  0
 26 27  1  0  0  0  0
 27 28  2  0  0  0  0
 28 29  1  0  0  0  0
 29 30  1  0  0  0  0
 30 31  1  0  0  0  0
 31 32  2  0  0  0  0
 32 33  1  0  0  0  0
 33 34  2  0  0  0  0
 34 35  1  0  0  0  0
 35 36  2  0  0  0  0
 36 37  1  0  0  0  0
 37 38  2  0  0  0  0
 38 39  1  0  0  0  0
 39 40  2  0  0  0  0
 40 41  1  0  0  0  0
 41 42  2  0  0  0  0
 29 43  2  0  0  0  0
 43 44  1  0  0  0  0
 44 45  2  0  0  0  0
 19 46  1  0  0  0  0
 46 47  2  0  0  0  0
 12  2  1  0  0  0  0
 47 16  1  0  0  0  0
 10  5  1  0  0  0  0
 47 11  1  0  0  0  0
 45 20  1  0  0  0  0
 26 21  1  0  0  0  0
 45 27  1  0  0  0  0
 42 30  1  0  0  0  0
 36 31  1  0  0  0  0
 42 37  1  0  0  0  0
  1 48  1  0  0  0  0
  1 49  1  0  0  0  0
  1 50  1  0  0  0  0
  6 51  1  0  0  0  0
  7 52  1  0  0  0  0
  8 53  1  0  0  0  0
  9 54  1  0  0  0  0
 10 55  1  0  0  0  0
 17 56  1  0  0  0  0
 18 57  1  0  0  0  0
 22 58  1  0  0  0  0
 23 59  1  0  0  0  0
 24 60  1  0  0  0  0
 25 61  1  0  0  0  0
 28 62  1  0  0  0  0
 32 63  1  0  0  0  0
 33 64  1  0  0  0  0
 34 65  1  0  0  0  0
 35 66  1  0  0  0  0
 38 67  1  0  0  0  0
 39 68  1  0  0  0  0
 40 69  1  0  0  0  0
 41 70  1  0  0  0  0
 43 71  1  0  0  0  0
 44 72  1  0  0  0  0
 46 73  1  0  0  0  0
M  END
