
  xtb     03012221213D
 energy: -7.605949003025 gnorm: 0.000151055305 xtb: 6.4.1 (afa7bdf)
 36 39  0     0  0            999 V2000
   -4.5897    2.9567    0.7172 C   0  0  0  0  0  0  0  0  0  0  0  0
   -4.9369    1.6268    0.4291 O   0  0  0  0  0  0  0  0  0  0  0  0
   -3.8607    0.7643    0.2369 C   0  0  0  0  0  0  0  0  0  0  0  0
   -2.5085    1.1391    0.3158 C   0  0  0  0  0  0  0  0  0  0  0  0
   -1.5207    0.2204    0.1125 C   0  0  0  0  0  0  0  0  0  0  0  0
   -1.8108   -1.1152   -0.1791 C   0  0  0  0  0  0  0  0  0  0  0  0
   -0.7989   -2.1103   -0.3998 C   0  0  0  0  0  0  0  0  0  0  0  0
    0.6245   -1.8203   -0.3421 C   0  0  0  0  0  0  0  0  0  0  0  0
    1.1741   -0.6492   -0.0877 N   0  0  0  0  0  0  0  0  0  0  0  0
    2.4921   -0.8700   -0.1424 C   0  0  0  0  0  0  0  0  0  0  0  0
    3.4997    0.1543    0.0783 C   0  0  0  0  0  0  0  0  0  0  0  0
    3.1135    1.4579    0.3655 C   0  0  0  0  0  0  0  0  0  0  0  0
    4.0477    2.4432    0.5774 C   0  0  0  0  0  0  0  0  0  0  0  0
    5.3904    2.1389    0.5049 C   0  0  0  0  0  0  0  0  0  0  0  0
    5.7952    0.8525    0.2214 C   0  0  0  0  0  0  0  0  0  0  0  0
    4.8655   -0.1445    0.0069 C   0  0  0  0  0  0  0  0  0  0  0  0
    5.2837   -1.4023   -0.2707 F   0  0  0  0  0  0  0  0  0  0  0  0
    2.7510   -2.1545   -0.4257 N   0  0  0  0  0  0  0  0  0  0  0  0
    1.5889   -2.7682   -0.5546 O   0  0  0  0  0  0  0  0  0  0  0  0
   -1.1874   -3.3779   -0.6765 C   0  0  0  0  0  0  0  0  0  0  0  0
   -2.5694   -3.7585   -0.7565 C   0  0  0  0  0  0  0  0  0  0  0  0
   -2.8332   -4.9264   -1.0108 O   0  0  0  0  0  0  0  0  0  0  0  0
   -3.5418   -2.8085   -0.5468 O   0  0  0  0  0  0  0  0  0  0  0  0
   -3.1615   -1.5090   -0.2628 C   0  0  0  0  0  0  0  0  0  0  0  0
   -4.1547   -0.5598   -0.0530 C   0  0  0  0  0  0  0  0  0  0  0  0
   -4.0218    3.3784   -0.1135 H   0  0  0  0  0  0  0  0  0  0  0  0
   -5.5110    3.5271    0.8456 H   0  0  0  0  0  0  0  0  0  0  0  0
   -4.0141    2.9963    1.6432 H   0  0  0  0  0  0  0  0  0  0  0  0
   -2.2495    2.1574    0.5376 H   0  0  0  0  0  0  0  0  0  0  0  0
   -0.4900    0.5187    0.1754 H   0  0  0  0  0  0  0  0  0  0  0  0
    2.0606    1.6819    0.4191 H   0  0  0  0  0  0  0  0  0  0  0  0
    3.7327    3.4484    0.7990 H   0  0  0  0  0  0  0  0  0  0  0  0
    6.1271    2.9093    0.6704 H   0  0  0  0  0  0  0  0  0  0  0  0
    6.8387    0.6014    0.1617 H   0  0  0  0  0  0  0  0  0  0  0  0
   -0.4431   -4.1345   -0.8447 H   0  0  0  0  0  0  0  0  0  0  0  0
   -5.1819   -0.8639   -0.1178 H   0  0  0  0  0  0  0  0  0  0  0  0
  1  2  1  0  0  0  0
  2  3  1  0  0  0  0
  3  4  2  0  0  0  0
  4  5  1  0  0  0  0
  5  6  2  0  0  0  0
  6  7  1  0  0  0  0
  7  8  1  0  0  0  0
  8  9  2  0  0  0  0
  9 10  1  0  0  0  0
 10 11  1  0  0  0  0
 11 12  2  0  0  0  0
 12 13  1  0  0  0  0
 13 14  2  0  0  0  0
 14 15  1  0  0  0  0
 15 16  2  0  0  0  0
 16 17  1  0  0  0  0
 10 18  2  0  0  0  0
 18 19  1  0  0  0  0
  7 20  2  0  0  0  0
 20 21  1  0  0  0  0
 21 22  2  0  0  0  0
 21 23  1  0  0  0  0
 23 24  1  0  0  0  0
 24 25  2  0  0  0  0
 25  3  1  0  0  0  0
 24  6  1  0  0  0  0
 19  8  1  0  0  0  0
 16 11  1  0  0  0  0
  1 26  1  0  0  0  0
  1 27  1  0  0  0  0
  1 28  1  0  0  0  0
  4 29  1  0  0  0  0
  5 30  1  0  0  0  0
 12 31  1  0  0  0  0
 13 32  1  0  0  0  0
 14 33  1  0  0  0  0
 15 34  1  0  0  0  0
 20 35  1  0  0  0  0
 25 36  1  0  0  0  0
M  END
