
  xtb     03012221293D
 energy: -15.125988070921 gnorm: 0.000306697409 xtb: 6.4.1 (afa7bdf)
 70 78  0     0  0            999 V2000
   -8.4087    1.8336   -0.1077 C   0  0  0  0  0  0  0  0  0  0  0  0
   -6.9722    1.4427   -0.1141 C   0  0  0  0  0  0  0  0  0  0  0  0
   -6.3932    0.8411    0.9953 C   0  0  0  0  0  0  0  0  0  0  0  0
   -5.0604    0.5018    0.9987 C   0  0  0  0  0  0  0  0  0  0  0  0
   -4.2519    0.7577   -0.1114 C   0  0  0  0  0  0  0  0  0  0  0  0
   -2.8154    0.3996   -0.1077 C   0  0  0  0  0  0  0  0  0  0  0  0
   -2.4245   -0.9535    0.1187 C   0  0  0  0  0  0  0  0  0  0  0  0
   -1.1606   -1.4251    0.0879 N   0  0  0  0  0  0  0  0  0  0  0  0
   -1.2334   -2.7584    0.2944 C   0  0  0  0  0  0  0  0  0  0  0  0
   -0.1146   -3.6428    0.3205 C   0  0  0  0  0  0  0  0  0  0  0  0
   -0.2855   -5.0875    0.3582 C   0  0  0  0  0  0  0  0  0  0  0  0
   -1.3615   -5.8188   -0.1578 C   0  0  0  0  0  0  0  0  0  0  0  0
   -1.0922   -7.1515    0.0715 C   0  0  0  0  0  0  0  0  0  0  0  0
    0.1302   -7.2110    0.7111 C   0  0  0  0  0  0  0  0  0  0  0  0
    0.6380   -5.9704    0.8858 O   0  0  0  0  0  0  0  0  0  0  0  0
    1.1982   -3.1256    0.2869 C   0  0  0  0  0  0  0  0  0  0  0  0
    2.3815   -3.8580    0.3320 C   0  0  0  0  0  0  0  0  0  0  0  0
    3.5411   -3.0953    0.2704 C   0  0  0  0  0  0  0  0  0  0  0  0
    3.3293   -1.7178    0.1900 C   0  0  0  0  0  0  0  0  0  0  0  0
    1.6142   -1.4472    0.1456 S   0  0  0  0  0  0  0  0  0  0  0  0
    4.2982   -0.6894    0.1324 C   0  0  0  0  0  0  0  0  0  0  0  0
    5.7120   -0.9673    0.3388 C   0  0  0  0  0  0  0  0  0  0  0  0
    6.2536   -1.9918    1.1236 C   0  0  0  0  0  0  0  0  0  0  0  0
    7.6257   -1.8721    1.0583 C   0  0  0  0  0  0  0  0  0  0  0  0
    7.8962   -0.7876    0.2479 C   0  0  0  0  0  0  0  0  0  0  0  0
    6.7492   -0.2223   -0.1901 O   0  0  0  0  0  0  0  0  0  0  0  0
    3.9009    0.6558   -0.1159 C   0  0  0  0  0  0  0  0  0  0  0  0
    2.6296    1.1010   -0.2212 N   0  0  0  0  0  0  0  0  0  0  0  0
    2.6955    2.4357   -0.4091 C   0  0  0  0  0  0  0  0  0  0  0  0
    1.5858    3.3258   -0.5141 C   0  0  0  0  0  0  0  0  0  0  0  0
    1.8538    4.7553   -0.6037 C   0  0  0  0  0  0  0  0  0  0  0  0
    1.0415    5.7913   -0.1306 C   0  0  0  0  0  0  0  0  0  0  0  0
    1.6907    6.9773   -0.4032 C   0  0  0  0  0  0  0  0  0  0  0  0
    2.8773    6.6504   -1.0269 C   0  0  0  0  0  0  0  0  0  0  0  0
    2.9966    5.3089   -1.1484 O   0  0  0  0  0  0  0  0  0  0  0  0
    0.2677    2.8207   -0.5028 C   0  0  0  0  0  0  0  0  0  0  0  0
   -0.9273    3.5215   -0.6935 C   0  0  0  0  0  0  0  0  0  0  0  0
   -2.0754    2.7520   -0.5776 C   0  0  0  0  0  0  0  0  0  0  0  0
   -1.8441    1.3992   -0.3149 C   0  0  0  0  0  0  0  0  0  0  0  0
   -0.1287    1.1473   -0.2538 S   0  0  0  0  0  0  0  0  0  0  0  0
    4.0626    2.8549   -0.4281 C   0  0  0  0  0  0  0  0  0  0  0  0
    4.8108    1.7513   -0.2443 C   0  0  0  0  0  0  0  0  0  0  0  0
   -2.6002   -3.1429    0.4964 C   0  0  0  0  0  0  0  0  0  0  0  0
   -3.3400   -2.0250    0.3727 C   0  0  0  0  0  0  0  0  0  0  0  0
   -4.8388    1.3716   -1.2203 C   0  0  0  0  0  0  0  0  0  0  0  0
   -6.1722    1.7086   -1.2174 C   0  0  0  0  0  0  0  0  0  0  0  0
   -8.5239    2.8781    0.1828 H   0  0  0  0  0  0  0  0  0  0  0  0
   -8.8536    1.7072   -1.0951 H   0  0  0  0  0  0  0  0  0  0  0  0
   -8.9802    1.2245    0.5931 H   0  0  0  0  0  0  0  0  0  0  0  0
   -7.0009    0.6448    1.8615 H   0  0  0  0  0  0  0  0  0  0  0  0
   -4.6177    0.0497    1.8695 H   0  0  0  0  0  0  0  0  0  0  0  0
   -2.2038   -5.4252   -0.6994 H   0  0  0  0  0  0  0  0  0  0  0  0
   -1.7105   -7.9890   -0.2074 H   0  0  0  0  0  0  0  0  0  0  0  0
    0.6313   -8.1170    1.0292 H   0  0  0  0  0  0  0  0  0  0  0  0
    2.3820   -4.9330    0.4106 H   0  0  0  0  0  0  0  0  0  0  0  0
    4.5228   -3.5403    0.2394 H   0  0  0  0  0  0  0  0  0  0  0  0
    5.7059   -2.6944    1.7277 H   0  0  0  0  0  0  0  0  0  0  0  0
    8.3491   -2.4970    1.5555 H   0  0  0  0  0  0  0  0  0  0  0  0
    8.8832   -0.4214   -0.0069 H   0  0  0  0  0  0  0  0  0  0  0  0
    0.1202    5.6850    0.4163 H   0  0  0  0  0  0  0  0  0  0  0  0
    1.3446    7.9690   -0.1633 H   0  0  0  0  0  0  0  0  0  0  0  0
    3.6243    7.3550   -1.3715 H   0  0  0  0  0  0  0  0  0  0  0  0
   -0.9589    4.5692   -0.9453 H   0  0  0  0  0  0  0  0  0  0  0  0
   -3.0680    3.1633   -0.6698 H   0  0  0  0  0  0  0  0  0  0  0  0
    4.4093    3.8633   -0.5754 H   0  0  0  0  0  0  0  0  0  0  0  0
    5.8845    1.6858   -0.2137 H   0  0  0  0  0  0  0  0  0  0  0  0
   -2.9672   -4.1219    0.7511 H   0  0  0  0  0  0  0  0  0  0  0  0
   -4.4105   -1.9480    0.4551 H   0  0  0  0  0  0  0  0  0  0  0  0
   -4.2322    1.5642   -2.0885 H   0  0  0  0  0  0  0  0  0  0  0  0
   -6.6098    2.1841   -2.0780 H   0  0  0  0  0  0  0  0  0  0  0  0
  1  2  1  0  0  0  0
  2  3  2  0  0  0  0
  3  4  1  0  0  0  0
  4  5  2  0  0  0  0
  5  6  1  0  0  0  0
  6  7  1  0  0  0  0
  7  8  2  0  0  0  0
  8  9  1  0  0  0  0
  9 10  2  0  0  0  0
 10 11  1  0  0  0  0
 11 12  2  0  0  0  0
 12 13  1  0  0  0  0
 13 14  2  0  0  0  0
 14 15  1  0  0  0  0
 10 16  1  0  0  0  0
 16 17  2  0  0  0  0
 17 18  1  0  0  0  0
 18 19  2  0  0  0  0
 19 20  1  0  0  0  0
 19 21  1  0  0  0  0
 21 22  1  0  0  0  0
 22 23  2  0  0  0  0
 23 24  1  0  0  0  0
 24 25  2  0  0  0  0
 25 26  1  0  0  0  0
 21 27  2  0  0  0  0
 27 28  1  0  0  0  0
 28 29  2  0  0  0  0
 29 30  1  0  0  0  0
 30 31  1  0  0  0  0
 31 32  2  0  0  0  0
 32 33  1  0  0  0  0
 33 34  2  0  0  0  0
 34 35  1  0  0  0  0
 30 36  2  0  0  0  0
 36 37  1  0  0  0  0
 37 38  2  0  0  0  0
 38 39  1  0  0  0  0
 39 40  1  0  0  0  0
 29 41  1  0  0  0  0
 41 42  2  0  0  0  0
  9 43  1  0  0  0  0
 43 44  2  0  0  0  0
  5 45  1  0  0  0  0
 45 46  2  0  0  0  0
 46  2  1  0  0  0  0
 39  6  2  0  0  0  0
 44  7  1  0  0  0  0
 15 11  1  0  0  0  0
 20 16  1  0  0  0  0
 26 22  1  0  0  0  0
 42 27  1  0  0  0  0
 35 31  1  0  0  0  0
 40 36  1  0  0  0  0
  1 47  1  0  0  0  0
  1 48  1  0  0  0  0
  1 49  1  0  0  0  0
  3 50  1  0  0  0  0
  4 51  1  0  0  0  0
 12 52  1  0  0  0  0
 13 53  1  0  0  0  0
 14 54  1  0  0  0  0
 17 55  1  0  0  0  0
 18 56  1  0  0  0  0
 23 57  1  0  0  0  0
 24 58  1  0  0  0  0
 25 59  1  0  0  0  0
 32 60  1  0  0  0  0
 33 61  1  0  0  0  0
 34 62  1  0  0  0  0
 37 63  1  0  0  0  0
 38 64  1  0  0  0  0
 41 65  1  0  0  0  0
 42 66  1  0  0  0  0
 43 67  1  0  0  0  0
 44 68  1  0  0  0  0
 45 69  1  0  0  0  0
 46 70  1  0  0  0  0
M  END
