
  xtb     03012221313D
 energy: -13.773288093193 gnorm: 0.000216674433 xtb: 6.4.1 (afa7bdf)
 68 74  0     0  0            999 V2000
    3.9518    4.7724   -0.4485 C   0  0  0  0  0  0  0  0  0  0  0  0
    4.6950    3.5433   -0.7390 N   0  0  0  0  0  0  0  0  0  0  0  0
    6.0413    3.7025   -1.2953 C   0  0  0  0  0  0  0  0  0  0  0  0
    4.1477    2.2848   -0.4981 C   0  0  0  0  0  0  0  0  0  0  0  0
    2.8558    2.1433    0.0300 C   0  0  0  0  0  0  0  0  0  0  0  0
    2.3271    0.9069    0.2736 C   0  0  0  0  0  0  0  0  0  0  0  0
    3.0480   -0.2661    0.0191 C   0  0  0  0  0  0  0  0  0  0  0  0
    2.4849   -1.5755    0.2859 C   0  0  0  0  0  0  0  0  0  0  0  0
    1.1699   -1.9337    0.2873 N   0  0  0  0  0  4  0  0  0  0  0  0
    0.9715   -3.2909    0.3951 C   0  0  0  0  0  0  0  0  0  0  0  0
   -0.1551   -3.9895    0.3301 N   0  0  0  0  0  0  0  0  0  0  0  0
   -1.2250   -3.2240    0.1546 C   0  0  0  0  0  0  0  0  0  0  0  0
   -2.5804   -3.7056    0.0892 C   0  0  0  0  0  0  0  0  0  0  0  0
   -3.0915   -5.0010    0.1039 C   0  0  0  0  0  0  0  0  0  0  0  0
   -4.4494   -5.1728   -0.0126 C   0  0  0  0  0  0  0  0  0  0  0  0
   -5.2987   -4.0744   -0.1543 C   0  0  0  0  0  0  0  0  0  0  0  0
   -4.8066   -2.7912   -0.1655 C   0  0  0  0  0  0  0  0  0  0  0  0
   -3.4302   -2.5883   -0.0220 C   0  0  0  0  0  0  0  0  0  0  0  0
   -2.6016   -1.4008   -0.0044 C   0  0  0  0  0  0  0  0  0  0  0  0
   -3.0605   -0.0267    0.0598 C   0  0  0  0  0  0  0  0  0  0  0  0
   -2.2520    1.0353   -0.3633 C   0  0  0  0  0  0  0  0  0  0  0  0
   -2.6816    2.3315   -0.3116 C   0  0  0  0  0  0  0  0  0  0  0  0
   -3.9558    2.6505    0.1810 C   0  0  0  0  0  0  0  0  0  0  0  0
   -4.4021    3.9696    0.2267 N   0  0  0  0  0  0  0  0  0  0  0  0
   -3.5742    5.0779   -0.2570 C   0  0  0  0  0  0  0  0  0  0  0  0
   -5.7230    4.3164    0.7582 C   0  0  0  0  0  0  0  0  0  0  0  0
   -4.7603    1.5930    0.6328 C   0  0  0  0  0  0  0  0  0  0  0  0
   -4.3244    0.2976    0.5761 C   0  0  0  0  0  0  0  0  0  0  0  0
   -1.3181   -1.8548    0.0566 N   0  0  0  0  0  0  0  0  0  0  0  0
   -0.0400   -1.0164    0.1047 B   0  0  0  0  0  4  0  0  0  0  0  0
   -0.1518   -0.1548    1.1926 F   0  0  0  0  0  0  0  0  0  0  0  0
    0.1313   -0.3415   -1.1010 F   0  0  0  0  0  0  0  0  0  0  0  0
    2.2863   -3.8598    0.5396 C   0  0  0  0  0  0  0  0  0  0  0  0
    2.6967   -5.1781    0.7219 C   0  0  0  0  0  0  0  0  0  0  0  0
    4.0381   -5.4339    0.8706 C   0  0  0  0  0  0  0  0  0  0  0  0
    4.9698   -4.3950    0.8513 C   0  0  0  0  0  0  0  0  0  0  0  0
    4.5775   -3.0906    0.6675 C   0  0  0  0  0  0  0  0  0  0  0  0
    3.2198   -2.8069    0.4868 C   0  0  0  0  0  0  0  0  0  0  0  0
    4.3299   -0.1222   -0.5334 C   0  0  0  0  0  0  0  0  0  0  0  0
    4.8648    1.1122   -0.7818 C   0  0  0  0  0  0  0  0  0  0  0  0
    4.5377    5.6545   -0.6946 H   0  0  0  0  0  0  0  0  0  0  0  0
    3.0354    4.7995   -1.0335 H   0  0  0  0  0  0  0  0  0  0  0  0
    3.7021    4.8146    0.6092 H   0  0  0  0  0  0  0  0  0  0  0  0
    6.0933    3.2429   -2.2796 H   0  0  0  0  0  0  0  0  0  0  0  0
    6.7721    3.2314   -0.6420 H   0  0  0  0  0  0  0  0  0  0  0  0
    6.3039    4.7527   -1.3962 H   0  0  0  0  0  0  0  0  0  0  0  0
    2.2720    3.0208    0.2416 H   0  0  0  0  0  0  0  0  0  0  0  0
    1.3320    0.8191    0.6633 H   0  0  0  0  0  0  0  0  0  0  0  0
   -2.4207   -5.8366    0.1985 H   0  0  0  0  0  0  0  0  0  0  0  0
   -4.8630   -6.1673   -0.0054 H   0  0  0  0  0  0  0  0  0  0  0  0
   -6.3584   -4.2371   -0.2642 H   0  0  0  0  0  0  0  0  0  0  0  0
   -5.4645   -1.9560   -0.3252 H   0  0  0  0  0  0  0  0  0  0  0  0
   -1.2688    0.8130   -0.7289 H   0  0  0  0  0  0  0  0  0  0  0  0
   -2.0318    3.1194   -0.6473 H   0  0  0  0  0  0  0  0  0  0  0  0
   -4.0977    6.0269   -0.1719 H   0  0  0  0  0  0  0  0  0  0  0  0
   -2.6589    5.1401    0.3271 H   0  0  0  0  0  0  0  0  0  0  0  0
   -3.3206    4.9233   -1.3033 H   0  0  0  0  0  0  0  0  0  0  0  0
   -5.8017    3.9975    1.7950 H   0  0  0  0  0  0  0  0  0  0  0  0
   -6.4994    3.8277    0.1740 H   0  0  0  0  0  0  0  0  0  0  0  0
   -5.8934    5.3894    0.7196 H   0  0  0  0  0  0  0  0  0  0  0  0
   -5.7323    1.8080    1.0389 H   0  0  0  0  0  0  0  0  0  0  0  0
   -4.9385   -0.4856    0.9821 H   0  0  0  0  0  0  0  0  0  0  0  0
    1.9633   -5.9646    0.7499 H   0  0  0  0  0  0  0  0  0  0  0  0
    4.3744   -6.4470    1.0149 H   0  0  0  0  0  0  0  0  0  0  0  0
    6.0145   -4.6200    0.9906 H   0  0  0  0  0  0  0  0  0  0  0  0
    5.2982   -2.2937    0.7041 H   0  0  0  0  0  0  0  0  0  0  0  0
    4.8787   -1.0028   -0.8141 H   0  0  0  0  0  0  0  0  0  0  0  0
    5.8473    1.1874   -1.2116 H   0  0  0  0  0  0  0  0  0  0  0  0
  1  2  1  0  0  0  0
  2  3  1  0  0  0  0
  2  4  1  0  0  0  0
  4  5  2  0  0  0  0
  5  6  1  0  0  0  0
  6  7  2  0  0  0  0
  7  8  1  0  0  0  0
  8  9  2  0  0  0  0
  9 10  1  0  0  0  0
 10 11  2  0  0  0  0
 11 12  1  0  0  0  0
 12 13  2  0  0  0  0
 13 14  1  0  0  0  0
 14 15  2  0  0  0  0
 15 16  1  0  0  0  0
 16 17  2  0  0  0  0
 17 18  1  0  0  0  0
 18 19  2  0  0  0  0
 19 20  1  0  0  0  0
 20 21  2  0  0  0  0
 21 22  1  0  0  0  0
 22 23  2  0  0  0  0
 23 24  1  0  0  0  0
 24 25  1  0  0  0  0
 24 26  1  0  0  0  0
 23 27  1  0  0  0  0
 27 28  2  0  0  0  0
 19 29  1  0  0  0  0
 29 30  1  0  0  0  0
 30 31  1  0  0  0  0
 30 32  1  0  0  0  0
 10 33  1  0  0  0  0
 33 34  2  0  0  0  0
 34 35  1  0  0  0  0
 35 36  2  0  0  0  0
 36 37  1  0  0  0  0
 37 38  2  0  0  0  0
  7 39  1  0  0  0  0
 39 40  2  0  0  0  0
 40  4  1  0  0  0  0
 38  8  1  0  0  0  0
 30  9  1  0  0  0  0
 38 33  1  0  0  0  0
 29 12  1  0  0  0  0
 18 13  1  0  0  0  0
 28 20  1  0  0  0  0
  1 41  1  0  0  0  0
  1 42  1  0  0  0  0
  1 43  1  0  0  0  0
  3 44  1  0  0  0  0
  3 45  1  0  0  0  0
  3 46  1  0  0  0  0
  5 47  1  0  0  0  0
  6 48  1  0  0  0  0
 14 49  1  0  0  0  0
 15 50  1  0  0  0  0
 16 51  1  0  0  0  0
 17 52  1  0  0  0  0
 21 53  1  0  0  0  0
 22 54  1  0  0  0  0
 25 55  1  0  0  0  0
 25 56  1  0  0  0  0
 25 57  1  0  0  0  0
 26 58  1  0  0  0  0
 26 59  1  0  0  0  0
 26 60  1  0  0  0  0
 27 61  1  0  0  0  0
 28 62  1  0  0  0  0
 34 63  1  0  0  0  0
 35 64  1  0  0  0  0
 36 65  1  0  0  0  0
 37 66  1  0  0  0  0
 39 67  1  0  0  0  0
 40 68  1  0  0  0  0
M  CHG  1   9   1
M  CHG  1  30  -1
M  END
