
  xtb     03012221253D
 energy: -5.126249773938 gnorm: 0.000162596019 xtb: 6.4.1 (afa7bdf)
 24 26  0     0  0            999 V2000
   -4.0774    0.1799   -0.1533 C   0  0  0  0  0  0  0  0  0  0  0  0
   -2.6067   -0.0422   -0.1754 C   0  0  0  0  0  0  0  0  0  0  0  0
   -2.0699   -1.1374   -0.8509 C   0  0  0  0  0  0  0  0  0  0  0  0
   -0.7074   -1.3587   -0.9076 C   0  0  0  0  0  0  0  0  0  0  0  0
    0.1391   -0.4613   -0.2797 C   0  0  0  0  0  0  0  0  0  0  0  0
   -0.3894    0.6442    0.3918 C   0  0  0  0  0  0  0  0  0  0  0  0
   -1.7519    0.8596    0.4448 C   0  0  0  0  0  0  0  0  0  0  0  0
    0.7204    1.4323    0.9619 C   0  0  0  0  0  0  0  0  0  0  0  0
    0.6369    2.4533    1.6068 O   0  0  0  0  0  0  0  0  0  0  0  0
    1.9458    0.7121    0.5795 C   0  0  0  0  0  0  0  0  0  0  0  0
    3.2768    0.9622    0.8215 C   0  0  0  0  0  0  0  0  0  0  0  0
    4.1917    0.0699    0.3102 C   0  0  0  0  0  0  0  0  0  0  0  0
    3.8914   -1.0141   -0.3989 N   0  0  0  0  0  0  0  0  0  0  0  0
    2.6058   -1.2418   -0.6239 C   0  0  0  0  0  0  0  0  0  0  0  0
    1.6013   -0.4145   -0.1592 C   0  0  0  0  0  0  0  0  0  0  0  0
   -4.3756    0.7536    0.7246 H   0  0  0  0  0  0  0  0  0  0  0  0
   -4.6171   -0.7671   -0.1285 H   0  0  0  0  0  0  0  0  0  0  0  0
   -4.3987    0.7287   -1.0389 H   0  0  0  0  0  0  0  0  0  0  0  0
   -2.7404   -1.8236   -1.3387 H   0  0  0  0  0  0  0  0  0  0  0  0
   -0.3002   -2.2075   -1.4278 H   0  0  0  0  0  0  0  0  0  0  0  0
   -2.1343    1.7200    0.9632 H   0  0  0  0  0  0  0  0  0  0  0  0
    3.5701    1.8271    1.3906 H   0  0  0  0  0  0  0  0  0  0  0  0
    5.2428    0.2416    0.4851 H   0  0  0  0  0  0  0  0  0  0  0  0
    2.3471   -2.1163   -1.1969 H   0  0  0  0  0  0  0  0  0  0  0  0
  1  2  1  0  0  0  0
  2  3  2  0  0  0  0
  3  4  1  0  0  0  0
  4  5  2  0  0  0  0
  5  6  1  0  0  0  0
  6  7  2  0  0  0  0
  6  8  1  0  0  0  0
  8  9  2  0  0  0  0
  8 10  1  0  0  0  0
 10 11  2  0  0  0  0
 11 12  1  0  0  0  0
 12 13  2  0  0  0  0
 13 14  1  0  0  0  0
 14 15  2  0  0  0  0
  7  2  1  0  0  0  0
 15 10  1  0  0  0  0
 15  5  1  0  0  0  0
  1 16  1  0  0  0  0
  1 17  1  0  0  0  0
  1 18  1  0  0  0  0
  3 19  1  0  0  0  0
  4 20  1  0  0  0  0
  7 21  1  0  0  0  0
 11 22  1  0  0  0  0
 12 23  1  0  0  0  0
 14 24  1  0  0  0  0
M  END
