
  xtb     03012221323D
 energy: -14.200962470898 gnorm: 0.000432207899 xtb: 6.4.1 (afa7bdf)
 72 79  0     0  0            999 V2000
   -2.7019   -3.3313   -0.4761 C   0  0  0  0  0  0  0  0  0  0  0  0
   -2.5696   -1.8766   -0.2929 C   0  0  0  0  0  0  0  0  0  0  0  0
   -3.5876   -1.0293   -0.2338 N   0  0  0  0  0  4  0  0  0  0  0  0
   -3.1844    0.3155   -0.0606 C   0  0  0  0  0  0  0  0  0  0  0  0
   -4.0842    1.4209    0.0315 C   0  0  0  0  0  0  0  0  0  0  0  0
   -3.5749    2.7611    0.1306 C   0  0  0  0  0  0  0  0  0  0  0  0
   -4.2605    3.9579    0.0678 C   0  0  0  0  0  0  0  0  0  0  0  0
   -3.4524    5.0991    0.2472 C   0  0  0  0  0  0  0  0  0  0  0  0
   -2.1371    4.8100    0.4330 C   0  0  0  0  0  0  0  0  0  0  0  0
   -1.8781    3.1197    0.3503 S   0  0  0  0  0  0  0  0  0  0  0  0
   -5.4529    1.0888    0.0263 C   0  0  0  0  0  0  0  0  0  0  0  0
   -6.6315    1.8546    0.2243 C   0  0  0  0  0  0  0  0  0  0  0  0
   -7.7191    1.0109    0.1309 C   0  0  0  0  0  0  0  0  0  0  0  0
   -7.2588   -0.2972   -0.1171 C   0  0  0  0  0  0  0  0  0  0  0  0
   -8.0540   -1.5286   -0.2677 C   0  0  0  0  0  0  0  0  0  0  0  0
   -5.9240   -0.2187   -0.1601 N   0  0  0  0  0  0  0  0  0  0  0  0
   -5.0473   -1.4562   -0.3483 B   0  0  0  0  0  4  0  0  0  0  0  0
   -5.3360   -2.3815    0.6582 F   0  0  0  0  0  0  0  0  0  0  0  0
   -5.2749   -1.9979   -1.6152 F   0  0  0  0  0  0  0  0  0  0  0  0
   -1.8062    0.2697   -0.0078 C   0  0  0  0  0  0  0  0  0  0  0  0
   -1.3849   -1.0797   -0.1487 C   0  0  0  0  0  0  0  0  0  0  0  0
   -0.0327   -1.4983   -0.1455 C   0  0  0  0  0  0  0  0  0  0  0  0
    1.0896   -0.6350    0.0033 C   0  0  0  0  0  0  0  0  0  0  0  0
    2.2326   -1.4067   -0.0545 C   0  0  0  0  0  0  0  0  0  0  0  0
    1.7893   -2.7381   -0.2312 N   0  0  0  0  0  0  0  0  0  0  0  0
    0.4759   -2.8274   -0.2890 C   0  0  0  0  0  0  0  0  0  0  0  0
    2.7454   -3.9300   -0.3321 B   0  0  0  0  0  4  0  0  0  0  0  0
    2.4857   -4.8098    0.7218 F   0  0  0  0  0  0  0  0  0  0  0  0
    2.5766   -4.5417   -1.5769 F   0  0  0  0  0  0  0  0  0  0  0  0
    4.1870   -3.4209   -0.2160 N   0  0  0  0  0  4  0  0  0  0  0  0
    5.2646   -4.1952   -0.2770 C   0  0  0  0  0  0  0  0  0  0  0  0
    6.3851   -3.3474   -0.1472 C   0  0  0  0  0  0  0  0  0  0  0  0
    5.9445   -2.0513   -0.0086 C   0  0  0  0  0  0  0  0  0  0  0  0
    4.5242   -2.0695   -0.0465 C   0  0  0  0  0  0  0  0  0  0  0  0
    3.5971   -1.0333    0.0405 C   0  0  0  0  0  0  0  0  0  0  0  0
    4.0015    0.3811    0.2211 C   0  0  0  0  0  0  0  0  0  0  0  0
    4.4886    0.8285    1.4637 C   0  0  0  0  0  0  0  0  0  0  0  0
    4.6201   -0.1088    2.6132 C   0  0  0  0  0  0  0  0  0  0  0  0
    4.8583    2.1520    1.6098 C   0  0  0  0  0  0  0  0  0  0  0  0
    4.7468    3.0581    0.5671 C   0  0  0  0  0  0  0  0  0  0  0  0
    5.1167    4.4881    0.7537 C   0  0  0  0  0  0  0  0  0  0  0  0
    4.2467    2.6140   -0.6462 C   0  0  0  0  0  0  0  0  0  0  0  0
    3.8846    1.2950   -0.8432 C   0  0  0  0  0  0  0  0  0  0  0  0
    3.3540    0.8632   -2.1659 C   0  0  0  0  0  0  0  0  0  0  0  0
   -3.7557   -3.6014   -0.5544 H   0  0  0  0  0  0  0  0  0  0  0  0
   -2.2042   -3.6576   -1.3890 H   0  0  0  0  0  0  0  0  0  0  0  0
   -2.2800   -3.8723    0.3706 H   0  0  0  0  0  0  0  0  0  0  0  0
   -5.3117    4.0338   -0.1480 H   0  0  0  0  0  0  0  0  0  0  0  0
   -3.8414    6.1065    0.2357 H   0  0  0  0  0  0  0  0  0  0  0  0
   -1.3532    5.5278    0.5916 H   0  0  0  0  0  0  0  0  0  0  0  0
   -6.6892    2.8952    0.4849 H   0  0  0  0  0  0  0  0  0  0  0  0
   -8.7524    1.2906    0.2531 H   0  0  0  0  0  0  0  0  0  0  0  0
   -8.7795   -1.4289   -1.0749 H   0  0  0  0  0  0  0  0  0  0  0  0
   -8.5890   -1.7608    0.6530 H   0  0  0  0  0  0  0  0  0  0  0  0
   -7.4000   -2.3700   -0.5000 H   0  0  0  0  0  0  0  0  0  0  0  0
   -1.1416    1.1029    0.1145 H   0  0  0  0  0  0  0  0  0  0  0  0
    1.0602    0.4305    0.1401 H   0  0  0  0  0  0  0  0  0  0  0  0
   -0.0653   -3.7475   -0.4184 H   0  0  0  0  0  0  0  0  0  0  0  0
    5.2467   -5.2652   -0.4072 H   0  0  0  0  0  0  0  0  0  0  0  0
    7.4152   -3.6653   -0.1604 H   0  0  0  0  0  0  0  0  0  0  0  0
    6.5567   -1.1727    0.1022 H   0  0  0  0  0  0  0  0  0  0  0  0
    4.4865    0.4109    3.5623 H   0  0  0  0  0  0  0  0  0  0  0  0
    5.6042   -0.5777    2.6209 H   0  0  0  0  0  0  0  0  0  0  0  0
    3.8714   -0.9000    2.5639 H   0  0  0  0  0  0  0  0  0  0  0  0
    5.2349    2.4891    2.5589 H   0  0  0  0  0  0  0  0  0  0  0  0
    5.6097    4.8835   -0.1348 H   0  0  0  0  0  0  0  0  0  0  0  0
    4.2314    5.0946    0.9462 H   0  0  0  0  0  0  0  0  0  0  0  0
    5.7996    4.6134    1.5944 H   0  0  0  0  0  0  0  0  0  0  0  0
    4.1410    3.3137   -1.4559 H   0  0  0  0  0  0  0  0  0  0  0  0
    2.2734    0.9991   -2.2136 H   0  0  0  0  0  0  0  0  0  0  0  0
    3.5685   -0.1895   -2.3522 H   0  0  0  0  0  0  0  0  0  0  0  0
    3.8023    1.4386   -2.9763 H   0  0  0  0  0  0  0  0  0  0  0  0
  1  2  1  0  0  0  0
  2  3  2  0  0  0  0
  3  4  1  0  0  0  0
  4  5  2  0  0  0  0
  5  6  1  0  0  0  0
  6  7  2  0  0  0  0
  7  8  1  0  0  0  0
  8  9  2  0  0  0  0
  9 10  1  0  0  0  0
  5 11  1  0  0  0  0
 11 12  2  0  0  0  0
 12 13  1  0  0  0  0
 13 14  2  0  0  0  0
 14 15  1  0  0  0  0
 14 16  1  0  0  0  0
 16 17  1  0  0  0  0
 17 18  1  0  0  0  0
 17 19  1  0  0  0  0
  4 20  1  0  0  0  0
 20 21  2  0  0  0  0
 21 22  1  0  0  0  0
 22 23  1  0  0  0  0
 23 24  2  0  0  0  0
 24 25  1  0  0  0  0
 25 26  1  0  0  0  0
 25 27  1  0  0  0  0
 27 28  1  0  0  0  0
 27 29  1  0  0  0  0
 27 30  1  0  0  0  0
 30 31  2  0  0  0  0
 31 32  1  0  0  0  0
 32 33  2  0  0  0  0
 33 34  1  0  0  0  0
 34 35  2  0  0  0  0
 35 36  1  0  0  0  0
 36 37  2  0  0  0  0
 37 38  1  0  0  0  0
 37 39  1  0  0  0  0
 39 40  2  0  0  0  0
 40 41  1  0  0  0  0
 40 42  1  0  0  0  0
 42 43  2  0  0  0  0
 43 44  1  0  0  0  0
 21  2  1  0  0  0  0
 26 22  2  0  0  0  0
 34 30  1  0  0  0  0
 43 36  1  0  0  0  0
 17  3  1  0  0  0  0
 35 24  1  0  0  0  0
 10  6  1  0  0  0  0
 16 11  1  0  0  0  0
  1 45  1  0  0  0  0
  1 46  1  0  0  0  0
  1 47  1  0  0  0  0
  7 48  1  0  0  0  0
  8 49  1  0  0  0  0
  9 50  1  0  0  0  0
 12 51  1  0  0  0  0
 13 52  1  0  0  0  0
 15 53  1  0  0  0  0
 15 54  1  0  0  0  0
 15 55  1  0  0  0  0
 20 56  1  0  0  0  0
 23 57  1  0  0  0  0
 26 58  1  0  0  0  0
 31 59  1  0  0  0  0
 32 60  1  0  0  0  0
 33 61  1  0  0  0  0
 38 62  1  0  0  0  0
 38 63  1  0  0  0  0
 38 64  1  0  0  0  0
 39 65  1  0  0  0  0
 41 66  1  0  0  0  0
 41 67  1  0  0  0  0
 41 68  1  0  0  0  0
 42 69  1  0  0  0  0
 44 70  1  0  0  0  0
 44 71  1  0  0  0  0
 44 72  1  0  0  0  0
M  CHG  1   3   1
M  CHG  1  17  -1
M  CHG  1  27  -1
M  CHG  1  30   1
M  END
