
  xtb     03012221203D
 energy: -13.006880628337 gnorm: 0.000224421802 xtb: 6.4.1 (afa7bdf)
 60 66  0     0  0            999 V2000
   -5.3803   -0.2010   -0.3128 C   0  0  0  0  0  0  0  0  0  0  0  0
   -5.8682   -1.0272    0.6293 C   0  0  0  0  0  0  0  0  0  0  0  0
   -7.2896   -1.3017    0.8330 C   0  0  0  0  0  0  0  0  0  0  0  0
   -7.6857   -2.6029    1.0742 C   0  0  0  0  0  0  0  0  0  0  0  0
   -9.0289   -2.9448    1.2195 C   0  0  0  0  0  0  0  0  0  0  0  0
   -9.9985   -1.9909    1.1327 C   0  0  0  0  0  0  0  0  0  0  0  0
   -9.6583   -0.6376    0.9190 C   0  0  0  0  0  0  0  0  0  0  0  0
  -10.6506    0.3675    0.8577 C   0  0  0  0  0  0  0  0  0  0  0  0
  -10.3081    1.6756    0.6984 C   0  0  0  0  0  0  0  0  0  0  0  0
   -8.9632    2.0441    0.6044 C   0  0  0  0  0  0  0  0  0  0  0  0
   -7.9826    1.0978    0.6515 C   0  0  0  0  0  0  0  0  0  0  0  0
   -8.2941   -0.2742    0.7854 C   0  0  0  0  0  0  0  0  0  0  0  0
   -3.9773    0.0793   -0.5503 C   0  0  0  0  0  0  0  0  0  0  0  0
   -2.9564   -0.4701    0.2320 C   0  0  0  0  0  0  0  0  0  0  0  0
   -1.6385   -0.1846   -0.0280 C   0  0  0  0  0  0  0  0  0  0  0  0
   -1.2881    0.6608   -1.0755 C   0  0  0  0  0  0  0  0  0  0  0  0
    0.1100    0.9480   -1.3467 C   0  0  0  0  0  0  0  0  0  0  0  0
    0.5468    1.7533   -2.3222 N   0  0  0  0  0  0  0  0  0  0  0  0
    1.8391    1.7753   -2.2819 N   0  0  0  0  0  0  0  0  0  0  0  0
    2.2424    0.9845   -1.2808 C   0  0  0  0  0  0  0  0  0  0  0  0
    3.6315    0.7446   -0.9239 C   0  0  0  0  0  0  0  0  0  0  0  0
    3.9445   -0.0987    0.1362 C   0  0  0  0  0  0  0  0  0  0  0  0
    5.2544   -0.3366    0.4725 C   0  0  0  0  0  0  0  0  0  0  0  0
    6.3008    0.2568   -0.2354 C   0  0  0  0  0  0  0  0  0  0  0  0
    7.6829   -0.0189    0.1383 C   0  0  0  0  0  0  0  0  0  0  0  0
    8.7995    0.4843   -0.4525 C   0  0  0  0  0  0  0  0  0  0  0  0
   10.0305    0.0263    0.1337 C   0  0  0  0  0  0  0  0  0  0  0  0
   11.3381    0.3633   -0.2551 C   0  0  0  0  0  0  0  0  0  0  0  0
   12.4000   -0.1766    0.4245 C   0  0  0  0  0  0  0  0  0  0  0  0
   12.1938   -1.0521    1.4920 C   0  0  0  0  0  0  0  0  0  0  0  0
   10.9214   -1.3908    1.8837 C   0  0  0  0  0  0  0  0  0  0  0  0
    9.8362   -0.8512    1.2036 C   0  0  0  0  0  0  0  0  0  0  0  0
    8.1253   -1.0884    1.4608 S   0  0  0  0  0  0  0  0  0  0  0  0
    5.9777    1.1046   -1.2976 C   0  0  0  0  0  0  0  0  0  0  0  0
    4.6674    1.3433   -1.6346 C   0  0  0  0  0  0  0  0  0  0  0  0
    1.1652    0.4386   -0.6566 O   0  0  0  0  0  0  0  0  0  0  0  0
   -2.2978    1.2161   -1.8561 C   0  0  0  0  0  0  0  0  0  0  0  0
   -3.6157    0.9310   -1.5988 C   0  0  0  0  0  0  0  0  0  0  0  0
   -6.0803    0.2701   -0.9798 H   0  0  0  0  0  0  0  0  0  0  0  0
   -5.1789   -1.5840    1.2386 H   0  0  0  0  0  0  0  0  0  0  0  0
   -6.9339   -3.3717    1.1232 H   0  0  0  0  0  0  0  0  0  0  0  0
   -9.3011   -3.9730    1.3930 H   0  0  0  0  0  0  0  0  0  0  0  0
  -11.0358   -2.2580    1.2396 H   0  0  0  0  0  0  0  0  0  0  0  0
  -11.6851    0.0838    0.9459 H   0  0  0  0  0  0  0  0  0  0  0  0
  -11.0736    2.4332    0.6557 H   0  0  0  0  0  0  0  0  0  0  0  0
   -8.7029    3.0846    0.4999 H   0  0  0  0  0  0  0  0  0  0  0  0
   -6.9524    1.4023    0.6188 H   0  0  0  0  0  0  0  0  0  0  0  0
   -3.2023   -1.1230    1.0495 H   0  0  0  0  0  0  0  0  0  0  0  0
   -0.8541   -0.6105    0.5735 H   0  0  0  0  0  0  0  0  0  0  0  0
    3.1415   -0.5607    0.6837 H   0  0  0  0  0  0  0  0  0  0  0  0
    5.4906   -0.9913    1.2925 H   0  0  0  0  0  0  0  0  0  0  0  0
    8.7823    1.1644   -1.2868 H   0  0  0  0  0  0  0  0  0  0  0  0
   11.4891    1.0382   -1.0789 H   0  0  0  0  0  0  0  0  0  0  0  0
   13.4058    0.0764    0.1325 H   0  0  0  0  0  0  0  0  0  0  0  0
   13.0415   -1.4661    2.0133 H   0  0  0  0  0  0  0  0  0  0  0  0
   10.7503   -2.0650    2.7050 H   0  0  0  0  0  0  0  0  0  0  0  0
    6.7648    1.5744   -1.8595 H   0  0  0  0  0  0  0  0  0  0  0  0
    4.4221    1.9949   -2.4548 H   0  0  0  0  0  0  0  0  0  0  0  0
   -2.0256    1.8700   -2.6661 H   0  0  0  0  0  0  0  0  0  0  0  0
   -4.3879    1.3644   -2.2104 H   0  0  0  0  0  0  0  0  0  0  0  0
  1  2  2  0  0  0  0
  2  3  1  0  0  0  0
  3  4  2  0  0  0  0
  4  5  1  0  0  0  0
  5  6  2  0  0  0  0
  6  7  1  0  0  0  0
  7  8  2  0  0  0  0
  8  9  1  0  0  0  0
  9 10  2  0  0  0  0
 10 11  1  0  0  0  0
 11 12  2  0  0  0  0
  1 13  1  0  0  0  0
 13 14  2  0  0  0  0
 14 15  1  0  0  0  0
 15 16  2  0  0  0  0
 16 17  1  0  0  0  0
 17 18  2  0  0  0  0
 18 19  1  0  0  0  0
 19 20  2  0  0  0  0
 20 21  1  0  0  0  0
 21 22  2  0  0  0  0
 22 23  1  0  0  0  0
 23 24  2  0  0  0  0
 24 25  1  0  0  0  0
 25 26  2  0  0  0  0
 26 27  1  0  0  0  0
 27 28  2  0  0  0  0
 28 29  1  0  0  0  0
 29 30  2  0  0  0  0
 30 31  1  0  0  0  0
 31 32  2  0  0  0  0
 32 33  1  0  0  0  0
 24 34  1  0  0  0  0
 34 35  2  0  0  0  0
 20 36  1  0  0  0  0
 16 37  1  0  0  0  0
 37 38  2  0  0  0  0
 12  3  1  0  0  0  0
 38 13  1  0  0  0  0
 12  7  1  0  0  0  0
 36 17  1  0  0  0  0
 35 21  1  0  0  0  0
 33 25  1  0  0  0  0
 32 27  1  0  0  0  0
  1 39  1  0  0  0  0
  2 40  1  0  0  0  0
  4 41  1  0  0  0  0
  5 42  1  0  0  0  0
  6 43  1  0  0  0  0
  8 44  1  0  0  0  0
  9 45  1  0  0  0  0
 10 46  1  0  0  0  0
 11 47  1  0  0  0  0
 14 48  1  0  0  0  0
 15 49  1  0  0  0  0
 22 50  1  0  0  0  0
 23 51  1  0  0  0  0
 26 52  1  0  0  0  0
 28 53  1  0  0  0  0
 29 54  1  0  0  0  0
 30 55  1  0  0  0  0
 31 56  1  0  0  0  0
 34 57  1  0  0  0  0
 35 58  1  0  0  0  0
 37 59  1  0  0  0  0
 38 60  1  0  0  0  0
M  END
