
  xtb     03012221303D
 energy: -15.028139411586 gnorm: 0.000300786265 xtb: 6.4.1 (afa7bdf)
 82 86  0     0  0            999 V2000
   -6.7797   -1.0609   -2.3663 C   0  0  0  0  0  0  0  0  0  0  0  0
   -6.4035   -1.0788   -1.0097 O   0  0  0  0  0  0  0  0  0  0  0  0
   -6.4966    0.2044   -0.4007 C   0  0  0  0  0  0  0  0  0  0  0  0
   -5.9247    0.2054    1.0109 C   0  0  0  0  0  0  0  0  0  0  0  0
   -4.4688   -0.1136    1.0112 C   0  0  0  0  0  0  0  0  0  0  0  0
   -3.9244   -1.3629    1.0219 C   0  0  0  0  0  0  0  0  0  0  0  0
   -2.5194   -1.1857    0.9377 C   0  0  0  0  0  0  0  0  0  0  0  0
   -2.2242    0.1190    0.8646 N   0  0  0  0  0  0  0  0  0  0  0  0
   -3.3683    0.8084    0.8958 C   0  0  0  0  0  0  0  0  0  0  0  0
   -3.4941    2.2318    0.8139 C   0  0  0  0  0  0  0  0  0  0  0  0
   -2.5365    3.1997    0.7053 C   0  0  0  0  0  0  0  0  0  0  0  0
   -1.1121    3.0982    0.6367 C   0  0  0  0  0  0  0  0  0  0  0  0
   -0.3478    1.9597    0.6525 N   0  0  0  0  0  0  0  0  0  0  0  0
    0.9797    2.2483    0.5446 C   0  0  0  0  0  0  0  0  0  0  0  0
    1.0854    3.6413    0.4567 C   0  0  0  0  0  0  0  0  0  0  0  0
   -0.1942    4.1726    0.5209 C   0  0  0  0  0  0  0  0  0  0  0  0
   -0.5387    5.6206    0.4112 C   0  0  0  0  0  0  0  0  0  0  0  0
   -0.9511    6.0147   -0.9991 C   0  0  0  0  0  0  0  0  0  0  0  0
   -1.2144    7.4023   -1.1523 O   0  0  0  0  0  0  0  0  0  0  0  0
   -2.3550    7.8333   -0.4510 C   0  0  0  0  0  0  0  0  0  0  0  0
    2.0050    1.2357    0.5179 C   0  0  0  0  0  0  0  0  0  0  0  0
    1.7255   -0.0679    0.6000 N   0  0  0  0  0  0  0  0  0  0  0  0
    2.8814   -0.7457    0.5290 C   0  0  0  0  0  0  0  0  0  0  0  0
    3.0359   -2.1893    0.5475 C   0  0  0  0  0  0  0  0  0  0  0  0
    4.3346   -2.6025    0.4194 O   0  0  0  0  0  0  0  0  0  0  0  0
    4.5552   -3.9955    0.3878 C   0  0  0  0  0  0  0  0  0  0  0  0
    1.9820   -3.1384    0.6799 C   0  0  0  0  0  0  0  0  0  0  0  0
    0.6059   -3.0177    0.8094 C   0  0  0  0  0  0  0  0  0  0  0  0
   -0.1789   -1.8774    0.8068 N   0  0  0  0  0  0  0  0  0  0  0  0
   -1.4955   -2.1809    0.9166 C   0  0  0  0  0  0  0  0  0  0  0  0
   -1.5895   -3.5943    1.0060 C   0  0  0  0  0  0  0  0  0  0  0  0
   -0.3244   -4.1144    0.9552 C   0  0  0  0  0  0  0  0  0  0  0  0
    0.0126   -5.5666    1.0348 C   0  0  0  0  0  0  0  0  0  0  0  0
    0.4147   -6.1564   -0.3127 C   0  0  0  0  0  0  0  0  0  0  0  0
    1.6754   -5.6756   -0.7636 O   0  0  0  0  0  0  0  0  0  0  0  0
    1.9546   -6.0669   -2.0866 C   0  0  0  0  0  0  0  0  0  0  0  0
    3.9637    0.1877    0.4040 C   0  0  0  0  0  0  0  0  0  0  0  0
    5.4149   -0.1232    0.2530 C   0  0  0  0  0  0  0  0  0  0  0  0
    6.3244    1.0525    0.5931 C   0  0  0  0  0  0  0  0  0  0  0  0
    6.0797    2.2169   -0.1817 O   0  0  0  0  0  0  0  0  0  0  0  0
    6.3089    2.0294   -1.5564 C   0  0  0  0  0  0  0  0  0  0  0  0
    3.3969    1.4289    0.3882 C   0  0  0  0  0  0  0  0  0  0  0  0
   -6.7129   -2.0751   -2.7617 H   0  0  0  0  0  0  0  0  0  0  0  0
   -7.8057   -0.7042   -2.4638 H   0  0  0  0  0  0  0  0  0  0  0  0
   -6.1061   -0.4130   -2.9288 H   0  0  0  0  0  0  0  0  0  0  0  0
   -5.9507    0.9163   -1.0304 H   0  0  0  0  0  0  0  0  0  0  0  0
   -7.5521    0.5020   -0.4075 H   0  0  0  0  0  0  0  0  0  0  0  0
   -6.4515   -0.5411    1.6129 H   0  0  0  0  0  0  0  0  0  0  0  0
   -6.0948    1.1676    1.5046 H   0  0  0  0  0  0  0  0  0  0  0  0
   -4.4588   -2.2959    1.0607 H   0  0  0  0  0  0  0  0  0  0  0  0
   -4.5128    2.5804    0.8401 H   0  0  0  0  0  0  0  0  0  0  0  0
   -2.8992    4.2144    0.6607 H   0  0  0  0  0  0  0  0  0  0  0  0
   -0.7403    1.0267    0.7217 H   0  0  0  0  0  0  0  0  0  0  0  0
    1.9981    4.2003    0.3482 H   0  0  0  0  0  0  0  0  0  0  0  0
   -1.3347    5.8571    1.1228 H   0  0  0  0  0  0  0  0  0  0  0  0
    0.3194    6.2258    0.7204 H   0  0  0  0  0  0  0  0  0  0  0  0
   -1.8358    5.4567   -1.3254 H   0  0  0  0  0  0  0  0  0  0  0  0
   -0.1531    5.7664   -1.7084 H   0  0  0  0  0  0  0  0  0  0  0  0
   -2.1686    7.8079    0.6226 H   0  0  0  0  0  0  0  0  0  0  0  0
   -2.5760    8.8599   -0.7450 H   0  0  0  0  0  0  0  0  0  0  0  0
   -3.2094    7.2013   -0.6961 H   0  0  0  0  0  0  0  0  0  0  0  0
    4.0210   -4.4388   -0.4538 H   0  0  0  0  0  0  0  0  0  0  0  0
    5.6230   -4.1717    0.2537 H   0  0  0  0  0  0  0  0  0  0  0  0
    4.2440   -4.4469    1.3309 H   0  0  0  0  0  0  0  0  0  0  0  0
    2.2994   -4.1626    0.6514 H   0  0  0  0  0  0  0  0  0  0  0  0
    0.2064   -0.9427    0.7231 H   0  0  0  0  0  0  0  0  0  0  0  0
   -2.4999   -4.1576    1.1091 H   0  0  0  0  0  0  0  0  0  0  0  0
    0.8264   -5.7100    1.7516 H   0  0  0  0  0  0  0  0  0  0  0  0
   -0.8475   -6.1071    1.4451 H   0  0  0  0  0  0  0  0  0  0  0  0
    0.4815   -7.2501   -0.2653 H   0  0  0  0  0  0  0  0  0  0  0  0
   -0.3364   -5.9078   -1.0711 H   0  0  0  0  0  0  0  0  0  0  0  0
    1.2106   -5.6432   -2.7624 H   0  0  0  0  0  0  0  0  0  0  0  0
    2.9407   -5.6945   -2.3658 H   0  0  0  0  0  0  0  0  0  0  0  0
    1.9478   -7.1549   -2.1628 H   0  0  0  0  0  0  0  0  0  0  0  0
    5.5969   -0.4581   -0.7720 H   0  0  0  0  0  0  0  0  0  0  0  0
    5.6564   -0.9822    0.8882 H   0  0  0  0  0  0  0  0  0  0  0  0
    6.1828    1.3468    1.6396 H   0  0  0  0  0  0  0  0  0  0  0  0
    7.3837    0.7918    0.4818 H   0  0  0  0  0  0  0  0  0  0  0  0
    6.2653    2.9999   -2.0521 H   0  0  0  0  0  0  0  0  0  0  0  0
    7.2942    1.5902   -1.7173 H   0  0  0  0  0  0  0  0  0  0  0  0
    5.5386    1.3841   -1.9795 H   0  0  0  0  0  0  0  0  0  0  0  0
    3.9152    2.3656    0.2827 H   0  0  0  0  0  0  0  0  0  0  0  0
  1  2  1  0  0  0  0
  2  3  1  0  0  0  0
  3  4  1  0  0  0  0
  4  5  1  0  0  0  0
  5  6  2  0  0  0  0
  6  7  1  0  0  0  0
  7  8  2  0  0  0  0
  8  9  1  0  0  0  0
  9 10  2  0  0  0  0
 10 11  1  0  0  0  0
 11 12  2  0  0  0  0
 12 13  1  0  0  0  0
 13 14  1  0  0  0  0
 14 15  1  0  0  0  0
 15 16  2  0  0  0  0
 16 17  1  0  0  0  0
 17 18  1  0  0  0  0
 18 19  1  0  0  0  0
 19 20  1  0  0  0  0
 14 21  2  0  0  0  0
 21 22  1  0  0  0  0
 22 23  2  0  0  0  0
 23 24  1  0  0  0  0
 24 25  1  0  0  0  0
 25 26  1  0  0  0  0
 24 27  2  0  0  0  0
 27 28  1  0  0  0  0
 28 29  1  0  0  0  0
 29 30  1  0  0  0  0
 30 31  2  0  0  0  0
 31 32  1  0  0  0  0
 32 33  1  0  0  0  0
 33 34  1  0  0  0  0
 34 35  1  0  0  0  0
 35 36  1  0  0  0  0
 23 37  1  0  0  0  0
 37 38  1  0  0  0  0
 38 39  1  0  0  0  0
 39 40  1  0  0  0  0
 40 41  1  0  0  0  0
 37 42  2  0  0  0  0
  9  5  1  0  0  0  0
 16 12  1  0  0  0  0
 42 21  1  0  0  0  0
 30  7  1  0  0  0  0
 32 28  2  0  0  0  0
  1 43  1  0  0  0  0
  1 44  1  0  0  0  0
  1 45  1  0  0  0  0
  3 46  1  0  0  0  0
  3 47  1  0  0  0  0
  4 48  1  0  0  0  0
  4 49  1  0  0  0  0
  6 50  1  0  0  0  0
 10 51  1  0  0  0  0
 11 52  1  0  0  0  0
 13 53  1  0  0  0  0
 15 54  1  0  0  0  0
 17 55  1  0  0  0  0
 17 56  1  0  0  0  0
 18 57  1  0  0  0  0
 18 58  1  0  0  0  0
 20 59  1  0  0  0  0
 20 60  1  0  0  0  0
 20 61  1  0  0  0  0
 26 62  1  0  0  0  0
 26 63  1  0  0  0  0
 26 64  1  0  0  0  0
 27 65  1  0  0  0  0
 29 66  1  0  0  0  0
 31 67  1  0  0  0  0
 33 68  1  0  0  0  0
 33 69  1  0  0  0  0
 34 70  1  0  0  0  0
 34 71  1  0  0  0  0
 36 72  1  0  0  0  0
 36 73  1  0  0  0  0
 36 74  1  0  0  0  0
 38 75  1  0  0  0  0
 38 76  1  0  0  0  0
 39 77  1  0  0  0  0
 39 78  1  0  0  0  0
 41 79  1  0  0  0  0
 41 80  1  0  0  0  0
 41 81  1  0  0  0  0
 42 82  1  0  0  0  0
M  END
