
  xtb     03012221203D
 energy: -8.225861471923 gnorm: 0.000156495772 xtb: 6.4.1 (afa7bdf)
 42 45  0     0  0            999 V2000
   -6.5724   -0.0960    0.4055 C   0  0  0  0  0  0  0  0  0  0  0  0
   -5.6480    0.3915   -0.6209 N   0  0  0  0  0  0  0  0  0  0  0  0
   -6.2426    0.9920   -1.8173 C   0  0  0  0  0  0  0  0  0  0  0  0
   -4.2546    0.2899   -0.4644 C   0  0  0  0  0  0  0  0  0  0  0  0
   -3.3844    0.6297   -1.5050 C   0  0  0  0  0  0  0  0  0  0  0  0
   -2.0263    0.5319   -1.3457 C   0  0  0  0  0  0  0  0  0  0  0  0
   -1.4686    0.0978   -0.1459 C   0  0  0  0  0  0  0  0  0  0  0  0
   -0.0109    0.0230   -0.0463 C   0  0  0  0  0  0  0  0  0  0  0  0
    0.6380   -0.2621    1.1168 C   0  0  0  0  0  0  0  0  0  0  0  0
    2.0526   -0.3181    1.1850 C   0  0  0  0  0  0  0  0  0  0  0  0
    2.6955   -0.6088    2.4063 C   0  0  0  0  0  0  0  0  0  0  0  0
    4.0486   -0.6601    2.4816 C   0  0  0  0  0  0  0  0  0  0  0  0
    4.8363   -0.4233    1.3343 C   0  0  0  0  0  0  0  0  0  0  0  0
    6.2440   -0.4642    1.3641 C   0  0  0  0  0  0  0  0  0  0  0  0
    6.9698   -0.2300    0.2332 C   0  0  0  0  0  0  0  0  0  0  0  0
    6.3238    0.0537   -0.9721 C   0  0  0  0  0  0  0  0  0  0  0  0
    4.9629    0.0998   -1.0287 C   0  0  0  0  0  0  0  0  0  0  0  0
    4.1826   -0.1351    0.1158 C   0  0  0  0  0  0  0  0  0  0  0  0
    2.8043   -0.0916    0.0865 N   0  0  0  0  0  4  0  0  0  0  0  0
    2.1600    0.2343   -1.2705 B   0  0  0  0  0  4  0  0  0  0  0  0
    2.6335    1.4830   -1.6644 F   0  0  0  0  0  0  0  0  0  0  0  0
    2.5638   -0.7509   -2.1674 F   0  0  0  0  0  0  0  0  0  0  0  0
    0.6909    0.2637   -1.1907 O   0  0  0  0  0  0  0  0  0  0  0  0
   -2.3332   -0.2475    0.8946 C   0  0  0  0  0  0  0  0  0  0  0  0
   -3.6926   -0.1540    0.7374 C   0  0  0  0  0  0  0  0  0  0  0  0
   -7.5977   -0.0837    0.0444 H   0  0  0  0  0  0  0  0  0  0  0  0
   -6.3233   -1.1195    0.6752 H   0  0  0  0  0  0  0  0  0  0  0  0
   -6.5106    0.5326    1.2906 H   0  0  0  0  0  0  0  0  0  0  0  0
   -6.0835    0.3448   -2.6765 H   0  0  0  0  0  0  0  0  0  0  0  0
   -7.3121    1.1393   -1.6892 H   0  0  0  0  0  0  0  0  0  0  0  0
   -5.7906    1.9618   -2.0112 H   0  0  0  0  0  0  0  0  0  0  0  0
   -3.7865    0.9620   -2.4450 H   0  0  0  0  0  0  0  0  0  0  0  0
   -1.3582    0.7895   -2.1502 H   0  0  0  0  0  0  0  0  0  0  0  0
    0.0799   -0.4380    2.0152 H   0  0  0  0  0  0  0  0  0  0  0  0
    2.0951   -0.7894    3.2812 H   0  0  0  0  0  0  0  0  0  0  0  0
    4.5365   -0.8810    3.4147 H   0  0  0  0  0  0  0  0  0  0  0  0
    6.7401   -0.6830    2.2939 H   0  0  0  0  0  0  0  0  0  0  0  0
    8.0462   -0.2634    0.2667 H   0  0  0  0  0  0  0  0  0  0  0  0
    6.9055    0.2367   -1.8606 H   0  0  0  0  0  0  0  0  0  0  0  0
    4.4580    0.3175   -1.9535 H   0  0  0  0  0  0  0  0  0  0  0  0
   -1.9323   -0.5990    1.8280 H   0  0  0  0  0  0  0  0  0  0  0  0
   -4.3396   -0.4187    1.5542 H   0  0  0  0  0  0  0  0  0  0  0  0
  1  2  1  0  0  0  0
  2  3  1  0  0  0  0
  2  4  1  0  0  0  0
  4  5  2  0  0  0  0
  5  6  1  0  0  0  0
  6  7  2  0  0  0  0
  7  8  1  0  0  0  0
  8  9  2  0  0  0  0
  9 10  1  0  0  0  0
 10 11  2  0  0  0  0
 11 12  1  0  0  0  0
 12 13  2  0  0  0  0
 13 14  1  0  0  0  0
 14 15  2  0  0  0  0
 15 16  1  0  0  0  0
 16 17  2  0  0  0  0
 17 18  1  0  0  0  0
 18 19  2  0  0  0  0
 19 20  1  0  0  0  0
 20 21  1  0  0  0  0
 20 22  1  0  0  0  0
 20 23  1  0  0  0  0
  7 24  1  0  0  0  0
 24 25  2  0  0  0  0
 25  4  1  0  0  0  0
 23  8  1  0  0  0  0
 19 10  1  0  0  0  0
 18 13  1  0  0  0  0
  1 26  1  0  0  0  0
  1 27  1  0  0  0  0
  1 28  1  0  0  0  0
  3 29  1  0  0  0  0
  3 30  1  0  0  0  0
  3 31  1  0  0  0  0
  5 32  1  0  0  0  0
  6 33  1  0  0  0  0
  9 34  1  0  0  0  0
 11 35  1  0  0  0  0
 12 36  1  0  0  0  0
 14 37  1  0  0  0  0
 15 38  1  0  0  0  0
 16 39  1  0  0  0  0
 17 40  1  0  0  0  0
 24 41  1  0  0  0  0
 25 42  1  0  0  0  0
M  CHG  1  19   1
M  CHG  1  20  -1
M  END
