
  xtb     03012221293D
 energy: -12.972210468174 gnorm: 0.000179132159 xtb: 6.4.1 (afa7bdf)
 65 69  0     0  0            999 V2000
   -5.8609    5.9058    0.9061 C   0  0  0  0  0  0  0  0  0  0  0  0
   -5.1384    4.5765    0.9472 C   0  0  0  0  0  0  0  0  0  0  0  0
   -3.9580    4.5928    0.1528 O   0  0  0  0  0  0  0  0  0  0  0  0
   -3.2140    3.4018    0.1692 C   0  0  0  0  0  0  0  0  0  0  0  0
   -3.5812    2.2406    0.8540 C   0  0  0  0  0  0  0  0  0  0  0  0
   -2.7873    1.1197    0.8172 C   0  0  0  0  0  0  0  0  0  0  0  0
   -1.5961    1.1120    0.1006 C   0  0  0  0  0  0  0  0  0  0  0  0
   -0.7759   -0.0694    0.0655 N   0  0  0  0  0  0  0  0  0  0  0  0
   -1.4140   -1.3427   -0.1375 C   0  0  0  0  0  0  0  0  0  0  0  0
   -1.0800   -2.4423    0.6438 C   0  0  0  0  0  0  0  0  0  0  0  0
   -1.6996   -3.6519    0.4465 C   0  0  0  0  0  0  0  0  0  0  0  0
   -2.6817   -3.8137   -0.5336 C   0  0  0  0  0  0  0  0  0  0  0  0
   -3.2558   -5.0898   -0.6606 O   0  0  0  0  0  0  0  0  0  0  0  0
   -4.4149   -5.1710   -1.4845 C   0  0  0  0  0  0  0  0  0  0  0  0
   -5.6347   -4.5314   -0.8549 C   0  0  0  0  0  0  0  0  0  0  0  0
   -3.0107   -2.7023   -1.3137 C   0  0  0  0  0  0  0  0  0  0  0  0
   -2.3905   -1.4922   -1.1153 C   0  0  0  0  0  0  0  0  0  0  0  0
    0.6393    0.0178    0.2300 C   0  0  0  0  0  0  0  0  0  0  0  0
    1.4790   -0.9664   -0.2836 C   0  0  0  0  0  0  0  0  0  0  0  0
    2.8400   -0.8796   -0.1174 C   0  0  0  0  0  0  0  0  0  0  0  0
    3.4114    0.1802    0.5651 C   0  0  0  0  0  0  0  0  0  0  0  0
    4.8954    0.3013    0.7101 C   0  0  0  0  0  0  0  0  0  0  0  0
    5.5886   -1.0047    0.6079 N   0  0  0  0  0  0  0  0  0  0  0  0
    6.3040   -1.5746    1.6452 C   0  0  0  0  0  0  0  0  0  0  0  0
    6.7723   -2.7451    1.1372 C   0  0  0  0  0  0  0  0  0  0  0  0
    6.3068   -2.8088   -0.1888 C   0  0  0  0  0  0  0  0  0  0  0  0
    5.5933   -1.7497   -0.4945 N   0  0  0  0  0  0  0  0  0  0  0  0
    5.4350    1.2632   -0.2714 N   0  0  0  0  0  0  0  0  0  0  0  0
    5.9774    0.9178   -1.4915 C   0  0  0  0  0  0  0  0  0  0  0  0
    6.2673    2.1039   -2.0879 C   0  0  0  0  0  0  0  0  0  0  0  0
    5.8682    3.1029   -1.1800 C   0  0  0  0  0  0  0  0  0  0  0  0
    5.3614    2.5801   -0.0870 N   0  0  0  0  0  0  0  0  0  0  0  0
    2.5798    1.1707    1.0620 C   0  0  0  0  0  0  0  0  0  0  0  0
    1.2161    1.0903    0.9050 C   0  0  0  0  0  0  0  0  0  0  0  0
   -1.2271    2.2598   -0.5907 C   0  0  0  0  0  0  0  0  0  0  0  0
   -2.0199    3.3807   -0.5550 C   0  0  0  0  0  0  0  0  0  0  0  0
   -6.1414    6.1593   -0.1165 H   0  0  0  0  0  0  0  0  0  0  0  0
   -6.7674    5.9025    1.5143 H   0  0  0  0  0  0  0  0  0  0  0  0
   -5.2145    6.7057    1.2682 H   0  0  0  0  0  0  0  0  0  0  0  0
   -5.7816    3.7708    0.5731 H   0  0  0  0  0  0  0  0  0  0  0  0
   -4.8466    4.3225    1.9736 H   0  0  0  0  0  0  0  0  0  0  0  0
   -4.4965    2.2188    1.4179 H   0  0  0  0  0  0  0  0  0  0  0  0
   -3.0746    0.2298    1.3487 H   0  0  0  0  0  0  0  0  0  0  0  0
   -0.3336   -2.3284    1.4098 H   0  0  0  0  0  0  0  0  0  0  0  0
   -1.4406   -4.5047    1.0497 H   0  0  0  0  0  0  0  0  0  0  0  0
   -4.5877   -6.2408   -1.6580 H   0  0  0  0  0  0  0  0  0  0  0  0
   -4.1758   -4.7477   -2.4666 H   0  0  0  0  0  0  0  0  0  0  0  0
   -6.5185   -4.6203   -1.4893 H   0  0  0  0  0  0  0  0  0  0  0  0
   -5.8609   -4.9999    0.1033 H   0  0  0  0  0  0  0  0  0  0  0  0
   -5.4703   -3.4722   -0.6581 H   0  0  0  0  0  0  0  0  0  0  0  0
   -3.7520   -2.7908   -2.0871 H   0  0  0  0  0  0  0  0  0  0  0  0
   -2.6470   -0.6414   -1.7214 H   0  0  0  0  0  0  0  0  0  0  0  0
    1.0495   -1.7898   -0.8256 H   0  0  0  0  0  0  0  0  0  0  0  0
    3.4825   -1.6398   -0.5243 H   0  0  0  0  0  0  0  0  0  0  0  0
    5.1209    0.7092    1.7010 H   0  0  0  0  0  0  0  0  0  0  0  0
    6.4472   -1.1659    2.6312 H   0  0  0  0  0  0  0  0  0  0  0  0
    7.3793   -3.4766    1.6477 H   0  0  0  0  0  0  0  0  0  0  0  0
    6.4983   -3.6140   -0.8843 H   0  0  0  0  0  0  0  0  0  0  0  0
    6.1268   -0.0820   -1.8580 H   0  0  0  0  0  0  0  0  0  0  0  0
    6.7088    2.2497   -3.0616 H   0  0  0  0  0  0  0  0  0  0  0  0
    5.9528    4.1687   -1.3409 H   0  0  0  0  0  0  0  0  0  0  0  0
    3.0186    2.0160    1.5666 H   0  0  0  0  0  0  0  0  0  0  0  0
    0.5787    1.8553    1.3105 H   0  0  0  0  0  0  0  0  0  0  0  0
   -0.3145    2.2532   -1.1599 H   0  0  0  0  0  0  0  0  0  0  0  0
   -1.7344    4.2710   -1.0881 H   0  0  0  0  0  0  0  0  0  0  0  0
  1  2  1  0  0  0  0
  2  3  1  0  0  0  0
  3  4  1  0  0  0  0
  4  5  2  0  0  0  0
  5  6  1  0  0  0  0
  6  7  2  0  0  0  0
  7  8  1  0  0  0  0
  8  9  1  0  0  0  0
  9 10  2  0  0  0  0
 10 11  1  0  0  0  0
 11 12  2  0  0  0  0
 12 13  1  0  0  0  0
 13 14  1  0  0  0  0
 14 15  1  0  0  0  0
 12 16  1  0  0  0  0
 16 17  2  0  0  0  0
  8 18  1  0  0  0  0
 18 19  2  0  0  0  0
 19 20  1  0  0  0  0
 20 21  2  0  0  0  0
 21 22  1  0  0  0  0
 22 23  1  0  0  0  0
 23 24  1  0  0  0  0
 24 25  2  0  0  0  0
 25 26  1  0  0  0  0
 26 27  2  0  0  0  0
 22 28  1  0  0  0  0
 28 29  1  0  0  0  0
 29 30  2  0  0  0  0
 30 31  1  0  0  0  0
 31 32  2  0  0  0  0
 21 33  1  0  0  0  0
 33 34  2  0  0  0  0
  7 35  1  0  0  0  0
 35 36  2  0  0  0  0
 36  4  1  0  0  0  0
 17  9  1  0  0  0  0
 34 18  1  0  0  0  0
 27 23  1  0  0  0  0
 32 28  1  0  0  0  0
  1 37  1  0  0  0  0
  1 38  1  0  0  0  0
  1 39  1  0  0  0  0
  2 40  1  0  0  0  0
  2 41  1  0  0  0  0
  5 42  1  0  0  0  0
  6 43  1  0  0  0  0
 10 44  1  0  0  0  0
 11 45  1  0  0  0  0
 14 46  1  0  0  0  0
 14 47  1  0  0  0  0
 15 48  1  0  0  0  0
 15 49  1  0  0  0  0
 15 50  1  0  0  0  0
 16 51  1  0  0  0  0
 17 52  1  0  0  0  0
 19 53  1  0  0  0  0
 20 54  1  0  0  0  0
 22 55  1  0  0  0  0
 24 56  1  0  0  0  0
 25 57  1  0  0  0  0
 26 58  1  0  0  0  0
 29 59  1  0  0  0  0
 30 60  1  0  0  0  0
 31 61  1  0  0  0  0
 33 62  1  0  0  0  0
 34 63  1  0  0  0  0
 35 64  1  0  0  0  0
 36 65  1  0  0  0  0
M  END
