
  xtb     03012221223D
 energy: -13.063469704374 gnorm: 0.000203943619 xtb: 6.4.1 (afa7bdf)
 59 65  0     0  0            999 V2000
   -5.1588   -5.8659    2.5780 C   0  0  0  0  0  0  0  0  0  0  0  0
   -3.9997   -5.1164    2.6077 C   0  0  0  0  0  0  0  0  0  0  0  0
   -3.8402   -4.0685    1.7326 C   0  0  0  0  0  0  0  0  0  0  0  0
   -4.8310   -3.7452    0.8093 C   0  0  0  0  0  0  0  0  0  0  0  0
   -4.6820   -2.6801   -0.0923 N   0  0  0  0  0  0  0  0  0  0  0  0
   -3.6090   -1.7830   -0.2397 C   0  0  0  0  0  0  0  0  0  0  0  0
   -3.7454   -0.8773   -1.1957 N   0  0  0  0  0  0  0  0  0  0  0  0
   -2.7344   -0.0308   -1.3025 C   0  0  0  0  0  0  0  0  0  0  0  0
   -2.8547    0.9571   -2.2969 N   0  0  0  0  0  0  0  0  0  0  0  0
   -2.0618    2.1009   -2.4894 C   0  0  0  0  0  0  0  0  0  0  0  0
   -2.1910    2.8572   -3.6539 C   0  0  0  0  0  0  0  0  0  0  0  0
   -1.4300    3.9880   -3.8436 C   0  0  0  0  0  0  0  0  0  0  0  0
   -0.5327    4.3913   -2.8741 C   0  0  0  0  0  0  0  0  0  0  0  0
   -0.3999    3.6622   -1.7095 C   0  0  0  0  0  0  0  0  0  0  0  0
   -1.1571    2.5305   -1.5217 C   0  0  0  0  0  0  0  0  0  0  0  0
   -1.6360   -0.0612   -0.5703 N   0  0  0  0  0  0  0  0  0  0  0  0
   -1.5968   -1.0214    0.3359 C   0  0  0  0  0  0  0  0  0  0  0  0
   -0.4540   -1.1383    1.1481 N   0  0  0  0  0  0  0  0  0  0  0  0
    0.7865   -0.4986    0.9957 C   0  0  0  0  0  0  0  0  0  0  0  0
    1.7603   -0.6185    1.9859 C   0  0  0  0  0  0  0  0  0  0  0  0
    3.0031   -0.0018    1.8602 C   0  0  0  0  0  0  0  0  0  0  0  0
    4.0115   -0.1018    2.8662 C   0  0  0  0  0  0  0  0  0  0  0  0
    5.2102    0.5096    2.7248 C   0  0  0  0  0  0  0  0  0  0  0  0
    5.5151    1.2796    1.5612 C   0  0  0  0  0  0  0  0  0  0  0  0
    6.7442    1.9219    1.3882 C   0  0  0  0  0  0  0  0  0  0  0  0
    7.0006    2.6562    0.2482 C   0  0  0  0  0  0  0  0  0  0  0  0
    6.0529    2.7753   -0.7478 C   0  0  0  0  0  0  0  0  0  0  0  0
    4.8073    2.1536   -0.6253 C   0  0  0  0  0  0  0  0  0  0  0  0
    3.7996    2.2532   -1.6330 C   0  0  0  0  0  0  0  0  0  0  0  0
    2.6023    1.6408   -1.4875 C   0  0  0  0  0  0  0  0  0  0  0  0
    2.3009    0.8739   -0.3226 C   0  0  0  0  0  0  0  0  0  0  0  0
    1.0767    0.2414   -0.1463 C   0  0  0  0  0  0  0  0  0  0  0  0
    3.2790    0.7556    0.6942 C   0  0  0  0  0  0  0  0  0  0  0  0
    4.5367    1.3976    0.5429 C   0  0  0  0  0  0  0  0  0  0  0  0
   -2.5624   -1.8968    0.5595 N   0  0  0  0  0  0  0  0  0  0  0  0
   -5.9948   -4.5138    0.7942 C   0  0  0  0  0  0  0  0  0  0  0  0
   -6.1548   -5.5626    1.6707 C   0  0  0  0  0  0  0  0  0  0  0  0
   -5.2865   -6.6887    3.2639 H   0  0  0  0  0  0  0  0  0  0  0  0
   -3.2224   -5.3523    3.3148 H   0  0  0  0  0  0  0  0  0  0  0  0
   -2.9430   -3.4802    1.7481 H   0  0  0  0  0  0  0  0  0  0  0  0
   -5.4451   -2.5165   -0.7454 H   0  0  0  0  0  0  0  0  0  0  0  0
   -3.6552    0.8315   -2.9121 H   0  0  0  0  0  0  0  0  0  0  0  0
   -2.8915    2.5393   -4.4064 H   0  0  0  0  0  0  0  0  0  0  0  0
   -1.5355    4.5608   -4.7495 H   0  0  0  0  0  0  0  0  0  0  0  0
    0.0621    5.2786   -3.0253 H   0  0  0  0  0  0  0  0  0  0  0  0
    0.2961    3.9777   -0.9505 H   0  0  0  0  0  0  0  0  0  0  0  0
   -1.0733    1.9643   -0.6134 H   0  0  0  0  0  0  0  0  0  0  0  0
   -0.5431   -1.8150    1.9022 H   0  0  0  0  0  0  0  0  0  0  0  0
    1.5424   -1.1933    2.8670 H   0  0  0  0  0  0  0  0  0  0  0  0
    3.7983   -0.6783    3.7510 H   0  0  0  0  0  0  0  0  0  0  0  0
    5.9565    0.4232    3.4945 H   0  0  0  0  0  0  0  0  0  0  0  0
    7.4914    1.8368    2.1574 H   0  0  0  0  0  0  0  0  0  0  0  0
    7.9557    3.1440    0.1341 H   0  0  0  0  0  0  0  0  0  0  0  0
    6.2655    3.3503   -1.6318 H   0  0  0  0  0  0  0  0  0  0  0  0
    4.0099    2.8288   -2.5168 H   0  0  0  0  0  0  0  0  0  0  0  0
    1.8504    1.7278   -2.2543 H   0  0  0  0  0  0  0  0  0  0  0  0
    0.3340    0.3195   -0.9140 H   0  0  0  0  0  0  0  0  0  0  0  0
   -6.7687   -4.2743    0.0858 H   0  0  0  0  0  0  0  0  0  0  0  0
   -7.0586   -6.1479    1.6492 H   0  0  0  0  0  0  0  0  0  0  0  0
  1  2  2  0  0  0  0
  2  3  1  0  0  0  0
  3  4  2  0  0  0  0
  4  5  1  0  0  0  0
  5  6  1  0  0  0  0
  6  7  2  0  0  0  0
  7  8  1  0  0  0  0
  8  9  1  0  0  0  0
  9 10  1  0  0  0  0
 10 11  2  0  0  0  0
 11 12  1  0  0  0  0
 12 13  2  0  0  0  0
 13 14  1  0  0  0  0
 14 15  2  0  0  0  0
  8 16  2  0  0  0  0
 16 17  1  0  0  0  0
 17 18  1  0  0  0  0
 18 19  1  0  0  0  0
 19 20  2  0  0  0  0
 20 21  1  0  0  0  0
 21 22  2  0  0  0  0
 22 23  1  0  0  0  0
 23 24  2  0  0  0  0
 24 25  1  0  0  0  0
 25 26  2  0  0  0  0
 26 27  1  0  0  0  0
 27 28  2  0  0  0  0
 28 29  1  0  0  0  0
 29 30  2  0  0  0  0
 30 31  1  0  0  0  0
 31 32  2  0  0  0  0
 31 33  1  0  0  0  0
 33 34  2  0  0  0  0
 17 35  2  0  0  0  0
  4 36  1  0  0  0  0
 36 37  2  0  0  0  0
 37  1  1  0  0  0  0
 35  6  1  0  0  0  0
 15 10  1  0  0  0  0
 32 19  1  0  0  0  0
 33 21  1  0  0  0  0
 34 24  1  0  0  0  0
 34 28  1  0  0  0  0
  1 38  1  0  0  0  0
  2 39  1  0  0  0  0
  3 40  1  0  0  0  0
  5 41  1  0  0  0  0
  9 42  1  0  0  0  0
 11 43  1  0  0  0  0
 12 44  1  0  0  0  0
 13 45  1  0  0  0  0
 14 46  1  0  0  0  0
 15 47  1  0  0  0  0
 18 48  1  0  0  0  0
 20 49  1  0  0  0  0
 22 50  1  0  0  0  0
 23 51  1  0  0  0  0
 25 52  1  0  0  0  0
 26 53  1  0  0  0  0
 27 54  1  0  0  0  0
 29 55  1  0  0  0  0
 30 56  1  0  0  0  0
 32 57  1  0  0  0  0
 36 58  1  0  0  0  0
 37 59  1  0  0  0  0
M  END
