
  xtb     03012221303D
 energy: -7.679246324501 gnorm: 0.000210284556 xtb: 6.4.1 (afa7bdf)
 36 39  0     0  0            999 V2000
   -4.3883   -1.6419    0.3916 C   0  0  0  0  0  0  0  0  0  0  0  0
   -3.6156   -2.3795   -0.4833 C   0  0  0  0  0  0  0  0  0  0  0  0
   -2.2783   -2.0879   -0.6364 C   0  0  0  0  0  0  0  0  0  0  0  0
   -1.6908   -1.0453    0.0752 C   0  0  0  0  0  0  0  0  0  0  0  0
   -0.2576   -0.7704   -0.0927 C   0  0  0  0  0  0  0  0  0  0  0  0
    0.6416   -1.7312   -0.3887 N   0  0  0  0  0  0  0  0  0  0  0  0
    1.8353   -1.1481   -0.4031 C   0  0  0  0  0  0  0  0  0  0  0  0
    3.0764   -1.8364   -0.6824 C   0  0  0  0  0  0  0  0  0  0  0  0
    4.3194   -1.2738   -0.7052 C   0  0  0  0  0  0  0  0  0  0  0  0
    5.3555   -2.1983   -1.0090 C   0  0  0  0  0  0  0  0  0  0  0  0
    4.9088   -3.4562   -1.2167 C   0  0  0  0  0  0  0  0  0  0  0  0
    3.1897   -3.5385   -1.0441 S   0  0  0  0  0  0  0  0  0  0  0  0
    1.7316    0.2011   -0.1219 N   0  0  0  0  0  0  0  0  0  0  0  0
    0.4066    0.4683    0.0615 C   0  0  0  0  0  0  0  0  0  0  0  0
   -0.1551    1.8029    0.2902 C   0  0  0  0  0  0  0  0  0  0  0  0
   -1.3370    2.2093   -0.3297 C   0  0  0  0  0  0  0  0  0  0  0  0
   -1.8433    3.4721   -0.1191 C   0  0  0  0  0  0  0  0  0  0  0  0
   -1.1776    4.3560    0.7067 C   0  0  0  0  0  0  0  0  0  0  0  0
    0.0003    3.9748    1.3184 C   0  0  0  0  0  0  0  0  0  0  0  0
    0.5104    2.7127    1.1098 C   0  0  0  0  0  0  0  0  0  0  0  0
   -2.4816   -0.3212    0.9660 C   0  0  0  0  0  0  0  0  0  0  0  0
   -3.8181   -0.6154    1.1180 C   0  0  0  0  0  0  0  0  0  0  0  0
   -5.4344   -1.8712    0.5121 H   0  0  0  0  0  0  0  0  0  0  0  0
   -4.0583   -3.1857   -1.0447 H   0  0  0  0  0  0  0  0  0  0  0  0
   -1.6654   -2.6635   -1.3082 H   0  0  0  0  0  0  0  0  0  0  0  0
    4.4963   -0.2280   -0.5098 H   0  0  0  0  0  0  0  0  0  0  0  0
    6.3975   -1.9190   -1.0653 H   0  0  0  0  0  0  0  0  0  0  0  0
    5.5230   -4.3038   -1.4565 H   0  0  0  0  0  0  0  0  0  0  0  0
    2.4913    0.8833   -0.1173 H   0  0  0  0  0  0  0  0  0  0  0  0
   -1.8461    1.5225   -0.9834 H   0  0  0  0  0  0  0  0  0  0  0  0
   -2.7591    3.7717   -0.6015 H   0  0  0  0  0  0  0  0  0  0  0  0
   -1.5751    5.3442    0.8709 H   0  0  0  0  0  0  0  0  0  0  0  0
    0.5217    4.6664    1.9596 H   0  0  0  0  0  0  0  0  0  0  0  0
    1.4270    2.4104    1.5857 H   0  0  0  0  0  0  0  0  0  0  0  0
   -2.0318    0.4659    1.5451 H   0  0  0  0  0  0  0  0  0  0  0  0
   -4.4189   -0.0458    1.8079 H   0  0  0  0  0  0  0  0  0  0  0  0
  1  2  2  0  0  0  0
  2  3  1  0  0  0  0
  3  4  2  0  0  0  0
  4  5  1  0  0  0  0
  5  6  1  0  0  0  0
  6  7  2  0  0  0  0
  7  8  1  0  0  0  0
  8  9  2  0  0  0  0
  9 10  1  0  0  0  0
 10 11  2  0  0  0  0
 11 12  1  0  0  0  0
  7 13  1  0  0  0  0
 13 14  1  0  0  0  0
 14 15  1  0  0  0  0
 15 16  2  0  0  0  0
 16 17  1  0  0  0  0
 17 18  2  0  0  0  0
 18 19  1  0  0  0  0
 19 20  2  0  0  0  0
  4 21  1  0  0  0  0
 21 22  2  0  0  0  0
 22  1  1  0  0  0  0
 14  5  2  0  0  0  0
 20 15  1  0  0  0  0
 12  8  1  0  0  0  0
  1 23  1  0  0  0  0
  2 24  1  0  0  0  0
  3 25  1  0  0  0  0
  9 26  1  0  0  0  0
 10 27  1  0  0  0  0
 11 28  1  0  0  0  0
 13 29  1  0  0  0  0
 16 30  1  0  0  0  0
 17 31  1  0  0  0  0
 18 32  1  0  0  0  0
 19 33  1  0  0  0  0
 20 34  1  0  0  0  0
 21 35  1  0  0  0  0
 22 36  1  0  0  0  0
M  END
