
  xtb     03012221323D
 energy: -5.870923846135 gnorm: 0.000491617484 xtb: 6.4.1 (afa7bdf)
 29 31  0     0  0            999 V2000
    1.1230    1.7043   -1.4825 C   0  0  0  0  0  0  0  0  0  0  0  0
    0.0812    0.8605   -0.8683 C   0  0  0  0  0  0  0  0  0  0  0  0
   -0.1367   -0.4816   -1.1495 C   0  0  0  0  0  0  0  0  0  0  0  0
    0.5632   -1.2554   -2.0605 N   0  0  0  0  0  0  0  0  0  0  0  0
    1.7934   -1.4543   -2.0306 N   0  0  0  0  0  0  0  0  0  0  0  0
    2.5973   -1.1255   -0.9771 C   0  0  0  0  0  0  0  0  0  0  0  0
    2.1792   -0.8022    0.2172 N   0  0  0  0  0  0  0  0  0  0  0  0
    3.1584   -0.5000    1.0733 N   0  0  0  0  0  0  0  0  0  0  0  0
    4.3450   -0.5982    0.5774 C   0  0  0  0  0  0  0  0  0  0  0  0
    4.3362   -1.0877   -1.0716 S   0  0  0  0  0  0  0  0  0  0  0  0
   -1.2041   -0.9287   -0.3130 C   0  0  0  0  0  0  0  0  0  0  0  0
   -1.8234   -2.1756   -0.1683 C   0  0  0  0  0  0  0  0  0  0  0  0
   -2.8308   -2.3010    0.7500 C   0  0  0  0  0  0  0  0  0  0  0  0
   -3.2360   -1.2097    1.5320 C   0  0  0  0  0  0  0  0  0  0  0  0
   -2.6362    0.0154    1.4046 C   0  0  0  0  0  0  0  0  0  0  0  0
   -1.6036    0.1628    0.4718 C   0  0  0  0  0  0  0  0  0  0  0  0
   -0.7969    1.2491    0.1228 N   0  0  0  0  0  0  0  0  0  0  0  0
   -0.8730    2.5714    0.7325 C   0  0  0  0  0  0  0  0  0  0  0  0
    0.7406    2.7005   -1.7034 H   0  0  0  0  0  0  0  0  0  0  0  0
    1.4755    1.2615   -2.4144 H   0  0  0  0  0  0  0  0  0  0  0  0
    1.9782    1.8026   -0.8137 H   0  0  0  0  0  0  0  0  0  0  0  0
    5.2342   -0.3967    1.1438 H   0  0  0  0  0  0  0  0  0  0  0  0
   -1.4964   -3.0051   -0.7697 H   0  0  0  0  0  0  0  0  0  0  0  0
   -3.3193   -3.2532    0.8772 H   0  0  0  0  0  0  0  0  0  0  0  0
   -4.0316   -1.3397    2.2469 H   0  0  0  0  0  0  0  0  0  0  0  0
   -2.9435    0.8545    2.0028 H   0  0  0  0  0  0  0  0  0  0  0  0
    0.1120    3.0336    0.7505 H   0  0  0  0  0  0  0  0  0  0  0  0
   -1.5517    3.2040    0.1638 H   0  0  0  0  0  0  0  0  0  0  0  0
   -1.2341    2.4943    1.7559 H   0  0  0  0  0  0  0  0  0  0  0  0
  1  2  1  0  0  0  0
  2  3  2  0  0  0  0
  3  4  1  0  0  0  0
  4  5  2  0  0  0  0
  5  6  1  0  0  0  0
  6  7  2  0  0  0  0
  7  8  1  0  0  0  0
  8  9  2  0  0  0  0
  9 10  1  0  0  0  0
  3 11  1  0  0  0  0
 11 12  2  0  0  0  0
 12 13  1  0  0  0  0
 13 14  2  0  0  0  0
 14 15  1  0  0  0  0
 15 16  2  0  0  0  0
 16 17  1  0  0  0  0
 17 18  1  0  0  0  0
 17  2  1  0  0  0  0
 10  6  1  0  0  0  0
 16 11  1  0  0  0  0
  1 19  1  0  0  0  0
  1 20  1  0  0  0  0
  1 21  1  0  0  0  0
  9 22  1  0  0  0  0
 12 23  1  0  0  0  0
 13 24  1  0  0  0  0
 14 25  1  0  0  0  0
 15 26  1  0  0  0  0
 18 27  1  0  0  0  0
 18 28  1  0  0  0  0
 18 29  1  0  0  0  0
M  END
