
  xtb     03012221213D
 energy: -11.224253288777 gnorm: 0.000515145504 xtb: 6.4.1 (afa7bdf)
 52 58  0     0  0            999 V2000
    4.7690    4.8038   -0.2392 F   0  0  0  0  0  0  0  0  0  0  0  0
    4.2148    3.5736   -0.1878 C   0  0  0  0  0  0  0  0  0  0  0  0
    3.0187    3.3703    0.4788 C   0  0  0  0  0  0  0  0  0  0  0  0
    2.4668    2.1165    0.5459 C   0  0  0  0  0  0  0  0  0  0  0  0
    3.0906    1.0148   -0.0458 C   0  0  0  0  0  0  0  0  0  0  0  0
    2.5080   -0.3117    0.0400 C   0  0  0  0  0  0  0  0  0  0  0  0
    1.1879   -0.6277    0.1397 N   0  0  0  0  0  4  0  0  0  0  0  0
    0.9368   -1.9799    0.1331 C   0  0  0  0  0  0  0  0  0  0  0  0
   -0.2283   -2.6166    0.1441 N   0  0  0  0  0  0  0  0  0  0  0  0
   -1.2664   -1.7898    0.1099 C   0  0  0  0  0  0  0  0  0  0  0  0
   -2.6490   -2.1839   -0.0026 C   0  0  0  0  0  0  0  0  0  0  0  0
   -3.2425   -3.4405   -0.0287 C   0  0  0  0  0  0  0  0  0  0  0  0
   -4.6143   -3.5195   -0.1109 C   0  0  0  0  0  0  0  0  0  0  0  0
   -5.3929   -2.3663   -0.1568 C   0  0  0  0  0  0  0  0  0  0  0  0
   -4.8181   -1.1153   -0.1351 C   0  0  0  0  0  0  0  0  0  0  0  0
   -3.4277   -1.0102   -0.0762 C   0  0  0  0  0  0  0  0  0  0  0  0
   -2.5271    0.1220   -0.0174 C   0  0  0  0  0  0  0  0  0  0  0  0
   -2.8717    1.5280   -0.1194 C   0  0  0  0  0  0  0  0  0  0  0  0
   -4.0000    1.9531   -0.8302 C   0  0  0  0  0  0  0  0  0  0  0  0
   -4.3227    3.2847   -0.9141 C   0  0  0  0  0  0  0  0  0  0  0  0
   -3.5342    4.2411   -0.2972 C   0  0  0  0  0  0  0  0  0  0  0  0
   -3.8672    5.5479   -0.3652 F   0  0  0  0  0  0  0  0  0  0  0  0
   -2.4045    3.8401    0.3951 C   0  0  0  0  0  0  0  0  0  0  0  0
   -2.0789    2.5105    0.4802 C   0  0  0  0  0  0  0  0  0  0  0  0
   -1.2830   -0.4144    0.1105 N   0  0  0  0  0  0  0  0  0  0  0  0
    0.0254    0.3460    0.2914 B   0  0  0  0  0  4  0  0  0  0  0  0
    0.1225    1.3308   -0.6793 F   0  0  0  0  0  0  0  0  0  0  0  0
    0.0551    0.8703    1.5773 F   0  0  0  0  0  0  0  0  0  0  0  0
    2.2334   -2.6046    0.0475 C   0  0  0  0  0  0  0  0  0  0  0  0
    2.6037   -3.9440    0.0240 C   0  0  0  0  0  0  0  0  0  0  0  0
    3.9430   -4.2564   -0.0348 C   0  0  0  0  0  0  0  0  0  0  0  0
    4.9082   -3.2533   -0.0612 C   0  0  0  0  0  0  0  0  0  0  0  0
    4.5554   -1.9225   -0.0433 C   0  0  0  0  0  0  0  0  0  0  0  0
    3.2026   -1.5812   -0.0070 C   0  0  0  0  0  0  0  0  0  0  0  0
    4.2896    1.2423   -0.7311 C   0  0  0  0  0  0  0  0  0  0  0  0
    4.8389    2.4985   -0.7973 C   0  0  0  0  0  0  0  0  0  0  0  0
    2.5334    4.2145    0.9356 H   0  0  0  0  0  0  0  0  0  0  0  0
    1.5316    1.9638    1.0523 H   0  0  0  0  0  0  0  0  0  0  0  0
   -2.6266   -4.3214    0.0225 H   0  0  0  0  0  0  0  0  0  0  0  0
   -5.0913   -4.4848   -0.1297 H   0  0  0  0  0  0  0  0  0  0  0  0
   -6.4663   -2.4549   -0.2031 H   0  0  0  0  0  0  0  0  0  0  0  0
   -5.4297   -0.2318   -0.1279 H   0  0  0  0  0  0  0  0  0  0  0  0
   -4.5938    1.2273   -1.3561 H   0  0  0  0  0  0  0  0  0  0  0  0
   -5.1862    3.6111   -1.4660 H   0  0  0  0  0  0  0  0  0  0  0  0
   -1.7895    4.5918    0.8573 H   0  0  0  0  0  0  0  0  0  0  0  0
   -1.1941    2.2030    1.0063 H   0  0  0  0  0  0  0  0  0  0  0  0
    1.8455   -4.7068    0.0586 H   0  0  0  0  0  0  0  0  0  0  0  0
    4.2483   -5.2889   -0.0507 H   0  0  0  0  0  0  0  0  0  0  0  0
    5.9512   -3.5241   -0.0898 H   0  0  0  0  0  0  0  0  0  0  0  0
    5.3090   -1.1568   -0.0215 H   0  0  0  0  0  0  0  0  0  0  0  0
    4.7597    0.4277   -1.2522 H   0  0  0  0  0  0  0  0  0  0  0  0
    5.7571    2.6736   -1.3294 H   0  0  0  0  0  0  0  0  0  0  0  0
  1  2  1  0  0  0  0
  2  3  2  0  0  0  0
  3  4  1  0  0  0  0
  4  5  2  0  0  0  0
  5  6  1  0  0  0  0
  6  7  2  0  0  0  0
  7  8  1  0  0  0  0
  8  9  2  0  0  0  0
  9 10  1  0  0  0  0
 10 11  2  0  0  0  0
 11 12  1  0  0  0  0
 12 13  2  0  0  0  0
 13 14  1  0  0  0  0
 14 15  2  0  0  0  0
 15 16  1  0  0  0  0
 16 17  2  0  0  0  0
 17 18  1  0  0  0  0
 18 19  2  0  0  0  0
 19 20  1  0  0  0  0
 20 21  2  0  0  0  0
 21 22  1  0  0  0  0
 21 23  1  0  0  0  0
 23 24  2  0  0  0  0
 17 25  1  0  0  0  0
 25 26  1  0  0  0  0
 26 27  1  0  0  0  0
 26 28  1  0  0  0  0
  8 29  1  0  0  0  0
 29 30  2  0  0  0  0
 30 31  1  0  0  0  0
 31 32  2  0  0  0  0
 32 33  1  0  0  0  0
 33 34  2  0  0  0  0
  5 35  1  0  0  0  0
 35 36  2  0  0  0  0
 36  2  1  0  0  0  0
 34  6  1  0  0  0  0
 26  7  1  0  0  0  0
 34 29  1  0  0  0  0
 25 10  1  0  0  0  0
 16 11  1  0  0  0  0
 24 18  1  0  0  0  0
  3 37  1  0  0  0  0
  4 38  1  0  0  0  0
 12 39  1  0  0  0  0
 13 40  1  0  0  0  0
 14 41  1  0  0  0  0
 15 42  1  0  0  0  0
 19 43  1  0  0  0  0
 20 44  1  0  0  0  0
 23 45  1  0  0  0  0
 24 46  1  0  0  0  0
 30 47  1  0  0  0  0
 31 48  1  0  0  0  0
 32 49  1  0  0  0  0
 33 50  1  0  0  0  0
 35 51  1  0  0  0  0
 36 52  1  0  0  0  0
M  CHG  1   7   1
M  CHG  1  26  -1
M  END
