
  xtb     03012221223D
 energy: -9.410475508791 gnorm: 0.000428900369 xtb: 6.4.1 (afa7bdf)
 44 49  0     0  0            999 V2000
    4.1543    0.7513   -2.5543 F   0  0  0  0  0  0  0  0  0  0  0  0
    3.8226   -0.5402   -2.1578 B   0  0  0  0  0  4  0  0  0  0  0  0
    3.8610   -1.4175   -3.2347 F   0  0  0  0  0  0  0  0  0  0  0  0
    4.7331   -0.9738   -1.0879 O   0  0  0  0  0  0  0  0  0  0  0  0
    4.5474   -0.4206    0.1528 C   0  0  0  0  0  0  0  0  0  0  0  0
    5.6283   -0.3203    1.0280 C   0  0  0  0  0  0  0  0  0  0  0  0
    5.4754    0.2420    2.2705 C   0  0  0  0  0  0  0  0  0  0  0  0
    4.2390    0.7135    2.6697 C   0  0  0  0  0  0  0  0  0  0  0  0
    3.1550    0.6109    1.8282 C   0  0  0  0  0  0  0  0  0  0  0  0
    3.2797    0.0401    0.5656 C   0  0  0  0  0  0  0  0  0  0  0  0
    2.1502   -0.1422   -0.3368 C   0  0  0  0  0  0  0  0  0  0  0  0
    0.8316   -0.0099    0.0686 C   0  0  0  0  0  0  0  0  0  0  0  0
   -0.2058   -0.2117   -0.8264 C   0  0  0  0  0  0  0  0  0  0  0  0
   -1.5730   -0.0618   -0.3978 N   0  0  0  0  0  0  0  0  0  0  0  0
   -2.3254    1.1254   -0.4430 C   0  0  0  0  0  0  0  0  0  0  0  0
   -1.9866    2.4002   -0.8948 C   0  0  0  0  0  0  0  0  0  0  0  0
   -2.9259    3.3962   -0.8220 C   0  0  0  0  0  0  0  0  0  0  0  0
   -4.2001    3.1429   -0.3053 C   0  0  0  0  0  0  0  0  0  0  0  0
   -4.5524    1.8930    0.1446 C   0  0  0  0  0  0  0  0  0  0  0  0
   -3.6061    0.8712    0.0756 C   0  0  0  0  0  0  0  0  0  0  0  0
   -3.6442   -0.5221    0.4541 C   0  0  0  0  0  0  0  0  0  0  0  0
   -4.6410   -1.3191    1.0155 C   0  0  0  0  0  0  0  0  0  0  0  0
   -4.3591   -2.6405    1.2665 C   0  0  0  0  0  0  0  0  0  0  0  0
   -3.1055   -3.1843    0.9707 C   0  0  0  0  0  0  0  0  0  0  0  0
   -2.1173   -2.4114    0.4179 C   0  0  0  0  0  0  0  0  0  0  0  0
   -2.3851   -1.0687    0.1541 C   0  0  0  0  0  0  0  0  0  0  0  0
    0.0919   -0.5522   -2.1401 C   0  0  0  0  0  0  0  0  0  0  0  0
    1.4002   -0.6813   -2.5194 C   0  0  0  0  0  0  0  0  0  0  0  0
    2.3876   -0.4871   -1.6304 N   0  0  0  0  0  4  0  0  0  0  0  0
    6.5847   -0.6835    0.6970 H   0  0  0  0  0  0  0  0  0  0  0  0
    6.3212    0.3205    2.9332 H   0  0  0  0  0  0  0  0  0  0  0  0
    4.1237    1.1605    3.6430 H   0  0  0  0  0  0  0  0  0  0  0  0
    2.1997    0.9877    2.1492 H   0  0  0  0  0  0  0  0  0  0  0  0
    0.5914    0.2365    1.0850 H   0  0  0  0  0  0  0  0  0  0  0  0
   -1.0012    2.5795   -1.2904 H   0  0  0  0  0  0  0  0  0  0  0  0
   -2.6802    4.3859   -1.1671 H   0  0  0  0  0  0  0  0  0  0  0  0
   -4.9195    3.9448   -0.2598 H   0  0  0  0  0  0  0  0  0  0  0  0
   -5.5307    1.6941    0.5425 H   0  0  0  0  0  0  0  0  0  0  0  0
   -5.6032   -0.8970    1.2417 H   0  0  0  0  0  0  0  0  0  0  0  0
   -5.1185   -3.2714    1.7001 H   0  0  0  0  0  0  0  0  0  0  0  0
   -2.9149   -4.2230    1.1798 H   0  0  0  0  0  0  0  0  0  0  0  0
   -1.1469   -2.8157    0.1842 H   0  0  0  0  0  0  0  0  0  0  0  0
   -0.7095   -0.7058   -2.8407 H   0  0  0  0  0  0  0  0  0  0  0  0
    1.6740   -0.9348   -3.5295 H   0  0  0  0  0  0  0  0  0  0  0  0
  1  2  1  0  0  0  0
  2  3  1  0  0  0  0
  2  4  1  0  0  0  0
  4  5  1  0  0  0  0
  5  6  2  0  0  0  0
  6  7  1  0  0  0  0
  7  8  2  0  0  0  0
  8  9  1  0  0  0  0
  9 10  2  0  0  0  0
 10 11  1  0  0  0  0
 11 12  2  0  0  0  0
 12 13  1  0  0  0  0
 13 14  1  0  0  0  0
 14 15  1  0  0  0  0
 15 16  2  0  0  0  0
 16 17  1  0  0  0  0
 17 18  2  0  0  0  0
 18 19  1  0  0  0  0
 19 20  2  0  0  0  0
 20 21  1  0  0  0  0
 21 22  2  0  0  0  0
 22 23  1  0  0  0  0
 23 24  2  0  0  0  0
 24 25  1  0  0  0  0
 25 26  2  0  0  0  0
 13 27  2  0  0  0  0
 27 28  1  0  0  0  0
 28 29  2  0  0  0  0
 29  2  1  0  0  0  0
 10  5  1  0  0  0  0
 29 11  1  0  0  0  0
 26 14  1  0  0  0  0
 20 15  1  0  0  0  0
 26 21  1  0  0  0  0
  6 30  1  0  0  0  0
  7 31  1  0  0  0  0
  8 32  1  0  0  0  0
  9 33  1  0  0  0  0
 12 34  1  0  0  0  0
 16 35  1  0  0  0  0
 17 36  1  0  0  0  0
 18 37  1  0  0  0  0
 19 38  1  0  0  0  0
 22 39  1  0  0  0  0
 23 40  1  0  0  0  0
 24 41  1  0  0  0  0
 25 42  1  0  0  0  0
 27 43  1  0  0  0  0
 28 44  1  0  0  0  0
M  CHG  1   2  -1
M  CHG  1  29   1
M  END
