
  xtb     03012221213D
 energy: -9.146479857756 gnorm: 0.000278873053 xtb: 6.4.1 (afa7bdf)
 46 50  0     0  0            999 V2000
    7.1696    2.2510   -2.1446 C   0  0  0  0  0  0  0  0  0  0  0  0
    7.2774    1.0527   -1.4083 O   0  0  0  0  0  0  0  0  0  0  0  0
    6.0719    0.5454   -0.9226 C   0  0  0  0  0  0  0  0  0  0  0  0
    6.1266   -0.6318   -0.1674 C   0  0  0  0  0  0  0  0  0  0  0  0
    4.9890   -1.1945    0.3452 C   0  0  0  0  0  0  0  0  0  0  0  0
    3.7368   -0.6135    0.1314 C   0  0  0  0  0  0  0  0  0  0  0  0
    2.5737   -1.2613    0.7020 C   0  0  0  0  0  0  0  0  0  0  0  0
    2.7818   -2.4161    1.3899 O   0  0  0  0  0  3  0  0  0  0  0  0
    1.7373   -2.8139    2.3396 B   0  0  0  0  0  4  0  0  0  0  0  0
    1.9192   -4.1281    2.7354 F   0  0  0  0  0  0  0  0  0  0  0  0
    1.8117   -1.9626    3.4345 F   0  0  0  0  0  0  0  0  0  0  0  0
    0.4153   -2.6433    1.7305 O   0  0  0  0  0  0  0  0  0  0  0  0
    0.2052   -1.4847    1.0483 C   0  0  0  0  0  0  0  0  0  0  0  0
   -1.1660   -1.0724    0.8567 C   0  0  0  0  0  0  0  0  0  0  0  0
   -2.1769   -1.8747    1.4172 C   0  0  0  0  0  0  0  0  0  0  0  0
   -3.5044   -1.5571    1.2910 C   0  0  0  0  0  0  0  0  0  0  0  0
   -3.8550   -0.4062    0.5847 C   0  0  0  0  0  0  0  0  0  0  0  0
   -2.8578    0.4064    0.0154 C   0  0  0  0  0  0  0  0  0  0  0  0
   -1.5306    0.0859    0.1450 C   0  0  0  0  0  0  0  0  0  0  0  0
   -3.5179    1.5659   -0.6798 C   0  0  0  0  0  0  0  0  0  0  0  0
   -4.9893    1.3434   -0.4553 C   0  0  0  0  0  0  0  0  0  0  0  0
   -6.0809    2.0798   -0.8603 C   0  0  0  0  0  0  0  0  0  0  0  0
   -7.3474    1.6419   -0.5124 C   0  0  0  0  0  0  0  0  0  0  0  0
   -7.5215    0.4817    0.2302 C   0  0  0  0  0  0  0  0  0  0  0  0
   -6.4383   -0.2642    0.6401 C   0  0  0  0  0  0  0  0  0  0  0  0
   -5.1612    0.1687    0.2957 C   0  0  0  0  0  0  0  0  0  0  0  0
    1.2876   -0.7657    0.5593 C   0  0  0  0  0  0  0  0  0  0  0  0
    3.6786    0.5652   -0.6239 C   0  0  0  0  0  0  0  0  0  0  0  0
    4.8173    1.1289   -1.1373 C   0  0  0  0  0  0  0  0  0  0  0  0
    6.5584    2.0860   -3.0298 H   0  0  0  0  0  0  0  0  0  0  0  0
    6.7398    3.0309   -1.5190 H   0  0  0  0  0  0  0  0  0  0  0  0
    8.1684    2.5532   -2.4533 H   0  0  0  0  0  0  0  0  0  0  0  0
    7.0880   -1.0828    0.0013 H   0  0  0  0  0  0  0  0  0  0  0  0
    5.0357   -2.0991    0.9281 H   0  0  0  0  0  0  0  0  0  0  0  0
   -1.8750   -2.7544    1.9590 H   0  0  0  0  0  0  0  0  0  0  0  0
   -4.2697   -2.1753    1.7250 H   0  0  0  0  0  0  0  0  0  0  0  0
   -0.7899    0.7223   -0.2986 H   0  0  0  0  0  0  0  0  0  0  0  0
   -3.2795    1.5715   -1.7483 H   0  0  0  0  0  0  0  0  0  0  0  0
   -3.1938    2.5190   -0.2494 H   0  0  0  0  0  0  0  0  0  0  0  0
   -5.9394    2.9769   -1.4355 H   0  0  0  0  0  0  0  0  0  0  0  0
   -8.2105    2.2095   -0.8220 H   0  0  0  0  0  0  0  0  0  0  0  0
   -8.5181    0.1611    0.4892 H   0  0  0  0  0  0  0  0  0  0  0  0
   -6.5644   -1.1635    1.2150 H   0  0  0  0  0  0  0  0  0  0  0  0
    1.1243    0.1504    0.0309 H   0  0  0  0  0  0  0  0  0  0  0  0
    2.7296    1.0358   -0.8059 H   0  0  0  0  0  0  0  0  0  0  0  0
    4.7445    2.0320   -1.7145 H   0  0  0  0  0  0  0  0  0  0  0  0
  1  2  1  0  0  0  0
  2  3  1  0  0  0  0
  3  4  2  0  0  0  0
  4  5  1  0  0  0  0
  5  6  2  0  0  0  0
  6  7  1  0  0  0  0
  7  8  2  0  0  0  0
  8  9  1  0  0  0  0
  9 10  1  0  0  0  0
  9 11  1  0  0  0  0
  9 12  1  0  0  0  0
 12 13  1  0  0  0  0
 13 14  1  0  0  0  0
 14 15  2  0  0  0  0
 15 16  1  0  0  0  0
 16 17  2  0  0  0  0
 17 18  1  0  0  0  0
 18 19  2  0  0  0  0
 18 20  1  0  0  0  0
 20 21  1  0  0  0  0
 21 22  2  0  0  0  0
 22 23  1  0  0  0  0
 23 24  2  0  0  0  0
 24 25  1  0  0  0  0
 25 26  2  0  0  0  0
 13 27  2  0  0  0  0
  6 28  1  0  0  0  0
 28 29  2  0  0  0  0
 29  3  1  0  0  0  0
 27  7  1  0  0  0  0
 19 14  1  0  0  0  0
 26 21  1  0  0  0  0
 26 17  1  0  0  0  0
  1 30  1  0  0  0  0
  1 31  1  0  0  0  0
  1 32  1  0  0  0  0
  4 33  1  0  0  0  0
  5 34  1  0  0  0  0
 15 35  1  0  0  0  0
 16 36  1  0  0  0  0
 19 37  1  0  0  0  0
 20 38  1  0  0  0  0
 20 39  1  0  0  0  0
 22 40  1  0  0  0  0
 23 41  1  0  0  0  0
 24 42  1  0  0  0  0
 25 43  1  0  0  0  0
 27 44  1  0  0  0  0
 28 45  1  0  0  0  0
 29 46  1  0  0  0  0
M  CHG  1   8   1
M  CHG  1   9  -1
M  END
