
  xtb     03012221213D
 energy: -16.274419845013 gnorm: 0.000089217379 xtb: 6.4.1 (afa7bdf)
 91 95  0     0  0            999 V2000
    8.7516   -2.4892   -2.6194 C   0  0  0  0  0  0  0  0  0  0  0  0
    7.7365   -2.0809   -1.5626 C   0  0  0  0  0  0  0  0  0  0  0  0
    6.3028   -2.0691   -2.0963 C   0  0  0  0  0  0  0  0  0  0  0  0
    5.2526   -1.7262   -1.0353 C   0  0  0  0  0  0  0  0  0  0  0  0
    5.3395   -0.2852   -0.5295 C   0  0  0  0  0  0  0  0  0  0  0  0
    4.2989    0.0498    0.5428 C   0  0  0  0  0  0  0  0  0  0  0  0
    2.8597   -0.0016    0.0311 C   0  0  0  0  0  0  0  0  0  0  0  0
    1.8383    0.4055    1.0910 C   0  0  0  0  0  0  0  0  0  0  0  0
    0.3509    0.2622    0.6712 C   0  0  0  0  0  0  0  0  0  0  0  0
   -0.0059   -1.2206    0.3678 C   0  0  0  0  0  0  0  0  0  0  0  0
   -1.5074   -1.5146    0.2594 C   0  0  0  0  0  0  0  0  0  0  0  0
   -2.1632   -0.9847   -1.0158 C   0  0  0  0  0  0  0  0  0  0  0  0
   -3.6799   -1.1843   -1.0446 C   0  0  0  0  0  0  0  0  0  0  0  0
   -4.4171   -0.3104   -0.0271 C   0  0  0  0  0  0  0  0  0  0  0  0
   -5.9413   -0.4180   -0.1215 C   0  0  0  0  0  0  0  0  0  0  0  0
   -6.4809   -1.7985    0.2566 C   0  0  0  0  0  0  0  0  0  0  0  0
   -7.9992   -1.8700    0.2030 C   0  0  0  0  0  0  0  0  0  0  0  0
    0.0143    1.1858   -0.5042 C   0  0  0  0  0  0  0  0  0  0  0  0
    0.4183    1.1395   -1.8212 C   0  0  0  0  0  0  0  0  0  0  0  0
   -0.0634    2.0818   -2.7326 C   0  0  0  0  0  0  0  0  0  0  0  0
    0.3656    2.0376   -4.1489 C   0  0  0  0  0  0  0  0  0  0  0  0
   -0.5405    2.2809   -5.1804 C   0  0  0  0  0  0  0  0  0  0  0  0
   -0.1385    2.2349   -6.4979 C   0  0  0  0  0  0  0  0  0  0  0  0
    1.1741    1.9449   -6.8122 C   0  0  0  0  0  0  0  0  0  0  0  0
    2.0852    1.7001   -5.8045 C   0  0  0  0  0  0  0  0  0  0  0  0
    1.6869    1.7451   -4.4859 C   0  0  0  0  0  0  0  0  0  0  0  0
   -0.9629    3.0575   -2.2876 C   0  0  0  0  0  0  0  0  0  0  0  0
   -1.3885    3.0984   -0.9784 C   0  0  0  0  0  0  0  0  0  0  0  0
   -0.9002    2.1565   -0.0827 C   0  0  0  0  0  0  0  0  0  0  0  0
   -1.2417    1.9257    1.3239 C   0  0  0  0  0  0  0  0  0  0  0  0
   -2.1337    2.5906    2.1544 C   0  0  0  0  0  0  0  0  0  0  0  0
   -2.3029    2.1420    3.4458 C   0  0  0  0  0  0  0  0  0  0  0  0
   -1.5991    1.0343    3.9337 C   0  0  0  0  0  0  0  0  0  0  0  0
   -1.7972    0.5671    5.3248 C   0  0  0  0  0  0  0  0  0  0  0  0
   -0.7163    0.1428    6.0968 C   0  0  0  0  0  0  0  0  0  0  0  0
   -0.9011   -0.2921    7.3915 C   0  0  0  0  0  0  0  0  0  0  0  0
   -2.1672   -0.3129    7.9412 C   0  0  0  0  0  0  0  0  0  0  0  0
   -3.2497    0.1024    7.1919 C   0  0  0  0  0  0  0  0  0  0  0  0
   -3.0686    0.5381    5.8969 C   0  0  0  0  0  0  0  0  0  0  0  0
   -0.7065    0.3736    3.0863 C   0  0  0  0  0  0  0  0  0  0  0  0
   -0.5341    0.8169    1.7936 C   0  0  0  0  0  0  0  0  0  0  0  0
    8.7306   -1.8067   -3.4714 H   0  0  0  0  0  0  0  0  0  0  0  0
    9.7720   -2.4956   -2.2288 H   0  0  0  0  0  0  0  0  0  0  0  0
    8.5415   -3.4893   -3.0038 H   0  0  0  0  0  0  0  0  0  0  0  0
    7.9917   -1.0906   -1.1636 H   0  0  0  0  0  0  0  0  0  0  0  0
    7.7959   -2.7585   -0.6998 H   0  0  0  0  0  0  0  0  0  0  0  0
    6.0815   -3.0502   -2.5378 H   0  0  0  0  0  0  0  0  0  0  0  0
    6.2284   -1.3587   -2.9292 H   0  0  0  0  0  0  0  0  0  0  0  0
    5.3487   -2.4163   -0.1881 H   0  0  0  0  0  0  0  0  0  0  0  0
    4.2490   -1.9078   -1.4401 H   0  0  0  0  0  0  0  0  0  0  0  0
    6.3465   -0.0973   -0.1367 H   0  0  0  0  0  0  0  0  0  0  0  0
    5.2285    0.4043   -1.3756 H   0  0  0  0  0  0  0  0  0  0  0  0
    4.4098   -0.6383    1.3901 H   0  0  0  0  0  0  0  0  0  0  0  0
    4.4943    1.0479    0.9570 H   0  0  0  0  0  0  0  0  0  0  0  0
    2.7673    0.6509   -0.8441 H   0  0  0  0  0  0  0  0  0  0  0  0
    2.6323   -1.0100   -0.3305 H   0  0  0  0  0  0  0  0  0  0  0  0
    2.0146    1.4445    1.3878 H   0  0  0  0  0  0  0  0  0  0  0  0
    1.9999   -0.1859    1.9979 H   0  0  0  0  0  0  0  0  0  0  0  0
    0.4937   -1.5298   -0.5546 H   0  0  0  0  0  0  0  0  0  0  0  0
    0.4297   -1.8365    1.1627 H   0  0  0  0  0  0  0  0  0  0  0  0
   -1.6841   -2.5967    0.3207 H   0  0  0  0  0  0  0  0  0  0  0  0
   -2.0152   -1.0984    1.1363 H   0  0  0  0  0  0  0  0  0  0  0  0
   -1.9511    0.0828   -1.1292 H   0  0  0  0  0  0  0  0  0  0  0  0
   -1.6951   -1.4629   -1.8865 H   0  0  0  0  0  0  0  0  0  0  0  0
   -4.0685   -0.9662   -2.0481 H   0  0  0  0  0  0  0  0  0  0  0  0
   -3.9100   -2.2416   -0.8692 H   0  0  0  0  0  0  0  0  0  0  0  0
   -4.1055    0.7338   -0.1640 H   0  0  0  0  0  0  0  0  0  0  0  0
   -4.0991   -0.5707    0.9892 H   0  0  0  0  0  0  0  0  0  0  0  0
   -6.4112    0.3370    0.5230 H   0  0  0  0  0  0  0  0  0  0  0  0
   -6.2648   -0.1657   -1.1391 H   0  0  0  0  0  0  0  0  0  0  0  0
   -6.0483   -2.5585   -0.4073 H   0  0  0  0  0  0  0  0  0  0  0  0
   -6.1245   -2.0637    1.2614 H   0  0  0  0  0  0  0  0  0  0  0  0
   -8.3700   -1.6422   -0.7984 H   0  0  0  0  0  0  0  0  0  0  0  0
   -8.3741   -2.8598    0.4744 H   0  0  0  0  0  0  0  0  0  0  0  0
   -8.4533   -1.1489    0.8855 H   0  0  0  0  0  0  0  0  0  0  0  0
    1.0680    0.3537   -2.1596 H   0  0  0  0  0  0  0  0  0  0  0  0
   -1.5673    2.4929   -4.9370 H   0  0  0  0  0  0  0  0  0  0  0  0
   -0.8509    2.4239   -7.2846 H   0  0  0  0  0  0  0  0  0  0  0  0
    1.4871    1.9095   -7.8434 H   0  0  0  0  0  0  0  0  0  0  0  0
    3.1106    1.4748   -6.0494 H   0  0  0  0  0  0  0  0  0  0  0  0
    2.4006    1.5656   -3.7003 H   0  0  0  0  0  0  0  0  0  0  0  0
   -1.3240    3.7897   -2.9892 H   0  0  0  0  0  0  0  0  0  0  0  0
   -2.0949    3.8384   -0.6454 H   0  0  0  0  0  0  0  0  0  0  0  0
   -2.6809    3.4393    1.7832 H   0  0  0  0  0  0  0  0  0  0  0  0
   -2.9815    2.6563    4.1044 H   0  0  0  0  0  0  0  0  0  0  0  0
    0.2728    0.1705    5.6730 H   0  0  0  0  0  0  0  0  0  0  0  0
   -0.0551   -0.6146    7.9767 H   0  0  0  0  0  0  0  0  0  0  0  0
   -2.3104   -0.6529    8.9543 H   0  0  0  0  0  0  0  0  0  0  0  0
   -4.2389    0.0845    7.6201 H   0  0  0  0  0  0  0  0  0  0  0  0
   -3.9149    0.8491    5.3090 H   0  0  0  0  0  0  0  0  0  0  0  0
   -0.1695   -0.4902    3.4331 H   0  0  0  0  0  0  0  0  0  0  0  0
  1  2  1  0  0  0  0
  2  3  1  0  0  0  0
  3  4  1  0  0  0  0
  4  5  1  0  0  0  0
  5  6  1  0  0  0  0
  6  7  1  0  0  0  0
  7  8  1  0  0  0  0
  8  9  1  0  0  0  0
  9 10  1  0  0  0  0
 10 11  1  0  0  0  0
 11 12  1  0  0  0  0
 12 13  1  0  0  0  0
 13 14  1  0  0  0  0
 14 15  1  0  0  0  0
 15 16  1  0  0  0  0
 16 17  1  0  0  0  0
  9 18  1  0  0  0  0
 18 19  2  0  0  0  0
 19 20  1  0  0  0  0
 20 21  1  0  0  0  0
 21 22  2  0  0  0  0
 22 23  1  0  0  0  0
 23 24  2  0  0  0  0
 24 25  1  0  0  0  0
 25 26  2  0  0  0  0
 20 27  2  0  0  0  0
 27 28  1  0  0  0  0
 28 29  2  0  0  0  0
 29 30  1  0  0  0  0
 30 31  2  0  0  0  0
 31 32  1  0  0  0  0
 32 33  2  0  0  0  0
 33 34  1  0  0  0  0
 34 35  2  0  0  0  0
 35 36  1  0  0  0  0
 36 37  2  0  0  0  0
 37 38  1  0  0  0  0
 38 39  2  0  0  0  0
 33 40  1  0  0  0  0
 40 41  2  0  0  0  0
 41  9  1  0  0  0  0
 29 18  1  0  0  0  0
 41 30  1  0  0  0  0
 26 21  1  0  0  0  0
 39 34  1  0  0  0  0
  1 42  1  0  0  0  0
  1 43  1  0  0  0  0
  1 44  1  0  0  0  0
  2 45  1  0  0  0  0
  2 46  1  0  0  0  0
  3 47  1  0  0  0  0
  3 48  1  0  0  0  0
  4 49  1  0  0  0  0
  4 50  1  0  0  0  0
  5 51  1  0  0  0  0
  5 52  1  0  0  0  0
  6 53  1  0  0  0  0
  6 54  1  0  0  0  0
  7 55  1  0  0  0  0
  7 56  1  0  0  0  0
  8 57  1  0  0  0  0
  8 58  1  0  0  0  0
 10 59  1  0  0  0  0
 10 60  1  0  0  0  0
 11 61  1  0  0  0  0
 11 62  1  0  0  0  0
 12 63  1  0  0  0  0
 12 64  1  0  0  0  0
 13 65  1  0  0  0  0
 13 66  1  0  0  0  0
 14 67  1  0  0  0  0
 14 68  1  0  0  0  0
 15 69  1  0  0  0  0
 15 70  1  0  0  0  0
 16 71  1  0  0  0  0
 16 72  1  0  0  0  0
 17 73  1  0  0  0  0
 17 74  1  0  0  0  0
 17 75  1  0  0  0  0
 19 76  1  0  0  0  0
 22 77  1  0  0  0  0
 23 78  1  0  0  0  0
 24 79  1  0  0  0  0
 25 80  1  0  0  0  0
 26 81  1  0  0  0  0
 27 82  1  0  0  0  0
 28 83  1  0  0  0  0
 31 84  1  0  0  0  0
 32 85  1  0  0  0  0
 35 86  1  0  0  0  0
 36 87  1  0  0  0  0
 37 88  1  0  0  0  0
 38 89  1  0  0  0  0
 39 90  1  0  0  0  0
 40 91  1  0  0  0  0
M  END
