
  xtb     03012221293D
 energy: -4.754208416141 gnorm: 0.000158167017 xtb: 6.4.1 (afa7bdf)
 27 27  0     0  0            999 V2000
    4.6637    0.4815   -0.4269 C   0  0  0  0  0  0  0  0  0  0  0  0
    3.3210   -0.1095   -0.2374 C   0  0  0  0  0  0  0  0  0  0  0  0
    2.2134    0.6297   -0.2057 C   0  0  0  0  0  0  0  0  0  0  0  0
    0.8550    0.1223   -0.0281 C   0  0  0  0  0  0  0  0  0  0  0  0
    0.5896   -1.1965    0.3231 C   0  0  0  0  0  0  0  0  0  0  0  0
   -0.7048   -1.6405    0.4848 C   0  0  0  0  0  0  0  0  0  0  0  0
   -1.7881   -0.7895    0.3056 C   0  0  0  0  0  0  0  0  0  0  0  0
   -3.1227   -1.1757    0.4549 O   0  0  0  0  0  0  0  0  0  0  0  0
   -3.3199   -2.5201    0.8247 C   0  0  0  0  0  0  0  0  0  0  0  0
   -1.5383    0.5650   -0.0519 C   0  0  0  0  0  0  0  0  0  0  0  0
   -2.6532    1.3965   -0.2249 O   0  0  0  0  0  0  0  0  0  0  0  0
   -2.3605    2.7257   -0.5872 C   0  0  0  0  0  0  0  0  0  0  0  0
   -0.2281    0.9848   -0.2074 C   0  0  0  0  0  0  0  0  0  0  0  0
    4.7410    0.9673   -1.4008 H   0  0  0  0  0  0  0  0  0  0  0  0
    4.8681    1.2347    0.3357 H   0  0  0  0  0  0  0  0  0  0  0  0
    5.4541   -0.2692   -0.3682 H   0  0  0  0  0  0  0  0  0  0  0  0
    3.2429   -1.1788   -0.1424 H   0  0  0  0  0  0  0  0  0  0  0  0
    2.3159    1.6943   -0.3266 H   0  0  0  0  0  0  0  0  0  0  0  0
    1.4048   -1.8796    0.4811 H   0  0  0  0  0  0  0  0  0  0  0  0
   -0.8758   -2.6660    0.7566 H   0  0  0  0  0  0  0  0  0  0  0  0
   -2.9174   -3.1801    0.0553 H   0  0  0  0  0  0  0  0  0  0  0  0
   -2.8451   -2.7144    1.7872 H   0  0  0  0  0  0  0  0  0  0  0  0
   -4.3921   -2.6969    0.9169 H   0  0  0  0  0  0  0  0  0  0  0  0
   -3.3009    3.2671   -0.6938 H   0  0  0  0  0  0  0  0  0  0  0  0
   -1.8318    2.7428   -1.5407 H   0  0  0  0  0  0  0  0  0  0  0  0
   -1.7651    3.2009    0.1930 H   0  0  0  0  0  0  0  0  0  0  0  0
   -0.0256    2.0037   -0.4772 H   0  0  0  0  0  0  0  0  0  0  0  0
  1  2  1  0  0  0  0
  2  3  2  0  0  0  0
  3  4  1  0  0  0  0
  4  5  2  0  0  0  0
  5  6  1  0  0  0  0
  6  7  2  0  0  0  0
  7  8  1  0  0  0  0
  8  9  1  0  0  0  0
  7 10  1  0  0  0  0
 10 11  1  0  0  0  0
 11 12  1  0  0  0  0
 10 13  2  0  0  0  0
 13  4  1  0  0  0  0
  1 14  1  0  0  0  0
  1 15  1  0  0  0  0
  1 16  1  0  0  0  0
  2 17  1  0  0  0  0
  3 18  1  0  0  0  0
  5 19  1  0  0  0  0
  6 20  1  0  0  0  0
  9 21  1  0  0  0  0
  9 22  1  0  0  0  0
  9 23  1  0  0  0  0
 12 24  1  0  0  0  0
 12 25  1  0  0  0  0
 12 26  1  0  0  0  0
 13 27  1  0  0  0  0
M  END
