
  xtb     03012221243D
 energy: -18.239174257574 gnorm: 0.000243757766 xtb: 6.4.1 (afa7bdf)
 97102  0     0  0            999 V2000
    0.8587    2.1207    4.6154 C   0  0  0  0  0  0  0  0  0  0  0  0
    0.9025    2.3939    3.2333 O   0  0  0  0  0  0  0  0  0  0  0  0
    0.4966    1.3419    2.4238 C   0  0  0  0  0  0  0  0  0  0  0  0
   -0.1688    0.1958    2.8881 C   0  0  0  0  0  0  0  0  0  0  0  0
   -0.4701   -0.8331    2.0407 C   0  0  0  0  0  0  0  0  0  0  0  0
   -0.1137   -0.7916    0.6830 C   0  0  0  0  0  0  0  0  0  0  0  0
   -0.3351   -1.9379   -0.2001 C   0  0  0  0  0  0  0  0  0  0  0  0
   -0.8652   -1.7869   -1.5175 C   0  0  0  0  0  0  0  0  0  0  0  0
   -1.4501   -0.6917   -2.2473 C   0  0  0  0  0  0  0  0  0  0  0  0
   -1.9067    0.6048   -1.8251 C   0  0  0  0  0  0  0  0  0  0  0  0
   -2.2129    0.9889   -0.5692 C   0  0  0  0  0  0  0  0  0  0  0  0
   -2.6779    2.3091   -0.2141 C   0  0  0  0  0  0  0  0  0  0  0  0
   -3.2704    3.1580   -1.1505 C   0  0  0  0  0  0  0  0  0  0  0  0
   -3.7119    4.4332   -0.8260 C   0  0  0  0  0  0  0  0  0  0  0  0
   -4.3170    5.2751   -1.7532 O   0  0  0  0  0  0  0  0  0  0  0  0
   -4.4702    4.7455   -3.0496 C   0  0  0  0  0  0  0  0  0  0  0  0
   -3.5350    4.9004    0.5143 C   0  0  0  0  0  0  0  0  0  0  0  0
   -3.9099    6.1368    0.9747 O   0  0  0  0  0  0  0  0  0  0  0  0
   -4.5291    6.9841    0.0427 C   0  0  0  0  0  0  0  0  0  0  0  0
   -2.9134    4.0416    1.4738 C   0  0  0  0  0  0  0  0  0  0  0  0
   -2.7277    4.5535    2.7529 O   0  0  0  0  0  0  0  0  0  0  0  0
   -1.8878    3.7880    3.5807 C   0  0  0  0  0  0  0  0  0  0  0  0
   -2.5221    2.7677    1.0928 C   0  0  0  0  0  0  0  0  0  0  0  0
   -1.6365   -1.1417   -3.5815 C   0  0  0  0  0  0  0  0  0  0  0  0
   -2.1992   -0.4075   -4.6958 C   0  0  0  0  0  0  0  0  0  0  0  0
   -2.3518   -0.8487   -5.8048 O   0  0  0  0  0  0  0  0  0  0  0  0
   -1.2477   -2.4899   -3.6540 C   0  0  0  0  0  0  0  0  0  0  0  0
   -1.3541   -3.4082   -4.7992 C   0  0  0  0  0  0  0  0  0  0  0  0
   -0.8319   -2.8208   -2.4301 N   0  0  0  0  0  4  0  0  0  0  0  0
   -0.4717   -4.2639   -2.1346 B   0  0  0  0  0  4  0  0  0  0  0  0
    0.6081   -4.6360   -2.9231 F   0  0  0  0  0  0  0  0  0  0  0  0
   -1.5766   -5.0761   -2.3541 F   0  0  0  0  0  0  0  0  0  0  0  0
   -0.0660   -4.3319   -0.6751 N   0  0  0  0  0  0  0  0  0  0  0  0
    0.3202   -5.4988   -0.1548 C   0  0  0  0  0  0  0  0  0  0  0  0
    0.3141   -6.7930   -0.8555 C   0  0  0  0  0  0  0  0  0  0  0  0
    0.8074   -5.2083    1.1301 C   0  0  0  0  0  0  0  0  0  0  0  0
    1.3867   -6.1884    2.0226 C   0  0  0  0  0  0  0  0  0  0  0  0
    1.4773   -7.3653    1.7890 O   0  0  0  0  0  0  0  0  0  0  0  0
    0.7139   -3.8072    1.3407 C   0  0  0  0  0  0  0  0  0  0  0  0
    1.2671   -3.1752    2.5301 C   0  0  0  0  0  0  0  0  0  0  0  0
    2.1685   -2.1639    2.6014 C   0  0  0  0  0  0  0  0  0  0  0  0
    2.8314   -1.4882    1.5118 C   0  0  0  0  0  0  0  0  0  0  0  0
    3.4200   -0.2462    1.7534 C   0  0  0  0  0  0  0  0  0  0  0  0
    3.9943    0.5182    0.7481 C   0  0  0  0  0  0  0  0  0  0  0  0
    4.5071    1.7910    0.9849 O   0  0  0  0  0  0  0  0  0  0  0  0
    4.1492    2.3614    2.2227 C   0  0  0  0  0  0  0  0  0  0  0  0
    4.0310   -0.0128   -0.5792 C   0  0  0  0  0  0  0  0  0  0  0  0
    4.5695    0.6259   -1.6665 O   0  0  0  0  0  0  0  0  0  0  0  0
    5.2090    1.8487   -1.4100 C   0  0  0  0  0  0  0  0  0  0  0  0
    3.4481   -1.2940   -0.8316 C   0  0  0  0  0  0  0  0  0  0  0  0
    3.4724   -1.7554   -2.1438 O   0  0  0  0  0  0  0  0  0  0  0  0
    2.6499   -2.8653   -2.4049 C   0  0  0  0  0  0  0  0  0  0  0  0
    2.8819   -2.0011    0.2167 C   0  0  0  0  0  0  0  0  0  0  0  0
    0.0769   -3.2537    0.1721 C   0  0  0  0  0  0  0  0  0  0  0  0
    0.5035    0.3793    0.2103 C   0  0  0  0  0  0  0  0  0  0  0  0
    0.7839    1.4188    1.0509 C   0  0  0  0  0  0  0  0  0  0  0  0
    1.4351    1.2205    4.8334 H   0  0  0  0  0  0  0  0  0  0  0  0
   -0.1728    1.9977    4.9464 H   0  0  0  0  0  0  0  0  0  0  0  0
    1.3018    2.9625    5.1491 H   0  0  0  0  0  0  0  0  0  0  0  0
   -0.4363    0.1211    3.9260 H   0  0  0  0  0  0  0  0  0  0  0  0
   -0.9747   -1.7083    2.4129 H   0  0  0  0  0  0  0  0  0  0  0  0
   -2.0419    1.3300   -2.6070 H   0  0  0  0  0  0  0  0  0  0  0  0
   -2.0850    0.2827    0.2283 H   0  0  0  0  0  0  0  0  0  0  0  0
   -3.4149    2.7937   -2.1488 H   0  0  0  0  0  0  0  0  0  0  0  0
   -3.4927    4.5146   -3.4749 H   0  0  0  0  0  0  0  0  0  0  0  0
   -5.0998    3.8555   -3.0153 H   0  0  0  0  0  0  0  0  0  0  0  0
   -4.9567    5.4970   -3.6723 H   0  0  0  0  0  0  0  0  0  0  0  0
   -3.8401    7.1700   -0.7827 H   0  0  0  0  0  0  0  0  0  0  0  0
   -4.7819    7.9242    0.5346 H   0  0  0  0  0  0  0  0  0  0  0  0
   -5.4356    6.5035   -0.3286 H   0  0  0  0  0  0  0  0  0  0  0  0
   -0.9401    3.6131    3.0689 H   0  0  0  0  0  0  0  0  0  0  0  0
   -2.3748    2.8453    3.8325 H   0  0  0  0  0  0  0  0  0  0  0  0
   -1.7023    4.3515    4.4957 H   0  0  0  0  0  0  0  0  0  0  0  0
   -2.0607    2.1134    1.8081 H   0  0  0  0  0  0  0  0  0  0  0  0
   -2.5168    0.6128   -4.5431 H   0  0  0  0  0  0  0  0  0  0  0  0
   -1.4853   -2.8536   -5.7295 H   0  0  0  0  0  0  0  0  0  0  0  0
   -0.4560   -4.0218   -4.8772 H   0  0  0  0  0  0  0  0  0  0  0  0
   -2.2068   -4.0751   -4.6695 H   0  0  0  0  0  0  0  0  0  0  0  0
    0.4930   -7.6122   -0.1574 H   0  0  0  0  0  0  0  0  0  0  0  0
    1.0903   -6.8126   -1.6207 H   0  0  0  0  0  0  0  0  0  0  0  0
   -0.6464   -6.9515   -1.3469 H   0  0  0  0  0  0  0  0  0  0  0  0
    1.7804   -5.8536    2.9711 H   0  0  0  0  0  0  0  0  0  0  0  0
    0.9621   -3.6177    3.4680 H   0  0  0  0  0  0  0  0  0  0  0  0
    2.4195   -1.7995    3.5838 H   0  0  0  0  0  0  0  0  0  0  0  0
    3.3857    0.1390    2.7551 H   0  0  0  0  0  0  0  0  0  0  0  0
    4.6589    1.8399    3.0334 H   0  0  0  0  0  0  0  0  0  0  0  0
    4.4589    3.4068    2.2244 H   0  0  0  0  0  0  0  0  0  0  0  0
    3.0666    2.3122    2.3493 H   0  0  0  0  0  0  0  0  0  0  0  0
    4.4739    2.5647   -1.0395 H   0  0  0  0  0  0  0  0  0  0  0  0
    5.6504    2.2166   -2.3371 H   0  0  0  0  0  0  0  0  0  0  0  0
    5.9892    1.6942   -0.6628 H   0  0  0  0  0  0  0  0  0  0  0  0
    3.0312   -3.7485   -1.8910 H   0  0  0  0  0  0  0  0  0  0  0  0
    1.6323   -2.6394   -2.0871 H   0  0  0  0  0  0  0  0  0  0  0  0
    2.6496   -3.0522   -3.4796 H   0  0  0  0  0  0  0  0  0  0  0  0
    2.4682   -2.9720    0.0303 H   0  0  0  0  0  0  0  0  0  0  0  0
    0.7842    0.4334   -0.8278 H   0  0  0  0  0  0  0  0  0  0  0  0
    1.2713    2.3030    0.6810 H   0  0  0  0  0  0  0  0  0  0  0  0
  1  2  1  0  0  0  0
  2  3  1  0  0  0  0
  3  4  2  0  0  0  0
  4  5  1  0  0  0  0
  5  6  2  0  0  0  0
  6  7  1  0  0  0  0
  7  8  2  0  0  0  0
  8  9  1  0  0  0  0
  9 10  1  0  0  0  0
 10 11  2  0  0  0  0
 11 12  1  0  0  0  0
 12 13  2  0  0  0  0
 13 14  1  0  0  0  0
 14 15  1  0  0  0  0
 15 16  1  0  0  0  0
 14 17  2  0  0  0  0
 17 18  1  0  0  0  0
 18 19  1  0  0  0  0
 17 20  1  0  0  0  0
 20 21  1  0  0  0  0
 21 22  1  0  0  0  0
 20 23  2  0  0  0  0
  9 24  2  0  0  0  0
 24 25  1  0  0  0  0
 25 26  2  0  0  0  0
 24 27  1  0  0  0  0
 27 28  1  0  0  0  0
 27 29  2  0  0  0  0
 29 30  1  0  0  0  0
 30 31  1  0  0  0  0
 30 32  1  0  0  0  0
 30 33  1  0  0  0  0
 33 34  1  0  0  0  0
 34 35  1  0  0  0  0
 34 36  2  0  0  0  0
 36 37  1  0  0  0  0
 37 38  2  0  0  0  0
 36 39  1  0  0  0  0
 39 40  1  0  0  0  0
 40 41  2  0  0  0  0
 41 42  1  0  0  0  0
 42 43  2  0  0  0  0
 43 44  1  0  0  0  0
 44 45  1  0  0  0  0
 45 46  1  0  0  0  0
 44 47  2  0  0  0  0
 47 48  1  0  0  0  0
 48 49  1  0  0  0  0
 47 50  1  0  0  0  0
 50 51  1  0  0  0  0
 51 52  1  0  0  0  0
 50 53  2  0  0  0  0
 39 54  2  0  0  0  0
  6 55  1  0  0  0  0
 55 56  2  0  0  0  0
 56  3  1  0  0  0  0
 54  7  1  0  0  0  0
 29  8  1  0  0  0  0
 54 33  1  0  0  0  0
 23 12  1  0  0  0  0
 53 42  1  0  0  0  0
  1 57  1  0  0  0  0
  1 58  1  0  0  0  0
  1 59  1  0  0  0  0
  4 60  1  0  0  0  0
  5 61  1  0  0  0  0
 10 62  1  0  0  0  0
 11 63  1  0  0  0  0
 13 64  1  0  0  0  0
 16 65  1  0  0  0  0
 16 66  1  0  0  0  0
 16 67  1  0  0  0  0
 19 68  1  0  0  0  0
 19 69  1  0  0  0  0
 19 70  1  0  0  0  0
 22 71  1  0  0  0  0
 22 72  1  0  0  0  0
 22 73  1  0  0  0  0
 23 74  1  0  0  0  0
 25 75  1  0  0  0  0
 28 76  1  0  0  0  0
 28 77  1  0  0  0  0
 28 78  1  0  0  0  0
 35 79  1  0  0  0  0
 35 80  1  0  0  0  0
 35 81  1  0  0  0  0
 37 82  1  0  0  0  0
 40 83  1  0  0  0  0
 41 84  1  0  0  0  0
 43 85  1  0  0  0  0
 46 86  1  0  0  0  0
 46 87  1  0  0  0  0
 46 88  1  0  0  0  0
 49 89  1  0  0  0  0
 49 90  1  0  0  0  0
 49 91  1  0  0  0  0
 52 92  1  0  0  0  0
 52 93  1  0  0  0  0
 52 94  1  0  0  0  0
 53 95  1  0  0  0  0
 55 96  1  0  0  0  0
 56 97  1  0  0  0  0
M  CHG  1  29   1
M  CHG  1  30  -1
M  END
