
  xtb     03012221233D
 energy: -3.882020186654 gnorm: 0.000505299458 xtb: 6.4.1 (afa7bdf)
 17 18  0     0  0            999 V2000
    2.7180    2.9443   -0.6769 N   0  0  0  0  0  0  0  0  0  0  0  0
    2.2275    1.9132   -0.4662 C   0  0  0  0  0  0  0  0  0  0  0  0
    1.6159    0.6795   -0.2112 C   0  0  0  0  0  0  0  0  0  0  0  0
    2.2336   -0.5395   -0.0264 C   0  0  0  0  0  0  0  0  0  0  0  0
    1.2908   -1.5082    0.1994 N   0  0  0  0  0  0  0  0  0  0  0  0
    0.0337   -0.9288    0.1647 C   0  0  0  0  0  0  0  0  0  0  0  0
   -1.2511   -1.4582    0.3307 C   0  0  0  0  0  0  0  0  0  0  0  0
   -2.3237   -0.6125    0.2380 C   0  0  0  0  0  0  0  0  0  0  0  0
   -2.1503    0.7569   -0.0175 C   0  0  0  0  0  0  0  0  0  0  0  0
   -0.9026    1.2929   -0.1826 C   0  0  0  0  0  0  0  0  0  0  0  0
    0.2105    0.4434   -0.0914 C   0  0  0  0  0  0  0  0  0  0  0  0
    3.2984   -0.7074   -0.0548 H   0  0  0  0  0  0  0  0  0  0  0  0
    1.4677   -2.5002    0.3678 H   0  0  0  0  0  0  0  0  0  0  0  0
   -1.3751   -2.5082    0.5261 H   0  0  0  0  0  0  0  0  0  0  0  0
   -3.3199   -1.0031    0.3632 H   0  0  0  0  0  0  0  0  0  0  0  0
   -3.0157    1.3950   -0.0843 H   0  0  0  0  0  0  0  0  0  0  0  0
   -0.7580    2.3406   -0.3786 H   0  0  0  0  0  0  0  0  0  0  0  0
  1  2  3  0  0  0  0
  2  3  1  0  0  0  0
  3  4  2  0  0  0  0
  4  5  1  0  0  0  0
  5  6  1  0  0  0  0
  6  7  2  0  0  0  0
  7  8  1  0  0  0  0
  8  9  2  0  0  0  0
  9 10  1  0  0  0  0
 10 11  2  0  0  0  0
 11  3  1  0  0  0  0
 11  6  1  0  0  0  0
  4 12  1  0  0  0  0
  5 13  1  0  0  0  0
  7 14  1  0  0  0  0
  8 15  1  0  0  0  0
  9 16  1  0  0  0  0
 10 17  1  0  0  0  0
M  END
