
  xtb     03012221293D
 energy: -6.026603650438 gnorm: 0.000301730118 xtb: 6.4.1 (afa7bdf)
 27 28  0     0  0            999 V2000
   -2.0223   -1.8629    2.1465 N   0  0  0  0  0  0  0  0  0  0  0  0
   -1.6626   -0.9013    1.6014 C   0  0  0  0  0  0  0  0  0  0  0  0
   -1.2307    0.2637    0.9709 C   0  0  0  0  0  0  0  0  0  0  0  0
   -1.9109    1.4660    1.2469 C   0  0  0  0  0  0  0  0  0  0  0  0
   -2.9652    1.4455    2.1378 N   0  0  0  0  0  0  0  0  0  0  0  0
   -1.5880    2.6341    0.6858 N   0  0  0  0  0  0  0  0  0  0  0  0
   -0.5678    2.6463   -0.1759 C   0  0  0  0  0  0  0  0  0  0  0  0
   -0.2263    3.8502   -0.7585 N   0  0  0  0  0  0  0  0  0  0  0  0
    0.1708    1.4948   -0.5123 C   0  0  0  0  0  0  0  0  0  0  0  0
    1.2270    1.6250   -1.4117 C   0  0  0  0  0  0  0  0  0  0  0  0
    2.0951    1.7443   -2.1754 N   0  0  0  0  0  0  0  0  0  0  0  0
   -0.1601    0.2658    0.0696 C   0  0  0  0  0  0  0  0  0  0  0  0
    0.5865   -0.9713   -0.2518 C   0  0  0  0  0  0  0  0  0  0  0  0
    0.9488   -1.8759    0.7511 C   0  0  0  0  0  0  0  0  0  0  0  0
    1.6394   -3.0246    0.4536 C   0  0  0  0  0  0  0  0  0  0  0  0
    1.9929   -3.3012   -0.8566 C   0  0  0  0  0  0  0  0  0  0  0  0
    2.8635   -4.7426   -1.2306 Cl  0  0  0  0  0  0  0  0  0  0  0  0
    1.6463   -2.4182   -1.8657 C   0  0  0  0  0  0  0  0  0  0  0  0
    0.9517   -1.2721   -1.5676 C   0  0  0  0  0  0  0  0  0  0  0  0
   -3.5084    2.2723    2.3319 H   0  0  0  0  0  0  0  0  0  0  0  0
   -3.3203    0.6060    2.5732 H   0  0  0  0  0  0  0  0  0  0  0  0
    0.5474    3.9695   -1.3968 H   0  0  0  0  0  0  0  0  0  0  0  0
   -0.7092    4.7053   -0.5301 H   0  0  0  0  0  0  0  0  0  0  0  0
    0.6765   -1.6635    1.7706 H   0  0  0  0  0  0  0  0  0  0  0  0
    1.9109   -3.7227    1.2273 H   0  0  0  0  0  0  0  0  0  0  0  0
    1.9322   -2.6438   -2.8792 H   0  0  0  0  0  0  0  0  0  0  0  0
    0.6829   -0.5887   -2.3545 H   0  0  0  0  0  0  0  0  0  0  0  0
  1  2  3  0  0  0  0
  2  3  1  0  0  0  0
  3  4  2  0  0  0  0
  4  5  1  0  0  0  0
  4  6  1  0  0  0  0
  6  7  2  0  0  0  0
  7  8  1  0  0  0  0
  7  9  1  0  0  0  0
  9 10  1  0  0  0  0
 10 11  3  0  0  0  0
  9 12  2  0  0  0  0
 12 13  1  0  0  0  0
 13 14  2  0  0  0  0
 14 15  1  0  0  0  0
 15 16  2  0  0  0  0
 16 17  1  0  0  0  0
 16 18  1  0  0  0  0
 18 19  2  0  0  0  0
 12  3  1  0  0  0  0
 19 13  1  0  0  0  0
  5 20  1  0  0  0  0
  5 21  1  0  0  0  0
  8 22  1  0  0  0  0
  8 23  1  0  0  0  0
 14 24  1  0  0  0  0
 15 25  1  0  0  0  0
 18 26  1  0  0  0  0
 19 27  1  0  0  0  0
M  END
