
  xtb     03012221283D
 energy: -11.171245245363 gnorm: 0.000082042253 xtb: 6.4.1 (afa7bdf)
 60 63  0     0  0            999 V2000
   -1.2929   -1.9651    1.3922 C   0  0  0  0  0  0  0  0  0  0  0  0
   -0.6261   -0.9077    0.5830 C   0  0  0  0  0  0  0  0  0  0  0  0
    0.7827   -0.9033    0.5207 C   0  0  0  0  0  0  0  0  0  0  0  0
    1.5273    0.0336   -0.1662 C   0  0  0  0  0  0  0  0  0  0  0  0
    2.9981   -0.0134   -0.1934 C   0  0  0  0  0  0  0  0  0  0  0  0
    3.7096   -1.1426    0.2145 C   0  0  0  0  0  0  0  0  0  0  0  0
    5.0872   -1.1623    0.2046 C   0  0  0  0  0  0  0  0  0  0  0  0
    5.8231   -0.0608   -0.2136 C   0  0  0  0  0  0  0  0  0  0  0  0
    7.3586   -0.0514   -0.2397 C   0  0  0  0  0  0  0  0  0  0  0  0
    7.8396    0.1261   -1.6901 C   0  0  0  0  0  0  0  0  0  0  0  0
    7.9477   -1.3628    0.3119 C   0  0  0  0  0  0  0  0  0  0  0  0
    7.8777    1.1117    0.6241 C   0  0  0  0  0  0  0  0  0  0  0  0
    5.1196    1.0590   -0.6339 C   0  0  0  0  0  0  0  0  0  0  0  0
    3.7442    1.0803   -0.6264 C   0  0  0  0  0  0  0  0  0  0  0  0
    0.7981    1.0764   -0.8407 C   0  0  0  0  0  0  0  0  0  0  0  0
    1.2851    2.0849   -1.5356 N   0  0  0  0  0  0  0  0  0  0  0  0
    0.0339    2.9831   -2.1013 S   0  0  0  0  0  0  0  0  0  0  0  0
   -1.1841    2.0910   -1.4590 N   0  0  0  0  0  0  0  0  0  0  0  0
   -0.6532    1.0834   -0.7964 C   0  0  0  0  0  0  0  0  0  0  0  0
   -1.3673    0.0568   -0.0879 C   0  0  0  0  0  0  0  0  0  0  0  0
   -2.8447    0.0843   -0.0873 C   0  0  0  0  0  0  0  0  0  0  0  0
   -3.5298    1.2570    0.2212 C   0  0  0  0  0  0  0  0  0  0  0  0
   -4.9057    1.2976    0.2180 C   0  0  0  0  0  0  0  0  0  0  0  0
   -5.6576    0.1732   -0.1017 C   0  0  0  0  0  0  0  0  0  0  0  0
   -7.1929    0.1867   -0.1277 C   0  0  0  0  0  0  0  0  0  0  0  0
   -7.6762   -0.0708   -1.5650 C   0  0  0  0  0  0  0  0  0  0  0  0
   -7.7607    1.5383    0.3430 C   0  0  0  0  0  0  0  0  0  0  0  0
   -7.7325   -0.9124    0.8046 C   0  0  0  0  0  0  0  0  0  0  0  0
   -4.9734   -0.9901   -0.4309 C   0  0  0  0  0  0  0  0  0  0  0  0
   -3.5978   -1.0381   -0.4264 C   0  0  0  0  0  0  0  0  0  0  0  0
   -1.4723   -2.8593    0.7941 H   0  0  0  0  0  0  0  0  0  0  0  0
   -2.2495   -1.6189    1.7856 H   0  0  0  0  0  0  0  0  0  0  0  0
   -0.6768   -2.2528    2.2453 H   0  0  0  0  0  0  0  0  0  0  0  0
    1.2955   -1.6722    1.0674 H   0  0  0  0  0  0  0  0  0  0  0  0
    3.1775   -2.0235    0.5255 H   0  0  0  0  0  0  0  0  0  0  0  0
    5.5962   -2.0533    0.5269 H   0  0  0  0  0  0  0  0  0  0  0  0
    8.9282    0.1233   -1.7434 H   0  0  0  0  0  0  0  0  0  0  0  0
    7.4873    1.0670   -2.1112 H   0  0  0  0  0  0  0  0  0  0  0  0
    7.4684   -0.6821   -2.3201 H   0  0  0  0  0  0  0  0  0  0  0  0
    7.6354   -2.2172   -0.2883 H   0  0  0  0  0  0  0  0  0  0  0  0
    9.0372   -1.3327    0.2982 H   0  0  0  0  0  0  0  0  0  0  0  0
    7.6353   -1.5296    1.3426 H   0  0  0  0  0  0  0  0  0  0  0  0
    8.9673    1.1260    0.6446 H   0  0  0  0  0  0  0  0  0  0  0  0
    7.5405    2.0735    0.2398 H   0  0  0  0  0  0  0  0  0  0  0  0
    7.5220    1.0175    1.6500 H   0  0  0  0  0  0  0  0  0  0  0  0
    5.6599    1.9241   -0.9776 H   0  0  0  0  0  0  0  0  0  0  0  0
    3.2267    1.9557   -0.9691 H   0  0  0  0  0  0  0  0  0  0  0  0
   -2.9604    2.1397    0.4565 H   0  0  0  0  0  0  0  0  0  0  0  0
   -5.3994    2.2209    0.4636 H   0  0  0  0  0  0  0  0  0  0  0  0
   -8.7649   -0.0545   -1.6201 H   0  0  0  0  0  0  0  0  0  0  0  0
   -7.2922    0.6920   -2.2425 H   0  0  0  0  0  0  0  0  0  0  0  0
   -7.3377   -1.0409   -1.9279 H   0  0  0  0  0  0  0  0  0  0  0  0
   -7.4385    1.7662    1.3592 H   0  0  0  0  0  0  0  0  0  0  0  0
   -8.8509    1.5225    0.3381 H   0  0  0  0  0  0  0  0  0  0  0  0
   -7.4420    2.3490   -0.3123 H   0  0  0  0  0  0  0  0  0  0  0  0
   -7.3769   -0.7613    1.8240 H   0  0  0  0  0  0  0  0  0  0  0  0
   -8.8226   -0.9072    0.8234 H   0  0  0  0  0  0  0  0  0  0  0  0
   -7.4120   -1.9022    0.4812 H   0  0  0  0  0  0  0  0  0  0  0  0
   -5.5304   -1.8697   -0.7035 H   0  0  0  0  0  0  0  0  0  0  0  0
   -3.0883   -1.9426   -0.7098 H   0  0  0  0  0  0  0  0  0  0  0  0
  1  2  1  0  0  0  0
  2  3  1  0  0  0  0
  3  4  2  0  0  0  0
  4  5  1  0  0  0  0
  5  6  2  0  0  0  0
  6  7  1  0  0  0  0
  7  8  2  0  0  0  0
  8  9  1  0  0  0  0
  9 10  1  0  0  0  0
  9 11  1  0  0  0  0
  9 12  1  0  0  0  0
  8 13  1  0  0  0  0
 13 14  2  0  0  0  0
  4 15  1  0  0  0  0
 15 16  2  0  0  0  0
 16 17  1  0  0  0  0
 17 18  1  0  0  0  0
 18 19  2  0  0  0  0
 19 20  1  0  0  0  0
 20 21  1  0  0  0  0
 21 22  2  0  0  0  0
 22 23  1  0  0  0  0
 23 24  2  0  0  0  0
 24 25  1  0  0  0  0
 25 26  1  0  0  0  0
 25 27  1  0  0  0  0
 25 28  1  0  0  0  0
 24 29  1  0  0  0  0
 29 30  2  0  0  0  0
 20  2  2  0  0  0  0
 30 21  1  0  0  0  0
 14  5  1  0  0  0  0
 19 15  1  0  0  0  0
  1 31  1  0  0  0  0
  1 32  1  0  0  0  0
  1 33  1  0  0  0  0
  3 34  1  0  0  0  0
  6 35  1  0  0  0  0
  7 36  1  0  0  0  0
 10 37  1  0  0  0  0
 10 38  1  0  0  0  0
 10 39  1  0  0  0  0
 11 40  1  0  0  0  0
 11 41  1  0  0  0  0
 11 42  1  0  0  0  0
 12 43  1  0  0  0  0
 12 44  1  0  0  0  0
 12 45  1  0  0  0  0
 13 46  1  0  0  0  0
 14 47  1  0  0  0  0
 22 48  1  0  0  0  0
 23 49  1  0  0  0  0
 26 50  1  0  0  0  0
 26 51  1  0  0  0  0
 26 52  1  0  0  0  0
 27 53  1  0  0  0  0
 27 54  1  0  0  0  0
 27 55  1  0  0  0  0
 28 56  1  0  0  0  0
 28 57  1  0  0  0  0
 28 58  1  0  0  0  0
 29 59  1  0  0  0  0
 30 60  1  0  0  0  0
M  END
