
  xtb     03012221313D
 energy: -11.020719030004 gnorm: 0.000230993947 xtb: 6.4.1 (afa7bdf)
 56 59  0     0  0            999 V2000
   -1.9740   -2.3801   -3.2615 C   0  0  0  0  0  0  0  0  0  0  0  0
   -0.5293   -2.0943   -2.9152 C   0  0  0  0  0  0  0  0  0  0  0  0
   -0.3898   -1.6223   -1.5976 O   0  0  0  0  0  0  0  0  0  0  0  0
   -0.9281   -0.3685   -1.4845 C   0  0  0  0  0  0  0  0  0  0  0  0
   -1.3666    0.2565   -2.4335 O   0  0  0  0  0  0  0  0  0  0  0  0
   -0.9606    0.2302   -0.1212 C   0  0  0  0  0  0  0  0  0  0  0  0
    0.1402    0.5899    0.7120 C   0  0  0  0  0  0  0  0  0  0  0  0
    1.5695    0.4324    0.4613 C   0  0  0  0  0  0  0  0  0  0  0  0
    2.0315   -0.2591   -0.6093 C   0  0  0  0  0  0  0  0  0  0  0  0
    3.4109   -0.3883   -0.8703 C   0  0  0  0  0  0  0  0  0  0  0  0
    3.9051   -1.0889   -1.9775 C   0  0  0  0  0  0  0  0  0  0  0  0
    5.2469   -1.1832   -2.1988 C   0  0  0  0  0  0  0  0  0  0  0  0
    6.1731   -0.5826   -1.3258 C   0  0  0  0  0  0  0  0  0  0  0  0
    7.5249   -0.7273   -1.6302 O   0  0  0  0  0  0  0  0  0  0  0  0
    8.4054   -0.0970   -0.7325 C   0  0  0  0  0  0  0  0  0  0  0  0
    5.6822    0.1095   -0.2261 C   0  0  0  0  0  0  0  0  0  0  0  0
    4.3179    0.2167    0.0182 C   0  0  0  0  0  0  0  0  0  0  0  0
    3.8893    0.9125    1.1323 O   0  0  0  0  0  0  0  0  0  0  0  0
    2.5409    1.0318    1.3885 C   0  0  0  0  0  0  0  0  0  0  0  0
    2.1429    1.6269    2.3782 O   0  0  0  0  0  0  0  0  0  0  0  0
   -0.3197    1.1584    1.8086 N   0  0  0  0  0  0  0  0  0  0  0  0
   -1.6404    1.1989    1.7368 N   0  0  0  0  0  0  0  0  0  0  0  0
   -2.3000    1.7803    2.8838 C   0  0  0  0  0  0  0  0  0  0  0  0
   -3.6677    1.9765    2.9741 C   0  0  0  0  0  0  0  0  0  0  0  0
   -4.2236    2.5314    4.1027 C   0  0  0  0  0  0  0  0  0  0  0  0
   -3.4215    2.9042    5.1598 C   0  0  0  0  0  0  0  0  0  0  0  0
   -2.0575    2.7248    5.0788 C   0  0  0  0  0  0  0  0  0  0  0  0
   -1.5031    2.1693    3.9495 C   0  0  0  0  0  0  0  0  0  0  0  0
   -2.1010    0.6257    0.5502 C   0  0  0  0  0  0  0  0  0  0  0  0
   -3.4909    0.4028    0.0964 C   0  0  0  0  0  0  0  0  0  0  0  0
   -4.3743    1.1855    0.3931 O   0  0  0  0  0  0  0  0  0  0  0  0
   -3.7256   -0.7269   -0.6413 O   0  0  0  0  0  0  0  0  0  0  0  0
   -5.0841   -0.7705   -1.0026 C   0  0  0  0  0  0  0  0  0  0  0  0
   -5.4529   -2.0322   -1.7526 C   0  0  0  0  0  0  0  0  0  0  0  0
   -2.3919   -3.1209   -2.5785 H   0  0  0  0  0  0  0  0  0  0  0  0
   -2.5656   -1.4688   -3.1511 H   0  0  0  0  0  0  0  0  0  0  0  0
   -2.0929   -2.7450   -4.2836 H   0  0  0  0  0  0  0  0  0  0  0  0
   -0.1004   -1.3326   -3.5805 H   0  0  0  0  0  0  0  0  0  0  0  0
    0.0919   -2.9946   -3.0037 H   0  0  0  0  0  0  0  0  0  0  0  0
    1.3383   -0.7452   -1.2663 H   0  0  0  0  0  0  0  0  0  0  0  0
    3.2072   -1.5523   -2.6561 H   0  0  0  0  0  0  0  0  0  0  0  0
    5.6283   -1.7194   -3.0500 H   0  0  0  0  0  0  0  0  0  0  0  0
    9.4262   -0.2709   -1.0745 H   0  0  0  0  0  0  0  0  0  0  0  0
    8.2862   -0.5249    0.2638 H   0  0  0  0  0  0  0  0  0  0  0  0
    8.2130    0.9766   -0.7186 H   0  0  0  0  0  0  0  0  0  0  0  0
    6.3482    0.5822    0.4697 H   0  0  0  0  0  0  0  0  0  0  0  0
   -4.2847    1.7142    2.1385 H   0  0  0  0  0  0  0  0  0  0  0  0
   -5.2912    2.6809    4.1574 H   0  0  0  0  0  0  0  0  0  0  0  0
   -3.8582    3.3406    6.0429 H   0  0  0  0  0  0  0  0  0  0  0  0
   -1.4224    3.0233    5.8988 H   0  0  0  0  0  0  0  0  0  0  0  0
   -0.4383    2.0383    3.8595 H   0  0  0  0  0  0  0  0  0  0  0  0
   -5.2805    0.1325   -1.5987 H   0  0  0  0  0  0  0  0  0  0  0  0
   -5.6633   -0.6700   -0.0735 H   0  0  0  0  0  0  0  0  0  0  0  0
   -6.5161   -2.0695   -1.9934 H   0  0  0  0  0  0  0  0  0  0  0  0
   -4.8958   -2.1037   -2.6859 H   0  0  0  0  0  0  0  0  0  0  0  0
   -5.2084   -2.9136   -1.1602 H   0  0  0  0  0  0  0  0  0  0  0  0
  1  2  1  0  0  0  0
  2  3  1  0  0  0  0
  3  4  1  0  0  0  0
  4  5  2  0  0  0  0
  4  6  1  0  0  0  0
  6  7  1  0  0  0  0
  7  8  1  0  0  0  0
  8  9  2  0  0  0  0
  9 10  1  0  0  0  0
 10 11  2  0  0  0  0
 11 12  1  0  0  0  0
 12 13  2  0  0  0  0
 13 14  1  0  0  0  0
 14 15  1  0  0  0  0
 13 16  1  0  0  0  0
 16 17  2  0  0  0  0
 17 18  1  0  0  0  0
 18 19  1  0  0  0  0
 19 20  2  0  0  0  0
  7 21  2  0  0  0  0
 21 22  1  0  0  0  0
 22 23  1  0  0  0  0
 23 24  2  0  0  0  0
 24 25  1  0  0  0  0
 25 26  2  0  0  0  0
 26 27  1  0  0  0  0
 27 28  2  0  0  0  0
 22 29  1  0  0  0  0
 29 30  1  0  0  0  0
 30 31  2  0  0  0  0
 30 32  1  0  0  0  0
 32 33  1  0  0  0  0
 33 34  1  0  0  0  0
 29  6  2  0  0  0  0
 19  8  1  0  0  0  0
 28 23  1  0  0  0  0
 17 10  1  0  0  0  0
  1 35  1  0  0  0  0
  1 36  1  0  0  0  0
  1 37  1  0  0  0  0
  2 38  1  0  0  0  0
  2 39  1  0  0  0  0
  9 40  1  0  0  0  0
 11 41  1  0  0  0  0
 12 42  1  0  0  0  0
 15 43  1  0  0  0  0
 15 44  1  0  0  0  0
 15 45  1  0  0  0  0
 16 46  1  0  0  0  0
 24 47  1  0  0  0  0
 25 48  1  0  0  0  0
 26 49  1  0  0  0  0
 27 50  1  0  0  0  0
 28 51  1  0  0  0  0
 33 52  1  0  0  0  0
 33 53  1  0  0  0  0
 34 54  1  0  0  0  0
 34 55  1  0  0  0  0
 34 56  1  0  0  0  0
M  END
