
  xtb     03012221313D
 energy: -10.318056934970 gnorm: 0.000169213942 xtb: 6.4.1 (afa7bdf)
 50 55  0     0  0            999 V2000
   -2.4093   -1.6421    2.7212 O   0  0  0  0  0  0  0  0  0  0  0  0
   -3.0408   -1.7467    1.5036 C   0  0  0  0  0  0  0  0  0  0  0  0
   -4.3614   -2.1957    1.4030 C   0  0  0  0  0  0  0  0  0  0  0  0
   -4.9923   -2.2638    0.1850 C   0  0  0  0  0  0  0  0  0  0  0  0
   -4.3262   -1.8906   -0.9694 C   0  0  0  0  0  0  0  0  0  0  0  0
   -3.0242   -1.4534   -0.9002 C   0  0  0  0  0  0  0  0  0  0  0  0
   -2.3581   -1.3710    0.3214 C   0  0  0  0  0  0  0  0  0  0  0  0
   -0.9472   -0.9256    0.3863 C   0  0  0  0  0  0  0  0  0  0  0  0
   -0.0577   -1.8407    0.7856 N   0  0  0  0  0  0  0  0  0  0  0  0
    1.2250   -1.5120    0.7657 C   0  0  0  0  0  0  0  0  0  0  0  0
    1.7126   -0.2704    0.3374 C   0  0  0  0  0  0  0  0  0  0  0  0
    0.7906    0.6617   -0.1519 C   0  0  0  0  0  0  0  0  0  0  0  0
   -0.5678    0.3577   -0.0638 C   0  0  0  0  0  0  0  0  0  0  0  0
   -1.5584    1.3809   -0.4748 C   0  0  0  0  0  0  0  0  0  0  0  0
   -2.8188    1.4792    0.1132 C   0  0  0  0  0  0  0  0  0  0  0  0
   -3.7164    2.4434   -0.2858 C   0  0  0  0  0  0  0  0  0  0  0  0
   -3.3673    3.3445   -1.2687 C   0  0  0  0  0  0  0  0  0  0  0  0
   -2.1115    3.2923   -1.8363 C   0  0  0  0  0  0  0  0  0  0  0  0
   -1.1980    2.3288   -1.4430 C   0  0  0  0  0  0  0  0  0  0  0  0
    0.2047    2.3138   -1.9772 C   0  0  0  0  0  0  0  0  0  0  0  0
    1.2066    1.9208   -0.8719 C   0  0  0  0  0  0  0  0  0  0  0  0
    3.1778   -0.0338    0.3798 C   0  0  0  0  0  0  0  0  0  0  0  0
    3.7289    1.2310    0.5804 C   0  0  0  0  0  0  0  0  0  0  0  0
    5.0923    1.4198    0.6038 C   0  0  0  0  0  0  0  0  0  0  0  0
    5.9407    0.3435    0.4526 C   0  0  0  0  0  0  0  0  0  0  0  0
    5.4199   -0.9260    0.3097 C   0  0  0  0  0  0  0  0  0  0  0  0
    4.0505   -1.1296    0.2886 C   0  0  0  0  0  0  0  0  0  0  0  0
    3.4754   -2.5159    0.2677 C   0  0  0  0  0  0  0  0  0  0  0  0
    2.2078   -2.5855    1.1399 C   0  0  0  0  0  0  0  0  0  0  0  0
   -3.0040   -1.9630    3.4355 H   0  0  0  0  0  0  0  0  0  0  0  0
   -4.8827   -2.4819    2.2985 H   0  0  0  0  0  0  0  0  0  0  0  0
   -6.0119   -2.6092    0.1271 H   0  0  0  0  0  0  0  0  0  0  0  0
   -4.8265   -1.9459   -1.9216 H   0  0  0  0  0  0  0  0  0  0  0  0
   -2.4984   -1.1691   -1.7957 H   0  0  0  0  0  0  0  0  0  0  0  0
   -3.0832    0.7954    0.8996 H   0  0  0  0  0  0  0  0  0  0  0  0
   -4.6900    2.4957    0.1723 H   0  0  0  0  0  0  0  0  0  0  0  0
   -4.0703    4.1000   -1.5828 H   0  0  0  0  0  0  0  0  0  0  0  0
   -1.8274    4.0117   -2.5843 H   0  0  0  0  0  0  0  0  0  0  0  0
    0.2633    1.6014   -2.8075 H   0  0  0  0  0  0  0  0  0  0  0  0
    0.4529    3.2948   -2.3996 H   0  0  0  0  0  0  0  0  0  0  0  0
    2.2056    1.7867   -1.3038 H   0  0  0  0  0  0  0  0  0  0  0  0
    1.2826    2.7386   -0.1465 H   0  0  0  0  0  0  0  0  0  0  0  0
    3.0784    2.0676    0.7652 H   0  0  0  0  0  0  0  0  0  0  0  0
    5.4970    2.4080    0.7493 H   0  0  0  0  0  0  0  0  0  0  0  0
    7.0084    0.4903    0.4697 H   0  0  0  0  0  0  0  0  0  0  0  0
    6.0784   -1.7739    0.2305 H   0  0  0  0  0  0  0  0  0  0  0  0
    4.2262   -3.2376    0.6103 H   0  0  0  0  0  0  0  0  0  0  0  0
    3.2364   -2.7898   -0.7657 H   0  0  0  0  0  0  0  0  0  0  0  0
    2.4695   -2.4722    2.1977 H   0  0  0  0  0  0  0  0  0  0  0  0
    1.7180   -3.5623    1.0500 H   0  0  0  0  0  0  0  0  0  0  0  0
  1  2  1  0  0  0  0
  2  3  2  0  0  0  0
  3  4  1  0  0  0  0
  4  5  2  0  0  0  0
  5  6  1  0  0  0  0
  6  7  2  0  0  0  0
  7  8  1  0  0  0  0
  8  9  2  0  0  0  0
  9 10  1  0  0  0  0
 10 11  2  0  0  0  0
 11 12  1  0  0  0  0
 12 13  2  0  0  0  0
 13 14  1  0  0  0  0
 14 15  2  0  0  0  0
 15 16  1  0  0  0  0
 16 17  2  0  0  0  0
 17 18  1  0  0  0  0
 18 19  2  0  0  0  0
 19 20  1  0  0  0  0
 20 21  1  0  0  0  0
 11 22  1  0  0  0  0
 22 23  2  0  0  0  0
 23 24  1  0  0  0  0
 24 25  2  0  0  0  0
 25 26  1  0  0  0  0
 26 27  2  0  0  0  0
 27 28  1  0  0  0  0
 28 29  1  0  0  0  0
  7  2  1  0  0  0  0
 13  8  1  0  0  0  0
 19 14  1  0  0  0  0
 27 22  1  0  0  0  0
 29 10  1  0  0  0  0
 21 12  1  0  0  0  0
  1 30  1  0  0  0  0
  3 31  1  0  0  0  0
  4 32  1  0  0  0  0
  5 33  1  0  0  0  0
  6 34  1  0  0  0  0
 15 35  1  0  0  0  0
 16 36  1  0  0  0  0
 17 37  1  0  0  0  0
 18 38  1  0  0  0  0
 20 39  1  0  0  0  0
 20 40  1  0  0  0  0
 21 41  1  0  0  0  0
 21 42  1  0  0  0  0
 23 43  1  0  0  0  0
 24 44  1  0  0  0  0
 25 45  1  0  0  0  0
 26 46  1  0  0  0  0
 28 47  1  0  0  0  0
 28 48  1  0  0  0  0
 29 49  1  0  0  0  0
 29 50  1  0  0  0  0
M  END
