
  xtb     03012221243D
 energy: -3.308380714982 gnorm: 0.000200609566 xtb: 6.4.1 (afa7bdf)
 18 18  0     0  0            999 V2000
   -2.8285    0.5053    0.3837 C   0  0  0  0  0  0  0  0  0  0  0  0
   -1.8530   -0.5685    0.3569 N   0  0  0  0  0  0  0  0  0  0  0  0
   -0.4873   -0.3738    0.0690 C   0  0  0  0  0  0  0  0  0  0  0  0
    0.3323   -1.4710   -0.1906 C   0  0  0  0  0  0  0  0  0  0  0  0
    1.6677   -1.3022   -0.4706 C   0  0  0  0  0  0  0  0  0  0  0  0
    2.2369   -0.0302   -0.5018 C   0  0  0  0  0  0  0  0  0  0  0  0
    3.5897    0.1131   -0.7881 O   0  0  0  0  0  0  0  0  0  0  0  0
    1.4179    1.0680   -0.2406 C   0  0  0  0  0  0  0  0  0  0  0  0
    0.0820    0.8984    0.0398 C   0  0  0  0  0  0  0  0  0  0  0  0
   -2.8404    1.0287   -0.5720 H   0  0  0  0  0  0  0  0  0  0  0  0
   -3.8326    0.1306    0.5855 H   0  0  0  0  0  0  0  0  0  0  0  0
   -2.5745    1.2179    1.1672 H   0  0  0  0  0  0  0  0  0  0  0  0
   -2.2599   -1.4840    0.1656 H   0  0  0  0  0  0  0  0  0  0  0  0
   -0.0958   -2.4578   -0.1660 H   0  0  0  0  0  0  0  0  0  0  0  0
    2.3004   -2.1485   -0.6704 H   0  0  0  0  0  0  0  0  0  0  0  0
    3.8340    1.0643   -0.7690 H   0  0  0  0  0  0  0  0  0  0  0  0
    1.8463    2.0543   -0.2600 H   0  0  0  0  0  0  0  0  0  0  0  0
   -0.5355    1.7551    0.2424 H   0  0  0  0  0  0  0  0  0  0  0  0
  1  2  1  0  0  0  0
  2  3  1  0  0  0  0
  3  4  2  0  0  0  0
  4  5  1  0  0  0  0
  5  6  2  0  0  0  0
  6  7  1  0  0  0  0
  6  8  1  0  0  0  0
  8  9  2  0  0  0  0
  9  3  1  0  0  0  0
  1 10  1  0  0  0  0
  1 11  1  0  0  0  0
  1 12  1  0  0  0  0
  2 13  1  0  0  0  0
  4 14  1  0  0  0  0
  5 15  1  0  0  0  0
  7 16  1  0  0  0  0
  8 17  1  0  0  0  0
  9 18  1  0  0  0  0
M  END
