
  xtb     03012221243D
 energy: -10.852836869939 gnorm: 0.000210083426 xtb: 6.4.1 (afa7bdf)
 53 56  0     0  0            999 V2000
    4.7601   -3.9489    3.9131 C   0  0  0  0  0  0  0  0  0  0  0  0
    4.1226   -2.9191    3.0482 C   0  0  0  0  0  0  0  0  0  0  0  0
    4.8454   -1.8233    2.5995 C   0  0  0  0  0  0  0  0  0  0  0  0
    4.2639   -0.8818    1.7797 C   0  0  0  0  0  0  0  0  0  0  0  0
    2.9355   -1.0070    1.3721 C   0  0  0  0  0  0  0  0  0  0  0  0
    2.3513    0.0061    0.5107 C   0  0  0  0  0  0  0  0  0  0  0  0
    1.1052   -0.0090    0.0140 C   0  0  0  0  0  0  0  0  0  0  0  0
    0.6170    1.0379   -0.8436 C   0  0  0  0  0  0  0  0  0  0  0  0
    1.4037    2.0141   -1.3410 N   0  0  0  0  0  0  0  0  0  0  0  0
    0.6435    2.7433   -2.1526 C   0  0  0  0  0  0  0  0  0  0  0  0
    1.1272    3.9035   -2.8916 C   0  0  0  0  0  0  0  0  0  0  0  0
    2.4511    4.3110   -2.7501 C   0  0  0  0  0  0  0  0  0  0  0  0
    2.9297    5.4034   -3.4383 C   0  0  0  0  0  0  0  0  0  0  0  0
    2.0932    6.1085   -4.2814 C   0  0  0  0  0  0  0  0  0  0  0  0
    0.7772    5.7175   -4.4338 C   0  0  0  0  0  0  0  0  0  0  0  0
    0.2966    4.6252   -3.7462 C   0  0  0  0  0  0  0  0  0  0  0  0
   -0.6480    2.2534   -2.1966 N   0  0  0  0  0  0  0  0  0  0  0  0
   -0.6999    1.1792   -1.3568 C   0  0  0  0  0  0  0  0  0  0  0  0
   -1.8890    0.4123   -1.0839 C   0  0  0  0  0  0  0  0  0  0  0  0
   -2.1022   -0.3006    0.0372 C   0  0  0  0  0  0  0  0  0  0  0  0
   -3.2906   -1.0821    0.3288 C   0  0  0  0  0  0  0  0  0  0  0  0
   -3.4109   -1.7138    1.5675 C   0  0  0  0  0  0  0  0  0  0  0  0
   -4.5239   -2.4633    1.8762 C   0  0  0  0  0  0  0  0  0  0  0  0
   -5.5598   -2.6071    0.9644 C   0  0  0  0  0  0  0  0  0  0  0  0
   -6.7516   -3.4381    1.2883 C   0  0  0  0  0  0  0  0  0  0  0  0
   -5.4412   -1.9923   -0.2738 C   0  0  0  0  0  0  0  0  0  0  0  0
   -4.3302   -1.2414   -0.5888 C   0  0  0  0  0  0  0  0  0  0  0  0
    2.2165   -2.1161    1.8199 C   0  0  0  0  0  0  0  0  0  0  0  0
    2.8037   -3.0544    2.6398 C   0  0  0  0  0  0  0  0  0  0  0  0
    5.2107   -4.7377    3.3085 H   0  0  0  0  0  0  0  0  0  0  0  0
    5.5436   -3.5118    4.5345 H   0  0  0  0  0  0  0  0  0  0  0  0
    4.0295   -4.4109    4.5793 H   0  0  0  0  0  0  0  0  0  0  0  0
    5.8735   -1.7156    2.8998 H   0  0  0  0  0  0  0  0  0  0  0  0
    4.8365   -0.0349    1.4422 H   0  0  0  0  0  0  0  0  0  0  0  0
    2.9751    0.8420    0.2493 H   0  0  0  0  0  0  0  0  0  0  0  0
    0.4627   -0.8432    0.2150 H   0  0  0  0  0  0  0  0  0  0  0  0
    3.0943    3.7539   -2.0907 H   0  0  0  0  0  0  0  0  0  0  0  0
    3.9565    5.7077   -3.3192 H   0  0  0  0  0  0  0  0  0  0  0  0
    2.4673    6.9636   -4.8205 H   0  0  0  0  0  0  0  0  0  0  0  0
    0.1255    6.2680   -5.0922 H   0  0  0  0  0  0  0  0  0  0  0  0
   -0.7280    4.3211   -3.8673 H   0  0  0  0  0  0  0  0  0  0  0  0
   -1.4363    2.6398   -2.7180 H   0  0  0  0  0  0  0  0  0  0  0  0
   -2.6680    0.4698   -1.8211 H   0  0  0  0  0  0  0  0  0  0  0  0
   -1.3607   -0.2600    0.8135 H   0  0  0  0  0  0  0  0  0  0  0  0
   -2.6166   -1.6094    2.2869 H   0  0  0  0  0  0  0  0  0  0  0  0
   -4.5986   -2.9482    2.8347 H   0  0  0  0  0  0  0  0  0  0  0  0
   -7.6506   -3.0366    0.8177 H   0  0  0  0  0  0  0  0  0  0  0  0
   -6.9289   -3.4715    2.3646 H   0  0  0  0  0  0  0  0  0  0  0  0
   -6.6166   -4.4625    0.9376 H   0  0  0  0  0  0  0  0  0  0  0  0
   -6.2332   -2.1111   -0.9936 H   0  0  0  0  0  0  0  0  0  0  0  0
   -4.2628   -0.7799   -1.5576 H   0  0  0  0  0  0  0  0  0  0  0  0
    1.1901   -2.2413    1.5247 H   0  0  0  0  0  0  0  0  0  0  0  0
    2.2388   -3.9083    2.9726 H   0  0  0  0  0  0  0  0  0  0  0  0
  1  2  1  0  0  0  0
  2  3  2  0  0  0  0
  3  4  1  0  0  0  0
  4  5  2  0  0  0  0
  5  6  1  0  0  0  0
  6  7  2  0  0  0  0
  7  8  1  0  0  0  0
  8  9  1  0  0  0  0
  9 10  2  0  0  0  0
 10 11  1  0  0  0  0
 11 12  2  0  0  0  0
 12 13  1  0  0  0  0
 13 14  2  0  0  0  0
 14 15  1  0  0  0  0
 15 16  2  0  0  0  0
 10 17  1  0  0  0  0
 17 18  1  0  0  0  0
 18 19  1  0  0  0  0
 19 20  2  0  0  0  0
 20 21  1  0  0  0  0
 21 22  2  0  0  0  0
 22 23  1  0  0  0  0
 23 24  2  0  0  0  0
 24 25  1  0  0  0  0
 24 26  1  0  0  0  0
 26 27  2  0  0  0  0
  5 28  1  0  0  0  0
 28 29  2  0  0  0  0
 29  2  1  0  0  0  0
 18  8  2  0  0  0  0
 27 21  1  0  0  0  0
 16 11  1  0  0  0  0
  1 30  1  0  0  0  0
  1 31  1  0  0  0  0
  1 32  1  0  0  0  0
  3 33  1  0  0  0  0
  4 34  1  0  0  0  0
  6 35  1  0  0  0  0
  7 36  1  0  0  0  0
 12 37  1  0  0  0  0
 13 38  1  0  0  0  0
 14 39  1  0  0  0  0
 15 40  1  0  0  0  0
 16 41  1  0  0  0  0
 17 42  1  0  0  0  0
 19 43  1  0  0  0  0
 20 44  1  0  0  0  0
 22 45  1  0  0  0  0
 23 46  1  0  0  0  0
 25 47  1  0  0  0  0
 25 48  1  0  0  0  0
 25 49  1  0  0  0  0
 26 50  1  0  0  0  0
 27 51  1  0  0  0  0
 28 52  1  0  0  0  0
 29 53  1  0  0  0  0
M  END
