
  xtb     03012221263D
 energy: -5.875442770382 gnorm: 0.000462864797 xtb: 6.4.1 (afa7bdf)
 28 31  0     0  0            999 V2000
    1.6841    2.6219    0.5639 O   0  0  0  0  0  0  0  0  0  0  0  0
    1.3186    1.4754    0.3697 C   0  0  0  0  0  0  0  0  0  0  0  0
    2.2657    0.3897    0.2089 C   0  0  0  0  0  0  0  0  0  0  0  0
    3.6252    0.6305    0.2728 C   0  0  0  0  0  0  0  0  0  0  0  0
    4.5250   -0.4065    0.1194 C   0  0  0  0  0  0  0  0  0  0  0  0
    6.2058   -0.0931    0.2010 Cl  0  0  0  0  0  0  0  0  0  0  0  0
    4.0655   -1.7053   -0.1012 C   0  0  0  0  0  0  0  0  0  0  0  0
    2.7252   -1.9580   -0.1667 C   0  0  0  0  0  0  0  0  0  0  0  0
    1.7802   -0.9241   -0.0147 C   0  0  0  0  0  0  0  0  0  0  0  0
    0.4619   -1.2250   -0.0877 N   0  0  0  0  0  0  0  0  0  0  0  0
   -0.3633   -0.1930    0.0667 C   0  0  0  0  0  0  0  0  0  0  0  0
   -0.0047    1.0889    0.2831 N   0  0  0  0  0  0  0  0  0  0  0  0
   -1.2630    1.9411    0.4039 B   0  0  0  0  0  4  0  0  0  0  0  0
   -1.3655    2.4998    1.6672 F   0  0  0  0  0  0  0  0  0  0  0  0
   -1.3246    2.8842   -0.6088 F   0  0  0  0  0  0  0  0  0  0  0  0
   -2.3844    0.9246    0.2123 N   0  0  0  0  0  4  0  0  0  0  0  0
   -3.7139    1.0917    0.2156 C   0  0  0  0  0  0  0  0  0  0  0  0
   -4.5271    0.0017    0.0220 C   0  0  0  0  0  0  0  0  0  0  0  0
   -3.9685   -1.2518   -0.1730 C   0  0  0  0  0  0  0  0  0  0  0  0
   -2.6022   -1.4094   -0.1736 C   0  0  0  0  0  0  0  0  0  0  0  0
   -1.8120   -0.2908    0.0239 C   0  0  0  0  0  0  0  0  0  0  0  0
    3.9760    1.6338    0.4433 H   0  0  0  0  0  0  0  0  0  0  0  0
    4.7843   -2.4982   -0.2179 H   0  0  0  0  0  0  0  0  0  0  0  0
    2.3630   -2.9566   -0.3365 H   0  0  0  0  0  0  0  0  0  0  0  0
   -4.1049    2.0826    0.3716 H   0  0  0  0  0  0  0  0  0  0  0  0
   -5.5978    0.1221    0.0222 H   0  0  0  0  0  0  0  0  0  0  0  0
   -4.6071   -2.1059   -0.3245 H   0  0  0  0  0  0  0  0  0  0  0  0
   -2.1415   -2.3704   -0.3222 H   0  0  0  0  0  0  0  0  0  0  0  0
  1  2  2  0  0  0  0
  2  3  1  0  0  0  0
  3  4  2  0  0  0  0
  4  5  1  0  0  0  0
  5  6  1  0  0  0  0
  5  7  2  0  0  0  0
  7  8  1  0  0  0  0
  8  9  2  0  0  0  0
  9 10  1  0  0  0  0
 10 11  2  0  0  0  0
 11 12  1  0  0  0  0
 12 13  1  0  0  0  0
 13 14  1  0  0  0  0
 13 15  1  0  0  0  0
 13 16  1  0  0  0  0
 16 17  2  0  0  0  0
 17 18  1  0  0  0  0
 18 19  2  0  0  0  0
 19 20  1  0  0  0  0
 20 21  2  0  0  0  0
 12  2  1  0  0  0  0
 21 16  1  0  0  0  0
  9  3  1  0  0  0  0
 21 11  1  0  0  0  0
  4 22  1  0  0  0  0
  7 23  1  0  0  0  0
  8 24  1  0  0  0  0
 17 25  1  0  0  0  0
 18 26  1  0  0  0  0
 19 27  1  0  0  0  0
 20 28  1  0  0  0  0
M  CHG  1  13  -1
M  CHG  1  16   1
M  END
