
  xtb     03012221313D
 energy: -6.249354441433 gnorm: 0.000213129947 xtb: 6.4.1 (afa7bdf)
 30 33  0     0  0            999 V2000
   -1.6896   -3.0578   -1.2813 O   0  0  0  0  0  0  0  0  0  0  0  0
   -1.3125   -1.9851   -0.8325 C   0  0  0  0  0  0  0  0  0  0  0  0
    0.0261   -1.6788   -0.6993 N   0  0  0  0  0  0  0  0  0  0  0  0
    0.5017   -0.4829   -0.1992 C   0  0  0  0  0  0  0  0  0  0  0  0
   -0.3766    0.4465    0.1843 N   0  0  0  0  0  4  0  0  0  0  0  0
   -1.7568    0.2471    0.0967 C   0  0  0  0  0  0  0  0  0  0  0  0
   -2.6738    1.2199    0.5003 C   0  0  0  0  0  0  0  0  0  0  0  0
   -4.0230    1.0026    0.4046 C   0  0  0  0  0  0  0  0  0  0  0  0
   -4.5024   -0.1978   -0.0989 C   0  0  0  0  0  0  0  0  0  0  0  0
   -3.6242   -1.1708   -0.5020 C   0  0  0  0  0  0  0  0  0  0  0  0
   -2.2537   -0.9629   -0.4099 C   0  0  0  0  0  0  0  0  0  0  0  0
    0.0379    1.8087    0.7568 B   0  0  0  0  0  4  0  0  0  0  0  0
   -0.5012    1.8983    2.0329 F   0  0  0  0  0  0  0  0  0  0  0  0
   -0.5023    2.7839   -0.0707 F   0  0  0  0  0  0  0  0  0  0  0  0
    1.4925    1.9620    0.8200 O   0  0  0  0  0  0  0  0  0  0  0  0
    2.3685    0.9961    0.4214 C   0  0  0  0  0  0  0  0  0  0  0  0
    3.7362    1.2434    0.5273 C   0  0  0  0  0  0  0  0  0  0  0  0
    4.6527    0.3004    0.1384 C   0  0  0  0  0  0  0  0  0  0  0  0
    4.2225   -0.9123   -0.3654 C   0  0  0  0  0  0  0  0  0  0  0  0
    2.8777   -1.1771   -0.4787 C   0  0  0  0  0  0  0  0  0  0  0  0
    1.9228   -0.2384   -0.0921 C   0  0  0  0  0  0  0  0  0  0  0  0
    0.6610   -2.4063   -1.0001 H   0  0  0  0  0  0  0  0  0  0  0  0
   -2.2967    2.1495    0.8906 H   0  0  0  0  0  0  0  0  0  0  0  0
   -4.7141    1.7661    0.7210 H   0  0  0  0  0  0  0  0  0  0  0  0
   -5.5645   -0.3652   -0.1731 H   0  0  0  0  0  0  0  0  0  0  0  0
   -3.9750   -2.1099   -0.8954 H   0  0  0  0  0  0  0  0  0  0  0  0
    4.0504    2.1934    0.9219 H   0  0  0  0  0  0  0  0  0  0  0  0
    5.7073    0.5051    0.2257 H   0  0  0  0  0  0  0  0  0  0  0  0
    4.9440   -1.6519   -0.6702 H   0  0  0  0  0  0  0  0  0  0  0  0
    2.5655   -2.1260   -0.8730 H   0  0  0  0  0  0  0  0  0  0  0  0
  1  2  2  0  0  0  0
  2  3  1  0  0  0  0
  3  4  1  0  0  0  0
  4  5  2  0  0  0  0
  5  6  1  0  0  0  0
  6  7  2  0  0  0  0
  7  8  1  0  0  0  0
  8  9  2  0  0  0  0
  9 10  1  0  0  0  0
 10 11  2  0  0  0  0
  5 12  1  0  0  0  0
 12 13  1  0  0  0  0
 12 14  1  0  0  0  0
 12 15  1  0  0  0  0
 15 16  1  0  0  0  0
 16 17  2  0  0  0  0
 17 18  1  0  0  0  0
 18 19  2  0  0  0  0
 19 20  1  0  0  0  0
 20 21  2  0  0  0  0
 11  2  1  0  0  0  0
 21 16  1  0  0  0  0
 21  4  1  0  0  0  0
 11  6  1  0  0  0  0
  3 22  1  0  0  0  0
  7 23  1  0  0  0  0
  8 24  1  0  0  0  0
  9 25  1  0  0  0  0
 10 26  1  0  0  0  0
 17 27  1  0  0  0  0
 18 28  1  0  0  0  0
 19 29  1  0  0  0  0
 20 30  1  0  0  0  0
M  CHG  1   5   1
M  CHG  1  12  -1
M  END
