
  xtb     03012221323D
 energy: -17.919721637488 gnorm: 0.000261008495 xtb: 6.4.1 (afa7bdf)
 79 89  0     0  0            999 V2000
   -7.6310   -2.8412    0.6874 C   0  0  0  0  0  0  0  0  0  0  0  0
   -6.2755   -3.0552    0.9535 C   0  0  0  0  0  0  0  0  0  0  0  0
   -5.3296   -2.1203    0.6122 C   0  0  0  0  0  0  0  0  0  0  0  0
   -5.7424   -0.9452   -0.0155 C   0  0  0  0  0  0  0  0  0  0  0  0
   -7.1082   -0.7208   -0.2650 C   0  0  0  0  0  0  0  0  0  0  0  0
   -8.0576   -1.6822    0.0859 C   0  0  0  0  0  0  0  0  0  0  0  0
   -7.2277    0.5892   -0.8594 C   0  0  0  0  0  0  0  0  0  0  0  0
   -8.3218    1.3321   -1.3075 C   0  0  0  0  0  0  0  0  0  0  0  0
   -8.0998    2.5835   -1.8313 C   0  0  0  0  0  0  0  0  0  0  0  0
   -6.8074    3.1115   -1.9133 C   0  0  0  0  0  0  0  0  0  0  0  0
   -5.7234    2.3931   -1.4742 C   0  0  0  0  0  0  0  0  0  0  0  0
   -5.9318    1.1221   -0.9454 C   0  0  0  0  0  0  0  0  0  0  0  0
   -5.0118    0.1784   -0.4560 N   0  0  0  0  0  0  0  0  0  0  0  0
   -3.5949    0.3740   -0.4473 C   0  0  0  0  0  0  0  0  0  0  0  0
   -2.7529   -0.6841   -0.7104 C   0  0  0  0  0  0  0  0  0  0  0  0
   -1.4143   -0.4598   -0.6671 C   0  0  0  0  0  0  0  0  0  0  0  0
   -0.9669    0.8086   -0.3537 C   0  0  0  0  0  0  0  0  0  0  0  0
    0.4666    1.1110   -0.2491 C   0  0  0  0  0  0  0  0  0  0  0  0
    0.9055    2.3959   -0.5176 C   0  0  0  0  0  0  0  0  0  0  0  0
    2.2414    2.6724   -0.4597 C   0  0  0  0  0  0  0  0  0  0  0  0
    3.1376    1.6694   -0.1192 C   0  0  0  0  0  0  0  0  0  0  0  0
    4.5415    1.9518   -0.0743 N   0  0  0  0  0  0  0  0  0  0  0  0
    5.5252    0.9791   -0.3309 C   0  0  0  0  0  0  0  0  0  0  0  0
    5.4053   -0.3852   -0.5848 C   0  0  0  0  0  0  0  0  0  0  0  0
    6.5372   -1.1204   -0.8295 C   0  0  0  0  0  0  0  0  0  0  0  0
    7.7978   -0.5157   -0.8212 C   0  0  0  0  0  0  0  0  0  0  0  0
    7.9377    0.8271   -0.5621 C   0  0  0  0  0  0  0  0  0  0  0  0
    6.7914    1.5842   -0.3134 C   0  0  0  0  0  0  0  0  0  0  0  0
    6.5900    2.9750    0.0068 C   0  0  0  0  0  0  0  0  0  0  0  0
    7.4884    4.0273    0.1887 C   0  0  0  0  0  0  0  0  0  0  0  0
    6.9962    5.2580    0.5480 C   0  0  0  0  0  0  0  0  0  0  0  0
    5.6264    5.4537    0.7411 C   0  0  0  0  0  0  0  0  0  0  0  0
    4.7318    4.4278    0.5623 C   0  0  0  0  0  0  0  0  0  0  0  0
    5.2067    3.1742    0.1718 C   0  0  0  0  0  0  0  0  0  0  0  0
    2.7453    0.4205    0.1364 N   0  0  0  0  0  0  0  0  0  0  0  0
    1.4404    0.1514    0.0940 C   0  0  0  0  0  0  0  0  0  0  0  0
    1.0499   -1.1868    0.4457 N   0  0  0  0  0  0  0  0  0  0  0  0
    0.2437   -1.5838    1.5326 C   0  0  0  0  0  0  0  0  0  0  0  0
   -0.4602   -0.8266    2.4666 C   0  0  0  0  0  0  0  0  0  0  0  0
   -1.2130   -1.4795    3.4104 C   0  0  0  0  0  0  0  0  0  0  0  0
   -1.2727   -2.8755    3.4444 C   0  0  0  0  0  0  0  0  0  0  0  0
   -0.5793   -3.6362    2.5345 C   0  0  0  0  0  0  0  0  0  0  0  0
    0.1883   -2.9872    1.5665 C   0  0  0  0  0  0  0  0  0  0  0  0
    1.0092   -3.4740    0.4830 C   0  0  0  0  0  0  0  0  0  0  0  0
    1.3248   -4.7586    0.0379 C   0  0  0  0  0  0  0  0  0  0  0  0
    2.1445   -4.8938   -1.0566 C   0  0  0  0  0  0  0  0  0  0  0  0
    2.6522   -3.7730   -1.7203 C   0  0  0  0  0  0  0  0  0  0  0  0
    2.3505   -2.5035   -1.2948 C   0  0  0  0  0  0  0  0  0  0  0  0
    1.5296   -2.3510   -0.1806 C   0  0  0  0  0  0  0  0  0  0  0  0
   -1.8387    1.8099   -0.1661 N   0  0  0  0  0  0  0  0  0  0  0  0
   -3.1142    1.5992   -0.2126 N   0  0  0  0  0  0  0  0  0  0  0  0
   -8.3511   -3.5925    0.9663 H   0  0  0  0  0  0  0  0  0  0  0  0
   -5.9697   -3.9669    1.4401 H   0  0  0  0  0  0  0  0  0  0  0  0
   -4.2910   -2.2686    0.8458 H   0  0  0  0  0  0  0  0  0  0  0  0
   -9.0999   -1.5030   -0.1110 H   0  0  0  0  0  0  0  0  0  0  0  0
   -9.3134    0.9207   -1.2388 H   0  0  0  0  0  0  0  0  0  0  0  0
   -8.9336    3.1686   -2.1824 H   0  0  0  0  0  0  0  0  0  0  0  0
   -6.6617    4.0971   -2.3241 H   0  0  0  0  0  0  0  0  0  0  0  0
   -4.7246    2.7872   -1.5145 H   0  0  0  0  0  0  0  0  0  0  0  0
   -3.1537   -1.6507   -0.9586 H   0  0  0  0  0  0  0  0  0  0  0  0
   -0.7122   -1.2521   -0.8496 H   0  0  0  0  0  0  0  0  0  0  0  0
    0.1893    3.1532   -0.7861 H   0  0  0  0  0  0  0  0  0  0  0  0
    2.6073    3.6462   -0.7265 H   0  0  0  0  0  0  0  0  0  0  0  0
    4.4316   -0.8365   -0.5554 H   0  0  0  0  0  0  0  0  0  0  0  0
    6.4546   -2.1766   -1.0243 H   0  0  0  0  0  0  0  0  0  0  0  0
    8.6731   -1.1139   -1.0153 H   0  0  0  0  0  0  0  0  0  0  0  0
    8.9047    1.2974   -0.5461 H   0  0  0  0  0  0  0  0  0  0  0  0
    8.5425    3.8620    0.0545 H   0  0  0  0  0  0  0  0  0  0  0  0
    7.6758    6.0817    0.6946 H   0  0  0  0  0  0  0  0  0  0  0  0
    5.2685    6.4240    1.0431 H   0  0  0  0  0  0  0  0  0  0  0  0
    3.6849    4.5715    0.7593 H   0  0  0  0  0  0  0  0  0  0  0  0
   -0.4170    0.2468    2.4225 H   0  0  0  0  0  0  0  0  0  0  0  0
   -1.7693   -0.9075    4.1344 H   0  0  0  0  0  0  0  0  0  0  0  0
   -1.8717   -3.3616    4.1974 H   0  0  0  0  0  0  0  0  0  0  0  0
   -0.6199   -4.7108    2.5548 H   0  0  0  0  0  0  0  0  0  0  0  0
    0.9269   -5.6164    0.5504 H   0  0  0  0  0  0  0  0  0  0  0  0
    2.3978   -5.8793   -1.4125 H   0  0  0  0  0  0  0  0  0  0  0  0
    3.2866   -3.9085   -2.5806 H   0  0  0  0  0  0  0  0  0  0  0  0
    2.7150   -1.6325   -1.8082 H   0  0  0  0  0  0  0  0  0  0  0  0
  1  2  2  0  0  0  0
  2  3  1  0  0  0  0
  3  4  2  0  0  0  0
  4  5  1  0  0  0  0
  5  6  2  0  0  0  0
  5  7  1  0  0  0  0
  7  8  2  0  0  0  0
  8  9  1  0  0  0  0
  9 10  2  0  0  0  0
 10 11  1  0  0  0  0
 11 12  2  0  0  0  0
 12 13  1  0  0  0  0
 13 14  1  0  0  0  0
 14 15  2  0  0  0  0
 15 16  1  0  0  0  0
 16 17  2  0  0  0  0
 17 18  1  0  0  0  0
 18 19  2  0  0  0  0
 19 20  1  0  0  0  0
 20 21  2  0  0  0  0
 21 22  1  0  0  0  0
 22 23  1  0  0  0  0
 23 24  2  0  0  0  0
 24 25  1  0  0  0  0
 25 26  2  0  0  0  0
 26 27  1  0  0  0  0
 27 28  2  0  0  0  0
 28 29  1  0  0  0  0
 29 30  2  0  0  0  0
 30 31  1  0  0  0  0
 31 32  2  0  0  0  0
 32 33  1  0  0  0  0
 33 34  2  0  0  0  0
 21 35  1  0  0  0  0
 35 36  2  0  0  0  0
 36 37  1  0  0  0  0
 37 38  1  0  0  0  0
 38 39  2  0  0  0  0
 39 40  1  0  0  0  0
 40 41  2  0  0  0  0
 41 42  1  0  0  0  0
 42 43  2  0  0  0  0
 43 44  1  0  0  0  0
 44 45  2  0  0  0  0
 45 46  1  0  0  0  0
 46 47  2  0  0  0  0
 47 48  1  0  0  0  0
 48 49  2  0  0  0  0
 17 50  1  0  0  0  0
 50 51  2  0  0  0  0
  6  1  1  0  0  0  0
 12  7  1  0  0  0  0
 51 14  1  0  0  0  0
 13  4  1  0  0  0  0
 36 18  1  0  0  0  0
 49 37  1  0  0  0  0
 34 22  1  0  0  0  0
 43 38  1  0  0  0  0
 49 44  1  0  0  0  0
 28 23  1  0  0  0  0
 34 29  1  0  0  0  0
  1 52  1  0  0  0  0
  2 53  1  0  0  0  0
  3 54  1  0  0  0  0
  6 55  1  0  0  0  0
  8 56  1  0  0  0  0
  9 57  1  0  0  0  0
 10 58  1  0  0  0  0
 11 59  1  0  0  0  0
 15 60  1  0  0  0  0
 16 61  1  0  0  0  0
 19 62  1  0  0  0  0
 20 63  1  0  0  0  0
 24 64  1  0  0  0  0
 25 65  1  0  0  0  0
 26 66  1  0  0  0  0
 27 67  1  0  0  0  0
 30 68  1  0  0  0  0
 31 69  1  0  0  0  0
 32 70  1  0  0  0  0
 33 71  1  0  0  0  0
 39 72  1  0  0  0  0
 40 73  1  0  0  0  0
 41 74  1  0  0  0  0
 42 75  1  0  0  0  0
 45 76  1  0  0  0  0
 46 77  1  0  0  0  0
 47 78  1  0  0  0  0
 48 79  1  0  0  0  0
M  END
