
  xtb     03012221273D
 energy: -22.067722659450 gnorm: 0.000280017899 xtb: 6.4.1 (afa7bdf)
124130  0     0  0            999 V2000
   13.6309   -0.3182   -0.9029 C   0  0  0  0  0  0  0  0  0  0  0  0
   12.1146   -0.2087   -0.8947 C   0  0  0  0  0  0  0  0  0  0  0  0
   11.5515    1.1559   -0.4063 C   0  0  0  0  0  0  0  0  0  0  0  0
   12.0918    2.2881   -1.3022 C   0  0  0  0  0  0  0  0  0  0  0  0
   11.9955    1.4361    1.0429 C   0  0  0  0  0  0  0  0  0  0  0  0
   10.0144    1.0873   -0.4589 C   0  0  0  0  0  0  0  0  0  0  0  0
    9.3332    0.2244    0.3901 C   0  0  0  0  0  0  0  0  0  0  0  0
    7.9598    0.1283    0.3588 C   0  0  0  0  0  0  0  0  0  0  0  0
    7.2087    0.8912   -0.5292 C   0  0  0  0  0  0  0  0  0  0  0  0
    5.7319    0.7935   -0.5591 C   0  0  0  0  0  0  0  0  0  0  0  0
    5.0400    0.8069   -1.7764 C   0  0  0  0  0  0  0  0  0  0  0  0
    3.6676    0.7159   -1.8211 C   0  0  0  0  0  0  0  0  0  0  0  0
    2.9594    0.6111   -0.6326 C   0  0  0  0  0  0  0  0  0  0  0  0
    3.6352    0.5925    0.5877 C   0  0  0  0  0  0  0  0  0  0  0  0
    5.0075    0.6845    0.6307 C   0  0  0  0  0  0  0  0  0  0  0  0
    2.6240    0.4647    1.7330 C   0  0  0  0  0  0  0  0  0  0  0  0
    2.9004   -0.8165    2.5573 C   0  0  0  0  0  0  0  0  0  0  0  0
    2.9132   -2.0847    1.7122 C   0  0  0  0  0  0  0  0  0  0  0  0
    1.6209   -2.4210    1.2158 O   0  0  0  0  0  0  0  0  0  0  0  0
    1.6664   -3.3337    0.1452 C   0  0  0  0  0  0  0  0  0  0  0  0
    2.7064    1.7386    2.6121 C   0  0  0  0  0  0  0  0  0  0  0  0
    1.6704    1.8429    3.7204 C   0  0  0  0  0  0  0  0  0  0  0  0
    1.8689    2.9988    4.5301 O   0  0  0  0  0  0  0  0  0  0  0  0
    0.8966    3.1168    5.5416 C   0  0  0  0  0  0  0  0  0  0  0  0
    1.2885    0.3788    0.9872 C   0  0  0  0  0  0  0  0  0  0  0  0
    0.0167    0.1565    1.4733 C   0  0  0  0  0  0  0  0  0  0  0  0
   -1.0241    0.0560    0.5565 C   0  0  0  0  0  0  0  0  0  0  0  0
   -0.7928    0.1730   -0.8203 C   0  0  0  0  0  0  0  0  0  0  0  0
    0.4804    0.3751   -1.3096 C   0  0  0  0  0  0  0  0  0  0  0  0
    1.5219    0.4769   -0.3933 C   0  0  0  0  0  0  0  0  0  0  0  0
   -2.1059   -0.0471   -1.5869 C   0  0  0  0  0  0  0  0  0  0  0  0
   -2.4071    1.2083   -2.4552 C   0  0  0  0  0  0  0  0  0  0  0  0
   -3.4047    1.0328   -3.5946 C   0  0  0  0  0  0  0  0  0  0  0  0
   -4.6921    0.6028   -3.1697 O   0  0  0  0  0  0  0  0  0  0  0  0
   -5.6217    0.5533   -4.2281 C   0  0  0  0  0  0  0  0  0  0  0  0
   -1.9529   -1.3541   -2.4186 C   0  0  0  0  0  0  0  0  0  0  0  0
   -3.2421   -2.0836   -2.7668 C   0  0  0  0  0  0  0  0  0  0  0  0
   -3.0388   -3.2796   -3.5075 O   0  0  0  0  0  0  0  0  0  0  0  0
   -2.5415   -3.0508   -4.8032 C   0  0  0  0  0  0  0  0  0  0  0  0
   -3.1181   -0.2033   -0.4415 C   0  0  0  0  0  0  0  0  0  0  0  0
   -4.4881   -0.3264   -0.4723 C   0  0  0  0  0  0  0  0  0  0  0  0
   -5.2113   -0.4622    0.7137 C   0  0  0  0  0  0  0  0  0  0  0  0
   -6.6844   -0.5925    0.6734 C   0  0  0  0  0  0  0  0  0  0  0  0
   -7.3607   -1.4208    1.5631 C   0  0  0  0  0  0  0  0  0  0  0  0
   -8.7324   -1.5408    1.5199 C   0  0  0  0  0  0  0  0  0  0  0  0
   -9.4846   -0.8382    0.5866 C   0  0  0  0  0  0  0  0  0  0  0  0
  -11.0166   -0.9423    0.5143 C   0  0  0  0  0  0  0  0  0  0  0  0
  -11.4134   -1.5227   -0.8574 C   0  0  0  0  0  0  0  0  0  0  0  0
  -11.5819   -1.8703    1.6077 C   0  0  0  0  0  0  0  0  0  0  0  0
  -11.6469    0.4720    0.6732 C   0  0  0  0  0  0  0  0  0  0  0  0
  -11.2429    1.1930    1.9491 C   0  0  0  0  0  0  0  0  0  0  0  0
   -8.8091   -0.0158   -0.3052 C   0  0  0  0  0  0  0  0  0  0  0  0
   -7.4384    0.1062   -0.2642 C   0  0  0  0  0  0  0  0  0  0  0  0
   -4.5207   -0.4552    1.9307 C   0  0  0  0  0  0  0  0  0  0  0  0
   -3.1535   -0.3057    1.9731 C   0  0  0  0  0  0  0  0  0  0  0  0
   -2.4494   -0.1750    0.7840 C   0  0  0  0  0  0  0  0  0  0  0  0
    7.8907    1.7493   -1.3856 C   0  0  0  0  0  0  0  0  0  0  0  0
    9.2647    1.8429   -1.3525 C   0  0  0  0  0  0  0  0  0  0  0  0
   13.9645   -1.3026   -1.2407 H   0  0  0  0  0  0  0  0  0  0  0  0
   14.0855    0.4183   -1.5677 H   0  0  0  0  0  0  0  0  0  0  0  0
   14.0509   -0.1617    0.0923 H   0  0  0  0  0  0  0  0  0  0  0  0
   11.6913   -1.0017   -0.2683 H   0  0  0  0  0  0  0  0  0  0  0  0
   11.7207   -0.3975   -1.9001 H   0  0  0  0  0  0  0  0  0  0  0  0
   11.6475    3.2449   -1.0293 H   0  0  0  0  0  0  0  0  0  0  0  0
   13.1707    2.3923   -1.1966 H   0  0  0  0  0  0  0  0  0  0  0  0
   11.8796    2.0947   -2.3531 H   0  0  0  0  0  0  0  0  0  0  0  0
   11.7441    0.6091    1.7050 H   0  0  0  0  0  0  0  0  0  0  0  0
   11.5079    2.3325    1.4252 H   0  0  0  0  0  0  0  0  0  0  0  0
   13.0714    1.5946    1.1034 H   0  0  0  0  0  0  0  0  0  0  0  0
    9.8886   -0.3846    1.0809 H   0  0  0  0  0  0  0  0  0  0  0  0
    7.4521   -0.5552    1.0193 H   0  0  0  0  0  0  0  0  0  0  0  0
    5.6002    0.8755   -2.6916 H   0  0  0  0  0  0  0  0  0  0  0  0
    3.1396    0.7200   -2.7597 H   0  0  0  0  0  0  0  0  0  0  0  0
    5.5163    0.6837    1.5762 H   0  0  0  0  0  0  0  0  0  0  0  0
    3.8557   -0.6971    3.0772 H   0  0  0  0  0  0  0  0  0  0  0  0
    2.1368   -0.9182    3.3312 H   0  0  0  0  0  0  0  0  0  0  0  0
    3.2730   -2.9468    2.2869 H   0  0  0  0  0  0  0  0  0  0  0  0
    3.5898   -1.9644    0.8585 H   0  0  0  0  0  0  0  0  0  0  0  0
    2.1874   -4.2418    0.4507 H   0  0  0  0  0  0  0  0  0  0  0  0
    2.1767   -2.8801   -0.7055 H   0  0  0  0  0  0  0  0  0  0  0  0
    0.6454   -3.5839   -0.1450 H   0  0  0  0  0  0  0  0  0  0  0  0
    3.7039    1.7984    3.0545 H   0  0  0  0  0  0  0  0  0  0  0  0
    2.6228    2.6164    1.9660 H   0  0  0  0  0  0  0  0  0  0  0  0
    0.6594    1.9003    3.3035 H   0  0  0  0  0  0  0  0  0  0  0  0
    1.7046    0.9666    4.3762 H   0  0  0  0  0  0  0  0  0  0  0  0
    1.1004    4.0170    6.1223 H   0  0  0  0  0  0  0  0  0  0  0  0
    0.9376    2.2490    6.2010 H   0  0  0  0  0  0  0  0  0  0  0  0
   -0.0962    3.1959    5.0967 H   0  0  0  0  0  0  0  0  0  0  0  0
   -0.1623    0.0155    2.5225 H   0  0  0  0  0  0  0  0  0  0  0  0
    0.6672    0.4241   -2.3662 H   0  0  0  0  0  0  0  0  0  0  0  0
   -1.4600    1.5724   -2.8665 H   0  0  0  0  0  0  0  0  0  0  0  0
   -2.7595    1.9986   -1.7867 H   0  0  0  0  0  0  0  0  0  0  0  0
   -3.5393    1.9778   -4.1355 H   0  0  0  0  0  0  0  0  0  0  0  0
   -3.0317    0.3095   -4.3279 H   0  0  0  0  0  0  0  0  0  0  0  0
   -5.2614   -0.1113   -5.0142 H   0  0  0  0  0  0  0  0  0  0  0  0
   -6.5708    0.1740   -3.8478 H   0  0  0  0  0  0  0  0  0  0  0  0
   -5.7754    1.5537   -4.6342 H   0  0  0  0  0  0  0  0  0  0  0  0
   -1.3870   -1.1242   -3.3237 H   0  0  0  0  0  0  0  0  0  0  0  0
   -1.3214   -2.0463   -1.8539 H   0  0  0  0  0  0  0  0  0  0  0  0
   -3.7708   -2.3781   -1.8529 H   0  0  0  0  0  0  0  0  0  0  0  0
   -3.9336   -1.4518   -3.3309 H   0  0  0  0  0  0  0  0  0  0  0  0
   -3.1513   -2.3059   -5.3158 H   0  0  0  0  0  0  0  0  0  0  0  0
   -2.5801   -3.9864   -5.3621 H   0  0  0  0  0  0  0  0  0  0  0  0
   -1.5058   -2.7147   -4.7559 H   0  0  0  0  0  0  0  0  0  0  0  0
   -5.0024   -0.2923   -1.4117 H   0  0  0  0  0  0  0  0  0  0  0  0
   -6.7940   -1.9865    2.2840 H   0  0  0  0  0  0  0  0  0  0  0  0
   -9.2208   -2.1930    2.2207 H   0  0  0  0  0  0  0  0  0  0  0  0
  -12.4948   -1.6290   -0.9385 H   0  0  0  0  0  0  0  0  0  0  0  0
  -11.0794   -0.8806   -1.6712 H   0  0  0  0  0  0  0  0  0  0  0  0
  -10.9661   -2.5055   -1.0032 H   0  0  0  0  0  0  0  0  0  0  0  0
  -11.2166   -2.8890    1.4816 H   0  0  0  0  0  0  0  0  0  0  0  0
  -11.3039   -1.5301    2.6040 H   0  0  0  0  0  0  0  0  0  0  0  0
  -12.6701   -1.9040    1.5613 H   0  0  0  0  0  0  0  0  0  0  0  0
  -11.3726    1.0775   -0.1975 H   0  0  0  0  0  0  0  0  0  0  0  0
  -12.7375    0.3762    0.6221 H   0  0  0  0  0  0  0  0  0  0  0  0
  -11.5784    0.6573    2.8387 H   0  0  0  0  0  0  0  0  0  0  0  0
  -11.6644    2.1999    2.0005 H   0  0  0  0  0  0  0  0  0  0  0  0
  -10.1577    1.2899    2.0216 H   0  0  0  0  0  0  0  0  0  0  0  0
   -9.3667    0.5367   -1.0403 H   0  0  0  0  0  0  0  0  0  0  0  0
   -6.9357    0.7569   -0.9605 H   0  0  0  0  0  0  0  0  0  0  0  0
   -5.0771   -0.5413    2.8468 H   0  0  0  0  0  0  0  0  0  0  0  0
   -2.6259   -0.2793    2.9116 H   0  0  0  0  0  0  0  0  0  0  0  0
    7.3263    2.3567   -2.0738 H   0  0  0  0  0  0  0  0  0  0  0  0
    9.7571    2.5139   -2.0325 H   0  0  0  0  0  0  0  0  0  0  0  0
  1  2  1  0  0  0  0
  2  3  1  0  0  0  0
  3  4  1  0  0  0  0
  3  5  1  0  0  0  0
  3  6  1  0  0  0  0
  6  7  2  0  0  0  0
  7  8  1  0  0  0  0
  8  9  2  0  0  0  0
  9 10  1  0  0  0  0
 10 11  2  0  0  0  0
 11 12  1  0  0  0  0
 12 13  2  0  0  0  0
 13 14  1  0  0  0  0
 14 15  2  0  0  0  0
 14 16  1  0  0  0  0
 16 17  1  0  0  0  0
 17 18  1  0  0  0  0
 18 19  1  0  0  0  0
 19 20  1  0  0  0  0
 16 21  1  0  0  0  0
 21 22  1  0  0  0  0
 22 23  1  0  0  0  0
 23 24  1  0  0  0  0
 16 25  1  0  0  0  0
 25 26  2  0  0  0  0
 26 27  1  0  0  0  0
 27 28  2  0  0  0  0
 28 29  1  0  0  0  0
 29 30  2  0  0  0  0
 28 31  1  0  0  0  0
 31 32  1  0  0  0  0
 32 33  1  0  0  0  0
 33 34  1  0  0  0  0
 34 35  1  0  0  0  0
 31 36  1  0  0  0  0
 36 37  1  0  0  0  0
 37 38  1  0  0  0  0
 38 39  1  0  0  0  0
 31 40  1  0  0  0  0
 40 41  2  0  0  0  0
 41 42  1  0  0  0  0
 42 43  1  0  0  0  0
 43 44  2  0  0  0  0
 44 45  1  0  0  0  0
 45 46  2  0  0  0  0
 46 47  1  0  0  0  0
 47 48  1  0  0  0  0
 47 49  1  0  0  0  0
 47 50  1  0  0  0  0
 50 51  1  0  0  0  0
 46 52  1  0  0  0  0
 52 53  2  0  0  0  0
 42 54  2  0  0  0  0
 54 55  1  0  0  0  0
 55 56  2  0  0  0  0
  9 57  1  0  0  0  0
 57 58  2  0  0  0  0
 58  6  1  0  0  0  0
 15 10  1  0  0  0  0
 30 25  1  0  0  0  0
 56 40  1  0  0  0  0
 30 13  1  0  0  0  0
 53 43  1  0  0  0  0
 56 27  1  0  0  0  0
  1 59  1  0  0  0  0
  1 60  1  0  0  0  0
  1 61  1  0  0  0  0
  2 62  1  0  0  0  0
  2 63  1  0  0  0  0
  4 64  1  0  0  0  0
  4 65  1  0  0  0  0
  4 66  1  0  0  0  0
  5 67  1  0  0  0  0
  5 68  1  0  0  0  0
  5 69  1  0  0  0  0
  7 70  1  0  0  0  0
  8 71  1  0  0  0  0
 11 72  1  0  0  0  0
 12 73  1  0  0  0  0
 15 74  1  0  0  0  0
 17 75  1  0  0  0  0
 17 76  1  0  0  0  0
 18 77  1  0  0  0  0
 18 78  1  0  0  0  0
 20 79  1  0  0  0  0
 20 80  1  0  0  0  0
 20 81  1  0  0  0  0
 21 82  1  0  0  0  0
 21 83  1  0  0  0  0
 22 84  1  0  0  0  0
 22 85  1  0  0  0  0
 24 86  1  0  0  0  0
 24 87  1  0  0  0  0
 24 88  1  0  0  0  0
 26 89  1  0  0  0  0
 29 90  1  0  0  0  0
 32 91  1  0  0  0  0
 32 92  1  0  0  0  0
 33 93  1  0  0  0  0
 33 94  1  0  0  0  0
 35 95  1  0  0  0  0
 35 96  1  0  0  0  0
 35 97  1  0  0  0  0
 36 98  1  0  0  0  0
 36 99  1  0  0  0  0
 37100  1  0  0  0  0
 37101  1  0  0  0  0
 39102  1  0  0  0  0
 39103  1  0  0  0  0
 39104  1  0  0  0  0
 41105  1  0  0  0  0
 44106  1  0  0  0  0
 45107  1  0  0  0  0
 48108  1  0  0  0  0
 48109  1  0  0  0  0
 48110  1  0  0  0  0
 49111  1  0  0  0  0
 49112  1  0  0  0  0
 49113  1  0  0  0  0
 50114  1  0  0  0  0
 50115  1  0  0  0  0
 51116  1  0  0  0  0
 51117  1  0  0  0  0
 51118  1  0  0  0  0
 52119  1  0  0  0  0
 53120  1  0  0  0  0
 54121  1  0  0  0  0
 55122  1  0  0  0  0
 57123  1  0  0  0  0
 58124  1  0  0  0  0
M  END
