
  xtb     03012221293D
 energy: -7.612410009719 gnorm: 0.000439386608 xtb: 6.4.1 (afa7bdf)
 39 42  0     0  0            999 V2000
   -2.9426   -3.5121   -0.6929 C   0  0  0  0  0  0  0  0  0  0  0  0
   -1.6564   -4.0321   -0.8745 O   0  0  0  0  0  0  0  0  0  0  0  0
   -0.6631   -3.1126   -0.6949 C   0  0  0  0  0  0  0  0  0  0  0  0
   -0.6646   -1.7755   -0.3800 N   0  0  0  0  0  4  0  0  0  0  0  0
    0.6160   -1.2756   -0.2991 C   0  0  0  0  0  0  0  0  0  0  0  0
    0.9586    0.0610   -0.0163 C   0  0  0  0  0  0  0  0  0  0  0  0
    2.3609    0.5097    0.0589 C   0  0  0  0  0  0  0  0  0  0  0  0
    3.3093   -0.2080    0.7935 C   0  0  0  0  0  0  0  0  0  0  0  0
    4.6156    0.2157    0.8614 C   0  0  0  0  0  0  0  0  0  0  0  0
    5.0089    1.3611    0.2006 C   0  0  0  0  0  0  0  0  0  0  0  0
    4.0890    2.0851   -0.5295 C   0  0  0  0  0  0  0  0  0  0  0  0
    2.7806    1.6686   -0.6005 C   0  0  0  0  0  0  0  0  0  0  0  0
   -0.1111    0.9473    0.1920 C   0  0  0  0  0  0  0  0  0  0  0  0
   -0.1228    2.3344    0.5375 C   0  0  0  0  0  0  0  0  0  0  0  0
   -1.4217    2.7321    0.6580 C   0  0  0  0  0  0  0  0  0  0  0  0
   -2.2748    1.6112    0.4013 C   0  0  0  0  0  0  0  0  0  0  0  0
   -3.6348    1.5337    0.4123 O   0  0  0  0  0  0  0  0  0  0  0  0
   -4.2592    2.7534    0.7229 C   0  0  0  0  0  0  0  0  0  0  0  0
   -1.4260    0.5740    0.1335 N   0  0  0  0  0  0  0  0  0  0  0  0
   -1.8782   -0.8549   -0.1635 B   0  0  0  0  0  4  0  0  0  0  0  0
   -2.6317   -0.8334   -1.3301 F   0  0  0  0  0  0  0  0  0  0  0  0
   -2.5951   -1.3169    0.9326 F   0  0  0  0  0  0  0  0  0  0  0  0
    1.4828   -2.3698   -0.5994 C   0  0  0  0  0  0  0  0  0  0  0  0
    0.7147   -3.4679   -0.8317 C   0  0  0  0  0  0  0  0  0  0  0  0
   -3.6682   -4.3122   -0.8450 H   0  0  0  0  0  0  0  0  0  0  0  0
   -3.1157   -2.7212   -1.4234 H   0  0  0  0  0  0  0  0  0  0  0  0
   -3.0330   -3.1271    0.3235 H   0  0  0  0  0  0  0  0  0  0  0  0
    2.9978   -1.0878    1.3278 H   0  0  0  0  0  0  0  0  0  0  0  0
    5.3339   -0.3466    1.4353 H   0  0  0  0  0  0  0  0  0  0  0  0
    6.0348    1.6906    0.2549 H   0  0  0  0  0  0  0  0  0  0  0  0
    4.3978    2.9779   -1.0481 H   0  0  0  0  0  0  0  0  0  0  0  0
    2.0681    2.2213   -1.1867 H   0  0  0  0  0  0  0  0  0  0  0  0
    0.7466    2.9492    0.6937 H   0  0  0  0  0  0  0  0  0  0  0  0
   -1.7524    3.7234    0.9142 H   0  0  0  0  0  0  0  0  0  0  0  0
   -3.9563    3.0782    1.7193 H   0  0  0  0  0  0  0  0  0  0  0  0
   -3.9914    3.5040   -0.0219 H   0  0  0  0  0  0  0  0  0  0  0  0
   -5.3388    2.5989    0.7068 H   0  0  0  0  0  0  0  0  0  0  0  0
    2.5564   -2.3246   -0.6549 H   0  0  0  0  0  0  0  0  0  0  0  0
    1.0663   -4.4523   -1.0874 H   0  0  0  0  0  0  0  0  0  0  0  0
  1  2  1  0  0  0  0
  2  3  1  0  0  0  0
  3  4  2  0  0  0  0
  4  5  1  0  0  0  0
  5  6  2  0  0  0  0
  6  7  1  0  0  0  0
  7  8  2  0  0  0  0
  8  9  1  0  0  0  0
  9 10  2  0  0  0  0
 10 11  1  0  0  0  0
 11 12  2  0  0  0  0
  6 13  1  0  0  0  0
 13 14  2  0  0  0  0
 14 15  1  0  0  0  0
 15 16  2  0  0  0  0
 16 17  1  0  0  0  0
 17 18  1  0  0  0  0
 16 19  1  0  0  0  0
 19 20  1  0  0  0  0
 20 21  1  0  0  0  0
 20 22  1  0  0  0  0
  5 23  1  0  0  0  0
 23 24  2  0  0  0  0
 24  3  1  0  0  0  0
 20  4  1  0  0  0  0
 12  7  1  0  0  0  0
 19 13  1  0  0  0  0
  1 25  1  0  0  0  0
  1 26  1  0  0  0  0
  1 27  1  0  0  0  0
  8 28  1  0  0  0  0
  9 29  1  0  0  0  0
 10 30  1  0  0  0  0
 11 31  1  0  0  0  0
 12 32  1  0  0  0  0
 14 33  1  0  0  0  0
 15 34  1  0  0  0  0
 18 35  1  0  0  0  0
 18 36  1  0  0  0  0
 18 37  1  0  0  0  0
 23 38  1  0  0  0  0
 24 39  1  0  0  0  0
M  CHG  1   4   1
M  CHG  1  20  -1
M  END
