
  xtb     03012221293D
 energy: -17.266511355848 gnorm: 0.000317483490 xtb: 6.4.1 (afa7bdf)
 82 90  0     0  0            999 V2000
    0.4664   -8.7415   -0.0428 C   0  0  0  0  0  0  0  0  0  0  0  0
    0.3195   -7.2596   -0.0492 C   0  0  0  0  0  0  0  0  0  0  0  0
   -0.3910   -6.6096    0.9513 C   0  0  0  0  0  0  0  0  0  0  0  0
   -0.5074   -5.2387    0.9580 C   0  0  0  0  0  0  0  0  0  0  0  0
    0.0902   -4.4633   -0.0385 C   0  0  0  0  0  0  0  0  0  0  0  0
   -0.0310   -2.9877   -0.0334 C   0  0  0  0  0  0  0  0  0  0  0  0
   -1.3208   -2.3839   -0.0236 C   0  0  0  0  0  0  0  0  0  0  0  0
   -1.5692   -1.0571   -0.0426 N   0  0  0  0  0  0  0  0  0  0  0  0
   -2.9127   -0.9096   -0.0685 C   0  0  0  0  0  0  0  0  0  0  0  0
   -3.6082    0.3299   -0.0978 C   0  0  0  0  0  0  0  0  0  0  0  0
   -5.0864    0.3437   -0.1616 C   0  0  0  0  0  0  0  0  0  0  0  0
   -5.7714   -0.3486   -1.1627 C   0  0  0  0  0  0  0  0  0  0  0  0
   -7.1459   -0.3283   -1.2209 C   0  0  0  0  0  0  0  0  0  0  0  0
   -7.8893    0.3776   -0.2839 C   0  0  0  0  0  0  0  0  0  0  0  0
   -9.3761    0.4185   -0.3568 C   0  0  0  0  0  0  0  0  0  0  0  0
   -7.2131    1.0756    0.7076 C   0  0  0  0  0  0  0  0  0  0  0  0
   -5.8388    1.0598    0.7719 C   0  0  0  0  0  0  0  0  0  0  0  0
   -2.8959    1.5497   -0.0802 C   0  0  0  0  0  0  0  0  0  0  0  0
   -3.4320    2.8352   -0.1696 C   0  0  0  0  0  0  0  0  0  0  0  0
   -2.4931    3.8585   -0.1154 C   0  0  0  0  0  0  0  0  0  0  0  0
   -1.1713    3.4321    0.0317 C   0  0  0  0  0  0  0  0  0  0  0  0
   -1.1712    1.6957    0.0242 S   0  0  0  0  0  0  0  0  0  0  0  0
   -0.0049    4.2259    0.1519 C   0  0  0  0  0  0  0  0  0  0  0  0
   -0.0845    5.6689    0.3274 C   0  0  0  0  0  0  0  0  0  0  0  0
   -1.1309    6.3795    0.9281 C   0  0  0  0  0  0  0  0  0  0  0  0
   -0.7842    7.7135    0.9032 C   0  0  0  0  0  0  0  0  0  0  0  0
    0.4554    7.7954    0.2990 C   0  0  0  0  0  0  0  0  0  0  0  0
    0.8983    6.5665   -0.0488 O   0  0  0  0  0  0  0  0  0  0  0  0
    1.2808    3.6165    0.1238 C   0  0  0  0  0  0  0  0  0  0  0  0
    1.5302    2.2923    0.0362 N   0  0  0  0  0  0  0  0  0  0  0  0
    2.8722    2.1399    0.0763 C   0  0  0  0  0  0  0  0  0  0  0  0
    3.5719    0.8991    0.0423 C   0  0  0  0  0  0  0  0  0  0  0  0
    5.0511    0.8915    0.0617 C   0  0  0  0  0  0  0  0  0  0  0  0
    5.7863    1.6148   -0.8802 C   0  0  0  0  0  0  0  0  0  0  0  0
    7.1616    1.6060   -0.8619 C   0  0  0  0  0  0  0  0  0  0  0  0
    7.8563    0.8743    0.0916 C   0  0  0  0  0  0  0  0  0  0  0  0
    9.3454    0.8864    0.1122 C   0  0  0  0  0  0  0  0  0  0  0  0
    7.1322    0.1580    1.0361 C   0  0  0  0  0  0  0  0  0  0  0  0
    5.7567    0.1634    1.0224 C   0  0  0  0  0  0  0  0  0  0  0  0
    2.8621   -0.3178    0.0044 C   0  0  0  0  0  0  0  0  0  0  0  0
    3.4000   -1.6092   -0.0368 C   0  0  0  0  0  0  0  0  0  0  0  0
    2.4580   -2.6265   -0.0522 C   0  0  0  0  0  0  0  0  0  0  0  0
    1.1299   -2.1871   -0.0396 C   0  0  0  0  0  0  0  0  0  0  0  0
    1.1333   -0.4521   -0.0089 S   0  0  0  0  0  0  0  0  0  0  0  0
    3.5033    3.4208    0.2052 C   0  0  0  0  0  0  0  0  0  0  0  0
    2.5156    4.3340    0.2325 C   0  0  0  0  0  0  0  0  0  0  0  0
   -3.5459   -2.1982   -0.0530 C   0  0  0  0  0  0  0  0  0  0  0  0
   -2.5585   -3.1118   -0.0353 C   0  0  0  0  0  0  0  0  0  0  0  0
    0.8113   -5.1229   -1.0365 C   0  0  0  0  0  0  0  0  0  0  0  0
    0.9241   -6.4940   -1.0371 C   0  0  0  0  0  0  0  0  0  0  0  0
    0.4629   -9.1402   -1.0579 H   0  0  0  0  0  0  0  0  0  0  0  0
    1.4034   -9.0355    0.4313 H   0  0  0  0  0  0  0  0  0  0  0  0
   -0.3499   -9.2170    0.5019 H   0  0  0  0  0  0  0  0  0  0  0  0
   -0.8510   -7.1928    1.7306 H   0  0  0  0  0  0  0  0  0  0  0  0
   -1.0489   -4.7443    1.7458 H   0  0  0  0  0  0  0  0  0  0  0  0
   -5.2051   -0.8858   -1.9033 H   0  0  0  0  0  0  0  0  0  0  0  0
   -7.6593   -0.8613   -2.0030 H   0  0  0  0  0  0  0  0  0  0  0  0
   -9.8186    0.3231    0.6355 H   0  0  0  0  0  0  0  0  0  0  0  0
   -9.7165    1.3602   -0.7887 H   0  0  0  0  0  0  0  0  0  0  0  0
   -9.7652   -0.3934   -0.9722 H   0  0  0  0  0  0  0  0  0  0  0  0
   -7.7806    1.6335    1.4330 H   0  0  0  0  0  0  0  0  0  0  0  0
   -5.3262    1.5906    1.5550 H   0  0  0  0  0  0  0  0  0  0  0  0
   -4.4885    3.0145   -0.2915 H   0  0  0  0  0  0  0  0  0  0  0  0
   -2.7640    4.8959   -0.2266 H   0  0  0  0  0  0  0  0  0  0  0  0
   -2.0075    5.9612    1.3915 H   0  0  0  0  0  0  0  0  0  0  0  0
   -1.3631    8.5351    1.2925 H   0  0  0  0  0  0  0  0  0  0  0  0
    1.0121    8.7082    0.1263 H   0  0  0  0  0  0  0  0  0  0  0  0
    5.2573    2.1715   -1.6351 H   0  0  0  0  0  0  0  0  0  0  0  0
    7.7147    2.1698   -1.5933 H   0  0  0  0  0  0  0  0  0  0  0  0
    9.7502    0.7317   -0.8887 H   0  0  0  0  0  0  0  0  0  0  0  0
    9.7403    0.0988    0.7549 H   0  0  0  0  0  0  0  0  0  0  0  0
    9.7196    1.8411    0.4833 H   0  0  0  0  0  0  0  0  0  0  0  0
    7.6606   -0.4029    1.7874 H   0  0  0  0  0  0  0  0  0  0  0  0
    5.2051   -0.3815    1.7697 H   0  0  0  0  0  0  0  0  0  0  0  0
    4.4629   -1.7937   -0.0588 H   0  0  0  0  0  0  0  0  0  0  0  0
    2.7232   -3.6715   -0.0601 H   0  0  0  0  0  0  0  0  0  0  0  0
    4.5602    3.6107    0.2836 H   0  0  0  0  0  0  0  0  0  0  0  0
    2.6163    5.4025    0.3148 H   0  0  0  0  0  0  0  0  0  0  0  0
   -4.6047   -2.3926   -0.0507 H   0  0  0  0  0  0  0  0  0  0  0  0
   -2.6716   -4.1826   -0.0388 H   0  0  0  0  0  0  0  0  0  0  0  0
    1.2675   -4.5409   -1.8186 H   0  0  0  0  0  0  0  0  0  0  0  0
    1.4856   -6.9883   -1.8113 H   0  0  0  0  0  0  0  0  0  0  0  0
  1  2  1  0  0  0  0
  2  3  2  0  0  0  0
  3  4  1  0  0  0  0
  4  5  2  0  0  0  0
  5  6  1  0  0  0  0
  6  7  1  0  0  0  0
  7  8  2  0  0  0  0
  8  9  1  0  0  0  0
  9 10  2  0  0  0  0
 10 11  1  0  0  0  0
 11 12  2  0  0  0  0
 12 13  1  0  0  0  0
 13 14  2  0  0  0  0
 14 15  1  0  0  0  0
 14 16  1  0  0  0  0
 16 17  2  0  0  0  0
 10 18  1  0  0  0  0
 18 19  2  0  0  0  0
 19 20  1  0  0  0  0
 20 21  2  0  0  0  0
 21 22  1  0  0  0  0
 21 23  1  0  0  0  0
 23 24  1  0  0  0  0
 24 25  2  0  0  0  0
 25 26  1  0  0  0  0
 26 27  2  0  0  0  0
 27 28  1  0  0  0  0
 23 29  2  0  0  0  0
 29 30  1  0  0  0  0
 30 31  2  0  0  0  0
 31 32  1  0  0  0  0
 32 33  1  0  0  0  0
 33 34  2  0  0  0  0
 34 35  1  0  0  0  0
 35 36  2  0  0  0  0
 36 37  1  0  0  0  0
 36 38  1  0  0  0  0
 38 39  2  0  0  0  0
 32 40  2  0  0  0  0
 40 41  1  0  0  0  0
 41 42  2  0  0  0  0
 42 43  1  0  0  0  0
 43 44  1  0  0  0  0
 31 45  1  0  0  0  0
 45 46  2  0  0  0  0
  9 47  1  0  0  0  0
 47 48  2  0  0  0  0
  5 49  1  0  0  0  0
 49 50  2  0  0  0  0
 50  2  1  0  0  0  0
 43  6  2  0  0  0  0
 48  7  1  0  0  0  0
 17 11  1  0  0  0  0
 22 18  1  0  0  0  0
 28 24  1  0  0  0  0
 46 29  1  0  0  0  0
 39 33  1  0  0  0  0
 44 40  1  0  0  0  0
  1 51  1  0  0  0  0
  1 52  1  0  0  0  0
  1 53  1  0  0  0  0
  3 54  1  0  0  0  0
  4 55  1  0  0  0  0
 12 56  1  0  0  0  0
 13 57  1  0  0  0  0
 15 58  1  0  0  0  0
 15 59  1  0  0  0  0
 15 60  1  0  0  0  0
 16 61  1  0  0  0  0
 17 62  1  0  0  0  0
 19 63  1  0  0  0  0
 20 64  1  0  0  0  0
 25 65  1  0  0  0  0
 26 66  1  0  0  0  0
 27 67  1  0  0  0  0
 34 68  1  0  0  0  0
 35 69  1  0  0  0  0
 37 70  1  0  0  0  0
 37 71  1  0  0  0  0
 37 72  1  0  0  0  0
 38 73  1  0  0  0  0
 39 74  1  0  0  0  0
 41 75  1  0  0  0  0
 42 76  1  0  0  0  0
 45 77  1  0  0  0  0
 46 78  1  0  0  0  0
 47 79  1  0  0  0  0
 48 80  1  0  0  0  0
 49 81  1  0  0  0  0
 50 82  1  0  0  0  0
M  END
