
  xtb     03012221283D
 energy: -10.967196803941 gnorm: 0.000209122055 xtb: 6.4.1 (afa7bdf)
 54 58  0     0  0            999 V2000
    7.3675   -1.1668   -0.2330 C   0  0  0  0  0  0  0  0  0  0  0  0
    7.6499    0.1653   -0.5745 O   0  0  0  0  0  0  0  0  0  0  0  0
    6.9595    1.1024    0.2403 C   0  0  0  0  0  0  0  0  0  0  0  0
    5.4670    0.9263    0.1958 C   0  0  0  0  0  0  0  0  0  0  0  0
    4.9592    0.0534    1.0545 N   0  0  0  0  0  0  0  0  0  0  0  0
    3.6616   -0.1146    0.9776 C   0  0  0  0  0  0  0  0  0  0  0  0
    2.8638    0.5470    0.0616 C   0  0  0  0  0  0  0  0  0  0  0  0
    1.3996    0.3317   -0.0170 C   0  0  0  0  0  0  0  0  0  0  0  0
    0.8828   -0.9340   -0.3800 C   0  0  0  0  0  0  0  0  0  0  0  0
    1.7409   -2.0158   -0.6967 C   0  0  0  0  0  0  0  0  0  0  0  0
    1.2454   -3.2258   -1.0661 C   0  0  0  0  0  0  0  0  0  0  0  0
   -0.1387   -3.4275   -1.1473 C   0  0  0  0  0  0  0  0  0  0  0  0
   -0.9967   -2.4146   -0.8577 C   0  0  0  0  0  0  0  0  0  0  0  0
   -0.5237   -1.1388   -0.4635 C   0  0  0  0  0  0  0  0  0  0  0  0
   -1.4170   -0.0781   -0.1859 C   0  0  0  0  0  0  0  0  0  0  0  0
   -2.8811   -0.2872   -0.2830 C   0  0  0  0  0  0  0  0  0  0  0  0
   -3.5643   -1.1480    0.5569 C   0  0  0  0  0  0  0  0  0  0  0  0
   -4.8587   -1.3427    0.4884 N   0  0  0  0  0  0  0  0  0  0  0  0
   -5.4839   -0.6540   -0.4561 C   0  0  0  0  0  0  0  0  0  0  0  0
   -6.9760   -0.8263   -0.5192 C   0  0  0  0  0  0  0  0  0  0  0  0
   -7.6704    0.0658    0.3413 O   0  0  0  0  0  0  0  0  0  0  0  0
   -7.2856   -0.0630    1.6853 C   0  0  0  0  0  0  0  0  0  0  0  0
   -4.9566    0.2065   -1.3158 N   0  0  0  0  0  0  0  0  0  0  0  0
   -3.6601    0.3706   -1.2175 C   0  0  0  0  0  0  0  0  0  0  0  0
   -0.9003    1.1869    0.1793 C   0  0  0  0  0  0  0  0  0  0  0  0
   -1.7590    2.2694    0.4921 C   0  0  0  0  0  0  0  0  0  0  0  0
   -1.2640    3.4795    0.8617 C   0  0  0  0  0  0  0  0  0  0  0  0
    0.1200    3.6806    0.9463 C   0  0  0  0  0  0  0  0  0  0  0  0
    0.9784    2.6673    0.6589 C   0  0  0  0  0  0  0  0  0  0  0  0
    0.5059    1.3914    0.2643 C   0  0  0  0  0  0  0  0  0  0  0  0
    3.5284    1.4193   -0.7812 C   0  0  0  0  0  0  0  0  0  0  0  0
    4.8221    1.6224   -0.7299 N   0  0  0  0  0  0  0  0  0  0  0  0
    7.6178   -1.3406    0.8143 H   0  0  0  0  0  0  0  0  0  0  0  0
    7.9644   -1.8249   -0.8653 H   0  0  0  0  0  0  0  0  0  0  0  0
    6.3081   -1.3672   -0.3992 H   0  0  0  0  0  0  0  0  0  0  0  0
    7.2282    2.1010   -0.1184 H   0  0  0  0  0  0  0  0  0  0  0  0
    7.3262    1.0030    1.2666 H   0  0  0  0  0  0  0  0  0  0  0  0
    3.2063   -0.8048    1.6704 H   0  0  0  0  0  0  0  0  0  0  0  0
    2.8050   -1.8648   -0.6516 H   0  0  0  0  0  0  0  0  0  0  0  0
    1.9165   -4.0343   -1.3037 H   0  0  0  0  0  0  0  0  0  0  0  0
   -0.5203   -4.3894   -1.4464 H   0  0  0  0  0  0  0  0  0  0  0  0
   -2.0578   -2.5732   -0.9366 H   0  0  0  0  0  0  0  0  0  0  0  0
   -3.0187   -1.6849    1.3169 H   0  0  0  0  0  0  0  0  0  0  0  0
   -7.3310   -0.6348   -1.5368 H   0  0  0  0  0  0  0  0  0  0  0  0
   -7.2547   -1.8504   -0.2521 H   0  0  0  0  0  0  0  0  0  0  0  0
   -6.2322    0.2017    1.7876 H   0  0  0  0  0  0  0  0  0  0  0  0
   -7.8900    0.6142    2.2898 H   0  0  0  0  0  0  0  0  0  0  0  0
   -7.4442   -1.0895    2.0180 H   0  0  0  0  0  0  0  0  0  0  0  0
   -3.1903    1.0531   -1.9084 H   0  0  0  0  0  0  0  0  0  0  0  0
   -2.8231    2.1194    0.4419 H   0  0  0  0  0  0  0  0  0  0  0  0
   -1.9354    4.2889    1.0953 H   0  0  0  0  0  0  0  0  0  0  0  0
    0.5013    4.6428    1.2448 H   0  0  0  0  0  0  0  0  0  0  0  0
    2.0393    2.8262    0.7390 H   0  0  0  0  0  0  0  0  0  0  0  0
    2.9684    1.9597   -1.5283 H   0  0  0  0  0  0  0  0  0  0  0  0
  1  2  1  0  0  0  0
  2  3  1  0  0  0  0
  3  4  1  0  0  0  0
  4  5  2  0  0  0  0
  5  6  1  0  0  0  0
  6  7  2  0  0  0  0
  7  8  1  0  0  0  0
  8  9  1  0  0  0  0
  9 10  2  0  0  0  0
 10 11  1  0  0  0  0
 11 12  2  0  0  0  0
 12 13  1  0  0  0  0
 13 14  2  0  0  0  0
 14 15  1  0  0  0  0
 15 16  1  0  0  0  0
 16 17  2  0  0  0  0
 17 18  1  0  0  0  0
 18 19  2  0  0  0  0
 19 20  1  0  0  0  0
 20 21  1  0  0  0  0
 21 22  1  0  0  0  0
 19 23  1  0  0  0  0
 23 24  2  0  0  0  0
 15 25  2  0  0  0  0
 25 26  1  0  0  0  0
 26 27  2  0  0  0  0
 27 28  1  0  0  0  0
 28 29  2  0  0  0  0
 29 30  1  0  0  0  0
  7 31  1  0  0  0  0
 31 32  2  0  0  0  0
 32  4  1  0  0  0  0
 30  8  2  0  0  0  0
 14  9  1  0  0  0  0
 24 16  1  0  0  0  0
 30 25  1  0  0  0  0
  1 33  1  0  0  0  0
  1 34  1  0  0  0  0
  1 35  1  0  0  0  0
  3 36  1  0  0  0  0
  3 37  1  0  0  0  0
  6 38  1  0  0  0  0
 10 39  1  0  0  0  0
 11 40  1  0  0  0  0
 12 41  1  0  0  0  0
 13 42  1  0  0  0  0
 17 43  1  0  0  0  0
 20 44  1  0  0  0  0
 20 45  1  0  0  0  0
 22 46  1  0  0  0  0
 22 47  1  0  0  0  0
 22 48  1  0  0  0  0
 24 49  1  0  0  0  0
 26 50  1  0  0  0  0
 27 51  1  0  0  0  0
 28 52  1  0  0  0  0
 29 53  1  0  0  0  0
 31 54  1  0  0  0  0
M  END
