
  xtb     03012221293D
 energy: -12.719684718909 gnorm: 0.000388083289 xtb: 6.4.1 (afa7bdf)
 63 67  0     0  0            999 V2000
   -2.2450   -6.0966    1.5071 C   0  0  0  0  0  0  0  0  0  0  0  0
   -2.0409   -4.7917    0.8130 C   0  0  0  0  0  0  0  0  0  0  0  0
   -2.9468   -4.3333    0.1535 O   0  0  0  0  0  0  0  0  0  0  0  0
   -0.8248   -4.2342    1.0045 O   0  0  0  0  0  0  0  0  0  0  0  0
   -0.4012   -3.0066    0.3350 B   0  0  0  0  0  4  0  0  0  0  0  0
   -0.3239   -3.2152   -1.1179 O   0  0  0  0  0  0  0  0  0  0  0  0
    0.4589   -4.1323   -1.7267 C   0  0  0  0  0  0  0  0  0  0  0  0
    0.2912   -4.2185   -3.2066 C   0  0  0  0  0  0  0  0  0  0  0  0
    1.2595   -4.8621   -1.1879 O   0  0  0  0  0  0  0  0  0  0  0  0
   -1.3775   -1.9371    0.5895 O   0  0  0  0  0  0  0  0  0  0  0  0
   -1.0132   -0.6662    0.2987 C   0  0  0  0  0  0  0  0  0  0  0  0
   -2.0573    0.2700    0.0609 C   0  0  0  0  0  0  0  0  0  0  0  0
   -3.3410   -0.1609    0.0511 C   0  0  0  0  0  0  0  0  0  0  0  0
   -4.5253    0.6227   -0.2046 C   0  0  0  0  0  0  0  0  0  0  0  0
   -5.6110   -0.0172   -0.7892 C   0  0  0  0  0  0  0  0  0  0  0  0
   -6.7490    0.6780   -1.1622 C   0  0  0  0  0  0  0  0  0  0  0  0
   -6.8444    2.0245   -0.9573 C   0  0  0  0  0  0  0  0  0  0  0  0
   -5.7999    2.7265   -0.3230 C   0  0  0  0  0  0  0  0  0  0  0  0
   -5.9048    4.1100   -0.0644 C   0  0  0  0  0  0  0  0  0  0  0  0
   -4.9206    4.7647    0.6142 C   0  0  0  0  0  0  0  0  0  0  0  0
   -3.8048    4.0732    1.0805 C   0  0  0  0  0  0  0  0  0  0  0  0
   -3.6729    2.7373    0.8341 C   0  0  0  0  0  0  0  0  0  0  0  0
   -4.6370    2.0269    0.0934 C   0  0  0  0  0  0  0  0  0  0  0  0
    0.3283   -0.3170    0.2449 C   0  0  0  0  0  0  0  0  0  0  0  0
    1.2943   -1.2718    0.5398 C   0  0  0  0  0  0  0  0  0  0  0  0
    2.6910   -0.9793    0.5958 C   0  0  0  0  0  0  0  0  0  0  0  0
    3.2512    0.2410    0.4039 C   0  0  0  0  0  0  0  0  0  0  0  0
    4.6583    0.5272    0.4402 C   0  0  0  0  0  0  0  0  0  0  0  0
    5.5870   -0.4983    0.5673 C   0  0  0  0  0  0  0  0  0  0  0  0
    6.9490   -0.2487    0.5941 C   0  0  0  0  0  0  0  0  0  0  0  0
    7.4303    1.0242    0.4953 C   0  0  0  0  0  0  0  0  0  0  0  0
    6.5455    2.1122    0.3647 C   0  0  0  0  0  0  0  0  0  0  0  0
    7.0315    3.4331    0.2637 C   0  0  0  0  0  0  0  0  0  0  0  0
    6.1695    4.4816    0.1437 C   0  0  0  0  0  0  0  0  0  0  0  0
    4.7942    4.2642    0.1209 C   0  0  0  0  0  0  0  0  0  0  0  0
    4.2966    2.9968    0.2159 C   0  0  0  0  0  0  0  0  0  0  0  0
    5.1457    1.8787    0.3368 C   0  0  0  0  0  0  0  0  0  0  0  0
    0.9217   -2.5521    0.8006 O   0  0  0  0  0  3  0  0  0  0  0  0
   -1.3170   -6.4230    1.9741 H   0  0  0  0  0  0  0  0  0  0  0  0
   -3.0094   -6.0026    2.2762 H   0  0  0  0  0  0  0  0  0  0  0  0
   -2.5622   -6.8567    0.7955 H   0  0  0  0  0  0  0  0  0  0  0  0
    0.0274   -5.2339   -3.4970 H   0  0  0  0  0  0  0  0  0  0  0  0
   -0.4984   -3.5459   -3.5374 H   0  0  0  0  0  0  0  0  0  0  0  0
    1.2168   -3.9458   -3.7102 H   0  0  0  0  0  0  0  0  0  0  0  0
   -1.8070    1.2822   -0.1945 H   0  0  0  0  0  0  0  0  0  0  0  0
   -3.4727   -1.2260    0.1606 H   0  0  0  0  0  0  0  0  0  0  0  0
   -5.5427   -1.0719   -0.9901 H   0  0  0  0  0  0  0  0  0  0  0  0
   -7.5638    0.1489   -1.6327 H   0  0  0  0  0  0  0  0  0  0  0  0
   -7.7272    2.5594   -1.2585 H   0  0  0  0  0  0  0  0  0  0  0  0
   -6.7787    4.6393   -0.3999 H   0  0  0  0  0  0  0  0  0  0  0  0
   -5.0135    5.8218    0.8106 H   0  0  0  0  0  0  0  0  0  0  0  0
   -3.0525    4.5940    1.6480 H   0  0  0  0  0  0  0  0  0  0  0  0
   -2.8431    2.2058    1.2673 H   0  0  0  0  0  0  0  0  0  0  0  0
    0.6005    0.6937    0.0147 H   0  0  0  0  0  0  0  0  0  0  0  0
    3.3162   -1.8225    0.8177 H   0  0  0  0  0  0  0  0  0  0  0  0
    2.5888    1.0590    0.2062 H   0  0  0  0  0  0  0  0  0  0  0  0
    5.2505   -1.5158    0.6328 H   0  0  0  0  0  0  0  0  0  0  0  0
    7.6378   -1.0741    0.6920 H   0  0  0  0  0  0  0  0  0  0  0  0
    8.4893    1.2093    0.5160 H   0  0  0  0  0  0  0  0  0  0  0  0
    8.0933    3.6018    0.2838 H   0  0  0  0  0  0  0  0  0  0  0  0
    6.5522    5.4878    0.0678 H   0  0  0  0  0  0  0  0  0  0  0  0
    4.1235    5.1015    0.0296 H   0  0  0  0  0  0  0  0  0  0  0  0
    3.2295    2.8599    0.2039 H   0  0  0  0  0  0  0  0  0  0  0  0
  1  2  1  0  0  0  0
  2  3  2  0  0  0  0
  2  4  1  0  0  0  0
  4  5  1  0  0  0  0
  5  6  1  0  0  0  0
  6  7  1  0  0  0  0
  7  8  1  0  0  0  0
  7  9  2  0  0  0  0
  5 10  1  0  0  0  0
 10 11  1  0  0  0  0
 11 12  1  0  0  0  0
 12 13  2  0  0  0  0
 13 14  1  0  0  0  0
 14 15  2  0  0  0  0
 15 16  1  0  0  0  0
 16 17  2  0  0  0  0
 17 18  1  0  0  0  0
 18 19  2  0  0  0  0
 19 20  1  0  0  0  0
 20 21  2  0  0  0  0
 21 22  1  0  0  0  0
 22 23  2  0  0  0  0
 11 24  2  0  0  0  0
 24 25  1  0  0  0  0
 25 26  1  0  0  0  0
 26 27  2  0  0  0  0
 27 28  1  0  0  0  0
 28 29  2  0  0  0  0
 29 30  1  0  0  0  0
 30 31  2  0  0  0  0
 31 32  1  0  0  0  0
 32 33  2  0  0  0  0
 33 34  1  0  0  0  0
 34 35  2  0  0  0  0
 35 36  1  0  0  0  0
 36 37  2  0  0  0  0
 25 38  2  0  0  0  0
 38  5  1  0  0  0  0
 23 14  1  0  0  0  0
 37 28  1  0  0  0  0
 23 18  1  0  0  0  0
 37 32  1  0  0  0  0
  1 39  1  0  0  0  0
  1 40  1  0  0  0  0
  1 41  1  0  0  0  0
  8 42  1  0  0  0  0
  8 43  1  0  0  0  0
  8 44  1  0  0  0  0
 12 45  1  0  0  0  0
 13 46  1  0  0  0  0
 15 47  1  0  0  0  0
 16 48  1  0  0  0  0
 17 49  1  0  0  0  0
 19 50  1  0  0  0  0
 20 51  1  0  0  0  0
 21 52  1  0  0  0  0
 22 53  1  0  0  0  0
 24 54  1  0  0  0  0
 26 55  1  0  0  0  0
 27 56  1  0  0  0  0
 29 57  1  0  0  0  0
 30 58  1  0  0  0  0
 31 59  1  0  0  0  0
 33 60  1  0  0  0  0
 34 61  1  0  0  0  0
 35 62  1  0  0  0  0
 36 63  1  0  0  0  0
M  CHG  1   5  -1
M  CHG  1  38   1
M  END
