
  xtb     03012221203D
 energy: -7.663723055174 gnorm: 0.000389985701 xtb: 6.4.1 (afa7bdf)
 35 38  0     0  0            999 V2000
    2.3202   -1.8304    1.4776 O   0  0  0  0  0  0  0  0  0  0  0  0
    2.5094   -0.8611    0.7750 C   0  0  0  0  0  0  0  0  0  0  0  0
    3.8151   -0.3111    0.3919 C   0  0  0  0  0  0  0  0  0  0  0  0
    5.0968   -0.7201    0.7096 C   0  0  0  0  0  0  0  0  0  0  0  0
    6.1611   -0.0018    0.2030 C   0  0  0  0  0  0  0  0  0  0  0  0
    5.9501    1.1059   -0.6065 C   0  0  0  0  0  0  0  0  0  0  0  0
    4.6708    1.5157   -0.9238 C   0  0  0  0  0  0  0  0  0  0  0  0
    3.6040    0.7971   -0.4172 C   0  0  0  0  0  0  0  0  0  0  0  0
    2.1572    0.9878   -0.5738 C   0  0  0  0  0  0  0  0  0  0  0  0
    1.6168    1.8631   -1.2147 O   0  0  0  0  0  0  0  0  0  0  0  0
    1.5387   -0.0402    0.1660 N   0  0  0  0  0  0  0  0  0  0  0  0
    0.1379   -0.2169    0.2888 C   0  0  0  0  0  0  0  0  0  0  0  0
   -0.3833   -1.2581    1.0441 C   0  0  0  0  0  0  0  0  0  0  0  0
   -1.7421   -1.4277    1.1713 C   0  0  0  0  0  0  0  0  0  0  0  0
   -2.6217   -0.5614    0.5399 C   0  0  0  0  0  0  0  0  0  0  0  0
   -4.0971   -0.7160    0.6919 C   0  0  0  0  0  0  0  0  0  0  0  0
   -4.8286   -0.1199   -0.4367 N   0  0  0  0  0  0  0  0  0  0  0  0
   -5.3179   -0.8083   -1.5398 C   0  0  0  0  0  0  0  0  0  0  0  0
   -5.8186    0.0771   -2.3525 N   0  0  0  0  0  0  0  0  0  0  0  0
   -5.6241    1.2705   -1.7445 C   0  0  0  0  0  0  0  0  0  0  0  0
   -5.0140    1.1802   -0.5843 N   0  0  0  0  0  0  0  0  0  0  0  0
   -2.1019    0.4818   -0.2086 C   0  0  0  0  0  0  0  0  0  0  0  0
   -0.7448    0.6519   -0.3365 C   0  0  0  0  0  0  0  0  0  0  0  0
    5.2394   -1.5811    1.3397 H   0  0  0  0  0  0  0  0  0  0  0  0
    7.1672   -0.3049    0.4398 H   0  0  0  0  0  0  0  0  0  0  0  0
    6.7941    1.6531   -0.9917 H   0  0  0  0  0  0  0  0  0  0  0  0
    4.4863    2.3722   -1.5489 H   0  0  0  0  0  0  0  0  0  0  0  0
    0.3044   -1.9270    1.5310 H   0  0  0  0  0  0  0  0  0  0  0  0
   -2.1327   -2.2350    1.7659 H   0  0  0  0  0  0  0  0  0  0  0  0
   -4.3687   -1.7703    0.7694 H   0  0  0  0  0  0  0  0  0  0  0  0
   -4.4317   -0.2239    1.6069 H   0  0  0  0  0  0  0  0  0  0  0  0
   -5.2864   -1.8740   -1.7069 H   0  0  0  0  0  0  0  0  0  0  0  0
   -5.9334    2.2137   -2.1801 H   0  0  0  0  0  0  0  0  0  0  0  0
   -2.7821    1.1589   -0.6915 H   0  0  0  0  0  0  0  0  0  0  0  0
   -0.3402    1.4602   -0.9201 H   0  0  0  0  0  0  0  0  0  0  0  0
  1  2  2  0  0  0  0
  2  3  1  0  0  0  0
  3  4  2  0  0  0  0
  4  5  1  0  0  0  0
  5  6  2  0  0  0  0
  6  7  1  0  0  0  0
  7  8  2  0  0  0  0
  8  9  1  0  0  0  0
  9 10  2  0  0  0  0
  9 11  1  0  0  0  0
 11 12  1  0  0  0  0
 12 13  2  0  0  0  0
 13 14  1  0  0  0  0
 14 15  2  0  0  0  0
 15 16  1  0  0  0  0
 16 17  1  0  0  0  0
 17 18  1  0  0  0  0
 18 19  2  0  0  0  0
 19 20  1  0  0  0  0
 20 21  2  0  0  0  0
 15 22  1  0  0  0  0
 22 23  2  0  0  0  0
 11  2  1  0  0  0  0
 23 12  1  0  0  0  0
  8  3  1  0  0  0  0
 21 17  1  0  0  0  0
  4 24  1  0  0  0  0
  5 25  1  0  0  0  0
  6 26  1  0  0  0  0
  7 27  1  0  0  0  0
 13 28  1  0  0  0  0
 14 29  1  0  0  0  0
 16 30  1  0  0  0  0
 16 31  1  0  0  0  0
 18 32  1  0  0  0  0
 20 33  1  0  0  0  0
 22 34  1  0  0  0  0
 23 35  1  0  0  0  0
M  END
