
  xtb     03012221303D
 energy: -10.736839733454 gnorm: 0.000206985178 xtb: 6.4.1 (afa7bdf)
 53 59  0     0  0            999 V2000
    1.4303    2.4633   -1.7829 O   0  0  0  0  0  0  0  0  0  0  0  0
    0.9315    1.5575   -1.1253 C   0  0  0  0  0  0  0  0  0  0  0  0
    1.7274    0.5777   -0.4042 C   0  0  0  0  0  0  0  0  0  0  0  0
    1.0882   -0.4223    0.3292 C   0  0  0  0  0  0  0  0  0  0  0  0
    1.7747   -1.3531    1.0294 O   0  0  0  0  0  0  0  0  0  0  0  0
    3.2338   -1.4270    1.0837 B   0  0  0  0  0  4  0  0  0  0  0  0
    3.6640   -1.2833    2.3970 F   0  0  0  0  0  0  0  0  0  0  0  0
    3.6636   -2.6386    0.5566 F   0  0  0  0  0  0  0  0  0  0  0  0
    3.8864   -0.3103    0.2608 N   0  0  0  0  0  4  0  0  0  0  0  0
    3.1684    0.6104   -0.4192 C   0  0  0  0  0  0  0  0  0  0  0  0
    3.8730    1.5956   -1.1400 C   0  0  0  0  0  0  0  0  0  0  0  0
    5.2268    1.6305   -1.1613 C   0  0  0  0  0  0  0  0  0  0  0  0
    5.9703    0.6670   -0.4523 C   0  0  0  0  0  0  0  0  0  0  0  0
    7.3788    0.6574   -0.4426 C   0  0  0  0  0  0  0  0  0  0  0  0
    8.0605   -0.2932    0.2562 C   0  0  0  0  0  0  0  0  0  0  0  0
    7.3679   -1.2711    0.9724 C   0  0  0  0  0  0  0  0  0  0  0  0
    6.0060   -1.2831    0.9788 C   0  0  0  0  0  0  0  0  0  0  0  0
    5.2677   -0.3197    0.2707 C   0  0  0  0  0  0  0  0  0  0  0  0
   -0.3471   -0.5123    0.3740 C   0  0  0  0  0  0  0  0  0  0  0  0
   -0.9677   -1.4991    1.1313 C   0  0  0  0  0  0  0  0  0  0  0  0
   -2.3354   -1.6179    1.1661 C   0  0  0  0  0  0  0  0  0  0  0  0
   -3.1627   -0.7633    0.4279 C   0  0  0  0  0  0  0  0  0  0  0  0
   -4.5476   -1.0040    0.3630 N   0  0  0  0  0  0  0  0  0  0  0  0
   -5.3289   -1.0043   -0.8937 C   0  0  0  0  0  0  0  0  0  0  0  0
   -6.4903   -0.0168   -0.7858 C   0  0  0  0  0  0  0  0  0  0  0  0
   -6.3716    0.7848    0.3817 O   0  0  0  0  0  0  0  0  0  0  0  0
   -6.4137    0.0076    1.5769 C   0  0  0  0  0  0  0  0  0  0  0  0
   -5.3913   -1.1322    1.5652 C   0  0  0  0  0  0  0  0  0  0  0  0
   -2.5539    0.3214   -0.2940 C   0  0  0  0  0  0  0  0  0  0  0  0
   -3.3103    1.3325   -0.8988 C   0  0  0  0  0  0  0  0  0  0  0  0
   -2.7040    2.3488   -1.5893 C   0  0  0  0  0  0  0  0  0  0  0  0
   -1.3218    2.4049   -1.6843 C   0  0  0  0  0  0  0  0  0  0  0  0
   -0.5320    1.4633   -1.0610 C   0  0  0  0  0  0  0  0  0  0  0  0
   -1.1437    0.4168   -0.3373 C   0  0  0  0  0  0  0  0  0  0  0  0
    3.3123    2.3335   -1.6834 H   0  0  0  0  0  0  0  0  0  0  0  0
    5.7466    2.3907   -1.7176 H   0  0  0  0  0  0  0  0  0  0  0  0
    7.9099    1.4125   -0.9957 H   0  0  0  0  0  0  0  0  0  0  0  0
    9.1384   -0.2928    0.2578 H   0  0  0  0  0  0  0  0  0  0  0  0
    7.9148   -2.0194    1.5221 H   0  0  0  0  0  0  0  0  0  0  0  0
    5.4683   -2.0349    1.5293 H   0  0  0  0  0  0  0  0  0  0  0  0
   -0.3422   -2.1828    1.6800 H   0  0  0  0  0  0  0  0  0  0  0  0
   -2.7904   -2.4164    1.7248 H   0  0  0  0  0  0  0  0  0  0  0  0
   -4.6597   -0.7524   -1.7196 H   0  0  0  0  0  0  0  0  0  0  0  0
   -5.6802   -2.0219   -1.0822 H   0  0  0  0  0  0  0  0  0  0  0  0
   -6.5456    0.6562   -1.6512 H   0  0  0  0  0  0  0  0  0  0  0  0
   -7.4563   -0.5335   -0.7268 H   0  0  0  0  0  0  0  0  0  0  0  0
   -7.4399   -0.3594    1.7025 H   0  0  0  0  0  0  0  0  0  0  0  0
   -6.2241    0.7040    2.4040 H   0  0  0  0  0  0  0  0  0  0  0  0
   -4.7555   -1.1130    2.4535 H   0  0  0  0  0  0  0  0  0  0  0  0
   -5.8776   -2.1103    1.5401 H   0  0  0  0  0  0  0  0  0  0  0  0
   -4.3755    1.3337   -0.7528 H   0  0  0  0  0  0  0  0  0  0  0  0
   -3.3030    3.1181   -2.0497 H   0  0  0  0  0  0  0  0  0  0  0  0
   -0.8379    3.2007   -2.2254 H   0  0  0  0  0  0  0  0  0  0  0  0
  1  2  2  0  0  0  0
  2  3  1  0  0  0  0
  3  4  2  0  0  0  0
  4  5  1  0  0  0  0
  5  6  1  0  0  0  0
  6  7  1  0  0  0  0
  6  8  1  0  0  0  0
  6  9  1  0  0  0  0
  9 10  2  0  0  0  0
 10 11  1  0  0  0  0
 11 12  2  0  0  0  0
 12 13  1  0  0  0  0
 13 14  2  0  0  0  0
 14 15  1  0  0  0  0
 15 16  2  0  0  0  0
 16 17  1  0  0  0  0
 17 18  2  0  0  0  0
  4 19  1  0  0  0  0
 19 20  1  0  0  0  0
 20 21  2  0  0  0  0
 21 22  1  0  0  0  0
 22 23  1  0  0  0  0
 23 24  1  0  0  0  0
 24 25  1  0  0  0  0
 25 26  1  0  0  0  0
 26 27  1  0  0  0  0
 27 28  1  0  0  0  0
 22 29  2  0  0  0  0
 29 30  1  0  0  0  0
 30 31  2  0  0  0  0
 31 32  1  0  0  0  0
 32 33  2  0  0  0  0
 33 34  1  0  0  0  0
 33  2  1  0  0  0  0
 10  3  1  0  0  0  0
 18 13  1  0  0  0  0
 34 19  2  0  0  0  0
 18  9  1  0  0  0  0
 28 23  1  0  0  0  0
 34 29  1  0  0  0  0
 11 35  1  0  0  0  0
 12 36  1  0  0  0  0
 14 37  1  0  0  0  0
 15 38  1  0  0  0  0
 16 39  1  0  0  0  0
 17 40  1  0  0  0  0
 20 41  1  0  0  0  0
 21 42  1  0  0  0  0
 24 43  1  0  0  0  0
 24 44  1  0  0  0  0
 25 45  1  0  0  0  0
 25 46  1  0  0  0  0
 27 47  1  0  0  0  0
 27 48  1  0  0  0  0
 28 49  1  0  0  0  0
 28 50  1  0  0  0  0
 30 51  1  0  0  0  0
 31 52  1  0  0  0  0
 32 53  1  0  0  0  0
M  CHG  1   6  -1
M  CHG  1   9   1
M  END
