
  xtb     03012221213D
 energy: -12.177235761012 gnorm: 0.000671251342 xtb: 6.4.1 (afa7bdf)
 54 59  0     0  0            999 V2000
   -6.5775    5.2931   -0.5654 N   0  0  0  0  0  0  0  0  0  0  0  0
   -5.9822    4.0549   -0.4151 C   0  0  0  0  0  0  0  0  0  0  0  0
   -4.5893    3.9286   -0.3809 C   0  0  0  0  0  0  0  0  0  0  0  0
   -4.0001    2.6977   -0.2283 C   0  0  0  0  0  0  0  0  0  0  0  0
   -4.7741    1.5436   -0.1049 C   0  0  0  0  0  0  0  0  0  0  0  0
   -4.1647    0.2889    0.0504 C   0  0  0  0  0  0  0  0  0  0  0  0
   -3.6023   -0.7907    0.1826 C   0  0  0  0  0  0  0  0  0  0  0  0
   -2.9065   -1.9972    0.3343 C   0  0  0  0  0  0  0  0  0  0  0  0
   -3.6076   -3.1915    0.4912 C   0  0  0  0  0  0  0  0  0  0  0  0
   -2.9609   -4.3944    0.6435 C   0  0  0  0  0  0  0  0  0  0  0  0
   -1.5632   -4.4608    0.6466 C   0  0  0  0  0  0  0  0  0  0  0  0
   -0.8625   -5.6919    0.8033 C   0  0  0  0  0  0  0  0  0  0  0  0
    0.4916   -5.7336    0.8037 C   0  0  0  0  0  0  0  0  0  0  0  0
    1.2668   -4.5480    0.6472 C   0  0  0  0  0  0  0  0  0  0  0  0
    2.6659   -4.5679    0.6440 C   0  0  0  0  0  0  0  0  0  0  0  0
    3.3855   -3.4074    0.4902 C   0  0  0  0  0  0  0  0  0  0  0  0
    2.7595   -2.1720    0.3325 C   0  0  0  0  0  0  0  0  0  0  0  0
    3.5288   -1.0115    0.1763 C   0  0  0  0  0  0  0  0  0  0  0  0
    4.1597    0.0276    0.0294 C   0  0  0  0  0  0  0  0  0  0  0  0
    4.8522    1.2360   -0.1442 C   0  0  0  0  0  0  0  0  0  0  0  0
    5.0483    1.7672   -1.4192 C   0  0  0  0  0  0  0  0  0  0  0  0
    5.7181    2.9532   -1.5934 C   0  0  0  0  0  0  0  0  0  0  0  0
    6.2203    3.6587   -0.4947 C   0  0  0  0  0  0  0  0  0  0  0  0
    6.8938    4.8533   -0.6676 N   0  0  0  0  0  0  0  0  0  0  0  0
    6.0216    3.1255    0.7835 C   0  0  0  0  0  0  0  0  0  0  0  0
    5.3513    1.9390    0.9525 C   0  0  0  0  0  0  0  0  0  0  0  0
    1.3472   -2.1132    0.3312 C   0  0  0  0  0  0  0  0  0  0  0  0
    0.6408   -0.8853    0.1753 C   0  0  0  0  0  0  0  0  0  0  0  0
   -0.7127   -0.8435    0.1759 C   0  0  0  0  0  0  0  0  0  0  0  0
   -1.4933   -2.0256    0.3320 C   0  0  0  0  0  0  0  0  0  0  0  0
   -0.8226   -3.2643    0.4891 C   0  0  0  0  0  0  0  0  0  0  0  0
    0.6014   -3.3081    0.4892 C   0  0  0  0  0  0  0  0  0  0  0  0
   -6.1632    1.6676   -0.1403 C   0  0  0  0  0  0  0  0  0  0  0  0
   -6.7571    2.8965   -0.2928 C   0  0  0  0  0  0  0  0  0  0  0  0
   -7.5688    5.4364   -0.4293 H   0  0  0  0  0  0  0  0  0  0  0  0
   -6.0565    6.1562   -0.4906 H   0  0  0  0  0  0  0  0  0  0  0  0
   -3.9854    4.8137   -0.4771 H   0  0  0  0  0  0  0  0  0  0  0  0
   -2.9274    2.6089   -0.2030 H   0  0  0  0  0  0  0  0  0  0  0  0
   -4.6846   -3.1576    0.4912 H   0  0  0  0  0  0  0  0  0  0  0  0
   -3.5267   -5.3017    0.7629 H   0  0  0  0  0  0  0  0  0  0  0  0
   -1.4325   -6.5971    0.9228 H   0  0  0  0  0  0  0  0  0  0  0  0
    1.0046   -6.6723    0.9231 H   0  0  0  0  0  0  0  0  0  0  0  0
    3.1747   -5.5084    0.7635 H   0  0  0  0  0  0  0  0  0  0  0  0
    4.4626   -3.4401    0.4890 H   0  0  0  0  0  0  0  0  0  0  0  0
    4.6628    1.2312   -2.2697 H   0  0  0  0  0  0  0  0  0  0  0  0
    5.8630    3.3575   -2.5798 H   0  0  0  0  0  0  0  0  0  0  0  0
    7.2001    5.1729   -1.5764 H   0  0  0  0  0  0  0  0  0  0  0  0
    7.4095    5.2946    0.0815 H   0  0  0  0  0  0  0  0  0  0  0  0
    6.4013    3.6631    1.6345 H   0  0  0  0  0  0  0  0  0  0  0  0
    5.2006    1.5363    1.9396 H   0  0  0  0  0  0  0  0  0  0  0  0
    1.2079    0.0208    0.0557 H   0  0  0  0  0  0  0  0  0  0  0  0
   -1.2229    0.0959    0.0568 H   0  0  0  0  0  0  0  0  0  0  0  0
   -6.7664    0.7808   -0.0465 H   0  0  0  0  0  0  0  0  0  0  0  0
   -7.8290    2.9839   -0.3207 H   0  0  0  0  0  0  0  0  0  0  0  0
  1  2  1  0  0  0  0
  2  3  2  0  0  0  0
  3  4  1  0  0  0  0
  4  5  2  0  0  0  0
  5  6  1  0  0  0  0
  6  7  3  0  0  0  0
  7  8  1  0  0  0  0
  8  9  2  0  0  0  0
  9 10  1  0  0  0  0
 10 11  2  0  0  0  0
 11 12  1  0  0  0  0
 12 13  2  0  0  0  0
 13 14  1  0  0  0  0
 14 15  2  0  0  0  0
 15 16  1  0  0  0  0
 16 17  2  0  0  0  0
 17 18  1  0  0  0  0
 18 19  3  0  0  0  0
 19 20  1  0  0  0  0
 20 21  2  0  0  0  0
 21 22  1  0  0  0  0
 22 23  2  0  0  0  0
 23 24  1  0  0  0  0
 23 25  1  0  0  0  0
 25 26  2  0  0  0  0
 17 27  1  0  0  0  0
 27 28  2  0  0  0  0
 28 29  1  0  0  0  0
 29 30  2  0  0  0  0
 30 31  1  0  0  0  0
 31 32  2  0  0  0  0
  5 33  1  0  0  0  0
 33 34  2  0  0  0  0
 34  2  1  0  0  0  0
 30  8  1  0  0  0  0
 31 11  1  0  0  0  0
 32 14  1  0  0  0  0
 26 20  1  0  0  0  0
 32 27  1  0  0  0  0
  1 35  1  0  0  0  0
  1 36  1  0  0  0  0
  3 37  1  0  0  0  0
  4 38  1  0  0  0  0
  9 39  1  0  0  0  0
 10 40  1  0  0  0  0
 12 41  1  0  0  0  0
 13 42  1  0  0  0  0
 15 43  1  0  0  0  0
 16 44  1  0  0  0  0
 21 45  1  0  0  0  0
 22 46  1  0  0  0  0
 24 47  1  0  0  0  0
 24 48  1  0  0  0  0
 25 49  1  0  0  0  0
 26 50  1  0  0  0  0
 28 51  1  0  0  0  0
 29 52  1  0  0  0  0
 33 53  1  0  0  0  0
 34 54  1  0  0  0  0
M  END
