
  xtb     03012221283D
 energy: -7.576716708533 gnorm: 0.000296203277 xtb: 6.4.1 (afa7bdf)
 42 43  0     0  0            999 V2000
    6.9898   -0.3744   -1.0669 C   0  0  0  0  0  0  0  0  0  0  0  0
    5.5028   -0.5832   -0.8339 C   0  0  0  0  0  0  0  0  0  0  0  0
    4.9495    0.2949    0.2866 C   0  0  0  0  0  0  0  0  0  0  0  0
    3.5946    0.0805    0.5277 N   0  0  0  0  0  0  0  0  0  0  0  0
    2.6806    0.5249   -0.2353 C   0  0  0  0  0  0  0  0  0  0  0  0
    1.2646    0.3262   -0.0363 C   0  0  0  0  0  0  0  0  0  0  0  0
    0.3736    0.9788   -0.8609 C   0  0  0  0  0  0  0  0  0  0  0  0
   -1.0163    0.8394   -0.7112 C   0  0  0  0  0  0  0  0  0  0  0  0
   -1.9399    1.5096   -1.5463 C   0  0  0  0  0  0  0  0  0  0  0  0
   -3.2791    1.3563   -1.3680 C   0  0  0  0  0  0  0  0  0  0  0  0
   -3.7967    0.5239   -0.3449 C   0  0  0  0  0  0  0  0  0  0  0  0
   -5.1859    0.3780   -0.1684 N   0  0  0  0  0  0  0  0  0  0  0  0
   -6.1430    1.1453   -0.9643 C   0  0  0  0  0  0  0  0  0  0  0  0
   -5.7391   -0.5375    0.8290 C   0  0  0  0  0  0  0  0  0  0  0  0
   -2.9023   -0.1382    0.4751 C   0  0  0  0  0  0  0  0  0  0  0  0
   -1.5118    0.0004    0.3170 C   0  0  0  0  0  0  0  0  0  0  0  0
   -0.5971   -0.6705    1.1518 C   0  0  0  0  0  0  0  0  0  0  0  0
    0.7688   -0.5348    1.0019 C   0  0  0  0  0  0  0  0  0  0  0  0
    1.6927   -1.1998    1.8066 O   0  0  0  0  0  0  0  0  0  0  0  0
    1.1428   -2.0332    2.7988 C   0  0  0  0  0  0  0  0  0  0  0  0
    7.2052    0.6608   -1.3375 H   0  0  0  0  0  0  0  0  0  0  0  0
    7.3723   -1.0103   -1.8681 H   0  0  0  0  0  0  0  0  0  0  0  0
    7.5654   -0.5980   -0.1670 H   0  0  0  0  0  0  0  0  0  0  0  0
    5.2957   -1.6339   -0.5936 H   0  0  0  0  0  0  0  0  0  0  0  0
    4.9399   -0.3882   -1.7554 H   0  0  0  0  0  0  0  0  0  0  0  0
    5.4930    0.1009    1.2189 H   0  0  0  0  0  0  0  0  0  0  0  0
    5.1098    1.3558    0.0611 H   0  0  0  0  0  0  0  0  0  0  0  0
    2.9841    1.1109   -1.0860 H   0  0  0  0  0  0  0  0  0  0  0  0
    0.7487    1.6200   -1.6383 H   0  0  0  0  0  0  0  0  0  0  0  0
   -1.5648    2.1464   -2.3289 H   0  0  0  0  0  0  0  0  0  0  0  0
   -3.9632    1.8714   -2.0178 H   0  0  0  0  0  0  0  0  0  0  0  0
   -5.9233    2.2087   -0.8904 H   0  0  0  0  0  0  0  0  0  0  0  0
   -6.0887    0.8414   -2.0078 H   0  0  0  0  0  0  0  0  0  0  0  0
   -7.1610    0.9876   -0.6144 H   0  0  0  0  0  0  0  0  0  0  0  0
   -5.3350   -1.5374    0.6833 H   0  0  0  0  0  0  0  0  0  0  0  0
   -5.4886   -0.1935    1.8307 H   0  0  0  0  0  0  0  0  0  0  0  0
   -6.8225   -0.5979    0.7488 H   0  0  0  0  0  0  0  0  0  0  0  0
   -3.2682   -0.7710    1.2614 H   0  0  0  0  0  0  0  0  0  0  0  0
   -0.9916   -1.3044    1.9220 H   0  0  0  0  0  0  0  0  0  0  0  0
    0.5392   -1.4428    3.4892 H   0  0  0  0  0  0  0  0  0  0  0  0
    0.5438   -2.8188    2.3366 H   0  0  0  0  0  0  0  0  0  0  0  0
    1.9611   -2.4945    3.3528 H   0  0  0  0  0  0  0  0  0  0  0  0
  1  2  1  0  0  0  0
  2  3  1  0  0  0  0
  3  4  1  0  0  0  0
  4  5  2  0  0  0  0
  5  6  1  0  0  0  0
  6  7  2  0  0  0  0
  7  8  1  0  0  0  0
  8  9  2  0  0  0  0
  9 10  1  0  0  0  0
 10 11  2  0  0  0  0
 11 12  1  0  0  0  0
 12 13  1  0  0  0  0
 12 14  1  0  0  0  0
 11 15  1  0  0  0  0
 15 16  2  0  0  0  0
 16 17  1  0  0  0  0
 17 18  2  0  0  0  0
 18 19  1  0  0  0  0
 19 20  1  0  0  0  0
 18  6  1  0  0  0  0
 16  8  1  0  0  0  0
  1 21  1  0  0  0  0
  1 22  1  0  0  0  0
  1 23  1  0  0  0  0
  2 24  1  0  0  0  0
  2 25  1  0  0  0  0
  3 26  1  0  0  0  0
  3 27  1  0  0  0  0
  5 28  1  0  0  0  0
  7 29  1  0  0  0  0
  9 30  1  0  0  0  0
 10 31  1  0  0  0  0
 13 32  1  0  0  0  0
 13 33  1  0  0  0  0
 13 34  1  0  0  0  0
 14 35  1  0  0  0  0
 14 36  1  0  0  0  0
 14 37  1  0  0  0  0
 15 38  1  0  0  0  0
 17 39  1  0  0  0  0
 20 40  1  0  0  0  0
 20 41  1  0  0  0  0
 20 42  1  0  0  0  0
M  END
