
  xtb     03012221223D
 energy: -14.430872079466 gnorm: 0.000121867239 xtb: 6.4.1 (afa7bdf)
 66 73  0     0  0            999 V2000
    4.6508   -1.6342    1.2605 C   0  0  0  0  0  0  0  0  0  0  0  0
    5.7721   -1.2005    0.6201 C   0  0  0  0  0  0  0  0  0  0  0  0
    7.0683   -1.8880    0.6425 C   0  0  0  0  0  0  0  0  0  0  0  0
    7.4665   -3.0658    1.2643 C   0  0  0  0  0  0  0  0  0  0  0  0
    8.7656   -3.5020    1.0996 C   0  0  0  0  0  0  0  0  0  0  0  0
    9.6666   -2.7827    0.3245 C   0  0  0  0  0  0  0  0  0  0  0  0
    9.2843   -1.6136   -0.3015 C   0  0  0  0  0  0  0  0  0  0  0  0
    7.9790   -1.1673   -0.1438 C   0  0  0  0  0  0  0  0  0  0  0  0
    7.2991    0.0211   -0.6568 C   0  0  0  0  0  0  0  0  0  0  0  0
    7.7748    1.0736   -1.4276 C   0  0  0  0  0  0  0  0  0  0  0  0
    6.9289    2.1259   -1.7111 C   0  0  0  0  0  0  0  0  0  0  0  0
    5.6296    2.1418   -1.2217 C   0  0  0  0  0  0  0  0  0  0  0  0
    5.1493    1.1003   -0.4548 C   0  0  0  0  0  0  0  0  0  0  0  0
    5.9762    0.0151   -0.1836 C   0  0  0  0  0  0  0  0  0  0  0  0
    3.3014   -1.0966    1.1164 C   0  0  0  0  0  0  0  0  0  0  0  0
    2.4756   -0.9470    2.2354 C   0  0  0  0  0  0  0  0  0  0  0  0
    1.1991   -0.4557    2.1106 C   0  0  0  0  0  0  0  0  0  0  0  0
    0.6796   -0.1068    0.8619 C   0  0  0  0  0  0  0  0  0  0  0  0
   -0.6898    0.4304    0.7338 C   0  0  0  0  0  0  0  0  0  0  0  0
   -1.4845    0.1236   -0.3728 C   0  0  0  0  0  0  0  0  0  0  0  0
   -2.7613    0.6166   -0.4848 C   0  0  0  0  0  0  0  0  0  0  0  0
   -3.3104    1.4309    0.5117 C   0  0  0  0  0  0  0  0  0  0  0  0
   -4.6592    1.9772    0.3974 C   0  0  0  0  0  0  0  0  0  0  0  0
   -5.7742    1.3124   -0.0150 C   0  0  0  0  0  0  0  0  0  0  0  0
   -7.0687    1.9427   -0.2981 C   0  0  0  0  0  0  0  0  0  0  0  0
   -7.4702    3.2721   -0.2349 C   0  0  0  0  0  0  0  0  0  0  0  0
   -8.7665    3.5956   -0.5813 C   0  0  0  0  0  0  0  0  0  0  0  0
   -9.6615    2.6147   -0.9898 C   0  0  0  0  0  0  0  0  0  0  0  0
   -9.2758    1.2915   -1.0606 C   0  0  0  0  0  0  0  0  0  0  0  0
   -7.9733    0.9559   -0.7163 C   0  0  0  0  0  0  0  0  0  0  0  0
   -7.2910   -0.3366   -0.6741 C   0  0  0  0  0  0  0  0  0  0  0  0
   -7.7613   -1.6168   -0.9349 C   0  0  0  0  0  0  0  0  0  0  0  0
   -6.9148   -2.6888   -0.7411 C   0  0  0  0  0  0  0  0  0  0  0  0
   -5.6203   -2.4942   -0.2782 C   0  0  0  0  0  0  0  0  0  0  0  0
   -5.1454   -1.2257   -0.0161 C   0  0  0  0  0  0  0  0  0  0  0  0
   -5.9728   -0.1291   -0.2345 C   0  0  0  0  0  0  0  0  0  0  0  0
   -2.5021    1.7630    1.6038 C   0  0  0  0  0  0  0  0  0  0  0  0
   -1.2263    1.2669    1.7152 C   0  0  0  0  0  0  0  0  0  0  0  0
    1.4919   -0.2861   -0.2598 C   0  0  0  0  0  0  0  0  0  0  0  0
    2.7693   -0.7752   -0.1370 C   0  0  0  0  0  0  0  0  0  0  0  0
    4.7612   -2.4712    1.9292 H   0  0  0  0  0  0  0  0  0  0  0  0
    6.7665   -3.6236    1.8609 H   0  0  0  0  0  0  0  0  0  0  0  0
    9.0852   -4.4132    1.5781 H   0  0  0  0  0  0  0  0  0  0  0  0
   10.6765   -3.1415    0.2109 H   0  0  0  0  0  0  0  0  0  0  0  0
    9.9761   -1.0491   -0.9014 H   0  0  0  0  0  0  0  0  0  0  0  0
    8.7904    1.0630   -1.7819 H   0  0  0  0  0  0  0  0  0  0  0  0
    7.2845    2.9503   -2.3074 H   0  0  0  0  0  0  0  0  0  0  0  0
    4.9899    2.9814   -1.4387 H   0  0  0  0  0  0  0  0  0  0  0  0
    4.1561    1.1362   -0.0471 H   0  0  0  0  0  0  0  0  0  0  0  0
    2.8609   -1.2134    3.2045 H   0  0  0  0  0  0  0  0  0  0  0  0
    0.5776   -0.3519    2.9829 H   0  0  0  0  0  0  0  0  0  0  0  0
   -1.0905   -0.5220   -1.1382 H   0  0  0  0  0  0  0  0  0  0  0  0
   -3.3551    0.3876   -1.3531 H   0  0  0  0  0  0  0  0  0  0  0  0
   -4.7748    3.0178    0.6503 H   0  0  0  0  0  0  0  0  0  0  0  0
   -6.7748    4.0307    0.0778 H   0  0  0  0  0  0  0  0  0  0  0  0
   -9.0886    4.6229   -0.5348 H   0  0  0  0  0  0  0  0  0  0  0  0
  -10.6694    2.8902   -1.2543 H   0  0  0  0  0  0  0  0  0  0  0  0
   -9.9630    0.5254   -1.3735 H   0  0  0  0  0  0  0  0  0  0  0  0
   -8.7734   -1.7586   -1.2706 H   0  0  0  0  0  0  0  0  0  0  0  0
   -7.2663   -3.6883   -0.9384 H   0  0  0  0  0  0  0  0  0  0  0  0
   -4.9801   -3.3457   -0.1156 H   0  0  0  0  0  0  0  0  0  0  0  0
   -4.1560   -1.0843    0.3778 H   0  0  0  0  0  0  0  0  0  0  0  0
   -2.9007    2.4084    2.3675 H   0  0  0  0  0  0  0  0  0  0  0  0
   -0.6183    1.5377    2.5607 H   0  0  0  0  0  0  0  0  0  0  0  0
    1.1112   -0.0203   -1.2305 H   0  0  0  0  0  0  0  0  0  0  0  0
    3.3766   -0.9270   -1.0127 H   0  0  0  0  0  0  0  0  0  0  0  0
  1  2  2  0  0  0  0
  2  3  1  0  0  0  0
  3  4  2  0  0  0  0
  4  5  1  0  0  0  0
  5  6  2  0  0  0  0
  6  7  1  0  0  0  0
  7  8  2  0  0  0  0
  8  9  1  0  0  0  0
  9 10  2  0  0  0  0
 10 11  1  0  0  0  0
 11 12  2  0  0  0  0
 12 13  1  0  0  0  0
 13 14  2  0  0  0  0
  1 15  1  0  0  0  0
 15 16  2  0  0  0  0
 16 17  1  0  0  0  0
 17 18  2  0  0  0  0
 18 19  1  0  0  0  0
 19 20  2  0  0  0  0
 20 21  1  0  0  0  0
 21 22  2  0  0  0  0
 22 23  1  0  0  0  0
 23 24  2  0  0  0  0
 24 25  1  0  0  0  0
 25 26  2  0  0  0  0
 26 27  1  0  0  0  0
 27 28  2  0  0  0  0
 28 29  1  0  0  0  0
 29 30  2  0  0  0  0
 30 31  1  0  0  0  0
 31 32  2  0  0  0  0
 32 33  1  0  0  0  0
 33 34  2  0  0  0  0
 34 35  1  0  0  0  0
 35 36  2  0  0  0  0
 22 37  1  0  0  0  0
 37 38  2  0  0  0  0
 18 39  1  0  0  0  0
 39 40  2  0  0  0  0
 14  2  1  0  0  0  0
 40 15  1  0  0  0  0
  8  3  1  0  0  0  0
 14  9  1  0  0  0  0
 38 19  1  0  0  0  0
 36 24  1  0  0  0  0
 30 25  1  0  0  0  0
 36 31  1  0  0  0  0
  1 41  1  0  0  0  0
  4 42  1  0  0  0  0
  5 43  1  0  0  0  0
  6 44  1  0  0  0  0
  7 45  1  0  0  0  0
 10 46  1  0  0  0  0
 11 47  1  0  0  0  0
 12 48  1  0  0  0  0
 13 49  1  0  0  0  0
 16 50  1  0  0  0  0
 17 51  1  0  0  0  0
 20 52  1  0  0  0  0
 21 53  1  0  0  0  0
 23 54  1  0  0  0  0
 26 55  1  0  0  0  0
 27 56  1  0  0  0  0
 28 57  1  0  0  0  0
 29 58  1  0  0  0  0
 32 59  1  0  0  0  0
 33 60  1  0  0  0  0
 34 61  1  0  0  0  0
 35 62  1  0  0  0  0
 37 63  1  0  0  0  0
 38 64  1  0  0  0  0
 39 65  1  0  0  0  0
 40 66  1  0  0  0  0
M  END
