
  xtb     03012221333D
 energy: -8.522054416037 gnorm: 0.000281312733 xtb: 6.4.1 (afa7bdf)
 42 45  0     0  0            999 V2000
    6.8012   -2.5908    0.9703 C   0  0  0  0  0  0  0  0  0  0  0  0
    5.8287   -2.1479    1.8857 O   0  0  0  0  0  0  0  0  0  0  0  0
    4.6410   -1.6974    1.3084 C   0  0  0  0  0  0  0  0  0  0  0  0
    4.3828   -1.6688   -0.0665 C   0  0  0  0  0  0  0  0  0  0  0  0
    3.1840   -1.2099   -0.5511 C   0  0  0  0  0  0  0  0  0  0  0  0
    2.1828   -0.7557    0.3107 C   0  0  0  0  0  0  0  0  0  0  0  0
    0.9066   -0.2643   -0.1835 C   0  0  0  0  0  0  0  0  0  0  0  0
    0.5032   -0.1954   -1.4881 C   0  0  0  0  0  0  0  0  0  0  0  0
   -0.8161    0.3158   -1.6674 C   0  0  0  0  0  0  0  0  0  0  0  0
   -1.4505    0.6363   -0.4812 C   0  0  0  0  0  0  0  0  0  0  0  0
   -0.3627    0.3517    0.8466 S   0  0  0  0  0  0  0  0  0  0  0  0
   -2.7895    1.1095   -0.4470 C   0  0  0  0  0  0  0  0  0  0  0  0
   -3.4754    1.3620    0.8384 C   0  0  0  0  0  0  0  0  0  0  0  0
   -2.7697    1.7878    1.9639 C   0  0  0  0  0  0  0  0  0  0  0  0
   -3.4047    1.9968    3.1660 C   0  0  0  0  0  0  0  0  0  0  0  0
   -4.7632    1.7839    3.2743 C   0  0  0  0  0  0  0  0  0  0  0  0
   -5.4825    1.3600    2.1759 C   0  0  0  0  0  0  0  0  0  0  0  0
   -4.8474    1.1497    0.9720 C   0  0  0  0  0  0  0  0  0  0  0  0
   -3.4275    1.2751   -1.6476 C   0  0  0  0  0  0  0  0  0  0  0  0
   -2.7997    0.9786   -2.9007 C   0  0  0  0  0  0  0  0  0  0  0  0
   -3.3962    1.1445   -3.9666 O   0  0  0  0  0  0  0  0  0  0  0  0
   -1.4919    0.4896   -2.8853 N   0  0  0  0  0  0  0  0  0  0  0  0
   -0.8596    0.1769   -4.1516 C   0  0  0  0  0  0  0  0  0  0  0  0
    2.4405   -0.7835    1.6817 C   0  0  0  0  0  0  0  0  0  0  0  0
    3.6366   -1.2418    2.1686 C   0  0  0  0  0  0  0  0  0  0  0  0
    7.6786   -2.9166    1.5297 H   0  0  0  0  0  0  0  0  0  0  0  0
    6.4142   -3.4337    0.3966 H   0  0  0  0  0  0  0  0  0  0  0  0
    7.0871   -1.7729    0.3080 H   0  0  0  0  0  0  0  0  0  0  0  0
    5.1338   -2.0109   -0.7555 H   0  0  0  0  0  0  0  0  0  0  0  0
    3.0108   -1.1973   -1.6124 H   0  0  0  0  0  0  0  0  0  0  0  0
    1.1136   -0.5093   -2.3169 H   0  0  0  0  0  0  0  0  0  0  0  0
   -1.7137    1.9703    1.8825 H   0  0  0  0  0  0  0  0  0  0  0  0
   -2.8416    2.3287    4.0224 H   0  0  0  0  0  0  0  0  0  0  0  0
   -5.2616    1.9473    4.2159 H   0  0  0  0  0  0  0  0  0  0  0  0
   -6.5427    1.1891    2.2613 H   0  0  0  0  0  0  0  0  0  0  0  0
   -5.4099    0.7959    0.1256 H   0  0  0  0  0  0  0  0  0  0  0  0
   -4.4336    1.6476   -1.6778 H   0  0  0  0  0  0  0  0  0  0  0  0
    0.0421    0.7722   -4.2771 H   0  0  0  0  0  0  0  0  0  0  0  0
   -0.6063   -0.8802   -4.1924 H   0  0  0  0  0  0  0  0  0  0  0  0
   -1.5485    0.4059   -4.9630 H   0  0  0  0  0  0  0  0  0  0  0  0
    1.6789   -0.4371    2.3579 H   0  0  0  0  0  0  0  0  0  0  0  0
    3.8282   -1.2615    3.2272 H   0  0  0  0  0  0  0  0  0  0  0  0
  1  2  1  0  0  0  0
  2  3  1  0  0  0  0
  3  4  2  0  0  0  0
  4  5  1  0  0  0  0
  5  6  2  0  0  0  0
  6  7  1  0  0  0  0
  7  8  2  0  0  0  0
  8  9  1  0  0  0  0
  9 10  2  0  0  0  0
 10 11  1  0  0  0  0
 10 12  1  0  0  0  0
 12 13  1  0  0  0  0
 13 14  2  0  0  0  0
 14 15  1  0  0  0  0
 15 16  2  0  0  0  0
 16 17  1  0  0  0  0
 17 18  2  0  0  0  0
 12 19  2  0  0  0  0
 19 20  1  0  0  0  0
 20 21  2  0  0  0  0
 20 22  1  0  0  0  0
 22 23  1  0  0  0  0
  6 24  1  0  0  0  0
 24 25  2  0  0  0  0
 25  3  1  0  0  0  0
 11  7  1  0  0  0  0
 18 13  1  0  0  0  0
 22  9  1  0  0  0  0
  1 26  1  0  0  0  0
  1 27  1  0  0  0  0
  1 28  1  0  0  0  0
  4 29  1  0  0  0  0
  5 30  1  0  0  0  0
  8 31  1  0  0  0  0
 14 32  1  0  0  0  0
 15 33  1  0  0  0  0
 16 34  1  0  0  0  0
 17 35  1  0  0  0  0
 18 36  1  0  0  0  0
 19 37  1  0  0  0  0
 23 38  1  0  0  0  0
 23 39  1  0  0  0  0
 23 40  1  0  0  0  0
 24 41  1  0  0  0  0
 25 42  1  0  0  0  0
M  END
