
  xtb     03012221203D
 energy: -4.261041284718 gnorm: 0.000218311355 xtb: 6.4.1 (afa7bdf)
 20 21  0     0  0            999 V2000
   -3.4434    0.1502   -0.2045 C   0  0  0  0  0  0  0  0  0  0  0  0
   -2.7919   -1.0577   -0.2274 C   0  0  0  0  0  0  0  0  0  0  0  0
   -1.4275   -1.0572   -0.1076 C   0  0  0  0  0  0  0  0  0  0  0  0
   -0.7416    0.1460    0.0325 C   0  0  0  0  0  0  0  0  0  0  0  0
    0.7297    0.1898    0.1646 C   0  0  0  0  0  0  0  0  0  0  0  0
    1.4992   -0.9703    0.1552 C   0  0  0  0  0  0  0  0  0  0  0  0
    2.8608   -0.8897    0.2801 C   0  0  0  0  0  0  0  0  0  0  0  0
    3.4255    0.3544    0.4122 C   0  0  0  0  0  0  0  0  0  0  0  0
    2.6011    1.4510    0.4125 C   0  0  0  0  0  0  0  0  0  0  0  0
    1.2859    1.3999    0.2937 N   0  0  0  0  0  0  0  0  0  0  0  0
   -1.3821    1.3204    0.0541 N   0  0  0  0  0  0  0  0  0  0  0  0
   -2.6982    1.2935   -0.0633 C   0  0  0  0  0  0  0  0  0  0  0  0
   -4.5159    0.1992   -0.2955 H   0  0  0  0  0  0  0  0  0  0  0  0
   -3.3393   -1.9797   -0.3367 H   0  0  0  0  0  0  0  0  0  0  0  0
   -0.8970   -1.9913   -0.1229 H   0  0  0  0  0  0  0  0  0  0  0  0
    1.0360   -1.9339    0.0506 H   0  0  0  0  0  0  0  0  0  0  0  0
    3.4722   -1.7773    0.2749 H   0  0  0  0  0  0  0  0  0  0  0  0
    4.4923    0.4669    0.5133 H   0  0  0  0  0  0  0  0  0  0  0  0
    3.0309    2.4354    0.5156 H   0  0  0  0  0  0  0  0  0  0  0  0
   -3.1970    2.2503   -0.0436 H   0  0  0  0  0  0  0  0  0  0  0  0
  1  2  2  0  0  0  0
  2  3  1  0  0  0  0
  3  4  2  0  0  0  0
  4  5  1  0  0  0  0
  5  6  2  0  0  0  0
  6  7  1  0  0  0  0
  7  8  2  0  0  0  0
  8  9  1  0  0  0  0
  9 10  2  0  0  0  0
  4 11  1  0  0  0  0
 11 12  2  0  0  0  0
 12  1  1  0  0  0  0
 10  5  1  0  0  0  0
  1 13  1  0  0  0  0
  2 14  1  0  0  0  0
  3 15  1  0  0  0  0
  6 16  1  0  0  0  0
  7 17  1  0  0  0  0
  8 18  1  0  0  0  0
  9 19  1  0  0  0  0
 12 20  1  0  0  0  0
M  END
