
  xtb     03012221253D
 energy: -8.990126293410 gnorm: 0.000243175768 xtb: 6.4.1 (afa7bdf)
 45 47  0     0  0            999 V2000
   -3.8349    2.4405    1.5609 C   0  0  0  0  0  0  0  0  0  0  0  0
   -4.3729    1.1104    1.0753 C   0  0  0  0  0  0  0  0  0  0  0  0
   -3.9475    0.8116   -0.3071 N   0  0  0  0  0  0  0  0  0  0  0  0
   -4.9442    1.1176   -1.3523 C   0  0  0  0  0  0  0  0  0  0  0  0
   -5.7543   -0.1028   -1.7371 C   0  0  0  0  0  0  0  0  0  0  0  0
   -2.6915    0.2579   -0.6018 C   0  0  0  0  0  0  0  0  0  0  0  0
   -2.3291   -0.0718   -1.9234 C   0  0  0  0  0  0  0  0  0  0  0  0
   -1.1106   -0.6154   -2.2085 C   0  0  0  0  0  0  0  0  0  0  0  0
   -0.1766   -0.8612   -1.1897 C   0  0  0  0  0  0  0  0  0  0  0  0
    1.0845   -1.4394   -1.4336 C   0  0  0  0  0  0  0  0  0  0  0  0
    1.9639   -1.6653   -0.4222 C   0  0  0  0  0  0  0  0  0  0  0  0
    3.1633   -2.3032   -0.7508 C   0  0  0  0  0  0  0  0  0  0  0  0
    4.1561   -2.8199   -1.0647 N   0  0  0  0  0  0  0  0  0  0  0  0
    1.6034   -1.2915    0.9219 C   0  0  0  0  0  0  0  0  0  0  0  0
    2.4160   -1.4527    1.9643 N   0  0  0  0  0  0  0  0  0  0  0  0
    3.7880   -1.5842    2.0292 C   0  0  0  0  0  0  0  0  0  0  0  0
    4.3336   -2.3528    2.8052 O   0  0  0  0  0  0  0  0  0  0  0  0
    4.6368   -0.7245    1.1730 C   0  0  0  0  0  0  0  0  0  0  0  0
    5.9301   -1.1233    0.8704 C   0  0  0  0  0  0  0  0  0  0  0  0
    6.7358   -0.3366    0.0818 C   0  0  0  0  0  0  0  0  0  0  0  0
    6.2685    0.8698   -0.4112 C   0  0  0  0  0  0  0  0  0  0  0  0
    7.0651    1.6509   -1.1779 F   0  0  0  0  0  0  0  0  0  0  0  0
    4.9810    1.2749   -0.1035 C   0  0  0  0  0  0  0  0  0  0  0  0
    4.1726    0.4885    0.6821 C   0  0  0  0  0  0  0  0  0  0  0  0
    0.3631   -0.7532    1.1843 O   0  0  0  0  0  0  0  0  0  0  0  0
   -0.5157   -0.5370    0.1408 C   0  0  0  0  0  0  0  0  0  0  0  0
   -1.7657    0.0137    0.4041 C   0  0  0  0  0  0  0  0  0  0  0  0
   -4.1865    3.2571    0.9289 H   0  0  0  0  0  0  0  0  0  0  0  0
   -4.1405    2.6583    2.5862 H   0  0  0  0  0  0  0  0  0  0  0  0
   -2.7450    2.4620    1.5283 H   0  0  0  0  0  0  0  0  0  0  0  0
   -5.4662    1.0993    1.1103 H   0  0  0  0  0  0  0  0  0  0  0  0
   -4.0582    0.2875    1.7227 H   0  0  0  0  0  0  0  0  0  0  0  0
   -5.5960    1.9154   -0.9841 H   0  0  0  0  0  0  0  0  0  0  0  0
   -4.4271    1.5469   -2.2145 H   0  0  0  0  0  0  0  0  0  0  0  0
   -5.1108   -0.9051   -2.0999 H   0  0  0  0  0  0  0  0  0  0  0  0
   -6.4845    0.1170   -2.5185 H   0  0  0  0  0  0  0  0  0  0  0  0
   -6.2971   -0.4974   -0.8771 H   0  0  0  0  0  0  0  0  0  0  0  0
   -3.0276    0.0984   -2.7225 H   0  0  0  0  0  0  0  0  0  0  0  0
   -0.8517   -0.8671   -3.2225 H   0  0  0  0  0  0  0  0  0  0  0  0
    1.3491   -1.7258   -2.4354 H   0  0  0  0  0  0  0  0  0  0  0  0
    6.2777   -2.0686    1.2532 H   0  0  0  0  0  0  0  0  0  0  0  0
    7.7361   -0.6444   -0.1698 H   0  0  0  0  0  0  0  0  0  0  0  0
    4.6307    2.2159   -0.4910 H   0  0  0  0  0  0  0  0  0  0  0  0
    3.1728    0.8023    0.9266 H   0  0  0  0  0  0  0  0  0  0  0  0
   -1.9941    0.2472    1.4253 H   0  0  0  0  0  0  0  0  0  0  0  0
  1  2  1  0  0  0  0
  2  3  1  0  0  0  0
  3  4  1  0  0  0  0
  4  5  1  0  0  0  0
  3  6  1  0  0  0  0
  6  7  2  0  0  0  0
  7  8  1  0  0  0  0
  8  9  2  0  0  0  0
  9 10  1  0  0  0  0
 10 11  2  0  0  0  0
 11 12  1  0  0  0  0
 12 13  3  0  0  0  0
 11 14  1  0  0  0  0
 14 15  2  0  0  0  0
 15 16  1  0  0  0  0
 16 17  2  0  0  0  0
 16 18  1  0  0  0  0
 18 19  2  0  0  0  0
 19 20  1  0  0  0  0
 20 21  2  0  0  0  0
 21 22  1  0  0  0  0
 21 23  1  0  0  0  0
 23 24  2  0  0  0  0
 14 25  1  0  0  0  0
 25 26  1  0  0  0  0
 26 27  2  0  0  0  0
 27  6  1  0  0  0  0
 26  9  1  0  0  0  0
 24 18  1  0  0  0  0
  1 28  1  0  0  0  0
  1 29  1  0  0  0  0
  1 30  1  0  0  0  0
  2 31  1  0  0  0  0
  2 32  1  0  0  0  0
  4 33  1  0  0  0  0
  4 34  1  0  0  0  0
  5 35  1  0  0  0  0
  5 36  1  0  0  0  0
  5 37  1  0  0  0  0
  7 38  1  0  0  0  0
  8 39  1  0  0  0  0
 10 40  1  0  0  0  0
 19 41  1  0  0  0  0
 20 42  1  0  0  0  0
 23 43  1  0  0  0  0
 24 44  1  0  0  0  0
 27 45  1  0  0  0  0
M  END
