
  xtb     03012221203D
 energy: -14.071888521828 gnorm: 0.000289581039 xtb: 6.4.1 (afa7bdf)
 68 74  0     0  0            999 V2000
    6.1950    5.3800   -0.9938 C   0  0  0  0  0  0  0  0  0  0  0  0
    4.8675    5.2963   -0.5232 O   0  0  0  0  0  0  0  0  0  0  0  0
    4.3613    4.0139   -0.4291 C   0  0  0  0  0  0  0  0  0  0  0  0
    5.0699    2.8437   -0.7527 C   0  0  0  0  0  0  0  0  0  0  0  0
    4.4897    1.6116   -0.6265 C   0  0  0  0  0  0  0  0  0  0  0  0
    3.1695    1.4683   -0.1744 C   0  0  0  0  0  0  0  0  0  0  0  0
    2.5654    0.1581   -0.0410 C   0  0  0  0  0  0  0  0  0  0  0  0
    1.2436   -0.1583    0.1344 N   0  0  0  0  0  4  0  0  0  0  0  0
    1.0378   -1.5100    0.2075 C   0  0  0  0  0  0  0  0  0  0  0  0
   -0.1159   -2.1707    0.2987 N   0  0  0  0  0  0  0  0  0  0  0  0
   -1.1857   -1.3759    0.3017 C   0  0  0  0  0  0  0  0  0  0  0  0
   -2.5583   -1.8097    0.2999 C   0  0  0  0  0  0  0  0  0  0  0  0
   -3.0280   -3.1929    0.2744 C   0  0  0  0  0  0  0  0  0  0  0  0
   -4.3670   -3.5128    0.5009 C   0  0  0  0  0  0  0  0  0  0  0  0
   -4.7940   -4.8210    0.4584 C   0  0  0  0  0  0  0  0  0  0  0  0
   -3.8994   -5.8364    0.1870 C   0  0  0  0  0  0  0  0  0  0  0  0
   -2.5714   -5.5402   -0.0412 C   0  0  0  0  0  0  0  0  0  0  0  0
   -2.1434   -4.2345    0.0041 C   0  0  0  0  0  0  0  0  0  0  0  0
   -3.3457   -0.6710    0.2833 C   0  0  0  0  0  0  0  0  0  0  0  0
   -2.5179    0.4694    0.2766 C   0  0  0  0  0  0  0  0  0  0  0  0
   -2.9715    1.8446    0.2343 C   0  0  0  0  0  0  0  0  0  0  0  0
   -2.0944    2.9131    0.4506 C   0  0  0  0  0  0  0  0  0  0  0  0
   -2.5229    4.2086    0.4037 C   0  0  0  0  0  0  0  0  0  0  0  0
   -3.8677    4.5200    0.1424 C   0  0  0  0  0  0  0  0  0  0  0  0
   -4.2217    5.8555    0.1165 O   0  0  0  0  0  0  0  0  0  0  0  0
   -5.5857    6.1053   -0.1440 C   0  0  0  0  0  0  0  0  0  0  0  0
   -4.7527    3.4488   -0.0705 C   0  0  0  0  0  0  0  0  0  0  0  0
   -4.3153    2.1539   -0.0243 C   0  0  0  0  0  0  0  0  0  0  0  0
   -1.2329   -0.0073    0.2877 N   0  0  0  0  0  0  0  0  0  0  0  0
    0.0630    0.7969    0.2744 B   0  0  0  0  0  4  0  0  0  0  0  0
    0.1803    1.4725    1.4821 F   0  0  0  0  0  0  0  0  0  0  0  0
    0.0482    1.6618   -0.8115 F   0  0  0  0  0  0  0  0  0  0  0  0
    2.3428   -2.1062    0.0899 C   0  0  0  0  0  0  0  0  0  0  0  0
    2.6474   -3.5331    0.1612 C   0  0  0  0  0  0  0  0  0  0  0  0
    3.8994   -4.0314   -0.1998 C   0  0  0  0  0  0  0  0  0  0  0  0
    4.1723   -5.3779   -0.1101 C   0  0  0  0  0  0  0  0  0  0  0  0
    3.2073   -6.2546    0.3431 C   0  0  0  0  0  0  0  0  0  0  0  0
    1.9638   -5.7806    0.7073 C   0  0  0  0  0  0  0  0  0  0  0  0
    1.6892   -4.4366    0.6154 C   0  0  0  0  0  0  0  0  0  0  0  0
    3.2499   -1.0733   -0.0760 C   0  0  0  0  0  0  0  0  0  0  0  0
    2.4683    2.6347    0.1505 C   0  0  0  0  0  0  0  0  0  0  0  0
    3.0403    3.8682    0.0264 C   0  0  0  0  0  0  0  0  0  0  0  0
    6.4822    6.4302   -1.0263 H   0  0  0  0  0  0  0  0  0  0  0  0
    6.2577    4.9639   -1.9985 H   0  0  0  0  0  0  0  0  0  0  0  0
    6.8626    4.8509   -0.3149 H   0  0  0  0  0  0  0  0  0  0  0  0
    6.0818    2.9170   -1.1063 H   0  0  0  0  0  0  0  0  0  0  0  0
    5.0486    0.7322   -0.8918 H   0  0  0  0  0  0  0  0  0  0  0  0
   -5.0676   -2.7270    0.7190 H   0  0  0  0  0  0  0  0  0  0  0  0
   -5.8308   -5.0535    0.6378 H   0  0  0  0  0  0  0  0  0  0  0  0
   -4.2380   -6.8601    0.1530 H   0  0  0  0  0  0  0  0  0  0  0  0
   -1.8708   -6.3306   -0.2543 H   0  0  0  0  0  0  0  0  0  0  0  0
   -1.1143   -3.9953   -0.1798 H   0  0  0  0  0  0  0  0  0  0  0  0
   -4.4201   -0.6611    0.2694 H   0  0  0  0  0  0  0  0  0  0  0  0
   -1.0675    2.6957    0.6716 H   0  0  0  0  0  0  0  0  0  0  0  0
   -1.8378    5.0209    0.5694 H   0  0  0  0  0  0  0  0  0  0  0  0
   -6.2001    5.6491    0.6312 H   0  0  0  0  0  0  0  0  0  0  0  0
   -5.7455    7.1827   -0.1346 H   0  0  0  0  0  0  0  0  0  0  0  0
   -5.8520    5.7158   -1.1258 H   0  0  0  0  0  0  0  0  0  0  0  0
   -5.7882    3.6493   -0.2757 H   0  0  0  0  0  0  0  0  0  0  0  0
   -5.0107    1.3535   -0.2023 H   0  0  0  0  0  0  0  0  0  0  0  0
    4.6535   -3.3540   -0.5583 H   0  0  0  0  0  0  0  0  0  0  0  0
    5.1430   -5.7496   -0.3941 H   0  0  0  0  0  0  0  0  0  0  0  0
    3.4253   -7.3088    0.4134 H   0  0  0  0  0  0  0  0  0  0  0  0
    1.2093   -6.4624    1.0636 H   0  0  0  0  0  0  0  0  0  0  0  0
    0.7286   -4.0583    0.9069 H   0  0  0  0  0  0  0  0  0  0  0  0
    4.3141   -1.1912   -0.1681 H   0  0  0  0  0  0  0  0  0  0  0  0
    1.4655    2.5422    0.5203 H   0  0  0  0  0  0  0  0  0  0  0  0
    2.4907    4.7575    0.2787 H   0  0  0  0  0  0  0  0  0  0  0  0
  1  2  1  0  0  0  0
  2  3  1  0  0  0  0
  3  4  2  0  0  0  0
  4  5  1  0  0  0  0
  5  6  2  0  0  0  0
  6  7  1  0  0  0  0
  7  8  2  0  0  0  0
  8  9  1  0  0  0  0
  9 10  2  0  0  0  0
 10 11  1  0  0  0  0
 11 12  2  0  0  0  0
 12 13  1  0  0  0  0
 13 14  2  0  0  0  0
 14 15  1  0  0  0  0
 15 16  2  0  0  0  0
 16 17  1  0  0  0  0
 17 18  2  0  0  0  0
 12 19  1  0  0  0  0
 19 20  2  0  0  0  0
 20 21  1  0  0  0  0
 21 22  2  0  0  0  0
 22 23  1  0  0  0  0
 23 24  2  0  0  0  0
 24 25  1  0  0  0  0
 25 26  1  0  0  0  0
 24 27  1  0  0  0  0
 27 28  2  0  0  0  0
 20 29  1  0  0  0  0
 29 30  1  0  0  0  0
 30 31  1  0  0  0  0
 30 32  1  0  0  0  0
  9 33  1  0  0  0  0
 33 34  1  0  0  0  0
 34 35  2  0  0  0  0
 35 36  1  0  0  0  0
 36 37  2  0  0  0  0
 37 38  1  0  0  0  0
 38 39  2  0  0  0  0
 33 40  2  0  0  0  0
  6 41  1  0  0  0  0
 41 42  2  0  0  0  0
 42  3  1  0  0  0  0
 40  7  1  0  0  0  0
 30  8  1  0  0  0  0
 39 34  1  0  0  0  0
 29 11  1  0  0  0  0
 18 13  1  0  0  0  0
 28 21  1  0  0  0  0
  1 43  1  0  0  0  0
  1 44  1  0  0  0  0
  1 45  1  0  0  0  0
  4 46  1  0  0  0  0
  5 47  1  0  0  0  0
 14 48  1  0  0  0  0
 15 49  1  0  0  0  0
 16 50  1  0  0  0  0
 17 51  1  0  0  0  0
 18 52  1  0  0  0  0
 19 53  1  0  0  0  0
 22 54  1  0  0  0  0
 23 55  1  0  0  0  0
 26 56  1  0  0  0  0
 26 57  1  0  0  0  0
 26 58  1  0  0  0  0
 27 59  1  0  0  0  0
 28 60  1  0  0  0  0
 35 61  1  0  0  0  0
 36 62  1  0  0  0  0
 37 63  1  0  0  0  0
 38 64  1  0  0  0  0
 39 65  1  0  0  0  0
 40 66  1  0  0  0  0
 41 67  1  0  0  0  0
 42 68  1  0  0  0  0
M  CHG  1   8   1
M  CHG  1  30  -1
M  END
