
  xtb     03012221283D
 energy: -6.337995778764 gnorm: 0.000330515476 xtb: 6.4.1 (afa7bdf)
 32 34  0     0  0            999 V2000
    6.0478    0.4906    0.2205 C   0  0  0  0  0  0  0  0  0  0  0  0
    5.3703   -0.7300    0.3931 O   0  0  0  0  0  0  0  0  0  0  0  0
    3.9783   -0.6419    0.3469 C   0  0  0  0  0  0  0  0  0  0  0  0
    3.2516   -1.8253    0.5095 C   0  0  0  0  0  0  0  0  0  0  0  0
    1.8816   -1.8257    0.4773 C   0  0  0  0  0  0  0  0  0  0  0  0
    1.1638   -0.6450    0.2813 C   0  0  0  0  0  0  0  0  0  0  0  0
   -0.2900   -0.6700    0.2515 C   0  0  0  0  0  0  0  0  0  0  0  0
   -1.1202    0.4002    0.0737 C   0  0  0  0  0  0  0  0  0  0  0  0
   -2.5036    0.0705    0.0918 C   0  0  0  0  0  0  0  0  0  0  0  0
   -2.7454   -1.2771    0.2858 C   0  0  0  0  0  0  0  0  0  0  0  0
   -4.0564   -1.7752    0.3292 C   0  0  0  0  0  0  0  0  0  0  0  0
   -5.1006   -0.9260    0.1793 C   0  0  0  0  0  0  0  0  0  0  0  0
   -4.8961    0.4812   -0.0241 C   0  0  0  0  0  0  0  0  0  0  0  0
   -5.8461    1.2524   -0.1604 O   0  0  0  0  0  0  0  0  0  0  0  0
   -3.5837    0.9543   -0.0629 N   0  0  0  0  0  0  0  0  0  0  0  0
   -3.3737    2.3735   -0.2710 C   0  0  0  0  0  0  0  0  0  0  0  0
   -1.2308   -2.1321    0.4471 S   0  0  0  0  0  0  0  0  0  0  0  0
    1.8877    0.5389    0.1183 C   0  0  0  0  0  0  0  0  0  0  0  0
    3.2595    0.5420    0.1501 C   0  0  0  0  0  0  0  0  0  0  0  0
    5.7715    1.1838    1.0158 H   0  0  0  0  0  0  0  0  0  0  0  0
    5.8111    0.9111   -0.7575 H   0  0  0  0  0  0  0  0  0  0  0  0
    7.1200    0.2989    0.2740 H   0  0  0  0  0  0  0  0  0  0  0  0
    3.7986   -2.7393    0.6611 H   0  0  0  0  0  0  0  0  0  0  0  0
    1.3390   -2.7457    0.6043 H   0  0  0  0  0  0  0  0  0  0  0  0
   -0.7722    1.4083   -0.0681 H   0  0  0  0  0  0  0  0  0  0  0  0
   -4.2128   -2.8286    0.4815 H   0  0  0  0  0  0  0  0  0  0  0  0
   -6.1142   -1.2837    0.2088 H   0  0  0  0  0  0  0  0  0  0  0  0
   -4.3392    2.8730   -0.3357 H   0  0  0  0  0  0  0  0  0  0  0  0
   -2.8139    2.7957    0.5607 H   0  0  0  0  0  0  0  0  0  0  0  0
   -2.8292    2.5391   -1.1980 H   0  0  0  0  0  0  0  0  0  0  0  0
    1.3591    1.4627   -0.0348 H   0  0  0  0  0  0  0  0  0  0  0  0
    3.7880    1.4692    0.0213 H   0  0  0  0  0  0  0  0  0  0  0  0
  1  2  1  0  0  0  0
  2  3  1  0  0  0  0
  3  4  2  0  0  0  0
  4  5  1  0  0  0  0
  5  6  2  0  0  0  0
  6  7  1  0  0  0  0
  7  8  2  0  0  0  0
  8  9  1  0  0  0  0
  9 10  2  0  0  0  0
 10 11  1  0  0  0  0
 11 12  2  0  0  0  0
 12 13  1  0  0  0  0
 13 14  2  0  0  0  0
 13 15  1  0  0  0  0
 15 16  1  0  0  0  0
 10 17  1  0  0  0  0
  6 18  1  0  0  0  0
 18 19  2  0  0  0  0
 19  3  1  0  0  0  0
 17  7  1  0  0  0  0
 15  9  1  0  0  0  0
  1 20  1  0  0  0  0
  1 21  1  0  0  0  0
  1 22  1  0  0  0  0
  4 23  1  0  0  0  0
  5 24  1  0  0  0  0
  8 25  1  0  0  0  0
 11 26  1  0  0  0  0
 12 27  1  0  0  0  0
 16 28  1  0  0  0  0
 16 29  1  0  0  0  0
 16 30  1  0  0  0  0
 18 31  1  0  0  0  0
 19 32  1  0  0  0  0
M  END
