
  xtb     03012221283D
 energy: -14.494997245245 gnorm: 0.000081103556 xtb: 6.4.1 (afa7bdf)
 64 72  0     0  0            999 V2000
   -3.6764   -4.5614   -1.8943 C   0  0  0  0  0  0  0  0  0  0  0  0
   -2.4168   -4.0693   -2.2476 C   0  0  0  0  0  0  0  0  0  0  0  0
   -1.8950   -2.9550   -1.6394 C   0  0  0  0  0  0  0  0  0  0  0  0
   -2.6451   -2.3170   -0.6524 C   0  0  0  0  0  0  0  0  0  0  0  0
   -3.9150   -2.8054   -0.3022 C   0  0  0  0  0  0  0  0  0  0  0  0
   -4.4313   -3.9404   -0.9297 C   0  0  0  0  0  0  0  0  0  0  0  0
   -4.4445   -1.9319    0.7158 C   0  0  0  0  0  0  0  0  0  0  0  0
   -5.6463   -1.9355    1.4258 C   0  0  0  0  0  0  0  0  0  0  0  0
   -5.8626   -0.9529    2.3606 C   0  0  0  0  0  0  0  0  0  0  0  0
   -4.9010    0.0321    2.6025 C   0  0  0  0  0  0  0  0  0  0  0  0
   -3.7149    0.0499    1.9121 C   0  0  0  0  0  0  0  0  0  0  0  0
   -3.4820   -0.9363    0.9545 C   0  0  0  0  0  0  0  0  0  0  0  0
   -2.3729   -1.1686    0.1173 N   0  0  0  0  0  0  0  0  0  0  0  0
   -1.1767   -0.3777    0.0558 C   0  0  0  0  0  0  0  0  0  0  0  0
   -1.2497    1.0041   -0.0363 C   0  0  0  0  0  0  0  0  0  0  0  0
   -0.0992    1.7769   -0.1058 C   0  0  0  0  0  0  0  0  0  0  0  0
   -0.1914    3.2322   -0.1917 C   0  0  0  0  0  0  0  0  0  0  0  0
   -1.3712    3.8950   -0.1909 N   0  0  0  0  0  0  0  0  0  0  0  0
   -1.0318    5.1720   -0.2719 C   0  0  0  0  0  0  0  0  0  0  0  0
   -1.8212    6.3387   -0.3088 C   0  0  0  0  0  0  0  0  0  0  0  0
   -1.1948    7.5399   -0.3914 C   0  0  0  0  0  0  0  0  0  0  0  0
    0.2177    7.6187   -0.4393 C   0  0  0  0  0  0  0  0  0  0  0  0
    0.9789    6.5023   -0.4046 C   0  0  0  0  0  0  0  0  0  0  0  0
    0.3709    5.2499   -0.3200 N   0  0  0  0  0  0  0  0  0  0  0  0
    0.8779    4.0269   -0.2689 N   0  0  0  0  0  0  0  0  0  0  0  0
    1.1380    1.1486   -0.0876 C   0  0  0  0  0  0  0  0  0  0  0  0
    1.2341   -0.2315    0.0052 C   0  0  0  0  0  0  0  0  0  0  0  0
    2.5182   -0.8736    0.0202 N   0  0  0  0  0  0  0  0  0  0  0  0
    3.5520   -0.6816   -0.9169 C   0  0  0  0  0  0  0  0  0  0  0  0
    3.6178    0.1274   -2.0500 C   0  0  0  0  0  0  0  0  0  0  0  0
    4.7611    0.1059   -2.8093 C   0  0  0  0  0  0  0  0  0  0  0  0
    5.8426   -0.7089   -2.4627 C   0  0  0  0  0  0  0  0  0  0  0  0
    5.7917   -1.5152   -1.3519 C   0  0  0  0  0  0  0  0  0  0  0  0
    4.6356   -1.5058   -0.5697 C   0  0  0  0  0  0  0  0  0  0  0  0
    4.2613   -2.2265    0.6225 C   0  0  0  0  0  0  0  0  0  0  0  0
    4.9360   -3.1622    1.4084 C   0  0  0  0  0  0  0  0  0  0  0  0
    4.3027   -3.6725    2.5152 C   0  0  0  0  0  0  0  0  0  0  0  0
    3.0089   -3.2660    2.8542 C   0  0  0  0  0  0  0  0  0  0  0  0
    2.3316   -2.3481    2.0909 C   0  0  0  0  0  0  0  0  0  0  0  0
    2.9587   -1.8239    0.9618 C   0  0  0  0  0  0  0  0  0  0  0  0
    0.0710   -0.9834    0.0795 C   0  0  0  0  0  0  0  0  0  0  0  0
   -4.0608   -5.4380   -2.3890 H   0  0  0  0  0  0  0  0  0  0  0  0
   -1.8474   -4.5723   -3.0126 H   0  0  0  0  0  0  0  0  0  0  0  0
   -0.9327   -2.5642   -1.9169 H   0  0  0  0  0  0  0  0  0  0  0  0
   -5.4045   -4.3087   -0.6548 H   0  0  0  0  0  0  0  0  0  0  0  0
   -6.3792   -2.7001    1.2349 H   0  0  0  0  0  0  0  0  0  0  0  0
   -6.7851   -0.9414    2.9172 H   0  0  0  0  0  0  0  0  0  0  0  0
   -5.0945    0.7900    3.3446 H   0  0  0  0  0  0  0  0  0  0  0  0
   -2.9684    0.8003    2.1001 H   0  0  0  0  0  0  0  0  0  0  0  0
   -2.2088    1.4863   -0.0665 H   0  0  0  0  0  0  0  0  0  0  0  0
   -2.8921    6.2559   -0.2707 H   0  0  0  0  0  0  0  0  0  0  0  0
   -1.7761    8.4473   -0.4206 H   0  0  0  0  0  0  0  0  0  0  0  0
    0.6889    8.5860   -0.5041 H   0  0  0  0  0  0  0  0  0  0  0  0
    2.0512    6.5419   -0.4393 H   0  0  0  0  0  0  0  0  0  0  0  0
    2.0317    1.7423   -0.1345 H   0  0  0  0  0  0  0  0  0  0  0  0
    2.7795    0.7465   -2.3142 H   0  0  0  0  0  0  0  0  0  0  0  0
    4.8260    0.7265   -3.6886 H   0  0  0  0  0  0  0  0  0  0  0  0
    6.7273   -0.7055   -3.0778 H   0  0  0  0  0  0  0  0  0  0  0  0
    6.6179   -2.1488   -1.0796 H   0  0  0  0  0  0  0  0  0  0  0  0
    5.9334   -3.4663    1.1420 H   0  0  0  0  0  0  0  0  0  0  0  0
    4.8105   -4.3941    3.1336 H   0  0  0  0  0  0  0  0  0  0  0  0
    2.5370   -3.6788    3.7313 H   0  0  0  0  0  0  0  0  0  0  0  0
    1.3403   -2.0232    2.3509 H   0  0  0  0  0  0  0  0  0  0  0  0
    0.1386   -2.0519    0.1558 H   0  0  0  0  0  0  0  0  0  0  0  0
  1  2  2  0  0  0  0
  2  3  1  0  0  0  0
  3  4  2  0  0  0  0
  4  5  1  0  0  0  0
  5  6  2  0  0  0  0
  5  7  1  0  0  0  0
  7  8  2  0  0  0  0
  8  9  1  0  0  0  0
  9 10  2  0  0  0  0
 10 11  1  0  0  0  0
 11 12  2  0  0  0  0
 12 13  1  0  0  0  0
 13 14  1  0  0  0  0
 14 15  2  0  0  0  0
 15 16  1  0  0  0  0
 16 17  1  0  0  0  0
 17 18  1  0  0  0  0
 18 19  2  0  0  0  0
 19 20  1  0  0  0  0
 20 21  2  0  0  0  0
 21 22  1  0  0  0  0
 22 23  2  0  0  0  0
 23 24  1  0  0  0  0
 24 25  1  0  0  0  0
 16 26  2  0  0  0  0
 26 27  1  0  0  0  0
 27 28  1  0  0  0  0
 28 29  1  0  0  0  0
 29 30  2  0  0  0  0
 30 31  1  0  0  0  0
 31 32  2  0  0  0  0
 32 33  1  0  0  0  0
 33 34  2  0  0  0  0
 34 35  1  0  0  0  0
 35 36  2  0  0  0  0
 36 37  1  0  0  0  0
 37 38  2  0  0  0  0
 38 39  1  0  0  0  0
 39 40  2  0  0  0  0
 27 41  2  0  0  0  0
  6  1  1  0  0  0  0
 12  7  1  0  0  0  0
 41 14  1  0  0  0  0
 13  4  1  0  0  0  0
 25 17  2  0  0  0  0
 40 28  1  0  0  0  0
 24 19  1  0  0  0  0
 34 29  1  0  0  0  0
 40 35  1  0  0  0  0
  1 42  1  0  0  0  0
  2 43  1  0  0  0  0
  3 44  1  0  0  0  0
  6 45  1  0  0  0  0
  8 46  1  0  0  0  0
  9 47  1  0  0  0  0
 10 48  1  0  0  0  0
 11 49  1  0  0  0  0
 15 50  1  0  0  0  0
 20 51  1  0  0  0  0
 21 52  1  0  0  0  0
 22 53  1  0  0  0  0
 23 54  1  0  0  0  0
 26 55  1  0  0  0  0
 30 56  1  0  0  0  0
 31 57  1  0  0  0  0
 32 58  1  0  0  0  0
 33 59  1  0  0  0  0
 36 60  1  0  0  0  0
 37 61  1  0  0  0  0
 38 62  1  0  0  0  0
 39 63  1  0  0  0  0
 41 64  1  0  0  0  0
M  END
