
  xtb     03012221293D
 energy: -13.504826516150 gnorm: 0.000546791841 xtb: 6.4.1 (afa7bdf)
 66 74  0     0  0            999 V2000
   -2.9620    4.1863   -0.2957 C   0  0  0  0  0  0  0  0  0  0  0  0
   -2.4970    2.7918   -0.1322 C   0  0  0  0  0  0  0  0  0  0  0  0
   -1.1442    2.3473   -0.1180 C   0  0  0  0  0  0  0  0  0  0  0  0
    0.0631    3.0412   -0.2121 C   0  0  0  0  0  0  0  0  0  0  0  0
    1.2407    2.2934   -0.1667 C   0  0  0  0  0  0  0  0  0  0  0  0
    2.6106    2.6764   -0.2351 C   0  0  0  0  0  0  0  0  0  0  0  0
    3.1329    4.0563   -0.3388 C   0  0  0  0  0  0  0  0  0  0  0  0
    3.3764    1.5060   -0.1242 C   0  0  0  0  0  0  0  0  0  0  0  0
    2.4964    0.4485   -0.0067 N   0  0  0  0  0  0  0  0  0  0  0  0
    1.1939    0.8579   -0.0252 C   0  0  0  0  0  0  0  0  0  0  0  0
    0.0035    0.1553    0.0650 C   0  0  0  0  0  0  0  0  0  0  0  0
   -1.1567    0.9105    0.0170 C   0  0  0  0  0  0  0  0  0  0  0  0
   -2.4750    0.5584    0.0684 N   0  0  0  0  0  4  0  0  0  0  0  0
   -3.3107    1.6538   -0.0243 C   0  0  0  0  0  0  0  0  0  0  0  0
   -4.7224    1.5365   -0.0129 C   0  0  0  0  0  0  0  0  0  0  0  0
   -5.2605    0.2974    0.0969 C   0  0  0  0  0  0  0  0  0  0  0  0
   -6.6437   -0.1585    0.1347 C   0  0  0  0  0  0  0  0  0  0  0  0
   -7.8561    0.5152    0.0742 C   0  0  0  0  0  0  0  0  0  0  0  0
   -9.0221   -0.2187    0.1358 C   0  0  0  0  0  0  0  0  0  0  0  0
   -8.9922   -1.6048    0.2559 C   0  0  0  0  0  0  0  0  0  0  0  0
   -7.7976   -2.2881    0.3172 C   0  0  0  0  0  0  0  0  0  0  0  0
   -6.6097   -1.5635    0.2564 C   0  0  0  0  0  0  0  0  0  0  0  0
   -5.2212   -1.9836    0.2943 C   0  0  0  0  0  0  0  0  0  0  0  0
   -4.6857   -3.3494    0.4127 C   0  0  0  0  0  0  0  0  0  0  0  0
   -4.4974   -0.8846    0.2001 N   0  0  0  0  0  0  0  0  0  0  0  0
   -2.9674   -0.8816    0.2018 B   0  0  0  0  0  4  0  0  0  0  0  0
   -2.5127   -1.6245   -0.8820 F   0  0  0  0  0  0  0  0  0  0  0  0
   -2.5160   -1.4124    1.4050 F   0  0  0  0  0  0  0  0  0  0  0  0
    2.9281   -1.0101    0.1335 B   0  0  0  0  0  4  0  0  0  0  0  0
    2.4590   -1.5140    1.3415 F   0  0  0  0  0  0  0  0  0  0  0  0
    2.4389   -1.7401   -0.9441 F   0  0  0  0  0  0  0  0  0  0  0  0
    4.4566   -1.0773    0.1271 N   0  0  0  0  0  4  0  0  0  0  0  0
    5.1342   -2.2043    0.2338 C   0  0  0  0  0  0  0  0  0  0  0  0
    4.5426   -3.5456    0.3639 C   0  0  0  0  0  0  0  0  0  0  0  0
    6.5389   -1.8430    0.1861 C   0  0  0  0  0  0  0  0  0  0  0  0
    7.6959   -2.6155    0.2548 C   0  0  0  0  0  0  0  0  0  0  0  0
    8.9176   -1.9832    0.1831 C   0  0  0  0  0  0  0  0  0  0  0  0
    9.0047   -0.6012    0.0450 C   0  0  0  0  0  0  0  0  0  0  0  0
    7.8702    0.1798   -0.0240 C   0  0  0  0  0  0  0  0  0  0  0  0
    6.6311   -0.4422    0.0473 C   0  0  0  0  0  0  0  0  0  0  0  0
    5.2679    0.0705    0.0071 C   0  0  0  0  0  0  0  0  0  0  0  0
    4.7821    1.3298   -0.1157 C   0  0  0  0  0  0  0  0  0  0  0  0
   -2.1925    4.8954    0.0111 H   0  0  0  0  0  0  0  0  0  0  0  0
   -3.8482    4.3759    0.3111 H   0  0  0  0  0  0  0  0  0  0  0  0
   -3.2139    4.3903   -1.3371 H   0  0  0  0  0  0  0  0  0  0  0  0
    0.0851    4.1085   -0.3159 H   0  0  0  0  0  0  0  0  0  0  0  0
    3.4008    4.4433    0.6451 H   0  0  0  0  0  0  0  0  0  0  0  0
    2.3907    4.7257   -0.7747 H   0  0  0  0  0  0  0  0  0  0  0  0
    4.0215    4.0911   -0.9701 H   0  0  0  0  0  0  0  0  0  0  0  0
   -0.0185   -0.9137    0.1660 H   0  0  0  0  0  0  0  0  0  0  0  0
   -5.3479    2.4065   -0.0938 H   0  0  0  0  0  0  0  0  0  0  0  0
   -7.8725    1.5862   -0.0186 H   0  0  0  0  0  0  0  0  0  0  0  0
   -9.9713    0.2889    0.0902 H   0  0  0  0  0  0  0  0  0  0  0  0
   -9.9192   -2.1525    0.3017 H   0  0  0  0  0  0  0  0  0  0  0  0
   -7.7690   -3.3589    0.4098 H   0  0  0  0  0  0  0  0  0  0  0  0
   -5.0123   -3.9700   -0.4216 H   0  0  0  0  0  0  0  0  0  0  0  0
   -5.0110   -3.8166    1.3421 H   0  0  0  0  0  0  0  0  0  0  0  0
   -3.5948   -3.3230    0.4095 H   0  0  0  0  0  0  0  0  0  0  0  0
    4.7966   -4.1680   -0.4943 H   0  0  0  0  0  0  0  0  0  0  0  0
    3.4553   -3.4691    0.4171 H   0  0  0  0  0  0  0  0  0  0  0  0
    4.8934   -4.0412    1.2693 H   0  0  0  0  0  0  0  0  0  0  0  0
    7.6230   -3.6829    0.3618 H   0  0  0  0  0  0  0  0  0  0  0  0
    9.8211   -2.5682    0.2348 H   0  0  0  0  0  0  0  0  0  0  0  0
    9.9741   -0.1341   -0.0088 H   0  0  0  0  0  0  0  0  0  0  0  0
    7.9308    1.2479   -0.1305 H   0  0  0  0  0  0  0  0  0  0  0  0
    5.4433    2.1725   -0.2018 H   0  0  0  0  0  0  0  0  0  0  0  0
  1  2  1  0  0  0  0
  2  3  2  0  0  0  0
  3  4  1  0  0  0  0
  4  5  2  0  0  0  0
  5  6  1  0  0  0  0
  6  7  1  0  0  0  0
  6  8  2  0  0  0  0
  8  9  1  0  0  0  0
  9 10  1  0  0  0  0
 10 11  2  0  0  0  0
 11 12  1  0  0  0  0
 12 13  2  0  0  0  0
 13 14  1  0  0  0  0
 14 15  2  0  0  0  0
 15 16  1  0  0  0  0
 16 17  2  0  0  0  0
 17 18  1  0  0  0  0
 18 19  2  0  0  0  0
 19 20  1  0  0  0  0
 20 21  2  0  0  0  0
 21 22  1  0  0  0  0
 22 23  2  0  0  0  0
 23 24  1  0  0  0  0
 23 25  1  0  0  0  0
 25 26  1  0  0  0  0
 26 27  1  0  0  0  0
 26 28  1  0  0  0  0
  9 29  1  0  0  0  0
 29 30  1  0  0  0  0
 29 31  1  0  0  0  0
 29 32  1  0  0  0  0
 32 33  2  0  0  0  0
 33 34  1  0  0  0  0
 33 35  1  0  0  0  0
 35 36  2  0  0  0  0
 36 37  1  0  0  0  0
 37 38  2  0  0  0  0
 38 39  1  0  0  0  0
 39 40  2  0  0  0  0
 40 41  1  0  0  0  0
 41 42  2  0  0  0  0
 14  2  1  0  0  0  0
 25 16  1  0  0  0  0
 41 32  1  0  0  0  0
 12  3  1  0  0  0  0
 26 13  1  0  0  0  0
 40 35  1  0  0  0  0
 10  5  1  0  0  0  0
 22 17  1  0  0  0  0
 42  8  1  0  0  0  0
  1 43  1  0  0  0  0
  1 44  1  0  0  0  0
  1 45  1  0  0  0  0
  4 46  1  0  0  0  0
  7 47  1  0  0  0  0
  7 48  1  0  0  0  0
  7 49  1  0  0  0  0
 11 50  1  0  0  0  0
 15 51  1  0  0  0  0
 18 52  1  0  0  0  0
 19 53  1  0  0  0  0
 20 54  1  0  0  0  0
 21 55  1  0  0  0  0
 24 56  1  0  0  0  0
 24 57  1  0  0  0  0
 24 58  1  0  0  0  0
 34 59  1  0  0  0  0
 34 60  1  0  0  0  0
 34 61  1  0  0  0  0
 36 62  1  0  0  0  0
 37 63  1  0  0  0  0
 38 64  1  0  0  0  0
 39 65  1  0  0  0  0
 42 66  1  0  0  0  0
M  CHG  1  13   1
M  CHG  1  26  -1
M  CHG  1  29  -1
M  CHG  1  32   1
M  END
