
  xtb     03012221243D
 energy: -12.134824554851 gnorm: 0.000218237722 xtb: 6.4.1 (afa7bdf)
 64 65  0     0  0            999 V2000
    9.4989    2.4047    0.5534 C   0  0  0  0  0  0  0  0  0  0  0  0
    9.2729    1.3384   -0.4968 C   0  0  0  0  0  0  0  0  0  0  0  0
    8.3080    0.3158   -0.0525 N   0  0  0  0  0  0  0  0  0  0  0  0
    8.9058   -0.9135    0.5009 C   0  0  0  0  0  0  0  0  0  0  0  0
    8.9841   -2.0235   -0.5255 C   0  0  0  0  0  0  0  0  0  0  0  0
    6.9194    0.4924   -0.1604 C   0  0  0  0  0  0  0  0  0  0  0  0
    6.3690    1.6856   -0.6551 C   0  0  0  0  0  0  0  0  0  0  0  0
    5.0151    1.8493   -0.7675 C   0  0  0  0  0  0  0  0  0  0  0  0
    4.1211    0.8381   -0.3964 C   0  0  0  0  0  0  0  0  0  0  0  0
    2.7208    1.0577   -0.5419 C   0  0  0  0  0  0  0  0  0  0  0  0
    1.7992    0.2089   -0.2421 N   0  0  0  0  0  0  0  0  0  0  0  0
    0.4683    0.4711   -0.4129 C   0  0  0  0  0  0  0  0  0  0  0  0
    0.0675    1.7015   -0.9303 C   0  0  0  0  0  0  0  0  0  0  0  0
   -0.1903    2.7496   -1.3662 N   0  0  0  0  0  0  0  0  0  0  0  0
   -0.4632   -0.4898   -0.0719 C   0  0  0  0  0  0  0  0  0  0  0  0
   -0.0239   -1.7047    0.4464 C   0  0  0  0  0  0  0  0  0  0  0  0
    0.3071   -2.7314    0.8831 N   0  0  0  0  0  0  0  0  0  0  0  0
   -1.7992   -0.2581   -0.2403 N   0  0  0  0  0  0  0  0  0  0  0  0
   -2.6922   -1.1310    0.0776 C   0  0  0  0  0  0  0  0  0  0  0  0
   -4.0946   -0.9593   -0.0778 C   0  0  0  0  0  0  0  0  0  0  0  0
   -4.9695   -1.9736    0.3255 C   0  0  0  0  0  0  0  0  0  0  0  0
   -6.3243   -1.8392    0.1936 C   0  0  0  0  0  0  0  0  0  0  0  0
   -6.8907   -0.6754   -0.3516 C   0  0  0  0  0  0  0  0  0  0  0  0
   -8.2824   -0.5309   -0.4761 N   0  0  0  0  0  0  0  0  0  0  0  0
   -8.8993    0.7179   -0.9650 C   0  0  0  0  0  0  0  0  0  0  0  0
   -8.8876    1.8184    0.0753 C   0  0  0  0  0  0  0  0  0  0  0  0
   -9.2207   -1.5822   -0.0369 C   0  0  0  0  0  0  0  0  0  0  0  0
   -9.4384   -1.5777    1.4614 C   0  0  0  0  0  0  0  0  0  0  0  0
   -6.0222    0.3344   -0.7628 C   0  0  0  0  0  0  0  0  0  0  0  0
   -4.6421    0.2247   -0.6398 C   0  0  0  0  0  0  0  0  0  0  0  0
   -3.8198    1.2428   -1.0559 O   0  0  0  0  0  0  0  0  0  0  0  0
    4.6582   -0.3782    0.1116 C   0  0  0  0  0  0  0  0  0  0  0  0
    3.8662   -1.4300    0.5036 O   0  0  0  0  0  0  0  0  0  0  0  0
    6.0357   -0.5160    0.2166 C   0  0  0  0  0  0  0  0  0  0  0  0
    8.5662    2.9076    0.8119 H   0  0  0  0  0  0  0  0  0  0  0  0
   10.2071    3.1666    0.2211 H   0  0  0  0  0  0  0  0  0  0  0  0
    9.8885    1.9679    1.4742 H   0  0  0  0  0  0  0  0  0  0  0  0
    8.9180    1.7692   -1.4381 H   0  0  0  0  0  0  0  0  0  0  0  0
   10.2141    0.8388   -0.7500 H   0  0  0  0  0  0  0  0  0  0  0  0
    8.3284   -1.2178    1.3796 H   0  0  0  0  0  0  0  0  0  0  0  0
    9.9020   -0.6711    0.8858 H   0  0  0  0  0  0  0  0  0  0  0  0
    7.9960   -2.2711   -0.9157 H   0  0  0  0  0  0  0  0  0  0  0  0
    9.5948   -1.7231   -1.3782 H   0  0  0  0  0  0  0  0  0  0  0  0
    9.4163   -2.9371   -0.1119 H   0  0  0  0  0  0  0  0  0  0  0  0
    7.0213    2.4884   -0.9477 H   0  0  0  0  0  0  0  0  0  0  0  0
    4.6187    2.7739   -1.1508 H   0  0  0  0  0  0  0  0  0  0  0  0
    2.4026    2.0067   -0.9390 H   0  0  0  0  0  0  0  0  0  0  0  0
   -2.3463   -2.0615    0.4950 H   0  0  0  0  0  0  0  0  0  0  0  0
   -4.5583   -2.8738    0.7491 H   0  0  0  0  0  0  0  0  0  0  0  0
   -6.9646   -2.6396    0.5172 H   0  0  0  0  0  0  0  0  0  0  0  0
   -8.3784    1.0244   -1.8775 H   0  0  0  0  0  0  0  0  0  0  0  0
   -9.9245    0.5038   -1.2835 H   0  0  0  0  0  0  0  0  0  0  0  0
   -9.3090    2.7502   -0.3078 H   0  0  0  0  0  0  0  0  0  0  0  0
   -7.8739    2.0292    0.4182 H   0  0  0  0  0  0  0  0  0  0  0  0
   -9.4654    1.5331    0.9551 H   0  0  0  0  0  0  0  0  0  0  0  0
  -10.1711   -1.4491   -0.5637 H   0  0  0  0  0  0  0  0  0  0  0  0
   -8.8409   -2.5487   -0.3827 H   0  0  0  0  0  0  0  0  0  0  0  0
   -9.8888   -0.6404    1.7899 H   0  0  0  0  0  0  0  0  0  0  0  0
  -10.0948   -2.3889    1.7836 H   0  0  0  0  0  0  0  0  0  0  0  0
   -8.4948   -1.6809    1.9986 H   0  0  0  0  0  0  0  0  0  0  0  0
   -6.4187    1.2325   -1.1945 H   0  0  0  0  0  0  0  0  0  0  0  0
   -4.3415    1.9873   -1.4272 H   0  0  0  0  0  0  0  0  0  0  0  0
    2.9346   -1.1664    0.3610 H   0  0  0  0  0  0  0  0  0  0  0  0
    6.4051   -1.4469    0.6004 H   0  0  0  0  0  0  0  0  0  0  0  0
  1  2  1  0  0  0  0
  2  3  1  0  0  0  0
  3  4  1  0  0  0  0
  4  5  1  0  0  0  0
  3  6  1  0  0  0  0
  6  7  2  0  0  0  0
  7  8  1  0  0  0  0
  8  9  2  0  0  0  0
  9 10  1  0  0  0  0
 10 11  2  0  0  0  0
 11 12  1  0  0  0  0
 12 13  1  0  0  0  0
 13 14  3  0  0  0  0
 12 15  2  0  0  0  0
 15 16  1  0  0  0  0
 16 17  3  0  0  0  0
 15 18  1  0  0  0  0
 18 19  2  0  0  0  0
 19 20  1  0  0  0  0
 20 21  2  0  0  0  0
 21 22  1  0  0  0  0
 22 23  2  0  0  0  0
 23 24  1  0  0  0  0
 24 25  1  0  0  0  0
 25 26  1  0  0  0  0
 24 27  1  0  0  0  0
 27 28  1  0  0  0  0
 23 29  1  0  0  0  0
 29 30  2  0  0  0  0
 30 31  1  0  0  0  0
  9 32  1  0  0  0  0
 32 33  1  0  0  0  0
 32 34  2  0  0  0  0
 34  6  1  0  0  0  0
 30 20  1  0  0  0  0
  1 35  1  0  0  0  0
  1 36  1  0  0  0  0
  1 37  1  0  0  0  0
  2 38  1  0  0  0  0
  2 39  1  0  0  0  0
  4 40  1  0  0  0  0
  4 41  1  0  0  0  0
  5 42  1  0  0  0  0
  5 43  1  0  0  0  0
  5 44  1  0  0  0  0
  7 45  1  0  0  0  0
  8 46  1  0  0  0  0
 10 47  1  0  0  0  0
 19 48  1  0  0  0  0
 21 49  1  0  0  0  0
 22 50  1  0  0  0  0
 25 51  1  0  0  0  0
 25 52  1  0  0  0  0
 26 53  1  0  0  0  0
 26 54  1  0  0  0  0
 26 55  1  0  0  0  0
 27 56  1  0  0  0  0
 27 57  1  0  0  0  0
 28 58  1  0  0  0  0
 28 59  1  0  0  0  0
 28 60  1  0  0  0  0
 29 61  1  0  0  0  0
 31 62  1  0  0  0  0
 33 63  1  0  0  0  0
 34 64  1  0  0  0  0
M  END
