
  xtb     03012221283D
 energy: -14.871016261070 gnorm: 0.000088176844 xtb: 6.4.1 (afa7bdf)
 76 83  0     0  0            999 V2000
   -8.4456    3.2277   -1.9515 C   0  0  0  0  0  0  0  0  0  0  0  0
   -7.6909    2.0636   -1.4554 C   0  0  0  0  0  0  0  0  0  0  0  0
   -6.3760    1.8834   -1.5970 C   0  0  0  0  0  0  0  0  0  0  0  0
   -5.8380    0.5738   -1.0330 C   0  0  0  0  0  0  0  0  0  0  0  0
   -5.5794   -0.4149   -2.1822 C   0  0  0  0  0  0  0  0  0  0  0  0
   -6.9171    0.0167   -0.1366 C   0  0  0  0  0  0  0  0  0  0  0  0
   -6.6535   -0.8615    0.8402 C   0  0  0  0  0  0  0  0  0  0  0  0
   -5.3089   -1.2399    1.1458 C   0  0  0  0  0  0  0  0  0  0  0  0
   -4.2590   -0.5376    0.6335 C   0  0  0  0  0  0  0  0  0  0  0  0
   -2.8481   -0.8278    0.7749 C   0  0  0  0  0  0  0  0  0  0  0  0
   -2.3365   -1.8978    1.6710 C   0  0  0  0  0  0  0  0  0  0  0  0
   -2.0587   -0.0556   -0.0334 C   0  0  0  0  0  0  0  0  0  0  0  0
   -0.5988   -0.0361   -0.0737 C   0  0  0  0  0  0  0  0  0  0  0  0
    0.1655   -0.0517    1.0969 C   0  0  0  0  0  0  0  0  0  0  0  0
    1.5342   -0.0078    1.0435 C   0  0  0  0  0  0  0  0  0  0  0  0
    2.2000    0.0524   -0.1806 C   0  0  0  0  0  0  0  0  0  0  0  0
    3.6528    0.0965   -0.2092 C   0  0  0  0  0  0  0  0  0  0  0  0
    4.4099    0.2171    0.8771 N   0  0  0  0  0  0  0  0  0  0  0  0
    5.6911    0.2153    0.4627 C   0  0  0  0  0  0  0  0  0  0  0  0
    6.8220    0.4056    1.3800 C   0  0  0  0  0  0  0  0  0  0  0  0
    8.0091    1.0128    0.9740 C   0  0  0  0  0  0  0  0  0  0  0  0
    9.0412    1.2036    1.8648 C   0  0  0  0  0  0  0  0  0  0  0  0
    8.9049    0.8014    3.1779 C   0  0  0  0  0  0  0  0  0  0  0  0
    7.7305    0.2132    3.6012 C   0  0  0  0  0  0  0  0  0  0  0  0
    6.6968    0.0213    2.7121 C   0  0  0  0  0  0  0  0  0  0  0  0
    5.7334    0.0560   -0.9418 C   0  0  0  0  0  0  0  0  0  0  0  0
    6.8910   -0.1178   -1.8247 C   0  0  0  0  0  0  0  0  0  0  0  0
    7.9897   -0.8850   -1.4374 C   0  0  0  0  0  0  0  0  0  0  0  0
    9.0603   -1.0578   -2.2852 C   0  0  0  0  0  0  0  0  0  0  0  0
    9.0519   -0.4763   -3.5367 C   0  0  0  0  0  0  0  0  0  0  0  0
    7.9676    0.2755   -3.9417 C   0  0  0  0  0  0  0  0  0  0  0  0
    6.8946    0.4506   -3.0968 C   0  0  0  0  0  0  0  0  0  0  0  0
    4.4332    0.0066   -1.3462 N   0  0  0  0  0  0  0  0  0  0  0  0
    1.4422    0.0831   -1.3520 C   0  0  0  0  0  0  0  0  0  0  0  0
    0.0729    0.0477   -1.2962 C   0  0  0  0  0  0  0  0  0  0  0  0
   -3.0195    0.9736   -1.1031 S   0  0  0  0  0  0  0  0  0  0  0  0
   -4.5249    0.7447   -0.1448 C   0  0  0  0  0  0  0  0  0  0  0  0
   -4.6731    1.9136    0.8282 C   0  0  0  0  0  0  0  0  0  0  0  0
   -5.3171   -2.4325    2.0745 C   0  0  0  0  0  0  0  0  0  0  0  0
   -4.6672   -2.1300    3.2108 F   0  0  0  0  0  0  0  0  0  0  0  0
   -4.7637   -3.4919    1.4619 F   0  0  0  0  0  0  0  0  0  0  0  0
   -6.8260   -2.7306    2.3823 C   0  0  0  0  0  0  0  0  0  0  0  0
   -7.1891   -3.8701    1.7807 F   0  0  0  0  0  0  0  0  0  0  0  0
   -7.0266   -2.7880    3.7035 F   0  0  0  0  0  0  0  0  0  0  0  0
   -7.6300   -1.5401    1.7658 C   0  0  0  0  0  0  0  0  0  0  0  0
   -7.9965   -0.6859    2.7377 F   0  0  0  0  0  0  0  0  0  0  0  0
   -8.7001   -1.9857    1.0827 F   0  0  0  0  0  0  0  0  0  0  0  0
   -8.4437    0.7186   -0.5715 S   0  0  0  0  0  0  0  0  0  0  0  0
   -8.3344    3.3333   -3.0311 H   0  0  0  0  0  0  0  0  0  0  0  0
   -9.5081    3.1214   -1.7310 H   0  0  0  0  0  0  0  0  0  0  0  0
   -8.0951    4.1472   -1.4816 H   0  0  0  0  0  0  0  0  0  0  0  0
   -5.7425    2.5891   -2.1063 H   0  0  0  0  0  0  0  0  0  0  0  0
   -4.8172   -0.0325   -2.8590 H   0  0  0  0  0  0  0  0  0  0  0  0
   -6.4904   -0.5842   -2.7546 H   0  0  0  0  0  0  0  0  0  0  0  0
   -5.2416   -1.3753   -1.7950 H   0  0  0  0  0  0  0  0  0  0  0  0
   -1.2741   -2.0833    1.5175 H   0  0  0  0  0  0  0  0  0  0  0  0
   -2.8583   -2.8362    1.4847 H   0  0  0  0  0  0  0  0  0  0  0  0
   -2.4992   -1.6358    2.7171 H   0  0  0  0  0  0  0  0  0  0  0  0
   -0.3370   -0.0639    2.0499 H   0  0  0  0  0  0  0  0  0  0  0  0
    2.1175   -0.0146    1.9473 H   0  0  0  0  0  0  0  0  0  0  0  0
    8.1059    1.3460   -0.0440 H   0  0  0  0  0  0  0  0  0  0  0  0
    9.9545    1.6717    1.5378 H   0  0  0  0  0  0  0  0  0  0  0  0
    9.7132    0.9530    3.8746 H   0  0  0  0  0  0  0  0  0  0  0  0
    7.6208   -0.0920    4.6284 H   0  0  0  0  0  0  0  0  0  0  0  0
    5.7727   -0.4254    3.0352 H   0  0  0  0  0  0  0  0  0  0  0  0
    7.9859   -1.3494   -0.4668 H   0  0  0  0  0  0  0  0  0  0  0  0
    9.9038   -1.6504   -1.9728 H   0  0  0  0  0  0  0  0  0  0  0  0
    9.8906   -0.6132   -4.1998 H   0  0  0  0  0  0  0  0  0  0  0  0
    7.9604    0.7244   -4.9208 H   0  0  0  0  0  0  0  0  0  0  0  0
    6.0475    1.0367   -3.4076 H   0  0  0  0  0  0  0  0  0  0  0  0
    4.1099   -0.1666   -2.2990 H   0  0  0  0  0  0  0  0  0  0  0  0
    1.9415    0.1461   -2.3016 H   0  0  0  0  0  0  0  0  0  0  0  0
   -0.5088    0.0789   -2.2026 H   0  0  0  0  0  0  0  0  0  0  0  0
   -5.5428    1.7741    1.4709 H   0  0  0  0  0  0  0  0  0  0  0  0
   -3.7924    1.9943    1.4653 H   0  0  0  0  0  0  0  0  0  0  0  0
   -4.7894    2.8549    0.2922 H   0  0  0  0  0  0  0  0  0  0  0  0
  1  2  1  0  0  0  0
  2  3  2  0  0  0  0
  3  4  1  0  0  0  0
  4  5  1  0  0  0  0
  4  6  1  0  0  0  0
  6  7  2  0  0  0  0
  7  8  1  0  0  0  0
  8  9  2  0  0  0  0
  9 10  1  0  0  0  0
 10 11  1  0  0  0  0
 10 12  2  0  0  0  0
 12 13  1  0  0  0  0
 13 14  2  0  0  0  0
 14 15  1  0  0  0  0
 15 16  2  0  0  0  0
 16 17  1  0  0  0  0
 17 18  2  0  0  0  0
 18 19  1  0  0  0  0
 19 20  1  0  0  0  0
 20 21  2  0  0  0  0
 21 22  1  0  0  0  0
 22 23  2  0  0  0  0
 23 24  1  0  0  0  0
 24 25  2  0  0  0  0
 19 26  2  0  0  0  0
 26 27  1  0  0  0  0
 27 28  2  0  0  0  0
 28 29  1  0  0  0  0
 29 30  2  0  0  0  0
 30 31  1  0  0  0  0
 31 32  2  0  0  0  0
 26 33  1  0  0  0  0
 16 34  1  0  0  0  0
 34 35  2  0  0  0  0
 12 36  1  0  0  0  0
 36 37  1  0  0  0  0
 37 38  1  0  0  0  0
  8 39  1  0  0  0  0
 39 40  1  0  0  0  0
 39 41  1  0  0  0  0
 39 42  1  0  0  0  0
 42 43  1  0  0  0  0
 42 44  1  0  0  0  0
 42 45  1  0  0  0  0
 45 46  1  0  0  0  0
 45 47  1  0  0  0  0
  6 48  1  0  0  0  0
 48  2  1  0  0  0  0
 37  4  1  0  0  0  0
 45  7  1  0  0  0  0
 37  9  1  0  0  0  0
 35 13  1  0  0  0  0
 33 17  1  0  0  0  0
 25 20  1  0  0  0  0
 32 27  1  0  0  0  0
  1 49  1  0  0  0  0
  1 50  1  0  0  0  0
  1 51  1  0  0  0  0
  3 52  1  0  0  0  0
  5 53  1  0  0  0  0
  5 54  1  0  0  0  0
  5 55  1  0  0  0  0
 11 56  1  0  0  0  0
 11 57  1  0  0  0  0
 11 58  1  0  0  0  0
 14 59  1  0  0  0  0
 15 60  1  0  0  0  0
 21 61  1  0  0  0  0
 22 62  1  0  0  0  0
 23 63  1  0  0  0  0
 24 64  1  0  0  0  0
 25 65  1  0  0  0  0
 28 66  1  0  0  0  0
 29 67  1  0  0  0  0
 30 68  1  0  0  0  0
 31 69  1  0  0  0  0
 32 70  1  0  0  0  0
 33 71  1  0  0  0  0
 34 72  1  0  0  0  0
 35 73  1  0  0  0  0
 38 74  1  0  0  0  0
 38 75  1  0  0  0  0
 38 76  1  0  0  0  0
M  END
