
  xtb     03012221263D
 energy: -12.749950589139 gnorm: 0.000421404027 xtb: 6.4.1 (afa7bdf)
 66 70  0     0  0            999 V2000
    9.3766    1.1792    1.1922 C   0  0  0  0  0  0  0  0  0  0  0  0
    8.1869    1.8842    0.5759 C   0  0  0  0  0  0  0  0  0  0  0  0
    6.9924    1.6637    1.2904 O   0  0  0  0  0  0  0  0  0  0  0  0
    6.5550    0.3845    1.1023 C   0  0  0  0  0  0  0  0  0  0  0  0
    7.1139   -0.4435    0.4159 O   0  0  0  0  0  0  0  0  0  0  0  0
    5.2791    0.0146    1.8016 C   0  0  0  0  0  0  0  0  0  0  0  0
    4.1814   -0.3284    0.8039 C   0  0  0  0  0  0  0  0  0  0  0  0
    2.8695   -0.7356    1.4701 C   0  0  0  0  0  0  0  0  0  0  0  0
    1.7857   -1.1489    0.4758 C   0  0  0  0  0  0  0  0  0  0  0  0
    1.3169   -0.0118   -0.4181 C   0  0  0  0  0  0  0  0  0  0  0  0
    0.2252   -0.4267   -1.3126 N   0  0  0  0  0  0  0  0  0  0  0  0
    0.5251   -0.9152   -2.6003 C   0  0  0  0  0  0  0  0  0  0  0  0
    1.8390   -1.1461   -3.0237 C   0  0  0  0  0  0  0  0  0  0  0  0
    2.1043   -1.6020   -4.2897 C   0  0  0  0  0  0  0  0  0  0  0  0
    1.0718   -1.8480   -5.1792 C   0  0  0  0  0  0  0  0  0  0  0  0
   -0.2249   -1.6424   -4.7839 C   0  0  0  0  0  0  0  0  0  0  0  0
   -0.5174   -1.1850   -3.5051 C   0  0  0  0  0  0  0  0  0  0  0  0
   -1.9069   -1.0004   -3.1127 C   0  0  0  0  0  0  0  0  0  0  0  0
   -2.8238   -1.1981   -3.8973 O   0  0  0  0  0  0  0  0  0  0  0  0
   -2.1725   -0.5863   -1.7441 C   0  0  0  0  0  0  0  0  0  0  0  0
   -3.4827   -0.4671   -1.3174 C   0  0  0  0  0  0  0  0  0  0  0  0
   -3.8032   -0.0933   -0.0171 C   0  0  0  0  0  0  0  0  0  0  0  0
   -2.7361    0.1750    0.8650 C   0  0  0  0  0  0  0  0  0  0  0  0
   -1.4265    0.0562    0.4387 C   0  0  0  0  0  0  0  0  0  0  0  0
   -1.1085   -0.3166   -0.8614 C   0  0  0  0  0  0  0  0  0  0  0  0
   -2.9992    0.5888    2.2366 C   0  0  0  0  0  0  0  0  0  0  0  0
   -2.0811    0.7792    3.0207 O   0  0  0  0  0  0  0  0  0  0  0  0
   -4.3892    0.7811    2.6275 C   0  0  0  0  0  0  0  0  0  0  0  0
   -4.6792    1.2441    3.9052 C   0  0  0  0  0  0  0  0  0  0  0  0
   -5.9751    1.4575    4.2991 C   0  0  0  0  0  0  0  0  0  0  0  0
   -7.0090    1.2139    3.4108 C   0  0  0  0  0  0  0  0  0  0  0  0
   -6.7453    0.7525    2.1465 C   0  0  0  0  0  0  0  0  0  0  0  0
   -5.4332    0.5130    1.7217 C   0  0  0  0  0  0  0  0  0  0  0  0
   -5.1364    0.0180    0.4355 N   0  0  0  0  0  0  0  0  0  0  0  0
   -6.2313   -0.4118   -0.4522 C   0  0  0  0  0  0  0  0  0  0  0  0
   -6.7127    0.7087   -1.3470 C   0  0  0  0  0  0  0  0  0  0  0  0
    9.2058    0.1023    1.2114 H   0  0  0  0  0  0  0  0  0  0  0  0
   10.2989    1.3651    0.6397 H   0  0  0  0  0  0  0  0  0  0  0  0
    9.5250    1.5024    2.2223 H   0  0  0  0  0  0  0  0  0  0  0  0
    8.3405    2.9710    0.5405 H   0  0  0  0  0  0  0  0  0  0  0  0
    8.0119    1.5512   -0.4566 H   0  0  0  0  0  0  0  0  0  0  0  0
    5.4715   -0.8354    2.4624 H   0  0  0  0  0  0  0  0  0  0  0  0
    4.9695    0.8430    2.4453 H   0  0  0  0  0  0  0  0  0  0  0  0
    4.0193    0.5281    0.1394 H   0  0  0  0  0  0  0  0  0  0  0  0
    4.5318   -1.1354    0.1486 H   0  0  0  0  0  0  0  0  0  0  0  0
    2.5024    0.0914    2.0911 H   0  0  0  0  0  0  0  0  0  0  0  0
    3.0658   -1.5566    2.1728 H   0  0  0  0  0  0  0  0  0  0  0  0
    0.9202   -1.5593    1.0090 H   0  0  0  0  0  0  0  0  0  0  0  0
    2.1494   -1.9729   -0.1472 H   0  0  0  0  0  0  0  0  0  0  0  0
    0.9833    0.8410    0.1792 H   0  0  0  0  0  0  0  0  0  0  0  0
    2.1369    0.3877   -1.0191 H   0  0  0  0  0  0  0  0  0  0  0  0
    2.6559   -0.9859   -2.3456 H   0  0  0  0  0  0  0  0  0  0  0  0
    3.1246   -1.7734   -4.5960 H   0  0  0  0  0  0  0  0  0  0  0  0
    1.2858   -2.2047   -6.1726 H   0  0  0  0  0  0  0  0  0  0  0  0
   -1.0450   -1.8359   -5.4562 H   0  0  0  0  0  0  0  0  0  0  0  0
   -4.2532   -0.6657   -2.0380 H   0  0  0  0  0  0  0  0  0  0  0  0
   -0.6567    0.2542    1.1589 H   0  0  0  0  0  0  0  0  0  0  0  0
   -3.8581    1.4351    4.5767 H   0  0  0  0  0  0  0  0  0  0  0  0
   -6.1874    1.8181    5.2914 H   0  0  0  0  0  0  0  0  0  0  0  0
   -8.0282    1.3915    3.7162 H   0  0  0  0  0  0  0  0  0  0  0  0
   -7.5633    0.5942    1.4683 H   0  0  0  0  0  0  0  0  0  0  0  0
   -7.0453   -0.8137    0.1586 H   0  0  0  0  0  0  0  0  0  0  0  0
   -5.8899   -1.2710   -1.0381 H   0  0  0  0  0  0  0  0  0  0  0  0
   -7.5218    0.3896   -2.0064 H   0  0  0  0  0  0  0  0  0  0  0  0
   -7.0748    1.5513   -0.7571 H   0  0  0  0  0  0  0  0  0  0  0  0
   -5.9030    1.0854   -1.9729 H   0  0  0  0  0  0  0  0  0  0  0  0
  1  2  1  0  0  0  0
  2  3  1  0  0  0  0
  3  4  1  0  0  0  0
  4  5  2  0  0  0  0
  4  6  1  0  0  0  0
  6  7  1  0  0  0  0
  7  8  1  0  0  0  0
  8  9  1  0  0  0  0
  9 10  1  0  0  0  0
 10 11  1  0  0  0  0
 11 12  1  0  0  0  0
 12 13  2  0  0  0  0
 13 14  1  0  0  0  0
 14 15  2  0  0  0  0
 15 16  1  0  0  0  0
 16 17  2  0  0  0  0
 17 18  1  0  0  0  0
 18 19  2  0  0  0  0
 18 20  1  0  0  0  0
 20 21  2  0  0  0  0
 21 22  1  0  0  0  0
 22 23  2  0  0  0  0
 23 24  1  0  0  0  0
 24 25  2  0  0  0  0
 23 26  1  0  0  0  0
 26 27  2  0  0  0  0
 26 28  1  0  0  0  0
 28 29  2  0  0  0  0
 29 30  1  0  0  0  0
 30 31  2  0  0  0  0
 31 32  1  0  0  0  0
 32 33  2  0  0  0  0
 33 34  1  0  0  0  0
 34 35  1  0  0  0  0
 35 36  1  0  0  0  0
 25 11  1  0  0  0  0
 33 28  1  0  0  0  0
 17 12  1  0  0  0  0
 25 20  1  0  0  0  0
 34 22  1  0  0  0  0
  1 37  1  0  0  0  0
  1 38  1  0  0  0  0
  1 39  1  0  0  0  0
  2 40  1  0  0  0  0
  2 41  1  0  0  0  0
  6 42  1  0  0  0  0
  6 43  1  0  0  0  0
  7 44  1  0  0  0  0
  7 45  1  0  0  0  0
  8 46  1  0  0  0  0
  8 47  1  0  0  0  0
  9 48  1  0  0  0  0
  9 49  1  0  0  0  0
 10 50  1  0  0  0  0
 10 51  1  0  0  0  0
 13 52  1  0  0  0  0
 14 53  1  0  0  0  0
 15 54  1  0  0  0  0
 16 55  1  0  0  0  0
 21 56  1  0  0  0  0
 24 57  1  0  0  0  0
 29 58  1  0  0  0  0
 30 59  1  0  0  0  0
 31 60  1  0  0  0  0
 32 61  1  0  0  0  0
 35 62  1  0  0  0  0
 35 63  1  0  0  0  0
 36 64  1  0  0  0  0
 36 65  1  0  0  0  0
 36 66  1  0  0  0  0
M  END
