
  xtb     03012221243D
 energy: -8.371731683876 gnorm: 0.000171103698 xtb: 6.4.1 (afa7bdf)
 40 44  0     0  0            999 V2000
    0.1159   -2.3528   -2.0146 F   0  0  0  0  0  0  0  0  0  0  0  0
   -0.1097   -2.0562   -0.6733 B   0  0  0  0  0  4  0  0  0  0  0  0
    0.2572   -3.1241    0.1407 F   0  0  0  0  0  0  0  0  0  0  0  0
   -1.5326   -1.7563   -0.4728 O   0  0  0  0  0  0  0  0  0  0  0  0
   -1.9778   -0.5597   -0.0130 C   0  0  0  0  0  0  0  0  0  0  0  0
   -3.4315   -0.4157    0.1349 C   0  0  0  0  0  0  0  0  0  0  0  0
   -4.2338   -1.5008   -0.1987 C   0  0  0  0  0  0  0  0  0  0  0  0
   -5.6035   -1.4333   -0.0836 C   0  0  0  0  0  0  0  0  0  0  0  0
   -6.1996   -0.2749    0.3691 C   0  0  0  0  0  0  0  0  0  0  0  0
   -5.4204    0.8128    0.7050 C   0  0  0  0  0  0  0  0  0  0  0  0
   -4.0497    0.7476    0.5907 C   0  0  0  0  0  0  0  0  0  0  0  0
   -1.1015    0.4400    0.2888 C   0  0  0  0  0  0  0  0  0  0  0  0
    0.2997    0.2934    0.1433 C   0  0  0  0  0  0  0  0  0  0  0  0
    1.2052    1.3735    0.4725 C   0  0  0  0  0  0  0  0  0  0  0  0
    0.7466    2.6144    0.9476 C   0  0  0  0  0  0  0  0  0  0  0  0
    1.6156    3.6252    1.2546 C   0  0  0  0  0  0  0  0  0  0  0  0
    2.9800    3.4396    1.1001 C   0  0  0  0  0  0  0  0  0  0  0  0
    3.4602    2.2440    0.6397 C   0  0  0  0  0  0  0  0  0  0  0  0
    2.5960    1.1868    0.3156 C   0  0  0  0  0  0  0  0  0  0  0  0
    3.0894   -0.0839   -0.1734 C   0  0  0  0  0  0  0  0  0  0  0  0
    4.4544   -0.3502   -0.3571 C   0  0  0  0  0  0  0  0  0  0  0  0
    4.8857   -1.5636   -0.8221 C   0  0  0  0  0  0  0  0  0  0  0  0
    3.9682   -2.5600   -1.1221 C   0  0  0  0  0  0  0  0  0  0  0  0
    2.6331   -2.3280   -0.9525 C   0  0  0  0  0  0  0  0  0  0  0  0
    2.1614   -1.0983   -0.4789 C   0  0  0  0  0  0  0  0  0  0  0  0
    0.7991   -0.8684   -0.3075 N   0  0  0  0  0  4  0  0  0  0  0  0
   -3.7542   -2.3984   -0.5507 H   0  0  0  0  0  0  0  0  0  0  0  0
   -6.2088   -2.2850   -0.3470 H   0  0  0  0  0  0  0  0  0  0  0  0
   -7.2718   -0.2196    0.4601 H   0  0  0  0  0  0  0  0  0  0  0  0
   -5.8870    1.7177    1.0586 H   0  0  0  0  0  0  0  0  0  0  0  0
   -3.4578    1.6042    0.8563 H   0  0  0  0  0  0  0  0  0  0  0  0
   -1.4917    1.3687    0.6494 H   0  0  0  0  0  0  0  0  0  0  0  0
   -0.3058    2.7851    1.0762 H   0  0  0  0  0  0  0  0  0  0  0  0
    1.2410    4.5681    1.6172 H   0  0  0  0  0  0  0  0  0  0  0  0
    3.6611    4.2387    1.3433 H   0  0  0  0  0  0  0  0  0  0  0  0
    4.5213    2.1206    0.5269 H   0  0  0  0  0  0  0  0  0  0  0  0
    5.1822    0.4072   -0.1309 H   0  0  0  0  0  0  0  0  0  0  0  0
    5.9389   -1.7476   -0.9562 H   0  0  0  0  0  0  0  0  0  0  0  0
    4.3090   -3.5146   -1.4880 H   0  0  0  0  0  0  0  0  0  0  0  0
    1.9162   -3.0962   -1.1829 H   0  0  0  0  0  0  0  0  0  0  0  0
  1  2  1  0  0  0  0
  2  3  1  0  0  0  0
  2  4  1  0  0  0  0
  4  5  1  0  0  0  0
  5  6  1  0  0  0  0
  6  7  2  0  0  0  0
  7  8  1  0  0  0  0
  8  9  2  0  0  0  0
  9 10  1  0  0  0  0
 10 11  2  0  0  0  0
  5 12  2  0  0  0  0
 12 13  1  0  0  0  0
 13 14  2  0  0  0  0
 14 15  1  0  0  0  0
 15 16  2  0  0  0  0
 16 17  1  0  0  0  0
 17 18  2  0  0  0  0
 18 19  1  0  0  0  0
 19 20  2  0  0  0  0
 20 21  1  0  0  0  0
 21 22  2  0  0  0  0
 22 23  1  0  0  0  0
 23 24  2  0  0  0  0
 24 25  1  0  0  0  0
 25 26  2  0  0  0  0
 26  2  1  0  0  0  0
 11  6  1  0  0  0  0
 26 13  1  0  0  0  0
 19 14  1  0  0  0  0
 25 20  1  0  0  0  0
  7 27  1  0  0  0  0
  8 28  1  0  0  0  0
  9 29  1  0  0  0  0
 10 30  1  0  0  0  0
 11 31  1  0  0  0  0
 12 32  1  0  0  0  0
 15 33  1  0  0  0  0
 16 34  1  0  0  0  0
 17 35  1  0  0  0  0
 18 36  1  0  0  0  0
 21 37  1  0  0  0  0
 22 38  1  0  0  0  0
 23 39  1  0  0  0  0
 24 40  1  0  0  0  0
M  CHG  1   2  -1
M  CHG  1  26   1
M  END
