
  xtb     03012221323D
 energy: -9.963949865942 gnorm: 0.000321944146 xtb: 6.4.1 (afa7bdf)
 50 54  0     0  0            999 V2000
   -7.2370   -1.6336   -2.2014 F   0  0  0  0  0  0  0  0  0  0  0  0
   -6.6068   -1.3695   -1.0394 C   0  0  0  0  0  0  0  0  0  0  0  0
   -7.3298   -1.1519    0.0503 N   0  0  0  0  0  0  0  0  0  0  0  0
   -6.6683   -0.9211    1.1758 C   0  0  0  0  0  0  0  0  0  0  0  0
   -7.3622   -0.7192    2.3137 F   0  0  0  0  0  0  0  0  0  0  0  0
   -5.2855   -0.8945    1.2592 C   0  0  0  0  0  0  0  0  0  0  0  0
   -4.6915   -0.6827    2.4486 F   0  0  0  0  0  0  0  0  0  0  0  0
   -4.5286   -1.1174    0.1211 C   0  0  0  0  0  0  0  0  0  0  0  0
   -3.1325   -1.0837    0.1520 C   0  0  0  0  0  0  0  0  0  0  0  0
   -1.9136   -0.9973    0.1623 C   0  0  0  0  0  0  0  0  0  0  0  0
   -0.5250   -0.7962    0.1475 C   0  0  0  0  0  0  0  0  0  0  0  0
    0.3365   -1.8522    0.4315 C   0  0  0  0  0  0  0  0  0  0  0  0
    1.7025   -1.6517    0.4163 C   0  0  0  0  0  0  0  0  0  0  0  0
    2.2285   -0.3701    0.1124 C   0  0  0  0  0  0  0  0  0  0  0  0
    1.3751    0.6779   -0.1692 C   0  0  0  0  0  0  0  0  0  0  0  0
   -0.0022    0.4760   -0.1545 C   0  0  0  0  0  0  0  0  0  0  0  0
   -0.8682    1.5420   -0.4404 C   0  0  0  0  0  0  0  0  0  0  0  0
   -1.6854    2.4189   -0.6771 C   0  0  0  0  0  0  0  0  0  0  0  0
   -2.6606    3.3838   -0.9378 C   0  0  0  0  0  0  0  0  0  0  0  0
   -2.3270    4.6840   -1.2769 C   0  0  0  0  0  0  0  0  0  0  0  0
   -1.0374    5.0598   -1.3658 F   0  0  0  0  0  0  0  0  0  0  0  0
   -3.3323    5.6043   -1.5250 C   0  0  0  0  0  0  0  0  0  0  0  0
   -2.9590    6.8575   -1.8520 F   0  0  0  0  0  0  0  0  0  0  0  0
   -4.6239    5.3133   -1.4571 N   0  0  0  0  0  0  0  0  0  0  0  0
   -4.9454    4.0688   -1.1326 C   0  0  0  0  0  0  0  0  0  0  0  0
   -6.2473    3.7286   -1.0518 F   0  0  0  0  0  0  0  0  0  0  0  0
   -4.0104    3.0818   -0.8669 C   0  0  0  0  0  0  0  0  0  0  0  0
   -4.4204    1.8418   -0.5410 F   0  0  0  0  0  0  0  0  0  0  0  0
    3.6094   -0.4039    0.1550 O   0  0  0  0  0  0  0  0  0  0  0  0
    3.9505   -1.7679    0.5066 C   0  0  0  0  0  0  0  0  0  0  0  0
    4.8122   -2.3872   -0.6452 C   0  0  0  0  0  0  0  0  0  0  0  0
    6.3284   -2.1603   -0.4388 C   0  0  0  0  0  0  0  0  0  0  0  0
    6.5951   -0.8500    0.3243 C   0  0  0  0  0  0  0  0  0  0  0  0
    6.0118   -0.9003    1.7608 C   0  0  0  0  0  0  0  0  0  0  0  0
    4.7335   -1.7680    1.8511 C   0  0  0  0  0  0  0  0  0  0  0  0
    2.7326   -2.5391    0.6610 O   0  0  0  0  0  0  0  0  0  0  0  0
   -5.2214   -1.3628   -1.0526 C   0  0  0  0  0  0  0  0  0  0  0  0
   -4.5623   -1.6214   -2.1976 F   0  0  0  0  0  0  0  0  0  0  0  0
   -0.0547   -2.8274    0.6630 H   0  0  0  0  0  0  0  0  0  0  0  0
    1.7802    1.6476   -0.3994 H   0  0  0  0  0  0  0  0  0  0  0  0
    4.5721   -3.4518   -0.7224 H   0  0  0  0  0  0  0  0  0  0  0  0
    4.4828   -1.9301   -1.5823 H   0  0  0  0  0  0  0  0  0  0  0  0
    6.7487   -2.9965    0.1311 H   0  0  0  0  0  0  0  0  0  0  0  0
    6.8561   -2.1645   -1.4009 H   0  0  0  0  0  0  0  0  0  0  0  0
    7.6675   -0.6190    0.3434 H   0  0  0  0  0  0  0  0  0  0  0  0
    6.1220   -0.0263   -0.2233 H   0  0  0  0  0  0  0  0  0  0  0  0
    5.7831    0.1172    2.0997 H   0  0  0  0  0  0  0  0  0  0  0  0
    6.7701   -1.2780    2.4567 H   0  0  0  0  0  0  0  0  0  0  0  0
    4.0624   -1.4062    2.6357 H   0  0  0  0  0  0  0  0  0  0  0  0
    4.9773   -2.8020    2.1106 H   0  0  0  0  0  0  0  0  0  0  0  0
  1  2  1  0  0  0  0
  2  3  2  0  0  0  0
  3  4  1  0  0  0  0
  4  5  1  0  0  0  0
  4  6  2  0  0  0  0
  6  7  1  0  0  0  0
  6  8  1  0  0  0  0
  8  9  1  0  0  0  0
  9 10  3  0  0  0  0
 10 11  1  0  0  0  0
 11 12  2  0  0  0  0
 12 13  1  0  0  0  0
 13 14  2  0  0  0  0
 14 15  1  0  0  0  0
 15 16  2  0  0  0  0
 16 17  1  0  0  0  0
 17 18  3  0  0  0  0
 18 19  1  0  0  0  0
 19 20  2  0  0  0  0
 20 21  1  0  0  0  0
 20 22  1  0  0  0  0
 22 23  1  0  0  0  0
 22 24  2  0  0  0  0
 24 25  1  0  0  0  0
 25 26  1  0  0  0  0
 25 27  2  0  0  0  0
 27 28  1  0  0  0  0
 14 29  1  0  0  0  0
 29 30  1  0  0  0  0
 30 31  1  0  0  0  0
 31 32  1  0  0  0  0
 32 33  1  0  0  0  0
 33 34  1  0  0  0  0
 34 35  1  0  0  0  0
 30 36  1  0  0  0  0
  8 37  2  0  0  0  0
 37 38  1  0  0  0  0
 37  2  1  0  0  0  0
 16 11  1  0  0  0  0
 27 19  1  0  0  0  0
 35 30  1  0  0  0  0
 36 13  1  0  0  0  0
 12 39  1  0  0  0  0
 15 40  1  0  0  0  0
 31 41  1  0  0  0  0
 31 42  1  0  0  0  0
 32 43  1  0  0  0  0
 32 44  1  0  0  0  0
 33 45  1  0  0  0  0
 33 46  1  0  0  0  0
 34 47  1  0  0  0  0
 34 48  1  0  0  0  0
 35 49  1  0  0  0  0
 35 50  1  0  0  0  0
M  END
