
  xtb     03012221333D
 energy: -6.839757588463 gnorm: 0.000289096643 xtb: 6.4.1 (afa7bdf)
 34 37  0     0  0            999 V2000
    5.2142   -0.0543   -0.0128 C   0  0  0  0  0  0  0  0  0  0  0  0
    3.7258   -0.0481    0.0105 C   0  0  0  0  0  0  0  0  0  0  0  0
    3.0044   -1.0737   -0.5844 C   0  0  0  0  0  0  0  0  0  0  0  0
    1.6287   -1.0612   -0.5856 C   0  0  0  0  0  0  0  0  0  0  0  0
    0.9207   -0.0129    0.0048 C   0  0  0  0  0  0  0  0  0  0  0  0
   -0.5524    0.0045    0.0034 C   0  0  0  0  0  0  0  0  0  0  0  0
   -1.2845    1.1558   -0.3406 C   0  0  0  0  0  0  0  0  0  0  0  0
   -0.8631    2.4310   -0.7727 C   0  0  0  0  0  0  0  0  0  0  0  0
   -1.9970    3.1988   -1.0127 C   0  0  0  0  0  0  0  0  0  0  0  0
   -3.1280    2.4241   -0.7445 C   0  0  0  0  0  0  0  0  0  0  0  0
   -2.6838    1.2197   -0.3525 N   0  0  0  0  0  4  0  0  0  0  0  0
   -3.5915    0.0410    0.0015 B   0  0  0  0  0  4  0  0  0  0  0  0
   -4.3642    0.3785    1.1082 F   0  0  0  0  0  0  0  0  0  0  0  0
   -4.3746   -0.2770   -1.1037 F   0  0  0  0  0  0  0  0  0  0  0  0
   -2.7128   -1.1599    0.3542 N   0  0  0  0  0  0  0  0  0  0  0  0
   -3.1861   -2.3530    0.7463 C   0  0  0  0  0  0  0  0  0  0  0  0
   -2.0744   -3.1541    1.0179 C   0  0  0  0  0  0  0  0  0  0  0  0
   -0.9222   -2.4137    0.7797 C   0  0  0  0  0  0  0  0  0  0  0  0
   -1.3123   -1.1293    0.3455 C   0  0  0  0  0  0  0  0  0  0  0  0
    1.6524    1.0203    0.5927 C   0  0  0  0  0  0  0  0  0  0  0  0
    3.0281    1.0015    0.5920 C   0  0  0  0  0  0  0  0  0  0  0  0
    5.5883    0.3912   -0.9349 H   0  0  0  0  0  0  0  0  0  0  0  0
    5.6033   -1.0707    0.0526 H   0  0  0  0  0  0  0  0  0  0  0  0
    5.6237    0.5111    0.8246 H   0  0  0  0  0  0  0  0  0  0  0  0
    3.5361   -1.8840   -1.0530 H   0  0  0  0  0  0  0  0  0  0  0  0
    1.0815   -1.8530   -1.0669 H   0  0  0  0  0  0  0  0  0  0  0  0
    0.1572    2.7423   -0.9150 H   0  0  0  0  0  0  0  0  0  0  0  0
   -2.0044    4.2201   -1.3587 H   0  0  0  0  0  0  0  0  0  0  0  0
   -4.1665    2.6986   -0.8333 H   0  0  0  0  0  0  0  0  0  0  0  0
   -4.2309   -2.6031    0.8331 H   0  0  0  0  0  0  0  0  0  0  0  0
   -2.1071   -4.1747    1.3644 H   0  0  0  0  0  0  0  0  0  0  0  0
    0.0903   -2.7495    0.9224 H   0  0  0  0  0  0  0  0  0  0  0  0
    1.1236    1.8274    1.0691 H   0  0  0  0  0  0  0  0  0  0  0  0
    3.5776    1.8067    1.0484 H   0  0  0  0  0  0  0  0  0  0  0  0
  1  2  1  0  0  0  0
  2  3  2  0  0  0  0
  3  4  1  0  0  0  0
  4  5  2  0  0  0  0
  5  6  1  0  0  0  0
  6  7  2  0  0  0  0
  7  8  1  0  0  0  0
  8  9  2  0  0  0  0
  9 10  1  0  0  0  0
 10 11  2  0  0  0  0
 11 12  1  0  0  0  0
 12 13  1  0  0  0  0
 12 14  1  0  0  0  0
 12 15  1  0  0  0  0
 15 16  1  0  0  0  0
 16 17  2  0  0  0  0
 17 18  1  0  0  0  0
 18 19  2  0  0  0  0
  5 20  1  0  0  0  0
 20 21  2  0  0  0  0
 21  2  1  0  0  0  0
 19  6  1  0  0  0  0
 11  7  1  0  0  0  0
 19 15  1  0  0  0  0
  1 22  1  0  0  0  0
  1 23  1  0  0  0  0
  1 24  1  0  0  0  0
  3 25  1  0  0  0  0
  4 26  1  0  0  0  0
  8 27  1  0  0  0  0
  9 28  1  0  0  0  0
 10 29  1  0  0  0  0
 16 30  1  0  0  0  0
 17 31  1  0  0  0  0
 18 32  1  0  0  0  0
 20 33  1  0  0  0  0
 21 34  1  0  0  0  0
M  CHG  1  11   1
M  CHG  1  12  -1
M  END
