
  xtb     03012221253D
 energy: -7.595726405884 gnorm: 0.000151722315 xtb: 6.4.1 (afa7bdf)
 37 40  0     0  0            999 V2000
    2.1656    2.8696    0.1990 C   0  0  0  0  0  0  0  0  0  0  0  0
    0.6852    2.3828   -0.0441 B   0  0  0  0  0  0  0  0  0  0  0  0
   -0.3784    3.3840   -0.3325 C   0  0  0  0  0  0  0  0  0  0  0  0
   -1.6244    2.9238   -0.5469 C   0  0  0  0  0  0  0  0  0  0  0  0
   -1.9567    1.5499   -0.4995 C   0  0  0  0  0  0  0  0  0  0  0  0
   -3.3064    1.1730   -0.7527 C   0  0  0  0  0  0  0  0  0  0  0  0
   -3.6945   -0.1178   -0.7240 C   0  0  0  0  0  0  0  0  0  0  0  0
   -2.7629   -1.1505   -0.4296 C   0  0  0  0  0  0  0  0  0  0  0  0
   -3.1843   -2.4924   -0.3916 C   0  0  0  0  0  0  0  0  0  0  0  0
   -2.3065   -3.4952   -0.0974 C   0  0  0  0  0  0  0  0  0  0  0  0
   -0.9770   -3.1904    0.1710 C   0  0  0  0  0  0  0  0  0  0  0  0
   -0.5450   -1.8940    0.1373 C   0  0  0  0  0  0  0  0  0  0  0  0
   -1.4094   -0.8251   -0.1667 C   0  0  0  0  0  0  0  0  0  0  0  0
   -0.9909    0.5638   -0.2140 C   0  0  0  0  0  0  0  0  0  0  0  0
    0.3131    0.9807    0.0013 N   0  0  0  0  0  0  0  0  0  0  0  0
    1.4614    0.1605    0.2512 C   0  0  0  0  0  0  0  0  0  0  0  0
    2.2014   -0.3534   -0.8069 C   0  0  0  0  0  0  0  0  0  0  0  0
    3.3065   -1.1403   -0.5661 C   0  0  0  0  0  0  0  0  0  0  0  0
    3.6884   -1.4170    0.7320 C   0  0  0  0  0  0  0  0  0  0  0  0
    2.9667   -0.9013    1.7907 C   0  0  0  0  0  0  0  0  0  0  0  0
    1.8617   -0.1133    1.5536 C   0  0  0  0  0  0  0  0  0  0  0  0
    2.2555    3.9409    0.0439 H   0  0  0  0  0  0  0  0  0  0  0  0
    2.4591    2.6375    1.2185 H   0  0  0  0  0  0  0  0  0  0  0  0
    2.8369    2.3604   -0.4863 H   0  0  0  0  0  0  0  0  0  0  0  0
   -0.1235    4.4253   -0.3666 H   0  0  0  0  0  0  0  0  0  0  0  0
   -2.4117    3.6259   -0.7652 H   0  0  0  0  0  0  0  0  0  0  0  0
   -4.0238    1.9450   -0.9732 H   0  0  0  0  0  0  0  0  0  0  0  0
   -4.7193   -0.3830   -0.9198 H   0  0  0  0  0  0  0  0  0  0  0  0
   -4.2163   -2.7203   -0.5969 H   0  0  0  0  0  0  0  0  0  0  0  0
   -2.6409   -4.5193   -0.0700 H   0  0  0  0  0  0  0  0  0  0  0  0
   -0.2854   -3.9827    0.4078 H   0  0  0  0  0  0  0  0  0  0  0  0
    0.4838   -1.6989    0.3569 H   0  0  0  0  0  0  0  0  0  0  0  0
    1.8908   -0.1316   -1.8130 H   0  0  0  0  0  0  0  0  0  0  0  0
    3.8724   -1.5402   -1.3914 H   0  0  0  0  0  0  0  0  0  0  0  0
    4.5521   -2.0340    0.9191 H   0  0  0  0  0  0  0  0  0  0  0  0
    3.2679   -1.1152    2.8030 H   0  0  0  0  0  0  0  0  0  0  0  0
    1.2888    0.2931    2.3689 H   0  0  0  0  0  0  0  0  0  0  0  0
  1  2  1  0  0  0  0
  2  3  1  0  0  0  0
  3  4  2  0  0  0  0
  4  5  1  0  0  0  0
  5  6  2  0  0  0  0
  6  7  1  0  0  0  0
  7  8  2  0  0  0  0
  8  9  1  0  0  0  0
  9 10  2  0  0  0  0
 10 11  1  0  0  0  0
 11 12  2  0  0  0  0
 12 13  1  0  0  0  0
 13 14  2  0  0  0  0
 14 15  1  0  0  0  0
 15 16  1  0  0  0  0
 16 17  2  0  0  0  0
 17 18  1  0  0  0  0
 18 19  2  0  0  0  0
 19 20  1  0  0  0  0
 20 21  2  0  0  0  0
 15  2  1  0  0  0  0
 21 16  1  0  0  0  0
 14  5  1  0  0  0  0
 13  8  1  0  0  0  0
  1 22  1  0  0  0  0
  1 23  1  0  0  0  0
  1 24  1  0  0  0  0
  3 25  1  0  0  0  0
  4 26  1  0  0  0  0
  6 27  1  0  0  0  0
  7 28  1  0  0  0  0
  9 29  1  0  0  0  0
 10 30  1  0  0  0  0
 11 31  1  0  0  0  0
 12 32  1  0  0  0  0
 17 33  1  0  0  0  0
 18 34  1  0  0  0  0
 19 35  1  0  0  0  0
 20 36  1  0  0  0  0
 21 37  1  0  0  0  0
M  END
