
  xtb     03012221243D
 energy: -6.504729296672 gnorm: 0.000346534511 xtb: 6.4.1 (afa7bdf)
 31 34  0     0  0            999 V2000
    4.7478    0.0357    0.0133 N   0  0  0  0  0  0  0  0  0  0  0  0
    3.4803    0.7297    0.1638 C   0  0  0  0  0  0  0  0  0  0  0  0
    2.2517   -0.1104   -0.0401 C   0  0  0  0  0  0  0  0  0  0  0  0
    2.3561   -1.4502   -0.3807 C   0  0  0  0  0  0  0  0  0  0  0  0
    1.2450   -2.2425   -0.5754 C   0  0  0  0  0  0  0  0  0  0  0  0
   -0.0367   -1.7168   -0.4355 C   0  0  0  0  0  0  0  0  0  0  0  0
   -1.2119   -2.5112   -0.6322 C   0  0  0  0  0  0  0  0  0  0  0  0
   -2.4465   -1.9819   -0.4931 C   0  0  0  0  0  0  0  0  0  0  0  0
   -2.6261   -0.6052   -0.1432 C   0  0  0  0  0  0  0  0  0  0  0  0
   -3.8911   -0.0346    0.0060 C   0  0  0  0  0  0  0  0  0  0  0  0
   -4.0291    1.2956    0.3438 C   0  0  0  0  0  0  0  0  0  0  0  0
   -2.9205    2.0919    0.5415 C   0  0  0  0  0  0  0  0  0  0  0  0
   -1.6338    1.5692    0.4040 C   0  0  0  0  0  0  0  0  0  0  0  0
   -0.4605    2.3635    0.5994 C   0  0  0  0  0  0  0  0  0  0  0  0
    0.7749    1.8359    0.4597 C   0  0  0  0  0  0  0  0  0  0  0  0
    0.9715    0.4583    0.1107 C   0  0  0  0  0  0  0  0  0  0  0  0
   -0.1758   -0.3520   -0.0888 C   0  0  0  0  0  0  0  0  0  0  0  0
   -1.4816    0.2053    0.0579 C   0  0  0  0  0  0  0  0  0  0  0  0
    4.8165   -0.7313    0.6714 H   0  0  0  0  0  0  0  0  0  0  0  0
    4.8391   -0.3522   -0.9185 H   0  0  0  0  0  0  0  0  0  0  0  0
    3.4621    1.5719   -0.5382 H   0  0  0  0  0  0  0  0  0  0  0  0
    3.4508    1.1774    1.1644 H   0  0  0  0  0  0  0  0  0  0  0  0
    3.3319   -1.8862   -0.4964 H   0  0  0  0  0  0  0  0  0  0  0  0
    1.3590   -3.2799   -0.8393 H   0  0  0  0  0  0  0  0  0  0  0  0
   -1.0929   -3.5480   -0.8959 H   0  0  0  0  0  0  0  0  0  0  0  0
   -3.3194   -2.5923   -0.6448 H   0  0  0  0  0  0  0  0  0  0  0  0
   -4.7625   -0.6471   -0.1463 H   0  0  0  0  0  0  0  0  0  0  0  0
   -5.0152    1.7177    0.4542 H   0  0  0  0  0  0  0  0  0  0  0  0
   -3.0388    3.1285    0.8045 H   0  0  0  0  0  0  0  0  0  0  0  0
   -0.5811    3.4004    0.8620 H   0  0  0  0  0  0  0  0  0  0  0  0
    1.6369    2.4610    0.6120 H   0  0  0  0  0  0  0  0  0  0  0  0
  1  2  1  0  0  0  0
  2  3  1  0  0  0  0
  3  4  2  0  0  0  0
  4  5  1  0  0  0  0
  5  6  2  0  0  0  0
  6  7  1  0  0  0  0
  7  8  2  0  0  0  0
  8  9  1  0  0  0  0
  9 10  2  0  0  0  0
 10 11  1  0  0  0  0
 11 12  2  0  0  0  0
 12 13  1  0  0  0  0
 13 14  2  0  0  0  0
 14 15  1  0  0  0  0
 15 16  2  0  0  0  0
 16 17  1  0  0  0  0
 17 18  2  0  0  0  0
 16  3  1  0  0  0  0
 17  6  1  0  0  0  0
 18  9  1  0  0  0  0
 18 13  1  0  0  0  0
  1 19  1  0  0  0  0
  1 20  1  0  0  0  0
  2 21  1  0  0  0  0
  2 22  1  0  0  0  0
  4 23  1  0  0  0  0
  5 24  1  0  0  0  0
  7 25  1  0  0  0  0
  8 26  1  0  0  0  0
 10 27  1  0  0  0  0
 11 28  1  0  0  0  0
 12 29  1  0  0  0  0
 14 30  1  0  0  0  0
 15 31  1  0  0  0  0
M  END
