
  xtb     03012221333D
 energy: -21.434400694796 gnorm: 0.000415272163 xtb: 6.4.1 (afa7bdf)
105113  0     0  0            999 V2000
   -9.2072   -2.2766   -3.1133 C   0  0  0  0  0  0  0  0  0  0  0  0
   -7.8229   -2.4778   -2.5146 C   0  0  0  0  0  0  0  0  0  0  0  0
   -7.5910   -1.6506   -1.2471 C   0  0  0  0  0  0  0  0  0  0  0  0
   -7.5549   -0.1524   -1.4978 C   0  0  0  0  0  0  0  0  0  0  0  0
   -7.4483    0.6004   -0.2399 N   0  0  0  0  0  0  0  0  0  0  0  0
   -6.2813    0.9373    0.4445 C   0  0  0  0  0  0  0  0  0  0  0  0
   -4.9236    0.8819   -0.1024 C   0  0  0  0  0  0  0  0  0  0  0  0
   -3.8744    0.4182    0.6924 C   0  0  0  0  0  0  0  0  0  0  0  0
   -2.5939    0.3607    0.2006 C   0  0  0  0  0  0  0  0  0  0  0  0
   -2.3163    0.7756   -1.0984 C   0  0  0  0  0  0  0  0  0  0  0  0
   -0.9576    0.7144   -1.6091 C   0  0  0  0  0  0  0  0  0  0  0  0
   -0.5865    1.1089   -2.8311 N   0  0  0  0  0  0  0  0  0  0  0  0
    0.6890    0.9224   -2.9486 N   0  0  0  0  0  0  0  0  0  0  0  0
    1.1443    0.4054   -1.8032 C   0  0  0  0  0  0  0  0  0  0  0  0
    2.5328    0.0667   -1.5433 C   0  0  0  0  0  0  0  0  0  0  0  0
    2.8974   -0.4946   -0.3230 C   0  0  0  0  0  0  0  0  0  0  0  0
    4.2105   -0.7926   -0.0548 C   0  0  0  0  0  0  0  0  0  0  0  0
    5.2058   -0.5263   -0.9975 C   0  0  0  0  0  0  0  0  0  0  0  0
    6.6187   -0.7921   -0.7177 C   0  0  0  0  0  0  0  0  0  0  0  0
    7.4654   -1.2560   -1.6286 N   0  0  0  0  0  0  0  0  0  0  0  0
    8.6712   -1.3393   -1.0379 C   0  0  0  0  0  0  0  0  0  0  0  0
    9.8643   -1.8371   -1.7303 C   0  0  0  0  0  0  0  0  0  0  0  0
   10.9811   -2.3136   -1.0436 C   0  0  0  0  0  0  0  0  0  0  0  0
   12.0807   -2.7835   -1.7268 C   0  0  0  0  0  0  0  0  0  0  0  0
   12.0857   -2.7932   -3.1074 C   0  0  0  0  0  0  0  0  0  0  0  0
   10.9848   -2.3369   -3.8044 C   0  0  0  0  0  0  0  0  0  0  0  0
    9.8835   -1.8672   -3.1229 C   0  0  0  0  0  0  0  0  0  0  0  0
    8.5865   -0.8702    0.2898 C   0  0  0  0  0  0  0  0  0  0  0  0
    9.6780   -0.6493    1.2509 C   0  0  0  0  0  0  0  0  0  0  0  0
   10.7697    0.1564    0.9211 C   0  0  0  0  0  0  0  0  0  0  0  0
   11.7821    0.3717    1.8294 C   0  0  0  0  0  0  0  0  0  0  0  0
   11.7241   -0.2084    3.0812 C   0  0  0  0  0  0  0  0  0  0  0  0
   10.6498   -1.0053    3.4251 C   0  0  0  0  0  0  0  0  0  0  0  0
    9.6338   -1.2240    2.5213 C   0  0  0  0  0  0  0  0  0  0  0  0
    7.2725   -0.5258    0.4854 N   0  0  0  0  0  0  0  0  0  0  0  0
    6.7780    0.3014    1.5969 C   0  0  0  0  0  0  0  0  0  0  0  0
    7.3669    1.7037    1.5653 C   0  0  0  0  0  0  0  0  0  0  0  0
    7.0790    2.4387    0.2535 C   0  0  0  0  0  0  0  0  0  0  0  0
    5.6114    2.7929    0.0691 C   0  0  0  0  0  0  0  0  0  0  0  0
    4.8317    0.0039   -2.2331 C   0  0  0  0  0  0  0  0  0  0  0  0
    3.5181    0.3004   -2.4994 C   0  0  0  0  0  0  0  0  0  0  0  0
    0.1212    0.2553   -0.9199 O   0  0  0  0  0  0  0  0  0  0  0  0
   -3.3562    1.2609   -1.8876 C   0  0  0  0  0  0  0  0  0  0  0  0
   -4.6377    1.3178   -1.3980 C   0  0  0  0  0  0  0  0  0  0  0  0
   -6.5457    1.2639    1.7040 N   0  0  0  0  0  0  0  0  0  0  0  0
   -7.8785    1.1705    1.8642 C   0  0  0  0  0  0  0  0  0  0  0  0
   -8.5511    1.4772    3.1302 C   0  0  0  0  0  0  0  0  0  0  0  0
   -9.9199    1.7343    3.2066 C   0  0  0  0  0  0  0  0  0  0  0  0
  -10.5143    2.0333    4.4125 C   0  0  0  0  0  0  0  0  0  0  0  0
   -9.7549    2.0872    5.5642 C   0  0  0  0  0  0  0  0  0  0  0  0
   -8.3967    1.8463    5.5068 C   0  0  0  0  0  0  0  0  0  0  0  0
   -7.8002    1.5477    4.3014 C   0  0  0  0  0  0  0  0  0  0  0  0
   -8.4735    0.7322    0.6625 C   0  0  0  0  0  0  0  0  0  0  0  0
   -9.8691    0.3343    0.4175 C   0  0  0  0  0  0  0  0  0  0  0  0
  -10.4698   -0.6708    1.1780 C   0  0  0  0  0  0  0  0  0  0  0  0
  -11.7665   -1.0604    0.9266 C   0  0  0  0  0  0  0  0  0  0  0  0
  -12.4859   -0.4590   -0.0872 C   0  0  0  0  0  0  0  0  0  0  0  0
  -11.9063    0.5348   -0.8511 C   0  0  0  0  0  0  0  0  0  0  0  0
  -10.6098    0.9289   -0.6045 C   0  0  0  0  0  0  0  0  0  0  0  0
   -9.3610   -1.2457   -3.4350 H   0  0  0  0  0  0  0  0  0  0  0  0
   -9.3731   -2.9150   -3.9838 H   0  0  0  0  0  0  0  0  0  0  0  0
   -9.9878   -2.5050   -2.3854 H   0  0  0  0  0  0  0  0  0  0  0  0
   -7.0527   -2.2281   -3.2556 H   0  0  0  0  0  0  0  0  0  0  0  0
   -7.6715   -3.5430   -2.2923 H   0  0  0  0  0  0  0  0  0  0  0  0
   -8.3778   -1.8723   -0.5175 H   0  0  0  0  0  0  0  0  0  0  0  0
   -6.6558   -1.9484   -0.7570 H   0  0  0  0  0  0  0  0  0  0  0  0
   -6.7221    0.1045   -2.1557 H   0  0  0  0  0  0  0  0  0  0  0  0
   -8.4592    0.1798   -2.0138 H   0  0  0  0  0  0  0  0  0  0  0  0
   -4.0886    0.1033    1.6985 H   0  0  0  0  0  0  0  0  0  0  0  0
   -1.7851   -0.0024    0.8108 H   0  0  0  0  0  0  0  0  0  0  0  0
    2.1288   -0.6902    0.4045 H   0  0  0  0  0  0  0  0  0  0  0  0
    4.4800   -1.2592    0.8760 H   0  0  0  0  0  0  0  0  0  0  0  0
   10.9738   -2.3206    0.0314 H   0  0  0  0  0  0  0  0  0  0  0  0
   12.9374   -3.1458   -1.1829 H   0  0  0  0  0  0  0  0  0  0  0  0
   12.9473   -3.1609   -3.6407 H   0  0  0  0  0  0  0  0  0  0  0  0
   10.9861   -2.3497   -4.8818 H   0  0  0  0  0  0  0  0  0  0  0  0
    9.0179   -1.5166   -3.6576 H   0  0  0  0  0  0  0  0  0  0  0  0
   10.8072    0.6081   -0.0549 H   0  0  0  0  0  0  0  0  0  0  0  0
   12.6205    0.9940    1.5632 H   0  0  0  0  0  0  0  0  0  0  0  0
   12.5177   -0.0390    3.7906 H   0  0  0  0  0  0  0  0  0  0  0  0
   10.6069   -1.4575    4.4022 H   0  0  0  0  0  0  0  0  0  0  0  0
    8.7987   -1.8509    2.7809 H   0  0  0  0  0  0  0  0  0  0  0  0
    7.0148   -0.2096    2.5356 H   0  0  0  0  0  0  0  0  0  0  0  0
    5.6887    0.3509    1.5474 H   0  0  0  0  0  0  0  0  0  0  0  0
    8.4506    1.6349    1.7189 H   0  0  0  0  0  0  0  0  0  0  0  0
    6.9890    2.2943    2.4086 H   0  0  0  0  0  0  0  0  0  0  0  0
    7.6857    3.3530    0.1996 H   0  0  0  0  0  0  0  0  0  0  0  0
    7.4219    1.8187   -0.5849 H   0  0  0  0  0  0  0  0  0  0  0  0
    4.9811    1.9036    0.0576 H   0  0  0  0  0  0  0  0  0  0  0  0
    5.2539    3.4289    0.8806 H   0  0  0  0  0  0  0  0  0  0  0  0
    5.4334    3.3258   -0.8675 H   0  0  0  0  0  0  0  0  0  0  0  0
    5.5946    0.1888   -2.9685 H   0  0  0  0  0  0  0  0  0  0  0  0
    3.2318    0.7225   -3.4467 H   0  0  0  0  0  0  0  0  0  0  0  0
   -3.1346    1.5985   -2.8848 H   0  0  0  0  0  0  0  0  0  0  0  0
   -5.4253    1.7403   -1.9958 H   0  0  0  0  0  0  0  0  0  0  0  0
  -10.5112    1.7078    2.3093 H   0  0  0  0  0  0  0  0  0  0  0  0
  -11.5732    2.2275    4.4568 H   0  0  0  0  0  0  0  0  0  0  0  0
  -10.2214    2.3219    6.5072 H   0  0  0  0  0  0  0  0  0  0  0  0
   -7.8025    1.8944    6.4043 H   0  0  0  0  0  0  0  0  0  0  0  0
   -6.7410    1.3658    4.2455 H   0  0  0  0  0  0  0  0  0  0  0  0
   -9.9018   -1.1390    1.9630 H   0  0  0  0  0  0  0  0  0  0  0  0
  -12.2198   -1.8363    1.5211 H   0  0  0  0  0  0  0  0  0  0  0  0
  -13.5006   -0.7656   -0.2824 H   0  0  0  0  0  0  0  0  0  0  0  0
  -12.4697    1.0031   -1.6412 H   0  0  0  0  0  0  0  0  0  0  0  0
  -10.1558    1.7077   -1.1921 H   0  0  0  0  0  0  0  0  0  0  0  0
  1  2  1  0  0  0  0
  2  3  1  0  0  0  0
  3  4  1  0  0  0  0
  4  5  1  0  0  0  0
  5  6  1  0  0  0  0
  6  7  1  0  0  0  0
  7  8  2  0  0  0  0
  8  9  1  0  0  0  0
  9 10  2  0  0  0  0
 10 11  1  0  0  0  0
 11 12  2  0  0  0  0
 12 13  1  0  0  0  0
 13 14  2  0  0  0  0
 14 15  1  0  0  0  0
 15 16  2  0  0  0  0
 16 17  1  0  0  0  0
 17 18  2  0  0  0  0
 18 19  1  0  0  0  0
 19 20  2  0  0  0  0
 20 21  1  0  0  0  0
 21 22  1  0  0  0  0
 22 23  2  0  0  0  0
 23 24  1  0  0  0  0
 24 25  2  0  0  0  0
 25 26  1  0  0  0  0
 26 27  2  0  0  0  0
 21 28  2  0  0  0  0
 28 29  1  0  0  0  0
 29 30  2  0  0  0  0
 30 31  1  0  0  0  0
 31 32  2  0  0  0  0
 32 33  1  0  0  0  0
 33 34  2  0  0  0  0
 28 35  1  0  0  0  0
 35 36  1  0  0  0  0
 36 37  1  0  0  0  0
 37 38  1  0  0  0  0
 38 39  1  0  0  0  0
 18 40  1  0  0  0  0
 40 41  2  0  0  0  0
 14 42  1  0  0  0  0
 10 43  1  0  0  0  0
 43 44  2  0  0  0  0
  6 45  2  0  0  0  0
 45 46  1  0  0  0  0
 46 47  1  0  0  0  0
 47 48  2  0  0  0  0
 48 49  1  0  0  0  0
 49 50  2  0  0  0  0
 50 51  1  0  0  0  0
 51 52  2  0  0  0  0
 46 53  2  0  0  0  0
 53 54  1  0  0  0  0
 54 55  2  0  0  0  0
 55 56  1  0  0  0  0
 56 57  2  0  0  0  0
 57 58  1  0  0  0  0
 58 59  2  0  0  0  0
 53  5  1  0  0  0  0
 59 54  1  0  0  0  0
 44  7  1  0  0  0  0
 52 47  1  0  0  0  0
 42 11  1  0  0  0  0
 41 15  1  0  0  0  0
 35 19  1  0  0  0  0
 27 22  1  0  0  0  0
 34 29  1  0  0  0  0
  1 60  1  0  0  0  0
  1 61  1  0  0  0  0
  1 62  1  0  0  0  0
  2 63  1  0  0  0  0
  2 64  1  0  0  0  0
  3 65  1  0  0  0  0
  3 66  1  0  0  0  0
  4 67  1  0  0  0  0
  4 68  1  0  0  0  0
  8 69  1  0  0  0  0
  9 70  1  0  0  0  0
 16 71  1  0  0  0  0
 17 72  1  0  0  0  0
 23 73  1  0  0  0  0
 24 74  1  0  0  0  0
 25 75  1  0  0  0  0
 26 76  1  0  0  0  0
 27 77  1  0  0  0  0
 30 78  1  0  0  0  0
 31 79  1  0  0  0  0
 32 80  1  0  0  0  0
 33 81  1  0  0  0  0
 34 82  1  0  0  0  0
 36 83  1  0  0  0  0
 36 84  1  0  0  0  0
 37 85  1  0  0  0  0
 37 86  1  0  0  0  0
 38 87  1  0  0  0  0
 38 88  1  0  0  0  0
 39 89  1  0  0  0  0
 39 90  1  0  0  0  0
 39 91  1  0  0  0  0
 40 92  1  0  0  0  0
 41 93  1  0  0  0  0
 43 94  1  0  0  0  0
 44 95  1  0  0  0  0
 48 96  1  0  0  0  0
 49 97  1  0  0  0  0
 50 98  1  0  0  0  0
 51 99  1  0  0  0  0
 52100  1  0  0  0  0
 55101  1  0  0  0  0
 56102  1  0  0  0  0
 57103  1  0  0  0  0
 58104  1  0  0  0  0
 59105  1  0  0  0  0
M  END
