
  xtb     03012221223D
 energy: -12.137798984364 gnorm: 0.000175427515 xtb: 6.4.1 (afa7bdf)
 55 61  0     0  0            999 V2000
   -2.4184    4.9159    1.6070 N   0  0  0  0  0  0  0  0  0  0  0  0
   -1.9262    3.9176    1.2743 C   0  0  0  0  0  0  0  0  0  0  0  0
   -1.3315    2.7121    0.8734 C   0  0  0  0  0  0  0  0  0  0  0  0
   -2.1045    1.5773    0.6742 C   0  0  0  0  0  0  0  0  0  0  0  0
   -1.5258    0.3728    0.2841 C   0  0  0  0  0  0  0  0  0  0  0  0
   -2.3457   -0.7951    0.0560 N   0  0  0  0  0  0  0  0  0  0  0  0
   -2.3327   -1.8683    1.0035 C   0  0  0  0  0  0  0  0  0  0  0  0
   -1.3118   -1.9611    1.9436 C   0  0  0  0  0  0  0  0  0  0  0  0
   -1.2609   -3.0038    2.8441 C   0  0  0  0  0  0  0  0  0  0  0  0
   -2.2365   -3.9755    2.8264 C   0  0  0  0  0  0  0  0  0  0  0  0
   -3.2698   -3.8905    1.9115 C   0  0  0  0  0  0  0  0  0  0  0  0
   -3.3334   -2.8467    1.0099 C   0  0  0  0  0  0  0  0  0  0  0  0
   -4.7239   -2.7829   -0.0799 S   0  0  0  0  0  0  0  0  0  0  0  0
   -4.0496   -1.8284   -1.4049 C   0  0  0  0  0  0  0  0  0  0  0  0
   -4.6189   -1.9618   -2.6556 C   0  0  0  0  0  0  0  0  0  0  0  0
   -4.1625   -1.2137   -3.7255 C   0  0  0  0  0  0  0  0  0  0  0  0
   -3.1293   -0.3214   -3.5427 C   0  0  0  0  0  0  0  0  0  0  0  0
   -2.5505   -0.1847   -2.2990 C   0  0  0  0  0  0  0  0  0  0  0  0
   -2.9893   -0.9364   -1.2141 C   0  0  0  0  0  0  0  0  0  0  0  0
   -0.1531    0.3233    0.0819 C   0  0  0  0  0  0  0  0  0  0  0  0
    0.6414    1.4462    0.2713 C   0  0  0  0  0  0  0  0  0  0  0  0
    2.0756    1.3668    0.1129 N   0  0  0  0  0  0  0  0  0  0  0  0
    2.6433    1.2995   -1.1995 C   0  0  0  0  0  0  0  0  0  0  0  0
    1.8437    0.9853   -2.2935 C   0  0  0  0  0  0  0  0  0  0  0  0
    2.3754    0.8804   -3.5612 C   0  0  0  0  0  0  0  0  0  0  0  0
    3.7209    1.0933   -3.7623 C   0  0  0  0  0  0  0  0  0  0  0  0
    4.5285    1.4251   -2.6901 C   0  0  0  0  0  0  0  0  0  0  0  0
    4.0046    1.5400   -1.4179 C   0  0  0  0  0  0  0  0  0  0  0  0
    5.0981    2.0299   -0.1181 S   0  0  0  0  0  0  0  0  0  0  0  0
    4.2532    1.3607    1.2815 C   0  0  0  0  0  0  0  0  0  0  0  0
    4.9924    1.0836    2.4143 C   0  0  0  0  0  0  0  0  0  0  0  0
    4.3841    0.5939    3.5556 C   0  0  0  0  0  0  0  0  0  0  0  0
    3.0232    0.3827    3.5661 C   0  0  0  0  0  0  0  0  0  0  0  0
    2.2769    0.6512    2.4385 C   0  0  0  0  0  0  0  0  0  0  0  0
    2.8733    1.1330    1.2779 C   0  0  0  0  0  0  0  0  0  0  0  0
    0.0393    2.6353    0.6730 C   0  0  0  0  0  0  0  0  0  0  0  0
   -3.1674    1.6237    0.8247 H   0  0  0  0  0  0  0  0  0  0  0  0
   -0.5487   -1.2052    1.9622 H   0  0  0  0  0  0  0  0  0  0  0  0
   -0.4569   -3.0589    3.5599 H   0  0  0  0  0  0  0  0  0  0  0  0
   -2.2001   -4.7937    3.5265 H   0  0  0  0  0  0  0  0  0  0  0  0
   -4.0482   -4.6358    1.8989 H   0  0  0  0  0  0  0  0  0  0  0  0
   -5.4349   -2.6539   -2.7839 H   0  0  0  0  0  0  0  0  0  0  0  0
   -4.6178   -1.3247   -4.6957 H   0  0  0  0  0  0  0  0  0  0  0  0
   -2.7730    0.2692   -4.3710 H   0  0  0  0  0  0  0  0  0  0  0  0
   -1.7419    0.5096   -2.1569 H   0  0  0  0  0  0  0  0  0  0  0  0
    0.3026   -0.6003   -0.2222 H   0  0  0  0  0  0  0  0  0  0  0  0
    0.7932    0.8188   -2.1419 H   0  0  0  0  0  0  0  0  0  0  0  0
    1.7382    0.6297   -4.3938 H   0  0  0  0  0  0  0  0  0  0  0  0
    4.1418    1.0099   -4.7507 H   0  0  0  0  0  0  0  0  0  0  0  0
    5.5800    1.6101   -2.8376 H   0  0  0  0  0  0  0  0  0  0  0  0
    6.0547    1.2648    2.3987 H   0  0  0  0  0  0  0  0  0  0  0  0
    4.9720    0.3848    4.4340 H   0  0  0  0  0  0  0  0  0  0  0  0
    2.5417    0.0071    4.4543 H   0  0  0  0  0  0  0  0  0  0  0  0
    1.2149    0.4847    2.4462 H   0  0  0  0  0  0  0  0  0  0  0  0
    0.6502    3.5050    0.8313 H   0  0  0  0  0  0  0  0  0  0  0  0
  1  2  3  0  0  0  0
  2  3  1  0  0  0  0
  3  4  2  0  0  0  0
  4  5  1  0  0  0  0
  5  6  1  0  0  0  0
  6  7  1  0  0  0  0
  7  8  2  0  0  0  0
  8  9  1  0  0  0  0
  9 10  2  0  0  0  0
 10 11  1  0  0  0  0
 11 12  2  0  0  0  0
 12 13  1  0  0  0  0
 13 14  1  0  0  0  0
 14 15  2  0  0  0  0
 15 16  1  0  0  0  0
 16 17  2  0  0  0  0
 17 18  1  0  0  0  0
 18 19  2  0  0  0  0
  5 20  2  0  0  0  0
 20 21  1  0  0  0  0
 21 22  1  0  0  0  0
 22 23  1  0  0  0  0
 23 24  2  0  0  0  0
 24 25  1  0  0  0  0
 25 26  2  0  0  0  0
 26 27  1  0  0  0  0
 27 28  2  0  0  0  0
 28 29  1  0  0  0  0
 29 30  1  0  0  0  0
 30 31  2  0  0  0  0
 31 32  1  0  0  0  0
 32 33  2  0  0  0  0
 33 34  1  0  0  0  0
 34 35  2  0  0  0  0
 21 36  2  0  0  0  0
 36  3  1  0  0  0  0
 19  6  1  0  0  0  0
 35 22  1  0  0  0  0
 12  7  1  0  0  0  0
 19 14  1  0  0  0  0
 28 23  1  0  0  0  0
 35 30  1  0  0  0  0
  4 37  1  0  0  0  0
  8 38  1  0  0  0  0
  9 39  1  0  0  0  0
 10 40  1  0  0  0  0
 11 41  1  0  0  0  0
 15 42  1  0  0  0  0
 16 43  1  0  0  0  0
 17 44  1  0  0  0  0
 18 45  1  0  0  0  0
 20 46  1  0  0  0  0
 24 47  1  0  0  0  0
 25 48  1  0  0  0  0
 26 49  1  0  0  0  0
 27 50  1  0  0  0  0
 31 51  1  0  0  0  0
 32 52  1  0  0  0  0
 33 53  1  0  0  0  0
 34 54  1  0  0  0  0
 36 55  1  0  0  0  0
M  END
