
  xtb     03012221323D
 energy: -16.544777913479 gnorm: 0.000222726260 xtb: 6.4.1 (afa7bdf)
 85 92  0     0  0            999 V2000
    8.5380    2.9577    0.2662 C   0  0  0  0  0  0  0  0  0  0  0  0
    7.7815    2.0944   -0.7604 C   0  0  0  0  0  0  0  0  0  0  0  0
    6.4628    2.8079   -1.1173 C   0  0  0  0  0  0  0  0  0  0  0  0
    8.6214    1.9561   -2.0437 C   0  0  0  0  0  0  0  0  0  0  0  0
    7.5309    0.7003   -0.1646 C   0  0  0  0  0  0  0  0  0  0  0  0
    8.6284   -0.0926    0.2184 C   0  0  0  0  0  0  0  0  0  0  0  0
    8.4773   -1.3437    0.7593 C   0  0  0  0  0  0  0  0  0  0  0  0
    7.1926   -1.8578    0.9408 C   0  0  0  0  0  0  0  0  0  0  0  0
    6.7722   -3.0709    1.4597 O   0  0  0  0  0  0  0  0  0  0  0  0
    5.3868   -3.0834    1.4229 C   0  0  0  0  0  0  0  0  0  0  0  0
    4.5854   -4.0683    1.8368 N   0  0  0  0  0  0  0  0  0  0  0  0
    3.2808   -3.8207    1.6936 C   0  0  0  0  0  0  0  0  0  0  0  0
    2.2367   -4.6598    2.0477 O   0  0  0  0  0  0  0  0  0  0  0  0
    1.0540   -4.0097    1.7370 C   0  0  0  0  0  0  0  0  0  0  0  0
   -0.2748   -4.4104    1.9043 C   0  0  0  0  0  0  0  0  0  0  0  0
   -1.2805   -3.5658    1.5184 C   0  0  0  0  0  0  0  0  0  0  0  0
   -1.0125   -2.3062    0.9534 C   0  0  0  0  0  0  0  0  0  0  0  0
   -2.0936   -1.4371    0.5725 N   0  0  0  0  0  0  0  0  0  0  0  0
   -2.2368   -0.0860    0.9485 C   0  0  0  0  0  0  0  0  0  0  0  0
   -1.4484    0.7332    1.7525 C   0  0  0  0  0  0  0  0  0  0  0  0
   -1.8379    2.0338    1.9561 C   0  0  0  0  0  0  0  0  0  0  0  0
   -3.0087    2.5652    1.3812 C   0  0  0  0  0  0  0  0  0  0  0  0
   -3.4428    4.0207    1.6126 C   0  0  0  0  0  0  0  0  0  0  0  0
   -3.5462    4.7439    0.2571 C   0  0  0  0  0  0  0  0  0  0  0  0
   -2.4381    4.7873    2.4939 C   0  0  0  0  0  0  0  0  0  0  0  0
   -4.8135    4.0361    2.3134 C   0  0  0  0  0  0  0  0  0  0  0  0
   -3.7919    1.7450    0.5911 C   0  0  0  0  0  0  0  0  0  0  0  0
   -3.4119    0.4199    0.3724 C   0  0  0  0  0  0  0  0  0  0  0  0
   -4.0162   -0.6512   -0.3828 C   0  0  0  0  0  0  0  0  0  0  0  0
   -5.1802   -0.7151   -1.1508 C   0  0  0  0  0  0  0  0  0  0  0  0
   -5.5196   -1.8960   -1.7853 C   0  0  0  0  0  0  0  0  0  0  0  0
   -6.7899   -2.0276   -2.6395 C   0  0  0  0  0  0  0  0  0  0  0  0
   -7.6969   -3.1173   -2.0391 C   0  0  0  0  0  0  0  0  0  0  0  0
   -6.4006   -2.4116   -4.0787 C   0  0  0  0  0  0  0  0  0  0  0  0
   -7.5848   -0.7085   -2.6887 C   0  0  0  0  0  0  0  0  0  0  0  0
   -4.6714   -3.0100   -1.6406 C   0  0  0  0  0  0  0  0  0  0  0  0
   -3.5234   -2.9662   -0.8896 C   0  0  0  0  0  0  0  0  0  0  0  0
   -3.1897   -1.7775   -0.2461 C   0  0  0  0  0  0  0  0  0  0  0  0
    0.2951   -1.8999    0.7793 C   0  0  0  0  0  0  0  0  0  0  0  0
    1.3255   -2.7486    1.1729 C   0  0  0  0  0  0  0  0  0  0  0  0
    2.7499   -2.6195    1.1432 C   0  0  0  0  0  0  0  0  0  0  0  0
    3.5775   -1.6012    0.7150 C   0  0  0  0  0  0  0  0  0  0  0  0
    4.9266   -1.8542    0.8658 C   0  0  0  0  0  0  0  0  0  0  0  0
    6.0889   -1.0757    0.5611 C   0  0  0  0  0  0  0  0  0  0  0  0
    6.2577    0.1950    0.0118 C   0  0  0  0  0  0  0  0  0  0  0  0
    9.5063    2.5244    0.5115 H   0  0  0  0  0  0  0  0  0  0  0  0
    7.9669    3.0452    1.1897 H   0  0  0  0  0  0  0  0  0  0  0  0
    8.7106    3.9614   -0.1204 H   0  0  0  0  0  0  0  0  0  0  0  0
    5.8390    2.9435   -0.2346 H   0  0  0  0  0  0  0  0  0  0  0  0
    5.8984    2.2415   -1.8572 H   0  0  0  0  0  0  0  0  0  0  0  0
    6.6586    3.7942   -1.5368 H   0  0  0  0  0  0  0  0  0  0  0  0
    9.5912    1.5066   -1.8363 H   0  0  0  0  0  0  0  0  0  0  0  0
    8.7967    2.9290   -2.5014 H   0  0  0  0  0  0  0  0  0  0  0  0
    8.1101    1.3275   -2.7717 H   0  0  0  0  0  0  0  0  0  0  0  0
    9.6214    0.2982    0.0822 H   0  0  0  0  0  0  0  0  0  0  0  0
    9.3243   -1.9393    1.0488 H   0  0  0  0  0  0  0  0  0  0  0  0
   -0.4817   -5.3715    2.3387 H   0  0  0  0  0  0  0  0  0  0  0  0
   -2.3090   -3.8535    1.6565 H   0  0  0  0  0  0  0  0  0  0  0  0
   -0.5571    0.3375    2.2052 H   0  0  0  0  0  0  0  0  0  0  0  0
   -1.2236    2.6609    2.5783 H   0  0  0  0  0  0  0  0  0  0  0  0
   -4.2912    4.2774   -0.3857 H   0  0  0  0  0  0  0  0  0  0  0  0
   -3.8303    5.7870    0.3925 H   0  0  0  0  0  0  0  0  0  0  0  0
   -2.5905    4.7196   -0.2655 H   0  0  0  0  0  0  0  0  0  0  0  0
   -2.7604    5.8180    2.6395 H   0  0  0  0  0  0  0  0  0  0  0  0
   -2.3498    4.3291    3.4784 H   0  0  0  0  0  0  0  0  0  0  0  0
   -1.4515    4.8130    2.0325 H   0  0  0  0  0  0  0  0  0  0  0  0
   -5.1413    5.0571    2.5066 H   0  0  0  0  0  0  0  0  0  0  0  0
   -4.7635    3.5112    3.2668 H   0  0  0  0  0  0  0  0  0  0  0  0
   -5.5748    3.5512    1.7042 H   0  0  0  0  0  0  0  0  0  0  0  0
   -4.6957    2.1126    0.1409 H   0  0  0  0  0  0  0  0  0  0  0  0
   -5.7933    0.1625   -1.2339 H   0  0  0  0  0  0  0  0  0  0  0  0
   -7.9668   -2.8704   -1.0129 H   0  0  0  0  0  0  0  0  0  0  0  0
   -8.6163   -3.2198   -2.6147 H   0  0  0  0  0  0  0  0  0  0  0  0
   -7.2001   -4.0862   -2.0303 H   0  0  0  0  0  0  0  0  0  0  0  0
   -5.8832   -3.3693   -4.1081 H   0  0  0  0  0  0  0  0  0  0  0  0
   -5.7399   -1.6611   -4.5114 H   0  0  0  0  0  0  0  0  0  0  0  0
   -7.2828   -2.4906   -4.7132 H   0  0  0  0  0  0  0  0  0  0  0  0
   -8.4806   -0.8199   -3.2990 H   0  0  0  0  0  0  0  0  0  0  0  0
   -7.9018   -0.4039   -1.6918 H   0  0  0  0  0  0  0  0  0  0  0  0
   -6.9881    0.0929   -3.1231 H   0  0  0  0  0  0  0  0  0  0  0  0
   -4.9330   -3.9289   -2.1374 H   0  0  0  0  0  0  0  0  0  0  0  0
   -2.8806   -3.8229   -0.7963 H   0  0  0  0  0  0  0  0  0  0  0  0
    0.5141   -0.9437    0.3407 H   0  0  0  0  0  0  0  0  0  0  0  0
    3.2021   -0.6842    0.3010 H   0  0  0  0  0  0  0  0  0  0  0  0
    5.3870    0.7592   -0.2639 H   0  0  0  0  0  0  0  0  0  0  0  0
  1  2  1  0  0  0  0
  2  3  1  0  0  0  0
  2  4  1  0  0  0  0
  2  5  1  0  0  0  0
  5  6  2  0  0  0  0
  6  7  1  0  0  0  0
  7  8  2  0  0  0  0
  8  9  1  0  0  0  0
  9 10  1  0  0  0  0
 10 11  2  0  0  0  0
 11 12  1  0  0  0  0
 12 13  1  0  0  0  0
 13 14  1  0  0  0  0
 14 15  2  0  0  0  0
 15 16  1  0  0  0  0
 16 17  2  0  0  0  0
 17 18  1  0  0  0  0
 18 19  1  0  0  0  0
 19 20  2  0  0  0  0
 20 21  1  0  0  0  0
 21 22  2  0  0  0  0
 22 23  1  0  0  0  0
 23 24  1  0  0  0  0
 23 25  1  0  0  0  0
 23 26  1  0  0  0  0
 22 27  1  0  0  0  0
 27 28  2  0  0  0  0
 28 29  1  0  0  0  0
 29 30  2  0  0  0  0
 30 31  1  0  0  0  0
 31 32  1  0  0  0  0
 32 33  1  0  0  0  0
 32 34  1  0  0  0  0
 32 35  1  0  0  0  0
 31 36  2  0  0  0  0
 36 37  1  0  0  0  0
 37 38  2  0  0  0  0
 17 39  1  0  0  0  0
 39 40  2  0  0  0  0
 40 41  1  0  0  0  0
 41 42  1  0  0  0  0
 42 43  2  0  0  0  0
 43 44  1  0  0  0  0
 44 45  2  0  0  0  0
 45  5  1  0  0  0  0
 44  8  1  0  0  0  0
 43 10  1  0  0  0  0
 41 12  2  0  0  0  0
 40 14  1  0  0  0  0
 38 18  1  0  0  0  0
 28 19  1  0  0  0  0
 38 29  1  0  0  0  0
  1 46  1  0  0  0  0
  1 47  1  0  0  0  0
  1 48  1  0  0  0  0
  3 49  1  0  0  0  0
  3 50  1  0  0  0  0
  3 51  1  0  0  0  0
  4 52  1  0  0  0  0
  4 53  1  0  0  0  0
  4 54  1  0  0  0  0
  6 55  1  0  0  0  0
  7 56  1  0  0  0  0
 15 57  1  0  0  0  0
 16 58  1  0  0  0  0
 20 59  1  0  0  0  0
 21 60  1  0  0  0  0
 24 61  1  0  0  0  0
 24 62  1  0  0  0  0
 24 63  1  0  0  0  0
 25 64  1  0  0  0  0
 25 65  1  0  0  0  0
 25 66  1  0  0  0  0
 26 67  1  0  0  0  0
 26 68  1  0  0  0  0
 26 69  1  0  0  0  0
 27 70  1  0  0  0  0
 30 71  1  0  0  0  0
 33 72  1  0  0  0  0
 33 73  1  0  0  0  0
 33 74  1  0  0  0  0
 34 75  1  0  0  0  0
 34 76  1  0  0  0  0
 34 77  1  0  0  0  0
 35 78  1  0  0  0  0
 35 79  1  0  0  0  0
 35 80  1  0  0  0  0
 36 81  1  0  0  0  0
 37 82  1  0  0  0  0
 39 83  1  0  0  0  0
 42 84  1  0  0  0  0
 45 85  1  0  0  0  0
M  END
