
  xtb     03012221203D
 energy: -3.259925729022 gnorm: 0.000179382028 xtb: 6.4.1 (afa7bdf)
 18 18  0     0  0            999 V2000
   -1.4012    1.5690    0.0696 C   0  0  0  0  0  0  0  0  0  0  0  0
   -0.1808    0.7132    0.0233 C   0  0  0  0  0  0  0  0  0  0  0  0
    1.0754    1.3043   -0.0124 C   0  0  0  0  0  0  0  0  0  0  0  0
    2.2214    0.5390   -0.0633 C   0  0  0  0  0  0  0  0  0  0  0  0
    2.1272   -0.8352   -0.0809 C   0  0  0  0  0  0  0  0  0  0  0  0
    0.8872   -1.4378   -0.0529 C   0  0  0  0  0  0  0  0  0  0  0  0
   -0.2770   -0.6819   -0.0097 C   0  0  0  0  0  0  0  0  0  0  0  0
   -1.6023   -1.3644    0.0299 C   0  0  0  0  0  0  0  0  0  0  0  0
   -2.1110    1.2032    0.8128 H   0  0  0  0  0  0  0  0  0  0  0  0
   -1.9020    1.5846   -0.8996 H   0  0  0  0  0  0  0  0  0  0  0  0
   -1.1540    2.5987    0.3324 H   0  0  0  0  0  0  0  0  0  0  0  0
    1.1489    2.3787    0.0006 H   0  0  0  0  0  0  0  0  0  0  0  0
    3.1884    1.0149   -0.0884 H   0  0  0  0  0  0  0  0  0  0  0  0
    3.0201   -1.4381   -0.1172 H   0  0  0  0  0  0  0  0  0  0  0  0
    0.8132   -2.5122   -0.0644 H   0  0  0  0  0  0  0  0  0  0  0  0
   -2.0267   -1.3309    1.0344 H   0  0  0  0  0  0  0  0  0  0  0  0
   -1.5174   -2.4126   -0.2604 H   0  0  0  0  0  0  0  0  0  0  0  0
   -2.3092   -0.8926   -0.6539 H   0  0  0  0  0  0  0  0  0  0  0  0
  1  2  1  0  0  0  0
  2  3  2  0  0  0  0
  3  4  1  0  0  0  0
  4  5  2  0  0  0  0
  5  6  1  0  0  0  0
  6  7  2  0  0  0  0
  7  8  1  0  0  0  0
  7  2  1  0  0  0  0
  1  9  1  0  0  0  0
  1 10  1  0  0  0  0
  1 11  1  0  0  0  0
  3 12  1  0  0  0  0
  4 13  1  0  0  0  0
  5 14  1  0  0  0  0
  6 15  1  0  0  0  0
  8 16  1  0  0  0  0
  8 17  1  0  0  0  0
  8 18  1  0  0  0  0
M  END
