
  xtb     03012221263D
 energy: -8.792449472905 gnorm: 0.000278391100 xtb: 6.4.1 (afa7bdf)
 43 46  0     0  0            999 V2000
    0.7637   -4.6667   -0.0190 C   0  0  0  0  0  0  0  0  0  0  0  0
   -0.3419   -3.7305   -0.0513 N   0  0  0  0  0  0  0  0  0  0  0  0
   -1.6342   -4.2501   -0.0915 C   0  0  0  0  0  0  0  0  0  0  0  0
   -1.8221   -5.4665   -0.0960 O   0  0  0  0  0  0  0  0  0  0  0  0
   -2.7316   -3.3306   -0.1306 C   0  0  0  0  0  0  0  0  0  0  0  0
   -2.5480   -1.9806   -0.1205 C   0  0  0  0  0  0  0  0  0  0  0  0
   -3.7399   -1.1120   -0.1906 C   0  0  0  0  0  0  0  0  0  0  0  0
   -4.8381   -1.6076   -0.3439 O   0  0  0  0  0  0  0  0  0  0  0  0
   -3.6062    0.3687   -0.0824 C   0  0  0  0  0  0  0  0  0  0  0  0
   -3.5241    0.9838    1.1584 C   0  0  0  0  0  0  0  0  0  0  0  0
   -3.4369    2.3532    1.2516 C   0  0  0  0  0  0  0  0  0  0  0  0
   -3.4410    3.1250    0.1093 C   0  0  0  0  0  0  0  0  0  0  0  0
   -3.5403    2.5247   -1.1277 C   0  0  0  0  0  0  0  0  0  0  0  0
   -3.6276    1.1556   -1.2242 C   0  0  0  0  0  0  0  0  0  0  0  0
   -1.2191   -1.4823   -0.0769 C   0  0  0  0  0  0  0  0  0  0  0  0
   -0.6369    0.1598   -0.0593 S   0  0  0  0  0  0  0  0  0  0  0  0
    1.0375   -0.3211   -0.0449 C   0  0  0  0  0  0  0  0  0  0  0  0
    2.1363    0.6340   -0.0437 C   0  0  0  0  0  0  0  0  0  0  0  0
    3.4691    0.2261   -0.0223 C   0  0  0  0  0  0  0  0  0  0  0  0
    4.4861    1.1522   -0.0227 C   0  0  0  0  0  0  0  0  0  0  0  0
    4.2008    2.5018   -0.0469 C   0  0  0  0  0  0  0  0  0  0  0  0
    5.3170    3.5301   -0.0318 C   0  0  0  0  0  0  0  0  0  0  0  0
    5.0609    4.4566   -0.9772 F   0  0  0  0  0  0  0  0  0  0  0  0
    6.4895    2.9154   -0.2866 F   0  0  0  0  0  0  0  0  0  0  0  0
    5.3476    4.1065    1.1864 F   0  0  0  0  0  0  0  0  0  0  0  0
    2.8882    2.9226   -0.0645 C   0  0  0  0  0  0  0  0  0  0  0  0
    1.8685    2.0011   -0.0642 C   0  0  0  0  0  0  0  0  0  0  0  0
    1.1252   -1.6798   -0.0327 C   0  0  0  0  0  0  0  0  0  0  0  0
   -0.1370   -2.3429   -0.0485 C   0  0  0  0  0  0  0  0  0  0  0  0
    1.3901   -4.5381   -0.8988 H   0  0  0  0  0  0  0  0  0  0  0  0
    1.3584   -4.5146    0.8790 H   0  0  0  0  0  0  0  0  0  0  0  0
    0.3701   -5.6825   -0.0126 H   0  0  0  0  0  0  0  0  0  0  0  0
   -3.7311   -3.7248   -0.1790 H   0  0  0  0  0  0  0  0  0  0  0  0
   -3.5351    0.3736    2.0447 H   0  0  0  0  0  0  0  0  0  0  0  0
   -3.3692    2.8234    2.2190 H   0  0  0  0  0  0  0  0  0  0  0  0
   -3.3753    4.1989    0.1838 H   0  0  0  0  0  0  0  0  0  0  0  0
   -3.5557    3.1287   -2.0201 H   0  0  0  0  0  0  0  0  0  0  0  0
   -3.7233    0.6770   -2.1834 H   0  0  0  0  0  0  0  0  0  0  0  0
    3.7045   -0.8238   -0.0047 H   0  0  0  0  0  0  0  0  0  0  0  0
    5.5176    0.8430   -0.0065 H   0  0  0  0  0  0  0  0  0  0  0  0
    2.6824    3.9796   -0.0808 H   0  0  0  0  0  0  0  0  0  0  0  0
    0.8434    2.3303   -0.0799 H   0  0  0  0  0  0  0  0  0  0  0  0
    2.0575   -2.2170   -0.0207 H   0  0  0  0  0  0  0  0  0  0  0  0
  1  2  1  0  0  0  0
  2  3  1  0  0  0  0
  3  4  2  0  0  0  0
  3  5  1  0  0  0  0
  5  6  2  0  0  0  0
  6  7  1  0  0  0  0
  7  8  2  0  0  0  0
  7  9  1  0  0  0  0
  9 10  2  0  0  0  0
 10 11  1  0  0  0  0
 11 12  2  0  0  0  0
 12 13  1  0  0  0  0
 13 14  2  0  0  0  0
  6 15  1  0  0  0  0
 15 16  1  0  0  0  0
 16 17  1  0  0  0  0
 17 18  1  0  0  0  0
 18 19  2  0  0  0  0
 19 20  1  0  0  0  0
 20 21  2  0  0  0  0
 21 22  1  0  0  0  0
 22 23  1  0  0  0  0
 22 24  1  0  0  0  0
 22 25  1  0  0  0  0
 21 26  1  0  0  0  0
 26 27  2  0  0  0  0
 17 28  2  0  0  0  0
 28 29  1  0  0  0  0
 29  2  1  0  0  0  0
 14  9  1  0  0  0  0
 29 15  2  0  0  0  0
 27 18  1  0  0  0  0
  1 30  1  0  0  0  0
  1 31  1  0  0  0  0
  1 32  1  0  0  0  0
  5 33  1  0  0  0  0
 10 34  1  0  0  0  0
 11 35  1  0  0  0  0
 12 36  1  0  0  0  0
 13 37  1  0  0  0  0
 14 38  1  0  0  0  0
 19 39  1  0  0  0  0
 20 40  1  0  0  0  0
 26 41  1  0  0  0  0
 27 42  1  0  0  0  0
 28 43  1  0  0  0  0
M  END
