
  xtb     03012221303D
 energy: -5.918362722091 gnorm: 0.000174477229 xtb: 6.4.1 (afa7bdf)
 28 30  0     0  0            999 V2000
    7.1315    0.2397    0.1874 O   0  0  0  0  0  0  0  0  0  0  0  0
    6.3114   -0.5978   -0.2081 N   0  0  0  0  0  4  0  0  0  0  0  0
    6.6394   -1.6737   -0.7233 O   0  0  0  0  0  1  0  0  0  0  0  0
    4.8902   -0.3037   -0.0603 C   0  0  0  0  0  0  0  0  0  0  0  0
    4.4858    0.9046    0.5079 C   0  0  0  0  0  0  0  0  0  0  0  0
    3.1583    1.2036    0.6558 C   0  0  0  0  0  0  0  0  0  0  0  0
    2.1939    0.2783    0.2292 C   0  0  0  0  0  0  0  0  0  0  0  0
    0.8297    0.4504    0.3160 N   0  0  0  0  0  0  0  0  0  0  0  0
    0.1788   -0.5712   -0.1564 C   0  0  0  0  0  0  0  0  0  0  0  0
   -1.1760   -0.6437   -0.1847 N   0  0  0  0  0  0  0  0  0  0  0  0
   -1.8424    0.3156    0.2330 N   0  0  0  0  0  0  0  0  0  0  0  0
   -3.2183    0.2668    0.2294 C   0  0  0  0  0  0  0  0  0  0  0  0
   -3.8864   -0.8699   -0.2130 C   0  0  0  0  0  0  0  0  0  0  0  0
   -5.2613   -0.9202   -0.2131 C   0  0  0  0  0  0  0  0  0  0  0  0
   -5.9990    0.1651    0.2281 C   0  0  0  0  0  0  0  0  0  0  0  0
   -5.3579    1.2999    0.6691 C   0  0  0  0  0  0  0  0  0  0  0  0
   -3.9753    1.3596    0.6737 C   0  0  0  0  0  0  0  0  0  0  0  0
   -3.1817    2.7790    1.2242 Cl  0  0  0  0  0  0  0  0  0  0  0  0
    1.2150   -1.8661   -0.7627 S   0  0  0  0  0  0  0  0  0  0  0  0
    2.6115   -0.9327   -0.3380 C   0  0  0  0  0  0  0  0  0  0  0  0
    3.9563   -1.2215   -0.4831 C   0  0  0  0  0  0  0  0  0  0  0  0
    5.2462    1.5976    0.8277 H   0  0  0  0  0  0  0  0  0  0  0  0
    2.8367    2.1326    1.0921 H   0  0  0  0  0  0  0  0  0  0  0  0
   -3.3030   -1.7071   -0.5528 H   0  0  0  0  0  0  0  0  0  0  0  0
   -5.7660   -1.8079   -0.5575 H   0  0  0  0  0  0  0  0  0  0  0  0
   -7.0754    0.1211    0.2262 H   0  0  0  0  0  0  0  0  0  0  0  0
   -5.9184    2.1523    1.0148 H   0  0  0  0  0  0  0  0  0  0  0  0
    4.2762   -2.1507   -0.9205 H   0  0  0  0  0  0  0  0  0  0  0  0
  1  2  2  0  0  0  0
  2  3  1  0  0  0  0
  2  4  1  0  0  0  0
  4  5  2  0  0  0  0
  5  6  1  0  0  0  0
  6  7  2  0  0  0  0
  7  8  1  0  0  0  0
  8  9  2  0  0  0  0
  9 10  1  0  0  0  0
 10 11  2  0  0  0  0
 11 12  1  0  0  0  0
 12 13  2  0  0  0  0
 13 14  1  0  0  0  0
 14 15  2  0  0  0  0
 15 16  1  0  0  0  0
 16 17  2  0  0  0  0
 17 18  1  0  0  0  0
  9 19  1  0  0  0  0
 19 20  1  0  0  0  0
 20 21  2  0  0  0  0
 21  4  1  0  0  0  0
 20  7  1  0  0  0  0
 17 12  1  0  0  0  0
  5 22  1  0  0  0  0
  6 23  1  0  0  0  0
 13 24  1  0  0  0  0
 14 25  1  0  0  0  0
 15 26  1  0  0  0  0
 16 27  1  0  0  0  0
 21 28  1  0  0  0  0
M  CHG  1   2   1
M  CHG  1   3  -1
M  END
