
  xtb     03012221263D
 energy: -9.195370351327 gnorm: 0.000469528849 xtb: 6.4.1 (afa7bdf)
 45 49  0     0  0            999 V2000
   -3.3655    2.4068   -1.6778 N   0  0  0  0  0  0  0  0  0  0  0  0
   -2.3042    2.2102   -1.2484 C   0  0  0  0  0  0  0  0  0  0  0  0
   -1.0333    2.0889   -0.6879 C   0  0  0  0  0  0  0  0  0  0  0  0
   -0.2861    0.9444   -0.4501 C   0  0  0  0  0  0  0  0  0  0  0  0
   -0.6958   -0.3941   -0.7254 N   0  0  0  0  0  0  0  0  0  0  0  0
    0.0574   -1.3129   -1.3668 N   0  0  0  0  0  0  0  0  0  0  0  0
   -0.5380   -2.4277   -1.4171 N   0  0  0  0  0  0  0  0  0  0  0  0
   -1.7599   -2.3036   -0.8173 C   0  0  0  0  0  0  0  0  0  0  0  0
   -2.7904   -3.2301   -0.6066 C   0  0  0  0  0  0  0  0  0  0  0  0
   -3.9180   -2.8145    0.0503 C   0  0  0  0  0  0  0  0  0  0  0  0
   -4.0469   -1.4917    0.5045 C   0  0  0  0  0  0  0  0  0  0  0  0
   -5.4838   -1.0132    1.3358 Cl  0  0  0  0  0  0  0  0  0  0  0  0
   -3.0458   -0.5712    0.3042 C   0  0  0  0  0  0  0  0  0  0  0  0
   -1.8972   -0.9903   -0.3623 C   0  0  0  0  0  0  0  0  0  0  0  0
    0.8947    1.3120    0.1708 N   0  0  0  0  0  0  0  0  0  0  0  0
    1.9562    0.4201    0.6577 C   0  0  0  0  0  0  0  0  0  0  0  0
    1.4067   -0.6570    1.6254 C   0  0  0  0  0  0  0  0  0  0  0  0
    1.7393   -1.9863    0.9341 C   0  0  0  0  0  0  0  0  0  0  0  0
    2.1310   -3.0204    1.8095 O   0  0  0  0  0  0  0  0  0  0  0  0
    2.8703   -1.6095   -0.0526 C   0  0  0  0  0  0  0  0  0  0  0  0
    2.9158   -2.5684   -1.2362 C   0  0  0  0  0  0  0  0  0  0  0  0
    3.1803   -3.8916   -0.8207 O   0  0  0  0  0  0  0  0  0  0  0  0
    2.6505   -0.2359   -0.4237 O   0  0  0  0  0  0  0  0  0  0  0  0
    0.9243    2.6943    0.3263 C   0  0  0  0  0  0  0  0  0  0  0  0
    1.8418    3.4819    0.8942 N   0  0  0  0  0  0  0  0  0  0  0  0
    1.5004    4.7464    0.8775 C   0  0  0  0  0  0  0  0  0  0  0  0
    0.4077    5.3540    0.4094 N   0  0  0  0  0  0  0  0  0  0  0  0
   -0.5074    4.5730   -0.1451 C   0  0  0  0  0  0  0  0  0  0  0  0
   -1.6816    5.0864   -0.6515 N   0  0  0  0  0  0  0  0  0  0  0  0
   -0.2637    3.1846   -0.2023 C   0  0  0  0  0  0  0  0  0  0  0  0
   -2.6798   -4.2401   -0.9606 H   0  0  0  0  0  0  0  0  0  0  0  0
   -4.7306   -3.4993    0.2282 H   0  0  0  0  0  0  0  0  0  0  0  0
   -3.1575    0.4443    0.6350 H   0  0  0  0  0  0  0  0  0  0  0  0
    2.7081    1.0519    1.1529 H   0  0  0  0  0  0  0  0  0  0  0  0
    1.8917   -0.6204    2.6047 H   0  0  0  0  0  0  0  0  0  0  0  0
    0.3315   -0.5315    1.7807 H   0  0  0  0  0  0  0  0  0  0  0  0
    0.8728   -2.3586    0.3710 H   0  0  0  0  0  0  0  0  0  0  0  0
    2.4500   -3.7777    1.2679 H   0  0  0  0  0  0  0  0  0  0  0  0
    3.8289   -1.6379    0.4834 H   0  0  0  0  0  0  0  0  0  0  0  0
    3.6600   -2.2512   -1.9774 H   0  0  0  0  0  0  0  0  0  0  0  0
    1.9456   -2.5750   -1.7463 H   0  0  0  0  0  0  0  0  0  0  0  0
    4.1101   -3.9759   -0.5125 H   0  0  0  0  0  0  0  0  0  0  0  0
    2.2249    5.4146    1.3238 H   0  0  0  0  0  0  0  0  0  0  0  0
   -1.9049    6.0677   -0.6062 H   0  0  0  0  0  0  0  0  0  0  0  0
   -2.4094    4.5046   -1.0525 H   0  0  0  0  0  0  0  0  0  0  0  0
  1  2  3  0  0  0  0
  2  3  1  0  0  0  0
  3  4  2  0  0  0  0
  4  5  1  0  0  0  0
  5  6  1  0  0  0  0
  6  7  2  0  0  0  0
  7  8  1  0  0  0  0
  8  9  2  0  0  0  0
  9 10  1  0  0  0  0
 10 11  2  0  0  0  0
 11 12  1  0  0  0  0
 11 13  1  0  0  0  0
 13 14  2  0  0  0  0
  4 15  1  0  0  0  0
 15 16  1  0  0  0  0
 16 17  1  0  0  0  0
 17 18  1  0  0  0  0
 18 19  1  0  0  0  0
 18 20  1  0  0  0  0
 20 21  1  0  0  0  0
 21 22  1  0  0  0  0
 20 23  1  0  0  0  0
 15 24  1  0  0  0  0
 24 25  2  0  0  0  0
 25 26  1  0  0  0  0
 26 27  2  0  0  0  0
 27 28  1  0  0  0  0
 28 29  1  0  0  0  0
 28 30  2  0  0  0  0
 30  3  1  0  0  0  0
 14  5  1  0  0  0  0
 23 16  1  0  0  0  0
 30 24  1  0  0  0  0
 14  8  1  0  0  0  0
  9 31  1  0  0  0  0
 10 32  1  0  0  0  0
 13 33  1  0  0  0  0
 16 34  1  0  0  0  0
 17 35  1  0  0  0  0
 17 36  1  0  0  0  0
 18 37  1  0  0  0  0
 19 38  1  0  0  0  0
 20 39  1  0  0  0  0
 21 40  1  0  0  0  0
 21 41  1  0  0  0  0
 22 42  1  0  0  0  0
 26 43  1  0  0  0  0
 29 44  1  0  0  0  0
 29 45  1  0  0  0  0
M  END
