
  xtb     03012221263D
 energy: -17.416988547551 gnorm: 0.000211454801 xtb: 6.4.1 (afa7bdf)
 91 98  0     0  0            999 V2000
   -6.5206   -1.4907    2.2660 C   0  0  0  0  0  0  0  0  0  0  0  0
   -7.9790   -1.3108    1.8853 C   0  0  0  0  0  0  0  0  0  0  0  0
   -8.2750   -1.7906    0.4644 C   0  0  0  0  0  0  0  0  0  0  0  0
   -9.7196   -1.5618    0.0144 C   0  0  0  0  0  0  0  0  0  0  0  0
  -10.1505   -0.0935   -0.0455 C   0  0  0  0  0  0  0  0  0  0  0  0
   -9.3773    0.7417   -1.0592 C   0  0  0  0  0  0  0  0  0  0  0  0
   -7.9825    0.9432   -0.7027 N   0  0  0  0  0  0  0  0  0  0  0  0
   -7.6892    1.6253    0.4843 C   0  0  0  0  0  0  0  0  0  0  0  0
   -8.5711    1.9756    1.2491 O   0  0  0  0  0  0  0  0  0  0  0  0
   -6.2797    1.8737    0.7991 C   0  0  0  0  0  0  0  0  0  0  0  0
   -5.9384    2.5045    1.9700 C   0  0  0  0  0  0  0  0  0  0  0  0
   -4.6068    2.7100    2.3000 C   0  0  0  0  0  0  0  0  0  0  0  0
   -3.6142    2.3032    1.4522 C   0  0  0  0  0  0  0  0  0  0  0  0
   -3.9017    1.6849    0.2238 C   0  0  0  0  0  0  0  0  0  0  0  0
   -2.8788    1.2392   -0.6902 C   0  0  0  0  0  0  0  0  0  0  0  0
   -1.4652    1.4890   -0.5214 C   0  0  0  0  0  0  0  0  0  0  0  0
   -0.2487    0.3617   -1.0857 S   0  0  0  0  0  0  0  0  0  0  0  0
    1.1093    1.3231   -0.5635 C   0  0  0  0  0  0  0  0  0  0  0  0
    2.4807    0.9465   -0.7291 C   0  0  0  0  0  0  0  0  0  0  0  0
    3.4919    1.7933   -0.2860 C   0  0  0  0  0  0  0  0  0  0  0  0
    4.8275    1.4834   -0.4326 C   0  0  0  0  0  0  0  0  0  0  0  0
    5.2200    0.3074   -1.0332 C   0  0  0  0  0  0  0  0  0  0  0  0
    4.2389   -0.6001   -1.5024 C   0  0  0  0  0  0  0  0  0  0  0  0
    4.6265   -1.8173   -2.1172 C   0  0  0  0  0  0  0  0  0  0  0  0
    3.6669   -2.6903   -2.5677 C   0  0  0  0  0  0  0  0  0  0  0  0
    2.3185   -2.3938   -2.4296 C   0  0  0  0  0  0  0  0  0  0  0  0
    1.9261   -1.2257   -1.8402 C   0  0  0  0  0  0  0  0  0  0  0  0
    2.8624   -0.2932   -1.3566 C   0  0  0  0  0  0  0  0  0  0  0  0
    6.0470   -2.1404   -2.2744 C   0  0  0  0  0  0  0  0  0  0  0  0
    6.4059   -3.1975   -2.7628 O   0  0  0  0  0  0  0  0  0  0  0  0
    6.9795   -1.1937   -1.8377 N   0  0  0  0  0  0  0  0  0  0  0  0
    8.3854   -1.4975   -2.0192 C   0  0  0  0  0  0  0  0  0  0  0  0
    8.8981   -2.4285   -0.9331 C   0  0  0  0  0  0  0  0  0  0  0  0
    8.7243   -1.8302    0.4605 C   0  0  0  0  0  0  0  0  0  0  0  0
    9.2170   -2.7346    1.5923 C   0  0  0  0  0  0  0  0  0  0  0  0
   10.7182   -3.0325    1.5517 C   0  0  0  0  0  0  0  0  0  0  0  0
   11.5807   -1.7884    1.6683 C   0  0  0  0  0  0  0  0  0  0  0  0
    6.6397   -0.0013   -1.1860 C   0  0  0  0  0  0  0  0  0  0  0  0
    7.5014    0.7447   -0.7508 O   0  0  0  0  0  0  0  0  0  0  0  0
    0.6269    2.4931   -0.0006 C   0  0  0  0  0  0  0  0  0  0  0  0
   -0.8185    2.5803    0.0395 C   0  0  0  0  0  0  0  0  0  0  0  0
   -1.4638    3.6903    0.5712 O   0  0  0  0  0  0  0  0  0  0  0  0
   -0.6007    4.5246    1.3251 C   0  0  0  0  0  0  0  0  0  0  0  0
    0.7280    4.7411    0.6100 C   0  0  0  0  0  0  0  0  0  0  0  0
    1.4361    3.5231    0.4678 O   0  0  0  0  0  0  0  0  0  0  0  0
   -3.2788    0.5025   -1.8042 C   0  0  0  0  0  0  0  0  0  0  0  0
   -4.6060    0.2596   -2.0888 C   0  0  0  0  0  0  0  0  0  0  0  0
   -5.6046    0.7278   -1.2638 C   0  0  0  0  0  0  0  0  0  0  0  0
   -5.2635    1.4379   -0.0875 C   0  0  0  0  0  0  0  0  0  0  0  0
   -7.0048    0.4618   -1.5838 C   0  0  0  0  0  0  0  0  0  0  0  0
   -7.3143   -0.1836   -2.5716 O   0  0  0  0  0  0  0  0  0  0  0  0
   -6.3141   -1.1395    3.2806 H   0  0  0  0  0  0  0  0  0  0  0  0
   -6.2239   -2.5408    2.2136 H   0  0  0  0  0  0  0  0  0  0  0  0
   -5.8648   -0.9375    1.5892 H   0  0  0  0  0  0  0  0  0  0  0  0
   -8.6271   -1.8432    2.5928 H   0  0  0  0  0  0  0  0  0  0  0  0
   -8.2573   -0.2551    1.9853 H   0  0  0  0  0  0  0  0  0  0  0  0
   -7.5956   -1.2938   -0.2341 H   0  0  0  0  0  0  0  0  0  0  0  0
   -8.0223   -2.8555    0.3878 H   0  0  0  0  0  0  0  0  0  0  0  0
  -10.3888   -2.1139    0.6859 H   0  0  0  0  0  0  0  0  0  0  0  0
   -9.8681   -2.0105   -0.9758 H   0  0  0  0  0  0  0  0  0  0  0  0
  -10.0412    0.3681    0.9418 H   0  0  0  0  0  0  0  0  0  0  0  0
  -11.2239   -0.0370   -0.2705 H   0  0  0  0  0  0  0  0  0  0  0  0
   -9.8230    1.7361   -1.1685 H   0  0  0  0  0  0  0  0  0  0  0  0
   -9.4073    0.2718   -2.0475 H   0  0  0  0  0  0  0  0  0  0  0  0
   -6.7262    2.8267    2.6303 H   0  0  0  0  0  0  0  0  0  0  0  0
   -4.3563    3.1947    3.2287 H   0  0  0  0  0  0  0  0  0  0  0  0
   -2.5875    2.4555    1.7277 H   0  0  0  0  0  0  0  0  0  0  0  0
    3.2143    2.7210    0.1796 H   0  0  0  0  0  0  0  0  0  0  0  0
    5.5900    2.1588   -0.0846 H   0  0  0  0  0  0  0  0  0  0  0  0
    3.9847   -3.6086   -3.0331 H   0  0  0  0  0  0  0  0  0  0  0  0
    1.5802   -3.0900   -2.7908 H   0  0  0  0  0  0  0  0  0  0  0  0
    0.8681   -1.0164   -1.7438 H   0  0  0  0  0  0  0  0  0  0  0  0
    8.5064   -1.9373   -3.0149 H   0  0  0  0  0  0  0  0  0  0  0  0
    8.9351   -0.5509   -2.0125 H   0  0  0  0  0  0  0  0  0  0  0  0
    9.9511   -2.6743   -1.1123 H   0  0  0  0  0  0  0  0  0  0  0  0
    8.3535   -3.3784   -0.9925 H   0  0  0  0  0  0  0  0  0  0  0  0
    9.2312   -0.8598    0.5037 H   0  0  0  0  0  0  0  0  0  0  0  0
    7.6637   -1.5899    0.6078 H   0  0  0  0  0  0  0  0  0  0  0  0
    8.6522   -3.6748    1.5667 H   0  0  0  0  0  0  0  0  0  0  0  0
    8.9725   -2.2773    2.5591 H   0  0  0  0  0  0  0  0  0  0  0  0
   10.9628   -3.5708    0.6280 H   0  0  0  0  0  0  0  0  0  0  0  0
   10.9744   -3.7323    2.3588 H   0  0  0  0  0  0  0  0  0  0  0  0
   12.6468   -2.0300    1.6974 H   0  0  0  0  0  0  0  0  0  0  0  0
   11.3470   -1.2292    2.5773 H   0  0  0  0  0  0  0  0  0  0  0  0
   11.4278   -1.1116    0.8248 H   0  0  0  0  0  0  0  0  0  0  0  0
   -1.1259    5.4675    1.5215 H   0  0  0  0  0  0  0  0  0  0  0  0
   -0.4357    4.0282    2.2878 H   0  0  0  0  0  0  0  0  0  0  0  0
    0.5564    5.1280   -0.4009 H   0  0  0  0  0  0  0  0  0  0  0  0
    1.3749    5.4540    1.1363 H   0  0  0  0  0  0  0  0  0  0  0  0
   -2.5195    0.1430   -2.4766 H   0  0  0  0  0  0  0  0  0  0  0  0
   -4.8876   -0.2918   -2.9693 H   0  0  0  0  0  0  0  0  0  0  0  0
  1  2  1  0  0  0  0
  2  3  1  0  0  0  0
  3  4  1  0  0  0  0
  4  5  1  0  0  0  0
  5  6  1  0  0  0  0
  6  7  1  0  0  0  0
  7  8  1  0  0  0  0
  8  9  2  0  0  0  0
  8 10  1  0  0  0  0
 10 11  1  0  0  0  0
 11 12  2  0  0  0  0
 12 13  1  0  0  0  0
 13 14  2  0  0  0  0
 14 15  1  0  0  0  0
 15 16  1  0  0  0  0
 16 17  1  0  0  0  0
 17 18  1  0  0  0  0
 18 19  1  0  0  0  0
 19 20  2  0  0  0  0
 20 21  1  0  0  0  0
 21 22  2  0  0  0  0
 22 23  1  0  0  0  0
 23 24  2  0  0  0  0
 24 25  1  0  0  0  0
 25 26  2  0  0  0  0
 26 27  1  0  0  0  0
 27 28  2  0  0  0  0
 24 29  1  0  0  0  0
 29 30  2  0  0  0  0
 29 31  1  0  0  0  0
 31 32  1  0  0  0  0
 32 33  1  0  0  0  0
 33 34  1  0  0  0  0
 34 35  1  0  0  0  0
 35 36  1  0  0  0  0
 36 37  1  0  0  0  0
 31 38  1  0  0  0  0
 38 39  2  0  0  0  0
 18 40  2  0  0  0  0
 40 41  1  0  0  0  0
 41 42  1  0  0  0  0
 42 43  1  0  0  0  0
 43 44  1  0  0  0  0
 44 45  1  0  0  0  0
 15 46  2  0  0  0  0
 46 47  1  0  0  0  0
 47 48  2  0  0  0  0
 48 49  1  0  0  0  0
 48 50  1  0  0  0  0
 50 51  2  0  0  0  0
 50  7  1  0  0  0  0
 49 10  2  0  0  0  0
 49 14  1  0  0  0  0
 41 16  2  0  0  0  0
 28 19  1  0  0  0  0
 45 40  1  0  0  0  0
 38 22  1  0  0  0  0
 28 23  1  0  0  0  0
  1 52  1  0  0  0  0
  1 53  1  0  0  0  0
  1 54  1  0  0  0  0
  2 55  1  0  0  0  0
  2 56  1  0  0  0  0
  3 57  1  0  0  0  0
  3 58  1  0  0  0  0
  4 59  1  0  0  0  0
  4 60  1  0  0  0  0
  5 61  1  0  0  0  0
  5 62  1  0  0  0  0
  6 63  1  0  0  0  0
  6 64  1  0  0  0  0
 11 65  1  0  0  0  0
 12 66  1  0  0  0  0
 13 67  1  0  0  0  0
 20 68  1  0  0  0  0
 21 69  1  0  0  0  0
 25 70  1  0  0  0  0
 26 71  1  0  0  0  0
 27 72  1  0  0  0  0
 32 73  1  0  0  0  0
 32 74  1  0  0  0  0
 33 75  1  0  0  0  0
 33 76  1  0  0  0  0
 34 77  1  0  0  0  0
 34 78  1  0  0  0  0
 35 79  1  0  0  0  0
 35 80  1  0  0  0  0
 36 81  1  0  0  0  0
 36 82  1  0  0  0  0
 37 83  1  0  0  0  0
 37 84  1  0  0  0  0
 37 85  1  0  0  0  0
 43 86  1  0  0  0  0
 43 87  1  0  0  0  0
 44 88  1  0  0  0  0
 44 89  1  0  0  0  0
 46 90  1  0  0  0  0
 47 91  1  0  0  0  0
M  END
