
  xtb     03012221283D
 energy: -6.682010849376 gnorm: 0.000398218434 xtb: 6.4.1 (afa7bdf)
 36 38  0     0  0            999 V2000
    4.2789    1.1841    1.1314 C   0  0  0  0  0  0  0  0  0  0  0  0
    3.4902    0.5092    0.0632 C   0  0  0  0  0  0  0  0  0  0  0  0
    4.0831    0.1536   -1.1413 C   0  0  0  0  0  0  0  0  0  0  0  0
    3.3647   -0.5071   -2.1103 C   0  0  0  0  0  0  0  0  0  0  0  0
    2.0260   -0.8395   -1.9133 C   0  0  0  0  0  0  0  0  0  0  0  0
    1.3480   -1.5229   -2.9016 O   0  0  0  0  0  0  0  0  0  0  0  0
    1.3999   -0.4671   -0.6980 C   0  0  0  0  0  0  0  0  0  0  0  0
   -0.0166   -0.7625   -0.4581 C   0  0  0  0  0  0  0  0  0  0  0  0
   -0.6591   -1.8041   -0.9688 N   0  0  0  0  0  0  0  0  0  0  0  0
   -1.9365   -1.7266   -0.5463 C   0  0  0  0  0  0  0  0  0  0  0  0
   -2.9983   -2.6904   -0.9206 C   0  0  0  0  0  0  0  0  0  0  0  0
   -2.1135   -0.5893    0.2271 C   0  0  0  0  0  0  0  0  0  0  0  0
   -0.8938    0.0260    0.2919 N   0  0  0  0  0  0  0  0  0  0  0  0
   -0.6863    1.3653    0.8809 C   0  0  0  0  0  0  0  0  0  0  0  0
   -2.0149    2.1129    1.0386 C   0  0  0  0  0  0  0  0  0  0  0  0
   -3.0955    1.2167    1.6712 C   0  0  0  0  0  0  0  0  0  0  0  0
   -3.3659   -0.0478    0.8319 C   0  0  0  0  0  0  0  0  0  0  0  0
    2.1593    0.1840    0.2681 C   0  0  0  0  0  0  0  0  0  0  0  0
    5.0876    1.7797    0.7069 H   0  0  0  0  0  0  0  0  0  0  0  0
    4.7198    0.4513    1.8077 H   0  0  0  0  0  0  0  0  0  0  0  0
    3.6507    1.8522    1.7214 H   0  0  0  0  0  0  0  0  0  0  0  0
    5.1193    0.3928   -1.3073 H   0  0  0  0  0  0  0  0  0  0  0  0
    3.8258   -0.7907   -3.0394 H   0  0  0  0  0  0  0  0  0  0  0  0
    0.4667   -1.7577   -2.5394 H   0  0  0  0  0  0  0  0  0  0  0  0
   -2.5663   -3.5528   -1.4282 H   0  0  0  0  0  0  0  0  0  0  0  0
   -3.7214   -2.2286   -1.5933 H   0  0  0  0  0  0  0  0  0  0  0  0
   -3.5298   -3.0477   -0.0382 H   0  0  0  0  0  0  0  0  0  0  0  0
   -0.2049    1.2407    1.8552 H   0  0  0  0  0  0  0  0  0  0  0  0
    0.0111    1.9194    0.2436 H   0  0  0  0  0  0  0  0  0  0  0  0
   -2.3581    2.4453    0.0518 H   0  0  0  0  0  0  0  0  0  0  0  0
   -1.8768    3.0297    1.6275 H   0  0  0  0  0  0  0  0  0  0  0  0
   -4.0237    1.7836    1.8253 H   0  0  0  0  0  0  0  0  0  0  0  0
   -2.7661    0.9195    2.6742 H   0  0  0  0  0  0  0  0  0  0  0  0
   -4.0772    0.1774    0.0295 H   0  0  0  0  0  0  0  0  0  0  0  0
   -3.8363   -0.8280    1.4420 H   0  0  0  0  0  0  0  0  0  0  0  0
    1.7095    0.4195    1.2144 H   0  0  0  0  0  0  0  0  0  0  0  0
  1  2  1  0  0  0  0
  2  3  2  0  0  0  0
  3  4  1  0  0  0  0
  4  5  2  0  0  0  0
  5  6  1  0  0  0  0
  5  7  1  0  0  0  0
  7  8  1  0  0  0  0
  8  9  2  0  0  0  0
  9 10  1  0  0  0  0
 10 11  1  0  0  0  0
 10 12  2  0  0  0  0
 12 13  1  0  0  0  0
 13 14  1  0  0  0  0
 14 15  1  0  0  0  0
 15 16  1  0  0  0  0
 16 17  1  0  0  0  0
  7 18  2  0  0  0  0
 18  2  1  0  0  0  0
 13  8  1  0  0  0  0
 17 12  1  0  0  0  0
  1 19  1  0  0  0  0
  1 20  1  0  0  0  0
  1 21  1  0  0  0  0
  3 22  1  0  0  0  0
  4 23  1  0  0  0  0
  6 24  1  0  0  0  0
 11 25  1  0  0  0  0
 11 26  1  0  0  0  0
 11 27  1  0  0  0  0
 14 28  1  0  0  0  0
 14 29  1  0  0  0  0
 15 30  1  0  0  0  0
 15 31  1  0  0  0  0
 16 32  1  0  0  0  0
 16 33  1  0  0  0  0
 17 34  1  0  0  0  0
 17 35  1  0  0  0  0
 18 36  1  0  0  0  0
M  END
