
  xtb     03012221323D
 energy: -7.649675139280 gnorm: 0.000545714102 xtb: 6.4.1 (afa7bdf)
 35 38  0     0  0            999 V2000
   -0.6387    1.3080    0.7140 N   0  0  0  0  0  0  0  0  0  0  0  0
   -0.8119    0.1162    0.1054 C   0  0  0  0  0  0  0  0  0  0  0  0
    0.3249   -0.5844   -0.3120 C   0  0  0  0  0  0  0  0  0  0  0  0
    1.5400   -0.0164   -0.0921 N   0  0  0  0  0  0  0  0  0  0  0  0
    2.6115   -0.5699   -0.3744 N   0  0  0  0  0  0  0  0  0  0  0  0
    3.8338    0.0168   -0.1515 C   0  0  0  0  0  0  0  0  0  0  0  0
    4.9843   -0.6373   -0.5853 C   0  0  0  0  0  0  0  0  0  0  0  0
    6.2287   -0.0830   -0.3892 C   0  0  0  0  0  0  0  0  0  0  0  0
    6.3485    1.1372    0.2461 C   0  0  0  0  0  0  0  0  0  0  0  0
    5.2250    1.8024    0.6864 C   0  0  0  0  0  0  0  0  0  0  0  0
    3.9716    1.2556    0.4952 C   0  0  0  0  0  0  0  0  0  0  0  0
    2.5945    2.1107    1.0737 Cl  0  0  0  0  0  0  0  0  0  0  0  0
    0.2088   -1.8786   -0.9484 C   0  0  0  0  0  0  0  0  0  0  0  0
    1.1913   -2.5062   -1.3234 O   0  0  0  0  0  0  0  0  0  0  0  0
   -1.0667   -2.3915   -1.1223 N   0  0  0  0  0  0  0  0  0  0  0  0
   -2.1984   -1.6991   -0.7195 C   0  0  0  0  0  0  0  0  0  0  0  0
   -3.4500   -2.0848   -0.8541 N   0  0  0  0  0  0  0  0  0  0  0  0
   -4.2125   -1.0813   -0.3349 C   0  0  0  0  0  0  0  0  0  0  0  0
   -5.6057   -0.9798   -0.2351 C   0  0  0  0  0  0  0  0  0  0  0  0
   -6.1466    0.1491    0.3226 C   0  0  0  0  0  0  0  0  0  0  0  0
   -5.3322    1.1875    0.7842 C   0  0  0  0  0  0  0  0  0  0  0  0
   -3.9645    1.1089    0.6963 C   0  0  0  0  0  0  0  0  0  0  0  0
   -3.3928   -0.0321    0.1375 C   0  0  0  0  0  0  0  0  0  0  0  0
   -2.0797   -0.4469   -0.1105 N   0  0  0  0  0  0  0  0  0  0  0  0
    0.3087    1.6471    0.8801 H   0  0  0  0  0  0  0  0  0  0  0  0
   -1.3526    1.8745    1.1468 H   0  0  0  0  0  0  0  0  0  0  0  0
    4.8743   -1.5870   -1.0808 H   0  0  0  0  0  0  0  0  0  0  0  0
    7.1081   -0.6003   -0.7323 H   0  0  0  0  0  0  0  0  0  0  0  0
    7.3249    1.5711    0.3989 H   0  0  0  0  0  0  0  0  0  0  0  0
    5.3079    2.7532    1.1835 H   0  0  0  0  0  0  0  0  0  0  0  0
   -1.1648   -3.2931   -1.5680 H   0  0  0  0  0  0  0  0  0  0  0  0
   -6.2211   -1.7835   -0.5975 H   0  0  0  0  0  0  0  0  0  0  0  0
   -7.2173    0.2400    0.4048 H   0  0  0  0  0  0  0  0  0  0  0  0
   -5.7874    2.0644    1.2137 H   0  0  0  0  0  0  0  0  0  0  0  0
   -3.3440    1.9125    1.0424 H   0  0  0  0  0  0  0  0  0  0  0  0
  1  2  1  0  0  0  0
  2  3  2  0  0  0  0
  3  4  1  0  0  0  0
  4  5  2  0  0  0  0
  5  6  1  0  0  0  0
  6  7  2  0  0  0  0
  7  8  1  0  0  0  0
  8  9  2  0  0  0  0
  9 10  1  0  0  0  0
 10 11  2  0  0  0  0
 11 12  1  0  0  0  0
  3 13  1  0  0  0  0
 13 14  2  0  0  0  0
 13 15  1  0  0  0  0
 15 16  1  0  0  0  0
 16 17  2  0  0  0  0
 17 18  1  0  0  0  0
 18 19  2  0  0  0  0
 19 20  1  0  0  0  0
 20 21  2  0  0  0  0
 21 22  1  0  0  0  0
 22 23  2  0  0  0  0
 23 24  1  0  0  0  0
 24  2  1  0  0  0  0
 11  6  1  0  0  0  0
 24 16  1  0  0  0  0
 23 18  1  0  0  0  0
  1 25  1  0  0  0  0
  1 26  1  0  0  0  0
  7 27  1  0  0  0  0
  8 28  1  0  0  0  0
  9 29  1  0  0  0  0
 10 30  1  0  0  0  0
 15 31  1  0  0  0  0
 19 32  1  0  0  0  0
 20 33  1  0  0  0  0
 21 34  1  0  0  0  0
 22 35  1  0  0  0  0
M  END
