
  xtb     03012221243D
 energy: -15.154045145374 gnorm: 0.000279665468 xtb: 6.4.1 (afa7bdf)
 76 82  0     0  0            999 V2000
   -7.9217   -2.5337    0.7396 C   0  0  0  0  0  0  0  0  0  0  0  0
   -7.1632   -1.4883    1.5427 C   0  0  0  0  0  0  0  0  0  0  0  0
   -6.1262   -0.7759    0.7241 C   0  0  0  0  0  0  0  0  0  0  0  0
   -6.4320    0.4084    0.0673 C   0  0  0  0  0  0  0  0  0  0  0  0
   -5.4940    1.0554   -0.7256 C   0  0  0  0  0  0  0  0  0  0  0  0
   -5.8186    2.3597   -1.3937 C   0  0  0  0  0  0  0  0  0  0  0  0
   -5.3585    3.5599   -0.5805 C   0  0  0  0  0  0  0  0  0  0  0  0
   -4.2328    0.5029   -0.8497 C   0  0  0  0  0  0  0  0  0  0  0  0
   -3.9014   -0.6830   -0.2069 C   0  0  0  0  0  0  0  0  0  0  0  0
   -2.5842   -1.2396   -0.3405 N   0  0  0  0  0  0  0  0  0  0  0  0
   -2.2660   -2.5784   -0.6523 C   0  0  0  0  0  0  0  0  0  0  0  0
   -3.0862   -3.6746   -0.9150 C   0  0  0  0  0  0  0  0  0  0  0  0
   -2.5019   -4.8826   -1.2115 C   0  0  0  0  0  0  0  0  0  0  0  0
   -1.1122   -5.0188   -1.2548 C   0  0  0  0  0  0  0  0  0  0  0  0
   -0.2882   -3.9472   -1.0059 C   0  0  0  0  0  0  0  0  0  0  0  0
   -0.8671   -2.7146   -0.7042 C   0  0  0  0  0  0  0  0  0  0  0  0
   -0.2926   -1.4219   -0.4136 C   0  0  0  0  0  0  0  0  0  0  0  0
    1.0292   -0.9993   -0.3305 C   0  0  0  0  0  0  0  0  0  0  0  0
    1.2540    0.3318   -0.0134 C   0  0  0  0  0  0  0  0  0  0  0  0
    0.1751    1.2278    0.2069 C   0  0  0  0  0  0  0  0  0  0  0  0
   -1.1465    0.8049    0.1256 C   0  0  0  0  0  0  0  0  0  0  0  0
   -1.3713   -0.5260   -0.1920 C   0  0  0  0  0  0  0  0  0  0  0  0
    0.7486    2.5213    0.4953 C   0  0  0  0  0  0  0  0  0  0  0  0
    0.1689    3.7540    0.7956 C   0  0  0  0  0  0  0  0  0  0  0  0
    0.9924    4.8260    1.0439 C   0  0  0  0  0  0  0  0  0  0  0  0
    2.3822    4.6900    1.0024 C   0  0  0  0  0  0  0  0  0  0  0  0
    2.9670    3.4819    0.7075 C   0  0  0  0  0  0  0  0  0  0  0  0
    2.1473    2.3855    0.4442 C   0  0  0  0  0  0  0  0  0  0  0  0
    2.4665    1.0465    0.1336 N   0  0  0  0  0  0  0  0  0  0  0  0
    3.7859    0.4959   -0.0050 C   0  0  0  0  0  0  0  0  0  0  0  0
    4.1328   -0.6796    0.6488 C   0  0  0  0  0  0  0  0  0  0  0  0
    5.4009   -1.2175    0.5270 C   0  0  0  0  0  0  0  0  0  0  0  0
    5.7748   -2.4628    1.2766 C   0  0  0  0  0  0  0  0  0  0  0  0
    6.3016   -2.1665    2.6722 C   0  0  0  0  0  0  0  0  0  0  0  0
    6.3368   -0.5528   -0.2534 C   0  0  0  0  0  0  0  0  0  0  0  0
    6.0139    0.6181   -0.9255 C   0  0  0  0  0  0  0  0  0  0  0  0
    7.0451    1.3446   -1.7388 C   0  0  0  0  0  0  0  0  0  0  0  0
    7.7744    2.4108   -0.9360 C   0  0  0  0  0  0  0  0  0  0  0  0
    4.7382    1.1341   -0.7894 C   0  0  0  0  0  0  0  0  0  0  0  0
   -4.8614   -1.3144    0.5734 C   0  0  0  0  0  0  0  0  0  0  0  0
   -8.6749   -3.0489    1.3404 H   0  0  0  0  0  0  0  0  0  0  0  0
   -7.2436   -3.2904    0.3400 H   0  0  0  0  0  0  0  0  0  0  0  0
   -8.4322   -2.0801   -0.1122 H   0  0  0  0  0  0  0  0  0  0  0  0
   -6.6769   -1.9515    2.4105 H   0  0  0  0  0  0  0  0  0  0  0  0
   -7.8581   -0.7506    1.9631 H   0  0  0  0  0  0  0  0  0  0  0  0
   -7.4143    0.8324    0.1749 H   0  0  0  0  0  0  0  0  0  0  0  0
   -6.8993    2.4121   -1.5754 H   0  0  0  0  0  0  0  0  0  0  0  0
   -5.3590    2.3740   -2.3899 H   0  0  0  0  0  0  0  0  0  0  0  0
   -5.5990    4.5065   -1.0699 H   0  0  0  0  0  0  0  0  0  0  0  0
   -4.2787    3.5356   -0.4204 H   0  0  0  0  0  0  0  0  0  0  0  0
   -5.8274    3.5688    0.4054 H   0  0  0  0  0  0  0  0  0  0  0  0
   -3.4954    0.9893   -1.4621 H   0  0  0  0  0  0  0  0  0  0  0  0
   -4.1550   -3.5601   -0.8926 H   0  0  0  0  0  0  0  0  0  0  0  0
   -3.1243   -5.7381   -1.4163 H   0  0  0  0  0  0  0  0  0  0  0  0
   -0.6806   -5.9783   -1.4905 H   0  0  0  0  0  0  0  0  0  0  0  0
    0.7825   -4.0422   -1.0424 H   0  0  0  0  0  0  0  0  0  0  0  0
    1.8429   -1.6745   -0.5118 H   0  0  0  0  0  0  0  0  0  0  0  0
   -1.9597    1.4802    0.3089 H   0  0  0  0  0  0  0  0  0  0  0  0
   -0.9019    3.8487    0.8306 H   0  0  0  0  0  0  0  0  0  0  0  0
    0.5604    5.7859    1.2776 H   0  0  0  0  0  0  0  0  0  0  0  0
    3.0042    5.5458    1.2074 H   0  0  0  0  0  0  0  0  0  0  0  0
    4.0359    3.3674    0.6868 H   0  0  0  0  0  0  0  0  0  0  0  0
    3.4055   -1.1633    1.2753 H   0  0  0  0  0  0  0  0  0  0  0  0
    6.5207   -3.0204    0.6964 H   0  0  0  0  0  0  0  0  0  0  0  0
    4.9006   -3.1237    1.3302 H   0  0  0  0  0  0  0  0  0  0  0  0
    7.1889   -1.5317    2.6303 H   0  0  0  0  0  0  0  0  0  0  0  0
    6.5712   -3.0765    3.2132 H   0  0  0  0  0  0  0  0  0  0  0  0
    5.5567   -1.6359    3.2684 H   0  0  0  0  0  0  0  0  0  0  0  0
    7.3330   -0.9496   -0.3342 H   0  0  0  0  0  0  0  0  0  0  0  0
    6.5591    1.7913   -2.6154 H   0  0  0  0  0  0  0  0  0  0  0  0
    7.7587    0.6175   -2.1462 H   0  0  0  0  0  0  0  0  0  0  0  0
    8.2826    1.9739   -0.0742 H   0  0  0  0  0  0  0  0  0  0  0  0
    8.5252    2.9345   -1.5323 H   0  0  0  0  0  0  0  0  0  0  0  0
    7.0776    3.1583   -0.5515 H   0  0  0  0  0  0  0  0  0  0  0  0
    4.4707    2.0397   -1.3028 H   0  0  0  0  0  0  0  0  0  0  0  0
   -4.6061   -2.2277    1.0793 H   0  0  0  0  0  0  0  0  0  0  0  0
  1  2  1  0  0  0  0
  2  3  1  0  0  0  0
  3  4  2  0  0  0  0
  4  5  1  0  0  0  0
  5  6  1  0  0  0  0
  6  7  1  0  0  0  0
  5  8  2  0  0  0  0
  8  9  1  0  0  0  0
  9 10  1  0  0  0  0
 10 11  1  0  0  0  0
 11 12  2  0  0  0  0
 12 13  1  0  0  0  0
 13 14  2  0  0  0  0
 14 15  1  0  0  0  0
 15 16  2  0  0  0  0
 16 17  1  0  0  0  0
 17 18  2  0  0  0  0
 18 19  1  0  0  0  0
 19 20  2  0  0  0  0
 20 21  1  0  0  0  0
 21 22  2  0  0  0  0
 20 23  1  0  0  0  0
 23 24  2  0  0  0  0
 24 25  1  0  0  0  0
 25 26  2  0  0  0  0
 26 27  1  0  0  0  0
 27 28  2  0  0  0  0
 28 29  1  0  0  0  0
 29 30  1  0  0  0  0
 30 31  2  0  0  0  0
 31 32  1  0  0  0  0
 32 33  1  0  0  0  0
 33 34  1  0  0  0  0
 32 35  2  0  0  0  0
 35 36  1  0  0  0  0
 36 37  1  0  0  0  0
 37 38  1  0  0  0  0
 36 39  2  0  0  0  0
  9 40  2  0  0  0  0
 40  3  1  0  0  0  0
 22 10  1  0  0  0  0
 28 23  1  0  0  0  0
 39 30  1  0  0  0  0
 16 11  1  0  0  0  0
 22 17  1  0  0  0  0
 29 19  1  0  0  0  0
  1 41  1  0  0  0  0
  1 42  1  0  0  0  0
  1 43  1  0  0  0  0
  2 44  1  0  0  0  0
  2 45  1  0  0  0  0
  4 46  1  0  0  0  0
  6 47  1  0  0  0  0
  6 48  1  0  0  0  0
  7 49  1  0  0  0  0
  7 50  1  0  0  0  0
  7 51  1  0  0  0  0
  8 52  1  0  0  0  0
 12 53  1  0  0  0  0
 13 54  1  0  0  0  0
 14 55  1  0  0  0  0
 15 56  1  0  0  0  0
 18 57  1  0  0  0  0
 21 58  1  0  0  0  0
 24 59  1  0  0  0  0
 25 60  1  0  0  0  0
 26 61  1  0  0  0  0
 27 62  1  0  0  0  0
 31 63  1  0  0  0  0
 33 64  1  0  0  0  0
 33 65  1  0  0  0  0
 34 66  1  0  0  0  0
 34 67  1  0  0  0  0
 34 68  1  0  0  0  0
 35 69  1  0  0  0  0
 37 70  1  0  0  0  0
 37 71  1  0  0  0  0
 38 72  1  0  0  0  0
 38 73  1  0  0  0  0
 38 74  1  0  0  0  0
 39 75  1  0  0  0  0
 40 76  1  0  0  0  0
M  END
