
  xtb     03012221263D
 energy: -5.900355696751 gnorm: 0.000203220861 xtb: 6.4.1 (afa7bdf)
 29 31  0     0  0            999 V2000
   -4.9822   -0.2817    0.2807 C   0  0  0  0  0  0  0  0  0  0  0  0
   -3.5630   -0.0656   -0.1143 C   0  0  0  0  0  0  0  0  0  0  0  0
   -3.2505    0.5933   -1.3286 C   0  0  0  0  0  0  0  0  0  0  0  0
   -1.9637    0.8193   -1.6981 C   0  0  0  0  0  0  0  0  0  0  0  0
   -0.8863    0.4040   -0.8714 C   0  0  0  0  0  0  0  0  0  0  0  0
    0.4465    0.6218   -1.2247 C   0  0  0  0  0  0  0  0  0  0  0  0
    1.4815    0.2072   -0.3937 C   0  0  0  0  0  0  0  0  0  0  0  0
    2.8511    0.3987   -0.6941 C   0  0  0  0  0  0  0  0  0  0  0  0
    3.8108   -0.0310    0.1651 C   0  0  0  0  0  0  0  0  0  0  0  0
    5.2402    0.1836   -0.1798 C   0  0  0  0  0  0  0  0  0  0  0  0
    3.5308   -0.6609    1.3462 N   0  0  0  0  0  0  0  0  0  0  0  0
    2.2780   -0.8438    1.6354 C   0  0  0  0  0  0  0  0  0  0  0  0
    1.1860   -0.4446    0.8287 C   0  0  0  0  0  0  0  0  0  0  0  0
   -0.1427   -0.6650    1.1867 C   0  0  0  0  0  0  0  0  0  0  0  0
   -1.1861   -0.2534    0.3590 C   0  0  0  0  0  0  0  0  0  0  0  0
   -2.5488   -0.4670    0.7039 C   0  0  0  0  0  0  0  0  0  0  0  0
   -5.1122   -1.2530    0.7594 H   0  0  0  0  0  0  0  0  0  0  0  0
   -5.6431   -0.2493   -0.5862 H   0  0  0  0  0  0  0  0  0  0  0  0
   -5.3098    0.4865    0.9820 H   0  0  0  0  0  0  0  0  0  0  0  0
   -4.0578    0.9177   -1.9623 H   0  0  0  0  0  0  0  0  0  0  0  0
   -1.7432    1.3200   -2.6250 H   0  0  0  0  0  0  0  0  0  0  0  0
    0.6761    1.1167   -2.1507 H   0  0  0  0  0  0  0  0  0  0  0  0
    3.1289    0.8882   -1.6098 H   0  0  0  0  0  0  0  0  0  0  0  0
    5.8833   -0.2060    0.6093 H   0  0  0  0  0  0  0  0  0  0  0  0
    5.4985   -0.3270   -1.1080 H   0  0  0  0  0  0  0  0  0  0  0  0
    5.4579    1.2453   -0.2996 H   0  0  0  0  0  0  0  0  0  0  0  0
    2.0650   -1.3393    2.5677 H   0  0  0  0  0  0  0  0  0  0  0  0
   -0.3658   -1.1598    2.1144 H   0  0  0  0  0  0  0  0  0  0  0  0
   -2.7796   -0.9552    1.6334 H   0  0  0  0  0  0  0  0  0  0  0  0
  1  2  1  0  0  0  0
  2  3  2  0  0  0  0
  3  4  1  0  0  0  0
  4  5  2  0  0  0  0
  5  6  1  0  0  0  0
  6  7  2  0  0  0  0
  7  8  1  0  0  0  0
  8  9  2  0  0  0  0
  9 10  1  0  0  0  0
  9 11  1  0  0  0  0
 11 12  2  0  0  0  0
 12 13  1  0  0  0  0
 13 14  2  0  0  0  0
 14 15  1  0  0  0  0
 15 16  2  0  0  0  0
 16  2  1  0  0  0  0
 15  5  1  0  0  0  0
 13  7  1  0  0  0  0
  1 17  1  0  0  0  0
  1 18  1  0  0  0  0
  1 19  1  0  0  0  0
  3 20  1  0  0  0  0
  4 21  1  0  0  0  0
  6 22  1  0  0  0  0
  8 23  1  0  0  0  0
 10 24  1  0  0  0  0
 10 25  1  0  0  0  0
 10 26  1  0  0  0  0
 12 27  1  0  0  0  0
 14 28  1  0  0  0  0
 16 29  1  0  0  0  0
M  END
