
  xtb     03012221313D
 energy: -13.286854033086 gnorm: 0.000349626584 xtb: 6.4.1 (afa7bdf)
 68 70  0     0  0            999 V2000
   -0.5219    7.1683   -4.6429 C   0  0  0  0  0  0  0  0  0  0  0  0
    0.4784    7.5932   -3.9042 C   0  0  0  0  0  0  0  0  0  0  0  0
    0.3247    7.8216   -2.4420 C   0  0  0  0  0  0  0  0  0  0  0  0
   -0.7046    7.0419   -1.8784 O   0  0  0  0  0  0  0  0  0  0  0  0
   -0.2635    5.7646   -1.6198 C   0  0  0  0  0  0  0  0  0  0  0  0
    0.8977    5.4197   -1.8031 O   0  0  0  0  0  0  0  0  0  0  0  0
   -1.2558    4.8336   -1.1176 C   0  0  0  0  0  0  0  0  0  0  0  0
   -2.5558    5.2799   -0.9924 C   0  0  0  0  0  0  0  0  0  0  0  0
   -3.6684    5.6110   -0.8801 N   0  0  0  0  0  0  0  0  0  0  0  0
   -0.9544    3.4973   -0.7705 C   0  0  0  0  0  0  0  0  0  0  0  0
   -1.9618    2.6372   -0.3008 C   0  0  0  0  0  0  0  0  0  0  0  0
   -1.6797    1.3373    0.0414 C   0  0  0  0  0  0  0  0  0  0  0  0
   -2.7267    0.4758    0.5192 C   0  0  0  0  0  0  0  0  0  0  0  0
   -2.4816   -0.7980    0.8626 C   0  0  0  0  0  0  0  0  0  0  0  0
   -3.4532   -1.7491    1.3537 C   0  0  0  0  0  0  0  0  0  0  0  0
   -4.8014   -1.4220    1.5312 C   0  0  0  0  0  0  0  0  0  0  0  0
   -5.6959   -2.3504    2.0003 C   0  0  0  0  0  0  0  0  0  0  0  0
   -5.2926   -3.6533    2.3164 C   0  0  0  0  0  0  0  0  0  0  0  0
   -6.2099   -4.6016    2.7966 N   0  0  0  0  0  0  0  0  0  0  0  0
   -5.7987   -5.9676    3.1228 C   0  0  0  0  0  0  0  0  0  0  0  0
   -7.6221   -4.2703    2.9912 C   0  0  0  0  0  0  0  0  0  0  0  0
   -3.9423   -3.9767    2.1367 C   0  0  0  0  0  0  0  0  0  0  0  0
   -3.0465   -3.0498    1.6679 C   0  0  0  0  0  0  0  0  0  0  0  0
   -0.4096    0.8203   -0.0574 O   0  0  0  0  0  0  0  0  0  0  0  0
    0.5852    1.6515   -0.5151 C   0  0  0  0  0  0  0  0  0  0  0  0
    1.9168    1.1200   -0.6194 C   0  0  0  0  0  0  0  0  0  0  0  0
    2.1922   -0.1466   -0.2729 C   0  0  0  0  0  0  0  0  0  0  0  0
    3.4888   -0.7832   -0.3313 C   0  0  0  0  0  0  0  0  0  0  0  0
    3.6218   -2.1143    0.0769 C   0  0  0  0  0  0  0  0  0  0  0  0
    4.8377   -2.7477    0.0381 C   0  0  0  0  0  0  0  0  0  0  0  0
    5.9860   -2.0849   -0.4116 C   0  0  0  0  0  0  0  0  0  0  0  0
    7.2312   -2.7325   -0.4503 N   0  0  0  0  0  0  0  0  0  0  0  0
    7.4001   -4.0992    0.0450 C   0  0  0  0  0  0  0  0  0  0  0  0
    8.4213   -2.0729   -0.9891 C   0  0  0  0  0  0  0  0  0  0  0  0
    5.8485   -0.7530   -0.8211 C   0  0  0  0  0  0  0  0  0  0  0  0
    4.6333   -0.1176   -0.7824 C   0  0  0  0  0  0  0  0  0  0  0  0
    0.3365    2.9555   -0.8670 C   0  0  0  0  0  0  0  0  0  0  0  0
   -1.4705    6.9545   -4.1918 H   0  0  0  0  0  0  0  0  0  0  0  0
   -0.4254    7.0045   -5.6981 H   0  0  0  0  0  0  0  0  0  0  0  0
    1.4327    7.8072   -4.3599 H   0  0  0  0  0  0  0  0  0  0  0  0
    1.2495    7.5878   -1.8979 H   0  0  0  0  0  0  0  0  0  0  0  0
    0.0760    8.8710   -2.2412 H   0  0  0  0  0  0  0  0  0  0  0  0
   -2.9678    3.0043   -0.2083 H   0  0  0  0  0  0  0  0  0  0  0  0
   -3.7180    0.8791    0.5956 H   0  0  0  0  0  0  0  0  0  0  0  0
   -1.4673   -1.1434    0.7632 H   0  0  0  0  0  0  0  0  0  0  0  0
   -5.1425   -0.4304    1.2970 H   0  0  0  0  0  0  0  0  0  0  0  0
   -6.7276   -2.0744    2.1280 H   0  0  0  0  0  0  0  0  0  0  0  0
   -5.3846   -6.4522    2.2413 H   0  0  0  0  0  0  0  0  0  0  0  0
   -5.0467   -5.9524    3.9086 H   0  0  0  0  0  0  0  0  0  0  0  0
   -6.6417   -6.5598    3.4708 H   0  0  0  0  0  0  0  0  0  0  0  0
   -8.0679   -3.9702    2.0453 H   0  0  0  0  0  0  0  0  0  0  0  0
   -7.7183   -3.4560    3.7060 H   0  0  0  0  0  0  0  0  0  0  0  0
   -8.1777   -5.1237    3.3726 H   0  0  0  0  0  0  0  0  0  0  0  0
   -3.6034   -4.9701    2.3715 H   0  0  0  0  0  0  0  0  0  0  0  0
   -2.0130   -3.3182    1.5362 H   0  0  0  0  0  0  0  0  0  0  0  0
    2.6926    1.7669   -0.9814 H   0  0  0  0  0  0  0  0  0  0  0  0
    1.3714   -0.7435    0.0848 H   0  0  0  0  0  0  0  0  0  0  0  0
    2.7511   -2.6414    0.4254 H   0  0  0  0  0  0  0  0  0  0  0  0
    4.9120   -3.7733    0.3535 H   0  0  0  0  0  0  0  0  0  0  0  0
    8.4456   -4.3976    0.0251 H   0  0  0  0  0  0  0  0  0  0  0  0
    7.0494   -4.1695    1.0723 H   0  0  0  0  0  0  0  0  0  0  0  0
    6.8341   -4.7920   -0.5739 H   0  0  0  0  0  0  0  0  0  0  0  0
    9.2650   -2.7578   -1.0309 H   0  0  0  0  0  0  0  0  0  0  0  0
    8.6962   -1.2290   -0.3600 H   0  0  0  0  0  0  0  0  0  0  0  0
    8.2259   -1.7177   -1.9986 H   0  0  0  0  0  0  0  0  0  0  0  0
    6.7153   -0.2180   -1.1668 H   0  0  0  0  0  0  0  0  0  0  0  0
    4.5605    0.9055   -1.1027 H   0  0  0  0  0  0  0  0  0  0  0  0
    1.1411    3.5721   -1.2217 H   0  0  0  0  0  0  0  0  0  0  0  0
  1  2  2  0  0  0  0
  2  3  1  0  0  0  0
  3  4  1  0  0  0  0
  4  5  1  0  0  0  0
  5  6  2  0  0  0  0
  5  7  1  0  0  0  0
  7  8  1  0  0  0  0
  8  9  3  0  0  0  0
  7 10  2  0  0  0  0
 10 11  1  0  0  0  0
 11 12  2  0  0  0  0
 12 13  1  0  0  0  0
 13 14  2  0  0  0  0
 14 15  1  0  0  0  0
 15 16  2  0  0  0  0
 16 17  1  0  0  0  0
 17 18  2  0  0  0  0
 18 19  1  0  0  0  0
 19 20  1  0  0  0  0
 19 21  1  0  0  0  0
 18 22  1  0  0  0  0
 22 23  2  0  0  0  0
 12 24  1  0  0  0  0
 24 25  1  0  0  0  0
 25 26  1  0  0  0  0
 26 27  2  0  0  0  0
 27 28  1  0  0  0  0
 28 29  2  0  0  0  0
 29 30  1  0  0  0  0
 30 31  2  0  0  0  0
 31 32  1  0  0  0  0
 32 33  1  0  0  0  0
 32 34  1  0  0  0  0
 31 35  1  0  0  0  0
 35 36  2  0  0  0  0
 25 37  2  0  0  0  0
 37 10  1  0  0  0  0
 23 15  1  0  0  0  0
 36 28  1  0  0  0  0
  1 38  1  0  0  0  0
  1 39  1  0  0  0  0
  2 40  1  0  0  0  0
  3 41  1  0  0  0  0
  3 42  1  0  0  0  0
 11 43  1  0  0  0  0
 13 44  1  0  0  0  0
 14 45  1  0  0  0  0
 16 46  1  0  0  0  0
 17 47  1  0  0  0  0
 20 48  1  0  0  0  0
 20 49  1  0  0  0  0
 20 50  1  0  0  0  0
 21 51  1  0  0  0  0
 21 52  1  0  0  0  0
 21 53  1  0  0  0  0
 22 54  1  0  0  0  0
 23 55  1  0  0  0  0
 26 56  1  0  0  0  0
 27 57  1  0  0  0  0
 29 58  1  0  0  0  0
 30 59  1  0  0  0  0
 33 60  1  0  0  0  0
 33 61  1  0  0  0  0
 33 62  1  0  0  0  0
 34 63  1  0  0  0  0
 34 64  1  0  0  0  0
 34 65  1  0  0  0  0
 35 66  1  0  0  0  0
 36 67  1  0  0  0  0
 37 68  1  0  0  0  0
M  END
