
  xtb     03012221263D
 energy: -11.189336201257 gnorm: 0.000079190711 xtb: 6.4.1 (afa7bdf)
 52 56  0     0  0            999 V2000
    2.5619   -0.0256   -0.4357 C   0  0  0  0  0  0  0  0  0  0  0  0
    3.2664    0.8634   -1.1670 C   0  0  0  0  0  0  0  0  0  0  0  0
    4.7137    0.9304   -1.2484 C   0  0  0  0  0  0  0  0  0  0  0  0
    5.2335    1.2947   -2.4103 N   0  0  0  0  0  0  0  0  0  0  0  0
    6.5589    1.2669   -2.4958 C   0  0  0  0  0  0  0  0  0  0  0  0
    7.4499    0.9438   -1.6062 N   0  0  0  0  0  0  0  0  0  0  0  0
    6.9517    0.6288   -0.3887 C   0  0  0  0  0  0  0  0  0  0  0  0
    7.8308    0.3262    0.6684 C   0  0  0  0  0  0  0  0  0  0  0  0
    7.3588    0.0692    1.9232 C   0  0  0  0  0  0  0  0  0  0  0  0
    5.9889    0.1166    2.1782 C   0  0  0  0  0  0  0  0  0  0  0  0
    5.1110    0.3961    1.1709 C   0  0  0  0  0  0  0  0  0  0  0  0
    5.5660    0.6292   -0.1437 C   0  0  0  0  0  0  0  0  0  0  0  0
    1.1192   -0.0817   -0.3547 C   0  0  0  0  0  0  0  0  0  0  0  0
    0.2996    0.9254   -0.8774 C   0  0  0  0  0  0  0  0  0  0  0  0
   -1.0659    0.8487   -0.7691 C   0  0  0  0  0  0  0  0  0  0  0  0
   -1.6771   -0.2350   -0.1382 C   0  0  0  0  0  0  0  0  0  0  0  0
   -3.0997   -0.3069   -0.0204 N   0  0  0  0  0  0  0  0  0  0  0  0
   -3.7663   -1.5790   -0.0408 C   0  0  0  0  0  0  0  0  0  0  0  0
   -3.3384   -2.5938   -0.8934 C   0  0  0  0  0  0  0  0  0  0  0  0
   -3.9839   -3.8096   -0.9170 C   0  0  0  0  0  0  0  0  0  0  0  0
   -5.0682   -4.0342   -0.0912 C   0  0  0  0  0  0  0  0  0  0  0  0
   -5.5055   -3.0371    0.7588 C   0  0  0  0  0  0  0  0  0  0  0  0
   -4.8619   -1.8203    0.7842 C   0  0  0  0  0  0  0  0  0  0  0  0
   -3.8744    0.8939    0.1262 C   0  0  0  0  0  0  0  0  0  0  0  0
   -5.1078    1.0259   -0.5068 C   0  0  0  0  0  0  0  0  0  0  0  0
   -5.8523    2.1748   -0.3607 C   0  0  0  0  0  0  0  0  0  0  0  0
   -5.3802    3.2114    0.4207 C   0  0  0  0  0  0  0  0  0  0  0  0
   -4.1597    3.0946    1.0569 C   0  0  0  0  0  0  0  0  0  0  0  0
   -3.4131    1.9470    0.9122 C   0  0  0  0  0  0  0  0  0  0  0  0
   -0.8633   -1.2410    0.3826 C   0  0  0  0  0  0  0  0  0  0  0  0
    0.5025   -1.1652    0.2809 C   0  0  0  0  0  0  0  0  0  0  0  0
    3.1019   -0.7933    0.0890 H   0  0  0  0  0  0  0  0  0  0  0  0
    2.7332    1.5196   -1.8317 H   0  0  0  0  0  0  0  0  0  0  0  0
    6.9559    1.5424   -3.4624 H   0  0  0  0  0  0  0  0  0  0  0  0
    8.8872    0.3152    0.4651 H   0  0  0  0  0  0  0  0  0  0  0  0
    8.0455   -0.1548    2.7231 H   0  0  0  0  0  0  0  0  0  0  0  0
    5.6254   -0.0591    3.1773 H   0  0  0  0  0  0  0  0  0  0  0  0
    4.0633    0.4848    1.3923 H   0  0  0  0  0  0  0  0  0  0  0  0
    0.7444    1.7784   -1.3569 H   0  0  0  0  0  0  0  0  0  0  0  0
   -1.6873    1.6245   -1.1817 H   0  0  0  0  0  0  0  0  0  0  0  0
   -2.5008   -2.4081   -1.5428 H   0  0  0  0  0  0  0  0  0  0  0  0
   -3.6441   -4.5863   -1.5824 H   0  0  0  0  0  0  0  0  0  0  0  0
   -5.5729   -4.9860   -0.1108 H   0  0  0  0  0  0  0  0  0  0  0  0
   -6.3513   -3.2120    1.4036 H   0  0  0  0  0  0  0  0  0  0  0  0
   -5.1929   -1.0415    1.4488 H   0  0  0  0  0  0  0  0  0  0  0  0
   -5.4661    0.2172   -1.1195 H   0  0  0  0  0  0  0  0  0  0  0  0
   -6.8044    2.2657   -0.8575 H   0  0  0  0  0  0  0  0  0  0  0  0
   -5.9637    4.1101    0.5345 H   0  0  0  0  0  0  0  0  0  0  0  0
   -3.7921    3.9021    1.6688 H   0  0  0  0  0  0  0  0  0  0  0  0
   -2.4670    1.8448    1.4145 H   0  0  0  0  0  0  0  0  0  0  0  0
   -1.3254   -2.0743    0.8830 H   0  0  0  0  0  0  0  0  0  0  0  0
    1.1165   -1.9475    0.6924 H   0  0  0  0  0  0  0  0  0  0  0  0
  1  2  2  0  0  0  0
  2  3  1  0  0  0  0
  3  4  2  0  0  0  0
  4  5  1  0  0  0  0
  5  6  2  0  0  0  0
  6  7  1  0  0  0  0
  7  8  2  0  0  0  0
  8  9  1  0  0  0  0
  9 10  2  0  0  0  0
 10 11  1  0  0  0  0
 11 12  2  0  0  0  0
  1 13  1  0  0  0  0
 13 14  2  0  0  0  0
 14 15  1  0  0  0  0
 15 16  2  0  0  0  0
 16 17  1  0  0  0  0
 17 18  1  0  0  0  0
 18 19  2  0  0  0  0
 19 20  1  0  0  0  0
 20 21  2  0  0  0  0
 21 22  1  0  0  0  0
 22 23  2  0  0  0  0
 17 24  1  0  0  0  0
 24 25  2  0  0  0  0
 25 26  1  0  0  0  0
 26 27  2  0  0  0  0
 27 28  1  0  0  0  0
 28 29  2  0  0  0  0
 16 30  1  0  0  0  0
 30 31  2  0  0  0  0
 12  3  1  0  0  0  0
 31 13  1  0  0  0  0
 12  7  1  0  0  0  0
 23 18  1  0  0  0  0
 29 24  1  0  0  0  0
  1 32  1  0  0  0  0
  2 33  1  0  0  0  0
  5 34  1  0  0  0  0
  8 35  1  0  0  0  0
  9 36  1  0  0  0  0
 10 37  1  0  0  0  0
 11 38  1  0  0  0  0
 14 39  1  0  0  0  0
 15 40  1  0  0  0  0
 19 41  1  0  0  0  0
 20 42  1  0  0  0  0
 21 43  1  0  0  0  0
 22 44  1  0  0  0  0
 23 45  1  0  0  0  0
 25 46  1  0  0  0  0
 26 47  1  0  0  0  0
 27 48  1  0  0  0  0
 28 49  1  0  0  0  0
 29 50  1  0  0  0  0
 30 51  1  0  0  0  0
 31 52  1  0  0  0  0
M  END
