
  xtb     03012221273D
 energy: -13.575822879842 gnorm: 0.000178133189 xtb: 6.4.1 (afa7bdf)
 78 81  0     0  0            999 V2000
   -7.9701   -1.4562    0.5534 C   0  0  0  0  0  0  0  0  0  0  0  0
   -7.8328   -2.4975   -0.8611 S   0  0  0  0  0  0  0  0  0  0  0  0
   -6.0922   -2.7269   -0.8816 C   0  0  0  0  0  0  0  0  0  0  0  0
   -5.2221   -1.7715   -0.5477 C   0  0  0  0  0  0  0  0  0  0  0  0
   -3.7722   -1.9029   -0.5409 C   0  0  0  0  0  0  0  0  0  0  0  0
   -2.9816   -0.7862   -0.2638 C   0  0  0  0  0  0  0  0  0  0  0  0
   -1.6099   -0.8744   -0.2446 C   0  0  0  0  0  0  0  0  0  0  0  0
   -0.9647   -2.0851   -0.5002 C   0  0  0  0  0  0  0  0  0  0  0  0
    0.5103   -2.1845   -0.4746 C   0  0  0  0  0  0  0  0  0  0  0  0
    1.2664   -1.4396    0.4316 C   0  0  0  0  0  0  0  0  0  0  0  0
    2.6376   -1.5383    0.4623 C   0  0  0  0  0  0  0  0  0  0  0  0
    3.3166   -2.3884   -0.4127 C   0  0  0  0  0  0  0  0  0  0  0  0
    4.7666   -2.5253   -0.4027 C   0  0  0  0  0  0  0  0  0  0  0  0
    5.6042   -1.8471    0.3834 C   0  0  0  0  0  0  0  0  0  0  0  0
    7.3355   -2.0852    0.3168 S   0  0  0  0  0  0  0  0  0  0  0  0
    7.8106   -0.6730    1.2652 C   0  0  0  0  0  0  0  0  0  0  0  0
    7.8028    0.5806    0.8145 C   0  0  0  0  0  0  0  0  0  0  0  0
    8.2112    1.6905    1.7430 C   0  0  0  0  0  0  0  0  0  0  0  0
    8.6729    3.0136    1.1062 C   0  0  0  0  0  0  0  0  0  0  0  0
   10.0242    2.9605    0.3707 C   0  0  0  0  0  0  0  0  0  0  0  0
    9.9875    2.4694   -1.0871 C   0  0  0  0  0  0  0  0  0  0  0  0
    9.8487    0.9408   -1.2564 C   0  0  0  0  0  0  0  0  0  0  0  0
    8.4371    0.4750   -1.6189 C   0  0  0  0  0  0  0  0  0  0  0  0
    7.3815    0.8849   -0.5893 C   0  0  0  0  0  0  0  0  0  0  0  0
    2.5597   -3.1313   -1.3204 C   0  0  0  0  0  0  0  0  0  0  0  0
    1.1891   -3.0317   -1.3514 C   0  0  0  0  0  0  0  0  0  0  0  0
   -1.7548   -3.2020   -0.7758 C   0  0  0  0  0  0  0  0  0  0  0  0
   -3.1269   -3.1142   -0.7959 C   0  0  0  0  0  0  0  0  0  0  0  0
   -8.8304   -0.4463    0.6619 C   0  0  0  0  0  0  0  0  0  0  0  0
   -8.8207    0.4177    1.8870 C   0  0  0  0  0  0  0  0  0  0  0  0
   -7.5570    1.2873    2.0008 C   0  0  0  0  0  0  0  0  0  0  0  0
   -7.0722    1.8796    0.6729 C   0  0  0  0  0  0  0  0  0  0  0  0
   -7.9795    2.9389    0.0389 C   0  0  0  0  0  0  0  0  0  0  0  0
   -9.3618    2.4626   -0.4361 C   0  0  0  0  0  0  0  0  0  0  0  0
   -9.3579    1.1523   -1.2587 C   0  0  0  0  0  0  0  0  0  0  0  0
   -9.7691   -0.0890   -0.4517 C   0  0  0  0  0  0  0  0  0  0  0  0
   -7.2990   -1.6706    1.3633 H   0  0  0  0  0  0  0  0  0  0  0  0
   -5.7525   -3.6921   -1.2018 H   0  0  0  0  0  0  0  0  0  0  0  0
   -5.6164   -0.8118   -0.2647 H   0  0  0  0  0  0  0  0  0  0  0  0
   -3.4626    0.1568   -0.0661 H   0  0  0  0  0  0  0  0  0  0  0  0
   -1.0187    0.0025   -0.0455 H   0  0  0  0  0  0  0  0  0  0  0  0
    0.7602   -0.7938    1.1280 H   0  0  0  0  0  0  0  0  0  0  0  0
    3.1930   -0.9568    1.1765 H   0  0  0  0  0  0  0  0  0  0  0  0
    5.1939   -3.2332   -1.0924 H   0  0  0  0  0  0  0  0  0  0  0  0
    5.2440   -1.1213    1.0849 H   0  0  0  0  0  0  0  0  0  0  0  0
    8.1177   -0.8735    2.2744 H   0  0  0  0  0  0  0  0  0  0  0  0
    9.0130    1.3202    2.3933 H   0  0  0  0  0  0  0  0  0  0  0  0
    7.3653    1.8830    2.4158 H   0  0  0  0  0  0  0  0  0  0  0  0
    7.9021    3.4106    0.4374 H   0  0  0  0  0  0  0  0  0  0  0  0
    8.7417    3.7658    1.9062 H   0  0  0  0  0  0  0  0  0  0  0  0
   10.4658    3.9681    0.3822 H   0  0  0  0  0  0  0  0  0  0  0  0
   10.7269    2.3457    0.9460 H   0  0  0  0  0  0  0  0  0  0  0  0
    9.1809    2.9776   -1.6294 H   0  0  0  0  0  0  0  0  0  0  0  0
   10.9068    2.8010   -1.5923 H   0  0  0  0  0  0  0  0  0  0  0  0
   10.1711    0.4475   -0.3308 H   0  0  0  0  0  0  0  0  0  0  0  0
   10.5521    0.5806   -2.0211 H   0  0  0  0  0  0  0  0  0  0  0  0
    8.1627    0.8582   -2.6104 H   0  0  0  0  0  0  0  0  0  0  0  0
    8.4331   -0.6184   -1.7212 H   0  0  0  0  0  0  0  0  0  0  0  0
    7.1589    1.9518   -0.6855 H   0  0  0  0  0  0  0  0  0  0  0  0
    6.4277    0.3846   -0.7977 H   0  0  0  0  0  0  0  0  0  0  0  0
    3.0661   -3.7899   -2.0055 H   0  0  0  0  0  0  0  0  0  0  0  0
    0.6263   -3.6019   -2.0699 H   0  0  0  0  0  0  0  0  0  0  0  0
   -1.2764   -4.1490   -0.9562 H   0  0  0  0  0  0  0  0  0  0  0  0
   -3.7101   -3.9940   -1.0020 H   0  0  0  0  0  0  0  0  0  0  0  0
   -8.9306   -0.2176    2.7752 H   0  0  0  0  0  0  0  0  0  0  0  0
   -9.7166    1.0468    1.8902 H   0  0  0  0  0  0  0  0  0  0  0  0
   -7.7142    2.0920    2.7303 H   0  0  0  0  0  0  0  0  0  0  0  0
   -6.7501    0.6733    2.4246 H   0  0  0  0  0  0  0  0  0  0  0  0
   -6.9167    1.0662   -0.0441 H   0  0  0  0  0  0  0  0  0  0  0  0
   -6.0713    2.3108    0.8205 H   0  0  0  0  0  0  0  0  0  0  0  0
   -8.0991    3.7736    0.7422 H   0  0  0  0  0  0  0  0  0  0  0  0
   -7.4545    3.3726   -0.8239 H   0  0  0  0  0  0  0  0  0  0  0  0
  -10.0373    2.3486    0.4187 H   0  0  0  0  0  0  0  0  0  0  0  0
   -9.8260    3.2675   -1.0250 H   0  0  0  0  0  0  0  0  0  0  0  0
   -8.3679    0.9963   -1.7027 H   0  0  0  0  0  0  0  0  0  0  0  0
  -10.0342    1.2545   -2.1195 H   0  0  0  0  0  0  0  0  0  0  0  0
  -10.7704    0.0648   -0.0319 H   0  0  0  0  0  0  0  0  0  0  0  0
   -9.8714   -0.9542   -1.1181 H   0  0  0  0  0  0  0  0  0  0  0  0
  1  2  1  0  0  0  0
  2  3  1  0  0  0  0
  3  4  2  0  0  0  0
  4  5  1  0  0  0  0
  5  6  2  0  0  0  0
  6  7  1  0  0  0  0
  7  8  2  0  0  0  0
  8  9  1  0  0  0  0
  9 10  2  0  0  0  0
 10 11  1  0  0  0  0
 11 12  2  0  0  0  0
 12 13  1  0  0  0  0
 13 14  2  0  0  0  0
 14 15  1  0  0  0  0
 15 16  1  0  0  0  0
 16 17  2  0  0  0  0
 17 18  1  0  0  0  0
 18 19  1  0  0  0  0
 19 20  1  0  0  0  0
 20 21  1  0  0  0  0
 21 22  1  0  0  0  0
 22 23  1  0  0  0  0
 23 24  1  0  0  0  0
 12 25  1  0  0  0  0
 25 26  2  0  0  0  0
  8 27  1  0  0  0  0
 27 28  2  0  0  0  0
  1 29  2  0  0  0  0
 29 30  1  0  0  0  0
 30 31  1  0  0  0  0
 31 32  1  0  0  0  0
 32 33  1  0  0  0  0
 33 34  1  0  0  0  0
 34 35  1  0  0  0  0
 35 36  1  0  0  0  0
 28  5  1  0  0  0  0
 36 29  1  0  0  0  0
 26  9  1  0  0  0  0
 24 17  1  0  0  0  0
  1 37  1  0  0  0  0
  3 38  1  0  0  0  0
  4 39  1  0  0  0  0
  6 40  1  0  0  0  0
  7 41  1  0  0  0  0
 10 42  1  0  0  0  0
 11 43  1  0  0  0  0
 13 44  1  0  0  0  0
 14 45  1  0  0  0  0
 16 46  1  0  0  0  0
 18 47  1  0  0  0  0
 18 48  1  0  0  0  0
 19 49  1  0  0  0  0
 19 50  1  0  0  0  0
 20 51  1  0  0  0  0
 20 52  1  0  0  0  0
 21 53  1  0  0  0  0
 21 54  1  0  0  0  0
 22 55  1  0  0  0  0
 22 56  1  0  0  0  0
 23 57  1  0  0  0  0
 23 58  1  0  0  0  0
 24 59  1  0  0  0  0
 24 60  1  0  0  0  0
 25 61  1  0  0  0  0
 26 62  1  0  0  0  0
 27 63  1  0  0  0  0
 28 64  1  0  0  0  0
 30 65  1  0  0  0  0
 30 66  1  0  0  0  0
 31 67  1  0  0  0  0
 31 68  1  0  0  0  0
 32 69  1  0  0  0  0
 32 70  1  0  0  0  0
 33 71  1  0  0  0  0
 33 72  1  0  0  0  0
 34 73  1  0  0  0  0
 34 74  1  0  0  0  0
 35 75  1  0  0  0  0
 35 76  1  0  0  0  0
 36 77  1  0  0  0  0
 36 78  1  0  0  0  0
M  END
