
  xtb     03012221323D
 energy: -10.400867687594 gnorm: 0.000368648006 xtb: 6.4.1 (afa7bdf)
 46 49  0     0  0            999 V2000
   -8.9137   -4.3409    3.7179 O   0  0  0  0  0  0  0  0  0  0  0  0
   -8.5910   -4.5425    2.5407 N   0  0  0  0  0  4  0  0  0  0  0  0
   -9.1093   -5.4191    1.8383 O   0  0  0  0  0  1  0  0  0  0  0  0
   -7.5481   -3.7051    1.9518 C   0  0  0  0  0  0  0  0  0  0  0  0
   -7.1582   -3.9022    0.6423 C   0  0  0  0  0  0  0  0  0  0  0  0
   -6.1777   -3.1138    0.0855 C   0  0  0  0  0  0  0  0  0  0  0  0
   -5.5673   -2.1105    0.8311 C   0  0  0  0  0  0  0  0  0  0  0  0
   -4.5650   -1.3001    0.2620 C   0  0  0  0  0  0  0  0  0  0  0  0
   -3.7001   -0.5955   -0.2339 C   0  0  0  0  0  0  0  0  0  0  0  0
   -2.7081    0.2260   -0.8071 C   0  0  0  0  0  0  0  0  0  0  0  0
   -3.0609    1.2058   -1.7585 C   0  0  0  0  0  0  0  0  0  0  0  0
   -2.1178    2.0089   -2.3221 C   0  0  0  0  0  0  0  0  0  0  0  0
   -0.7571    1.8821   -1.9674 C   0  0  0  0  0  0  0  0  0  0  0  0
    0.2471    2.6990   -2.5310 C   0  0  0  0  0  0  0  0  0  0  0  0
    1.5495    2.5521   -2.1648 C   0  0  0  0  0  0  0  0  0  0  0  0
    1.9335    1.5830   -1.2147 C   0  0  0  0  0  0  0  0  0  0  0  0
    3.2877    1.4497   -0.8458 C   0  0  0  0  0  0  0  0  0  0  0  0
    4.4622    1.3421   -0.5307 C   0  0  0  0  0  0  0  0  0  0  0  0
    5.8205    1.2315   -0.1728 C   0  0  0  0  0  0  0  0  0  0  0  0
    6.7002    2.2862   -0.3939 C   0  0  0  0  0  0  0  0  0  0  0  0
    8.0268    2.1767   -0.0459 C   0  0  0  0  0  0  0  0  0  0  0  0
    8.5008    1.0145    0.5286 C   0  0  0  0  0  0  0  0  0  0  0  0
    9.9114    0.8986    0.8927 N   0  0  0  0  0  4  0  0  0  0  0  0
   10.6585    1.8588    0.6680 O   0  0  0  0  0  0  0  0  0  0  0  0
   10.3017   -0.1550    1.4104 O   0  0  0  0  0  1  0  0  0  0  0  0
    7.6380   -0.0394    0.7538 C   0  0  0  0  0  0  0  0  0  0  0  0
    6.3106    0.0660    0.4073 C   0  0  0  0  0  0  0  0  0  0  0  0
    0.9731    0.7786   -0.6568 C   0  0  0  0  0  0  0  0  0  0  0  0
   -0.3875    0.9043   -1.0142 C   0  0  0  0  0  0  0  0  0  0  0  0
   -1.3915    0.0869   -0.4497 C   0  0  0  0  0  0  0  0  0  0  0  0
   -5.9690   -1.9224    2.1495 C   0  0  0  0  0  0  0  0  0  0  0  0
   -6.9500   -2.7129    2.7025 C   0  0  0  0  0  0  0  0  0  0  0  0
   -7.6364   -4.6808    0.0720 H   0  0  0  0  0  0  0  0  0  0  0  0
   -5.8733   -3.2658   -0.9357 H   0  0  0  0  0  0  0  0  0  0  0  0
   -4.0963    1.3081   -2.0323 H   0  0  0  0  0  0  0  0  0  0  0  0
   -2.3997    2.7530   -3.0465 H   0  0  0  0  0  0  0  0  0  0  0  0
   -0.0332    3.4426   -3.2566 H   0  0  0  0  0  0  0  0  0  0  0  0
    2.3099    3.1782   -2.5978 H   0  0  0  0  0  0  0  0  0  0  0  0
    6.3293    3.1916   -0.8425 H   0  0  0  0  0  0  0  0  0  0  0  0
    8.7150    2.9879   -0.2146 H   0  0  0  0  0  0  0  0  0  0  0  0
    8.0260   -0.9384    1.2023 H   0  0  0  0  0  0  0  0  0  0  0  0
    5.6369   -0.7552    0.5814 H   0  0  0  0  0  0  0  0  0  0  0  0
    1.2615    0.0392    0.0675 H   0  0  0  0  0  0  0  0  0  0  0  0
   -1.1187   -0.6587    0.2743 H   0  0  0  0  0  0  0  0  0  0  0  0
   -5.5024   -1.1478    2.7332 H   0  0  0  0  0  0  0  0  0  0  0  0
   -7.2676   -2.5735    3.7222 H   0  0  0  0  0  0  0  0  0  0  0  0
  1  2  2  0  0  0  0
  2  3  1  0  0  0  0
  2  4  1  0  0  0  0
  4  5  2  0  0  0  0
  5  6  1  0  0  0  0
  6  7  2  0  0  0  0
  7  8  1  0  0  0  0
  8  9  3  0  0  0  0
  9 10  1  0  0  0  0
 10 11  2  0  0  0  0
 11 12  1  0  0  0  0
 12 13  2  0  0  0  0
 13 14  1  0  0  0  0
 14 15  2  0  0  0  0
 15 16  1  0  0  0  0
 16 17  1  0  0  0  0
 17 18  3  0  0  0  0
 18 19  1  0  0  0  0
 19 20  2  0  0  0  0
 20 21  1  0  0  0  0
 21 22  2  0  0  0  0
 22 23  1  0  0  0  0
 23 24  2  0  0  0  0
 23 25  1  0  0  0  0
 22 26  1  0  0  0  0
 26 27  2  0  0  0  0
 16 28  2  0  0  0  0
 28 29  1  0  0  0  0
 29 30  2  0  0  0  0
  7 31  1  0  0  0  0
 31 32  2  0  0  0  0
 32  4  1  0  0  0  0
 30 10  1  0  0  0  0
 29 13  1  0  0  0  0
 27 19  1  0  0  0  0
  5 33  1  0  0  0  0
  6 34  1  0  0  0  0
 11 35  1  0  0  0  0
 12 36  1  0  0  0  0
 14 37  1  0  0  0  0
 15 38  1  0  0  0  0
 20 39  1  0  0  0  0
 21 40  1  0  0  0  0
 26 41  1  0  0  0  0
 27 42  1  0  0  0  0
 28 43  1  0  0  0  0
 30 44  1  0  0  0  0
 31 45  1  0  0  0  0
 32 46  1  0  0  0  0
M  CHG  1   2   1
M  CHG  1   3  -1
M  CHG  1  23   1
M  CHG  1  25  -1
M  END
