
  xtb     03012221243D
 energy: -10.243647016933 gnorm: 0.000194289087 xtb: 6.4.1 (afa7bdf)
 56 58  0     0  0            999 V2000
    9.2347    0.5718    0.0085 C   0  0  0  0  0  0  0  0  0  0  0  0
    8.0275    0.5128   -0.9061 C   0  0  0  0  0  0  0  0  0  0  0  0
    6.9061   -0.2757   -0.3339 N   0  0  0  0  0  0  0  0  0  0  0  0
    5.9916   -0.7858   -1.3948 C   0  0  0  0  0  0  0  0  0  0  0  0
    4.6468   -1.2092   -0.8104 C   0  0  0  0  0  0  0  0  0  0  0  0
    3.9713   -0.0649   -0.1431 N   0  0  0  0  0  0  0  0  0  0  0  0
    2.5691    0.0311   -0.0523 C   0  0  0  0  0  0  0  0  0  0  0  0
    1.7573   -1.0931   -0.2432 C   0  0  0  0  0  0  0  0  0  0  0  0
    0.3953   -0.9961   -0.1522 C   0  0  0  0  0  0  0  0  0  0  0  0
   -0.2170    0.2238    0.1282 C   0  0  0  0  0  0  0  0  0  0  0  0
   -1.5881    0.3227    0.2196 N   0  0  0  0  0  0  0  0  0  0  0  0
   -2.3034   -0.6819    0.1269 N   0  0  0  0  0  0  0  0  0  0  0  0
   -3.6771   -0.5640    0.2111 C   0  0  0  0  0  0  0  0  0  0  0  0
   -4.4944   -1.6872    0.1923 C   0  0  0  0  0  0  0  0  0  0  0  0
   -5.8689   -1.5653    0.2804 C   0  0  0  0  0  0  0  0  0  0  0  0
   -6.7181   -2.7789    0.2647 C   0  0  0  0  0  0  0  0  0  0  0  0
   -6.2004   -3.8745    0.1646 O   0  0  0  0  0  0  0  0  0  0  0  0
   -8.0652   -2.5776    0.3682 O   0  0  0  0  0  0  0  0  0  0  0  0
   -8.7214   -3.8027    0.3432 C   0  0  0  0  0  0  0  0  0  0  0  0
   -6.4349   -0.3051    0.3861 C   0  0  0  0  0  0  0  0  0  0  0  0
   -5.6359    0.8256    0.4046 C   0  0  0  0  0  0  0  0  0  0  0  0
   -6.2337    2.1747    0.5130 C   0  0  0  0  0  0  0  0  0  0  0  0
   -7.4396    2.3021    0.5951 O   0  0  0  0  0  0  0  0  0  0  0  0
   -5.3508    3.2181    0.5115 O   0  0  0  0  0  0  0  0  0  0  0  0
   -6.0510    4.4147    0.6148 C   0  0  0  0  0  0  0  0  0  0  0  0
   -4.2640    0.6881    0.3186 C   0  0  0  0  0  0  0  0  0  0  0  0
    0.5880    1.3466    0.3172 C   0  0  0  0  0  0  0  0  0  0  0  0
    1.9505    1.2542    0.2316 C   0  0  0  0  0  0  0  0  0  0  0  0
    4.8740    0.9716    0.4251 C   0  0  0  0  0  0  0  0  0  0  0  0
    6.2144    0.3705    0.8362 C   0  0  0  0  0  0  0  0  0  0  0  0
    9.0071    1.0813    0.9448 H   0  0  0  0  0  0  0  0  0  0  0  0
    9.5740   -0.4325    0.2651 H   0  0  0  0  0  0  0  0  0  0  0  0
   10.0727    1.0972   -0.4535 H   0  0  0  0  0  0  0  0  0  0  0  0
    8.3059    0.0561   -1.8619 H   0  0  0  0  0  0  0  0  0  0  0  0
    7.6592    1.5158   -1.1450 H   0  0  0  0  0  0  0  0  0  0  0  0
    5.8433    0.0072   -2.1339 H   0  0  0  0  0  0  0  0  0  0  0  0
    6.4842   -1.6163   -1.9120 H   0  0  0  0  0  0  0  0  0  0  0  0
    4.7842   -2.0021   -0.0703 H   0  0  0  0  0  0  0  0  0  0  0  0
    3.9925   -1.6047   -1.5929 H   0  0  0  0  0  0  0  0  0  0  0  0
    2.2121   -2.0470   -0.4370 H   0  0  0  0  0  0  0  0  0  0  0  0
   -0.2312   -1.8616   -0.2925 H   0  0  0  0  0  0  0  0  0  0  0  0
   -4.0582   -2.6666    0.1113 H   0  0  0  0  0  0  0  0  0  0  0  0
   -9.7972   -3.6341    0.4254 H   0  0  0  0  0  0  0  0  0  0  0  0
   -8.3696   -4.4088    1.1816 H   0  0  0  0  0  0  0  0  0  0  0  0
   -8.4895   -4.3085   -0.5971 H   0  0  0  0  0  0  0  0  0  0  0  0
   -7.5047   -0.2007    0.4555 H   0  0  0  0  0  0  0  0  0  0  0  0
   -5.3444    5.2471    0.6052 H   0  0  0  0  0  0  0  0  0  0  0  0
   -6.6181    4.4125    1.5488 H   0  0  0  0  0  0  0  0  0  0  0  0
   -6.7393    4.4952   -0.2300 H   0  0  0  0  0  0  0  0  0  0  0  0
   -3.6433    1.5661    0.3349 H   0  0  0  0  0  0  0  0  0  0  0  0
    0.1111    2.2889    0.5314 H   0  0  0  0  0  0  0  0  0  0  0  0
    2.5531    2.1345    0.3584 H   0  0  0  0  0  0  0  0  0  0  0  0
    4.3830    1.4409    1.2827 H   0  0  0  0  0  0  0  0  0  0  0  0
    5.0176    1.7487   -0.3304 H   0  0  0  0  0  0  0  0  0  0  0  0
    6.8681    1.1260    1.2814 H   0  0  0  0  0  0  0  0  0  0  0  0
    6.0645   -0.4012    1.5971 H   0  0  0  0  0  0  0  0  0  0  0  0
  1  2  1  0  0  0  0
  2  3  1  0  0  0  0
  3  4  1  0  0  0  0
  4  5  1  0  0  0  0
  5  6  1  0  0  0  0
  6  7  1  0  0  0  0
  7  8  2  0  0  0  0
  8  9  1  0  0  0  0
  9 10  2  0  0  0  0
 10 11  1  0  0  0  0
 11 12  2  0  0  0  0
 12 13  1  0  0  0  0
 13 14  2  0  0  0  0
 14 15  1  0  0  0  0
 15 16  1  0  0  0  0
 16 17  2  0  0  0  0
 16 18  1  0  0  0  0
 18 19  1  0  0  0  0
 15 20  2  0  0  0  0
 20 21  1  0  0  0  0
 21 22  1  0  0  0  0
 22 23  2  0  0  0  0
 22 24  1  0  0  0  0
 24 25  1  0  0  0  0
 21 26  2  0  0  0  0
 10 27  1  0  0  0  0
 27 28  2  0  0  0  0
  6 29  1  0  0  0  0
 29 30  1  0  0  0  0
 30  3  1  0  0  0  0
 28  7  1  0  0  0  0
 26 13  1  0  0  0  0
  1 31  1  0  0  0  0
  1 32  1  0  0  0  0
  1 33  1  0  0  0  0
  2 34  1  0  0  0  0
  2 35  1  0  0  0  0
  4 36  1  0  0  0  0
  4 37  1  0  0  0  0
  5 38  1  0  0  0  0
  5 39  1  0  0  0  0
  8 40  1  0  0  0  0
  9 41  1  0  0  0  0
 14 42  1  0  0  0  0
 19 43  1  0  0  0  0
 19 44  1  0  0  0  0
 19 45  1  0  0  0  0
 20 46  1  0  0  0  0
 25 47  1  0  0  0  0
 25 48  1  0  0  0  0
 25 49  1  0  0  0  0
 26 50  1  0  0  0  0
 27 51  1  0  0  0  0
 28 52  1  0  0  0  0
 29 53  1  0  0  0  0
 29 54  1  0  0  0  0
 30 55  1  0  0  0  0
 30 56  1  0  0  0  0
M  END
