
  xtb     03012221323D
 energy: -15.789987973797 gnorm: 0.000300172936 xtb: 6.4.1 (afa7bdf)
 74 82  0     0  0            999 V2000
   -0.1202    2.4642   -0.9672 F   0  0  0  0  0  0  0  0  0  0  0  0
   -0.1983    1.6007    0.1183 B   0  0  0  0  0  4  0  0  0  0  0  0
   -0.4511    2.2637    1.3152 F   0  0  0  0  0  0  0  0  0  0  0  0
   -1.3283    0.6039   -0.1008 N   0  0  0  0  0  0  0  0  0  0  0  0
   -1.0787   -0.7466   -0.1130 C   0  0  0  0  0  0  0  0  0  0  0  0
   -2.3458   -1.3812   -0.2479 C   0  0  0  0  0  0  0  0  0  0  0  0
   -2.5077   -2.8386   -0.2645 C   0  0  0  0  0  0  0  0  0  0  0  0
   -3.4647   -3.4754    0.5250 C   0  0  0  0  0  0  0  0  0  0  0  0
   -3.5643   -4.8466    0.5400 C   0  0  0  0  0  0  0  0  0  0  0  0
   -2.7074   -5.6126   -0.2242 C   0  0  0  0  0  0  0  0  0  0  0  0
   -1.7424   -5.0029   -0.9998 C   0  0  0  0  0  0  0  0  0  0  0  0
   -1.6390   -3.6324   -1.0161 C   0  0  0  0  0  0  0  0  0  0  0  0
   -3.3281   -0.3607   -0.3357 C   0  0  0  0  0  0  0  0  0  0  0  0
   -4.7178   -0.5346   -0.6855 C   0  0  0  0  0  0  0  0  0  0  0  0
   -5.5730    0.4712   -1.0701 C   0  0  0  0  0  0  0  0  0  0  0  0
   -6.8771    0.0364   -1.3912 C   0  0  0  0  0  0  0  0  0  0  0  0
   -7.0407   -1.3013   -1.2623 C   0  0  0  0  0  0  0  0  0  0  0  0
   -5.5849   -2.0557   -0.7410 S   0  0  0  0  0  0  0  0  0  0  0  0
   -2.6477    0.8943   -0.1909 C   0  0  0  0  0  0  0  0  0  0  0  0
   -3.2329    2.2275   -0.0134 C   0  0  0  0  0  0  0  0  0  0  0  0
   -4.2730    2.4334    0.8959 C   0  0  0  0  0  0  0  0  0  0  0  0
   -4.8235    3.6827    1.0650 C   0  0  0  0  0  0  0  0  0  0  0  0
   -4.3449    4.7546    0.3385 C   0  0  0  0  0  0  0  0  0  0  0  0
   -3.3066    4.5745   -0.5533 C   0  0  0  0  0  0  0  0  0  0  0  0
   -2.7533    3.3270   -0.7246 C   0  0  0  0  0  0  0  0  0  0  0  0
    0.0840   -1.3740    0.0426 N   0  0  0  0  0  0  0  0  0  0  0  0
    1.1183   -0.5474    0.1983 C   0  0  0  0  0  0  0  0  0  0  0  0
    2.4773   -0.9509    0.3314 C   0  0  0  0  0  0  0  0  0  0  0  0
    2.9260   -2.3334    0.4653 C   0  0  0  0  0  0  0  0  0  0  0  0
    2.0616   -3.3909    0.1745 C   0  0  0  0  0  0  0  0  0  0  0  0
    2.4622   -4.6999    0.2943 C   0  0  0  0  0  0  0  0  0  0  0  0
    3.7400   -4.9916    0.7250 C   0  0  0  0  0  0  0  0  0  0  0  0
    4.6080   -3.9670    1.0434 C   0  0  0  0  0  0  0  0  0  0  0  0
    4.2068   -2.6574    0.9200 C   0  0  0  0  0  0  0  0  0  0  0  0
    3.2595    0.2319    0.3573 C   0  0  0  0  0  0  0  0  0  0  0  0
    4.7191    0.2948    0.4113 C   0  0  0  0  0  0  0  0  0  0  0  0
    5.5819   -0.2387   -0.5175 C   0  0  0  0  0  0  0  0  0  0  0  0
    6.9455   -0.0367   -0.2107 C   0  0  0  0  0  0  0  0  0  0  0  0
    7.1430    0.6431    0.9452 C   0  0  0  0  0  0  0  0  0  0  0  0
    5.6451    1.0565    1.6861 S   0  0  0  0  0  0  0  0  0  0  0  0
    2.3709    1.3540    0.2846 C   0  0  0  0  0  0  0  0  0  0  0  0
    2.7434    2.7637    0.1806 C   0  0  0  0  0  0  0  0  0  0  0  0
    3.9977    3.1515   -0.2960 C   0  0  0  0  0  0  0  0  0  0  0  0
    4.3421    4.4793   -0.4006 C   0  0  0  0  0  0  0  0  0  0  0  0
    3.4417    5.4595   -0.0369 C   0  0  0  0  0  0  0  0  0  0  0  0
    2.1927    5.1029    0.4275 C   0  0  0  0  0  0  0  0  0  0  0  0
    1.8506    3.7752    0.5321 C   0  0  0  0  0  0  0  0  0  0  0  0
    1.1205    0.8330    0.2150 N   0  0  0  0  0  4  0  0  0  0  0  0
   -4.1088   -2.8771    1.1461 H   0  0  0  0  0  0  0  0  0  0  0  0
   -4.3103   -5.3242    1.1531 H   0  0  0  0  0  0  0  0  0  0  0  0
   -2.7880   -6.6883   -0.2104 H   0  0  0  0  0  0  0  0  0  0  0  0
   -1.0680   -5.6010   -1.5898 H   0  0  0  0  0  0  0  0  0  0  0  0
   -0.8860   -3.1491   -1.6143 H   0  0  0  0  0  0  0  0  0  0  0  0
   -5.2670    1.5009   -1.1551 H   0  0  0  0  0  0  0  0  0  0  0  0
   -7.6621    0.7051   -1.7124 H   0  0  0  0  0  0  0  0  0  0  0  0
   -7.9500   -1.8399   -1.4563 H   0  0  0  0  0  0  0  0  0  0  0  0
   -4.6346    1.5973    1.4690 H   0  0  0  0  0  0  0  0  0  0  0  0
   -5.6268    3.8255    1.7687 H   0  0  0  0  0  0  0  0  0  0  0  0
   -4.7755    5.7331    0.4737 H   0  0  0  0  0  0  0  0  0  0  0  0
   -2.9234    5.4132   -1.1106 H   0  0  0  0  0  0  0  0  0  0  0  0
   -1.9321    3.1859   -1.4041 H   0  0  0  0  0  0  0  0  0  0  0  0
    1.0579   -3.1671   -0.1315 H   0  0  0  0  0  0  0  0  0  0  0  0
    1.7764   -5.4971    0.0602 H   0  0  0  0  0  0  0  0  0  0  0  0
    4.0566   -6.0184    0.8219 H   0  0  0  0  0  0  0  0  0  0  0  0
    5.6014   -4.1941    1.3931 H   0  0  0  0  0  0  0  0  0  0  0  0
    4.8799   -1.8683    1.1991 H   0  0  0  0  0  0  0  0  0  0  0  0
    5.2383   -0.7604   -1.3972 H   0  0  0  0  0  0  0  0  0  0  0  0
    7.7503   -0.3923   -0.8368 H   0  0  0  0  0  0  0  0  0  0  0  0
    8.0999    0.8996    1.3611 H   0  0  0  0  0  0  0  0  0  0  0  0
    4.7025    2.3957   -0.5896 H   0  0  0  0  0  0  0  0  0  0  0  0
    5.3171    4.7546   -0.7674 H   0  0  0  0  0  0  0  0  0  0  0  0
    3.7114    6.4995   -0.1192 H   0  0  0  0  0  0  0  0  0  0  0  0
    1.4823    5.8645    0.7038 H   0  0  0  0  0  0  0  0  0  0  0  0
    0.8724    3.4998    0.8752 H   0  0  0  0  0  0  0  0  0  0  0  0
  1  2  1  0  0  0  0
  2  3  1  0  0  0  0
  2  4  1  0  0  0  0
  4  5  1  0  0  0  0
  5  6  2  0  0  0  0
  6  7  1  0  0  0  0
  7  8  2  0  0  0  0
  8  9  1  0  0  0  0
  9 10  2  0  0  0  0
 10 11  1  0  0  0  0
 11 12  2  0  0  0  0
  6 13  1  0  0  0  0
 13 14  1  0  0  0  0
 14 15  2  0  0  0  0
 15 16  1  0  0  0  0
 16 17  2  0  0  0  0
 17 18  1  0  0  0  0
 13 19  2  0  0  0  0
 19 20  1  0  0  0  0
 20 21  2  0  0  0  0
 21 22  1  0  0  0  0
 22 23  2  0  0  0  0
 23 24  1  0  0  0  0
 24 25  2  0  0  0  0
  5 26  1  0  0  0  0
 26 27  2  0  0  0  0
 27 28  1  0  0  0  0
 28 29  1  0  0  0  0
 29 30  2  0  0  0  0
 30 31  1  0  0  0  0
 31 32  2  0  0  0  0
 32 33  1  0  0  0  0
 33 34  2  0  0  0  0
 28 35  2  0  0  0  0
 35 36  1  0  0  0  0
 36 37  2  0  0  0  0
 37 38  1  0  0  0  0
 38 39  2  0  0  0  0
 39 40  1  0  0  0  0
 35 41  1  0  0  0  0
 41 42  1  0  0  0  0
 42 43  2  0  0  0  0
 43 44  1  0  0  0  0
 44 45  2  0  0  0  0
 45 46  1  0  0  0  0
 46 47  2  0  0  0  0
 41 48  2  0  0  0  0
 48  2  1  0  0  0  0
 19  4  1  0  0  0  0
 25 20  1  0  0  0  0
 48 27  1  0  0  0  0
 12  7  1  0  0  0  0
 18 14  1  0  0  0  0
 34 29  1  0  0  0  0
 40 36  1  0  0  0  0
 47 42  1  0  0  0  0
  8 49  1  0  0  0  0
  9 50  1  0  0  0  0
 10 51  1  0  0  0  0
 11 52  1  0  0  0  0
 12 53  1  0  0  0  0
 15 54  1  0  0  0  0
 16 55  1  0  0  0  0
 17 56  1  0  0  0  0
 21 57  1  0  0  0  0
 22 58  1  0  0  0  0
 23 59  1  0  0  0  0
 24 60  1  0  0  0  0
 25 61  1  0  0  0  0
 30 62  1  0  0  0  0
 31 63  1  0  0  0  0
 32 64  1  0  0  0  0
 33 65  1  0  0  0  0
 34 66  1  0  0  0  0
 37 67  1  0  0  0  0
 38 68  1  0  0  0  0
 39 69  1  0  0  0  0
 43 70  1  0  0  0  0
 44 71  1  0  0  0  0
 45 72  1  0  0  0  0
 46 73  1  0  0  0  0
 47 74  1  0  0  0  0
M  CHG  1   2  -1
M  CHG  1  48   1
M  END
