
  xtb     03012221333D
 energy: -6.420754755633 gnorm: 0.000310192465 xtb: 6.4.1 (afa7bdf)
 33 34  0     0  0            999 V2000
   -5.0014   -0.1887    1.1724 C   0  0  0  0  0  0  0  0  0  0  0  0
   -4.2964    0.1875   -0.0531 N   0  0  0  0  0  0  0  0  0  0  0  0
   -5.1194    0.5868   -1.1950 C   0  0  0  0  0  0  0  0  0  0  0  0
   -2.8944    0.1535   -0.1338 C   0  0  0  0  0  0  0  0  0  0  0  0
   -2.2273    0.5299   -1.3048 C   0  0  0  0  0  0  0  0  0  0  0  0
   -0.8580    0.4997   -1.3807 C   0  0  0  0  0  0  0  0  0  0  0  0
   -0.0798    0.0919   -0.2917 C   0  0  0  0  0  0  0  0  0  0  0  0
    1.3647    0.0774   -0.4097 C   0  0  0  0  0  0  0  0  0  0  0  0
    2.2187   -0.2789    0.5668 C   0  0  0  0  0  0  0  0  0  0  0  0
    3.6654   -0.2974    0.4765 C   0  0  0  0  0  0  0  0  0  0  0  0
    4.3265    0.0730   -0.6940 C   0  0  0  0  0  0  0  0  0  0  0  0
    5.6944    0.0463   -0.7424 C   0  0  0  0  0  0  0  0  0  0  0  0
    6.3737   -0.3516    0.3841 C   0  0  0  0  0  0  0  0  0  0  0  0
    5.6519   -0.7023    1.4989 C   0  0  0  0  0  0  0  0  0  0  0  0
    4.3334   -0.6865    1.5749 N   0  0  0  0  0  0  0  0  0  0  0  0
   -0.7466   -0.2865    0.8791 C   0  0  0  0  0  0  0  0  0  0  0  0
   -2.1163   -0.2562    0.9548 C   0  0  0  0  0  0  0  0  0  0  0  0
   -4.7999   -1.2306    1.4133 H   0  0  0  0  0  0  0  0  0  0  0  0
   -6.0767   -0.0667    1.0615 H   0  0  0  0  0  0  0  0  0  0  0  0
   -4.6735    0.4385    1.9990 H   0  0  0  0  0  0  0  0  0  0  0  0
   -6.1790    0.5382   -0.9533 H   0  0  0  0  0  0  0  0  0  0  0  0
   -4.8840    1.6087   -1.4854 H   0  0  0  0  0  0  0  0  0  0  0  0
   -4.9335   -0.0758   -2.0380 H   0  0  0  0  0  0  0  0  0  0  0  0
   -2.7994    0.8509   -2.1567 H   0  0  0  0  0  0  0  0  0  0  0  0
   -0.3646    0.7953   -2.2908 H   0  0  0  0  0  0  0  0  0  0  0  0
    1.7638    0.3813   -1.3596 H   0  0  0  0  0  0  0  0  0  0  0  0
    1.8221   -0.5812    1.5171 H   0  0  0  0  0  0  0  0  0  0  0  0
    3.7675    0.3803   -1.5596 H   0  0  0  0  0  0  0  0  0  0  0  0
    6.2244    0.3292   -1.6372 H   0  0  0  0  0  0  0  0  0  0  0  0
    7.4509   -0.3875    0.3926 H   0  0  0  0  0  0  0  0  0  0  0  0
    6.1763   -1.0163    2.3878 H   0  0  0  0  0  0  0  0  0  0  0  0
   -0.1803   -0.6075    1.7346 H   0  0  0  0  0  0  0  0  0  0  0  0
   -2.6032   -0.5547    1.8659 H   0  0  0  0  0  0  0  0  0  0  0  0
  1  2  1  0  0  0  0
  2  3  1  0  0  0  0
  2  4  1  0  0  0  0
  4  5  2  0  0  0  0
  5  6  1  0  0  0  0
  6  7  2  0  0  0  0
  7  8  1  0  0  0  0
  8  9  2  0  0  0  0
  9 10  1  0  0  0  0
 10 11  2  0  0  0  0
 11 12  1  0  0  0  0
 12 13  2  0  0  0  0
 13 14  1  0  0  0  0
 14 15  2  0  0  0  0
  7 16  1  0  0  0  0
 16 17  2  0  0  0  0
 17  4  1  0  0  0  0
 15 10  1  0  0  0  0
  1 18  1  0  0  0  0
  1 19  1  0  0  0  0
  1 20  1  0  0  0  0
  3 21  1  0  0  0  0
  3 22  1  0  0  0  0
  3 23  1  0  0  0  0
  5 24  1  0  0  0  0
  6 25  1  0  0  0  0
  8 26  1  0  0  0  0
  9 27  1  0  0  0  0
 11 28  1  0  0  0  0
 12 29  1  0  0  0  0
 13 30  1  0  0  0  0
 14 31  1  0  0  0  0
 16 32  1  0  0  0  0
 17 33  1  0  0  0  0
M  END
