
  xtb     03012221323D
 energy: -14.397539564339 gnorm: 0.000347252392 xtb: 6.4.1 (afa7bdf)
 72 76  0     0  0            999 V2000
    8.8845   -0.3914    1.6563 C   0  0  0  0  0  0  0  0  0  0  0  0
    7.7683    0.1618    2.3067 O   0  0  0  0  0  0  0  0  0  0  0  0
    6.5559    0.0250    1.6115 C   0  0  0  0  0  0  0  0  0  0  0  0
    5.4163    0.5833    2.1918 C   0  0  0  0  0  0  0  0  0  0  0  0
    4.1952    0.4918    1.5752 C   0  0  0  0  0  0  0  0  0  0  0  0
    4.0546   -0.1583    0.3551 C   0  0  0  0  0  0  0  0  0  0  0  0
    2.8041   -0.2559   -0.2858 N   0  0  0  0  0  0  0  0  0  0  0  0
    1.5842    0.1789    0.2049 C   0  0  0  0  0  0  0  0  0  0  0  0
    1.4437    0.6935    1.2939 O   0  0  0  0  0  0  0  0  0  0  0  0
    0.3868   -0.0723   -0.6842 C   0  0  0  0  0  0  0  0  0  0  0  0
   -0.5379    1.1189   -0.7882 C   0  0  0  0  0  0  0  0  0  0  0  0
   -1.0657    1.3484   -1.8571 O   0  0  0  0  0  0  0  0  0  0  0  0
   -0.7865    1.8494    0.3598 N   0  0  0  0  0  0  0  0  0  0  0  0
   -1.8153    2.7962    0.5353 C   0  0  0  0  0  0  0  0  0  0  0  0
   -2.7292    3.0655   -0.4771 C   0  0  0  0  0  0  0  0  0  0  0  0
   -3.7815    3.9228   -0.2809 C   0  0  0  0  0  0  0  0  0  0  0  0
   -3.9627    4.5513    0.9518 C   0  0  0  0  0  0  0  0  0  0  0  0
   -5.0145    5.4332    1.2480 O   0  0  0  0  0  0  0  0  0  0  0  0
   -5.8840    5.6908    0.1742 C   0  0  0  0  0  0  0  0  0  0  0  0
   -3.0408    4.2860    1.9656 C   0  0  0  0  0  0  0  0  0  0  0  0
   -1.9905    3.4271    1.7629 C   0  0  0  0  0  0  0  0  0  0  0  0
   -0.3763   -1.3244   -0.1957 C   0  0  0  0  0  0  0  0  0  0  0  0
    0.4014   -2.6196   -0.3068 C   0  0  0  0  0  0  0  0  0  0  0  0
    0.1618   -3.5972    0.6420 C   0  0  0  0  0  0  0  0  0  0  0  0
    0.8108   -4.8139    0.6074 C   0  0  0  0  0  0  0  0  0  0  0  0
    1.7177   -5.0766   -0.3961 C   0  0  0  0  0  0  0  0  0  0  0  0
    1.9682   -4.1302   -1.3595 C   0  0  0  0  0  0  0  0  0  0  0  0
    1.3195   -2.8912   -1.3422 C   0  0  0  0  0  0  0  0  0  0  0  0
    1.5959   -1.9715   -2.3419 O   0  0  0  0  0  0  0  0  0  0  0  0
   -1.7648   -1.4147   -0.7790 C   0  0  0  0  0  0  0  0  0  0  0  0
   -2.1502   -1.8507   -2.0306 C   0  0  0  0  0  0  0  0  0  0  0  0
   -1.2801   -2.4063   -3.0862 C   0  0  0  0  0  0  0  0  0  0  0  0
   -3.5066   -1.6466   -2.1835 N   0  0  0  0  0  0  0  0  0  0  0  0
   -4.0034   -1.0340   -1.0490 C   0  0  0  0  0  0  0  0  0  0  0  0
   -5.2770   -0.5511   -0.7271 C   0  0  0  0  0  0  0  0  0  0  0  0
   -5.4532    0.0702    0.4764 C   0  0  0  0  0  0  0  0  0  0  0  0
   -4.3922    0.2253    1.3798 C   0  0  0  0  0  0  0  0  0  0  0  0
   -3.1421   -0.2432    1.0855 C   0  0  0  0  0  0  0  0  0  0  0  0
   -2.9314   -0.8845   -0.1494 C   0  0  0  0  0  0  0  0  0  0  0  0
    5.1893   -0.7171   -0.2259 C   0  0  0  0  0  0  0  0  0  0  0  0
    6.4147   -0.6291    0.3864 C   0  0  0  0  0  0  0  0  0  0  0  0
    8.7483   -1.4667    1.5325 H   0  0  0  0  0  0  0  0  0  0  0  0
    9.0285    0.0916    0.6887 H   0  0  0  0  0  0  0  0  0  0  0  0
    9.7664   -0.2157    2.2737 H   0  0  0  0  0  0  0  0  0  0  0  0
    5.5194    1.0870    3.1354 H   0  0  0  0  0  0  0  0  0  0  0  0
    3.3156    0.9185    2.0269 H   0  0  0  0  0  0  0  0  0  0  0  0
    2.7469   -0.8326   -1.1239 H   0  0  0  0  0  0  0  0  0  0  0  0
    0.7327   -0.2682   -1.7050 H   0  0  0  0  0  0  0  0  0  0  0  0
   -0.1892    1.6542    1.1599 H   0  0  0  0  0  0  0  0  0  0  0  0
   -2.5934    2.5714   -1.4244 H   0  0  0  0  0  0  0  0  0  0  0  0
   -4.4716    4.1048   -1.0829 H   0  0  0  0  0  0  0  0  0  0  0  0
   -5.3300    6.1358   -0.6537 H   0  0  0  0  0  0  0  0  0  0  0  0
   -6.3703    4.7667   -0.1416 H   0  0  0  0  0  0  0  0  0  0  0  0
   -6.6470    6.3954    0.5079 H   0  0  0  0  0  0  0  0  0  0  0  0
   -3.1768    4.7707    2.9149 H   0  0  0  0  0  0  0  0  0  0  0  0
   -1.2919    3.2230    2.5576 H   0  0  0  0  0  0  0  0  0  0  0  0
   -0.5163   -1.1541    0.8851 H   0  0  0  0  0  0  0  0  0  0  0  0
   -0.5516   -3.3981    1.4241 H   0  0  0  0  0  0  0  0  0  0  0  0
    0.6096   -5.5554    1.3620 H   0  0  0  0  0  0  0  0  0  0  0  0
    2.2280   -6.0246   -0.4261 H   0  0  0  0  0  0  0  0  0  0  0  0
    2.6735   -4.3362   -2.1441 H   0  0  0  0  0  0  0  0  0  0  0  0
    2.2165   -2.3663   -2.9933 H   0  0  0  0  0  0  0  0  0  0  0  0
   -1.8395   -2.5624   -4.0081 H   0  0  0  0  0  0  0  0  0  0  0  0
   -0.8591   -3.3633   -2.7791 H   0  0  0  0  0  0  0  0  0  0  0  0
   -0.4583   -1.7242   -3.3026 H   0  0  0  0  0  0  0  0  0  0  0  0
   -4.0441   -1.8161   -3.0346 H   0  0  0  0  0  0  0  0  0  0  0  0
   -6.0840   -0.6642   -1.4272 H   0  0  0  0  0  0  0  0  0  0  0  0
   -6.4261    0.4557    0.7374 H   0  0  0  0  0  0  0  0  0  0  0  0
   -4.5644    0.7313    2.3141 H   0  0  0  0  0  0  0  0  0  0  0  0
   -2.3211   -0.1034    1.7651 H   0  0  0  0  0  0  0  0  0  0  0  0
    5.0896   -1.2239   -1.1717 H   0  0  0  0  0  0  0  0  0  0  0  0
    7.2726   -1.0701   -0.0852 H   0  0  0  0  0  0  0  0  0  0  0  0
  1  2  1  0  0  0  0
  2  3  1  0  0  0  0
  3  4  2  0  0  0  0
  4  5  1  0  0  0  0
  5  6  2  0  0  0  0
  6  7  1  0  0  0  0
  7  8  1  0  0  0  0
  8  9  2  0  0  0  0
  8 10  1  0  0  0  0
 10 11  1  0  0  0  0
 11 12  2  0  0  0  0
 11 13  1  0  0  0  0
 13 14  1  0  0  0  0
 14 15  2  0  0  0  0
 15 16  1  0  0  0  0
 16 17  2  0  0  0  0
 17 18  1  0  0  0  0
 18 19  1  0  0  0  0
 17 20  1  0  0  0  0
 20 21  2  0  0  0  0
 10 22  1  0  0  0  0
 22 23  1  0  0  0  0
 23 24  2  0  0  0  0
 24 25  1  0  0  0  0
 25 26  2  0  0  0  0
 26 27  1  0  0  0  0
 27 28  2  0  0  0  0
 28 29  1  0  0  0  0
 22 30  1  0  0  0  0
 30 31  2  0  0  0  0
 31 32  1  0  0  0  0
 31 33  1  0  0  0  0
 33 34  1  0  0  0  0
 34 35  2  0  0  0  0
 35 36  1  0  0  0  0
 36 37  2  0  0  0  0
 37 38  1  0  0  0  0
 38 39  2  0  0  0  0
  6 40  1  0  0  0  0
 40 41  2  0  0  0  0
 41  3  1  0  0  0  0
 21 14  1  0  0  0  0
 28 23  1  0  0  0  0
 39 30  1  0  0  0  0
 39 34  1  0  0  0  0
  1 42  1  0  0  0  0
  1 43  1  0  0  0  0
  1 44  1  0  0  0  0
  4 45  1  0  0  0  0
  5 46  1  0  0  0  0
  7 47  1  0  0  0  0
 10 48  1  0  0  0  0
 13 49  1  0  0  0  0
 15 50  1  0  0  0  0
 16 51  1  0  0  0  0
 19 52  1  0  0  0  0
 19 53  1  0  0  0  0
 19 54  1  0  0  0  0
 20 55  1  0  0  0  0
 21 56  1  0  0  0  0
 22 57  1  0  0  0  0
 24 58  1  0  0  0  0
 25 59  1  0  0  0  0
 26 60  1  0  0  0  0
 27 61  1  0  0  0  0
 29 62  1  0  0  0  0
 32 63  1  0  0  0  0
 32 64  1  0  0  0  0
 32 65  1  0  0  0  0
 33 66  1  0  0  0  0
 35 67  1  0  0  0  0
 36 68  1  0  0  0  0
 37 69  1  0  0  0  0
 38 70  1  0  0  0  0
 40 71  1  0  0  0  0
 41 72  1  0  0  0  0
M  END
