
  xtb     03012221213D
 energy: -12.412383987961 gnorm: 0.000321008336 xtb: 6.4.1 (afa7bdf)
 59 64  0     0  0            999 V2000
    6.5760   -1.7976    1.5355 C   0  0  0  0  0  0  0  0  0  0  0  0
    5.4403   -1.1962    2.2331 N   0  0  0  0  0  0  0  0  0  0  0  0
    5.6722   -0.7399    3.6030 C   0  0  0  0  0  0  0  0  0  0  0  0
    4.1887   -1.0538    1.6132 C   0  0  0  0  0  0  0  0  0  0  0  0
    3.9605   -1.5469    0.3232 C   0  0  0  0  0  0  0  0  0  0  0  0
    2.7402   -1.3979   -0.2855 C   0  0  0  0  0  0  0  0  0  0  0  0
    1.6924   -0.7363    0.3571 C   0  0  0  0  0  0  0  0  0  0  0  0
    0.3810   -0.6067   -0.3089 C   0  0  0  0  0  0  0  0  0  0  0  0
   -0.0445   -1.6898   -0.9741 N   0  0  0  0  0  0  0  0  0  0  0  0
   -1.3003   -1.7013   -1.3924 C   0  0  0  0  0  0  0  0  0  0  0  0
   -2.2180   -0.6698   -1.1365 C   0  0  0  0  0  0  0  0  0  0  0  0
   -1.7187    0.5365   -0.6328 C   0  0  0  0  0  0  0  0  0  0  0  0
   -0.3825    0.5842   -0.2369 C   0  0  0  0  0  0  0  0  0  0  0  0
    0.1793    1.8785    0.2186 C   0  0  0  0  0  0  0  0  0  0  0  0
    1.5356    2.1837    0.1043 C   0  0  0  0  0  0  0  0  0  0  0  0
    2.0362    3.3864    0.5407 C   0  0  0  0  0  0  0  0  0  0  0  0
    1.1946    4.3440    1.0891 C   0  0  0  0  0  0  0  0  0  0  0  0
    1.7053    5.5691    1.5431 C   0  0  0  0  0  0  0  0  0  0  0  0
    2.1310    6.5818    1.9215 N   0  0  0  0  0  0  0  0  0  0  0  0
   -0.1657    4.0739    1.1580 C   0  0  0  0  0  0  0  0  0  0  0  0
   -0.6819    2.8690    0.7197 C   0  0  0  0  0  0  0  0  0  0  0  0
   -2.1624    2.6290    0.6734 C   0  0  0  0  0  0  0  0  0  0  0  0
   -2.5139    1.8143   -0.5828 C   0  0  0  0  0  0  0  0  0  0  0  0
   -3.6402   -0.8992   -1.4826 C   0  0  0  0  0  0  0  0  0  0  0  0
   -4.6918   -0.3999   -0.7129 C   0  0  0  0  0  0  0  0  0  0  0  0
   -5.9999   -0.6363   -1.0635 C   0  0  0  0  0  0  0  0  0  0  0  0
   -6.3072   -1.4076   -2.1767 C   0  0  0  0  0  0  0  0  0  0  0  0
   -7.6405   -1.6471   -2.5367 C   0  0  0  0  0  0  0  0  0  0  0  0
   -8.7453   -1.8466   -2.8362 N   0  0  0  0  0  0  0  0  0  0  0  0
   -5.2664   -1.9726   -2.9028 C   0  0  0  0  0  0  0  0  0  0  0  0
   -3.9466   -1.7470   -2.5591 C   0  0  0  0  0  0  0  0  0  0  0  0
   -2.8273   -2.4844   -3.2354 C   0  0  0  0  0  0  0  0  0  0  0  0
   -1.7483   -2.8820   -2.2080 C   0  0  0  0  0  0  0  0  0  0  0  0
    1.9081   -0.2681    1.6571 C   0  0  0  0  0  0  0  0  0  0  0  0
    3.1274   -0.4172    2.2670 C   0  0  0  0  0  0  0  0  0  0  0  0
    6.7599   -1.2724    0.6006 H   0  0  0  0  0  0  0  0  0  0  0  0
    7.4803   -1.7419    2.1370 H   0  0  0  0  0  0  0  0  0  0  0  0
    6.3708   -2.8447    1.3230 H   0  0  0  0  0  0  0  0  0  0  0  0
    4.9581   -1.2079    4.2775 H   0  0  0  0  0  0  0  0  0  0  0  0
    5.5620    0.3412    3.6591 H   0  0  0  0  0  0  0  0  0  0  0  0
    6.6733   -0.9994    3.9397 H   0  0  0  0  0  0  0  0  0  0  0  0
    4.7526   -2.0565   -0.1943 H   0  0  0  0  0  0  0  0  0  0  0  0
    2.5705   -1.7900   -1.2732 H   0  0  0  0  0  0  0  0  0  0  0  0
    2.1994    1.4640   -0.3396 H   0  0  0  0  0  0  0  0  0  0  0  0
    3.0879    3.6014    0.4618 H   0  0  0  0  0  0  0  0  0  0  0  0
   -0.8269    4.8271    1.5471 H   0  0  0  0  0  0  0  0  0  0  0  0
   -2.7023    3.5830    0.6920 H   0  0  0  0  0  0  0  0  0  0  0  0
   -2.4669    2.0836    1.5732 H   0  0  0  0  0  0  0  0  0  0  0  0
   -2.2632    2.4027   -1.4748 H   0  0  0  0  0  0  0  0  0  0  0  0
   -3.5903    1.6376   -0.6586 H   0  0  0  0  0  0  0  0  0  0  0  0
   -4.4753    0.1240    0.2015 H   0  0  0  0  0  0  0  0  0  0  0  0
   -6.8051   -0.2355   -0.4710 H   0  0  0  0  0  0  0  0  0  0  0  0
   -5.4992   -2.6133   -3.7349 H   0  0  0  0  0  0  0  0  0  0  0  0
   -2.3917   -1.8442   -4.0104 H   0  0  0  0  0  0  0  0  0  0  0  0
   -3.2200   -3.3679   -3.7524 H   0  0  0  0  0  0  0  0  0  0  0  0
   -0.8752   -3.3234   -2.7028 H   0  0  0  0  0  0  0  0  0  0  0  0
   -2.1367   -3.6516   -1.5320 H   0  0  0  0  0  0  0  0  0  0  0  0
    1.0983    0.2150    2.1757 H   0  0  0  0  0  0  0  0  0  0  0  0
    3.2725   -0.0367    3.2615 H   0  0  0  0  0  0  0  0  0  0  0  0
  1  2  1  0  0  0  0
  2  3  1  0  0  0  0
  2  4  1  0  0  0  0
  4  5  2  0  0  0  0
  5  6  1  0  0  0  0
  6  7  2  0  0  0  0
  7  8  1  0  0  0  0
  8  9  2  0  0  0  0
  9 10  1  0  0  0  0
 10 11  2  0  0  0  0
 11 12  1  0  0  0  0
 12 13  2  0  0  0  0
 13 14  1  0  0  0  0
 14 15  2  0  0  0  0
 15 16  1  0  0  0  0
 16 17  2  0  0  0  0
 17 18  1  0  0  0  0
 18 19  3  0  0  0  0
 17 20  1  0  0  0  0
 20 21  2  0  0  0  0
 21 22  1  0  0  0  0
 22 23  1  0  0  0  0
 11 24  1  0  0  0  0
 24 25  2  0  0  0  0
 25 26  1  0  0  0  0
 26 27  2  0  0  0  0
 27 28  1  0  0  0  0
 28 29  3  0  0  0  0
 27 30  1  0  0  0  0
 30 31  2  0  0  0  0
 31 32  1  0  0  0  0
 32 33  1  0  0  0  0
  7 34  1  0  0  0  0
 34 35  2  0  0  0  0
 35  4  1  0  0  0  0
 13  8  1  0  0  0  0
 21 14  1  0  0  0  0
 31 24  1  0  0  0  0
 33 10  1  0  0  0  0
 23 12  1  0  0  0  0
  1 36  1  0  0  0  0
  1 37  1  0  0  0  0
  1 38  1  0  0  0  0
  3 39  1  0  0  0  0
  3 40  1  0  0  0  0
  3 41  1  0  0  0  0
  5 42  1  0  0  0  0
  6 43  1  0  0  0  0
 15 44  1  0  0  0  0
 16 45  1  0  0  0  0
 20 46  1  0  0  0  0
 22 47  1  0  0  0  0
 22 48  1  0  0  0  0
 23 49  1  0  0  0  0
 23 50  1  0  0  0  0
 25 51  1  0  0  0  0
 26 52  1  0  0  0  0
 30 53  1  0  0  0  0
 32 54  1  0  0  0  0
 32 55  1  0  0  0  0
 33 56  1  0  0  0  0
 33 57  1  0  0  0  0
 34 58  1  0  0  0  0
 35 59  1  0  0  0  0
M  END
