
  xtb     03012221223D
 energy: -11.431787400831 gnorm: 0.000126262549 xtb: 6.4.1 (afa7bdf)
 58 62  0     0  0            999 V2000
   -0.9489    0.3479    1.6276 O   0  0  0  0  0  0  0  0  0  0  0  0
   -2.3046    0.1161    1.6933 C   0  0  0  0  0  0  0  0  0  0  0  0
   -2.8970    0.0269    2.9744 C   0  0  0  0  0  0  0  0  0  0  0  0
   -4.2098   -0.2777    3.1307 C   0  0  0  0  0  0  0  0  0  0  0  0
   -5.0389   -0.5114    2.0088 C   0  0  0  0  0  0  0  0  0  0  0  0
   -6.4023   -0.8372    2.1562 C   0  0  0  0  0  0  0  0  0  0  0  0
   -7.1933   -1.0383    1.0641 C   0  0  0  0  0  0  0  0  0  0  0  0
   -6.6599   -0.9179   -0.2209 C   0  0  0  0  0  0  0  0  0  0  0  0
   -5.3444   -0.6048   -0.3982 C   0  0  0  0  0  0  0  0  0  0  0  0
   -4.4893   -0.4009    0.7073 C   0  0  0  0  0  0  0  0  0  0  0  0
   -3.1067   -0.0619    0.5563 C   0  0  0  0  0  0  0  0  0  0  0  0
   -2.5122    0.1316   -0.7431 C   0  0  0  0  0  0  0  0  0  0  0  0
   -1.5646    0.9588   -0.9415 N   0  0  0  0  0  0  0  0  0  0  0  0
   -0.8172    0.9820   -2.1233 C   0  0  0  0  0  0  0  0  0  0  0  0
    0.0981    2.2444   -2.1567 C   0  0  0  0  0  0  0  0  0  0  0  0
    1.4759    1.9932   -2.8111 C   0  0  0  0  0  0  0  0  0  0  0  0
    1.3667    1.0035   -3.9826 C   0  0  0  0  0  0  0  0  0  0  0  0
    0.8526   -0.3882   -3.5279 C   0  0  0  0  0  0  0  0  0  0  0  0
    0.0288   -0.3346   -2.2052 C   0  0  0  0  0  0  0  0  0  0  0  0
    0.7517   -0.4660   -1.0071 N   0  0  0  0  0  0  0  0  0  0  0  0
    2.0011   -0.6887   -0.8691 C   0  0  0  0  0  0  0  0  0  0  0  0
    2.6607   -0.7457    0.4131 C   0  0  0  0  0  0  0  0  0  0  0  0
    1.9230   -1.1414    1.5389 C   0  0  0  0  0  0  0  0  0  0  0  0
    0.6369   -1.6107    1.3928 O   0  0  0  0  0  0  0  0  0  0  0  0
    2.5145   -1.0752    2.8214 C   0  0  0  0  0  0  0  0  0  0  0  0
    3.8021   -0.6805    2.9825 C   0  0  0  0  0  0  0  0  0  0  0  0
    4.5950   -0.3142    1.8699 C   0  0  0  0  0  0  0  0  0  0  0  0
    5.9346    0.0940    2.0294 C   0  0  0  0  0  0  0  0  0  0  0  0
    6.6828    0.4694    0.9536 C   0  0  0  0  0  0  0  0  0  0  0  0
    6.1250    0.4581   -0.3260 C   0  0  0  0  0  0  0  0  0  0  0  0
    4.8322    0.0673   -0.5154 C   0  0  0  0  0  0  0  0  0  0  0  0
    4.0260   -0.3408    0.5714 C   0  0  0  0  0  0  0  0  0  0  0  0
   -0.5373    0.0780    0.7476 H   0  0  0  0  0  0  0  0  0  0  0  0
   -2.2670    0.1906    3.8300 H   0  0  0  0  0  0  0  0  0  0  0  0
   -4.6368   -0.3495    4.1166 H   0  0  0  0  0  0  0  0  0  0  0  0
   -6.8134   -0.9225    3.1477 H   0  0  0  0  0  0  0  0  0  0  0  0
   -8.2344   -1.2861    1.1897 H   0  0  0  0  0  0  0  0  0  0  0  0
   -7.2964   -1.0711   -1.0775 H   0  0  0  0  0  0  0  0  0  0  0  0
   -4.9521   -0.5017   -1.3936 H   0  0  0  0  0  0  0  0  0  0  0  0
   -2.8447   -0.4731   -1.5703 H   0  0  0  0  0  0  0  0  0  0  0  0
   -1.5138    1.0136   -2.9751 H   0  0  0  0  0  0  0  0  0  0  0  0
    0.2288    2.5775   -1.1216 H   0  0  0  0  0  0  0  0  0  0  0  0
   -0.4194    3.0655   -2.6641 H   0  0  0  0  0  0  0  0  0  0  0  0
    1.9261    2.9389   -3.1431 H   0  0  0  0  0  0  0  0  0  0  0  0
    2.1675    1.5916   -2.0615 H   0  0  0  0  0  0  0  0  0  0  0  0
    2.3297    0.9102   -4.5029 H   0  0  0  0  0  0  0  0  0  0  0  0
    0.6759    1.4213   -4.7259 H   0  0  0  0  0  0  0  0  0  0  0  0
    0.2347   -0.8258   -4.3209 H   0  0  0  0  0  0  0  0  0  0  0  0
    1.6862   -1.0857   -3.4146 H   0  0  0  0  0  0  0  0  0  0  0  0
   -0.6745   -1.1835   -2.2033 H   0  0  0  0  0  0  0  0  0  0  0  0
    2.6115   -0.7511   -1.7494 H   0  0  0  0  0  0  0  0  0  0  0  0
    0.1361   -1.5154    2.2364 H   0  0  0  0  0  0  0  0  0  0  0  0
    1.9258   -1.3651    3.6730 H   0  0  0  0  0  0  0  0  0  0  0  0
    4.2392   -0.6443    3.9659 H   0  0  0  0  0  0  0  0  0  0  0  0
    6.3603    0.1090    3.0184 H   0  0  0  0  0  0  0  0  0  0  0  0
    7.7056    0.7804    1.0888 H   0  0  0  0  0  0  0  0  0  0  0  0
    6.7233    0.7639   -1.1693 H   0  0  0  0  0  0  0  0  0  0  0  0
    4.4205    0.0770   -1.5078 H   0  0  0  0  0  0  0  0  0  0  0  0
  1  2  1  0  0  0  0
  2  3  2  0  0  0  0
  3  4  1  0  0  0  0
  4  5  2  0  0  0  0
  5  6  1  0  0  0  0
  6  7  2  0  0  0  0
  7  8  1  0  0  0  0
  8  9  2  0  0  0  0
  9 10  1  0  0  0  0
 10 11  2  0  0  0  0
 11 12  1  0  0  0  0
 12 13  2  0  0  0  0
 13 14  1  0  0  0  0
 14 15  1  0  0  0  0
 15 16  1  0  0  0  0
 16 17  1  0  0  0  0
 17 18  1  0  0  0  0
 18 19  1  0  0  0  0
 19 20  1  0  0  0  0
 20 21  2  0  0  0  0
 21 22  1  0  0  0  0
 22 23  2  0  0  0  0
 23 24  1  0  0  0  0
 23 25  1  0  0  0  0
 25 26  2  0  0  0  0
 26 27  1  0  0  0  0
 27 28  2  0  0  0  0
 28 29  1  0  0  0  0
 29 30  2  0  0  0  0
 30 31  1  0  0  0  0
 31 32  2  0  0  0  0
 11  2  1  0  0  0  0
 19 14  1  0  0  0  0
 32 22  1  0  0  0  0
 10  5  1  0  0  0  0
 32 27  1  0  0  0  0
  1 33  1  0  0  0  0
  3 34  1  0  0  0  0
  4 35  1  0  0  0  0
  6 36  1  0  0  0  0
  7 37  1  0  0  0  0
  8 38  1  0  0  0  0
  9 39  1  0  0  0  0
 12 40  1  0  0  0  0
 14 41  1  0  0  0  0
 15 42  1  0  0  0  0
 15 43  1  0  0  0  0
 16 44  1  0  0  0  0
 16 45  1  0  0  0  0
 17 46  1  0  0  0  0
 17 47  1  0  0  0  0
 18 48  1  0  0  0  0
 18 49  1  0  0  0  0
 19 50  1  0  0  0  0
 21 51  1  0  0  0  0
 24 52  1  0  0  0  0
 25 53  1  0  0  0  0
 26 54  1  0  0  0  0
 28 55  1  0  0  0  0
 29 56  1  0  0  0  0
 30 57  1  0  0  0  0
 31 58  1  0  0  0  0
M  END
