
  xtb     03012221203D
 energy: -15.520745816876 gnorm: 0.000396785352 xtb: 6.4.1 (afa7bdf)
 77 83  0     0  0            999 V2000
    6.9516    1.9075   -1.3530 C   0  0  0  0  0  0  0  0  0  0  0  0
    8.3361    1.2988   -1.2106 C   0  0  0  0  0  0  0  0  0  0  0  0
    9.0613    1.7253    0.0690 C   0  0  0  0  0  0  0  0  0  0  0  0
    8.4029    1.2759    1.3860 C   0  0  0  0  0  0  0  0  0  0  0  0
    8.7685   -0.1367    1.8571 C   0  0  0  0  0  0  0  0  0  0  0  0
    8.1408   -1.2630    1.0466 C   0  0  0  0  0  0  0  0  0  0  0  0
    6.7059   -1.1055    0.8709 N   0  0  0  0  0  0  0  0  0  0  0  0
    5.9037   -0.9272    2.0075 C   0  0  0  0  0  0  0  0  0  0  0  0
    6.3832   -0.8785    3.1268 O   0  0  0  0  0  0  0  0  0  0  0  0
    4.4581   -0.7893    1.8090 C   0  0  0  0  0  0  0  0  0  0  0  0
    3.6321   -0.5859    2.8866 C   0  0  0  0  0  0  0  0  0  0  0  0
    2.2595   -0.4535    2.7146 C   0  0  0  0  0  0  0  0  0  0  0  0
    1.7129   -0.5254    1.4667 C   0  0  0  0  0  0  0  0  0  0  0  0
    2.5071   -0.7341    0.3208 C   0  0  0  0  0  0  0  0  0  0  0  0
    1.9615   -0.8185   -1.0067 C   0  0  0  0  0  0  0  0  0  0  0  0
    0.5394   -0.6942   -1.2587 C   0  0  0  0  0  0  0  0  0  0  0  0
   -0.0977   -0.7582   -2.4729 C   0  0  0  0  0  0  0  0  0  0  0  0
   -1.5008   -0.6043   -2.4087 C   0  0  0  0  0  0  0  0  0  0  0  0
   -1.9909   -0.4162   -1.1432 C   0  0  0  0  0  0  0  0  0  0  0  0
   -3.3722   -0.2322   -0.7627 C   0  0  0  0  0  0  0  0  0  0  0  0
   -4.4753   -0.2201   -1.6455 C   0  0  0  0  0  0  0  0  0  0  0  0
   -5.5892   -0.0114   -0.8813 C   0  0  0  0  0  0  0  0  0  0  0  0
   -6.9756    0.1068   -1.3380 C   0  0  0  0  0  0  0  0  0  0  0  0
   -7.9067    0.8597   -0.6260 C   0  0  0  0  0  0  0  0  0  0  0  0
   -9.2063    0.9768   -1.0643 C   0  0  0  0  0  0  0  0  0  0  0  0
   -9.6237    0.3448   -2.2266 C   0  0  0  0  0  0  0  0  0  0  0  0
  -11.0228    0.4946   -2.7114 C   0  0  0  0  0  0  0  0  0  0  0  0
   -8.6969   -0.3945   -2.9477 C   0  0  0  0  0  0  0  0  0  0  0  0
   -7.3956   -0.5141   -2.5129 C   0  0  0  0  0  0  0  0  0  0  0  0
   -5.1009    0.0760    0.4339 N   0  0  0  0  0  0  0  0  0  0  0  0
   -5.9016    0.2278    1.6270 C   0  0  0  0  0  0  0  0  0  0  0  0
   -6.8734   -0.7068    1.9531 C   0  0  0  0  0  0  0  0  0  0  0  0
   -7.6344   -0.5492    3.0904 C   0  0  0  0  0  0  0  0  0  0  0  0
   -7.4273    0.5391    3.9147 C   0  0  0  0  0  0  0  0  0  0  0  0
   -6.4546    1.4682    3.6019 C   0  0  0  0  0  0  0  0  0  0  0  0
   -5.6930    1.3119    2.4647 C   0  0  0  0  0  0  0  0  0  0  0  0
   -3.7796   -0.0477    0.4920 N   0  0  0  0  0  0  0  0  0  0  0  0
   -0.6649   -0.4324   -0.0176 S   0  0  0  0  0  0  0  0  0  0  0  0
    2.8353   -1.0289   -2.0626 C   0  0  0  0  0  0  0  0  0  0  0  0
    4.1995   -1.1571   -1.8691 C   0  0  0  0  0  0  0  0  0  0  0  0
    4.7493   -1.0802   -0.6116 C   0  0  0  0  0  0  0  0  0  0  0  0
    3.9065   -0.8671    0.5050 C   0  0  0  0  0  0  0  0  0  0  0  0
    6.1933   -1.2098   -0.4309 C   0  0  0  0  0  0  0  0  0  0  0  0
    6.9304   -1.3871   -1.3868 O   0  0  0  0  0  0  0  0  0  0  0  0
    6.4775    1.6224   -2.2963 H   0  0  0  0  0  0  0  0  0  0  0  0
    6.2830    1.5835   -0.5527 H   0  0  0  0  0  0  0  0  0  0  0  0
    6.9918    2.9989   -1.3204 H   0  0  0  0  0  0  0  0  0  0  0  0
    8.2644    0.2077   -1.2544 H   0  0  0  0  0  0  0  0  0  0  0  0
    8.9439    1.5717   -2.0842 H   0  0  0  0  0  0  0  0  0  0  0  0
    9.1413    2.8203    0.0583 H   0  0  0  0  0  0  0  0  0  0  0  0
   10.0982    1.3672    0.0529 H   0  0  0  0  0  0  0  0  0  0  0  0
    8.6766    1.9865    2.1785 H   0  0  0  0  0  0  0  0  0  0  0  0
    7.3141    1.3563    1.3067 H   0  0  0  0  0  0  0  0  0  0  0  0
    9.8590   -0.2485    1.8855 H   0  0  0  0  0  0  0  0  0  0  0  0
    8.4353   -0.2551    2.8972 H   0  0  0  0  0  0  0  0  0  0  0  0
    8.5998   -1.3386    0.0570 H   0  0  0  0  0  0  0  0  0  0  0  0
    8.3055   -2.2331    1.5282 H   0  0  0  0  0  0  0  0  0  0  0  0
    4.0712   -0.5341    3.8683 H   0  0  0  0  0  0  0  0  0  0  0  0
    1.6271   -0.2955    3.5723 H   0  0  0  0  0  0  0  0  0  0  0  0
    0.6406   -0.4216    1.3580 H   0  0  0  0  0  0  0  0  0  0  0  0
    0.4198   -0.9147   -3.4056 H   0  0  0  0  0  0  0  0  0  0  0  0
   -2.1354   -0.6333   -3.2822 H   0  0  0  0  0  0  0  0  0  0  0  0
   -4.4428   -0.3278   -2.7156 H   0  0  0  0  0  0  0  0  0  0  0  0
   -7.5954    1.3588    0.2739 H   0  0  0  0  0  0  0  0  0  0  0  0
   -9.9133    1.5655   -0.5053 H   0  0  0  0  0  0  0  0  0  0  0  0
  -11.7215    0.5715   -1.8773 H   0  0  0  0  0  0  0  0  0  0  0  0
  -11.1267    1.3925   -3.3218 H   0  0  0  0  0  0  0  0  0  0  0  0
  -11.3240   -0.3610   -3.3173 H   0  0  0  0  0  0  0  0  0  0  0  0
   -9.0070   -0.8772   -3.8585 H   0  0  0  0  0  0  0  0  0  0  0  0
   -6.6901   -1.0987   -3.0769 H   0  0  0  0  0  0  0  0  0  0  0  0
   -7.0235   -1.5508    1.3024 H   0  0  0  0  0  0  0  0  0  0  0  0
   -8.3905   -1.2762    3.3371 H   0  0  0  0  0  0  0  0  0  0  0  0
   -8.0222    0.6615    4.8048 H   0  0  0  0  0  0  0  0  0  0  0  0
   -6.2893    2.3141    4.2485 H   0  0  0  0  0  0  0  0  0  0  0  0
   -4.9271    2.0238    2.2101 H   0  0  0  0  0  0  0  0  0  0  0  0
    2.4463   -1.0972   -3.0623 H   0  0  0  0  0  0  0  0  0  0  0  0
    4.8581   -1.3235   -2.7050 H   0  0  0  0  0  0  0  0  0  0  0  0
  1  2  1  0  0  0  0
  2  3  1  0  0  0  0
  3  4  1  0  0  0  0
  4  5  1  0  0  0  0
  5  6  1  0  0  0  0
  6  7  1  0  0  0  0
  7  8  1  0  0  0  0
  8  9  2  0  0  0  0
  8 10  1  0  0  0  0
 10 11  1  0  0  0  0
 11 12  2  0  0  0  0
 12 13  1  0  0  0  0
 13 14  2  0  0  0  0
 14 15  1  0  0  0  0
 15 16  1  0  0  0  0
 16 17  2  0  0  0  0
 17 18  1  0  0  0  0
 18 19  2  0  0  0  0
 19 20  1  0  0  0  0
 20 21  1  0  0  0  0
 21 22  2  0  0  0  0
 22 23  1  0  0  0  0
 23 24  2  0  0  0  0
 24 25  1  0  0  0  0
 25 26  2  0  0  0  0
 26 27  1  0  0  0  0
 26 28  1  0  0  0  0
 28 29  2  0  0  0  0
 22 30  1  0  0  0  0
 30 31  1  0  0  0  0
 31 32  2  0  0  0  0
 32 33  1  0  0  0  0
 33 34  2  0  0  0  0
 34 35  1  0  0  0  0
 35 36  2  0  0  0  0
 30 37  1  0  0  0  0
 19 38  1  0  0  0  0
 15 39  2  0  0  0  0
 39 40  1  0  0  0  0
 40 41  2  0  0  0  0
 41 42  1  0  0  0  0
 41 43  1  0  0  0  0
 43 44  2  0  0  0  0
 43  7  1  0  0  0  0
 42 10  2  0  0  0  0
 42 14  1  0  0  0  0
 38 16  1  0  0  0  0
 37 20  2  0  0  0  0
 29 23  1  0  0  0  0
 36 31  1  0  0  0  0
  1 45  1  0  0  0  0
  1 46  1  0  0  0  0
  1 47  1  0  0  0  0
  2 48  1  0  0  0  0
  2 49  1  0  0  0  0
  3 50  1  0  0  0  0
  3 51  1  0  0  0  0
  4 52  1  0  0  0  0
  4 53  1  0  0  0  0
  5 54  1  0  0  0  0
  5 55  1  0  0  0  0
  6 56  1  0  0  0  0
  6 57  1  0  0  0  0
 11 58  1  0  0  0  0
 12 59  1  0  0  0  0
 13 60  1  0  0  0  0
 17 61  1  0  0  0  0
 18 62  1  0  0  0  0
 21 63  1  0  0  0  0
 24 64  1  0  0  0  0
 25 65  1  0  0  0  0
 27 66  1  0  0  0  0
 27 67  1  0  0  0  0
 27 68  1  0  0  0  0
 28 69  1  0  0  0  0
 29 70  1  0  0  0  0
 32 71  1  0  0  0  0
 33 72  1  0  0  0  0
 34 73  1  0  0  0  0
 35 74  1  0  0  0  0
 36 75  1  0  0  0  0
 39 76  1  0  0  0  0
 40 77  1  0  0  0  0
M  END
