
  xtb     03012221253D
 energy: -7.405008491628 gnorm: 0.000281761290 xtb: 6.4.1 (afa7bdf)
 34 38  0     0  0            999 V2000
    2.1409    2.9597    0.4130 C   0  0  0  0  0  0  0  0  0  0  0  0
    0.9751    2.0514    0.2583 C   0  0  0  0  0  0  0  0  0  0  0  0
   -0.3024    2.5540    0.2380 C   0  0  0  0  0  0  0  0  0  0  0  0
   -1.4255    1.7063    0.0915 C   0  0  0  0  0  0  0  0  0  0  0  0
   -2.7713    2.0266    0.0492 O   0  0  0  0  0  0  0  0  0  0  0  0
   -3.4594    0.8353   -0.1075 C   0  0  0  0  0  0  0  0  0  0  0  0
   -4.8331    0.5835   -0.2085 C   0  0  0  0  0  0  0  0  0  0  0  0
   -5.2679   -0.7065   -0.3611 C   0  0  0  0  0  0  0  0  0  0  0  0
   -4.3645   -1.7752   -0.4178 C   0  0  0  0  0  0  0  0  0  0  0  0
   -3.0152   -1.5594   -0.3218 C   0  0  0  0  0  0  0  0  0  0  0  0
   -2.5547   -0.2475   -0.1656 C   0  0  0  0  0  0  0  0  0  0  0  0
   -1.2533    0.3181   -0.0374 C   0  0  0  0  0  0  0  0  0  0  0  0
    0.0549   -0.2226   -0.0191 C   0  0  0  0  0  0  0  0  0  0  0  0
    0.5068   -1.5267   -0.1242 N   0  0  0  0  0  0  0  0  0  0  0  0
    1.8947   -1.5246   -0.0475 C   0  0  0  0  0  0  0  0  0  0  0  0
    2.8117   -2.5767   -0.1017 C   0  0  0  0  0  0  0  0  0  0  0  0
    4.1483   -2.2891    0.0007 C   0  0  0  0  0  0  0  0  0  0  0  0
    4.5916   -0.9713    0.1566 C   0  0  0  0  0  0  0  0  0  0  0  0
    3.7046    0.0747    0.2119 C   0  0  0  0  0  0  0  0  0  0  0  0
    2.3342   -0.1929    0.1096 C   0  0  0  0  0  0  0  0  0  0  0  0
    1.1553    0.6421    0.1278 C   0  0  0  0  0  0  0  0  0  0  0  0
    2.7088    2.7132    1.3106 H   0  0  0  0  0  0  0  0  0  0  0  0
    2.8061    2.8879   -0.4480 H   0  0  0  0  0  0  0  0  0  0  0  0
    1.8249    3.9999    0.4988 H   0  0  0  0  0  0  0  0  0  0  0  0
   -0.4706    3.6103    0.3340 H   0  0  0  0  0  0  0  0  0  0  0  0
   -5.5211    1.4085   -0.1642 H   0  0  0  0  0  0  0  0  0  0  0  0
   -6.3242   -0.9045   -0.4392 H   0  0  0  0  0  0  0  0  0  0  0  0
   -4.7372   -2.7787   -0.5385 H   0  0  0  0  0  0  0  0  0  0  0  0
   -2.3138   -2.3721   -0.3642 H   0  0  0  0  0  0  0  0  0  0  0  0
   -0.0734   -2.3571   -0.2390 H   0  0  0  0  0  0  0  0  0  0  0  0
    2.4597   -3.5856   -0.2218 H   0  0  0  0  0  0  0  0  0  0  0  0
    4.8693   -3.0891   -0.0392 H   0  0  0  0  0  0  0  0  0  0  0  0
    5.6486   -0.7760    0.2345 H   0  0  0  0  0  0  0  0  0  0  0  0
    4.0521    1.0843    0.3318 H   0  0  0  0  0  0  0  0  0  0  0  0
  1  2  1  0  0  0  0
  2  3  2  0  0  0  0
  3  4  1  0  0  0  0
  4  5  1  0  0  0  0
  5  6  1  0  0  0  0
  6  7  2  0  0  0  0
  7  8  1  0  0  0  0
  8  9  2  0  0  0  0
  9 10  1  0  0  0  0
 10 11  2  0  0  0  0
 11 12  1  0  0  0  0
 12 13  1  0  0  0  0
 13 14  1  0  0  0  0
 14 15  1  0  0  0  0
 15 16  2  0  0  0  0
 16 17  1  0  0  0  0
 17 18  2  0  0  0  0
 18 19  1  0  0  0  0
 19 20  2  0  0  0  0
 20 21  1  0  0  0  0
 21  2  1  0  0  0  0
 12  4  2  0  0  0  0
 21 13  2  0  0  0  0
 11  6  1  0  0  0  0
 20 15  1  0  0  0  0
  1 22  1  0  0  0  0
  1 23  1  0  0  0  0
  1 24  1  0  0  0  0
  3 25  1  0  0  0  0
  7 26  1  0  0  0  0
  8 27  1  0  0  0  0
  9 28  1  0  0  0  0
 10 29  1  0  0  0  0
 14 30  1  0  0  0  0
 16 31  1  0  0  0  0
 17 32  1  0  0  0  0
 18 33  1  0  0  0  0
 19 34  1  0  0  0  0
M  END
