
  xtb     03012221213D
 energy: -5.305510965694 gnorm: 0.000235700245 xtb: 6.4.1 (afa7bdf)
 27 28  0     0  0            999 V2000
    3.1699   -0.4223    1.7987 C   0  0  0  0  0  0  0  0  0  0  0  0
    3.4881    0.2971    0.5052 C   0  0  0  0  0  0  0  0  0  0  0  0
    2.5360    0.0388   -0.4981 O   0  0  0  0  0  0  0  0  0  0  0  0
    1.3561    0.6426   -0.1910 C   0  0  0  0  0  0  0  0  0  0  0  0
    1.1684    1.3329    0.7845 O   0  0  0  0  0  0  0  0  0  0  0  0
    0.2162    0.3957   -1.1455 C   0  0  0  0  0  0  0  0  0  0  0  0
   -0.6386    1.6547   -1.3964 C   0  0  0  0  0  0  0  0  0  0  0  0
   -2.0378    1.2969   -0.9710 C   0  0  0  0  0  0  0  0  0  0  0  0
   -3.1356    2.1131   -1.0504 C   0  0  0  0  0  0  0  0  0  0  0  0
   -4.0809    2.7962   -1.1172 N   0  0  0  0  0  0  0  0  0  0  0  0
   -2.0312    0.0043   -0.4722 C   0  0  0  0  0  0  0  0  0  0  0  0
   -3.0570   -0.7804    0.0682 C   0  0  0  0  0  0  0  0  0  0  0  0
   -2.7063   -2.0243    0.4772 C   0  0  0  0  0  0  0  0  0  0  0  0
   -1.3827   -2.4627    0.3482 C   0  0  0  0  0  0  0  0  0  0  0  0
   -0.4006   -1.7624   -0.1547 N   0  0  0  0  0  0  0  0  0  0  0  0
   -0.7528   -0.5508   -0.5558 N   0  0  0  0  0  0  0  0  0  0  0  0
    2.1980   -0.0996    2.1758 H   0  0  0  0  0  0  0  0  0  0  0  0
    3.9152   -0.2322    2.5726 H   0  0  0  0  0  0  0  0  0  0  0  0
    3.1114   -1.4984    1.6348 H   0  0  0  0  0  0  0  0  0  0  0  0
    3.5194    1.3869    0.6461 H   0  0  0  0  0  0  0  0  0  0  0  0
    4.4639   -0.0077    0.1040 H   0  0  0  0  0  0  0  0  0  0  0  0
    0.6007   -0.0424   -2.0756 H   0  0  0  0  0  0  0  0  0  0  0  0
   -0.2665    2.4841   -0.7850 H   0  0  0  0  0  0  0  0  0  0  0  0
   -0.6174    1.9737   -2.4442 H   0  0  0  0  0  0  0  0  0  0  0  0
   -4.0588   -0.3983    0.1513 H   0  0  0  0  0  0  0  0  0  0  0  0
   -3.4471   -2.6793    0.9060 H   0  0  0  0  0  0  0  0  0  0  0  0
   -1.1299   -3.4561    0.6843 H   0  0  0  0  0  0  0  0  0  0  0  0
  1  2  1  0  0  0  0
  2  3  1  0  0  0  0
  3  4  1  0  0  0  0
  4  5  2  0  0  0  0
  4  6  1  0  0  0  0
  6  7  1  0  0  0  0
  7  8  1  0  0  0  0
  8  9  1  0  0  0  0
  9 10  3  0  0  0  0
  8 11  2  0  0  0  0
 11 12  1  0  0  0  0
 12 13  2  0  0  0  0
 13 14  1  0  0  0  0
 14 15  2  0  0  0  0
 15 16  1  0  0  0  0
 16  6  1  0  0  0  0
 16 11  1  0  0  0  0
  1 17  1  0  0  0  0
  1 18  1  0  0  0  0
  1 19  1  0  0  0  0
  2 20  1  0  0  0  0
  2 21  1  0  0  0  0
  6 22  1  0  0  0  0
  7 23  1  0  0  0  0
  7 24  1  0  0  0  0
 12 25  1  0  0  0  0
 13 26  1  0  0  0  0
 14 27  1  0  0  0  0
M  END
