
  xtb     03012221243D
 energy: -8.430265407406 gnorm: 0.000289236490 xtb: 6.4.1 (afa7bdf)
 42 44  0     0  0            999 V2000
   -2.8282    2.7701   -3.2069 C   0  0  0  0  0  0  0  0  0  0  0  0
   -2.6237    2.2724   -1.9274 O   0  0  0  0  0  0  0  0  0  0  0  0
   -1.7922    1.1914   -1.9934 C   0  0  0  0  0  0  0  0  0  0  0  0
   -1.3120    0.7810   -3.0324 O   0  0  0  0  0  0  0  0  0  0  0  0
   -1.4729    0.5071   -0.7072 C   0  0  0  0  0  0  0  0  0  0  0  0
   -2.3198   -0.3557    0.0081 C   0  0  0  0  0  0  0  0  0  0  0  0
   -3.6972   -0.7432   -0.3224 C   0  0  0  0  0  0  0  0  0  0  0  0
   -4.2389   -0.3277   -1.3311 O   0  0  0  0  0  0  0  0  0  0  0  0
   -4.3179   -1.5892    0.5567 O   0  0  0  0  0  0  0  0  0  0  0  0
   -5.6061   -1.8576    0.1088 C   0  0  0  0  0  0  0  0  0  0  0  0
   -1.5926   -0.8082    1.1184 C   0  0  0  0  0  0  0  0  0  0  0  0
   -1.9346   -1.6601    2.1671 C   0  0  0  0  0  0  0  0  0  0  0  0
   -0.9807   -1.8698    3.1070 C   0  0  0  0  0  0  0  0  0  0  0  0
    0.2631   -1.2400    2.9886 C   0  0  0  0  0  0  0  0  0  0  0  0
    0.6123   -0.4443    2.0204 N   0  0  0  0  0  0  0  0  0  0  0  0
   -0.3287   -0.2493    1.0811 N   0  0  0  0  0  0  0  0  0  0  0  0
   -0.2449    0.5618   -0.0493 C   0  0  0  0  0  0  0  0  0  0  0  0
    0.9092    1.3854   -0.4294 C   0  0  0  0  0  0  0  0  0  0  0  0
    0.7543    2.4772   -0.9464 O   0  0  0  0  0  0  0  0  0  0  0  0
    2.2820    0.8882   -0.1882 C   0  0  0  0  0  0  0  0  0  0  0  0
    3.3343    1.7891   -0.1897 C   0  0  0  0  0  0  0  0  0  0  0  0
    4.6271    1.3572   -0.0029 C   0  0  0  0  0  0  0  0  0  0  0  0
    4.9066    0.0134    0.1894 C   0  0  0  0  0  0  0  0  0  0  0  0
    6.3094   -0.4505    0.3674 C   0  0  0  0  0  0  0  0  0  0  0  0
    3.8541   -0.8889    0.1711 C   0  0  0  0  0  0  0  0  0  0  0  0
    2.5606   -0.4605   -0.0154 C   0  0  0  0  0  0  0  0  0  0  0  0
   -3.2967    1.9880   -3.8073 H   0  0  0  0  0  0  0  0  0  0  0  0
   -1.8589    3.0363   -3.6328 H   0  0  0  0  0  0  0  0  0  0  0  0
   -3.4747    3.6459   -3.1479 H   0  0  0  0  0  0  0  0  0  0  0  0
   -6.0934   -2.5453    0.8022 H   0  0  0  0  0  0  0  0  0  0  0  0
   -5.5460   -2.3032   -0.8868 H   0  0  0  0  0  0  0  0  0  0  0  0
   -6.1608   -0.9181    0.0550 H   0  0  0  0  0  0  0  0  0  0  0  0
   -2.9119   -2.1065    2.2085 H   0  0  0  0  0  0  0  0  0  0  0  0
   -1.1802   -2.5137    3.9468 H   0  0  0  0  0  0  0  0  0  0  0  0
    1.0055   -1.4107    3.7512 H   0  0  0  0  0  0  0  0  0  0  0  0
    3.1155    2.8303   -0.3529 H   0  0  0  0  0  0  0  0  0  0  0  0
    5.4382    2.0671   -0.0099 H   0  0  0  0  0  0  0  0  0  0  0  0
    6.8090   -0.5500   -0.5965 H   0  0  0  0  0  0  0  0  0  0  0  0
    6.8806    0.2541    0.9725 H   0  0  0  0  0  0  0  0  0  0  0  0
    6.3446   -1.4192    0.8663 H   0  0  0  0  0  0  0  0  0  0  0  0
    4.0584   -1.9386    0.3054 H   0  0  0  0  0  0  0  0  0  0  0  0
    1.7485   -1.1653   -0.0156 H   0  0  0  0  0  0  0  0  0  0  0  0
  1  2  1  0  0  0  0
  2  3  1  0  0  0  0
  3  4  2  0  0  0  0
  3  5  1  0  0  0  0
  5  6  1  0  0  0  0
  6  7  1  0  0  0  0
  7  8  2  0  0  0  0
  7  9  1  0  0  0  0
  9 10  1  0  0  0  0
  6 11  2  0  0  0  0
 11 12  1  0  0  0  0
 12 13  2  0  0  0  0
 13 14  1  0  0  0  0
 14 15  2  0  0  0  0
 15 16  1  0  0  0  0
 16 17  1  0  0  0  0
 17 18  1  0  0  0  0
 18 19  2  0  0  0  0
 18 20  1  0  0  0  0
 20 21  2  0  0  0  0
 21 22  1  0  0  0  0
 22 23  2  0  0  0  0
 23 24  1  0  0  0  0
 23 25  1  0  0  0  0
 25 26  2  0  0  0  0
 17  5  2  0  0  0  0
 26 20  1  0  0  0  0
 16 11  1  0  0  0  0
  1 27  1  0  0  0  0
  1 28  1  0  0  0  0
  1 29  1  0  0  0  0
 10 30  1  0  0  0  0
 10 31  1  0  0  0  0
 10 32  1  0  0  0  0
 12 33  1  0  0  0  0
 13 34  1  0  0  0  0
 14 35  1  0  0  0  0
 21 36  1  0  0  0  0
 22 37  1  0  0  0  0
 24 38  1  0  0  0  0
 24 39  1  0  0  0  0
 24 40  1  0  0  0  0
 25 41  1  0  0  0  0
 26 42  1  0  0  0  0
M  END
