
  xtb     03012221303D
 energy: -22.155174772903 gnorm: 0.000637592388 xtb: 6.4.1 (afa7bdf)
 99111  0     0  0            999 V2000
   -8.1568   -3.9329    0.8478 C   0  0  0  0  0  0  0  0  0  0  0  0
   -7.6480   -3.7113   -0.4167 C   0  0  0  0  0  0  0  0  0  0  0  0
   -6.7904   -2.6570   -0.6403 C   0  0  0  0  0  0  0  0  0  0  0  0
   -6.4319   -1.8126    0.4017 C   0  0  0  0  0  0  0  0  0  0  0  0
   -5.5401   -0.7016    0.1678 N   0  0  0  0  0  0  0  0  0  0  0  0
   -4.1357   -0.6788    0.2336 C   0  0  0  0  0  0  0  0  0  0  0  0
   -3.2556   -1.7998    0.5547 C   0  0  0  0  0  0  0  0  0  0  0  0
   -3.7227   -3.0659    0.9040 C   0  0  0  0  0  0  0  0  0  0  0  0
   -2.8426   -4.0881    1.1845 C   0  0  0  0  0  0  0  0  0  0  0  0
   -1.4840   -3.8737    1.1219 C   0  0  0  0  0  0  0  0  0  0  0  0
   -0.9773   -2.6170    0.7796 C   0  0  0  0  0  0  0  0  0  0  0  0
    0.4828   -2.3690    0.6971 C   0  0  0  0  0  0  0  0  0  0  0  0
    1.3017   -2.5097    1.8453 C   0  0  0  0  0  0  0  0  0  0  0  0
    0.7526   -2.8585    3.1038 C   0  0  0  0  0  0  0  0  0  0  0  0
    1.5352   -2.9701    4.2104 C   0  0  0  0  0  0  0  0  0  0  0  0
    2.9125   -2.7334    4.1300 C   0  0  0  0  0  0  0  0  0  0  0  0
    3.4777   -2.3878    2.9426 C   0  0  0  0  0  0  0  0  0  0  0  0
    2.7024   -2.2656    1.7633 C   0  0  0  0  0  0  0  0  0  0  0  0
    3.2911   -1.8764    0.5350 C   0  0  0  0  0  0  0  0  0  0  0  0
    4.7500   -1.6146    0.4496 C   0  0  0  0  0  0  0  0  0  0  0  0
    5.6834   -2.6371    0.6497 C   0  0  0  0  0  0  0  0  0  0  0  0
    7.0345   -2.3829    0.5608 C   0  0  0  0  0  0  0  0  0  0  0  0
    7.4845   -1.1124    0.2713 C   0  0  0  0  0  0  0  0  0  0  0  0
    6.5820   -0.0743    0.0665 C   0  0  0  0  0  0  0  0  0  0  0  0
    7.0417    1.2534   -0.2344 N   0  0  0  0  0  0  0  0  0  0  0  0
    7.9692    1.6092   -1.2346 C   0  0  0  0  0  0  0  0  0  0  0  0
    8.6560    0.8272   -2.1623 C   0  0  0  0  0  0  0  0  0  0  0  0
    9.5008    1.4459   -3.0511 C   0  0  0  0  0  0  0  0  0  0  0  0
    9.6723    2.8328   -3.0363 C   0  0  0  0  0  0  0  0  0  0  0  0
    8.9965    3.6194   -2.1337 C   0  0  0  0  0  0  0  0  0  0  0  0
    8.1345    3.0048   -1.2251 C   0  0  0  0  0  0  0  0  0  0  0  0
    7.2817    3.5302   -0.1838 C   0  0  0  0  0  0  0  0  0  0  0  0
    7.0479    4.8264    0.2763 C   0  0  0  0  0  0  0  0  0  0  0  0
    6.1654    5.0077    1.3149 C   0  0  0  0  0  0  0  0  0  0  0  0
    5.5150    3.9201    1.9042 C   0  0  0  0  0  0  0  0  0  0  0  0
    5.7352    2.6387    1.4617 C   0  0  0  0  0  0  0  0  0  0  0  0
    6.6222    2.4377    0.4047 C   0  0  0  0  0  0  0  0  0  0  0  0
    5.2248   -0.3367    0.1586 C   0  0  0  0  0  0  0  0  0  0  0  0
    2.4709   -1.7269   -0.6105 C   0  0  0  0  0  0  0  0  0  0  0  0
    3.0195   -1.3569   -1.8632 C   0  0  0  0  0  0  0  0  0  0  0  0
    2.2397   -1.2331   -2.9702 C   0  0  0  0  0  0  0  0  0  0  0  0
    0.8643   -1.4798   -2.8918 C   0  0  0  0  0  0  0  0  0  0  0  0
    0.2971   -1.8433   -1.7106 C   0  0  0  0  0  0  0  0  0  0  0  0
    1.0709   -1.9747   -0.5309 C   0  0  0  0  0  0  0  0  0  0  0  0
   -1.8839   -1.5963    0.5036 C   0  0  0  0  0  0  0  0  0  0  0  0
   -3.6576    0.5224   -0.0553 N   0  0  0  0  0  0  0  0  0  0  0  0
   -4.7262    1.3079   -0.3150 C   0  0  0  0  0  0  0  0  0  0  0  0
   -4.7440    2.6982   -0.6897 C   0  0  0  0  0  0  0  0  0  0  0  0
   -3.5545    3.4200   -0.8088 C   0  0  0  0  0  0  0  0  0  0  0  0
   -3.5754    4.7421   -1.1646 C   0  0  0  0  0  0  0  0  0  0  0  0
   -4.7876    5.3709   -1.4094 C   0  0  0  0  0  0  0  0  0  0  0  0
   -5.9676    4.6787   -1.2984 C   0  0  0  0  0  0  0  0  0  0  0  0
   -5.9866    3.3246   -0.9365 C   0  0  0  0  0  0  0  0  0  0  0  0
   -7.2320    2.5576   -0.8117 C   0  0  0  0  0  0  0  0  0  0  0  0
   -8.4874    3.1325   -1.0537 C   0  0  0  0  0  0  0  0  0  0  0  0
   -9.6427    2.4019   -0.9351 C   0  0  0  0  0  0  0  0  0  0  0  0
   -9.5936    1.0652   -0.5693 C   0  0  0  0  0  0  0  0  0  0  0  0
   -8.3857    0.4704   -0.3249 C   0  0  0  0  0  0  0  0  0  0  0  0
   -7.1924    1.1916   -0.4385 C   0  0  0  0  0  0  0  0  0  0  0  0
   -5.9119    0.5830   -0.1893 C   0  0  0  0  0  0  0  0  0  0  0  0
   -6.9503   -2.0413    1.6690 C   0  0  0  0  0  0  0  0  0  0  0  0
   -7.8072   -3.0967    1.8896 C   0  0  0  0  0  0  0  0  0  0  0  0
   -8.8276   -4.7583    1.0215 H   0  0  0  0  0  0  0  0  0  0  0  0
   -7.9219   -4.3637   -1.2297 H   0  0  0  0  0  0  0  0  0  0  0  0
   -6.3871   -2.4717   -1.6203 H   0  0  0  0  0  0  0  0  0  0  0  0
   -4.7791   -3.2448    0.9535 H   0  0  0  0  0  0  0  0  0  0  0  0
   -3.2203   -5.0620    1.4501 H   0  0  0  0  0  0  0  0  0  0  0  0
   -0.7957   -4.6755    1.3261 H   0  0  0  0  0  0  0  0  0  0  0  0
   -0.3068   -3.0232    3.1813 H   0  0  0  0  0  0  0  0  0  0  0  0
    1.0948   -3.2356    5.1586 H   0  0  0  0  0  0  0  0  0  0  0  0
    3.5215   -2.8194    5.0144 H   0  0  0  0  0  0  0  0  0  0  0  0
    4.5344   -2.1894    2.8915 H   0  0  0  0  0  0  0  0  0  0  0  0
    5.3290   -3.6300    0.8661 H   0  0  0  0  0  0  0  0  0  0  0  0
    7.7424   -3.1801    0.7182 H   0  0  0  0  0  0  0  0  0  0  0  0
    8.5383   -0.9043    0.2137 H   0  0  0  0  0  0  0  0  0  0  0  0
    8.5098   -0.2380   -2.1757 H   0  0  0  0  0  0  0  0  0  0  0  0
   10.0385    0.8535   -3.7730 H   0  0  0  0  0  0  0  0  0  0  0  0
   10.3413    3.2918   -3.7457 H   0  0  0  0  0  0  0  0  0  0  0  0
    9.1179    4.6882   -2.1197 H   0  0  0  0  0  0  0  0  0  0  0  0
    7.5558    5.6576   -0.1801 H   0  0  0  0  0  0  0  0  0  0  0  0
    5.9737    6.0025    1.6824 H   0  0  0  0  0  0  0  0  0  0  0  0
    4.8316    4.0902    2.7199 H   0  0  0  0  0  0  0  0  0  0  0  0
    5.2471    1.7962    1.9180 H   0  0  0  0  0  0  0  0  0  0  0  0
    4.5247    0.4612   -0.0070 H   0  0  0  0  0  0  0  0  0  0  0  0
    4.0787   -1.1794   -1.9344 H   0  0  0  0  0  0  0  0  0  0  0  0
    2.6786   -0.9487   -3.9119 H   0  0  0  0  0  0  0  0  0  0  0  0
    0.2540   -1.3834   -3.7760 H   0  0  0  0  0  0  0  0  0  0  0  0
   -0.7578   -2.0446   -1.6664 H   0  0  0  0  0  0  0  0  0  0  0  0
   -1.5151   -0.6222    0.2409 H   0  0  0  0  0  0  0  0  0  0  0  0
   -2.6233    2.9164   -0.6150 H   0  0  0  0  0  0  0  0  0  0  0  0
   -2.6538    5.2930   -1.2541 H   0  0  0  0  0  0  0  0  0  0  0  0
   -4.8004    6.4121   -1.6893 H   0  0  0  0  0  0  0  0  0  0  0  0
   -6.8912    5.1915   -1.4938 H   0  0  0  0  0  0  0  0  0  0  0  0
   -8.5543    4.1659   -1.3395 H   0  0  0  0  0  0  0  0  0  0  0  0
  -10.5958    2.8675   -1.1276 H   0  0  0  0  0  0  0  0  0  0  0  0
  -10.5046    0.4971   -0.4786 H   0  0  0  0  0  0  0  0  0  0  0  0
   -8.3455   -0.5648   -0.0424 H   0  0  0  0  0  0  0  0  0  0  0  0
   -6.6705   -1.3807    2.4708 H   0  0  0  0  0  0  0  0  0  0  0  0
   -8.2054   -3.2694    2.8761 H   0  0  0  0  0  0  0  0  0  0  0  0
  1  2  2  0  0  0  0
  2  3  1  0  0  0  0
  3  4  2  0  0  0  0
  4  5  1  0  0  0  0
  5  6  1  0  0  0  0
  6  7  1  0  0  0  0
  7  8  2  0  0  0  0
  8  9  1  0  0  0  0
  9 10  2  0  0  0  0
 10 11  1  0  0  0  0
 11 12  1  0  0  0  0
 12 13  1  0  0  0  0
 13 14  2  0  0  0  0
 14 15  1  0  0  0  0
 15 16  2  0  0  0  0
 16 17  1  0  0  0  0
 17 18  2  0  0  0  0
 18 19  1  0  0  0  0
 19 20  1  0  0  0  0
 20 21  2  0  0  0  0
 21 22  1  0  0  0  0
 22 23  2  0  0  0  0
 23 24  1  0  0  0  0
 24 25  1  0  0  0  0
 25 26  1  0  0  0  0
 26 27  2  0  0  0  0
 27 28  1  0  0  0  0
 28 29  2  0  0  0  0
 29 30  1  0  0  0  0
 30 31  2  0  0  0  0
 31 32  1  0  0  0  0
 32 33  2  0  0  0  0
 33 34  1  0  0  0  0
 34 35  2  0  0  0  0
 35 36  1  0  0  0  0
 36 37  2  0  0  0  0
 24 38  2  0  0  0  0
 19 39  2  0  0  0  0
 39 40  1  0  0  0  0
 40 41  2  0  0  0  0
 41 42  1  0  0  0  0
 42 43  2  0  0  0  0
 43 44  1  0  0  0  0
 11 45  2  0  0  0  0
  6 46  2  0  0  0  0
 46 47  1  0  0  0  0
 47 48  2  0  0  0  0
 48 49  1  0  0  0  0
 49 50  2  0  0  0  0
 50 51  1  0  0  0  0
 51 52  2  0  0  0  0
 52 53  1  0  0  0  0
 53 54  2  0  0  0  0
 54 55  1  0  0  0  0
 55 56  2  0  0  0  0
 56 57  1  0  0  0  0
 57 58  2  0  0  0  0
 58 59  1  0  0  0  0
 59 60  2  0  0  0  0
  4 61  1  0  0  0  0
 61 62  2  0  0  0  0
 62  1  1  0  0  0  0
 60  5  1  0  0  0  0
 45  7  1  0  0  0  0
 60 47  1  0  0  0  0
 44 12  2  0  0  0  0
 53 48  1  0  0  0  0
 59 54  1  0  0  0  0
 18 13  1  0  0  0  0
 38 20  1  0  0  0  0
 44 39  1  0  0  0  0
 37 25  1  0  0  0  0
 31 26  1  0  0  0  0
 37 32  1  0  0  0  0
  1 63  1  0  0  0  0
  2 64  1  0  0  0  0
  3 65  1  0  0  0  0
  8 66  1  0  0  0  0
  9 67  1  0  0  0  0
 10 68  1  0  0  0  0
 14 69  1  0  0  0  0
 15 70  1  0  0  0  0
 16 71  1  0  0  0  0
 17 72  1  0  0  0  0
 21 73  1  0  0  0  0
 22 74  1  0  0  0  0
 23 75  1  0  0  0  0
 27 76  1  0  0  0  0
 28 77  1  0  0  0  0
 29 78  1  0  0  0  0
 30 79  1  0  0  0  0
 33 80  1  0  0  0  0
 34 81  1  0  0  0  0
 35 82  1  0  0  0  0
 36 83  1  0  0  0  0
 38 84  1  0  0  0  0
 40 85  1  0  0  0  0
 41 86  1  0  0  0  0
 42 87  1  0  0  0  0
 43 88  1  0  0  0  0
 45 89  1  0  0  0  0
 49 90  1  0  0  0  0
 50 91  1  0  0  0  0
 51 92  1  0  0  0  0
 52 93  1  0  0  0  0
 55 94  1  0  0  0  0
 56 95  1  0  0  0  0
 57 96  1  0  0  0  0
 58 97  1  0  0  0  0
 61 98  1  0  0  0  0
 62 99  1  0  0  0  0
M  END
