
  xtb     03012221313D
 energy: -17.145811499336 gnorm: 0.000069464501 xtb: 6.4.1 (afa7bdf)
 82 90  0     0  0            999 V2000
    9.0730    0.6407    0.8095 C   0  0  0  0  0  0  0  0  0  0  0  0
    8.0175   -0.0777   -0.0571 C   0  0  0  0  0  0  0  0  0  0  0  0
    8.7025   -0.8532   -1.2024 C   0  0  0  0  0  0  0  0  0  0  0  0
    7.2645   -1.0809    0.8256 C   0  0  0  0  0  0  0  0  0  0  0  0
    7.9649   -2.1070    1.4409 C   0  0  0  0  0  0  0  0  0  0  0  0
    7.3287   -3.0513    2.2208 C   0  0  0  0  0  0  0  0  0  0  0  0
    5.9640   -2.9866    2.3947 C   0  0  0  0  0  0  0  0  0  0  0  0
    5.2513   -1.9763    1.7968 C   0  0  0  0  0  0  0  0  0  0  0  0
    5.8796   -1.0058    1.0180 C   0  0  0  0  0  0  0  0  0  0  0  0
    5.1049    0.0266    0.4210 N   0  0  0  0  0  0  0  0  0  0  0  0
    3.6815    0.0776    0.6545 C   0  0  0  0  0  0  0  0  0  0  0  0
    3.1689    0.3608    1.9242 C   0  0  0  0  0  0  0  0  0  0  0  0
    1.8150    0.4093    2.1354 C   0  0  0  0  0  0  0  0  0  0  0  0
    0.9234    0.1862    1.0934 C   0  0  0  0  0  0  0  0  0  0  0  0
    1.4234   -0.0917   -0.1893 C   0  0  0  0  0  0  0  0  0  0  0  0
    2.7884   -0.1481   -0.3868 C   0  0  0  0  0  0  0  0  0  0  0  0
    0.5201   -0.3133   -1.3248 C   0  0  0  0  0  0  0  0  0  0  0  0
    0.9625   -0.5449   -2.4360 O   0  0  0  0  0  0  0  0  0  0  0  0
   -0.9237   -0.2425   -1.0823 C   0  0  0  0  0  0  0  0  0  0  0  0
   -1.8150   -0.4309   -2.1313 C   0  0  0  0  0  0  0  0  0  0  0  0
   -3.1687   -0.3641   -1.9239 C   0  0  0  0  0  0  0  0  0  0  0  0
   -3.6817   -0.1128   -0.6476 C   0  0  0  0  0  0  0  0  0  0  0  0
   -5.1047   -0.0382   -0.4190 N   0  0  0  0  0  0  0  0  0  0  0  0
   -5.9051   -1.2032   -0.5760 C   0  0  0  0  0  0  0  0  0  0  0  0
   -5.3024   -2.4131   -0.9169 C   0  0  0  0  0  0  0  0  0  0  0  0
   -6.0406   -3.5590   -1.0844 C   0  0  0  0  0  0  0  0  0  0  0  0
   -7.4060   -3.5204   -0.9079 C   0  0  0  0  0  0  0  0  0  0  0  0
   -8.0172   -2.3344   -0.5549 C   0  0  0  0  0  0  0  0  0  0  0  0
   -7.2908   -1.1670   -0.3771 C   0  0  0  0  0  0  0  0  0  0  0  0
   -8.0168    0.1146    0.0501 C   0  0  0  0  0  0  0  0  0  0  0  0
   -9.0603    0.4695   -1.0300 C   0  0  0  0  0  0  0  0  0  0  0  0
   -8.7134   -0.1468    1.4023 C   0  0  0  0  0  0  0  0  0  0  0  0
   -7.0654    1.3060    0.2165 C   0  0  0  0  0  0  0  0  0  0  0  0
   -7.5757    2.5362    0.6016 C   0  0  0  0  0  0  0  0  0  0  0  0
   -6.7650    3.6441    0.7427 C   0  0  0  0  0  0  0  0  0  0  0  0
   -5.4151    3.5390    0.4911 C   0  0  0  0  0  0  0  0  0  0  0  0
   -4.8887    2.3294    0.1091 C   0  0  0  0  0  0  0  0  0  0  0  0
   -5.6903    1.1966   -0.0244 C   0  0  0  0  0  0  0  0  0  0  0  0
   -2.7889    0.0726    0.4019 C   0  0  0  0  0  0  0  0  0  0  0  0
   -1.4239    0.0190    0.2038 C   0  0  0  0  0  0  0  0  0  0  0  0
   -0.5205    0.2465    1.3380 C   0  0  0  0  0  0  0  0  0  0  0  0
   -0.9629    0.4828    2.4483 O   0  0  0  0  0  0  0  0  0  0  0  0
    5.7159    1.0009   -0.4157 C   0  0  0  0  0  0  0  0  0  0  0  0
    4.9385    2.0112   -0.9801 C   0  0  0  0  0  0  0  0  0  0  0  0
    5.4901    2.9693   -1.7947 C   0  0  0  0  0  0  0  0  0  0  0  0
    6.8415    2.9415   -2.0588 C   0  0  0  0  0  0  0  0  0  0  0  0
    7.6284    1.9563   -1.4978 C   0  0  0  0  0  0  0  0  0  0  0  0
    7.0923    0.9797   -0.6724 C   0  0  0  0  0  0  0  0  0  0  0  0
    8.5900    1.1869    1.6186 H   0  0  0  0  0  0  0  0  0  0  0  0
    9.7721   -0.0666    1.2522 H   0  0  0  0  0  0  0  0  0  0  0  0
    9.6516    1.3520    0.2227 H   0  0  0  0  0  0  0  0  0  0  0  0
    9.3898   -1.6049   -0.8184 H   0  0  0  0  0  0  0  0  0  0  0  0
    7.9573   -1.3603   -1.8139 H   0  0  0  0  0  0  0  0  0  0  0  0
    9.2712   -0.1876   -1.8492 H   0  0  0  0  0  0  0  0  0  0  0  0
    9.0306   -2.1726    1.3047 H   0  0  0  0  0  0  0  0  0  0  0  0
    7.8963   -3.8394    2.6871 H   0  0  0  0  0  0  0  0  0  0  0  0
    5.4579   -3.7250    2.9955 H   0  0  0  0  0  0  0  0  0  0  0  0
    4.1836   -1.9336    1.9218 H   0  0  0  0  0  0  0  0  0  0  0  0
    3.8566    0.5458    2.7304 H   0  0  0  0  0  0  0  0  0  0  0  0
    1.4154    0.6252    3.1107 H   0  0  0  0  0  0  0  0  0  0  0  0
    3.1616   -0.3703   -1.3697 H   0  0  0  0  0  0  0  0  0  0  0  0
   -1.4152   -0.6262   -3.1109 H   0  0  0  0  0  0  0  0  0  0  0  0
   -3.8557   -0.4981   -2.7406 H   0  0  0  0  0  0  0  0  0  0  0  0
   -4.2344   -2.4469   -1.0412 H   0  0  0  0  0  0  0  0  0  0  0  0
   -5.5540   -4.4832   -1.3515 H   0  0  0  0  0  0  0  0  0  0  0  0
   -7.9935   -4.4139   -1.0388 H   0  0  0  0  0  0  0  0  0  0  0  0
   -9.0836   -2.3182   -0.4100 H   0  0  0  0  0  0  0  0  0  0  0  0
   -9.6213    1.3631   -0.7621 H   0  0  0  0  0  0  0  0  0  0  0  0
   -9.7760   -0.3383   -1.1721 H   0  0  0  0  0  0  0  0  0  0  0  0
   -8.5688    0.6549   -1.9842 H   0  0  0  0  0  0  0  0  0  0  0  0
   -9.4183   -0.9734    1.3334 H   0  0  0  0  0  0  0  0  0  0  0  0
   -9.2649    0.7281    1.7418 H   0  0  0  0  0  0  0  0  0  0  0  0
   -7.9767   -0.3963    2.1649 H   0  0  0  0  0  0  0  0  0  0  0  0
   -8.6307    2.6322    0.7925 H   0  0  0  0  0  0  0  0  0  0  0  0
   -7.1866    4.5884    1.0446 H   0  0  0  0  0  0  0  0  0  0  0  0
   -4.7751    4.4003    0.5940 H   0  0  0  0  0  0  0  0  0  0  0  0
   -3.8358    2.2516   -0.0973 H   0  0  0  0  0  0  0  0  0  0  0  0
   -3.1623    0.2640    1.3912 H   0  0  0  0  0  0  0  0  0  0  0  0
    3.8845    2.0399   -0.7667 H   0  0  0  0  0  0  0  0  0  0  0  0
    4.8686    3.7378   -2.2254 H   0  0  0  0  0  0  0  0  0  0  0  0
    7.2828    3.6880   -2.6980 H   0  0  0  0  0  0  0  0  0  0  0  0
    8.6846    1.9491   -1.7048 H   0  0  0  0  0  0  0  0  0  0  0  0
  1  2  1  0  0  0  0
  2  3  1  0  0  0  0
  2  4  1  0  0  0  0
  4  5  2  0  0  0  0
  5  6  1  0  0  0  0
  6  7  2  0  0  0  0
  7  8  1  0  0  0  0
  8  9  2  0  0  0  0
  9 10  1  0  0  0  0
 10 11  1  0  0  0  0
 11 12  2  0  0  0  0
 12 13  1  0  0  0  0
 13 14  2  0  0  0  0
 14 15  1  0  0  0  0
 15 16  2  0  0  0  0
 15 17  1  0  0  0  0
 17 18  2  0  0  0  0
 17 19  1  0  0  0  0
 19 20  2  0  0  0  0
 20 21  1  0  0  0  0
 21 22  2  0  0  0  0
 22 23  1  0  0  0  0
 23 24  1  0  0  0  0
 24 25  2  0  0  0  0
 25 26  1  0  0  0  0
 26 27  2  0  0  0  0
 27 28  1  0  0  0  0
 28 29  2  0  0  0  0
 29 30  1  0  0  0  0
 30 31  1  0  0  0  0
 30 32  1  0  0  0  0
 30 33  1  0  0  0  0
 33 34  2  0  0  0  0
 34 35  1  0  0  0  0
 35 36  2  0  0  0  0
 36 37  1  0  0  0  0
 37 38  2  0  0  0  0
 22 39  1  0  0  0  0
 39 40  2  0  0  0  0
 40 41  1  0  0  0  0
 41 42  2  0  0  0  0
 10 43  1  0  0  0  0
 43 44  2  0  0  0  0
 44 45  1  0  0  0  0
 45 46  2  0  0  0  0
 46 47  1  0  0  0  0
 47 48  2  0  0  0  0
 48  2  1  0  0  0  0
  9  4  1  0  0  0  0
 16 11  1  0  0  0  0
 40 19  1  0  0  0  0
 48 43  1  0  0  0  0
 41 14  1  0  0  0  0
 38 23  1  0  0  0  0
 29 24  1  0  0  0  0
 38 33  1  0  0  0  0
  1 49  1  0  0  0  0
  1 50  1  0  0  0  0
  1 51  1  0  0  0  0
  3 52  1  0  0  0  0
  3 53  1  0  0  0  0
  3 54  1  0  0  0  0
  5 55  1  0  0  0  0
  6 56  1  0  0  0  0
  7 57  1  0  0  0  0
  8 58  1  0  0  0  0
 12 59  1  0  0  0  0
 13 60  1  0  0  0  0
 16 61  1  0  0  0  0
 20 62  1  0  0  0  0
 21 63  1  0  0  0  0
 25 64  1  0  0  0  0
 26 65  1  0  0  0  0
 27 66  1  0  0  0  0
 28 67  1  0  0  0  0
 31 68  1  0  0  0  0
 31 69  1  0  0  0  0
 31 70  1  0  0  0  0
 32 71  1  0  0  0  0
 32 72  1  0  0  0  0
 32 73  1  0  0  0  0
 34 74  1  0  0  0  0
 35 75  1  0  0  0  0
 36 76  1  0  0  0  0
 37 77  1  0  0  0  0
 39 78  1  0  0  0  0
 44 79  1  0  0  0  0
 45 80  1  0  0  0  0
 46 81  1  0  0  0  0
 47 82  1  0  0  0  0
M  END
