
  xtb     03012221273D
 energy: -16.107172070537 gnorm: 0.000317910097 xtb: 6.4.1 (afa7bdf)
 79 85  0     0  0            999 V2000
   -7.6949   -5.8388   -0.3096 C   0  0  0  0  0  0  0  0  0  0  0  0
   -8.0716   -4.6601    0.3582 O   0  0  0  0  0  0  0  0  0  0  0  0
   -7.1508   -3.6105    0.2614 C   0  0  0  0  0  0  0  0  0  0  0  0
   -7.4808   -2.4049    0.8861 C   0  0  0  0  0  0  0  0  0  0  0  0
   -6.6391   -1.3230    0.8315 C   0  0  0  0  0  0  0  0  0  0  0  0
   -5.4308   -1.3943    0.1405 C   0  0  0  0  0  0  0  0  0  0  0  0
   -4.5045   -0.2579    0.0699 C   0  0  0  0  0  0  0  0  0  0  0  0
   -3.1651   -0.4085    0.0405 N   0  0  0  0  0  0  0  0  0  0  0  0
   -2.6409    0.8118    0.0215 C   0  0  0  0  0  0  0  0  0  0  0  0
   -1.2249    1.0864   -0.0165 C   0  0  0  0  0  0  0  0  0  0  0  0
   -0.6486    2.3209   -0.1358 C   0  0  0  0  0  0  0  0  0  0  0  0
    0.7636    2.2879   -0.1492 C   0  0  0  0  0  0  0  0  0  0  0  0
    1.2825    1.0294   -0.0332 C   0  0  0  0  0  0  0  0  0  0  0  0
    2.6862    0.7036   -0.0102 C   0  0  0  0  0  0  0  0  0  0  0  0
    3.6734    1.5785   -0.1721 N   0  0  0  0  0  0  0  0  0  0  0  0
    4.8253    0.8826   -0.0806 C   0  0  0  0  0  0  0  0  0  0  0  0
    6.1477    1.5157   -0.1571 C   0  0  0  0  0  0  0  0  0  0  0  0
    7.2331    1.0515    0.5839 C   0  0  0  0  0  0  0  0  0  0  0  0
    8.4558    1.6677    0.4989 C   0  0  0  0  0  0  0  0  0  0  0  0
    8.6488    2.7815   -0.3224 C   0  0  0  0  0  0  0  0  0  0  0  0
    9.9307    3.3423   -0.3571 O   0  0  0  0  0  0  0  0  0  0  0  0
   10.0671    4.4511   -1.2111 C   0  0  0  0  0  0  0  0  0  0  0  0
    7.5531    3.2577   -1.0477 C   0  0  0  0  0  0  0  0  0  0  0  0
    6.3307    2.6386   -0.9598 C   0  0  0  0  0  0  0  0  0  0  0  0
    4.5388   -0.4867    0.1307 C   0  0  0  0  0  0  0  0  0  0  0  0
    5.4503   -1.6270    0.2177 C   0  0  0  0  0  0  0  0  0  0  0  0
    6.6076   -1.7009   -0.5584 C   0  0  0  0  0  0  0  0  0  0  0  0
    7.4457   -2.7824   -0.4689 C   0  0  0  0  0  0  0  0  0  0  0  0
    7.1651   -3.8456    0.3942 C   0  0  0  0  0  0  0  0  0  0  0  0
    8.0778   -4.9046    0.4297 O   0  0  0  0  0  0  0  0  0  0  0  0
    7.7520   -5.9357    1.3292 C   0  0  0  0  0  0  0  0  0  0  0  0
    5.9961   -3.7775    1.1584 C   0  0  0  0  0  0  0  0  0  0  0  0
    5.1583   -2.6944    1.0661 C   0  0  0  0  0  0  0  0  0  0  0  0
    3.1777   -0.5715    0.1865 N   0  0  0  0  0  0  0  0  0  0  0  0
    0.0029   -0.1474    0.0868 S   0  0  0  0  0  0  0  0  0  0  0  0
   -3.6314    1.7769    0.0364 N   0  0  0  0  0  0  0  0  0  0  0  0
   -4.8274    1.1186    0.0510 C   0  0  0  0  0  0  0  0  0  0  0  0
   -6.1388    1.7630   -0.0193 C   0  0  0  0  0  0  0  0  0  0  0  0
   -6.3629    2.9738    0.6350 C   0  0  0  0  0  0  0  0  0  0  0  0
   -7.5841    3.5974    0.5754 C   0  0  0  0  0  0  0  0  0  0  0  0
   -8.6390    3.0385   -0.1525 C   0  0  0  0  0  0  0  0  0  0  0  0
   -9.9161    3.5985   -0.2598 O   0  0  0  0  0  0  0  0  0  0  0  0
  -10.0951    4.8017    0.4459 C   0  0  0  0  0  0  0  0  0  0  0  0
   -8.4058    1.8341   -0.8226 C   0  0  0  0  0  0  0  0  0  0  0  0
   -7.1850    1.2129   -0.7610 C   0  0  0  0  0  0  0  0  0  0  0  0
   -5.0885   -2.6008   -0.4643 C   0  0  0  0  0  0  0  0  0  0  0  0
   -5.9285   -3.6856   -0.4123 C   0  0  0  0  0  0  0  0  0  0  0  0
   -6.7731   -6.2314    0.1216 H   0  0  0  0  0  0  0  0  0  0  0  0
   -7.5668   -5.6379   -1.3741 H   0  0  0  0  0  0  0  0  0  0  0  0
   -8.4879   -6.5766   -0.1815 H   0  0  0  0  0  0  0  0  0  0  0  0
   -8.4153   -2.3466    1.4144 H   0  0  0  0  0  0  0  0  0  0  0  0
   -6.9020   -0.4076    1.3336 H   0  0  0  0  0  0  0  0  0  0  0  0
   -1.2210    3.2304   -0.2169 H   0  0  0  0  0  0  0  0  0  0  0  0
    1.3851    3.1645   -0.2362 H   0  0  0  0  0  0  0  0  0  0  0  0
    7.0984    0.2050    1.2353 H   0  0  0  0  0  0  0  0  0  0  0  0
    9.2938    1.3046    1.0661 H   0  0  0  0  0  0  0  0  0  0  0  0
    9.8342    4.1611   -2.2366 H   0  0  0  0  0  0  0  0  0  0  0  0
    9.4109    5.2572   -0.8806 H   0  0  0  0  0  0  0  0  0  0  0  0
   11.1010    4.7956   -1.1670 H   0  0  0  0  0  0  0  0  0  0  0  0
    7.6651    4.1183   -1.6804 H   0  0  0  0  0  0  0  0  0  0  0  0
    5.4881    3.0135   -1.5160 H   0  0  0  0  0  0  0  0  0  0  0  0
    6.8317   -0.8975   -1.2393 H   0  0  0  0  0  0  0  0  0  0  0  0
    8.3395   -2.8346   -1.0639 H   0  0  0  0  0  0  0  0  0  0  0  0
    7.7056   -5.5412    2.3450 H   0  0  0  0  0  0  0  0  0  0  0  0
    8.5322   -6.6960    1.2799 H   0  0  0  0  0  0  0  0  0  0  0  0
    6.7998   -6.3870    1.0476 H   0  0  0  0  0  0  0  0  0  0  0  0
    5.7486   -4.5810    1.8268 H   0  0  0  0  0  0  0  0  0  0  0  0
    4.2632   -2.6502    1.6631 H   0  0  0  0  0  0  0  0  0  0  0  0
    2.6170   -1.4177    0.2925 H   0  0  0  0  0  0  0  0  0  0  0  0
   -3.4980    2.7874   -0.0195 H   0  0  0  0  0  0  0  0  0  0  0  0
   -5.5596    3.4105    1.2038 H   0  0  0  0  0  0  0  0  0  0  0  0
   -7.7292    4.5255    1.0963 H   0  0  0  0  0  0  0  0  0  0  0  0
   -9.4132    5.5617    0.0628 H   0  0  0  0  0  0  0  0  0  0  0  0
   -9.9278    4.6360    1.5109 H   0  0  0  0  0  0  0  0  0  0  0  0
  -11.1213    5.1396    0.2973 H   0  0  0  0  0  0  0  0  0  0  0  0
   -9.2120    1.4049   -1.3897 H   0  0  0  0  0  0  0  0  0  0  0  0
   -7.0191    0.2925   -1.2945 H   0  0  0  0  0  0  0  0  0  0  0  0
   -4.1444   -2.6664   -0.9784 H   0  0  0  0  0  0  0  0  0  0  0  0
   -5.6393   -4.6013   -0.8934 H   0  0  0  0  0  0  0  0  0  0  0  0
  1  2  1  0  0  0  0
  2  3  1  0  0  0  0
  3  4  2  0  0  0  0
  4  5  1  0  0  0  0
  5  6  2  0  0  0  0
  6  7  1  0  0  0  0
  7  8  1  0  0  0  0
  8  9  2  0  0  0  0
  9 10  1  0  0  0  0
 10 11  2  0  0  0  0
 11 12  1  0  0  0  0
 12 13  2  0  0  0  0
 13 14  1  0  0  0  0
 14 15  2  0  0  0  0
 15 16  1  0  0  0  0
 16 17  1  0  0  0  0
 17 18  2  0  0  0  0
 18 19  1  0  0  0  0
 19 20  2  0  0  0  0
 20 21  1  0  0  0  0
 21 22  1  0  0  0  0
 20 23  1  0  0  0  0
 23 24  2  0  0  0  0
 16 25  2  0  0  0  0
 25 26  1  0  0  0  0
 26 27  2  0  0  0  0
 27 28  1  0  0  0  0
 28 29  2  0  0  0  0
 29 30  1  0  0  0  0
 30 31  1  0  0  0  0
 29 32  1  0  0  0  0
 32 33  2  0  0  0  0
 25 34  1  0  0  0  0
 13 35  1  0  0  0  0
  9 36  1  0  0  0  0
 36 37  1  0  0  0  0
 37 38  1  0  0  0  0
 38 39  2  0  0  0  0
 39 40  1  0  0  0  0
 40 41  2  0  0  0  0
 41 42  1  0  0  0  0
 42 43  1  0  0  0  0
 41 44  1  0  0  0  0
 44 45  2  0  0  0  0
  6 46  1  0  0  0  0
 46 47  2  0  0  0  0
 47  3  1  0  0  0  0
 37  7  2  0  0  0  0
 45 38  1  0  0  0  0
 35 10  1  0  0  0  0
 34 14  1  0  0  0  0
 24 17  1  0  0  0  0
 33 26  1  0  0  0  0
  1 48  1  0  0  0  0
  1 49  1  0  0  0  0
  1 50  1  0  0  0  0
  4 51  1  0  0  0  0
  5 52  1  0  0  0  0
 11 53  1  0  0  0  0
 12 54  1  0  0  0  0
 18 55  1  0  0  0  0
 19 56  1  0  0  0  0
 22 57  1  0  0  0  0
 22 58  1  0  0  0  0
 22 59  1  0  0  0  0
 23 60  1  0  0  0  0
 24 61  1  0  0  0  0
 27 62  1  0  0  0  0
 28 63  1  0  0  0  0
 31 64  1  0  0  0  0
 31 65  1  0  0  0  0
 31 66  1  0  0  0  0
 32 67  1  0  0  0  0
 33 68  1  0  0  0  0
 34 69  1  0  0  0  0
 36 70  1  0  0  0  0
 39 71  1  0  0  0  0
 40 72  1  0  0  0  0
 43 73  1  0  0  0  0
 43 74  1  0  0  0  0
 43 75  1  0  0  0  0
 44 76  1  0  0  0  0
 45 77  1  0  0  0  0
 46 78  1  0  0  0  0
 47 79  1  0  0  0  0
M  END
