
  xtb     03012221293D
 energy: -16.791928571677 gnorm: 0.000104256131 xtb: 6.4.1 (afa7bdf)
 74 81  0     0  0            999 V2000
   -2.4908    8.2926   -1.8671 N   0  0  0  0  0  0  0  0  0  0  0  0
   -1.8352    7.3574   -1.6477 C   0  0  0  0  0  0  0  0  0  0  0  0
   -1.0665    6.2126   -1.3810 C   0  0  0  0  0  0  0  0  0  0  0  0
   -1.7122    5.0833   -1.1479 N   0  0  0  0  0  0  0  0  0  0  0  0
   -0.9386    4.0267   -0.8998 C   0  0  0  0  0  0  0  0  0  0  0  0
   -1.5834    2.7540   -0.6494 C   0  0  0  0  0  0  0  0  0  0  0  0
   -2.9781    2.6492   -0.6736 C   0  0  0  0  0  0  0  0  0  0  0  0
   -3.6025    1.4491   -0.4710 C   0  0  0  0  0  0  0  0  0  0  0  0
   -2.8557    0.2860   -0.2509 C   0  0  0  0  0  0  0  0  0  0  0  0
   -3.4726   -0.9893   -0.0649 N   0  0  0  0  0  0  0  0  0  0  0  0
   -2.7513   -2.0301    0.6177 C   0  0  0  0  0  0  0  0  0  0  0  0
   -2.7068   -3.3206    0.0967 C   0  0  0  0  0  0  0  0  0  0  0  0
   -1.9666   -4.3026    0.7155 C   0  0  0  0  0  0  0  0  0  0  0  0
   -1.2596   -4.0155    1.8667 C   0  0  0  0  0  0  0  0  0  0  0  0
   -1.2998   -2.7427    2.4008 C   0  0  0  0  0  0  0  0  0  0  0  0
   -2.0417   -1.7600    1.7856 C   0  0  0  0  0  0  0  0  0  0  0  0
   -4.7439   -1.2897   -0.6593 C   0  0  0  0  0  0  0  0  0  0  0  0
   -5.6582   -2.1003    0.0081 C   0  0  0  0  0  0  0  0  0  0  0  0
   -6.8731   -2.4063   -0.5621 C   0  0  0  0  0  0  0  0  0  0  0  0
   -7.1954   -1.9121   -1.8109 C   0  0  0  0  0  0  0  0  0  0  0  0
   -6.2964   -1.1123   -2.4888 C   0  0  0  0  0  0  0  0  0  0  0  0
   -5.0811   -0.8046   -1.9203 C   0  0  0  0  0  0  0  0  0  0  0  0
   -1.4760    0.3883   -0.2194 C   0  0  0  0  0  0  0  0  0  0  0  0
   -0.8178    1.6011   -0.3929 C   0  0  0  0  0  0  0  0  0  0  0  0
    0.6294    1.7005   -0.3265 C   0  0  0  0  0  0  0  0  0  0  0  0
    1.4223    0.6093    0.0124 C   0  0  0  0  0  0  0  0  0  0  0  0
    2.8034    0.6857    0.0553 C   0  0  0  0  0  0  0  0  0  0  0  0
    3.5624   -0.4700    0.4163 N   0  0  0  0  0  0  0  0  0  0  0  0
    4.8315   -0.3443    1.0744 C   0  0  0  0  0  0  0  0  0  0  0  0
    5.8519   -1.2554    0.8152 C   0  0  0  0  0  0  0  0  0  0  0  0
    7.0664   -1.1506    1.4545 C   0  0  0  0  0  0  0  0  0  0  0  0
    7.2830   -0.1368    2.3671 C   0  0  0  0  0  0  0  0  0  0  0  0
    6.2785    0.7710    2.6401 C   0  0  0  0  0  0  0  0  0  0  0  0
    5.0633    0.6682    2.0019 C   0  0  0  0  0  0  0  0  0  0  0  0
    2.9845   -1.7756    0.2416 C   0  0  0  0  0  0  0  0  0  0  0  0
    2.2934   -2.1002   -0.9235 C   0  0  0  0  0  0  0  0  0  0  0  0
    1.6857   -3.3274   -1.0620 C   0  0  0  0  0  0  0  0  0  0  0  0
    1.7639   -4.2567   -0.0436 C   0  0  0  0  0  0  0  0  0  0  0  0
    2.4545   -3.9546    1.1137 C   0  0  0  0  0  0  0  0  0  0  0  0
    3.0604   -2.7268    1.2557 C   0  0  0  0  0  0  0  0  0  0  0  0
    3.4106    1.9086   -0.2524 C   0  0  0  0  0  0  0  0  0  0  0  0
    2.6518    3.0039   -0.5615 C   0  0  0  0  0  0  0  0  0  0  0  0
    1.2552    2.9320   -0.5964 C   0  0  0  0  0  0  0  0  0  0  0  0
    0.4668    4.1115   -0.8886 C   0  0  0  0  0  0  0  0  0  0  0  0
    1.1117    5.2536   -1.1254 N   0  0  0  0  0  0  0  0  0  0  0  0
    0.3388    6.2971   -1.3707 C   0  0  0  0  0  0  0  0  0  0  0  0
    0.9687    7.5265   -1.6252 C   0  0  0  0  0  0  0  0  0  0  0  0
    1.5111    8.5341   -1.8325 N   0  0  0  0  0  0  0  0  0  0  0  0
   -3.5526    3.5404   -0.8576 H   0  0  0  0  0  0  0  0  0  0  0  0
   -4.6765    1.3868   -0.4741 H   0  0  0  0  0  0  0  0  0  0  0  0
   -3.2469   -3.5326   -0.8092 H   0  0  0  0  0  0  0  0  0  0  0  0
   -1.9352   -5.2957    0.2989 H   0  0  0  0  0  0  0  0  0  0  0  0
   -0.6778   -4.7839    2.3483 H   0  0  0  0  0  0  0  0  0  0  0  0
   -0.7496   -2.5185    3.2996 H   0  0  0  0  0  0  0  0  0  0  0  0
   -2.0825   -0.7676    2.1996 H   0  0  0  0  0  0  0  0  0  0  0  0
   -5.4011   -2.4775    0.9825 H   0  0  0  0  0  0  0  0  0  0  0  0
   -7.5737   -3.0312   -0.0334 H   0  0  0  0  0  0  0  0  0  0  0  0
   -8.1467   -2.1517   -2.2566 H   0  0  0  0  0  0  0  0  0  0  0  0
   -6.5457   -0.7306   -3.4651 H   0  0  0  0  0  0  0  0  0  0  0  0
   -4.3692   -0.1979   -2.4519 H   0  0  0  0  0  0  0  0  0  0  0  0
   -0.9101   -0.5124   -0.0828 H   0  0  0  0  0  0  0  0  0  0  0  0
    0.9639   -0.3224    0.2805 H   0  0  0  0  0  0  0  0  0  0  0  0
    5.6768   -2.0394    0.0995 H   0  0  0  0  0  0  0  0  0  0  0  0
    7.8493   -1.8597    1.2423 H   0  0  0  0  0  0  0  0  0  0  0  0
    8.2341   -0.0550    2.8668 H   0  0  0  0  0  0  0  0  0  0  0  0
    6.4456    1.5594    3.3553 H   0  0  0  0  0  0  0  0  0  0  0  0
    4.2709    1.3610    2.2250 H   0  0  0  0  0  0  0  0  0  0  0  0
    2.2413   -1.3732   -1.7152 H   0  0  0  0  0  0  0  0  0  0  0  0
    1.1483   -3.5630   -1.9656 H   0  0  0  0  0  0  0  0  0  0  0  0
    1.2871   -5.2168   -0.1524 H   0  0  0  0  0  0  0  0  0  0  0  0
    2.5152   -4.6797    1.9083 H   0  0  0  0  0  0  0  0  0  0  0  0
    3.5858   -2.4782    2.1611 H   0  0  0  0  0  0  0  0  0  0  0  0
    4.4844    1.9741   -0.2460 H   0  0  0  0  0  0  0  0  0  0  0  0
    3.1187    3.9480   -0.7829 H   0  0  0  0  0  0  0  0  0  0  0  0
  1  2  3  0  0  0  0
  2  3  1  0  0  0  0
  3  4  2  0  0  0  0
  4  5  1  0  0  0  0
  5  6  2  0  0  0  0
  6  7  1  0  0  0  0
  7  8  2  0  0  0  0
  8  9  1  0  0  0  0
  9 10  1  0  0  0  0
 10 11  1  0  0  0  0
 11 12  2  0  0  0  0
 12 13  1  0  0  0  0
 13 14  2  0  0  0  0
 14 15  1  0  0  0  0
 15 16  2  0  0  0  0
 10 17  1  0  0  0  0
 17 18  2  0  0  0  0
 18 19  1  0  0  0  0
 19 20  2  0  0  0  0
 20 21  1  0  0  0  0
 21 22  2  0  0  0  0
  9 23  2  0  0  0  0
 23 24  1  0  0  0  0
 24 25  2  0  0  0  0
 25 26  1  0  0  0  0
 26 27  2  0  0  0  0
 27 28  1  0  0  0  0
 28 29  1  0  0  0  0
 29 30  2  0  0  0  0
 30 31  1  0  0  0  0
 31 32  2  0  0  0  0
 32 33  1  0  0  0  0
 33 34  2  0  0  0  0
 28 35  1  0  0  0  0
 35 36  2  0  0  0  0
 36 37  1  0  0  0  0
 37 38  2  0  0  0  0
 38 39  1  0  0  0  0
 39 40  2  0  0  0  0
 27 41  1  0  0  0  0
 41 42  2  0  0  0  0
 42 43  1  0  0  0  0
 43 44  2  0  0  0  0
 44 45  1  0  0  0  0
 45 46  2  0  0  0  0
 46 47  1  0  0  0  0
 47 48  3  0  0  0  0
 46  3  1  0  0  0  0
 44  5  1  0  0  0  0
 24  6  1  0  0  0  0
 43 25  1  0  0  0  0
 16 11  1  0  0  0  0
 22 17  1  0  0  0  0
 34 29  1  0  0  0  0
 40 35  1  0  0  0  0
  7 49  1  0  0  0  0
  8 50  1  0  0  0  0
 12 51  1  0  0  0  0
 13 52  1  0  0  0  0
 14 53  1  0  0  0  0
 15 54  1  0  0  0  0
 16 55  1  0  0  0  0
 18 56  1  0  0  0  0
 19 57  1  0  0  0  0
 20 58  1  0  0  0  0
 21 59  1  0  0  0  0
 22 60  1  0  0  0  0
 23 61  1  0  0  0  0
 26 62  1  0  0  0  0
 30 63  1  0  0  0  0
 31 64  1  0  0  0  0
 32 65  1  0  0  0  0
 33 66  1  0  0  0  0
 34 67  1  0  0  0  0
 36 68  1  0  0  0  0
 37 69  1  0  0  0  0
 38 70  1  0  0  0  0
 39 71  1  0  0  0  0
 40 72  1  0  0  0  0
 41 73  1  0  0  0  0
 42 74  1  0  0  0  0
M  END
