
  xtb     03012221303D
 energy: -13.099254645407 gnorm: 0.000202803695 xtb: 6.4.1 (afa7bdf)
 59 65  0     0  0            999 V2000
   -5.9068    1.8925   -4.2684 C   0  0  0  0  0  0  0  0  0  0  0  0
   -6.5690    1.2812   -3.2224 C   0  0  0  0  0  0  0  0  0  0  0  0
   -5.8559    0.7556   -2.1679 C   0  0  0  0  0  0  0  0  0  0  0  0
   -4.4668    0.8331   -2.1430 C   0  0  0  0  0  0  0  0  0  0  0  0
   -3.7046    0.2760   -1.0158 C   0  0  0  0  0  0  0  0  0  0  0  0
   -4.3925   -0.2865   -0.0361 N   0  0  0  0  0  0  0  0  0  0  0  0
   -3.6562   -0.7647    0.9532 C   0  0  0  0  0  0  0  0  0  0  0  0
   -4.3626   -1.4082    2.0708 C   0  0  0  0  0  0  0  0  0  0  0  0
   -3.6561   -1.9393    3.1456 C   0  0  0  0  0  0  0  0  0  0  0  0
   -4.3188   -2.5439    4.1906 C   0  0  0  0  0  0  0  0  0  0  0  0
   -5.6970   -2.6278    4.1791 C   0  0  0  0  0  0  0  0  0  0  0  0
   -6.4118   -2.1054    3.1196 C   0  0  0  0  0  0  0  0  0  0  0  0
   -5.7511   -1.5004    2.0736 C   0  0  0  0  0  0  0  0  0  0  0  0
   -2.3366   -0.7109    1.0184 N   0  0  0  0  0  0  0  0  0  0  0  0
   -1.7547   -0.1288   -0.0176 C   0  0  0  0  0  0  0  0  0  0  0  0
   -0.2901   -0.0384   -0.0061 C   0  0  0  0  0  0  0  0  0  0  0  0
    0.4413   -0.4867    1.0914 C   0  0  0  0  0  0  0  0  0  0  0  0
    1.8117   -0.3973    1.1044 C   0  0  0  0  0  0  0  0  0  0  0  0
    2.4960    0.1389    0.0179 C   0  0  0  0  0  0  0  0  0  0  0  0
    3.9284    0.2340    0.0322 N   0  0  0  0  0  0  0  0  0  0  0  0
    4.8025   -0.2145   -0.9806 C   0  0  0  0  0  0  0  0  0  0  0  0
    4.5476   -0.8616   -2.1893 C   0  0  0  0  0  0  0  0  0  0  0  0
    5.6072   -1.2069   -2.9913 C   0  0  0  0  0  0  0  0  0  0  0  0
    6.9212   -0.9213   -2.6093 C   0  0  0  0  0  0  0  0  0  0  0  0
    7.1916   -0.2904   -1.4180 C   0  0  0  0  0  0  0  0  0  0  0  0
    6.1239    0.0644   -0.5933 C   0  0  0  0  0  0  0  0  0  0  0  0
    6.0663    0.7105    0.6975 C   0  0  0  0  0  0  0  0  0  0  0  0
    7.0578    1.2137    1.5399 C   0  0  0  0  0  0  0  0  0  0  0  0
    6.6790    1.8035    2.7227 C   0  0  0  0  0  0  0  0  0  0  0  0
    5.3309    1.9035    3.0787 C   0  0  0  0  0  0  0  0  0  0  0  0
    4.3457    1.4108    2.2590 C   0  0  0  0  0  0  0  0  0  0  0  0
    4.7118    0.8014    1.0593 C   0  0  0  0  0  0  0  0  0  0  0  0
    1.7681    0.5843   -1.0812 C   0  0  0  0  0  0  0  0  0  0  0  0
    0.3975    0.4993   -1.0918 C   0  0  0  0  0  0  0  0  0  0  0  0
   -2.3873    0.3800   -1.0624 N   0  0  0  0  0  0  0  0  0  0  0  0
   -3.8136    1.4521   -3.2045 C   0  0  0  0  0  0  0  0  0  0  0  0
   -4.5287    1.9772   -4.2579 C   0  0  0  0  0  0  0  0  0  0  0  0
   -6.4657    2.3041   -5.0931 H   0  0  0  0  0  0  0  0  0  0  0  0
   -7.6445    1.2156   -3.2307 H   0  0  0  0  0  0  0  0  0  0  0  0
   -6.3610    0.2780   -1.3472 H   0  0  0  0  0  0  0  0  0  0  0  0
   -2.5829   -1.8690    3.1432 H   0  0  0  0  0  0  0  0  0  0  0  0
   -3.7612   -2.9521    5.0173 H   0  0  0  0  0  0  0  0  0  0  0  0
   -6.2149   -3.1014    4.9973 H   0  0  0  0  0  0  0  0  0  0  0  0
   -7.4873   -2.1712    3.1109 H   0  0  0  0  0  0  0  0  0  0  0  0
   -6.2974   -1.0905    1.2428 H   0  0  0  0  0  0  0  0  0  0  0  0
   -0.0888   -0.9044    1.9286 H   0  0  0  0  0  0  0  0  0  0  0  0
    2.3751   -0.7545    1.9482 H   0  0  0  0  0  0  0  0  0  0  0  0
    3.5340   -1.0888   -2.4701 H   0  0  0  0  0  0  0  0  0  0  0  0
    5.4243   -1.7076   -3.9276 H   0  0  0  0  0  0  0  0  0  0  0  0
    7.7342   -1.2035   -3.2578 H   0  0  0  0  0  0  0  0  0  0  0  0
    8.1998   -0.0716   -1.1147 H   0  0  0  0  0  0  0  0  0  0  0  0
    8.0923    1.1385    1.2560 H   0  0  0  0  0  0  0  0  0  0  0  0
    7.4319    2.1988    3.3845 H   0  0  0  0  0  0  0  0  0  0  0  0
    5.0618    2.3767    4.0083 H   0  0  0  0  0  0  0  0  0  0  0  0
    3.3051    1.4949    2.5195 H   0  0  0  0  0  0  0  0  0  0  0  0
    2.2961    1.0117   -1.9153 H   0  0  0  0  0  0  0  0  0  0  0  0
   -0.1670    0.8482   -1.9380 H   0  0  0  0  0  0  0  0  0  0  0  0
   -2.7400    1.5133   -3.1849 H   0  0  0  0  0  0  0  0  0  0  0  0
   -4.0122    2.4548   -5.0740 H   0  0  0  0  0  0  0  0  0  0  0  0
  1  2  2  0  0  0  0
  2  3  1  0  0  0  0
  3  4  2  0  0  0  0
  4  5  1  0  0  0  0
  5  6  2  0  0  0  0
  6  7  1  0  0  0  0
  7  8  1  0  0  0  0
  8  9  2  0  0  0  0
  9 10  1  0  0  0  0
 10 11  2  0  0  0  0
 11 12  1  0  0  0  0
 12 13  2  0  0  0  0
  7 14  2  0  0  0  0
 14 15  1  0  0  0  0
 15 16  1  0  0  0  0
 16 17  2  0  0  0  0
 17 18  1  0  0  0  0
 18 19  2  0  0  0  0
 19 20  1  0  0  0  0
 20 21  1  0  0  0  0
 21 22  2  0  0  0  0
 22 23  1  0  0  0  0
 23 24  2  0  0  0  0
 24 25  1  0  0  0  0
 25 26  2  0  0  0  0
 26 27  1  0  0  0  0
 27 28  2  0  0  0  0
 28 29  1  0  0  0  0
 29 30  2  0  0  0  0
 30 31  1  0  0  0  0
 31 32  2  0  0  0  0
 19 33  1  0  0  0  0
 33 34  2  0  0  0  0
 15 35  2  0  0  0  0
  4 36  1  0  0  0  0
 36 37  2  0  0  0  0
 37  1  1  0  0  0  0
 35  5  1  0  0  0  0
 13  8  1  0  0  0  0
 34 16  1  0  0  0  0
 32 20  1  0  0  0  0
 26 21  1  0  0  0  0
 32 27  1  0  0  0  0
  1 38  1  0  0  0  0
  2 39  1  0  0  0  0
  3 40  1  0  0  0  0
  9 41  1  0  0  0  0
 10 42  1  0  0  0  0
 11 43  1  0  0  0  0
 12 44  1  0  0  0  0
 13 45  1  0  0  0  0
 17 46  1  0  0  0  0
 18 47  1  0  0  0  0
 22 48  1  0  0  0  0
 23 49  1  0  0  0  0
 24 50  1  0  0  0  0
 25 51  1  0  0  0  0
 28 52  1  0  0  0  0
 29 53  1  0  0  0  0
 30 54  1  0  0  0  0
 31 55  1  0  0  0  0
 33 56  1  0  0  0  0
 34 57  1  0  0  0  0
 36 58  1  0  0  0  0
 37 59  1  0  0  0  0
M  END
