
  xtb     03012221223D
 energy: -9.032930105481 gnorm: 0.000332239457 xtb: 6.4.1 (afa7bdf)
 41 45  0     0  0            999 V2000
    7.5467    1.7333    0.2534 C   0  0  0  0  0  0  0  0  0  0  0  0
    6.0688    1.5818    0.3538 C   0  0  0  0  0  0  0  0  0  0  0  0
    5.3793    2.0928    1.4435 C   0  0  0  0  0  0  0  0  0  0  0  0
    4.0139    1.9348    1.5526 C   0  0  0  0  0  0  0  0  0  0  0  0
    3.2968    1.2545    0.5752 C   0  0  0  0  0  0  0  0  0  0  0  0
    1.9001    1.0907    0.6840 C   0  0  0  0  0  0  0  0  0  0  0  0
    0.6900    0.9403    0.7688 C   0  0  0  0  0  0  0  0  0  0  0  0
   -0.7013    0.7497    0.8452 C   0  0  0  0  0  0  0  0  0  0  0  0
   -1.4568    1.5261    1.7207 C   0  0  0  0  0  0  0  0  0  0  0  0
   -2.8201    1.3753    1.8280 C   0  0  0  0  0  0  0  0  0  0  0  0
   -3.4975    0.4302    1.0553 C   0  0  0  0  0  0  0  0  0  0  0  0
   -4.9131    0.2487    1.1418 C   0  0  0  0  0  0  0  0  0  0  0  0
   -5.5497   -0.6722    0.3846 C   0  0  0  0  0  0  0  0  0  0  0  0
   -4.8309   -1.5012   -0.5330 C   0  0  0  0  0  0  0  0  0  0  0  0
   -5.4641   -2.4596   -1.3260 C   0  0  0  0  0  0  0  0  0  0  0  0
   -4.7396   -3.2425   -2.2007 C   0  0  0  0  0  0  0  0  0  0  0  0
   -3.3724   -3.0959   -2.3115 C   0  0  0  0  0  0  0  0  0  0  0  0
   -2.6910   -2.1521   -1.5413 C   0  0  0  0  0  0  0  0  0  0  0  0
   -1.2753   -1.9711   -1.6287 C   0  0  0  0  0  0  0  0  0  0  0  0
   -0.6396   -1.0497   -0.8717 C   0  0  0  0  0  0  0  0  0  0  0  0
   -1.3513   -0.2168    0.0483 C   0  0  0  0  0  0  0  0  0  0  0  0
   -2.7555   -0.3732    0.1573 C   0  0  0  0  0  0  0  0  0  0  0  0
   -3.4274   -1.3448   -0.6412 C   0  0  0  0  0  0  0  0  0  0  0  0
    3.9907    0.7351   -0.5118 C   0  0  0  0  0  0  0  0  0  0  0  0
    5.3562    0.8946   -0.6180 C   0  0  0  0  0  0  0  0  0  0  0  0
    7.8811    1.6697   -0.7831 H   0  0  0  0  0  0  0  0  0  0  0  0
    7.8698    2.6986    0.6460 H   0  0  0  0  0  0  0  0  0  0  0  0
    8.0556    0.9521    0.8198 H   0  0  0  0  0  0  0  0  0  0  0  0
    5.9247    2.6167    2.2098 H   0  0  0  0  0  0  0  0  0  0  0  0
    3.4860    2.3371    2.4004 H   0  0  0  0  0  0  0  0  0  0  0  0
   -0.9496    2.2601    2.3237 H   0  0  0  0  0  0  0  0  0  0  0  0
   -3.3798    1.9887    2.5127 H   0  0  0  0  0  0  0  0  0  0  0  0
   -5.4688    0.8648    1.8276 H   0  0  0  0  0  0  0  0  0  0  0  0
   -6.6160   -0.7953    0.4626 H   0  0  0  0  0  0  0  0  0  0  0  0
   -6.5307   -2.5816   -1.2468 H   0  0  0  0  0  0  0  0  0  0  0  0
   -5.2472   -3.9771   -2.8044 H   0  0  0  0  0  0  0  0  0  0  0  0
   -2.8156   -3.7115   -2.9969 H   0  0  0  0  0  0  0  0  0  0  0  0
   -0.7197   -2.5873   -2.3143 H   0  0  0  0  0  0  0  0  0  0  0  0
    0.4264   -0.9287   -0.9519 H   0  0  0  0  0  0  0  0  0  0  0  0
    3.4447    0.2030   -1.2722 H   0  0  0  0  0  0  0  0  0  0  0  0
    5.8827    0.4823   -1.4619 H   0  0  0  0  0  0  0  0  0  0  0  0
  1  2  1  0  0  0  0
  2  3  2  0  0  0  0
  3  4  1  0  0  0  0
  4  5  2  0  0  0  0
  5  6  1  0  0  0  0
  6  7  3  0  0  0  0
  7  8  1  0  0  0  0
  8  9  2  0  0  0  0
  9 10  1  0  0  0  0
 10 11  2  0  0  0  0
 11 12  1  0  0  0  0
 12 13  2  0  0  0  0
 13 14  1  0  0  0  0
 14 15  2  0  0  0  0
 15 16  1  0  0  0  0
 16 17  2  0  0  0  0
 17 18  1  0  0  0  0
 18 19  2  0  0  0  0
 19 20  1  0  0  0  0
 20 21  2  0  0  0  0
 21 22  1  0  0  0  0
 22 23  2  0  0  0  0
  5 24  1  0  0  0  0
 24 25  2  0  0  0  0
 25  2  1  0  0  0  0
 21  8  1  0  0  0  0
 22 11  1  0  0  0  0
 23 14  1  0  0  0  0
 23 18  1  0  0  0  0
  1 26  1  0  0  0  0
  1 27  1  0  0  0  0
  1 28  1  0  0  0  0
  3 29  1  0  0  0  0
  4 30  1  0  0  0  0
  9 31  1  0  0  0  0
 10 32  1  0  0  0  0
 12 33  1  0  0  0  0
 13 34  1  0  0  0  0
 15 35  1  0  0  0  0
 16 36  1  0  0  0  0
 17 37  1  0  0  0  0
 19 38  1  0  0  0  0
 20 39  1  0  0  0  0
 24 40  1  0  0  0  0
 25 41  1  0  0  0  0
M  END
