
  xtb     03012221313D
 energy: -16.550039604581 gnorm: 0.000080933361 xtb: 6.4.1 (afa7bdf)
 72 78  0     0  0            999 V2000
   10.2756   -4.1947    2.1449 N   0  0  0  0  0  0  0  0  0  0  0  0
    9.2821   -4.1469    1.5452 C   0  0  0  0  0  0  0  0  0  0  0  0
    8.0828   -4.0836    0.8200 C   0  0  0  0  0  0  0  0  0  0  0  0
    7.4190   -5.2433    0.4422 C   0  0  0  0  0  0  0  0  0  0  0  0
    6.2401   -5.1745   -0.2670 C   0  0  0  0  0  0  0  0  0  0  0  0
    5.7089   -3.9505   -0.6078 C   0  0  0  0  0  0  0  0  0  0  0  0
    6.3511   -2.7700   -0.2448 C   0  0  0  0  0  0  0  0  0  0  0  0
    5.7784   -1.4539   -0.6001 C   0  0  0  0  0  0  0  0  0  0  0  0
    6.5872   -0.4123   -1.0491 C   0  0  0  0  0  0  0  0  0  0  0  0
    6.0452    0.8155   -1.3628 C   0  0  0  0  0  0  0  0  0  0  0  0
    4.6912    1.0277   -1.2331 C   0  0  0  0  0  0  0  0  0  0  0  0
    3.8572    0.0073   -0.7902 C   0  0  0  0  0  0  0  0  0  0  0  0
    2.4110    0.2230   -0.6349 C   0  0  0  0  0  0  0  0  0  0  0  0
    1.6828   -0.8221   -0.2758 N   0  0  0  0  0  0  0  0  0  0  0  0
    0.3920   -0.5705   -0.1433 C   0  0  0  0  0  0  0  0  0  0  0  0
   -0.4922   -1.6808    0.2383 C   0  0  0  0  0  0  0  0  0  0  0  0
    0.0073   -2.9514    0.4998 C   0  0  0  0  0  0  0  0  0  0  0  0
   -0.8446   -3.9751    0.8501 C   0  0  0  0  0  0  0  0  0  0  0  0
   -2.2016   -3.7490    0.9418 C   0  0  0  0  0  0  0  0  0  0  0  0
   -2.7321   -2.4868    0.6839 C   0  0  0  0  0  0  0  0  0  0  0  0
   -4.1851   -2.2263    0.7670 C   0  0  0  0  0  0  0  0  0  0  0  0
   -4.6665   -1.0395    1.3133 C   0  0  0  0  0  0  0  0  0  0  0  0
   -6.0194   -0.7904    1.3763 C   0  0  0  0  0  0  0  0  0  0  0  0
   -6.9159   -1.7189    0.8952 C   0  0  0  0  0  0  0  0  0  0  0  0
   -6.4673   -2.9116    0.3433 C   0  0  0  0  0  0  0  0  0  0  0  0
   -7.3754   -3.8589   -0.1528 C   0  0  0  0  0  0  0  0  0  0  0  0
   -8.1236   -4.6457   -0.5653 N   0  0  0  0  0  0  0  0  0  0  0  0
   -5.1036   -3.1518    0.2851 C   0  0  0  0  0  0  0  0  0  0  0  0
   -1.8591   -1.4666    0.3354 C   0  0  0  0  0  0  0  0  0  0  0  0
   -0.1810    0.6068   -0.3252 N   0  0  0  0  0  0  0  0  0  0  0  0
    0.6463    1.5757   -0.6780 C   0  0  0  0  0  0  0  0  0  0  0  0
    0.0548    2.9072   -0.8726 C   0  0  0  0  0  0  0  0  0  0  0  0
    0.8120    3.9799   -1.3288 C   0  0  0  0  0  0  0  0  0  0  0  0
    0.2348    5.2197   -1.4911 C   0  0  0  0  0  0  0  0  0  0  0  0
   -1.0989    5.4089   -1.1968 C   0  0  0  0  0  0  0  0  0  0  0  0
   -1.8826    4.3539   -0.7342 C   0  0  0  0  0  0  0  0  0  0  0  0
   -3.3091    4.5410   -0.3938 C   0  0  0  0  0  0  0  0  0  0  0  0
   -4.2525    3.5677   -0.7121 C   0  0  0  0  0  0  0  0  0  0  0  0
   -5.5777    3.7343   -0.3767 C   0  0  0  0  0  0  0  0  0  0  0  0
   -5.9857    4.8729    0.2823 C   0  0  0  0  0  0  0  0  0  0  0  0
   -5.0689    5.8615    0.6148 C   0  0  0  0  0  0  0  0  0  0  0  0
   -5.4774    7.0210    1.2907 C   0  0  0  0  0  0  0  0  0  0  0  0
   -5.8111    7.9824    1.8505 N   0  0  0  0  0  0  0  0  0  0  0  0
   -3.7379    5.6832    0.2725 C   0  0  0  0  0  0  0  0  0  0  0  0
   -1.2864    3.1105   -0.5831 C   0  0  0  0  0  0  0  0  0  0  0  0
    1.9494    1.4430   -0.8564 N   0  0  0  0  0  0  0  0  0  0  0  0
    4.4146   -1.2249   -0.4810 C   0  0  0  0  0  0  0  0  0  0  0  0
    7.5393   -2.8574    0.4715 C   0  0  0  0  0  0  0  0  0  0  0  0
    7.8404   -6.1974    0.7132 H   0  0  0  0  0  0  0  0  0  0  0  0
    5.7341   -6.0802   -0.5564 H   0  0  0  0  0  0  0  0  0  0  0  0
    4.7931   -3.8970   -1.1713 H   0  0  0  0  0  0  0  0  0  0  0  0
    7.6449   -0.5794   -1.1584 H   0  0  0  0  0  0  0  0  0  0  0  0
    6.6829    1.6115   -1.7093 H   0  0  0  0  0  0  0  0  0  0  0  0
    4.2584    1.9840   -1.4702 H   0  0  0  0  0  0  0  0  0  0  0  0
    1.0677   -3.1178    0.4236 H   0  0  0  0  0  0  0  0  0  0  0  0
   -0.4491   -4.9561    1.0539 H   0  0  0  0  0  0  0  0  0  0  0  0
   -2.8640   -4.5484    1.2260 H   0  0  0  0  0  0  0  0  0  0  0  0
   -3.9671   -0.3184    1.7002 H   0  0  0  0  0  0  0  0  0  0  0  0
   -6.3777    0.1307    1.8043 H   0  0  0  0  0  0  0  0  0  0  0  0
   -7.9762   -1.5317    0.9412 H   0  0  0  0  0  0  0  0  0  0  0  0
   -4.7541   -4.0684   -0.1559 H   0  0  0  0  0  0  0  0  0  0  0  0
   -2.2437   -0.4868    0.1217 H   0  0  0  0  0  0  0  0  0  0  0  0
    1.8532    3.8228   -1.5505 H   0  0  0  0  0  0  0  0  0  0  0  0
    0.8279    6.0449   -1.8480 H   0  0  0  0  0  0  0  0  0  0  0  0
   -1.5493    6.3771   -1.3320 H   0  0  0  0  0  0  0  0  0  0  0  0
   -3.9364    2.6824   -1.2367 H   0  0  0  0  0  0  0  0  0  0  0  0
   -6.2970    2.9742   -0.6314 H   0  0  0  0  0  0  0  0  0  0  0  0
   -7.0208    5.0108    0.5484 H   0  0  0  0  0  0  0  0  0  0  0  0
   -3.0241    6.4407    0.5437 H   0  0  0  0  0  0  0  0  0  0  0  0
   -1.8659    2.2832   -0.2178 H   0  0  0  0  0  0  0  0  0  0  0  0
    3.7711   -2.0088   -0.1273 H   0  0  0  0  0  0  0  0  0  0  0  0
    8.0445   -1.9577    0.7753 H   0  0  0  0  0  0  0  0  0  0  0  0
  1  2  3  0  0  0  0
  2  3  1  0  0  0  0
  3  4  2  0  0  0  0
  4  5  1  0  0  0  0
  5  6  2  0  0  0  0
  6  7  1  0  0  0  0
  7  8  1  0  0  0  0
  8  9  2  0  0  0  0
  9 10  1  0  0  0  0
 10 11  2  0  0  0  0
 11 12  1  0  0  0  0
 12 13  1  0  0  0  0
 13 14  2  0  0  0  0
 14 15  1  0  0  0  0
 15 16  1  0  0  0  0
 16 17  2  0  0  0  0
 17 18  1  0  0  0  0
 18 19  2  0  0  0  0
 19 20  1  0  0  0  0
 20 21  1  0  0  0  0
 21 22  2  0  0  0  0
 22 23  1  0  0  0  0
 23 24  2  0  0  0  0
 24 25  1  0  0  0  0
 25 26  1  0  0  0  0
 26 27  3  0  0  0  0
 25 28  2  0  0  0  0
 20 29  2  0  0  0  0
 15 30  2  0  0  0  0
 30 31  1  0  0  0  0
 31 32  1  0  0  0  0
 32 33  2  0  0  0  0
 33 34  1  0  0  0  0
 34 35  2  0  0  0  0
 35 36  1  0  0  0  0
 36 37  1  0  0  0  0
 37 38  2  0  0  0  0
 38 39  1  0  0  0  0
 39 40  2  0  0  0  0
 40 41  1  0  0  0  0
 41 42  1  0  0  0  0
 42 43  3  0  0  0  0
 41 44  2  0  0  0  0
 36 45  2  0  0  0  0
 31 46  2  0  0  0  0
 12 47  2  0  0  0  0
  7 48  2  0  0  0  0
 48  3  1  0  0  0  0
 47  8  1  0  0  0  0
 46 13  1  0  0  0  0
 29 16  1  0  0  0  0
 45 32  1  0  0  0  0
 28 21  1  0  0  0  0
 44 37  1  0  0  0  0
  4 49  1  0  0  0  0
  5 50  1  0  0  0  0
  6 51  1  0  0  0  0
  9 52  1  0  0  0  0
 10 53  1  0  0  0  0
 11 54  1  0  0  0  0
 17 55  1  0  0  0  0
 18 56  1  0  0  0  0
 19 57  1  0  0  0  0
 22 58  1  0  0  0  0
 23 59  1  0  0  0  0
 24 60  1  0  0  0  0
 28 61  1  0  0  0  0
 29 62  1  0  0  0  0
 33 63  1  0  0  0  0
 34 64  1  0  0  0  0
 35 65  1  0  0  0  0
 38 66  1  0  0  0  0
 39 67  1  0  0  0  0
 40 68  1  0  0  0  0
 44 69  1  0  0  0  0
 45 70  1  0  0  0  0
 47 71  1  0  0  0  0
 48 72  1  0  0  0  0
M  END
