
  xtb     03012221213D
 energy: -6.212042998681 gnorm: 0.000258020213 xtb: 6.4.1 (afa7bdf)
 34 34  0     0  0            999 V2000
    7.3197   -0.1176   -0.9234 C   0  0  0  0  0  0  0  0  0  0  0  0
    5.9360   -0.0952   -0.7811 O   0  0  0  0  0  0  0  0  0  0  0  0
    5.5603    1.0551   -0.1376 C   0  0  0  0  0  0  0  0  0  0  0  0
    6.3482    1.9072    0.2376 O   0  0  0  0  0  0  0  0  0  0  0  0
    4.1327    1.2330    0.0923 C   0  0  0  0  0  0  0  0  0  0  0  0
    3.2309    0.3215   -0.2931 C   0  0  0  0  0  0  0  0  0  0  0  0
    1.8259    0.4603   -0.0862 C   0  0  0  0  0  0  0  0  0  0  0  0
    0.9315   -0.4699   -0.4738 C   0  0  0  0  0  0  0  0  0  0  0  0
   -0.5002   -0.3887   -0.2942 C   0  0  0  0  0  0  0  0  0  0  0  0
   -1.3128   -1.4434   -0.7258 C   0  0  0  0  0  0  0  0  0  0  0  0
   -2.6727   -1.4014   -0.5681 C   0  0  0  0  0  0  0  0  0  0  0  0
   -3.2994   -0.3003    0.0286 C   0  0  0  0  0  0  0  0  0  0  0  0
   -4.6935   -0.2556    0.1899 N   0  0  0  0  0  0  0  0  0  0  0  0
   -5.5443   -1.3924   -0.1623 C   0  0  0  0  0  0  0  0  0  0  0  0
   -5.3673    0.9307    0.7182 C   0  0  0  0  0  0  0  0  0  0  0  0
   -2.4852    0.7553    0.4579 C   0  0  0  0  0  0  0  0  0  0  0  0
   -1.1247    0.7131    0.3022 C   0  0  0  0  0  0  0  0  0  0  0  0
    7.6150   -1.0348   -1.4369 H   0  0  0  0  0  0  0  0  0  0  0  0
    7.6303    0.7542   -1.5041 H   0  0  0  0  0  0  0  0  0  0  0  0
    7.7787   -0.0777    0.0673 H   0  0  0  0  0  0  0  0  0  0  0  0
    3.8189    2.1317    0.5895 H   0  0  0  0  0  0  0  0  0  0  0  0
    3.5891   -0.5654   -0.7869 H   0  0  0  0  0  0  0  0  0  0  0  0
    1.4855    1.3530    0.4042 H   0  0  0  0  0  0  0  0  0  0  0  0
    1.3075   -1.3541   -0.9582 H   0  0  0  0  0  0  0  0  0  0  0  0
   -0.8525   -2.2991   -1.1889 H   0  0  0  0  0  0  0  0  0  0  0  0
   -3.2726   -2.2250   -0.9151 H   0  0  0  0  0  0  0  0  0  0  0  0
   -5.5325   -1.5473   -1.2392 H   0  0  0  0  0  0  0  0  0  0  0  0
   -6.5730   -1.2242    0.1488 H   0  0  0  0  0  0  0  0  0  0  0  0
   -5.1871   -2.2934    0.3323 H   0  0  0  0  0  0  0  0  0  0  0  0
   -5.0986    1.0781    1.7623 H   0  0  0  0  0  0  0  0  0  0  0  0
   -5.0770    1.8103    0.1470 H   0  0  0  0  0  0  0  0  0  0  0  0
   -6.4485    0.8299    0.6527 H   0  0  0  0  0  0  0  0  0  0  0  0
   -2.9384    1.6119    0.9263 H   0  0  0  0  0  0  0  0  0  0  0  0
   -0.5298    1.5402    0.6449 H   0  0  0  0  0  0  0  0  0  0  0  0
  1  2  1  0  0  0  0
  2  3  1  0  0  0  0
  3  4  2  0  0  0  0
  3  5  1  0  0  0  0
  5  6  2  0  0  0  0
  6  7  1  0  0  0  0
  7  8  2  0  0  0  0
  8  9  1  0  0  0  0
  9 10  2  0  0  0  0
 10 11  1  0  0  0  0
 11 12  2  0  0  0  0
 12 13  1  0  0  0  0
 13 14  1  0  0  0  0
 13 15  1  0  0  0  0
 12 16  1  0  0  0  0
 16 17  2  0  0  0  0
 17  9  1  0  0  0  0
  1 18  1  0  0  0  0
  1 19  1  0  0  0  0
  1 20  1  0  0  0  0
  5 21  1  0  0  0  0
  6 22  1  0  0  0  0
  7 23  1  0  0  0  0
  8 24  1  0  0  0  0
 10 25  1  0  0  0  0
 11 26  1  0  0  0  0
 14 27  1  0  0  0  0
 14 28  1  0  0  0  0
 14 29  1  0  0  0  0
 15 30  1  0  0  0  0
 15 31  1  0  0  0  0
 15 32  1  0  0  0  0
 16 33  1  0  0  0  0
 17 34  1  0  0  0  0
M  END
