
  xtb     03012221273D
 energy: -6.155945780199 gnorm: 0.000242146646 xtb: 6.4.1 (afa7bdf)
 31 32  0     0  0            999 V2000
    5.7280    0.5879    1.2599 C   0  0  0  0  0  0  0  0  0  0  0  0
    4.4024    0.2211    0.7123 C   0  0  0  0  0  0  0  0  0  0  0  0
    4.3025   -0.6173   -0.3478 C   0  0  0  0  0  0  0  0  0  0  0  0
    3.0466   -0.9692   -0.8773 C   0  0  0  0  0  0  0  0  0  0  0  0
    3.0202   -1.8135   -1.9416 O   0  0  0  0  0  0  0  0  0  0  0  0
    1.8916   -0.4386   -0.2904 C   0  0  0  0  0  0  0  0  0  0  0  0
    0.5749   -0.7901   -0.8256 C   0  0  0  0  0  0  0  0  0  0  0  0
    0.4503   -1.5464   -1.7766 O   0  0  0  0  0  0  0  0  0  0  0  0
   -0.6361   -0.2417   -0.2345 C   0  0  0  0  0  0  0  0  0  0  0  0
   -1.8470   -0.5451   -0.7085 C   0  0  0  0  0  0  0  0  0  0  0  0
   -3.1009   -0.0445   -0.1856 C   0  0  0  0  0  0  0  0  0  0  0  0
   -4.3028   -0.4468   -0.7757 C   0  0  0  0  0  0  0  0  0  0  0  0
   -5.5048    0.0123   -0.3018 C   0  0  0  0  0  0  0  0  0  0  0  0
   -5.5435    0.8858    0.7737 C   0  0  0  0  0  0  0  0  0  0  0  0
   -7.0528    1.4617    1.3660 Cl  0  0  0  0  0  0  0  0  0  0  0  0
   -4.3602    1.2937    1.3692 C   0  0  0  0  0  0  0  0  0  0  0  0
   -3.1558    0.8372    0.8989 C   0  0  0  0  0  0  0  0  0  0  0  0
    2.0447    0.4551    0.8425 C   0  0  0  0  0  0  0  0  0  0  0  0
    1.0516    0.9367    1.3781 O   0  0  0  0  0  0  0  0  0  0  0  0
    3.3066    0.7630    1.3165 O   0  0  0  0  0  0  0  0  0  0  0  0
    6.2849   -0.2983    1.5629 H   0  0  0  0  0  0  0  0  0  0  0  0
    5.6020    1.2259    2.1341 H   0  0  0  0  0  0  0  0  0  0  0  0
    6.3161    1.1341    0.5229 H   0  0  0  0  0  0  0  0  0  0  0  0
    5.1827   -1.0278   -0.8045 H   0  0  0  0  0  0  0  0  0  0  0  0
    2.0853   -1.9548   -2.1814 H   0  0  0  0  0  0  0  0  0  0  0  0
   -0.5376    0.4211    0.6011 H   0  0  0  0  0  0  0  0  0  0  0  0
   -1.8879   -1.2161   -1.5484 H   0  0  0  0  0  0  0  0  0  0  0  0
   -4.2767   -1.1242   -1.6104 H   0  0  0  0  0  0  0  0  0  0  0  0
   -6.4331   -0.2973   -0.7561 H   0  0  0  0  0  0  0  0  0  0  0  0
   -4.4047    1.9741    2.2056 H   0  0  0  0  0  0  0  0  0  0  0  0
   -2.2467    1.1620    1.3701 H   0  0  0  0  0  0  0  0  0  0  0  0
  1  2  1  0  0  0  0
  2  3  2  0  0  0  0
  3  4  1  0  0  0  0
  4  5  1  0  0  0  0
  4  6  2  0  0  0  0
  6  7  1  0  0  0  0
  7  8  2  0  0  0  0
  7  9  1  0  0  0  0
  9 10  2  0  0  0  0
 10 11  1  0  0  0  0
 11 12  2  0  0  0  0
 12 13  1  0  0  0  0
 13 14  2  0  0  0  0
 14 15  1  0  0  0  0
 14 16  1  0  0  0  0
 16 17  2  0  0  0  0
  6 18  1  0  0  0  0
 18 19  2  0  0  0  0
 18 20  1  0  0  0  0
 20  2  1  0  0  0  0
 17 11  1  0  0  0  0
  1 21  1  0  0  0  0
  1 22  1  0  0  0  0
  1 23  1  0  0  0  0
  3 24  1  0  0  0  0
  5 25  1  0  0  0  0
  9 26  1  0  0  0  0
 10 27  1  0  0  0  0
 12 28  1  0  0  0  0
 13 29  1  0  0  0  0
 16 30  1  0  0  0  0
 17 31  1  0  0  0  0
M  END
