
  xtb     03012221223D
 energy: -13.864884958097 gnorm: 0.000276463454 xtb: 6.4.1 (afa7bdf)
 70 74  0     0  0            999 V2000
   -5.6362   -3.7455   -0.3858 C   0  0  0  0  0  0  0  0  0  0  0  0
   -4.1985   -4.2940   -0.3116 C   0  0  0  0  0  0  0  0  0  0  0  0
   -3.9474   -5.1568   -1.5619 C   0  0  0  0  0  0  0  0  0  0  0  0
   -4.0734   -5.1632    0.9521 C   0  0  0  0  0  0  0  0  0  0  0  0
   -3.1602   -3.1634   -0.2514 C   0  0  0  0  0  0  0  0  0  0  0  0
   -1.7918   -3.4880   -0.2380 C   0  0  0  0  0  0  0  0  0  0  0  0
   -0.8102   -2.5300   -0.1751 C   0  0  0  0  0  0  0  0  0  0  0  0
   -1.1841   -1.1908   -0.1145 C   0  0  0  0  0  0  0  0  0  0  0  0
   -2.5435   -0.8435   -0.1325 C   0  0  0  0  0  0  0  0  0  0  0  0
   -3.5274   -1.8306   -0.1977 C   0  0  0  0  0  0  0  0  0  0  0  0
   -2.6196    0.5980   -0.0733 C   0  0  0  0  0  0  0  0  0  0  0  0
   -3.7022    1.4776   -0.0470 C   0  0  0  0  0  0  0  0  0  0  0  0
   -3.4777    2.8403    0.0338 C   0  0  0  0  0  0  0  0  0  0  0  0
   -4.6293    3.8564    0.0711 C   0  0  0  0  0  0  0  0  0  0  0  0
   -4.4804    4.8421   -1.1021 C   0  0  0  0  0  0  0  0  0  0  0  0
   -6.0024    3.1681   -0.0481 C   0  0  0  0  0  0  0  0  0  0  0  0
   -4.5852    4.6252    1.4036 C   0  0  0  0  0  0  0  0  0  0  0  0
   -2.1512    3.3040    0.0953 C   0  0  0  0  0  0  0  0  0  0  0  0
   -1.0738    2.4531    0.0685 C   0  0  0  0  0  0  0  0  0  0  0  0
   -1.3041    1.0836   -0.0232 C   0  0  0  0  0  0  0  0  0  0  0  0
   -0.4121   -0.0104   -0.0490 N   0  0  0  0  0  0  0  0  0  0  0  0
    1.0221    0.0640   -0.0260 C   0  0  0  0  0  0  0  0  0  0  0  0
    1.7015    0.9189   -0.8871 C   0  0  0  0  0  0  0  0  0  0  0  0
    3.0743    0.9876   -0.8699 C   0  0  0  0  0  0  0  0  0  0  0  0
    3.8136    0.2028    0.0109 C   0  0  0  0  0  0  0  0  0  0  0  0
    5.2206    0.2702    0.0270 C   0  0  0  0  0  0  0  0  0  0  0  0
    6.4409    0.3268    0.0348 C   0  0  0  0  0  0  0  0  0  0  0  0
    7.8481    0.3887    0.0393 C   0  0  0  0  0  0  0  0  0  0  0  0
    8.5858   -0.1315   -1.0200 C   0  0  0  0  0  0  0  0  0  0  0  0
    9.9604   -0.0713   -1.0152 C   0  0  0  0  0  0  0  0  0  0  0  0
   10.6394    0.5097    0.0465 C   0  0  0  0  0  0  0  0  0  0  0  0
   12.0975    0.5602    0.0267 C   0  0  0  0  0  0  0  0  0  0  0  0
   12.7915    0.1304   -0.8549 O   0  0  0  0  0  0  0  0  0  0  0  0
    9.9074    1.0315    1.1083 C   0  0  0  0  0  0  0  0  0  0  0  0
    8.5327    0.9708    1.1024 C   0  0  0  0  0  0  0  0  0  0  0  0
    3.1328   -0.6518    0.8737 C   0  0  0  0  0  0  0  0  0  0  0  0
    1.7599   -0.7196    0.8547 C   0  0  0  0  0  0  0  0  0  0  0  0
   -5.8773   -3.1544    0.4970 H   0  0  0  0  0  0  0  0  0  0  0  0
   -6.3577   -4.5599   -0.4427 H   0  0  0  0  0  0  0  0  0  0  0  0
   -5.7720   -3.1219   -1.2687 H   0  0  0  0  0  0  0  0  0  0  0  0
   -2.9649   -5.6251   -1.5317 H   0  0  0  0  0  0  0  0  0  0  0  0
   -4.6900   -5.9498   -1.6430 H   0  0  0  0  0  0  0  0  0  0  0  0
   -4.0017   -4.5499   -2.4650 H   0  0  0  0  0  0  0  0  0  0  0  0
   -4.8080   -5.9677    0.9465 H   0  0  0  0  0  0  0  0  0  0  0  0
   -4.2350   -4.5644    1.8478 H   0  0  0  0  0  0  0  0  0  0  0  0
   -3.0849   -5.6140    1.0253 H   0  0  0  0  0  0  0  0  0  0  0  0
   -1.5046   -4.5249   -0.2767 H   0  0  0  0  0  0  0  0  0  0  0  0
    0.2315   -2.7946   -0.1785 H   0  0  0  0  0  0  0  0  0  0  0  0
   -4.5588   -1.5331   -0.2051 H   0  0  0  0  0  0  0  0  0  0  0  0
   -4.6967    1.0753   -0.0873 H   0  0  0  0  0  0  0  0  0  0  0  0
   -5.3001    5.5597   -1.1142 H   0  0  0  0  0  0  0  0  0  0  0  0
   -3.5495    5.4029   -1.0344 H   0  0  0  0  0  0  0  0  0  0  0  0
   -4.4831    4.3108   -2.0532 H   0  0  0  0  0  0  0  0  0  0  0  0
   -6.8059    3.9037   -0.0309 H   0  0  0  0  0  0  0  0  0  0  0  0
   -6.1696    2.4795    0.7794 H   0  0  0  0  0  0  0  0  0  0  0  0
   -6.0826    2.6138   -0.9826 H   0  0  0  0  0  0  0  0  0  0  0  0
   -5.4013    5.3444    1.4658 H   0  0  0  0  0  0  0  0  0  0  0  0
   -4.6743    3.9398    2.2458 H   0  0  0  0  0  0  0  0  0  0  0  0
   -3.6500    5.1718    1.5146 H   0  0  0  0  0  0  0  0  0  0  0  0
   -1.9755    4.3634    0.1703 H   0  0  0  0  0  0  0  0  0  0  0  0
   -0.0665    2.8230    0.1287 H   0  0  0  0  0  0  0  0  0  0  0  0
    1.1334    1.5151   -1.5809 H   0  0  0  0  0  0  0  0  0  0  0  0
    3.5942    1.6484   -1.5417 H   0  0  0  0  0  0  0  0  0  0  0  0
    8.0644   -0.5839   -1.8466 H   0  0  0  0  0  0  0  0  0  0  0  0
   10.5340   -0.4729   -1.8330 H   0  0  0  0  0  0  0  0  0  0  0  0
   12.6053    1.0169    0.8643 H   0  0  0  0  0  0  0  0  0  0  0  0
   10.4277    1.4833    1.9350 H   0  0  0  0  0  0  0  0  0  0  0  0
    7.9679    1.3753    1.9254 H   0  0  0  0  0  0  0  0  0  0  0  0
    3.6979   -1.2598    1.5587 H   0  0  0  0  0  0  0  0  0  0  0  0
    1.2359   -1.3706    1.5337 H   0  0  0  0  0  0  0  0  0  0  0  0
  1  2  1  0  0  0  0
  2  3  1  0  0  0  0
  2  4  1  0  0  0  0
  2  5  1  0  0  0  0
  5  6  2  0  0  0  0
  6  7  1  0  0  0  0
  7  8  2  0  0  0  0
  8  9  1  0  0  0  0
  9 10  2  0  0  0  0
  9 11  1  0  0  0  0
 11 12  2  0  0  0  0
 12 13  1  0  0  0  0
 13 14  1  0  0  0  0
 14 15  1  0  0  0  0
 14 16  1  0  0  0  0
 14 17  1  0  0  0  0
 13 18  2  0  0  0  0
 18 19  1  0  0  0  0
 19 20  2  0  0  0  0
 20 21  1  0  0  0  0
 21 22  1  0  0  0  0
 22 23  2  0  0  0  0
 23 24  1  0  0  0  0
 24 25  2  0  0  0  0
 25 26  1  0  0  0  0
 26 27  3  0  0  0  0
 27 28  1  0  0  0  0
 28 29  2  0  0  0  0
 29 30  1  0  0  0  0
 30 31  2  0  0  0  0
 31 32  1  0  0  0  0
 32 33  2  0  0  0  0
 31 34  1  0  0  0  0
 34 35  2  0  0  0  0
 25 36  1  0  0  0  0
 36 37  2  0  0  0  0
 10  5  1  0  0  0  0
 20 11  1  0  0  0  0
 37 22  1  0  0  0  0
 21  8  1  0  0  0  0
 35 28  1  0  0  0  0
  1 38  1  0  0  0  0
  1 39  1  0  0  0  0
  1 40  1  0  0  0  0
  3 41  1  0  0  0  0
  3 42  1  0  0  0  0
  3 43  1  0  0  0  0
  4 44  1  0  0  0  0
  4 45  1  0  0  0  0
  4 46  1  0  0  0  0
  6 47  1  0  0  0  0
  7 48  1  0  0  0  0
 10 49  1  0  0  0  0
 12 50  1  0  0  0  0
 15 51  1  0  0  0  0
 15 52  1  0  0  0  0
 15 53  1  0  0  0  0
 16 54  1  0  0  0  0
 16 55  1  0  0  0  0
 16 56  1  0  0  0  0
 17 57  1  0  0  0  0
 17 58  1  0  0  0  0
 17 59  1  0  0  0  0
 18 60  1  0  0  0  0
 19 61  1  0  0  0  0
 23 62  1  0  0  0  0
 24 63  1  0  0  0  0
 29 64  1  0  0  0  0
 30 65  1  0  0  0  0
 32 66  1  0  0  0  0
 34 67  1  0  0  0  0
 35 68  1  0  0  0  0
 36 69  1  0  0  0  0
 37 70  1  0  0  0  0
M  END
