
  xtb     03012221273D
 energy: -10.916839968342 gnorm: 0.000155864607 xtb: 6.4.1 (afa7bdf)
 55 59  0     0  0            999 V2000
   -6.2294   -1.8542    1.5415 C   0  0  0  0  0  0  0  0  0  0  0  0
   -5.2600   -2.0430    0.3884 C   0  0  0  0  0  0  0  0  0  0  0  0
   -3.8715   -1.4859    0.6963 C   0  0  0  0  0  0  0  0  0  0  0  0
   -2.8651   -1.6633   -0.4429 C   0  0  0  0  0  0  0  0  0  0  0  0
   -3.2537   -0.9620   -1.7450 C   0  0  0  0  0  0  0  0  0  0  0  0
   -3.4206    0.5408   -1.5830 C   0  0  0  0  0  0  0  0  0  0  0  0
   -2.2342    1.1509   -1.0116 N   0  0  0  0  0  0  0  0  0  0  0  0
   -2.3062    1.6443    0.2995 C   0  0  0  0  0  0  0  0  0  0  0  0
   -3.3277    1.5473    0.9556 O   0  0  0  0  0  0  0  0  0  0  0  0
   -1.1014    2.2685    0.8602 C   0  0  0  0  0  0  0  0  0  0  0  0
   -1.1074    2.7891    2.1303 C   0  0  0  0  0  0  0  0  0  0  0  0
    0.0366    3.3785    2.6672 C   0  0  0  0  0  0  0  0  0  0  0  0
    1.1881    3.4494    1.9391 C   0  0  0  0  0  0  0  0  0  0  0  0
    1.2420    2.9287    0.6287 C   0  0  0  0  0  0  0  0  0  0  0  0
    2.4093    2.9777   -0.1519 C   0  0  0  0  0  0  0  0  0  0  0  0
    2.4404    2.4552   -1.4239 C   0  0  0  0  0  0  0  0  0  0  0  0
    3.6158    2.4797   -2.1755 N   0  0  0  0  0  0  0  0  0  0  0  0
    4.5547    1.6022   -2.1201 C   0  0  0  0  0  0  0  0  0  0  0  0
    4.6187    0.4465   -1.2891 C   0  0  0  0  0  0  0  0  0  0  0  0
    5.5713   -0.4377   -1.4498 N   0  0  0  0  0  0  0  0  0  0  0  0
    5.4543   -1.5009   -0.5809 C   0  0  0  0  0  0  0  0  0  0  0  0
    6.3090   -2.6106   -0.5281 C   0  0  0  0  0  0  0  0  0  0  0  0
    6.0659   -3.6064    0.3836 C   0  0  0  0  0  0  0  0  0  0  0  0
    4.9812   -3.5261    1.2547 C   0  0  0  0  0  0  0  0  0  0  0  0
    4.1336   -2.4452    1.2171 C   0  0  0  0  0  0  0  0  0  0  0  0
    4.3693   -1.4317    0.2999 C   0  0  0  0  0  0  0  0  0  0  0  0
    3.4940    0.0397    0.0200 S   0  0  0  0  0  0  0  0  0  0  0  0
    1.2775    1.8711   -1.9537 C   0  0  0  0  0  0  0  0  0  0  0  0
    0.1207    1.8016   -1.2286 C   0  0  0  0  0  0  0  0  0  0  0  0
    0.0818    2.3319    0.0855 C   0  0  0  0  0  0  0  0  0  0  0  0
   -1.0750    1.1728   -1.7979 C   0  0  0  0  0  0  0  0  0  0  0  0
   -1.0539    0.6788   -2.9104 O   0  0  0  0  0  0  0  0  0  0  0  0
   -5.8731   -2.3555    2.4445 H   0  0  0  0  0  0  0  0  0  0  0  0
   -7.2220   -2.2522    1.3144 H   0  0  0  0  0  0  0  0  0  0  0  0
   -6.3479   -0.7961    1.7871 H   0  0  0  0  0  0  0  0  0  0  0  0
   -5.6589   -1.5616   -0.5129 H   0  0  0  0  0  0  0  0  0  0  0  0
   -5.1769   -3.1068    0.1319 H   0  0  0  0  0  0  0  0  0  0  0  0
   -3.9573   -0.4239    0.9495 H   0  0  0  0  0  0  0  0  0  0  0  0
   -3.4896   -1.9601    1.6086 H   0  0  0  0  0  0  0  0  0  0  0  0
   -2.7165   -2.7348   -0.6290 H   0  0  0  0  0  0  0  0  0  0  0  0
   -1.8850   -1.2849   -0.1230 H   0  0  0  0  0  0  0  0  0  0  0  0
   -2.4758   -1.1401   -2.4990 H   0  0  0  0  0  0  0  0  0  0  0  0
   -4.1679   -1.4045   -2.1563 H   0  0  0  0  0  0  0  0  0  0  0  0
   -4.2692    0.7798   -0.9356 H   0  0  0  0  0  0  0  0  0  0  0  0
   -3.6118    1.0260   -2.5459 H   0  0  0  0  0  0  0  0  0  0  0  0
   -2.0166    2.7339    2.7032 H   0  0  0  0  0  0  0  0  0  0  0  0
    0.0073    3.7812    3.6665 H   0  0  0  0  0  0  0  0  0  0  0  0
    2.0695    3.9040    2.3562 H   0  0  0  0  0  0  0  0  0  0  0  0
    3.3017    3.4195    0.2501 H   0  0  0  0  0  0  0  0  0  0  0  0
    5.3726    1.7437   -2.8064 H   0  0  0  0  0  0  0  0  0  0  0  0
    7.1411   -2.6631   -1.2070 H   0  0  0  0  0  0  0  0  0  0  0  0
    6.7202   -4.4616    0.4266 H   0  0  0  0  0  0  0  0  0  0  0  0
    4.8065   -4.3184    1.9634 H   0  0  0  0  0  0  0  0  0  0  0  0
    3.2927   -2.3707    1.8847 H   0  0  0  0  0  0  0  0  0  0  0  0
    1.2990    1.4582   -2.9455 H   0  0  0  0  0  0  0  0  0  0  0  0
  1  2  1  0  0  0  0
  2  3  1  0  0  0  0
  3  4  1  0  0  0  0
  4  5  1  0  0  0  0
  5  6  1  0  0  0  0
  6  7  1  0  0  0  0
  7  8  1  0  0  0  0
  8  9  2  0  0  0  0
  8 10  1  0  0  0  0
 10 11  1  0  0  0  0
 11 12  2  0  0  0  0
 12 13  1  0  0  0  0
 13 14  2  0  0  0  0
 14 15  1  0  0  0  0
 15 16  2  0  0  0  0
 16 17  1  0  0  0  0
 17 18  2  0  0  0  0
 18 19  1  0  0  0  0
 19 20  2  0  0  0  0
 20 21  1  0  0  0  0
 21 22  2  0  0  0  0
 22 23  1  0  0  0  0
 23 24  2  0  0  0  0
 24 25  1  0  0  0  0
 25 26  2  0  0  0  0
 26 27  1  0  0  0  0
 16 28  1  0  0  0  0
 28 29  2  0  0  0  0
 29 30  1  0  0  0  0
 29 31  1  0  0  0  0
 31 32  2  0  0  0  0
 31  7  1  0  0  0  0
 30 10  2  0  0  0  0
 30 14  1  0  0  0  0
 27 19  1  0  0  0  0
 26 21  1  0  0  0  0
  1 33  1  0  0  0  0
  1 34  1  0  0  0  0
  1 35  1  0  0  0  0
  2 36  1  0  0  0  0
  2 37  1  0  0  0  0
  3 38  1  0  0  0  0
  3 39  1  0  0  0  0
  4 40  1  0  0  0  0
  4 41  1  0  0  0  0
  5 42  1  0  0  0  0
  5 43  1  0  0  0  0
  6 44  1  0  0  0  0
  6 45  1  0  0  0  0
 11 46  1  0  0  0  0
 12 47  1  0  0  0  0
 13 48  1  0  0  0  0
 15 49  1  0  0  0  0
 18 50  1  0  0  0  0
 22 51  1  0  0  0  0
 23 52  1  0  0  0  0
 24 53  1  0  0  0  0
 25 54  1  0  0  0  0
 28 55  1  0  0  0  0
M  END
