
  xtb     03012221223D
 energy: -14.461098260200 gnorm: 0.000296482117 xtb: 6.4.1 (afa7bdf)
 65 72  0     0  0            999 V2000
   -5.6210    5.3560   -0.1436 C   0  0  0  0  0  0  0  0  0  0  0  0
   -4.3363    4.8506   -0.1257 C   0  0  0  0  0  0  0  0  0  0  0  0
   -4.1361    3.4909   -0.1383 C   0  0  0  0  0  0  0  0  0  0  0  0
   -5.2103    2.6054   -0.1695 C   0  0  0  0  0  0  0  0  0  0  0  0
   -5.0220    1.2148   -0.1842 N   0  0  0  0  0  0  0  0  0  0  0  0
   -3.8226    0.4819   -0.1622 C   0  0  0  0  0  0  0  0  0  0  0  0
   -3.9522   -0.8347   -0.1874 N   0  0  0  0  0  0  0  0  0  0  0  0
   -2.8139   -1.5060   -0.1646 C   0  0  0  0  0  0  0  0  0  0  0  0
   -2.8467   -2.9113   -0.1873 N   0  0  0  0  0  0  0  0  0  0  0  0
   -3.9544   -3.7718   -0.2313 C   0  0  0  0  0  0  0  0  0  0  0  0
   -5.2596   -3.2869   -0.2496 C   0  0  0  0  0  0  0  0  0  0  0  0
   -6.3346   -4.1423   -0.2898 C   0  0  0  0  0  0  0  0  0  0  0  0
   -6.1262   -5.5069   -0.3137 C   0  0  0  0  0  0  0  0  0  0  0  0
   -4.8400   -6.0097   -0.2971 C   0  0  0  0  0  0  0  0  0  0  0  0
   -3.7636   -5.1532   -0.2561 C   0  0  0  0  0  0  0  0  0  0  0  0
   -1.6095   -0.9606   -0.1182 N   0  0  0  0  0  0  0  0  0  0  0  0
   -1.5981    0.3603   -0.0950 C   0  0  0  0  0  0  0  0  0  0  0  0
   -0.3667    1.0391   -0.0398 N   0  0  0  0  0  0  0  0  0  0  0  0
    0.9287    0.5415    0.0127 C   0  0  0  0  0  0  0  0  0  0  0  0
    1.1529   -0.8264    0.0173 C   0  0  0  0  0  0  0  0  0  0  0  0
    2.4165   -1.3602    0.0773 C   0  0  0  0  0  0  0  0  0  0  0  0
    3.5497   -0.5505    0.1377 C   0  0  0  0  0  0  0  0  0  0  0  0
    4.8872   -1.1131    0.2045 C   0  0  0  0  0  0  0  0  0  0  0  0
    5.1161   -2.4859    0.2123 C   0  0  0  0  0  0  0  0  0  0  0  0
    6.3969   -3.0139    0.2774 C   0  0  0  0  0  0  0  0  0  0  0  0
    7.4836   -2.1874    0.3365 C   0  0  0  0  0  0  0  0  0  0  0  0
    7.3200   -0.7883    0.3321 C   0  0  0  0  0  0  0  0  0  0  0  0
    8.4302    0.0766    0.3926 C   0  0  0  0  0  0  0  0  0  0  0  0
    8.2553    1.4316    0.3875 C   0  0  0  0  0  0  0  0  0  0  0  0
    6.9802    1.9745    0.3225 C   0  0  0  0  0  0  0  0  0  0  0  0
    5.8445    1.1748    0.2609 C   0  0  0  0  0  0  0  0  0  0  0  0
    4.5010    1.7358    0.1928 C   0  0  0  0  0  0  0  0  0  0  0  0
    4.2826    3.1071    0.1840 C   0  0  0  0  0  0  0  0  0  0  0  0
    3.0062    3.6327    0.1195 C   0  0  0  0  0  0  0  0  0  0  0  0
    1.9146    2.8107    0.0631 C   0  0  0  0  0  0  0  0  0  0  0  0
    2.0629    1.4158    0.0693 C   0  0  0  0  0  0  0  0  0  0  0  0
    3.3738    0.8641    0.1334 C   0  0  0  0  0  0  0  0  0  0  0  0
    6.0117   -0.2393    0.2655 C   0  0  0  0  0  0  0  0  0  0  0  0
   -2.6728    1.1315   -0.1172 N   0  0  0  0  0  0  0  0  0  0  0  0
   -6.5006    3.1347   -0.1872 C   0  0  0  0  0  0  0  0  0  0  0  0
   -6.7012    4.4961   -0.1741 C   0  0  0  0  0  0  0  0  0  0  0  0
   -5.7809    6.4229   -0.1336 H   0  0  0  0  0  0  0  0  0  0  0  0
   -3.4932    5.5203   -0.1021 H   0  0  0  0  0  0  0  0  0  0  0  0
   -3.1414    3.0891   -0.1239 H   0  0  0  0  0  0  0  0  0  0  0  0
   -5.8585    0.6362   -0.2135 H   0  0  0  0  0  0  0  0  0  0  0  0
   -1.9266   -3.3453   -0.1645 H   0  0  0  0  0  0  0  0  0  0  0  0
   -5.4116   -2.2250   -0.2313 H   0  0  0  0  0  0  0  0  0  0  0  0
   -7.3373   -3.7493   -0.3027 H   0  0  0  0  0  0  0  0  0  0  0  0
   -6.9683   -6.1805   -0.3457 H   0  0  0  0  0  0  0  0  0  0  0  0
   -4.6793   -7.0745   -0.3167 H   0  0  0  0  0  0  0  0  0  0  0  0
   -2.7600   -5.5414   -0.2437 H   0  0  0  0  0  0  0  0  0  0  0  0
   -0.4846    2.0484   -0.0280 H   0  0  0  0  0  0  0  0  0  0  0  0
    0.3021   -1.4781   -0.0259 H   0  0  0  0  0  0  0  0  0  0  0  0
    2.5209   -2.4286    0.0781 H   0  0  0  0  0  0  0  0  0  0  0  0
    4.2861   -3.1678    0.1673 H   0  0  0  0  0  0  0  0  0  0  0  0
    6.5350   -4.0823    0.2814 H   0  0  0  0  0  0  0  0  0  0  0  0
    8.4779   -2.5979    0.3871 H   0  0  0  0  0  0  0  0  0  0  0  0
    9.4200   -0.3446    0.4431 H   0  0  0  0  0  0  0  0  0  0  0  0
    9.1119    2.0831    0.4342 H   0  0  0  0  0  0  0  0  0  0  0  0
    6.8824    3.0452    0.3209 H   0  0  0  0  0  0  0  0  0  0  0  0
    5.1140    3.7848    0.2273 H   0  0  0  0  0  0  0  0  0  0  0  0
    2.8703    4.7034    0.1135 H   0  0  0  0  0  0  0  0  0  0  0  0
    0.9370    3.2499    0.0118 H   0  0  0  0  0  0  0  0  0  0  0  0
   -7.3400    2.4617   -0.2112 H   0  0  0  0  0  0  0  0  0  0  0  0
   -7.7026    4.8922   -0.1877 H   0  0  0  0  0  0  0  0  0  0  0  0
  1  2  2  0  0  0  0
  2  3  1  0  0  0  0
  3  4  2  0  0  0  0
  4  5  1  0  0  0  0
  5  6  1  0  0  0  0
  6  7  2  0  0  0  0
  7  8  1  0  0  0  0
  8  9  1  0  0  0  0
  9 10  1  0  0  0  0
 10 11  2  0  0  0  0
 11 12  1  0  0  0  0
 12 13  2  0  0  0  0
 13 14  1  0  0  0  0
 14 15  2  0  0  0  0
  8 16  2  0  0  0  0
 16 17  1  0  0  0  0
 17 18  1  0  0  0  0
 18 19  1  0  0  0  0
 19 20  2  0  0  0  0
 20 21  1  0  0  0  0
 21 22  2  0  0  0  0
 22 23  1  0  0  0  0
 23 24  2  0  0  0  0
 24 25  1  0  0  0  0
 25 26  2  0  0  0  0
 26 27  1  0  0  0  0
 27 28  2  0  0  0  0
 28 29  1  0  0  0  0
 29 30  2  0  0  0  0
 30 31  1  0  0  0  0
 31 32  1  0  0  0  0
 32 33  1  0  0  0  0
 33 34  2  0  0  0  0
 34 35  1  0  0  0  0
 35 36  2  0  0  0  0
 36 37  1  0  0  0  0
 31 38  2  0  0  0  0
 17 39  2  0  0  0  0
  4 40  1  0  0  0  0
 40 41  2  0  0  0  0
 41  1  1  0  0  0  0
 39  6  1  0  0  0  0
 15 10  1  0  0  0  0
 36 19  1  0  0  0  0
 37 22  1  0  0  0  0
 38 23  1  0  0  0  0
 38 27  1  0  0  0  0
 37 32  2  0  0  0  0
  1 42  1  0  0  0  0
  2 43  1  0  0  0  0
  3 44  1  0  0  0  0
  5 45  1  0  0  0  0
  9 46  1  0  0  0  0
 11 47  1  0  0  0  0
 12 48  1  0  0  0  0
 13 49  1  0  0  0  0
 14 50  1  0  0  0  0
 15 51  1  0  0  0  0
 18 52  1  0  0  0  0
 20 53  1  0  0  0  0
 21 54  1  0  0  0  0
 24 55  1  0  0  0  0
 25 56  1  0  0  0  0
 26 57  1  0  0  0  0
 28 58  1  0  0  0  0
 29 59  1  0  0  0  0
 30 60  1  0  0  0  0
 33 61  1  0  0  0  0
 34 62  1  0  0  0  0
 35 63  1  0  0  0  0
 40 64  1  0  0  0  0
 41 65  1  0  0  0  0
M  END
