
  xtb     03012221253D
 energy: -8.648332982815 gnorm: 0.000187776739 xtb: 6.4.1 (afa7bdf)
 43 45  0     0  0            999 V2000
   -3.0816    2.2117    0.9740 C   0  0  0  0  0  0  0  0  0  0  0  0
   -3.9866    1.2536    0.2848 C   0  0  0  0  0  0  0  0  0  0  0  0
   -5.0910    1.7204   -0.4028 C   0  0  0  0  0  0  0  0  0  0  0  0
   -5.9629    0.8473   -1.0203 C   0  0  0  0  0  0  0  0  0  0  0  0
   -5.7361   -0.5122   -0.9587 C   0  0  0  0  0  0  0  0  0  0  0  0
   -4.6336   -1.0175   -0.2949 C   0  0  0  0  0  0  0  0  0  0  0  0
   -4.3897   -2.4831   -0.2382 C   0  0  0  0  0  0  0  0  0  0  0  0
   -3.7415   -0.1314    0.3349 C   0  0  0  0  0  0  0  0  0  0  0  0
   -2.5937   -0.6435    1.0126 N   0  0  0  0  0  0  0  0  0  0  0  0
   -1.2523   -0.4247    0.6601 C   0  0  0  0  0  0  0  0  0  0  0  0
   -0.2202   -0.9425    1.4442 C   0  0  0  0  0  0  0  0  0  0  0  0
    1.0934   -0.7488    1.0962 C   0  0  0  0  0  0  0  0  0  0  0  0
    1.4358   -0.0316   -0.0563 C   0  0  0  0  0  0  0  0  0  0  0  0
    2.8101    0.1889   -0.4634 C   0  0  0  0  0  0  0  0  0  0  0  0
    3.8987   -0.2441    0.1943 C   0  0  0  0  0  0  0  0  0  0  0  0
    5.2751   -0.0287   -0.2216 C   0  0  0  0  0  0  0  0  0  0  0  0
    6.3210   -0.5241    0.5461 C   0  0  0  0  0  0  0  0  0  0  0  0
    7.6065   -0.3070    0.1244 C   0  0  0  0  0  0  0  0  0  0  0  0
    7.8144    0.3924   -1.0417 C   0  0  0  0  0  0  0  0  0  0  0  0
    6.8506    0.8823   -1.8035 N   0  0  0  0  0  0  0  0  0  0  0  0
    5.6200    0.6628   -1.3810 C   0  0  0  0  0  0  0  0  0  0  0  0
    0.3962    0.4800   -0.8414 C   0  0  0  0  0  0  0  0  0  0  0  0
   -0.9161    0.2864   -0.4923 C   0  0  0  0  0  0  0  0  0  0  0  0
   -2.4350    1.6982    1.6862 H   0  0  0  0  0  0  0  0  0  0  0  0
   -2.4465    2.7336    0.2571 H   0  0  0  0  0  0  0  0  0  0  0  0
   -3.6522    2.9599    1.5261 H   0  0  0  0  0  0  0  0  0  0  0  0
   -5.2711    2.7813   -0.4442 H   0  0  0  0  0  0  0  0  0  0  0  0
   -6.8229    1.2270   -1.5471 H   0  0  0  0  0  0  0  0  0  0  0  0
   -6.4193   -1.1941   -1.4359 H   0  0  0  0  0  0  0  0  0  0  0  0
   -4.8871   -3.0001   -1.0599 H   0  0  0  0  0  0  0  0  0  0  0  0
   -3.3235   -2.7026   -0.3081 H   0  0  0  0  0  0  0  0  0  0  0  0
   -4.7607   -2.9022    0.6978 H   0  0  0  0  0  0  0  0  0  0  0  0
   -2.7588   -1.3627    1.7150 H   0  0  0  0  0  0  0  0  0  0  0  0
   -0.4711   -1.4960    2.3321 H   0  0  0  0  0  0  0  0  0  0  0  0
    1.8680   -1.1577    1.7193 H   0  0  0  0  0  0  0  0  0  0  0  0
    2.9469    0.7454   -1.3724 H   0  0  0  0  0  0  0  0  0  0  0  0
    3.7641   -0.7990    1.1041 H   0  0  0  0  0  0  0  0  0  0  0  0
    6.1174   -1.0678    1.4535 H   0  0  0  0  0  0  0  0  0  0  0  0
    8.4407   -0.6782    0.6962 H   0  0  0  0  0  0  0  0  0  0  0  0
    8.8248    0.5665   -1.3798 H   0  0  0  0  0  0  0  0  0  0  0  0
    4.8373    1.0613   -2.0035 H   0  0  0  0  0  0  0  0  0  0  0  0
    0.6386    1.0300   -1.7344 H   0  0  0  0  0  0  0  0  0  0  0  0
   -1.7061    0.6711   -1.1122 H   0  0  0  0  0  0  0  0  0  0  0  0
  1  2  1  0  0  0  0
  2  3  2  0  0  0  0
  3  4  1  0  0  0  0
  4  5  2  0  0  0  0
  5  6  1  0  0  0  0
  6  7  1  0  0  0  0
  6  8  2  0  0  0  0
  8  9  1  0  0  0  0
  9 10  1  0  0  0  0
 10 11  2  0  0  0  0
 11 12  1  0  0  0  0
 12 13  2  0  0  0  0
 13 14  1  0  0  0  0
 14 15  2  0  0  0  0
 15 16  1  0  0  0  0
 16 17  2  0  0  0  0
 17 18  1  0  0  0  0
 18 19  2  0  0  0  0
 19 20  1  0  0  0  0
 20 21  2  0  0  0  0
 13 22  1  0  0  0  0
 22 23  2  0  0  0  0
  8  2  1  0  0  0  0
 23 10  1  0  0  0  0
 21 16  1  0  0  0  0
  1 24  1  0  0  0  0
  1 25  1  0  0  0  0
  1 26  1  0  0  0  0
  3 27  1  0  0  0  0
  4 28  1  0  0  0  0
  5 29  1  0  0  0  0
  7 30  1  0  0  0  0
  7 31  1  0  0  0  0
  7 32  1  0  0  0  0
  9 33  1  0  0  0  0
 11 34  1  0  0  0  0
 12 35  1  0  0  0  0
 14 36  1  0  0  0  0
 15 37  1  0  0  0  0
 17 38  1  0  0  0  0
 18 39  1  0  0  0  0
 19 40  1  0  0  0  0
 21 41  1  0  0  0  0
 22 42  1  0  0  0  0
 23 43  1  0  0  0  0
M  END
