
  xtb     03012221323D
 energy: -7.242040512174 gnorm: 0.000402427103 xtb: 6.4.1 (afa7bdf)
 40 41  0     0  0            999 V2000
    3.6676    1.2619   -1.3791 C   0  0  0  0  0  0  0  0  0  0  0  0
    3.6535    1.2007    0.1334 C   0  0  0  0  0  0  0  0  0  0  0  0
    2.8063    0.1115    0.6482 N   0  0  0  0  0  0  0  0  0  0  0  0
    3.5190   -1.0338    1.2380 C   0  0  0  0  0  0  0  0  0  0  0  0
    3.9206   -2.0645    0.2055 C   0  0  0  0  0  0  0  0  0  0  0  0
    1.4012    0.1097    0.4743 C   0  0  0  0  0  0  0  0  0  0  0  0
    0.7183    1.2733    0.1072 C   0  0  0  0  0  0  0  0  0  0  0  0
   -0.6454    1.2706   -0.0702 C   0  0  0  0  0  0  0  0  0  0  0  0
   -1.3779    0.1072    0.1131 C   0  0  0  0  0  0  0  0  0  0  0  0
   -2.8134    0.1040   -0.0819 N   0  0  0  0  0  0  0  0  0  0  0  0
   -3.4781   -0.3472   -1.2131 C   0  0  0  0  0  0  0  0  0  0  0  0
   -2.8360   -0.9235   -2.4134 C   0  0  0  0  0  0  0  0  0  0  0  0
   -4.8245   -0.1823   -1.0050 C   0  0  0  0  0  0  0  0  0  0  0  0
   -4.9999    0.3835    0.2643 C   0  0  0  0  0  0  0  0  0  0  0  0
   -3.7601    0.5523    0.8281 C   0  0  0  0  0  0  0  0  0  0  0  0
   -3.4675    1.1313    2.1563 C   0  0  0  0  0  0  0  0  0  0  0  0
   -0.7150   -1.0539    0.4816 C   0  0  0  0  0  0  0  0  0  0  0  0
    0.6486   -1.0540    0.6605 C   0  0  0  0  0  0  0  0  0  0  0  0
    2.6635    1.4070   -1.7797 H   0  0  0  0  0  0  0  0  0  0  0  0
    4.0462    0.3319   -1.8055 H   0  0  0  0  0  0  0  0  0  0  0  0
    4.2936    2.0758   -1.7518 H   0  0  0  0  0  0  0  0  0  0  0  0
    4.6704    1.0653    0.5180 H   0  0  0  0  0  0  0  0  0  0  0  0
    3.3060    2.1435    0.5690 H   0  0  0  0  0  0  0  0  0  0  0  0
    2.8837   -1.4732    2.0145 H   0  0  0  0  0  0  0  0  0  0  0  0
    4.3976   -0.6582    1.7743 H   0  0  0  0  0  0  0  0  0  0  0  0
    4.4035   -2.9335    0.6580 H   0  0  0  0  0  0  0  0  0  0  0  0
    4.6168   -1.6420   -0.5204 H   0  0  0  0  0  0  0  0  0  0  0  0
    3.0545   -2.4202   -0.3541 H   0  0  0  0  0  0  0  0  0  0  0  0
    1.2667    2.1881   -0.0276 H   0  0  0  0  0  0  0  0  0  0  0  0
   -1.1649    2.1696   -0.3536 H   0  0  0  0  0  0  0  0  0  0  0  0
   -3.2379   -0.4759   -3.3232 H   0  0  0  0  0  0  0  0  0  0  0  0
   -1.7599   -0.7481   -2.3995 H   0  0  0  0  0  0  0  0  0  0  0  0
   -3.0014   -2.0004   -2.4622 H   0  0  0  0  0  0  0  0  0  0  0  0
   -5.6039   -0.4445   -1.7019 H   0  0  0  0  0  0  0  0  0  0  0  0
   -5.9394    0.6409    0.7257 H   0  0  0  0  0  0  0  0  0  0  0  0
   -2.4298    0.9500    2.4382 H   0  0  0  0  0  0  0  0  0  0  0  0
   -4.1060    0.6903    2.9228 H   0  0  0  0  0  0  0  0  0  0  0  0
   -3.6330    2.2093    2.1542 H   0  0  0  0  0  0  0  0  0  0  0  0
   -1.2878   -1.9542    0.6227 H   0  0  0  0  0  0  0  0  0  0  0  0
    1.1438   -1.9680    0.9341 H   0  0  0  0  0  0  0  0  0  0  0  0
  1  2  1  0  0  0  0
  2  3  1  0  0  0  0
  3  4  1  0  0  0  0
  4  5  1  0  0  0  0
  3  6  1  0  0  0  0
  6  7  2  0  0  0  0
  7  8  1  0  0  0  0
  8  9  2  0  0  0  0
  9 10  1  0  0  0  0
 10 11  1  0  0  0  0
 11 12  1  0  0  0  0
 11 13  2  0  0  0  0
 13 14  1  0  0  0  0
 14 15  2  0  0  0  0
 15 16  1  0  0  0  0
  9 17  1  0  0  0  0
 17 18  2  0  0  0  0
 18  6  1  0  0  0  0
 15 10  1  0  0  0  0
  1 19  1  0  0  0  0
  1 20  1  0  0  0  0
  1 21  1  0  0  0  0
  2 22  1  0  0  0  0
  2 23  1  0  0  0  0
  4 24  1  0  0  0  0
  4 25  1  0  0  0  0
  5 26  1  0  0  0  0
  5 27  1  0  0  0  0
  5 28  1  0  0  0  0
  7 29  1  0  0  0  0
  8 30  1  0  0  0  0
 12 31  1  0  0  0  0
 12 32  1  0  0  0  0
 12 33  1  0  0  0  0
 13 34  1  0  0  0  0
 14 35  1  0  0  0  0
 16 36  1  0  0  0  0
 16 37  1  0  0  0  0
 16 38  1  0  0  0  0
 17 39  1  0  0  0  0
 18 40  1  0  0  0  0
M  END
