
  xtb     03012221213D
 energy: -6.613853409095 gnorm: 0.000294193993 xtb: 6.4.1 (afa7bdf)
 31 33  0     0  0            999 V2000
   -0.6318    0.2076   -1.5727 O   0  0  0  0  0  0  0  0  0  0  0  0
    0.4653    0.2372   -1.0527 C   0  0  0  0  0  0  0  0  0  0  0  0
    1.5121    1.0798   -1.4096 N   0  0  0  0  0  0  0  0  0  0  0  0
    2.6474    0.8074   -0.6509 C   0  0  0  0  0  0  0  0  0  0  0  0
    3.9174    1.3699   -0.6863 C   0  0  0  0  0  0  0  0  0  0  0  0
    4.8726    0.8954    0.1826 C   0  0  0  0  0  0  0  0  0  0  0  0
    4.5778   -0.1268    1.0794 C   0  0  0  0  0  0  0  0  0  0  0  0
    3.3225   -0.6938    1.1232 C   0  0  0  0  0  0  0  0  0  0  0  0
    2.3470   -0.2266    0.2520 C   0  0  0  0  0  0  0  0  0  0  0  0
    0.9582   -0.6122    0.0566 C   0  0  0  0  0  0  0  0  0  0  0  0
    0.3197   -1.6059    0.7237 C   0  0  0  0  0  0  0  0  0  0  0  0
   -1.0791   -2.0151    0.6033 C   0  0  0  0  0  0  0  0  0  0  0  0
   -1.3694   -3.1962    0.7040 O   0  0  0  0  0  0  0  0  0  0  0  0
   -2.1653   -1.0270    0.4193 C   0  0  0  0  0  0  0  0  0  0  0  0
   -3.3330   -1.4195   -0.2246 C   0  0  0  0  0  0  0  0  0  0  0  0
   -4.3701   -0.5406   -0.3942 C   0  0  0  0  0  0  0  0  0  0  0  0
   -4.2813    0.7703    0.0845 C   0  0  0  0  0  0  0  0  0  0  0  0
   -5.3367    1.6332   -0.0965 O   0  0  0  0  0  0  0  0  0  0  0  0
   -3.1094    1.1587    0.7431 C   0  0  0  0  0  0  0  0  0  0  0  0
   -2.0768    0.2738    0.9118 C   0  0  0  0  0  0  0  0  0  0  0  0
    1.4578    1.7413   -2.1783 H   0  0  0  0  0  0  0  0  0  0  0  0
    4.1341    2.1573   -1.3856 H   0  0  0  0  0  0  0  0  0  0  0  0
    5.8630    1.3199    0.1673 H   0  0  0  0  0  0  0  0  0  0  0  0
    5.3440   -0.4812    1.7488 H   0  0  0  0  0  0  0  0  0  0  0  0
    3.0944   -1.4845    1.8145 H   0  0  0  0  0  0  0  0  0  0  0  0
    0.9112   -2.2161    1.3832 H   0  0  0  0  0  0  0  0  0  0  0  0
   -3.3990   -2.4308   -0.5893 H   0  0  0  0  0  0  0  0  0  0  0  0
   -5.2706   -0.8382   -0.9006 H   0  0  0  0  0  0  0  0  0  0  0  0
   -5.1193    2.5162    0.2720 H   0  0  0  0  0  0  0  0  0  0  0  0
   -3.0265    2.1647    1.1127 H   0  0  0  0  0  0  0  0  0  0  0  0
   -1.1765    0.5816    1.4140 H   0  0  0  0  0  0  0  0  0  0  0  0
  1  2  2  0  0  0  0
  2  3  1  0  0  0  0
  3  4  1  0  0  0  0
  4  5  2  0  0  0  0
  5  6  1  0  0  0  0
  6  7  2  0  0  0  0
  7  8  1  0  0  0  0
  8  9  2  0  0  0  0
  9 10  1  0  0  0  0
 10 11  2  0  0  0  0
 11 12  1  0  0  0  0
 12 13  2  0  0  0  0
 12 14  1  0  0  0  0
 14 15  2  0  0  0  0
 15 16  1  0  0  0  0
 16 17  2  0  0  0  0
 17 18  1  0  0  0  0
 17 19  1  0  0  0  0
 19 20  2  0  0  0  0
 10  2  1  0  0  0  0
 20 14  1  0  0  0  0
  9  4  1  0  0  0  0
  3 21  1  0  0  0  0
  5 22  1  0  0  0  0
  6 23  1  0  0  0  0
  7 24  1  0  0  0  0
  8 25  1  0  0  0  0
 11 26  1  0  0  0  0
 15 27  1  0  0  0  0
 16 28  1  0  0  0  0
 18 29  1  0  0  0  0
 19 30  1  0  0  0  0
 20 31  1  0  0  0  0
M  END
