
  xtb     03012221213D
 energy: -5.673081273147 gnorm: 0.000323788250 xtb: 6.4.1 (afa7bdf)
 31 32  0     0  0            999 V2000
    3.9967    0.6123    0.6916 C   0  0  0  0  0  0  0  0  0  0  0  0
    3.5313    0.1775   -0.6799 C   0  0  0  0  0  0  0  0  0  0  0  0
    2.4145   -0.7599   -0.6149 N   0  0  0  0  0  0  0  0  0  0  0  0
    1.0914   -0.4205   -0.3502 C   0  0  0  0  0  0  0  0  0  0  0  0
    0.7053    0.9092   -0.2404 C   0  0  0  0  0  0  0  0  0  0  0  0
   -0.6032    1.2771    0.0423 C   0  0  0  0  0  0  0  0  0  0  0  0
   -0.9167    2.6209    0.1493 O   0  0  0  0  0  0  0  0  0  0  0  0
   -2.2134    2.9813    0.4315 C   0  0  0  0  0  0  0  0  0  0  0  0
   -2.5638    4.1465    0.5428 O   0  0  0  0  0  0  0  0  0  0  0  0
   -3.2126    1.9508    0.6073 C   0  0  0  0  0  0  0  0  0  0  0  0
   -2.9055    0.6490    0.5043 C   0  0  0  0  0  0  0  0  0  0  0  0
   -3.9674   -0.4170    0.6950 C   0  0  0  0  0  0  0  0  0  0  0  0
   -5.1478    0.1747    0.9568 F   0  0  0  0  0  0  0  0  0  0  0  0
   -3.6004   -1.2067    1.7211 F   0  0  0  0  0  0  0  0  0  0  0  0
   -4.0482   -1.1469   -0.4329 F   0  0  0  0  0  0  0  0  0  0  0  0
   -1.5668    0.2661    0.2146 C   0  0  0  0  0  0  0  0  0  0  0  0
   -1.1821   -1.0723    0.0957 C   0  0  0  0  0  0  0  0  0  0  0  0
    0.1115   -1.4342   -0.1832 C   0  0  0  0  0  0  0  0  0  0  0  0
    0.4743   -2.8694   -0.3038 C   0  0  0  0  0  0  0  0  0  0  0  0
    3.1853    1.0789    1.2513 H   0  0  0  0  0  0  0  0  0  0  0  0
    4.3361   -0.2436    1.2763 H   0  0  0  0  0  0  0  0  0  0  0  0
    4.8192    1.3281    0.6391 H   0  0  0  0  0  0  0  0  0  0  0  0
    3.2234    1.0376   -1.2867 H   0  0  0  0  0  0  0  0  0  0  0  0
    4.3543   -0.2850   -1.2416 H   0  0  0  0  0  0  0  0  0  0  0  0
    2.7198   -1.7254   -0.5076 H   0  0  0  0  0  0  0  0  0  0  0  0
    1.4220    1.6964   -0.3704 H   0  0  0  0  0  0  0  0  0  0  0  0
   -4.2237    2.2467    0.8268 H   0  0  0  0  0  0  0  0  0  0  0  0
   -1.9352   -1.8293    0.2284 H   0  0  0  0  0  0  0  0  0  0  0  0
   -0.4111   -3.5049   -0.2699 H   0  0  0  0  0  0  0  0  0  0  0  0
    1.1315   -3.1742    0.5108 H   0  0  0  0  0  0  0  0  0  0  0  0
    0.9813   -3.0642   -1.2490 H   0  0  0  0  0  0  0  0  0  0  0  0
  1  2  1  0  0  0  0
  2  3  1  0  0  0  0
  3  4  1  0  0  0  0
  4  5  2  0  0  0  0
  5  6  1  0  0  0  0
  6  7  1  0  0  0  0
  7  8  1  0  0  0  0
  8  9  2  0  0  0  0
  8 10  1  0  0  0  0
 10 11  2  0  0  0  0
 11 12  1  0  0  0  0
 12 13  1  0  0  0  0
 12 14  1  0  0  0  0
 12 15  1  0  0  0  0
 11 16  1  0  0  0  0
 16 17  1  0  0  0  0
 17 18  2  0  0  0  0
 18 19  1  0  0  0  0
 18  4  1  0  0  0  0
 16  6  2  0  0  0  0
  1 20  1  0  0  0  0
  1 21  1  0  0  0  0
  1 22  1  0  0  0  0
  2 23  1  0  0  0  0
  2 24  1  0  0  0  0
  3 25  1  0  0  0  0
  5 26  1  0  0  0  0
 10 27  1  0  0  0  0
 17 28  1  0  0  0  0
 19 29  1  0  0  0  0
 19 30  1  0  0  0  0
 19 31  1  0  0  0  0
M  END
