
  xtb     03012221203D
 energy: -21.084767721378 gnorm: 0.000172825224 xtb: 6.4.1 (afa7bdf)
100107  0     0  0            999 V2000
    0.8860   11.4836    2.1803 C   0  0  0  0  0  0  0  0  0  0  0  0
   -0.2886   10.7177    2.0589 O   0  0  0  0  0  0  0  0  0  0  0  0
   -0.0805    9.3646    1.7868 C   0  0  0  0  0  0  0  0  0  0  0  0
   -1.2104    8.5515    1.6484 C   0  0  0  0  0  0  0  0  0  0  0  0
   -1.0973    7.2115    1.3800 C   0  0  0  0  0  0  0  0  0  0  0  0
    0.1578    6.6133    1.2357 C   0  0  0  0  0  0  0  0  0  0  0  0
    0.3205    5.2027    0.9521 C   0  0  0  0  0  0  0  0  0  0  0  0
   -0.6691    4.3073    0.8109 C   0  0  0  0  0  0  0  0  0  0  0  0
   -0.4176    2.9134    0.5277 C   0  0  0  0  0  0  0  0  0  0  0  0
   -1.4917    2.1286    0.4188 N   0  0  0  0  0  0  0  0  0  0  0  0
   -1.2585    0.8438    0.1532 C   0  0  0  0  0  0  0  0  0  0  0  0
   -2.3774   -0.0590    0.0136 C   0  0  0  0  0  0  0  0  0  0  0  0
   -3.6442    0.3504    0.1823 C   0  0  0  0  0  0  0  0  0  0  0  0
   -4.8310   -0.4706    0.0589 C   0  0  0  0  0  0  0  0  0  0  0  0
   -4.7822   -1.8037   -0.3616 C   0  0  0  0  0  0  0  0  0  0  0  0
   -5.9290   -2.5494   -0.4721 C   0  0  0  0  0  0  0  0  0  0  0  0
   -7.1742   -2.0011   -0.1658 C   0  0  0  0  0  0  0  0  0  0  0  0
   -8.3679   -2.7807   -0.2817 N   0  0  0  0  0  0  0  0  0  0  0  0
   -9.4627   -2.5657    0.6231 C   0  0  0  0  0  0  0  0  0  0  0  0
  -10.7791   -2.6254    0.1730 C   0  0  0  0  0  0  0  0  0  0  0  0
  -11.8280   -2.4289    1.0430 C   0  0  0  0  0  0  0  0  0  0  0  0
  -11.5818   -2.1705    2.3776 C   0  0  0  0  0  0  0  0  0  0  0  0
  -10.2813   -2.1091    2.8394 C   0  0  0  0  0  0  0  0  0  0  0  0
   -9.2307   -2.3047    1.9713 C   0  0  0  0  0  0  0  0  0  0  0  0
   -8.4795   -3.7869   -1.3006 C   0  0  0  0  0  0  0  0  0  0  0  0
   -9.1237   -4.9937   -1.0400 C   0  0  0  0  0  0  0  0  0  0  0  0
   -9.2359   -5.9554   -2.0189 C   0  0  0  0  0  0  0  0  0  0  0  0
   -8.7080   -5.7295   -3.2754 C   0  0  0  0  0  0  0  0  0  0  0  0
   -8.0675   -4.5368   -3.5498 C   0  0  0  0  0  0  0  0  0  0  0  0
   -7.9541   -3.5736   -2.5726 C   0  0  0  0  0  0  0  0  0  0  0  0
   -7.2257   -0.6727    0.2551 C   0  0  0  0  0  0  0  0  0  0  0  0
   -6.0815    0.0769    0.3624 C   0  0  0  0  0  0  0  0  0  0  0  0
    0.0311    0.3723    0.0100 C   0  0  0  0  0  0  0  0  0  0  0  0
    1.0864    1.2530    0.1449 C   0  0  0  0  0  0  0  0  0  0  0  0
    2.4652    0.8295    0.0141 C   0  0  0  0  0  0  0  0  0  0  0  0
    2.8894   -0.4341   -0.1624 C   0  0  0  0  0  0  0  0  0  0  0  0
    4.2757   -0.8385   -0.2876 C   0  0  0  0  0  0  0  0  0  0  0  0
    4.5943   -2.1992   -0.3470 C   0  0  0  0  0  0  0  0  0  0  0  0
    5.8963   -2.6168   -0.4605 C   0  0  0  0  0  0  0  0  0  0  0  0
    6.9405   -1.6950   -0.5252 C   0  0  0  0  0  0  0  0  0  0  0  0
    8.2980   -2.1303   -0.6429 N   0  0  0  0  0  0  0  0  0  0  0  0
    9.2478   -1.3462   -1.3820 C   0  0  0  0  0  0  0  0  0  0  0  0
   10.5608   -1.2153   -0.9369 C   0  0  0  0  0  0  0  0  0  0  0  0
   11.4725   -0.4687   -1.6492 C   0  0  0  0  0  0  0  0  0  0  0  0
   11.0902    0.1595   -2.8186 C   0  0  0  0  0  0  0  0  0  0  0  0
    9.7917    0.0380   -3.2739 C   0  0  0  0  0  0  0  0  0  0  0  0
    8.8782   -0.7080   -2.5633 C   0  0  0  0  0  0  0  0  0  0  0  0
    8.7233   -3.3516   -0.0176 C   0  0  0  0  0  0  0  0  0  0  0  0
    8.2404   -3.7146    1.2372 C   0  0  0  0  0  0  0  0  0  0  0  0
    8.6556   -4.8815    1.8387 C   0  0  0  0  0  0  0  0  0  0  0  0
    9.5605   -5.7063    1.1991 C   0  0  0  0  0  0  0  0  0  0  0  0
   10.0497   -5.3591   -0.0453 C   0  0  0  0  0  0  0  0  0  0  0  0
    9.6361   -4.1927   -0.6488 C   0  0  0  0  0  0  0  0  0  0  0  0
    6.6267   -0.3373   -0.4721 C   0  0  0  0  0  0  0  0  0  0  0  0
    5.3257    0.0837   -0.3547 C   0  0  0  0  0  0  0  0  0  0  0  0
    0.8585    2.5425    0.4025 N   0  0  0  0  0  0  0  0  0  0  0  0
    1.2883    7.4239    1.3737 C   0  0  0  0  0  0  0  0  0  0  0  0
    1.1749    8.7644    1.6424 C   0  0  0  0  0  0  0  0  0  0  0  0
    0.6060   12.5170    2.3856 H   0  0  0  0  0  0  0  0  0  0  0  0
    1.4502   11.4490    1.2480 H   0  0  0  0  0  0  0  0  0  0  0  0
    1.4894   11.1098    3.0079 H   0  0  0  0  0  0  0  0  0  0  0  0
   -2.1779    9.0087    1.7585 H   0  0  0  0  0  0  0  0  0  0  0  0
   -1.9865    6.6160    1.2783 H   0  0  0  0  0  0  0  0  0  0  0  0
    1.3280    4.8409    0.8464 H   0  0  0  0  0  0  0  0  0  0  0  0
   -1.6942    4.6081    0.9084 H   0  0  0  0  0  0  0  0  0  0  0  0
   -2.1689   -1.0850   -0.2259 H   0  0  0  0  0  0  0  0  0  0  0  0
   -3.7937    1.3846    0.4371 H   0  0  0  0  0  0  0  0  0  0  0  0
   -3.8357   -2.2499   -0.6072 H   0  0  0  0  0  0  0  0  0  0  0  0
   -5.8799   -3.5776   -0.7869 H   0  0  0  0  0  0  0  0  0  0  0  0
  -10.9630   -2.8205   -0.8691 H   0  0  0  0  0  0  0  0  0  0  0  0
  -12.8424   -2.4762    0.6821 H   0  0  0  0  0  0  0  0  0  0  0  0
  -12.4033   -2.0178    3.0579 H   0  0  0  0  0  0  0  0  0  0  0  0
  -10.0887   -1.9099    3.8809 H   0  0  0  0  0  0  0  0  0  0  0  0
   -8.2155   -2.2692    2.3263 H   0  0  0  0  0  0  0  0  0  0  0  0
   -9.5264   -5.1656   -0.0571 H   0  0  0  0  0  0  0  0  0  0  0  0
   -9.7358   -6.8857   -1.8042 H   0  0  0  0  0  0  0  0  0  0  0  0
   -8.7964   -6.4827   -4.0409 H   0  0  0  0  0  0  0  0  0  0  0  0
   -7.6573   -4.3590   -4.5306 H   0  0  0  0  0  0  0  0  0  0  0  0
   -7.4663   -2.6378   -2.7831 H   0  0  0  0  0  0  0  0  0  0  0  0
   -8.1838   -0.2377    0.4821 H   0  0  0  0  0  0  0  0  0  0  0  0
   -6.1385    1.1021    0.6850 H   0  0  0  0  0  0  0  0  0  0  0  0
    0.1973   -0.6664   -0.2082 H   0  0  0  0  0  0  0  0  0  0  0  0
    3.1920    1.6164    0.0872 H   0  0  0  0  0  0  0  0  0  0  0  0
    2.1599   -1.2221   -0.2011 H   0  0  0  0  0  0  0  0  0  0  0  0
    3.8000   -2.9239   -0.2999 H   0  0  0  0  0  0  0  0  0  0  0  0
    6.1277   -3.6667   -0.5144 H   0  0  0  0  0  0  0  0  0  0  0  0
   10.8497   -1.7016   -0.0216 H   0  0  0  0  0  0  0  0  0  0  0  0
   12.4854   -0.3740   -1.2934 H   0  0  0  0  0  0  0  0  0  0  0  0
   11.8045    0.7433   -3.3756 H   0  0  0  0  0  0  0  0  0  0  0  0
    9.4935    0.5261   -4.1873 H   0  0  0  0  0  0  0  0  0  0  0  0
    7.8681   -0.8160   -2.9181 H   0  0  0  0  0  0  0  0  0  0  0  0
    7.5449   -3.0617    1.7350 H   0  0  0  0  0  0  0  0  0  0  0  0
    8.2756   -5.1505    2.8107 H   0  0  0  0  0  0  0  0  0  0  0  0
    9.8852   -6.6191    1.6708 H   0  0  0  0  0  0  0  0  0  0  0  0
   10.7557   -6.0023   -0.5448 H   0  0  0  0  0  0  0  0  0  0  0  0
   10.0081   -3.9191   -1.6207 H   0  0  0  0  0  0  0  0  0  0  0  0
    7.4281    0.3803   -0.5114 H   0  0  0  0  0  0  0  0  0  0  0  0
    5.1148    1.1369   -0.3205 H   0  0  0  0  0  0  0  0  0  0  0  0
    2.2627    6.9792    1.2661 H   0  0  0  0  0  0  0  0  0  0  0  0
    2.0642    9.3594    1.7435 H   0  0  0  0  0  0  0  0  0  0  0  0
  1  2  1  0  0  0  0
  2  3  1  0  0  0  0
  3  4  2  0  0  0  0
  4  5  1  0  0  0  0
  5  6  2  0  0  0  0
  6  7  1  0  0  0  0
  7  8  2  0  0  0  0
  8  9  1  0  0  0  0
  9 10  2  0  0  0  0
 10 11  1  0  0  0  0
 11 12  1  0  0  0  0
 12 13  2  0  0  0  0
 13 14  1  0  0  0  0
 14 15  2  0  0  0  0
 15 16  1  0  0  0  0
 16 17  2  0  0  0  0
 17 18  1  0  0  0  0
 18 19  1  0  0  0  0
 19 20  2  0  0  0  0
 20 21  1  0  0  0  0
 21 22  2  0  0  0  0
 22 23  1  0  0  0  0
 23 24  2  0  0  0  0
 18 25  1  0  0  0  0
 25 26  2  0  0  0  0
 26 27  1  0  0  0  0
 27 28  2  0  0  0  0
 28 29  1  0  0  0  0
 29 30  2  0  0  0  0
 17 31  1  0  0  0  0
 31 32  2  0  0  0  0
 11 33  2  0  0  0  0
 33 34  1  0  0  0  0
 34 35  1  0  0  0  0
 35 36  2  0  0  0  0
 36 37  1  0  0  0  0
 37 38  2  0  0  0  0
 38 39  1  0  0  0  0
 39 40  2  0  0  0  0
 40 41  1  0  0  0  0
 41 42  1  0  0  0  0
 42 43  2  0  0  0  0
 43 44  1  0  0  0  0
 44 45  2  0  0  0  0
 45 46  1  0  0  0  0
 46 47  2  0  0  0  0
 41 48  1  0  0  0  0
 48 49  2  0  0  0  0
 49 50  1  0  0  0  0
 50 51  2  0  0  0  0
 51 52  1  0  0  0  0
 52 53  2  0  0  0  0
 40 54  1  0  0  0  0
 54 55  2  0  0  0  0
 34 56  2  0  0  0  0
  6 57  1  0  0  0  0
 57 58  2  0  0  0  0
 58  3  1  0  0  0  0
 56  9  1  0  0  0  0
 32 14  1  0  0  0  0
 55 37  1  0  0  0  0
 24 19  1  0  0  0  0
 30 25  1  0  0  0  0
 47 42  1  0  0  0  0
 53 48  1  0  0  0  0
  1 59  1  0  0  0  0
  1 60  1  0  0  0  0
  1 61  1  0  0  0  0
  4 62  1  0  0  0  0
  5 63  1  0  0  0  0
  7 64  1  0  0  0  0
  8 65  1  0  0  0  0
 12 66  1  0  0  0  0
 13 67  1  0  0  0  0
 15 68  1  0  0  0  0
 16 69  1  0  0  0  0
 20 70  1  0  0  0  0
 21 71  1  0  0  0  0
 22 72  1  0  0  0  0
 23 73  1  0  0  0  0
 24 74  1  0  0  0  0
 26 75  1  0  0  0  0
 27 76  1  0  0  0  0
 28 77  1  0  0  0  0
 29 78  1  0  0  0  0
 30 79  1  0  0  0  0
 31 80  1  0  0  0  0
 32 81  1  0  0  0  0
 33 82  1  0  0  0  0
 35 83  1  0  0  0  0
 36 84  1  0  0  0  0
 38 85  1  0  0  0  0
 39 86  1  0  0  0  0
 43 87  1  0  0  0  0
 44 88  1  0  0  0  0
 45 89  1  0  0  0  0
 46 90  1  0  0  0  0
 47 91  1  0  0  0  0
 49 92  1  0  0  0  0
 50 93  1  0  0  0  0
 51 94  1  0  0  0  0
 52 95  1  0  0  0  0
 53 96  1  0  0  0  0
 54 97  1  0  0  0  0
 55 98  1  0  0  0  0
 57 99  1  0  0  0  0
 58100  1  0  0  0  0
M  END
