
  xtb     03012221233D
 energy: -7.739342320750 gnorm: 0.000235878446 xtb: 6.4.1 (afa7bdf)
 43 45  0     0  0            999 V2000
    5.0990   -1.3368   -0.3963 C   0  0  0  0  0  0  0  0  0  0  0  0
    3.9853   -0.3824   -0.4864 N   0  0  0  0  0  0  0  0  0  0  0  0
    4.4373    0.9738   -0.1559 C   0  0  0  0  0  0  0  0  0  0  0  0
    2.7852   -0.8615    0.2612 C   0  0  0  0  0  0  0  0  0  0  0  0
    1.5346   -0.0458   -0.0193 C   0  0  0  0  0  0  0  0  0  0  0  0
    0.2923   -0.6238    0.6392 C   0  0  0  0  0  0  0  0  0  0  0  0
   -0.9171    0.1614    0.3295 N   0  0  0  0  0  0  0  0  0  0  0  0
   -0.9427    1.5583    0.6170 C   0  0  0  0  0  0  0  0  0  0  0  0
   -0.3341    2.0641    1.7607 C   0  0  0  0  0  0  0  0  0  0  0  0
   -0.3839    3.4115    2.0493 C   0  0  0  0  0  0  0  0  0  0  0  0
   -1.0408    4.2778    1.2066 C   0  0  0  0  0  0  0  0  0  0  0  0
   -1.6475    3.7903    0.0647 C   0  0  0  0  0  0  0  0  0  0  0  0
   -1.6019    2.4468   -0.2404 C   0  0  0  0  0  0  0  0  0  0  0  0
   -2.3592    1.8971   -1.7415 S   0  0  0  0  0  0  0  0  0  0  0  0
   -2.7556    0.2316   -1.2997 C   0  0  0  0  0  0  0  0  0  0  0  0
   -3.8144   -0.3878   -1.9292 C   0  0  0  0  0  0  0  0  0  0  0  0
   -4.1405   -1.6994   -1.6354 C   0  0  0  0  0  0  0  0  0  0  0  0
   -3.4068   -2.3946   -0.7009 C   0  0  0  0  0  0  0  0  0  0  0  0
   -3.7563   -3.8353   -0.3725 C   0  0  0  0  0  0  0  0  0  0  0  0
   -5.0169   -3.8727    0.1073 F   0  0  0  0  0  0  0  0  0  0  0  0
   -3.6642   -4.5660   -1.5032 F   0  0  0  0  0  0  0  0  0  0  0  0
   -2.8876   -4.2947    0.5538 F   0  0  0  0  0  0  0  0  0  0  0  0
   -2.3528   -1.7801   -0.0609 C   0  0  0  0  0  0  0  0  0  0  0  0
   -2.0028   -0.4663   -0.3484 C   0  0  0  0  0  0  0  0  0  0  0  0
    5.9251   -1.0128   -1.0259 H   0  0  0  0  0  0  0  0  0  0  0  0
    5.4503   -1.4176    0.6305 H   0  0  0  0  0  0  0  0  0  0  0  0
    4.7798   -2.3201   -0.7361 H   0  0  0  0  0  0  0  0  0  0  0  0
    3.6511    1.6964   -0.3611 H   0  0  0  0  0  0  0  0  0  0  0  0
    4.7094    1.0390    0.8956 H   0  0  0  0  0  0  0  0  0  0  0  0
    5.3029    1.2396   -0.7592 H   0  0  0  0  0  0  0  0  0  0  0  0
    3.0137   -0.8637    1.3316 H   0  0  0  0  0  0  0  0  0  0  0  0
    2.6099   -1.9059   -0.0162 H   0  0  0  0  0  0  0  0  0  0  0  0
    1.3758    0.0205   -1.1014 H   0  0  0  0  0  0  0  0  0  0  0  0
    1.6778    0.9878    0.3115 H   0  0  0  0  0  0  0  0  0  0  0  0
    0.1458   -1.6512    0.2965 H   0  0  0  0  0  0  0  0  0  0  0  0
    0.4103   -0.6811    1.7243 H   0  0  0  0  0  0  0  0  0  0  0  0
    0.1602    1.3898    2.4357 H   0  0  0  0  0  0  0  0  0  0  0  0
    0.0891    3.7862    2.9441 H   0  0  0  0  0  0  0  0  0  0  0  0
   -1.0822    5.3295    1.4342 H   0  0  0  0  0  0  0  0  0  0  0  0
   -2.1606    4.4594   -0.6083 H   0  0  0  0  0  0  0  0  0  0  0  0
   -4.3818    0.1624   -2.6618 H   0  0  0  0  0  0  0  0  0  0  0  0
   -4.9627   -2.1925   -2.1259 H   0  0  0  0  0  0  0  0  0  0  0  0
   -1.8226   -2.3314    0.6923 H   0  0  0  0  0  0  0  0  0  0  0  0
  1  2  1  0  0  0  0
  2  3  1  0  0  0  0
  2  4  1  0  0  0  0
  4  5  1  0  0  0  0
  5  6  1  0  0  0  0
  6  7  1  0  0  0  0
  7  8  1  0  0  0  0
  8  9  2  0  0  0  0
  9 10  1  0  0  0  0
 10 11  2  0  0  0  0
 11 12  1  0  0  0  0
 12 13  2  0  0  0  0
 13 14  1  0  0  0  0
 14 15  1  0  0  0  0
 15 16  2  0  0  0  0
 16 17  1  0  0  0  0
 17 18  2  0  0  0  0
 18 19  1  0  0  0  0
 19 20  1  0  0  0  0
 19 21  1  0  0  0  0
 19 22  1  0  0  0  0
 18 23  1  0  0  0  0
 23 24  2  0  0  0  0
 24  7  1  0  0  0  0
 13  8  1  0  0  0  0
 24 15  1  0  0  0  0
  1 25  1  0  0  0  0
  1 26  1  0  0  0  0
  1 27  1  0  0  0  0
  3 28  1  0  0  0  0
  3 29  1  0  0  0  0
  3 30  1  0  0  0  0
  4 31  1  0  0  0  0
  4 32  1  0  0  0  0
  5 33  1  0  0  0  0
  5 34  1  0  0  0  0
  6 35  1  0  0  0  0
  6 36  1  0  0  0  0
  9 37  1  0  0  0  0
 10 38  1  0  0  0  0
 11 39  1  0  0  0  0
 12 40  1  0  0  0  0
 16 41  1  0  0  0  0
 17 42  1  0  0  0  0
 23 43  1  0  0  0  0
M  END
