
  xtb     03012221253D
 energy: -9.020978552189 gnorm: 0.000339590282 xtb: 6.4.1 (afa7bdf)
 45 47  0     0  0            999 V2000
   -5.9276   -3.3073    0.4292 C   0  0  0  0  0  0  0  0  0  0  0  0
   -5.9373   -1.8612    0.6523 N   0  0  0  0  0  0  0  0  0  0  0  0
   -7.2454   -1.2268    0.8184 C   0  0  0  0  0  0  0  0  0  0  0  0
   -4.7501   -1.1194    0.7048 C   0  0  0  0  0  0  0  0  0  0  0  0
   -4.7674    0.2621    0.9288 C   0  0  0  0  0  0  0  0  0  0  0  0
   -3.6041    0.9850    0.9774 C   0  0  0  0  0  0  0  0  0  0  0  0
   -2.3583    0.3736    0.7974 C   0  0  0  0  0  0  0  0  0  0  0  0
   -1.1579    1.1892    0.8601 C   0  0  0  0  0  0  0  0  0  0  0  0
    0.0734    0.9064    0.3935 C   0  0  0  0  0  0  0  0  0  0  0  0
    0.5695   -0.2940   -0.3610 C   0  0  0  0  0  0  0  0  0  0  0  0
    1.9660    0.0787   -0.8947 C   0  0  0  0  0  0  0  0  0  0  0  0
    2.3486    1.3566   -0.2092 C   0  0  0  0  0  0  0  0  0  0  0  0
    3.5479    1.9573   -0.1356 C   0  0  0  0  0  0  0  0  0  0  0  0
    4.7924    1.5204   -0.7593 C   0  0  0  0  0  0  0  0  0  0  0  0
    6.0086    1.8033   -0.1354 C   0  0  0  0  0  0  0  0  0  0  0  0
    7.2006    1.4074   -0.6934 C   0  0  0  0  0  0  0  0  0  0  0  0
    7.2243    0.7206   -1.9009 C   0  0  0  0  0  0  0  0  0  0  0  0
    8.4389    0.3129   -2.4697 C   0  0  0  0  0  0  0  0  0  0  0  0
    9.4449   -0.0263   -2.9424 N   0  0  0  0  0  0  0  0  0  0  0  0
    6.0191    0.4505   -2.5374 C   0  0  0  0  0  0  0  0  0  0  0  0
    4.8263    0.8452   -1.9798 C   0  0  0  0  0  0  0  0  0  0  0  0
    1.1743    1.8642    0.5104 C   0  0  0  0  0  0  0  0  0  0  0  0
    1.1253    2.9194    1.1123 O   0  0  0  0  0  0  0  0  0  0  0  0
   -2.3414   -1.0087    0.5873 C   0  0  0  0  0  0  0  0  0  0  0  0
   -3.5035   -1.7344    0.5400 C   0  0  0  0  0  0  0  0  0  0  0  0
   -6.9372   -3.7115    0.4226 H   0  0  0  0  0  0  0  0  0  0  0  0
   -5.3693   -3.8022    1.2210 H   0  0  0  0  0  0  0  0  0  0  0  0
   -5.4651   -3.5331   -0.5292 H   0  0  0  0  0  0  0  0  0  0  0  0
   -7.3086   -0.7544    1.7964 H   0  0  0  0  0  0  0  0  0  0  0  0
   -8.0490   -1.9554    0.7407 H   0  0  0  0  0  0  0  0  0  0  0  0
   -7.3945   -0.4739    0.0474 H   0  0  0  0  0  0  0  0  0  0  0  0
   -5.7092    0.7622    1.0652 H   0  0  0  0  0  0  0  0  0  0  0  0
   -3.6403    2.0474    1.1487 H   0  0  0  0  0  0  0  0  0  0  0  0
   -1.2714    2.1606    1.3106 H   0  0  0  0  0  0  0  0  0  0  0  0
    0.6346   -1.1539    0.3149 H   0  0  0  0  0  0  0  0  0  0  0  0
   -0.1218   -0.5578   -1.1697 H   0  0  0  0  0  0  0  0  0  0  0  0
    2.7089   -0.7044   -0.6983 H   0  0  0  0  0  0  0  0  0  0  0  0
    1.9335    0.2356   -1.9792 H   0  0  0  0  0  0  0  0  0  0  0  0
    3.6030    2.8330    0.4879 H   0  0  0  0  0  0  0  0  0  0  0  0
    6.0023    2.3319    0.8025 H   0  0  0  0  0  0  0  0  0  0  0  0
    8.1328    1.6242   -0.2005 H   0  0  0  0  0  0  0  0  0  0  0  0
    6.0355   -0.0692   -3.4801 H   0  0  0  0  0  0  0  0  0  0  0  0
    3.9090    0.6617   -2.5081 H   0  0  0  0  0  0  0  0  0  0  0  0
   -1.4016   -1.5189    0.4917 H   0  0  0  0  0  0  0  0  0  0  0  0
   -3.4585   -2.7963    0.3786 H   0  0  0  0  0  0  0  0  0  0  0  0
  1  2  1  0  0  0  0
  2  3  1  0  0  0  0
  2  4  1  0  0  0  0
  4  5  2  0  0  0  0
  5  6  1  0  0  0  0
  6  7  2  0  0  0  0
  7  8  1  0  0  0  0
  8  9  2  0  0  0  0
  9 10  1  0  0  0  0
 10 11  1  0  0  0  0
 11 12  1  0  0  0  0
 12 13  2  0  0  0  0
 13 14  1  0  0  0  0
 14 15  2  0  0  0  0
 15 16  1  0  0  0  0
 16 17  2  0  0  0  0
 17 18  1  0  0  0  0
 18 19  3  0  0  0  0
 17 20  1  0  0  0  0
 20 21  2  0  0  0  0
 12 22  1  0  0  0  0
 22 23  2  0  0  0  0
  7 24  1  0  0  0  0
 24 25  2  0  0  0  0
 25  4  1  0  0  0  0
 22  9  1  0  0  0  0
 21 14  1  0  0  0  0
  1 26  1  0  0  0  0
  1 27  1  0  0  0  0
  1 28  1  0  0  0  0
  3 29  1  0  0  0  0
  3 30  1  0  0  0  0
  3 31  1  0  0  0  0
  5 32  1  0  0  0  0
  6 33  1  0  0  0  0
  8 34  1  0  0  0  0
 10 35  1  0  0  0  0
 10 36  1  0  0  0  0
 11 37  1  0  0  0  0
 11 38  1  0  0  0  0
 13 39  1  0  0  0  0
 15 40  1  0  0  0  0
 16 41  1  0  0  0  0
 20 42  1  0  0  0  0
 21 43  1  0  0  0  0
 24 44  1  0  0  0  0
 25 45  1  0  0  0  0
M  END
