
  xtb     03012221263D
 energy: -5.615413163930 gnorm: 0.000476504863 xtb: 6.4.1 (afa7bdf)
 27 28  0     0  0            999 V2000
   -0.9456    2.6048    0.4428 C   0  0  0  0  0  0  0  0  0  0  0  0
   -1.5384    1.2555    0.5499 C   0  0  0  0  0  0  0  0  0  0  0  0
   -2.7780    0.9408    1.0431 C   0  0  0  0  0  0  0  0  0  0  0  0
   -2.9244   -0.4522    0.9929 C   0  0  0  0  0  0  0  0  0  0  0  0
   -1.7729   -0.9817    0.4710 C   0  0  0  0  0  0  0  0  0  0  0  0
   -1.4746   -2.4142    0.2648 C   0  0  0  0  0  0  0  0  0  0  0  0
   -0.9085    0.0696    0.1993 N   0  0  0  0  0  0  0  0  0  0  0  0
    0.4270   -0.0486   -0.3444 C   0  0  0  0  0  0  0  0  0  0  0  0
    0.6246   -0.1405   -1.7136 C   0  0  0  0  0  0  0  0  0  0  0  0
    1.8992   -0.2498   -2.2256 C   0  0  0  0  0  0  0  0  0  0  0  0
    2.9862   -0.2683   -1.3773 C   0  0  0  0  0  0  0  0  0  0  0  0
    2.8106   -0.1776   -0.0012 C   0  0  0  0  0  0  0  0  0  0  0  0
    3.9146   -0.1971    0.8666 C   0  0  0  0  0  0  0  0  0  0  0  0
    4.8254   -0.2127    1.5872 N   0  0  0  0  0  0  0  0  0  0  0  0
    1.5230   -0.0680    0.5018 C   0  0  0  0  0  0  0  0  0  0  0  0
   -1.6658    3.3163    0.0380 H   0  0  0  0  0  0  0  0  0  0  0  0
   -0.6235    2.9648    1.4202 H   0  0  0  0  0  0  0  0  0  0  0  0
   -0.0763    2.5949   -0.2150 H   0  0  0  0  0  0  0  0  0  0  0  0
   -3.5041    1.6468    1.4117 H   0  0  0  0  0  0  0  0  0  0  0  0
   -3.7831   -1.0164    1.3182 H   0  0  0  0  0  0  0  0  0  0  0  0
   -1.3659   -2.9281    1.2202 H   0  0  0  0  0  0  0  0  0  0  0  0
   -2.2731   -2.9015   -0.2953 H   0  0  0  0  0  0  0  0  0  0  0  0
   -0.5463   -2.5409   -0.2923 H   0  0  0  0  0  0  0  0  0  0  0  0
   -0.2315   -0.1238   -2.3650 H   0  0  0  0  0  0  0  0  0  0  0  0
    2.0468   -0.3205   -3.2907 H   0  0  0  0  0  0  0  0  0  0  0  0
    3.9848   -0.3536   -1.7706 H   0  0  0  0  0  0  0  0  0  0  0  0
    1.3700    0.0020    1.5633 H   0  0  0  0  0  0  0  0  0  0  0  0
  1  2  1  0  0  0  0
  2  3  2  0  0  0  0
  3  4  1  0  0  0  0
  4  5  2  0  0  0  0
  5  6  1  0  0  0  0
  5  7  1  0  0  0  0
  7  8  1  0  0  0  0
  8  9  2  0  0  0  0
  9 10  1  0  0  0  0
 10 11  2  0  0  0  0
 11 12  1  0  0  0  0
 12 13  1  0  0  0  0
 13 14  3  0  0  0  0
 12 15  2  0  0  0  0
  7  2  1  0  0  0  0
 15  8  1  0  0  0  0
  1 16  1  0  0  0  0
  1 17  1  0  0  0  0
  1 18  1  0  0  0  0
  3 19  1  0  0  0  0
  4 20  1  0  0  0  0
  6 21  1  0  0  0  0
  6 22  1  0  0  0  0
  6 23  1  0  0  0  0
  9 24  1  0  0  0  0
 10 25  1  0  0  0  0
 11 26  1  0  0  0  0
 15 27  1  0  0  0  0
M  END
