
  xtb     03012221223D
 energy: -12.000569275921 gnorm: 0.000139987265 xtb: 6.4.1 (afa7bdf)
 56 60  0     0  0            999 V2000
    5.8459    0.1441   -0.2611 C   0  0  0  0  0  0  0  0  0  0  0  0
    6.6959    0.1666    0.7778 C   0  0  0  0  0  0  0  0  0  0  0  0
    8.1268    0.2005    0.5902 C   0  0  0  0  0  0  0  0  0  0  0  0
    8.9741    0.2393    1.6866 C   0  0  0  0  0  0  0  0  0  0  0  0
   10.3174    0.2703    1.4564 C   0  0  0  0  0  0  0  0  0  0  0  0
   10.8312    0.2639    0.2429 N   0  0  0  0  0  0  0  0  0  0  0  0
    9.9366    0.2259   -0.7220 C   0  0  0  0  0  0  0  0  0  0  0  0
    8.6239    0.1943   -0.6474 N   0  0  0  0  0  0  0  0  0  0  0  0
    4.3991    0.1079   -0.1837 C   0  0  0  0  0  0  0  0  0  0  0  0
    3.7125    0.0328    1.0309 C   0  0  0  0  0  0  0  0  0  0  0  0
    2.3398   -0.0023    1.0645 C   0  0  0  0  0  0  0  0  0  0  0  0
    1.5873    0.0384   -0.1107 C   0  0  0  0  0  0  0  0  0  0  0  0
    0.1121    0.0017   -0.0713 C   0  0  0  0  0  0  0  0  0  0  0  0
   -0.5630   -0.7621    0.8841 C   0  0  0  0  0  0  0  0  0  0  0  0
   -1.9352   -0.7961    0.9205 C   0  0  0  0  0  0  0  0  0  0  0  0
   -2.6942   -0.0658    0.0070 C   0  0  0  0  0  0  0  0  0  0  0  0
   -4.1236   -0.1006    0.0472 N   0  0  0  0  0  0  0  0  0  0  0  0
   -4.8067   -1.2940    0.4599 C   0  0  0  0  0  0  0  0  0  0  0  0
   -4.3357   -2.5502    0.0863 C   0  0  0  0  0  0  0  0  0  0  0  0
   -4.9973   -3.6929    0.4754 C   0  0  0  0  0  0  0  0  0  0  0  0
   -6.1414   -3.6027    1.2441 C   0  0  0  0  0  0  0  0  0  0  0  0
   -6.6220   -2.3641    1.6219 C   0  0  0  0  0  0  0  0  0  0  0  0
   -5.9623   -1.2200    1.2335 C   0  0  0  0  0  0  0  0  0  0  0  0
   -4.8867    1.0556   -0.3300 C   0  0  0  0  0  0  0  0  0  0  0  0
   -4.4590    2.3355    0.0142 C   0  0  0  0  0  0  0  0  0  0  0  0
   -5.1958    3.4421   -0.3429 C   0  0  0  0  0  0  0  0  0  0  0  0
   -6.3731    3.2916   -1.0495 C   0  0  0  0  0  0  0  0  0  0  0  0
   -6.8117    2.0287   -1.3970 C   0  0  0  0  0  0  0  0  0  0  0  0
   -6.0767    0.9206   -1.0406 C   0  0  0  0  0  0  0  0  0  0  0  0
   -2.0232    0.6983   -0.9468 C   0  0  0  0  0  0  0  0  0  0  0  0
   -0.6510    0.7303   -0.9872 C   0  0  0  0  0  0  0  0  0  0  0  0
    2.2738    0.1140   -1.3238 C   0  0  0  0  0  0  0  0  0  0  0  0
    3.6461    0.1459   -1.3599 C   0  0  0  0  0  0  0  0  0  0  0  0
    6.2781    0.1569   -1.2454 H   0  0  0  0  0  0  0  0  0  0  0  0
    6.3210    0.1643    1.7840 H   0  0  0  0  0  0  0  0  0  0  0  0
    8.5749    0.2455    2.6858 H   0  0  0  0  0  0  0  0  0  0  0  0
   11.0103    0.3018    2.2840 H   0  0  0  0  0  0  0  0  0  0  0  0
   10.3409    0.2198   -1.7247 H   0  0  0  0  0  0  0  0  0  0  0  0
    4.2649    0.0008    1.9526 H   0  0  0  0  0  0  0  0  0  0  0  0
    1.8284   -0.0433    2.0110 H   0  0  0  0  0  0  0  0  0  0  0  0
    0.0065   -1.3434    1.5877 H   0  0  0  0  0  0  0  0  0  0  0  0
   -2.4443   -1.3813    1.6660 H   0  0  0  0  0  0  0  0  0  0  0  0
   -3.4509   -2.6130   -0.5231 H   0  0  0  0  0  0  0  0  0  0  0  0
   -4.6234   -4.6589    0.1779 H   0  0  0  0  0  0  0  0  0  0  0  0
   -6.6588   -4.4977    1.5479 H   0  0  0  0  0  0  0  0  0  0  0  0
   -7.5144   -2.2932    2.2219 H   0  0  0  0  0  0  0  0  0  0  0  0
   -6.3273   -0.2521    1.5298 H   0  0  0  0  0  0  0  0  0  0  0  0
   -3.5472    2.4450    0.5751 H   0  0  0  0  0  0  0  0  0  0  0  0
   -4.8546    4.4270   -0.0691 H   0  0  0  0  0  0  0  0  0  0  0  0
   -6.9492    4.1583   -1.3285 H   0  0  0  0  0  0  0  0  0  0  0  0
   -7.7300    1.9106   -1.9485 H   0  0  0  0  0  0  0  0  0  0  0  0
   -6.4089   -0.0657   -1.3138 H   0  0  0  0  0  0  0  0  0  0  0  0
   -2.6006    1.2568   -1.6625 H   0  0  0  0  0  0  0  0  0  0  0  0
   -0.1501    1.3364   -1.7213 H   0  0  0  0  0  0  0  0  0  0  0  0
    1.7130    0.1279   -2.2427 H   0  0  0  0  0  0  0  0  0  0  0  0
    4.1577    0.1999   -2.3054 H   0  0  0  0  0  0  0  0  0  0  0  0
  1  2  2  0  0  0  0
  2  3  1  0  0  0  0
  3  4  2  0  0  0  0
  4  5  1  0  0  0  0
  5  6  2  0  0  0  0
  6  7  1  0  0  0  0
  7  8  2  0  0  0  0
  1  9  1  0  0  0  0
  9 10  2  0  0  0  0
 10 11  1  0  0  0  0
 11 12  2  0  0  0  0
 12 13  1  0  0  0  0
 13 14  2  0  0  0  0
 14 15  1  0  0  0  0
 15 16  2  0  0  0  0
 16 17  1  0  0  0  0
 17 18  1  0  0  0  0
 18 19  2  0  0  0  0
 19 20  1  0  0  0  0
 20 21  2  0  0  0  0
 21 22  1  0  0  0  0
 22 23  2  0  0  0  0
 17 24  1  0  0  0  0
 24 25  2  0  0  0  0
 25 26  1  0  0  0  0
 26 27  2  0  0  0  0
 27 28  1  0  0  0  0
 28 29  2  0  0  0  0
 16 30  1  0  0  0  0
 30 31  2  0  0  0  0
 12 32  1  0  0  0  0
 32 33  2  0  0  0  0
  8  3  1  0  0  0  0
 33  9  1  0  0  0  0
 31 13  1  0  0  0  0
 23 18  1  0  0  0  0
 29 24  1  0  0  0  0
  1 34  1  0  0  0  0
  2 35  1  0  0  0  0
  4 36  1  0  0  0  0
  5 37  1  0  0  0  0
  7 38  1  0  0  0  0
 10 39  1  0  0  0  0
 11 40  1  0  0  0  0
 14 41  1  0  0  0  0
 15 42  1  0  0  0  0
 19 43  1  0  0  0  0
 20 44  1  0  0  0  0
 21 45  1  0  0  0  0
 22 46  1  0  0  0  0
 23 47  1  0  0  0  0
 25 48  1  0  0  0  0
 26 49  1  0  0  0  0
 27 50  1  0  0  0  0
 28 51  1  0  0  0  0
 29 52  1  0  0  0  0
 30 53  1  0  0  0  0
 31 54  1  0  0  0  0
 32 55  1  0  0  0  0
 33 56  1  0  0  0  0
M  END
