
  xtb     03012221253D
 energy: -6.521899467719 gnorm: 0.000514085012 xtb: 6.4.1 (afa7bdf)
 33 35  0     0  0            999 V2000
    3.5584    2.7055   -0.3911 C   0  0  0  0  0  0  0  0  0  0  0  0
    3.1966    1.2817   -0.2050 C   0  0  0  0  0  0  0  0  0  0  0  0
    1.9433    0.9621   -0.1448 N   0  0  0  0  0  0  0  0  0  0  0  0
    1.6620   -0.3607    0.0322 C   0  0  0  0  0  0  0  0  0  0  0  0
    2.6632   -1.3288    0.1501 C   0  0  0  0  0  0  0  0  0  0  0  0
    2.3080   -2.6864    0.3333 C   0  0  0  0  0  0  0  0  0  0  0  0
    1.0107   -3.0788    0.3969 C   0  0  0  0  0  0  0  0  0  0  0  0
   -0.0350   -2.1342    0.2817 C   0  0  0  0  0  0  0  0  0  0  0  0
   -1.3952   -2.5009    0.3415 C   0  0  0  0  0  0  0  0  0  0  0  0
   -2.3773   -1.5646    0.2276 C   0  0  0  0  0  0  0  0  0  0  0  0
   -2.0701   -0.1972    0.0463 C   0  0  0  0  0  0  0  0  0  0  0  0
   -3.0844    0.7695   -0.0704 N   0  0  0  0  0  0  0  0  0  0  0  0
   -2.7764    2.1714   -0.3560 C   0  0  0  0  0  0  0  0  0  0  0  0
   -4.4962    0.4196    0.0871 C   0  0  0  0  0  0  0  0  0  0  0  0
   -0.7373    0.1671   -0.0139 C   0  0  0  0  0  0  0  0  0  0  0  0
    0.2909   -0.7711    0.0993 C   0  0  0  0  0  0  0  0  0  0  0  0
    3.9897   -0.9995    0.0932 O   0  0  0  0  0  0  0  0  0  0  0  0
    4.2822    0.3232   -0.0881 C   0  0  0  0  0  0  0  0  0  0  0  0
    5.4330    0.7433   -0.1585 O   0  0  0  0  0  0  0  0  0  0  0  0
    3.2632    3.2919    0.4787 H   0  0  0  0  0  0  0  0  0  0  0  0
    4.6358    2.8116   -0.5268 H   0  0  0  0  0  0  0  0  0  0  0  0
    3.0587    3.1161   -1.2682 H   0  0  0  0  0  0  0  0  0  0  0  0
    3.1053   -3.4023    0.4208 H   0  0  0  0  0  0  0  0  0  0  0  0
    0.7629   -4.1167    0.5364 H   0  0  0  0  0  0  0  0  0  0  0  0
   -1.6474   -3.5381    0.4784 H   0  0  0  0  0  0  0  0  0  0  0  0
   -3.4080   -1.8684    0.2684 H   0  0  0  0  0  0  0  0  0  0  0  0
   -2.1516    2.2434   -1.2433 H   0  0  0  0  0  0  0  0  0  0  0  0
   -2.2528    2.6166    0.4869 H   0  0  0  0  0  0  0  0  0  0  0  0
   -3.6839    2.7423   -0.5369 H   0  0  0  0  0  0  0  0  0  0  0  0
   -5.1200    1.3097    0.1048 H   0  0  0  0  0  0  0  0  0  0  0  0
   -4.6466   -0.1144    1.0224 H   0  0  0  0  0  0  0  0  0  0  0  0
   -4.8176   -0.2097   -0.7395 H   0  0  0  0  0  0  0  0  0  0  0  0
   -0.4649    1.1964   -0.1436 H   0  0  0  0  0  0  0  0  0  0  0  0
  1  2  1  0  0  0  0
  2  3  2  0  0  0  0
  3  4  1  0  0  0  0
  4  5  2  0  0  0  0
  5  6  1  0  0  0  0
  6  7  2  0  0  0  0
  7  8  1  0  0  0  0
  8  9  2  0  0  0  0
  9 10  1  0  0  0  0
 10 11  2  0  0  0  0
 11 12  1  0  0  0  0
 12 13  1  0  0  0  0
 12 14  1  0  0  0  0
 11 15  1  0  0  0  0
 15 16  2  0  0  0  0
  5 17  1  0  0  0  0
 17 18  1  0  0  0  0
 18 19  2  0  0  0  0
 18  2  1  0  0  0  0
 16  4  1  0  0  0  0
 16  8  1  0  0  0  0
  1 20  1  0  0  0  0
  1 21  1  0  0  0  0
  1 22  1  0  0  0  0
  6 23  1  0  0  0  0
  7 24  1  0  0  0  0
  9 25  1  0  0  0  0
 10 26  1  0  0  0  0
 13 27  1  0  0  0  0
 13 28  1  0  0  0  0
 13 29  1  0  0  0  0
 14 30  1  0  0  0  0
 14 31  1  0  0  0  0
 14 32  1  0  0  0  0
 15 33  1  0  0  0  0
M  END
