
  xtb     03012221323D
 energy: -4.266118152839 gnorm: 0.000319758661 xtb: 6.4.1 (afa7bdf)
 24 24  0     0  0            999 V2000
   -1.3742   -3.4143    0.3742 C   0  0  0  0  0  0  0  0  0  0  0  0
   -1.9015   -2.1130    0.4596 O   0  0  0  0  0  0  0  0  0  0  0  0
   -0.9733   -1.0917    0.2272 C   0  0  0  0  0  0  0  0  0  0  0  0
    0.3668   -1.2786   -0.0753 C   0  0  0  0  0  0  0  0  0  0  0  0
    1.2061   -0.1989   -0.2864 C   0  0  0  0  0  0  0  0  0  0  0  0
    2.6266   -0.4285   -0.6040 C   0  0  0  0  0  0  0  0  0  0  0  0
    3.0586   -1.5623   -0.6790 O   0  0  0  0  0  0  0  0  0  0  0  0
    3.4058    0.6612   -0.8022 O   0  0  0  0  0  0  0  0  0  0  0  0
    0.7101    1.0904   -0.1977 C   0  0  0  0  0  0  0  0  0  0  0  0
   -0.6242    1.3291    0.1015 C   0  0  0  0  0  0  0  0  0  0  0  0
   -1.1941    2.6024    0.2058 O   0  0  0  0  0  0  0  0  0  0  0  0
   -0.2977    3.6739    0.0468 C   0  0  0  0  0  0  0  0  0  0  0  0
   -1.4719    0.2230    0.3155 C   0  0  0  0  0  0  0  0  0  0  0  0
   -2.8015    0.4006    0.6159 O   0  0  0  0  0  0  0  0  0  0  0  0
   -0.5849   -3.5410    1.1169 H   0  0  0  0  0  0  0  0  0  0  0  0
   -0.9919   -3.5905   -0.6325 H   0  0  0  0  0  0  0  0  0  0  0  0
   -2.1774   -4.1228    0.5816 H   0  0  0  0  0  0  0  0  0  0  0  0
    0.7838   -2.2655   -0.1526 H   0  0  0  0  0  0  0  0  0  0  0  0
    4.3046    0.3373   -0.9992 H   0  0  0  0  0  0  0  0  0  0  0  0
    1.3882    1.9049   -0.3704 H   0  0  0  0  0  0  0  0  0  0  0  0
    0.4892    3.6112    0.7999 H   0  0  0  0  0  0  0  0  0  0  0  0
    0.1222    3.6560   -0.9598 H   0  0  0  0  0  0  0  0  0  0  0  0
   -0.8535    4.6021    0.1866 H   0  0  0  0  0  0  0  0  0  0  0  0
   -3.2158   -0.4845    0.7274 H   0  0  0  0  0  0  0  0  0  0  0  0
  1  2  1  0  0  0  0
  2  3  1  0  0  0  0
  3  4  2  0  0  0  0
  4  5  1  0  0  0  0
  5  6  1  0  0  0  0
  6  7  2  0  0  0  0
  6  8  1  0  0  0  0
  5  9  2  0  0  0  0
  9 10  1  0  0  0  0
 10 11  1  0  0  0  0
 11 12  1  0  0  0  0
 10 13  2  0  0  0  0
 13 14  1  0  0  0  0
 13  3  1  0  0  0  0
  1 15  1  0  0  0  0
  1 16  1  0  0  0  0
  1 17  1  0  0  0  0
  4 18  1  0  0  0  0
  8 19  1  0  0  0  0
  9 20  1  0  0  0  0
 12 21  1  0  0  0  0
 12 22  1  0  0  0  0
 12 23  1  0  0  0  0
 14 24  1  0  0  0  0
M  END
