
  xtb     03012221283D
 energy: -8.915035433913 gnorm: 0.000406642284 xtb: 6.4.1 (afa7bdf)
 40 44  0     0  0            999 V2000
   -5.4478   -0.2631   -0.2641 C   0  0  0  0  0  0  0  0  0  0  0  0
   -4.7712    0.8874   -0.5564 C   0  0  0  0  0  0  0  0  0  0  0  0
   -3.4645    0.9748   -0.4964 N   0  0  0  0  0  0  0  0  0  0  0  0
   -2.8112   -0.1370   -0.1321 C   0  0  0  0  0  0  0  0  0  0  0  0
   -1.3408   -0.0669   -0.0606 C   0  0  0  0  0  0  0  0  0  0  0  0
   -0.6940    1.1232    0.3724 C   0  0  0  0  0  0  0  0  0  0  0  0
   -1.4238    2.2645    0.7823 C   0  0  0  0  0  0  0  0  0  0  0  0
   -0.8087    3.3850    1.2452 C   0  0  0  0  0  0  0  0  0  0  0  0
    0.5866    3.4381    1.3257 C   0  0  0  0  0  0  0  0  0  0  0  0
    1.3318    2.3698    0.9382 C   0  0  0  0  0  0  0  0  0  0  0  0
    0.7270    1.1850    0.4498 C   0  0  0  0  0  0  0  0  0  0  0  0
    1.5148    0.0722    0.0723 C   0  0  0  0  0  0  0  0  0  0  0  0
    2.9947    0.1463    0.1379 C   0  0  0  0  0  0  0  0  0  0  0  0
    3.7257    1.0131   -0.6580 C   0  0  0  0  0  0  0  0  0  0  0  0
    5.0334    1.0961   -0.6092 N   0  0  0  0  0  0  0  0  0  0  0  0
    5.6024    0.2817    0.2565 C   0  0  0  0  0  0  0  0  0  0  0  0
    5.0445   -0.5917    1.0705 N   0  0  0  0  0  0  0  0  0  0  0  0
    3.7361   -0.6446    1.0002 C   0  0  0  0  0  0  0  0  0  0  0  0
    0.8771   -1.1109   -0.3690 C   0  0  0  0  0  0  0  0  0  0  0  0
    1.6365   -2.2301   -0.7919 C   0  0  0  0  0  0  0  0  0  0  0  0
    1.0374   -3.3649   -1.2396 C   0  0  0  0  0  0  0  0  0  0  0  0
   -0.3578   -3.4478   -1.2887 C   0  0  0  0  0  0  0  0  0  0  0  0
   -1.1188   -2.3934   -0.8919 C   0  0  0  0  0  0  0  0  0  0  0  0
   -0.5443   -1.1876   -0.4238 C   0  0  0  0  0  0  0  0  0  0  0  0
   -3.3887   -1.3075    0.1708 N   0  0  0  0  0  0  0  0  0  0  0  0
   -4.6972   -1.3454    0.0997 C   0  0  0  0  0  0  0  0  0  0  0  0
   -6.5225   -0.3144   -0.3181 H   0  0  0  0  0  0  0  0  0  0  0  0
   -5.3110    1.7738   -0.8510 H   0  0  0  0  0  0  0  0  0  0  0  0
   -2.4941    2.2407    0.7164 H   0  0  0  0  0  0  0  0  0  0  0  0
   -1.3937    4.2371    1.5492 H   0  0  0  0  0  0  0  0  0  0  0  0
    1.0674    4.3281    1.6962 H   0  0  0  0  0  0  0  0  0  0  0  0
    2.4039    2.4126    1.0119 H   0  0  0  0  0  0  0  0  0  0  0  0
    3.2095    1.6504   -1.3584 H   0  0  0  0  0  0  0  0  0  0  0  0
    6.6812    0.3384    0.3062 H   0  0  0  0  0  0  0  0  0  0  0  0
    3.2270   -1.3344    1.6546 H   0  0  0  0  0  0  0  0  0  0  0  0
    2.7099   -2.1685   -0.7659 H   0  0  0  0  0  0  0  0  0  0  0  0
    1.6346   -4.2031   -1.5581 H   0  0  0  0  0  0  0  0  0  0  0  0
   -0.8269   -4.3518   -1.6402 H   0  0  0  0  0  0  0  0  0  0  0  0
   -2.1879   -2.4743   -0.9254 H   0  0  0  0  0  0  0  0  0  0  0  0
   -5.1768   -2.2807    0.3429 H   0  0  0  0  0  0  0  0  0  0  0  0
  1  2  2  0  0  0  0
  2  3  1  0  0  0  0
  3  4  2  0  0  0  0
  4  5  1  0  0  0  0
  5  6  1  0  0  0  0
  6  7  2  0  0  0  0
  7  8  1  0  0  0  0
  8  9  2  0  0  0  0
  9 10  1  0  0  0  0
 10 11  2  0  0  0  0
 11 12  1  0  0  0  0
 12 13  1  0  0  0  0
 13 14  2  0  0  0  0
 14 15  1  0  0  0  0
 15 16  2  0  0  0  0
 16 17  1  0  0  0  0
 17 18  2  0  0  0  0
 12 19  2  0  0  0  0
 19 20  1  0  0  0  0
 20 21  2  0  0  0  0
 21 22  1  0  0  0  0
 22 23  2  0  0  0  0
 23 24  1  0  0  0  0
  4 25  1  0  0  0  0
 25 26  2  0  0  0  0
 26  1  1  0  0  0  0
 24  5  2  0  0  0  0
 11  6  1  0  0  0  0
 18 13  1  0  0  0  0
 24 19  1  0  0  0  0
  1 27  1  0  0  0  0
  2 28  1  0  0  0  0
  7 29  1  0  0  0  0
  8 30  1  0  0  0  0
  9 31  1  0  0  0  0
 10 32  1  0  0  0  0
 14 33  1  0  0  0  0
 16 34  1  0  0  0  0
 18 35  1  0  0  0  0
 20 36  1  0  0  0  0
 21 37  1  0  0  0  0
 22 38  1  0  0  0  0
 23 39  1  0  0  0  0
 26 40  1  0  0  0  0
M  END
