
  xtb     03012221263D
 energy: -8.782633334408 gnorm: 0.000336940267 xtb: 6.4.1 (afa7bdf)
 44 46  0     0  0            999 V2000
   -3.3122    2.1591   -0.8085 C   0  0  0  0  0  0  0  0  0  0  0  0
   -4.1825    1.1571   -0.1370 C   0  0  0  0  0  0  0  0  0  0  0  0
   -5.2700    1.5755    0.6067 C   0  0  0  0  0  0  0  0  0  0  0  0
   -6.1108    0.6623    1.2092 C   0  0  0  0  0  0  0  0  0  0  0  0
   -5.8694   -0.6896    1.0757 C   0  0  0  0  0  0  0  0  0  0  0  0
   -4.7827   -1.1475    0.3536 C   0  0  0  0  0  0  0  0  0  0  0  0
   -4.5206   -2.6051    0.2192 C   0  0  0  0  0  0  0  0  0  0  0  0
   -3.9221   -0.2203   -0.2602 C   0  0  0  0  0  0  0  0  0  0  0  0
   -2.7922   -0.6845   -0.9989 N   0  0  0  0  0  0  0  0  0  0  0  0
   -1.4419   -0.4556   -0.6884 C   0  0  0  0  0  0  0  0  0  0  0  0
   -0.4324   -0.9107   -1.5382 C   0  0  0  0  0  0  0  0  0  0  0  0
    0.8904   -0.7063   -1.2330 C   0  0  0  0  0  0  0  0  0  0  0  0
    1.2651   -0.0403   -0.0597 C   0  0  0  0  0  0  0  0  0  0  0  0
    2.6504    0.1919    0.3024 C   0  0  0  0  0  0  0  0  0  0  0  0
    3.7205   -0.1797   -0.4210 C   0  0  0  0  0  0  0  0  0  0  0  0
    5.1087    0.0497   -0.0527 C   0  0  0  0  0  0  0  0  0  0  0  0
    6.1255   -0.3685   -0.9147 C   0  0  0  0  0  0  0  0  0  0  0  0
    7.4512   -0.1691   -0.5993 C   0  0  0  0  0  0  0  0  0  0  0  0
    7.7947    0.4523    0.5848 C   0  0  0  0  0  0  0  0  0  0  0  0
    6.8067    0.8734    1.4527 C   0  0  0  0  0  0  0  0  0  0  0  0
    5.4795    0.6757    1.1403 C   0  0  0  0  0  0  0  0  0  0  0  0
    0.2480    0.4080    0.7913 C   0  0  0  0  0  0  0  0  0  0  0  0
   -1.0735    0.2036    0.4848 C   0  0  0  0  0  0  0  0  0  0  0  0
   -2.6869    1.6898   -1.5689 H   0  0  0  0  0  0  0  0  0  0  0  0
   -2.6565    2.6512   -0.0891 H   0  0  0  0  0  0  0  0  0  0  0  0
   -3.9096    2.9273   -1.3016 H   0  0  0  0  0  0  0  0  0  0  0  0
   -5.4615    2.6307    0.7047 H   0  0  0  0  0  0  0  0  0  0  0  0
   -6.9582    1.0045    1.7805 H   0  0  0  0  0  0  0  0  0  0  0  0
   -6.5282   -1.4028    1.5416 H   0  0  0  0  0  0  0  0  0  0  0  0
   -4.8742   -2.9760   -0.7438 H   0  0  0  0  0  0  0  0  0  0  0  0
   -3.4525   -2.8153    0.2906 H   0  0  0  0  0  0  0  0  0  0  0  0
   -5.0226   -3.1730    1.0040 H   0  0  0  0  0  0  0  0  0  0  0  0
   -2.9721   -1.3748   -1.7260 H   0  0  0  0  0  0  0  0  0  0  0  0
   -0.7084   -1.4236   -2.4430 H   0  0  0  0  0  0  0  0  0  0  0  0
    1.6474   -1.0659   -1.9063 H   0  0  0  0  0  0  0  0  0  0  0  0
    2.8125    0.7066    1.2318 H   0  0  0  0  0  0  0  0  0  0  0  0
    3.5592   -0.6896   -1.3526 H   0  0  0  0  0  0  0  0  0  0  0  0
    5.8602   -0.8535   -1.8392 H   0  0  0  0  0  0  0  0  0  0  0  0
    8.2216   -0.4983   -1.2771 H   0  0  0  0  0  0  0  0  0  0  0  0
    8.8324    0.6083    0.8318 H   0  0  0  0  0  0  0  0  0  0  0  0
    7.0750    1.3578    2.3774 H   0  0  0  0  0  0  0  0  0  0  0  0
    4.7220    1.0074    1.8281 H   0  0  0  0  0  0  0  0  0  0  0  0
    0.5156    0.9180    1.7009 H   0  0  0  0  0  0  0  0  0  0  0  0
   -1.8453    0.5394    1.1544 H   0  0  0  0  0  0  0  0  0  0  0  0
  1  2  1  0  0  0  0
  2  3  2  0  0  0  0
  3  4  1  0  0  0  0
  4  5  2  0  0  0  0
  5  6  1  0  0  0  0
  6  7  1  0  0  0  0
  6  8  2  0  0  0  0
  8  9  1  0  0  0  0
  9 10  1  0  0  0  0
 10 11  2  0  0  0  0
 11 12  1  0  0  0  0
 12 13  2  0  0  0  0
 13 14  1  0  0  0  0
 14 15  2  0  0  0  0
 15 16  1  0  0  0  0
 16 17  2  0  0  0  0
 17 18  1  0  0  0  0
 18 19  2  0  0  0  0
 19 20  1  0  0  0  0
 20 21  2  0  0  0  0
 13 22  1  0  0  0  0
 22 23  2  0  0  0  0
  8  2  1  0  0  0  0
 23 10  1  0  0  0  0
 21 16  1  0  0  0  0
  1 24  1  0  0  0  0
  1 25  1  0  0  0  0
  1 26  1  0  0  0  0
  3 27  1  0  0  0  0
  4 28  1  0  0  0  0
  5 29  1  0  0  0  0
  7 30  1  0  0  0  0
  7 31  1  0  0  0  0
  7 32  1  0  0  0  0
  9 33  1  0  0  0  0
 11 34  1  0  0  0  0
 12 35  1  0  0  0  0
 14 36  1  0  0  0  0
 15 37  1  0  0  0  0
 17 38  1  0  0  0  0
 18 39  1  0  0  0  0
 19 40  1  0  0  0  0
 20 41  1  0  0  0  0
 21 42  1  0  0  0  0
 22 43  1  0  0  0  0
 23 44  1  0  0  0  0
M  END
