
  xtb     03012221263D
 energy: -17.399205279086 gnorm: 0.000347838060 xtb: 6.4.1 (afa7bdf)
 81 90  0     0  0            999 V2000
   -3.0835   -4.7658    0.8442 C   0  0  0  0  0  0  0  0  0  0  0  0
   -4.1235   -3.8892    1.0456 C   0  0  0  0  0  0  0  0  0  0  0  0
   -4.9160   -3.4496   -0.0204 C   0  0  0  0  0  0  0  0  0  0  0  0
   -4.7140   -4.0504   -1.2708 C   0  0  0  0  0  0  0  0  0  0  0  0
   -3.6696   -4.9270   -1.4724 C   0  0  0  0  0  0  0  0  0  0  0  0
   -2.7805   -5.2443   -0.4367 C   0  0  0  0  0  0  0  0  0  0  0  0
   -1.4055   -5.7355   -0.7184 C   0  0  0  0  0  0  0  0  0  0  0  0
   -0.6286   -6.3393    0.2794 C   0  0  0  0  0  0  0  0  0  0  0  0
    0.7471   -6.3550    0.1989 C   0  0  0  0  0  0  0  0  0  0  0  0
    1.4105   -5.7672   -0.8869 C   0  0  0  0  0  0  0  0  0  0  0  0
    0.6277   -5.3077   -1.9518 C   0  0  0  0  0  0  0  0  0  0  0  0
   -0.7450   -5.2933   -1.8716 C   0  0  0  0  0  0  0  0  0  0  0  0
    2.8039   -5.3330   -0.7849 C   0  0  0  0  0  0  0  0  0  0  0  0
    3.7513   -5.7027    0.1398 C   0  0  0  0  0  0  0  0  0  0  0  0
    4.8620   -4.8208    0.1983 C   0  0  0  0  0  0  0  0  0  0  0  0
    4.7776   -3.7739   -0.6871 C   0  0  0  0  0  0  0  0  0  0  0  0
    3.4530   -4.0585   -1.7858 S   0  0  0  0  0  0  0  0  0  0  0  0
    5.5216   -2.5094   -0.6857 C   0  0  0  0  0  0  0  0  0  0  0  0
    5.6260   -1.7496   -1.8564 C   0  0  0  0  0  0  0  0  0  0  0  0
    5.8681   -0.3954   -1.8037 C   0  0  0  0  0  0  0  0  0  0  0  0
    5.9860    0.2727   -0.5760 C   0  0  0  0  0  0  0  0  0  0  0  0
    6.0423   -0.5182    0.5805 C   0  0  0  0  0  0  0  0  0  0  0  0
    5.8232   -1.8767    0.5281 C   0  0  0  0  0  0  0  0  0  0  0  0
    5.6901    1.7267   -0.4721 C   0  0  0  0  0  0  0  0  0  0  0  0
    5.8981    2.4392    0.7176 C   0  0  0  0  0  0  0  0  0  0  0  0
    5.2183    3.6102    0.9788 C   0  0  0  0  0  0  0  0  0  0  0  0
    4.3022    4.1303    0.0550 C   0  0  0  0  0  0  0  0  0  0  0  0
    4.2190    3.5045   -1.1926 C   0  0  0  0  0  0  0  0  0  0  0  0
    4.8930    2.3350   -1.4502 C   0  0  0  0  0  0  0  0  0  0  0  0
    3.2426    5.0575    0.4502 C   0  0  0  0  0  0  0  0  0  0  0  0
    3.1240    5.8005    1.5998 C   0  0  0  0  0  0  0  0  0  0  0  0
    1.8115    6.2949    1.8233 C   0  0  0  0  0  0  0  0  0  0  0  0
    0.9148    5.9361    0.8460 C   0  0  0  0  0  0  0  0  0  0  0  0
    1.7844    5.2310   -0.4915 S   0  0  0  0  0  0  0  0  0  0  0  0
   -0.5481    5.9576    0.8836 C   0  0  0  0  0  0  0  0  0  0  0  0
   -1.2488    5.9335    2.0976 C   0  0  0  0  0  0  0  0  0  0  0  0
   -2.5502    5.4824    2.1531 C   0  0  0  0  0  0  0  0  0  0  0  0
   -3.2112    5.0336    1.0012 C   0  0  0  0  0  0  0  0  0  0  0  0
   -2.5620    5.2150   -0.2267 C   0  0  0  0  0  0  0  0  0  0  0  0
   -1.2634    5.6636   -0.2826 C   0  0  0  0  0  0  0  0  0  0  0  0
   -4.3478    4.0776    1.0829 C   0  0  0  0  0  0  0  0  0  0  0  0
   -4.3785    3.1441    2.1269 C   0  0  0  0  0  0  0  0  0  0  0  0
   -5.0751    1.9651    2.0027 C   0  0  0  0  0  0  0  0  0  0  0  0
   -5.7786    1.6593    0.8322 C   0  0  0  0  0  0  0  0  0  0  0  0
   -5.8830    2.6614   -0.1424 C   0  0  0  0  0  0  0  0  0  0  0  0
   -5.1839    3.8428   -0.0177 C   0  0  0  0  0  0  0  0  0  0  0  0
   -6.0676    0.2588    0.5209 C   0  0  0  0  0  0  0  0  0  0  0  0
   -6.8231   -0.2628   -0.5013 C   0  0  0  0  0  0  0  0  0  0  0  0
   -6.5891   -1.6442   -0.7330 C   0  0  0  0  0  0  0  0  0  0  0  0
   -5.6531   -2.1920    0.1105 C   0  0  0  0  0  0  0  0  0  0  0  0
   -5.2848   -1.0463    1.3728 S   0  0  0  0  0  0  0  0  0  0  0  0
   -2.4155   -4.9865    1.6589 H   0  0  0  0  0  0  0  0  0  0  0  0
   -4.2641   -3.4391    2.0136 H   0  0  0  0  0  0  0  0  0  0  0  0
   -5.3149   -3.7346   -2.1062 H   0  0  0  0  0  0  0  0  0  0  0  0
   -3.4786   -5.3086   -2.4610 H   0  0  0  0  0  0  0  0  0  0  0  0
   -1.1142   -6.7187    1.1623 H   0  0  0  0  0  0  0  0  0  0  0  0
    1.3247   -6.7254    1.0282 H   0  0  0  0  0  0  0  0  0  0  0  0
    1.1190   -4.8528   -2.7949 H   0  0  0  0  0  0  0  0  0  0  0  0
   -1.3135   -4.8185   -2.6527 H   0  0  0  0  0  0  0  0  0  0  0  0
    3.5960   -6.4959    0.8544 H   0  0  0  0  0  0  0  0  0  0  0  0
    5.6240   -4.8819    0.9600 H   0  0  0  0  0  0  0  0  0  0  0  0
    5.4101   -2.2211   -2.8003 H   0  0  0  0  0  0  0  0  0  0  0  0
    5.8810    0.1717   -2.7184 H   0  0  0  0  0  0  0  0  0  0  0  0
    6.1380   -0.0423    1.5408 H   0  0  0  0  0  0  0  0  0  0  0  0
    5.7492   -2.4418    1.4417 H   0  0  0  0  0  0  0  0  0  0  0  0
    6.5423    2.0241    1.4733 H   0  0  0  0  0  0  0  0  0  0  0  0
    5.3140    4.0796    1.9427 H   0  0  0  0  0  0  0  0  0  0  0  0
    3.5227    3.8902   -1.9176 H   0  0  0  0  0  0  0  0  0  0  0  0
    4.7055    1.8215   -2.3767 H   0  0  0  0  0  0  0  0  0  0  0  0
    3.9124    5.8785    2.3323 H   0  0  0  0  0  0  0  0  0  0  0  0
    1.5159    6.7809    2.7401 H   0  0  0  0  0  0  0  0  0  0  0  0
   -0.7248    6.1643    3.0092 H   0  0  0  0  0  0  0  0  0  0  0  0
   -3.0398    5.3880    3.1075 H   0  0  0  0  0  0  0  0  0  0  0  0
   -3.0404    4.8749   -1.1291 H   0  0  0  0  0  0  0  0  0  0  0  0
   -0.7428    5.6775   -1.2251 H   0  0  0  0  0  0  0  0  0  0  0  0
   -3.7433    3.2924    2.9832 H   0  0  0  0  0  0  0  0  0  0  0  0
   -4.9854    1.2086    2.7637 H   0  0  0  0  0  0  0  0  0  0  0  0
   -6.4266    2.4561   -1.0486 H   0  0  0  0  0  0  0  0  0  0  0  0
   -5.2078    4.5615   -0.8192 H   0  0  0  0  0  0  0  0  0  0  0  0
   -7.4273    0.3477   -1.1544 H   0  0  0  0  0  0  0  0  0  0  0  0
   -7.0002   -2.1763   -1.5769 H   0  0  0  0  0  0  0  0  0  0  0  0
  1  2  2  0  0  0  0
  2  3  1  0  0  0  0
  3  4  2  0  0  0  0
  4  5  1  0  0  0  0
  5  6  2  0  0  0  0
  6  7  1  0  0  0  0
  7  8  2  0  0  0  0
  8  9  1  0  0  0  0
  9 10  2  0  0  0  0
 10 11  1  0  0  0  0
 11 12  2  0  0  0  0
 10 13  1  0  0  0  0
 13 14  2  0  0  0  0
 14 15  1  0  0  0  0
 15 16  2  0  0  0  0
 16 17  1  0  0  0  0
 16 18  1  0  0  0  0
 18 19  2  0  0  0  0
 19 20  1  0  0  0  0
 20 21  2  0  0  0  0
 21 22  1  0  0  0  0
 22 23  2  0  0  0  0
 21 24  1  0  0  0  0
 24 25  2  0  0  0  0
 25 26  1  0  0  0  0
 26 27  2  0  0  0  0
 27 28  1  0  0  0  0
 28 29  2  0  0  0  0
 27 30  1  0  0  0  0
 30 31  2  0  0  0  0
 31 32  1  0  0  0  0
 32 33  2  0  0  0  0
 33 34  1  0  0  0  0
 33 35  1  0  0  0  0
 35 36  2  0  0  0  0
 36 37  1  0  0  0  0
 37 38  2  0  0  0  0
 38 39  1  0  0  0  0
 39 40  2  0  0  0  0
 38 41  1  0  0  0  0
 41 42  2  0  0  0  0
 42 43  1  0  0  0  0
 43 44  2  0  0  0  0
 44 45  1  0  0  0  0
 45 46  2  0  0  0  0
 44 47  1  0  0  0  0
 47 48  2  0  0  0  0
 48 49  1  0  0  0  0
 49 50  2  0  0  0  0
 50 51  1  0  0  0  0
  6  1  1  0  0  0  0
 12  7  1  0  0  0  0
 17 13  1  0  0  0  0
 23 18  1  0  0  0  0
 29 24  1  0  0  0  0
 34 30  1  0  0  0  0
 40 35  1  0  0  0  0
 46 41  1  0  0  0  0
 51 47  1  0  0  0  0
 50  3  1  0  0  0  0
  1 52  1  0  0  0  0
  2 53  1  0  0  0  0
  4 54  1  0  0  0  0
  5 55  1  0  0  0  0
  8 56  1  0  0  0  0
  9 57  1  0  0  0  0
 11 58  1  0  0  0  0
 12 59  1  0  0  0  0
 14 60  1  0  0  0  0
 15 61  1  0  0  0  0
 19 62  1  0  0  0  0
 20 63  1  0  0  0  0
 22 64  1  0  0  0  0
 23 65  1  0  0  0  0
 25 66  1  0  0  0  0
 26 67  1  0  0  0  0
 28 68  1  0  0  0  0
 29 69  1  0  0  0  0
 31 70  1  0  0  0  0
 32 71  1  0  0  0  0
 36 72  1  0  0  0  0
 37 73  1  0  0  0  0
 39 74  1  0  0  0  0
 40 75  1  0  0  0  0
 42 76  1  0  0  0  0
 43 77  1  0  0  0  0
 45 78  1  0  0  0  0
 46 79  1  0  0  0  0
 48 80  1  0  0  0  0
 49 81  1  0  0  0  0
M  END
