
  xtb     03012221263D
 energy: -9.699036423564 gnorm: 0.000330563586 xtb: 6.4.1 (afa7bdf)
 49 53  0     0  0            999 V2000
    5.4679    0.6812   -0.1725 C   0  0  0  0  0  0  0  0  0  0  0  0
    4.0088    0.4463    0.2498 C   0  0  0  0  0  0  0  0  0  0  0  0
    3.9767   -0.2977    1.5945 C   0  0  0  0  0  0  0  0  0  0  0  0
    3.2723    1.8121    0.3857 C   0  0  0  0  0  0  0  0  0  0  0  0
    1.7857    1.6640    0.5725 C   0  0  0  0  0  0  0  0  0  0  0  0
    1.1792    2.4956    1.2205 O   0  0  0  0  0  0  0  0  0  0  0  0
    1.1047    0.5212   -0.0118 C   0  0  0  0  0  0  0  0  0  0  0  0
    1.7954   -0.4926   -0.6107 C   0  0  0  0  0  0  0  0  0  0  0  0
    3.2732   -0.3950   -0.8361 C   0  0  0  0  0  0  0  0  0  0  0  0
    1.2029   -1.6637   -1.0209 O   0  0  0  0  0  0  0  0  0  0  0  0
   -0.1180   -1.9126   -0.6338 C   0  0  0  0  0  0  0  0  0  0  0  0
   -0.6257   -3.2132   -0.8421 C   0  0  0  0  0  0  0  0  0  0  0  0
   -1.8901   -3.5445   -0.4798 C   0  0  0  0  0  0  0  0  0  0  0  0
   -2.7416   -2.5852    0.1121 C   0  0  0  0  0  0  0  0  0  0  0  0
   -4.0590   -2.9049    0.4819 C   0  0  0  0  0  0  0  0  0  0  0  0
   -4.8979   -1.9617    1.0384 C   0  0  0  0  0  0  0  0  0  0  0  0
   -6.1963   -2.2607    1.4076 O   0  0  0  0  0  0  0  0  0  0  0  0
   -4.4090   -0.6499    1.2305 C   0  0  0  0  0  0  0  0  0  0  0  0
   -3.1401   -0.3156    0.8844 C   0  0  0  0  0  0  0  0  0  0  0  0
   -2.2558   -1.2694    0.3216 C   0  0  0  0  0  0  0  0  0  0  0  0
   -0.9246   -0.9473   -0.0525 C   0  0  0  0  0  0  0  0  0  0  0  0
   -0.3950    0.4589    0.0925 C   0  0  0  0  0  0  0  0  0  0  0  0
   -1.0633    1.3913   -0.9022 C   0  0  0  0  0  0  0  0  0  0  0  0
   -0.9822    2.7567   -0.7064 C   0  0  0  0  0  0  0  0  0  0  0  0
   -1.6008    3.6138   -1.5799 C   0  0  0  0  0  0  0  0  0  0  0  0
   -2.2825    3.0647   -2.6352 C   0  0  0  0  0  0  0  0  0  0  0  0
   -2.3041    1.6971   -2.7640 C   0  0  0  0  0  0  0  0  0  0  0  0
   -1.7145    0.8564   -1.9322 N   0  0  0  0  0  0  0  0  0  0  0  0
    5.9954    1.2782    0.5701 H   0  0  0  0  0  0  0  0  0  0  0  0
    5.9971   -0.2643   -0.2827 H   0  0  0  0  0  0  0  0  0  0  0  0
    5.5187    1.2077   -1.1245 H   0  0  0  0  0  0  0  0  0  0  0  0
    4.4742   -1.2634    1.5177 H   0  0  0  0  0  0  0  0  0  0  0  0
    4.4761    0.2795    2.3712 H   0  0  0  0  0  0  0  0  0  0  0  0
    2.9505   -0.4731    1.9145 H   0  0  0  0  0  0  0  0  0  0  0  0
    3.4564    2.4202   -0.5032 H   0  0  0  0  0  0  0  0  0  0  0  0
    3.6792    2.3705    1.2322 H   0  0  0  0  0  0  0  0  0  0  0  0
    3.4525    0.0401   -1.8230 H   0  0  0  0  0  0  0  0  0  0  0  0
    3.6924   -1.4041   -0.8683 H   0  0  0  0  0  0  0  0  0  0  0  0
    0.0244   -3.9393   -1.2969 H   0  0  0  0  0  0  0  0  0  0  0  0
   -2.2608   -4.5404   -0.6451 H   0  0  0  0  0  0  0  0  0  0  0  0
   -4.4212   -3.9026    0.3235 H   0  0  0  0  0  0  0  0  0  0  0  0
   -6.3921   -3.2025    1.2089 H   0  0  0  0  0  0  0  0  0  0  0  0
   -5.0756    0.0789    1.6544 H   0  0  0  0  0  0  0  0  0  0  0  0
   -2.8029    0.6967    1.0204 H   0  0  0  0  0  0  0  0  0  0  0  0
   -0.6501    0.8097    1.1040 H   0  0  0  0  0  0  0  0  0  0  0  0
   -0.4117    3.1350    0.1240 H   0  0  0  0  0  0  0  0  0  0  0  0
   -1.5491    4.6813   -1.4438 H   0  0  0  0  0  0  0  0  0  0  0  0
   -2.7866    3.6932   -3.3505 H   0  0  0  0  0  0  0  0  0  0  0  0
   -2.8333    1.2532   -3.5928 H   0  0  0  0  0  0  0  0  0  0  0  0
  1  2  1  0  0  0  0
  2  3  1  0  0  0  0
  2  4  1  0  0  0  0
  4  5  1  0  0  0  0
  5  6  2  0  0  0  0
  5  7  1  0  0  0  0
  7  8  2  0  0  0  0
  8  9  1  0  0  0  0
  8 10  1  0  0  0  0
 10 11  1  0  0  0  0
 11 12  2  0  0  0  0
 12 13  1  0  0  0  0
 13 14  2  0  0  0  0
 14 15  1  0  0  0  0
 15 16  2  0  0  0  0
 16 17  1  0  0  0  0
 16 18  1  0  0  0  0
 18 19  2  0  0  0  0
 19 20  1  0  0  0  0
 20 21  2  0  0  0  0
 21 22  1  0  0  0  0
 22 23  1  0  0  0  0
 23 24  2  0  0  0  0
 24 25  1  0  0  0  0
 25 26  2  0  0  0  0
 26 27  1  0  0  0  0
 27 28  2  0  0  0  0
  9  2  1  0  0  0  0
 21 11  1  0  0  0  0
 28 23  1  0  0  0  0
 22  7  1  0  0  0  0
 20 14  1  0  0  0  0
  1 29  1  0  0  0  0
  1 30  1  0  0  0  0
  1 31  1  0  0  0  0
  3 32  1  0  0  0  0
  3 33  1  0  0  0  0
  3 34  1  0  0  0  0
  4 35  1  0  0  0  0
  4 36  1  0  0  0  0
  9 37  1  0  0  0  0
  9 38  1  0  0  0  0
 12 39  1  0  0  0  0
 13 40  1  0  0  0  0
 15 41  1  0  0  0  0
 17 42  1  0  0  0  0
 18 43  1  0  0  0  0
 19 44  1  0  0  0  0
 22 45  1  0  0  0  0
 24 46  1  0  0  0  0
 25 47  1  0  0  0  0
 26 48  1  0  0  0  0
 27 49  1  0  0  0  0
M  END
