
  xtb     03012221223D
 energy: -17.890940457728 gnorm: 0.000162571310 xtb: 6.4.1 (afa7bdf)
 92 99  0     0  0            999 V2000
  -15.9225   -0.1373    0.7342 C   0  0  0  0  0  0  0  0  0  0  0  0
  -15.2303   -0.0243   -0.6124 C   0  0  0  0  0  0  0  0  0  0  0  0
  -13.7035   -0.0625   -0.5104 C   0  0  0  0  0  0  0  0  0  0  0  0
  -13.1086    1.1418    0.2209 C   0  0  0  0  0  0  0  0  0  0  0  0
  -11.5791    1.1490    0.2265 C   0  0  0  0  0  0  0  0  0  0  0  0
  -10.9669    0.0121    1.0252 C   0  0  0  0  0  0  0  0  0  0  0  0
   -9.5198    0.0434    0.9588 N   0  0  0  0  0  0  0  0  0  0  0  0
   -8.8199    0.5607    2.0550 C   0  0  0  0  0  0  0  0  0  0  0  0
   -9.4070    0.9695    3.0410 O   0  0  0  0  0  0  0  0  0  0  0  0
   -7.3559    0.5959    1.9702 C   0  0  0  0  0  0  0  0  0  0  0  0
   -6.6170    1.0686    3.0249 C   0  0  0  0  0  0  0  0  0  0  0  0
   -5.2294    1.1060    2.9577 C   0  0  0  0  0  0  0  0  0  0  0  0
   -4.5826    0.6722    1.8379 C   0  0  0  0  0  0  0  0  0  0  0  0
   -5.2858    0.1765    0.7208 C   0  0  0  0  0  0  0  0  0  0  0  0
   -4.6328   -0.2864   -0.4739 C   0  0  0  0  0  0  0  0  0  0  0  0
   -3.1893   -0.2756   -0.6093 C   0  0  0  0  0  0  0  0  0  0  0  0
   -2.4512   -0.6886   -1.6922 C   0  0  0  0  0  0  0  0  0  0  0  0
   -1.0554   -0.5596   -1.5329 C   0  0  0  0  0  0  0  0  0  0  0  0
   -0.6649   -0.0433   -0.3235 C   0  0  0  0  0  0  0  0  0  0  0  0
    0.6857    0.1907    0.0996 C   0  0  0  0  0  0  0  0  0  0  0  0
    1.0762    0.7079    1.3086 C   0  0  0  0  0  0  0  0  0  0  0  0
    2.4722    0.8321    1.4700 C   0  0  0  0  0  0  0  0  0  0  0  0
    3.2105    0.4138    0.3892 C   0  0  0  0  0  0  0  0  0  0  0  0
    4.6544    0.4142    0.2582 C   0  0  0  0  0  0  0  0  0  0  0  0
    5.4444    0.8662    1.3039 C   0  0  0  0  0  0  0  0  0  0  0  0
    6.8267    0.8807    1.2248 C   0  0  0  0  0  0  0  0  0  0  0  0
    7.4771    0.4446    0.0962 C   0  0  0  0  0  0  0  0  0  0  0  0
    6.7228   -0.0286   -1.0056 C   0  0  0  0  0  0  0  0  0  0  0  0
    7.3782   -0.4862   -2.1784 C   0  0  0  0  0  0  0  0  0  0  0  0
    6.6388   -0.9452   -3.2387 C   0  0  0  0  0  0  0  0  0  0  0  0
    5.2505   -0.9668   -3.1780 C   0  0  0  0  0  0  0  0  0  0  0  0
    4.6037   -0.5313   -2.0590 C   0  0  0  0  0  0  0  0  0  0  0  0
    5.3074   -0.0490   -0.9364 C   0  0  0  0  0  0  0  0  0  0  0  0
    8.8429   -0.4698   -2.2557 C   0  0  0  0  0  0  0  0  0  0  0  0
    9.4297   -0.8818   -3.2404 O   0  0  0  0  0  0  0  0  0  0  0  0
    9.5436    0.0326   -1.1532 N   0  0  0  0  0  0  0  0  0  0  0  0
   10.9914    0.0363   -1.2079 C   0  0  0  0  0  0  0  0  0  0  0  0
   11.5726   -1.1277   -0.4249 C   0  0  0  0  0  0  0  0  0  0  0  0
   13.1012   -1.1395   -0.3814 C   0  0  0  0  0  0  0  0  0  0  0  0
   13.6919    0.0378    0.3948 C   0  0  0  0  0  0  0  0  0  0  0  0
   15.2149   -0.0176    0.5015 C   0  0  0  0  0  0  0  0  0  0  0  0
   15.7885    1.1568    1.2731 C   0  0  0  0  0  0  0  0  0  0  0  0
    8.9394    0.4646    0.0340 C   0  0  0  0  0  0  0  0  0  0  0  0
    9.6105    0.8350    0.9820 O   0  0  0  0  0  0  0  0  0  0  0  0
    2.1114   -0.1408   -0.8491 S   0  0  0  0  0  0  0  0  0  0  0  0
   -2.0904    0.2849    0.6266 S   0  0  0  0  0  0  0  0  0  0  0  0
   -5.4223   -0.7521   -1.5140 C   0  0  0  0  0  0  0  0  0  0  0  0
   -6.8040   -0.7813   -1.4287 C   0  0  0  0  0  0  0  0  0  0  0  0
   -7.4543   -0.3469   -0.2994 C   0  0  0  0  0  0  0  0  0  0  0  0
   -6.7005    0.1407    0.7964 C   0  0  0  0  0  0  0  0  0  0  0  0
   -8.9158   -0.3861   -0.2293 C   0  0  0  0  0  0  0  0  0  0  0  0
   -9.5867   -0.7712   -1.1717 O   0  0  0  0  0  0  0  0  0  0  0  0
  -17.0112   -0.1580    0.6349 H   0  0  0  0  0  0  0  0  0  0  0  0
  -15.6245   -1.0498    1.2562 H   0  0  0  0  0  0  0  0  0  0  0  0
  -15.6744    0.7028    1.3864 H   0  0  0  0  0  0  0  0  0  0  0  0
  -15.5364    0.9027   -1.1137 H   0  0  0  0  0  0  0  0  0  0  0  0
  -15.5759   -0.8329   -1.2708 H   0  0  0  0  0  0  0  0  0  0  0  0
  -13.2615   -0.1222   -1.5129 H   0  0  0  0  0  0  0  0  0  0  0  0
  -13.3991   -0.9875   -0.0089 H   0  0  0  0  0  0  0  0  0  0  0  0
  -13.4850    2.0621   -0.2426 H   0  0  0  0  0  0  0  0  0  0  0  0
  -13.4732    1.1680    1.2536 H   0  0  0  0  0  0  0  0  0  0  0  0
  -11.1990    2.0984    0.6237 H   0  0  0  0  0  0  0  0  0  0  0  0
  -11.2033    1.0945   -0.8021 H   0  0  0  0  0  0  0  0  0  0  0  0
  -11.2930   -0.9602    0.6443 H   0  0  0  0  0  0  0  0  0  0  0  0
  -11.2652    0.0642    2.0777 H   0  0  0  0  0  0  0  0  0  0  0  0
   -7.1356    1.4088    3.9049 H   0  0  0  0  0  0  0  0  0  0  0  0
   -4.6651    1.4796    3.7961 H   0  0  0  0  0  0  0  0  0  0  0  0
   -3.5009    0.7110    1.8095 H   0  0  0  0  0  0  0  0  0  0  0  0
   -2.8918   -1.0808   -2.5946 H   0  0  0  0  0  0  0  0  0  0  0  0
   -0.3445   -0.8426   -2.2957 H   0  0  0  0  0  0  0  0  0  0  0  0
    0.3652    0.9926    2.0707 H   0  0  0  0  0  0  0  0  0  0  0  0
    2.9129    1.2235    2.3727 H   0  0  0  0  0  0  0  0  0  0  0  0
    4.9747    1.2155    2.2054 H   0  0  0  0  0  0  0  0  0  0  0  0
    7.4197    1.2354    2.0505 H   0  0  0  0  0  0  0  0  0  0  0  0
    7.1575   -1.2876   -4.1179 H   0  0  0  0  0  0  0  0  0  0  0  0
    4.6859   -1.3302   -4.0207 H   0  0  0  0  0  0  0  0  0  0  0  0
    3.5216   -0.5580   -2.0356 H   0  0  0  0  0  0  0  0  0  0  0  0
   11.3327    0.9947   -0.8056 H   0  0  0  0  0  0  0  0  0  0  0  0
   11.2980   -0.0019   -2.2586 H   0  0  0  0  0  0  0  0  0  0  0  0
   11.1908   -2.0623   -0.8541 H   0  0  0  0  0  0  0  0  0  0  0  0
   11.1736   -1.0938    0.5959 H   0  0  0  0  0  0  0  0  0  0  0  0
   13.4974   -1.1420   -1.4033 H   0  0  0  0  0  0  0  0  0  0  0  0
   13.4547   -2.0760    0.0675 H   0  0  0  0  0  0  0  0  0  0  0  0
   13.3959    0.9822   -0.0749 H   0  0  0  0  0  0  0  0  0  0  0  0
   13.2535    0.0709    1.3990 H   0  0  0  0  0  0  0  0  0  0  0  0
   15.6482   -0.0557   -0.5062 H   0  0  0  0  0  0  0  0  0  0  0  0
   15.5120   -0.9620    0.9750 H   0  0  0  0  0  0  0  0  0  0  0  0
   16.8785    1.1093    1.3450 H   0  0  0  0  0  0  0  0  0  0  0  0
   15.3934    1.1917    2.2912 H   0  0  0  0  0  0  0  0  0  0  0  0
   15.5321    2.1062    0.7967 H   0  0  0  0  0  0  0  0  0  0  0  0
   -4.9526   -1.1024   -2.4151 H   0  0  0  0  0  0  0  0  0  0  0  0
   -7.3966   -1.1477   -2.2496 H   0  0  0  0  0  0  0  0  0  0  0  0
  1  2  1  0  0  0  0
  2  3  1  0  0  0  0
  3  4  1  0  0  0  0
  4  5  1  0  0  0  0
  5  6  1  0  0  0  0
  6  7  1  0  0  0  0
  7  8  1  0  0  0  0
  8  9  2  0  0  0  0
  8 10  1  0  0  0  0
 10 11  1  0  0  0  0
 11 12  2  0  0  0  0
 12 13  1  0  0  0  0
 13 14  2  0  0  0  0
 14 15  1  0  0  0  0
 15 16  1  0  0  0  0
 16 17  2  0  0  0  0
 17 18  1  0  0  0  0
 18 19  2  0  0  0  0
 19 20  1  0  0  0  0
 20 21  2  0  0  0  0
 21 22  1  0  0  0  0
 22 23  2  0  0  0  0
 23 24  1  0  0  0  0
 24 25  2  0  0  0  0
 25 26  1  0  0  0  0
 26 27  2  0  0  0  0
 27 28  1  0  0  0  0
 28 29  2  0  0  0  0
 29 30  1  0  0  0  0
 30 31  2  0  0  0  0
 31 32  1  0  0  0  0
 32 33  2  0  0  0  0
 29 34  1  0  0  0  0
 34 35  2  0  0  0  0
 34 36  1  0  0  0  0
 36 37  1  0  0  0  0
 37 38  1  0  0  0  0
 38 39  1  0  0  0  0
 39 40  1  0  0  0  0
 40 41  1  0  0  0  0
 41 42  1  0  0  0  0
 36 43  1  0  0  0  0
 43 44  2  0  0  0  0
 23 45  1  0  0  0  0
 19 46  1  0  0  0  0
 15 47  2  0  0  0  0
 47 48  1  0  0  0  0
 48 49  2  0  0  0  0
 49 50  1  0  0  0  0
 49 51  1  0  0  0  0
 51 52  2  0  0  0  0
 51  7  1  0  0  0  0
 50 10  2  0  0  0  0
 50 14  1  0  0  0  0
 46 16  1  0  0  0  0
 45 20  1  0  0  0  0
 33 24  1  0  0  0  0
 43 27  1  0  0  0  0
 33 28  1  0  0  0  0
  1 53  1  0  0  0  0
  1 54  1  0  0  0  0
  1 55  1  0  0  0  0
  2 56  1  0  0  0  0
  2 57  1  0  0  0  0
  3 58  1  0  0  0  0
  3 59  1  0  0  0  0
  4 60  1  0  0  0  0
  4 61  1  0  0  0  0
  5 62  1  0  0  0  0
  5 63  1  0  0  0  0
  6 64  1  0  0  0  0
  6 65  1  0  0  0  0
 11 66  1  0  0  0  0
 12 67  1  0  0  0  0
 13 68  1  0  0  0  0
 17 69  1  0  0  0  0
 18 70  1  0  0  0  0
 21 71  1  0  0  0  0
 22 72  1  0  0  0  0
 25 73  1  0  0  0  0
 26 74  1  0  0  0  0
 30 75  1  0  0  0  0
 31 76  1  0  0  0  0
 32 77  1  0  0  0  0
 37 78  1  0  0  0  0
 37 79  1  0  0  0  0
 38 80  1  0  0  0  0
 38 81  1  0  0  0  0
 39 82  1  0  0  0  0
 39 83  1  0  0  0  0
 40 84  1  0  0  0  0
 40 85  1  0  0  0  0
 41 86  1  0  0  0  0
 41 87  1  0  0  0  0
 42 88  1  0  0  0  0
 42 89  1  0  0  0  0
 42 90  1  0  0  0  0
 47 91  1  0  0  0  0
 48 92  1  0  0  0  0
M  END
