
  xtb     03012221293D
 energy: -13.842062639652 gnorm: 0.000327467887 xtb: 6.4.1 (afa7bdf)
 71 74  0     0  0            999 V2000
    8.9927   -3.9147   -0.1286 C   0  0  0  0  0  0  0  0  0  0  0  0
    8.7907   -2.4677   -0.0486 N   0  0  0  0  0  0  0  0  0  0  0  0
    9.9921   -1.6344    0.0096 C   0  0  0  0  0  0  0  0  0  0  0  0
    7.5036   -1.9047   -0.0288 C   0  0  0  0  0  0  0  0  0  0  0  0
    6.3597   -2.7108   -0.0507 C   0  0  0  0  0  0  0  0  0  0  0  0
    5.1029   -2.1626   -0.0307 C   0  0  0  0  0  0  0  0  0  0  0  0
    4.9227   -0.7766    0.0124 C   0  0  0  0  0  0  0  0  0  0  0  0
    3.6128   -0.1604    0.0355 C   0  0  0  0  0  0  0  0  0  0  0  0
    2.4330   -0.7999    0.0124 C   0  0  0  0  0  0  0  0  0  0  0  0
    1.1791   -0.0830    0.0405 C   0  0  0  0  0  0  0  0  0  0  0  0
   -0.0126   -0.7797    0.0129 C   0  0  0  0  0  0  0  0  0  0  0  0
   -1.2002   -0.0751    0.0422 C   0  0  0  0  0  0  0  0  0  0  0  0
   -2.4879   -0.7378    0.0177 C   0  0  0  0  0  0  0  0  0  0  0  0
   -2.6948   -2.0638   -0.0684 C   0  0  0  0  0  0  0  0  0  0  0  0
   -3.9935   -2.7059   -0.0877 C   0  0  0  0  0  0  0  0  0  0  0  0
   -4.0747   -4.0963   -0.2139 C   0  0  0  0  0  0  0  0  0  0  0  0
   -5.2861   -4.7378   -0.2334 C   0  0  0  0  0  0  0  0  0  0  0  0
   -6.4846   -4.0234   -0.1266 C   0  0  0  0  0  0  0  0  0  0  0  0
   -7.7268   -4.6796   -0.1454 N   0  0  0  0  0  0  0  0  0  0  0  0
   -8.9818   -3.9505    0.0406 C   0  0  0  0  0  0  0  0  0  0  0  0
   -7.8275   -6.1246   -0.3521 C   0  0  0  0  0  0  0  0  0  0  0  0
   -6.4021   -2.6322   -0.0002 C   0  0  0  0  0  0  0  0  0  0  0  0
   -5.1906   -1.9900    0.0187 C   0  0  0  0  0  0  0  0  0  0  0  0
   -1.1934    1.2587    0.0968 N   0  0  0  0  0  0  0  0  0  0  0  0
    0.0037    1.8491    0.1180 C   0  0  0  0  0  0  0  0  0  0  0  0
    0.0191    3.2945    0.1711 C   0  0  0  0  0  0  0  0  0  0  0  0
   -1.1043    4.0232    0.2046 C   0  0  0  0  0  0  0  0  0  0  0  0
   -1.1789    5.4713    0.2531 C   0  0  0  0  0  0  0  0  0  0  0  0
   -2.4270    6.0936    0.2780 C   0  0  0  0  0  0  0  0  0  0  0  0
   -2.5300    7.4642    0.3225 C   0  0  0  0  0  0  0  0  0  0  0  0
   -1.3953    8.2480    0.3386 C   0  0  0  0  0  0  0  0  0  0  0  0
   -1.5125    9.7625    0.4119 C   0  0  0  0  0  0  0  0  0  0  0  0
   -0.4441   10.3148   -0.2052 F   0  0  0  0  0  0  0  0  0  0  0  0
   -1.5384   10.1241    1.7138 F   0  0  0  0  0  0  0  0  0  0  0  0
   -2.6549   10.1437   -0.2019 F   0  0  0  0  0  0  0  0  0  0  0  0
   -0.1532    7.6485    0.3211 C   0  0  0  0  0  0  0  0  0  0  0  0
   -0.0409    6.2783    0.2767 C   0  0  0  0  0  0  0  0  0  0  0  0
    1.1952    1.2484    0.0922 N   0  0  0  0  0  0  0  0  0  0  0  0
    6.0641    0.0306    0.0339 C   0  0  0  0  0  0  0  0  0  0  0  0
    7.3204   -0.5179    0.0138 C   0  0  0  0  0  0  0  0  0  0  0  0
    8.5076   -4.3099   -1.0185 H   0  0  0  0  0  0  0  0  0  0  0  0
   10.0504   -4.1618   -0.1824 H   0  0  0  0  0  0  0  0  0  0  0  0
    8.5739   -4.3981    0.7514 H   0  0  0  0  0  0  0  0  0  0  0  0
   10.0398   -0.9887   -0.8646 H   0  0  0  0  0  0  0  0  0  0  0  0
   10.8926   -2.2436    0.0330 H   0  0  0  0  0  0  0  0  0  0  0  0
    9.9763   -1.0202    0.9074 H   0  0  0  0  0  0  0  0  0  0  0  0
    6.4705   -3.7805   -0.0813 H   0  0  0  0  0  0  0  0  0  0  0  0
    4.2440   -2.8087   -0.0474 H   0  0  0  0  0  0  0  0  0  0  0  0
    3.5843    0.9142    0.0751 H   0  0  0  0  0  0  0  0  0  0  0  0
    2.3998   -1.8717   -0.0280 H   0  0  0  0  0  0  0  0  0  0  0  0
   -0.0021   -1.8526   -0.0291 H   0  0  0  0  0  0  0  0  0  0  0  0
   -3.3356   -0.0825    0.0696 H   0  0  0  0  0  0  0  0  0  0  0  0
   -1.8429   -2.7155   -0.1322 H   0  0  0  0  0  0  0  0  0  0  0  0
   -3.1650   -4.6656   -0.2965 H   0  0  0  0  0  0  0  0  0  0  0  0
   -5.3176   -5.8092   -0.3262 H   0  0  0  0  0  0  0  0  0  0  0  0
   -9.8263   -4.6327    0.1038 H   0  0  0  0  0  0  0  0  0  0  0  0
   -8.9453   -3.3742    0.9625 H   0  0  0  0  0  0  0  0  0  0  0  0
   -9.1477   -3.2759   -0.7966 H   0  0  0  0  0  0  0  0  0  0  0  0
   -7.3126   -6.4072   -1.2677 H   0  0  0  0  0  0  0  0  0  0  0  0
   -7.3801   -6.6526    0.4873 H   0  0  0  0  0  0  0  0  0  0  0  0
   -8.8654   -6.4372   -0.4396 H   0  0  0  0  0  0  0  0  0  0  0  0
   -7.3078   -2.0567    0.0781 H   0  0  0  0  0  0  0  0  0  0  0  0
   -5.1649   -0.9204    0.1196 H   0  0  0  0  0  0  0  0  0  0  0  0
    0.9800    3.7713    0.1797 H   0  0  0  0  0  0  0  0  0  0  0  0
   -2.0374    3.4884    0.1922 H   0  0  0  0  0  0  0  0  0  0  0  0
   -3.3167    5.4883    0.2629 H   0  0  0  0  0  0  0  0  0  0  0  0
   -3.4927    7.9476    0.3421 H   0  0  0  0  0  0  0  0  0  0  0  0
    0.7230    8.2753    0.3391 H   0  0  0  0  0  0  0  0  0  0  0  0
    0.9351    5.8287    0.2607 H   0  0  0  0  0  0  0  0  0  0  0  0
    5.9455    1.0998    0.0660 H   0  0  0  0  0  0  0  0  0  0  0  0
    8.1810    0.1276    0.0277 H   0  0  0  0  0  0  0  0  0  0  0  0
  1  2  1  0  0  0  0
  2  3  1  0  0  0  0
  2  4  1  0  0  0  0
  4  5  2  0  0  0  0
  5  6  1  0  0  0  0
  6  7  2  0  0  0  0
  7  8  1  0  0  0  0
  8  9  2  0  0  0  0
  9 10  1  0  0  0  0
 10 11  2  0  0  0  0
 11 12  1  0  0  0  0
 12 13  1  0  0  0  0
 13 14  2  0  0  0  0
 14 15  1  0  0  0  0
 15 16  2  0  0  0  0
 16 17  1  0  0  0  0
 17 18  2  0  0  0  0
 18 19  1  0  0  0  0
 19 20  1  0  0  0  0
 19 21  1  0  0  0  0
 18 22  1  0  0  0  0
 22 23  2  0  0  0  0
 12 24  2  0  0  0  0
 24 25  1  0  0  0  0
 25 26  1  0  0  0  0
 26 27  2  0  0  0  0
 27 28  1  0  0  0  0
 28 29  2  0  0  0  0
 29 30  1  0  0  0  0
 30 31  2  0  0  0  0
 31 32  1  0  0  0  0
 32 33  1  0  0  0  0
 32 34  1  0  0  0  0
 32 35  1  0  0  0  0
 31 36  1  0  0  0  0
 36 37  2  0  0  0  0
 25 38  2  0  0  0  0
  7 39  1  0  0  0  0
 39 40  2  0  0  0  0
 40  4  1  0  0  0  0
 38 10  1  0  0  0  0
 23 15  1  0  0  0  0
 37 28  1  0  0  0  0
  1 41  1  0  0  0  0
  1 42  1  0  0  0  0
  1 43  1  0  0  0  0
  3 44  1  0  0  0  0
  3 45  1  0  0  0  0
  3 46  1  0  0  0  0
  5 47  1  0  0  0  0
  6 48  1  0  0  0  0
  8 49  1  0  0  0  0
  9 50  1  0  0  0  0
 11 51  1  0  0  0  0
 13 52  1  0  0  0  0
 14 53  1  0  0  0  0
 16 54  1  0  0  0  0
 17 55  1  0  0  0  0
 20 56  1  0  0  0  0
 20 57  1  0  0  0  0
 20 58  1  0  0  0  0
 21 59  1  0  0  0  0
 21 60  1  0  0  0  0
 21 61  1  0  0  0  0
 22 62  1  0  0  0  0
 23 63  1  0  0  0  0
 26 64  1  0  0  0  0
 27 65  1  0  0  0  0
 29 66  1  0  0  0  0
 30 67  1  0  0  0  0
 36 68  1  0  0  0  0
 37 69  1  0  0  0  0
 39 70  1  0  0  0  0
 40 71  1  0  0  0  0
M  END
