
  xtb     03012221223D
 energy: -8.299825513552 gnorm: 0.000107860753 xtb: 6.4.1 (afa7bdf)
 41 43  0     0  0            999 V2000
   -3.5826    1.7602    1.7541 C   0  0  0  0  0  0  0  0  0  0  0  0
   -2.9959    0.7415    0.9001 N   0  0  0  0  0  0  0  0  0  0  0  0
   -1.6056    0.7970    0.7401 C   0  0  0  0  0  0  0  0  0  0  0  0
   -0.9647    1.6647    1.3152 O   0  0  0  0  0  0  0  0  0  0  0  0
   -0.9672   -0.1969   -0.0887 C   0  0  0  0  0  0  0  0  0  0  0  0
    0.3751   -0.1754   -0.2842 N   0  0  0  0  0  0  0  0  0  0  0  0
    1.0486    0.8469   -0.0851 N   0  0  0  0  0  0  0  0  0  0  0  0
    2.4159    0.7917   -0.1666 C   0  0  0  0  0  0  0  0  0  0  0  0
    3.0320   -0.4521   -0.2518 C   0  0  0  0  0  0  0  0  0  0  0  0
    4.3933   -0.5606   -0.2756 C   0  0  0  0  0  0  0  0  0  0  0  0
    5.0893   -2.2064   -0.3860 S   0  0  0  0  0  6  0  0  0  0  0  0
    3.8822   -3.0807   -0.4960 O   0  0  0  0  0  0  0  0  0  0  0  0
    6.0048   -2.3390    0.7834 O   0  0  0  0  0  0  0  0  0  0  0  0
    5.8657   -2.2246   -1.7687 O   0  0  0  0  0  0  0  0  0  0  0  0
    5.1889    0.5607   -0.2112 C   0  0  0  0  0  0  0  0  0  0  0  0
    4.6033    1.8042   -0.1354 C   0  0  0  0  0  0  0  0  0  0  0  0
    3.2237    1.9437   -0.1240 C   0  0  0  0  0  0  0  0  0  0  0  0
    2.6521    3.3042   -0.0785 C   0  0  0  0  0  0  0  0  0  0  0  0
    3.3508    4.2355    0.2648 O   0  0  0  0  0  0  0  0  0  0  0  0
    1.3677    3.4836   -0.4496 O   0  0  0  0  0  0  0  0  0  0  0  0
   -1.7234   -1.2054   -0.6830 C   0  0  0  0  0  0  0  0  0  0  0  0
   -1.1381   -2.1600   -1.4441 O   0  0  0  0  0  0  0  0  0  0  0  0
   -3.1535   -1.2328   -0.4933 C   0  0  0  0  0  0  0  0  0  0  0  0
   -3.9190   -2.2284   -1.0947 C   0  0  0  0  0  0  0  0  0  0  0  0
   -5.2778   -2.2620   -0.9231 C   0  0  0  0  0  0  0  0  0  0  0  0
   -5.9037   -1.2995   -0.1443 C   0  0  0  0  0  0  0  0  0  0  0  0
   -5.1685   -0.3111    0.4565 C   0  0  0  0  0  0  0  0  0  0  0  0
   -3.7823   -0.2535    0.2969 C   0  0  0  0  0  0  0  0  0  0  0  0
   -2.7909    2.4118    2.1219 H   0  0  0  0  0  0  0  0  0  0  0  0
   -4.2943    2.3589    1.1907 H   0  0  0  0  0  0  0  0  0  0  0  0
   -4.0767    1.2974    2.6051 H   0  0  0  0  0  0  0  0  0  0  0  0
    2.4294   -1.3453   -0.2876 H   0  0  0  0  0  0  0  0  0  0  0  0
    5.8734   -3.1245   -2.1334 H   0  0  0  0  0  0  0  0  0  0  0  0
    6.2630    0.4514   -0.2177 H   0  0  0  0  0  0  0  0  0  0  0  0
    5.2074    2.6960   -0.0819 H   0  0  0  0  0  0  0  0  0  0  0  0
    1.1561    4.4286   -0.3347 H   0  0  0  0  0  0  0  0  0  0  0  0
   -0.1658   -2.0172   -1.4593 H   0  0  0  0  0  0  0  0  0  0  0  0
   -3.4163   -2.9664   -1.6952 H   0  0  0  0  0  0  0  0  0  0  0  0
   -5.8618   -3.0364   -1.3932 H   0  0  0  0  0  0  0  0  0  0  0  0
   -6.9725   -1.3307   -0.0121 H   0  0  0  0  0  0  0  0  0  0  0  0
   -5.6623    0.4306    1.0588 H   0  0  0  0  0  0  0  0  0  0  0  0
  1  2  1  0  0  0  0
  2  3  1  0  0  0  0
  3  4  2  0  0  0  0
  3  5  1  0  0  0  0
  5  6  1  0  0  0  0
  6  7  2  0  0  0  0
  7  8  1  0  0  0  0
  8  9  2  0  0  0  0
  9 10  1  0  0  0  0
 10 11  1  0  0  0  0
 11 12  2  0  0  0  0
 11 13  2  0  0  0  0
 11 14  1  0  0  0  0
 10 15  2  0  0  0  0
 15 16  1  0  0  0  0
 16 17  2  0  0  0  0
 17 18  1  0  0  0  0
 18 19  2  0  0  0  0
 18 20  1  0  0  0  0
  5 21  2  0  0  0  0
 21 22  1  0  0  0  0
 21 23  1  0  0  0  0
 23 24  2  0  0  0  0
 24 25  1  0  0  0  0
 25 26  2  0  0  0  0
 26 27  1  0  0  0  0
 27 28  2  0  0  0  0
 28  2  1  0  0  0  0
 17  8  1  0  0  0  0
 28 23  1  0  0  0  0
  1 29  1  0  0  0  0
  1 30  1  0  0  0  0
  1 31  1  0  0  0  0
  9 32  1  0  0  0  0
 14 33  1  0  0  0  0
 15 34  1  0  0  0  0
 16 35  1  0  0  0  0
 20 36  1  0  0  0  0
 22 37  1  0  0  0  0
 24 38  1  0  0  0  0
 25 39  1  0  0  0  0
 26 40  1  0  0  0  0
 27 41  1  0  0  0  0
M  END
