
  xtb     03012221263D
 energy: -5.837271920301 gnorm: 0.000404682642 xtb: 6.4.1 (afa7bdf)
 27 29  0     0  0            999 V2000
   -4.2237    1.5382   -0.1927 O   0  0  0  0  0  0  0  0  0  0  0  0
   -3.0110    1.4372   -0.2134 C   0  0  0  0  0  0  0  0  0  0  0  0
   -2.2182    2.5336   -0.2686 O   0  0  0  0  0  0  0  0  0  0  0  0
   -2.3991    0.0915   -0.1766 C   0  0  0  0  0  0  0  0  0  0  0  0
   -3.2399   -1.0027   -0.1091 C   0  0  0  0  0  0  0  0  0  0  0  0
   -2.7423   -2.2906   -0.0702 C   0  0  0  0  0  0  0  0  0  0  0  0
   -1.3851   -2.5034   -0.0986 C   0  0  0  0  0  0  0  0  0  0  0  0
   -0.5053   -1.4344   -0.1666 C   0  0  0  0  0  0  0  0  0  0  0  0
    0.9366   -1.6755   -0.1959 C   0  0  0  0  0  0  0  0  0  0  0  0
    1.3864   -2.8089   -0.1601 O   0  0  0  0  0  0  0  0  0  0  0  0
    1.8221   -0.5159   -0.2698 C   0  0  0  0  0  0  0  0  0  0  0  0
    3.2004   -0.6780   -0.3011 C   0  0  0  0  0  0  0  0  0  0  0  0
    4.0279    0.4148   -0.3710 C   0  0  0  0  0  0  0  0  0  0  0  0
    3.4929    1.6934   -0.4110 C   0  0  0  0  0  0  0  0  0  0  0  0
    2.1340    1.8747   -0.3808 C   0  0  0  0  0  0  0  0  0  0  0  0
    1.2760    0.7767   -0.3096 C   0  0  0  0  0  0  0  0  0  0  0  0
   -0.1038    0.9302   -0.2765 N   0  0  0  0  0  0  0  0  0  0  0  0
   -1.0031   -0.1174   -0.2072 C   0  0  0  0  0  0  0  0  0  0  0  0
   -2.8169    3.3045   -0.2834 H   0  0  0  0  0  0  0  0  0  0  0  0
   -4.3023   -0.8250   -0.0872 H   0  0  0  0  0  0  0  0  0  0  0  0
   -3.4185   -3.1276   -0.0175 H   0  0  0  0  0  0  0  0  0  0  0  0
   -0.9779   -3.5000   -0.0687 H   0  0  0  0  0  0  0  0  0  0  0  0
    3.5994   -1.6771   -0.2693 H   0  0  0  0  0  0  0  0  0  0  0  0
    5.0978    0.2788   -0.3948 H   0  0  0  0  0  0  0  0  0  0  0  0
    4.1479    2.5463   -0.4660 H   0  0  0  0  0  0  0  0  0  0  0  0
    1.7132    2.8644   -0.4115 H   0  0  0  0  0  0  0  0  0  0  0  0
   -0.4874    1.8723   -0.3018 H   0  0  0  0  0  0  0  0  0  0  0  0
  1  2  2  0  0  0  0
  2  3  1  0  0  0  0
  2  4  1  0  0  0  0
  4  5  2  0  0  0  0
  5  6  1  0  0  0  0
  6  7  2  0  0  0  0
  7  8  1  0  0  0  0
  8  9  1  0  0  0  0
  9 10  2  0  0  0  0
  9 11  1  0  0  0  0
 11 12  2  0  0  0  0
 12 13  1  0  0  0  0
 13 14  2  0  0  0  0
 14 15  1  0  0  0  0
 15 16  2  0  0  0  0
 16 17  1  0  0  0  0
 17 18  1  0  0  0  0
 18  4  1  0  0  0  0
 18  8  2  0  0  0  0
 16 11  1  0  0  0  0
  3 19  1  0  0  0  0
  5 20  1  0  0  0  0
  6 21  1  0  0  0  0
  7 22  1  0  0  0  0
 12 23  1  0  0  0  0
 13 24  1  0  0  0  0
 14 25  1  0  0  0  0
 15 26  1  0  0  0  0
 17 27  1  0  0  0  0
M  END
