
  xtb     03012221303D
 energy: -18.411313133063 gnorm: 0.000312000947 xtb: 6.4.1 (afa7bdf)
 84 94  0     0  0            999 V2000
   -0.3111    1.5138   -1.8644 C   0  0  0  0  0  0  0  0  0  0  0  0
    0.5434    0.3764   -1.4362 C   0  0  0  0  0  0  0  0  0  0  0  0
    1.8196    0.6024   -0.9628 C   0  0  0  0  0  0  0  0  0  0  0  0
    2.6490   -0.4448   -0.5696 C   0  0  0  0  0  0  0  0  0  0  0  0
    4.0020   -0.1766   -0.0689 C   0  0  0  0  0  0  0  0  0  0  0  0
    4.3876    1.0879   -0.0090 N   0  0  0  0  0  0  0  0  0  0  0  0
    5.6131    1.2716    0.4524 C   0  0  0  0  0  0  0  0  0  0  0  0
    6.1015    2.6551    0.5408 C   0  0  0  0  0  0  0  0  0  0  0  0
    7.3735    2.9290    1.0345 C   0  0  0  0  0  0  0  0  0  0  0  0
    7.8308    4.2254    1.1162 C   0  0  0  0  0  0  0  0  0  0  0  0
    7.0254    5.2693    0.7058 C   0  0  0  0  0  0  0  0  0  0  0  0
    5.7608    5.0139    0.2134 C   0  0  0  0  0  0  0  0  0  0  0  0
    5.3020    3.7180    0.1314 C   0  0  0  0  0  0  0  0  0  0  0  0
    6.4356    0.3104    0.8389 N   0  0  0  0  0  0  0  0  0  0  0  0
    5.9447   -0.9137    0.7350 C   0  0  0  0  0  0  0  0  0  0  0  0
    6.8123   -2.0261    1.1479 C   0  0  0  0  0  0  0  0  0  0  0  0
    8.0913   -1.7839    1.6399 C   0  0  0  0  0  0  0  0  0  0  0  0
    8.9044   -2.8266    2.0252 C   0  0  0  0  0  0  0  0  0  0  0  0
    8.4534   -4.1278    1.9251 C   0  0  0  0  0  0  0  0  0  0  0  0
    7.1867   -4.3845    1.4387 C   0  0  0  0  0  0  0  0  0  0  0  0
    6.3723   -3.3429    1.0533 C   0  0  0  0  0  0  0  0  0  0  0  0
    4.7374   -1.2169    0.2885 N   0  0  0  0  0  0  0  0  0  0  0  0
    2.1682   -1.7477   -0.6613 C   0  0  0  0  0  0  0  0  0  0  0  0
    0.8983   -1.9906   -1.1206 C   0  0  0  0  0  0  0  0  0  0  0  0
    0.0674   -0.9416   -1.5023 C   0  0  0  0  0  0  0  0  0  0  0  0
   -1.2696   -1.2163   -1.9569 N   0  0  0  0  0  0  0  0  0  0  0  0
   -1.6195   -1.8997   -3.1390 C   0  0  0  0  0  0  0  0  0  0  0  0
   -0.8230   -2.4748   -4.1279 C   0  0  0  0  0  0  0  0  0  0  0  0
   -1.4337   -3.0751   -5.2009 C   0  0  0  0  0  0  0  0  0  0  0  0
   -2.8275   -3.1101   -5.3074 C   0  0  0  0  0  0  0  0  0  0  0  0
   -3.6275   -2.5437   -4.3429 C   0  0  0  0  0  0  0  0  0  0  0  0
   -3.0196   -1.9306   -3.2473 C   0  0  0  0  0  0  0  0  0  0  0  0
   -3.5559   -1.2495   -2.0911 C   0  0  0  0  0  0  0  0  0  0  0  0
   -4.8654   -0.9811   -1.6893 C   0  0  0  0  0  0  0  0  0  0  0  0
   -5.0512   -0.2977   -0.5084 C   0  0  0  0  0  0  0  0  0  0  0  0
   -3.9497    0.1154    0.2807 C   0  0  0  0  0  0  0  0  0  0  0  0
   -2.6585   -0.1452   -0.1120 C   0  0  0  0  0  0  0  0  0  0  0  0
   -2.4618   -0.8279   -1.3120 C   0  0  0  0  0  0  0  0  0  0  0  0
   -4.3773    0.8504    1.5506 C   0  0  0  0  0  0  0  0  0  0  0  0
   -5.2452    2.0176    1.0831 C   0  0  0  0  0  0  0  0  0  0  0  0
   -5.0455    3.3579    1.3527 C   0  0  0  0  0  0  0  0  0  0  0  0
   -5.9288    4.2903    0.8455 C   0  0  0  0  0  0  0  0  0  0  0  0
   -7.0044    3.8900    0.0740 C   0  0  0  0  0  0  0  0  0  0  0  0
   -7.2107    2.5524   -0.2005 C   0  0  0  0  0  0  0  0  0  0  0  0
   -6.3313    1.6132    0.3036 C   0  0  0  0  0  0  0  0  0  0  0  0
   -6.3930    0.0992    0.1057 C   0  0  0  0  0  0  0  0  0  0  0  0
   -6.4059   -0.5060    1.5083 C   0  0  0  0  0  0  0  0  0  0  0  0
   -7.3492   -1.3708    2.0298 C   0  0  0  0  0  0  0  0  0  0  0  0
   -7.2062   -1.8285    3.3248 C   0  0  0  0  0  0  0  0  0  0  0  0
   -6.1303   -1.4278    4.0957 C   0  0  0  0  0  0  0  0  0  0  0  0
   -5.1835   -0.5640    3.5816 C   0  0  0  0  0  0  0  0  0  0  0  0
   -5.3194   -0.1010    2.2869 C   0  0  0  0  0  0  0  0  0  0  0  0
    0.2672    2.2464   -2.4287 H   0  0  0  0  0  0  0  0  0  0  0  0
   -0.7476    2.0192   -1.0023 H   0  0  0  0  0  0  0  0  0  0  0  0
   -1.1258    1.1719   -2.5034 H   0  0  0  0  0  0  0  0  0  0  0  0
    2.1924    1.6078   -0.8965 H   0  0  0  0  0  0  0  0  0  0  0  0
    7.9922    2.1077    1.3509 H   0  0  0  0  0  0  0  0  0  0  0  0
    8.8175    4.4249    1.5004 H   0  0  0  0  0  0  0  0  0  0  0  0
    7.3840    6.2838    0.7697 H   0  0  0  0  0  0  0  0  0  0  0  0
    5.1328    5.8286   -0.1071 H   0  0  0  0  0  0  0  0  0  0  0  0
    4.3188    3.5071   -0.2508 H   0  0  0  0  0  0  0  0  0  0  0  0
    8.4322   -0.7662    1.7129 H   0  0  0  0  0  0  0  0  0  0  0  0
    9.8927   -2.6266    2.4047 H   0  0  0  0  0  0  0  0  0  0  0  0
    9.0904   -4.9435    2.2265 H   0  0  0  0  0  0  0  0  0  0  0  0
    6.8352   -5.3999    1.3604 H   0  0  0  0  0  0  0  0  0  0  0  0
    5.3839   -3.5308    0.6726 H   0  0  0  0  0  0  0  0  0  0  0  0
    2.8085   -2.5577   -0.3605 H   0  0  0  0  0  0  0  0  0  0  0  0
    0.5209   -2.9963   -1.1818 H   0  0  0  0  0  0  0  0  0  0  0  0
    0.2489   -2.4381   -4.0365 H   0  0  0  0  0  0  0  0  0  0  0  0
   -0.8315   -3.5251   -5.9725 H   0  0  0  0  0  0  0  0  0  0  0  0
   -3.2811   -3.5877   -6.1601 H   0  0  0  0  0  0  0  0  0  0  0  0
   -4.7001   -2.5645   -4.4194 H   0  0  0  0  0  0  0  0  0  0  0  0
   -5.7009   -1.2979   -2.2848 H   0  0  0  0  0  0  0  0  0  0  0  0
   -1.8209    0.1617    0.4872 H   0  0  0  0  0  0  0  0  0  0  0  0
   -3.5272    1.1700    2.1656 H   0  0  0  0  0  0  0  0  0  0  0  0
   -4.2053    3.6607    1.9533 H   0  0  0  0  0  0  0  0  0  0  0  0
   -5.7782    5.3371    1.0526 H   0  0  0  0  0  0  0  0  0  0  0  0
   -7.6870    4.6272   -0.3167 H   0  0  0  0  0  0  0  0  0  0  0  0
   -8.0447    2.2331   -0.8008 H   0  0  0  0  0  0  0  0  0  0  0  0
   -7.2503   -0.2164   -0.5028 H   0  0  0  0  0  0  0  0  0  0  0  0
   -8.1829   -1.6787    1.4230 H   0  0  0  0  0  0  0  0  0  0  0  0
   -7.9386   -2.5036    3.7369 H   0  0  0  0  0  0  0  0  0  0  0  0
   -6.0291   -1.7924    5.1047 H   0  0  0  0  0  0  0  0  0  0  0  0
   -4.3424   -0.2482    4.1743 H   0  0  0  0  0  0  0  0  0  0  0  0
  1  2  1  0  0  0  0
  2  3  2  0  0  0  0
  3  4  1  0  0  0  0
  4  5  1  0  0  0  0
  5  6  2  0  0  0  0
  6  7  1  0  0  0  0
  7  8  1  0  0  0  0
  8  9  2  0  0  0  0
  9 10  1  0  0  0  0
 10 11  2  0  0  0  0
 11 12  1  0  0  0  0
 12 13  2  0  0  0  0
  7 14  2  0  0  0  0
 14 15  1  0  0  0  0
 15 16  1  0  0  0  0
 16 17  2  0  0  0  0
 17 18  1  0  0  0  0
 18 19  2  0  0  0  0
 19 20  1  0  0  0  0
 20 21  2  0  0  0  0
 15 22  2  0  0  0  0
  4 23  2  0  0  0  0
 23 24  1  0  0  0  0
 24 25  2  0  0  0  0
 25 26  1  0  0  0  0
 26 27  1  0  0  0  0
 27 28  2  0  0  0  0
 28 29  1  0  0  0  0
 29 30  2  0  0  0  0
 30 31  1  0  0  0  0
 31 32  2  0  0  0  0
 32 33  1  0  0  0  0
 33 34  2  0  0  0  0
 34 35  1  0  0  0  0
 35 36  2  0  0  0  0
 36 37  1  0  0  0  0
 37 38  2  0  0  0  0
 36 39  1  0  0  0  0
 39 40  1  0  0  0  0
 40 41  2  0  0  0  0
 41 42  1  0  0  0  0
 42 43  2  0  0  0  0
 43 44  1  0  0  0  0
 44 45  2  0  0  0  0
 45 46  1  0  0  0  0
 46 47  1  0  0  0  0
 47 48  2  0  0  0  0
 48 49  1  0  0  0  0
 49 50  2  0  0  0  0
 50 51  1  0  0  0  0
 51 52  2  0  0  0  0
 25  2  1  0  0  0  0
 38 26  1  0  0  0  0
 52 39  1  0  0  0  0
 22  5  1  0  0  0  0
 32 27  1  0  0  0  0
 38 33  1  0  0  0  0
 45 40  1  0  0  0  0
 52 47  1  0  0  0  0
 13  8  1  0  0  0  0
 21 16  1  0  0  0  0
 46 35  1  0  0  0  0
  1 53  1  0  0  0  0
  1 54  1  0  0  0  0
  1 55  1  0  0  0  0
  3 56  1  0  0  0  0
  9 57  1  0  0  0  0
 10 58  1  0  0  0  0
 11 59  1  0  0  0  0
 12 60  1  0  0  0  0
 13 61  1  0  0  0  0
 17 62  1  0  0  0  0
 18 63  1  0  0  0  0
 19 64  1  0  0  0  0
 20 65  1  0  0  0  0
 21 66  1  0  0  0  0
 23 67  1  0  0  0  0
 24 68  1  0  0  0  0
 28 69  1  0  0  0  0
 29 70  1  0  0  0  0
 30 71  1  0  0  0  0
 31 72  1  0  0  0  0
 34 73  1  0  0  0  0
 37 74  1  0  0  0  0
 39 75  1  0  0  0  0
 41 76  1  0  0  0  0
 42 77  1  0  0  0  0
 43 78  1  0  0  0  0
 44 79  1  0  0  0  0
 46 80  1  0  0  0  0
 48 81  1  0  0  0  0
 49 82  1  0  0  0  0
 50 83  1  0  0  0  0
 51 84  1  0  0  0  0
M  END
