
  xtb     03012221243D
 energy: -4.334864173468 gnorm: 0.000377841022 xtb: 6.4.1 (afa7bdf)
 20 22  0     0  0            999 V2000
   -4.3039    0.8672    1.1286 O   0  0  0  0  0  0  0  0  0  0  0  0
   -3.2069    0.4854    0.7515 C   0  0  0  0  0  0  0  0  0  0  0  0
   -3.1313   -0.7749    0.0392 C   0  0  0  0  0  0  0  0  0  0  0  0
   -1.9676   -1.2580   -0.4042 C   0  0  0  0  0  0  0  0  0  0  0  0
   -0.7564   -0.5355   -0.1843 C   0  0  0  0  0  0  0  0  0  0  0  0
    0.4672   -1.0050   -0.6291 C   0  0  0  0  0  0  0  0  0  0  0  0
    1.6159   -0.2516   -0.3826 C   0  0  0  0  0  0  0  0  0  0  0  0
    2.9789   -0.4482   -0.6967 C   0  0  0  0  0  0  0  0  0  0  0  0
    3.6495    0.6301   -0.1976 C   0  0  0  0  0  0  0  0  0  0  0  0
    2.8041    1.5114    0.4195 O   0  0  0  0  0  0  0  0  0  0  0  0
    1.5385    0.9809    0.3145 C   0  0  0  0  0  0  0  0  0  0  0  0
    0.3017    1.4465    0.7592 C   0  0  0  0  0  0  0  0  0  0  0  0
   -0.8408    0.7063    0.5191 C   0  0  0  0  0  0  0  0  0  0  0  0
   -2.0548    1.2016    0.9769 O   0  0  0  0  0  0  0  0  0  0  0  0
   -4.0522   -1.3077   -0.1188 H   0  0  0  0  0  0  0  0  0  0  0  0
   -1.9282   -2.1952   -0.9314 H   0  0  0  0  0  0  0  0  0  0  0  0
    0.5372   -1.9372   -1.1582 H   0  0  0  0  0  0  0  0  0  0  0  0
    3.3973   -1.2865   -1.2257 H   0  0  0  0  0  0  0  0  0  0  0  0
    4.7186    0.7925   -0.2679 H   0  0  0  0  0  0  0  0  0  0  0  0
    0.2327    2.3782    1.2878 H   0  0  0  0  0  0  0  0  0  0  0  0
  1  2  2  0  0  0  0
  2  3  1  0  0  0  0
  3  4  2  0  0  0  0
  4  5  1  0  0  0  0
  5  6  2  0  0  0  0
  6  7  1  0  0  0  0
  7  8  1  0  0  0  0
  8  9  2  0  0  0  0
  9 10  1  0  0  0  0
 10 11  1  0  0  0  0
 11 12  1  0  0  0  0
 12 13  2  0  0  0  0
 13 14  1  0  0  0  0
 14  2  1  0  0  0  0
 13  5  1  0  0  0  0
 11  7  2  0  0  0  0
  3 15  1  0  0  0  0
  4 16  1  0  0  0  0
  6 17  1  0  0  0  0
  8 18  1  0  0  0  0
  9 19  1  0  0  0  0
 12 20  1  0  0  0  0
M  END
