
  xtb     03012221313D
 energy: -15.171688368898 gnorm: 0.000292998878 xtb: 6.4.1 (afa7bdf)
 75 81  0     0  0            999 V2000
    4.2760    0.3179   -1.7055 C   0  0  0  0  0  0  0  0  0  0  0  0
    5.3471    0.0809   -0.7395 N   0  0  0  0  0  0  0  0  0  0  0  0
    5.3931    0.4673    0.5632 C   0  0  0  0  0  0  0  0  0  0  0  0
    4.3604    0.9877    1.3442 C   0  0  0  0  0  0  0  0  0  0  0  0
    3.0054    0.8882    1.0553 C   0  0  0  0  0  0  0  0  0  0  0  0
    2.4410   -0.2861    0.5925 C   0  0  0  0  0  0  0  0  0  0  0  0
    1.0736   -0.4991    0.4224 C   0  0  0  0  0  0  0  0  0  0  0  0
    0.1254    0.4969    0.4320 C   0  0  0  0  0  0  0  0  0  0  0  0
   -1.2702    0.3253    0.2774 C   0  0  0  0  0  0  0  0  0  0  0  0
   -2.0937    1.4476   -0.0088 C   0  0  0  0  0  0  0  0  0  0  0  0
   -1.7561    2.8223   -0.0504 C   0  0  0  0  0  0  0  0  0  0  0  0
   -2.8931    3.5302   -0.3483 C   0  0  0  0  0  0  0  0  0  0  0  0
   -3.9676    2.6214   -0.5192 C   0  0  0  0  0  0  0  0  0  0  0  0
   -5.3416    2.9753   -0.8556 C   0  0  0  0  0  0  0  0  0  0  0  0
   -5.8185    4.2728   -0.6552 C   0  0  0  0  0  0  0  0  0  0  0  0
   -7.1147    4.6063   -0.9772 C   0  0  0  0  0  0  0  0  0  0  0  0
   -7.9650    3.6572   -1.5084 C   0  0  0  0  0  0  0  0  0  0  0  0
   -7.5124    2.3706   -1.7186 C   0  0  0  0  0  0  0  0  0  0  0  0
   -6.2175    2.0369   -1.3986 C   0  0  0  0  0  0  0  0  0  0  0  0
   -3.4376    1.3846   -0.3049 N   0  0  0  0  0  4  0  0  0  0  0  0
   -4.1521    0.0282   -0.4230 B   0  0  0  0  0  4  0  0  0  0  0  0
   -5.3262    0.0837    0.3251 F   0  0  0  0  0  0  0  0  0  0  0  0
   -4.3931   -0.2182   -1.7738 F   0  0  0  0  0  0  0  0  0  0  0  0
   -3.2803   -1.1136    0.1271 N   0  0  0  0  0  0  0  0  0  0  0  0
   -1.9465   -0.9197    0.4220 C   0  0  0  0  0  0  0  0  0  0  0  0
   -1.5013   -2.1491    0.9701 C   0  0  0  0  0  0  0  0  0  0  0  0
   -2.5541   -3.0284    0.9644 C   0  0  0  0  0  0  0  0  0  0  0  0
   -3.6893   -2.3801    0.4194 C   0  0  0  0  0  0  0  0  0  0  0  0
   -5.0081   -2.9758    0.2401 C   0  0  0  0  0  0  0  0  0  0  0  0
   -5.9404   -2.4183   -0.6332 C   0  0  0  0  0  0  0  0  0  0  0  0
   -7.1806   -2.9847   -0.8107 C   0  0  0  0  0  0  0  0  0  0  0  0
   -7.5204   -4.1307   -0.1211 C   0  0  0  0  0  0  0  0  0  0  0  0
   -6.6125   -4.7049    0.7461 C   0  0  0  0  0  0  0  0  0  0  0  0
   -5.3712   -4.1377    0.9254 C   0  0  0  0  0  0  0  0  0  0  0  0
    6.8286    0.2625    1.0705 C   0  0  0  0  0  0  0  0  0  0  0  0
    7.4757    1.6071    1.4322 C   0  0  0  0  0  0  0  0  0  0  0  0
    6.8481   -0.7038    2.2637 C   0  0  0  0  0  0  0  0  0  0  0  0
    7.5245   -0.3575   -0.1353 C   0  0  0  0  0  0  0  0  0  0  0  0
    8.8199   -0.7976   -0.3104 C   0  0  0  0  0  0  0  0  0  0  0  0
    9.1870   -1.3227   -1.5373 C   0  0  0  0  0  0  0  0  0  0  0  0
    8.2694   -1.4056   -2.5739 C   0  0  0  0  0  0  0  0  0  0  0  0
    6.9729   -0.9661   -2.4050 C   0  0  0  0  0  0  0  0  0  0  0  0
    6.5994   -0.4374   -1.1761 C   0  0  0  0  0  0  0  0  0  0  0  0
    4.6933    0.6757   -2.6446 H   0  0  0  0  0  0  0  0  0  0  0  0
    3.7284   -0.6031   -1.8950 H   0  0  0  0  0  0  0  0  0  0  0  0
    3.5871    1.0747   -1.3372 H   0  0  0  0  0  0  0  0  0  0  0  0
    4.6409    1.4390    2.2814 H   0  0  0  0  0  0  0  0  0  0  0  0
    2.3372    1.5914    1.5302 H   0  0  0  0  0  0  0  0  0  0  0  0
    3.1110   -1.1065    0.3931 H   0  0  0  0  0  0  0  0  0  0  0  0
    0.7544   -1.4953    0.1747 H   0  0  0  0  0  0  0  0  0  0  0  0
    0.4798    1.5091    0.4911 H   0  0  0  0  0  0  0  0  0  0  0  0
   -0.7820    3.2428    0.1314 H   0  0  0  0  0  0  0  0  0  0  0  0
   -2.9543    4.5997   -0.4596 H   0  0  0  0  0  0  0  0  0  0  0  0
   -5.1646    5.0133   -0.2299 H   0  0  0  0  0  0  0  0  0  0  0  0
   -7.4681    5.6109   -0.8115 H   0  0  0  0  0  0  0  0  0  0  0  0
   -8.9800    3.9201   -1.7577 H   0  0  0  0  0  0  0  0  0  0  0  0
   -8.1731    1.6267   -2.1328 H   0  0  0  0  0  0  0  0  0  0  0  0
   -5.8575    1.0397   -1.5671 H   0  0  0  0  0  0  0  0  0  0  0  0
   -0.5367   -2.3453    1.4043 H   0  0  0  0  0  0  0  0  0  0  0  0
   -2.5235   -4.0446    1.3195 H   0  0  0  0  0  0  0  0  0  0  0  0
   -5.6691   -1.5288   -1.1692 H   0  0  0  0  0  0  0  0  0  0  0  0
   -7.8869   -2.5326   -1.4876 H   0  0  0  0  0  0  0  0  0  0  0  0
   -8.4922   -4.5756   -0.2584 H   0  0  0  0  0  0  0  0  0  0  0  0
   -6.8777   -5.5991    1.2861 H   0  0  0  0  0  0  0  0  0  0  0  0
   -4.6729   -4.5838    1.6111 H   0  0  0  0  0  0  0  0  0  0  0  0
    7.4425    2.2875    0.5819 H   0  0  0  0  0  0  0  0  0  0  0  0
    6.9580    2.0810    2.2651 H   0  0  0  0  0  0  0  0  0  0  0  0
    8.5188    1.4719    1.7158 H   0  0  0  0  0  0  0  0  0  0  0  0
    6.3041   -0.2893    3.1116 H   0  0  0  0  0  0  0  0  0  0  0  0
    7.8696   -0.9070    2.5831 H   0  0  0  0  0  0  0  0  0  0  0  0
    6.3831   -1.6517    1.9949 H   0  0  0  0  0  0  0  0  0  0  0  0
    9.5251   -0.7294    0.4994 H   0  0  0  0  0  0  0  0  0  0  0  0
   10.1956   -1.6712   -1.6875 H   0  0  0  0  0  0  0  0  0  0  0  0
    8.5723   -1.8192   -3.5219 H   0  0  0  0  0  0  0  0  0  0  0  0
    6.2538   -1.0348   -3.2017 H   0  0  0  0  0  0  0  0  0  0  0  0
  1  2  1  0  0  0  0
  2  3  1  0  0  0  0
  3  4  2  0  0  0  0
  4  5  1  0  0  0  0
  5  6  2  0  0  0  0
  6  7  1  0  0  0  0
  7  8  2  0  0  0  0
  8  9  1  0  0  0  0
  9 10  2  0  0  0  0
 10 11  1  0  0  0  0
 11 12  2  0  0  0  0
 12 13  1  0  0  0  0
 13 14  1  0  0  0  0
 14 15  2  0  0  0  0
 15 16  1  0  0  0  0
 16 17  2  0  0  0  0
 17 18  1  0  0  0  0
 18 19  2  0  0  0  0
 13 20  2  0  0  0  0
 20 21  1  0  0  0  0
 21 22  1  0  0  0  0
 21 23  1  0  0  0  0
 21 24  1  0  0  0  0
 24 25  1  0  0  0  0
 25 26  2  0  0  0  0
 26 27  1  0  0  0  0
 27 28  2  0  0  0  0
 28 29  1  0  0  0  0
 29 30  2  0  0  0  0
 30 31  1  0  0  0  0
 31 32  2  0  0  0  0
 32 33  1  0  0  0  0
 33 34  2  0  0  0  0
  3 35  1  0  0  0  0
 35 36  1  0  0  0  0
 35 37  1  0  0  0  0
 35 38  1  0  0  0  0
 38 39  2  0  0  0  0
 39 40  1  0  0  0  0
 40 41  2  0  0  0  0
 41 42  1  0  0  0  0
 42 43  2  0  0  0  0
 43  2  1  0  0  0  0
 25  9  1  0  0  0  0
 34 29  1  0  0  0  0
 43 38  1  0  0  0  0
 20 10  1  0  0  0  0
 28 24  1  0  0  0  0
 19 14  1  0  0  0  0
  1 44  1  0  0  0  0
  1 45  1  0  0  0  0
  1 46  1  0  0  0  0
  4 47  1  0  0  0  0
  5 48  1  0  0  0  0
  6 49  1  0  0  0  0
  7 50  1  0  0  0  0
  8 51  1  0  0  0  0
 11 52  1  0  0  0  0
 12 53  1  0  0  0  0
 15 54  1  0  0  0  0
 16 55  1  0  0  0  0
 17 56  1  0  0  0  0
 18 57  1  0  0  0  0
 19 58  1  0  0  0  0
 26 59  1  0  0  0  0
 27 60  1  0  0  0  0
 30 61  1  0  0  0  0
 31 62  1  0  0  0  0
 32 63  1  0  0  0  0
 33 64  1  0  0  0  0
 34 65  1  0  0  0  0
 36 66  1  0  0  0  0
 36 67  1  0  0  0  0
 36 68  1  0  0  0  0
 37 69  1  0  0  0  0
 37 70  1  0  0  0  0
 37 71  1  0  0  0  0
 39 72  1  0  0  0  0
 40 73  1  0  0  0  0
 41 74  1  0  0  0  0
 42 75  1  0  0  0  0
M  CHG  1  20   1
M  CHG  1  21  -1
M  END
