
  xtb     03012221203D
 energy: -7.660732564778 gnorm: 0.000314769136 xtb: 6.4.1 (afa7bdf)
 40 41  0     0  0            999 V2000
    8.0801    0.1505   -0.7994 C   0  0  0  0  0  0  0  0  0  0  0  0
    6.5953    0.0631   -0.7237 C   0  0  0  0  0  0  0  0  0  0  0  0
    5.9855   -0.6648    0.2885 C   0  0  0  0  0  0  0  0  0  0  0  0
    4.6129   -0.7361    0.3766 C   0  0  0  0  0  0  0  0  0  0  0  0
    3.8058   -0.0764   -0.5445 C   0  0  0  0  0  0  0  0  0  0  0  0
    2.3630   -0.1560   -0.4420 C   0  0  0  0  0  0  0  0  0  0  0  0
    1.7662   -0.8219    0.4609 N   0  0  0  0  0  0  0  0  0  0  0  0
    0.3777   -0.8754    0.5527 C   0  0  0  0  0  0  0  0  0  0  0  0
   -0.2419    0.4288    1.0574 C   0  0  0  0  0  0  0  0  0  0  0  0
   -1.6295    0.3724    1.1593 N   0  0  0  0  0  0  0  0  0  0  0  0
   -2.3880    0.3726    0.1398 C   0  0  0  0  0  0  0  0  0  0  0  0
   -3.8323    0.3027    0.2275 C   0  0  0  0  0  0  0  0  0  0  0  0
   -4.6264    0.3010   -0.9175 C   0  0  0  0  0  0  0  0  0  0  0  0
   -5.9986    0.2323   -0.8176 C   0  0  0  0  0  0  0  0  0  0  0  0
   -6.6212    0.1695    0.4217 C   0  0  0  0  0  0  0  0  0  0  0  0
   -8.1036    0.0689    0.5230 C   0  0  0  0  0  0  0  0  0  0  0  0
   -5.8300    0.1616    1.5623 C   0  0  0  0  0  0  0  0  0  0  0  0
   -4.4576    0.2301    1.4679 C   0  0  0  0  0  0  0  0  0  0  0  0
    4.4182    0.6603   -1.5564 C   0  0  0  0  0  0  0  0  0  0  0  0
    5.7915    0.7284   -1.6400 C   0  0  0  0  0  0  0  0  0  0  0  0
    8.4073    0.5094   -1.7761 H   0  0  0  0  0  0  0  0  0  0  0  0
    8.5376   -0.8261   -0.6350 H   0  0  0  0  0  0  0  0  0  0  0  0
    8.4667    0.8354   -0.0435 H   0  0  0  0  0  0  0  0  0  0  0  0
    6.6003   -1.1757    1.0097 H   0  0  0  0  0  0  0  0  0  0  0  0
    4.1430   -1.3028    1.1615 H   0  0  0  0  0  0  0  0  0  0  0  0
    1.7697    0.3761   -1.1648 H   0  0  0  0  0  0  0  0  0  0  0  0
    0.1074   -1.6970    1.2261 H   0  0  0  0  0  0  0  0  0  0  0  0
   -0.0354   -1.1412   -0.4270 H   0  0  0  0  0  0  0  0  0  0  0  0
    0.0347    1.2624    0.4018 H   0  0  0  0  0  0  0  0  0  0  0  0
    0.1672    0.6735    2.0444 H   0  0  0  0  0  0  0  0  0  0  0  0
   -1.9379    0.4274   -0.8358 H   0  0  0  0  0  0  0  0  0  0  0  0
   -4.1546    0.3521   -1.8837 H   0  0  0  0  0  0  0  0  0  0  0  0
   -6.6038    0.2252   -1.7081 H   0  0  0  0  0  0  0  0  0  0  0  0
   -8.5907    0.6048   -0.2926 H   0  0  0  0  0  0  0  0  0  0  0  0
   -8.4643    0.4949    1.4600 H   0  0  0  0  0  0  0  0  0  0  0  0
   -8.4246   -0.9726    0.4810 H   0  0  0  0  0  0  0  0  0  0  0  0
   -6.3021    0.0995    2.5279 H   0  0  0  0  0  0  0  0  0  0  0  0
   -3.8472    0.2266    2.3542 H   0  0  0  0  0  0  0  0  0  0  0  0
    3.8046    1.1781   -2.2735 H   0  0  0  0  0  0  0  0  0  0  0  0
    6.2548    1.3039   -2.4231 H   0  0  0  0  0  0  0  0  0  0  0  0
  1  2  1  0  0  0  0
  2  3  2  0  0  0  0
  3  4  1  0  0  0  0
  4  5  2  0  0  0  0
  5  6  1  0  0  0  0
  6  7  2  0  0  0  0
  7  8  1  0  0  0  0
  8  9  1  0  0  0  0
  9 10  1  0  0  0  0
 10 11  2  0  0  0  0
 11 12  1  0  0  0  0
 12 13  2  0  0  0  0
 13 14  1  0  0  0  0
 14 15  2  0  0  0  0
 15 16  1  0  0  0  0
 15 17  1  0  0  0  0
 17 18  2  0  0  0  0
  5 19  1  0  0  0  0
 19 20  2  0  0  0  0
 20  2  1  0  0  0  0
 18 12  1  0  0  0  0
  1 21  1  0  0  0  0
  1 22  1  0  0  0  0
  1 23  1  0  0  0  0
  3 24  1  0  0  0  0
  4 25  1  0  0  0  0
  6 26  1  0  0  0  0
  8 27  1  0  0  0  0
  8 28  1  0  0  0  0
  9 29  1  0  0  0  0
  9 30  1  0  0  0  0
 11 31  1  0  0  0  0
 13 32  1  0  0  0  0
 14 33  1  0  0  0  0
 16 34  1  0  0  0  0
 16 35  1  0  0  0  0
 16 36  1  0  0  0  0
 17 37  1  0  0  0  0
 18 38  1  0  0  0  0
 19 39  1  0  0  0  0
 20 40  1  0  0  0  0
M  END
