
  xtb     03012221273D
 energy: -8.525115492944 gnorm: 0.000528472042 xtb: 6.4.1 (afa7bdf)
 39 43  0     0  0            999 V2000
   -3.9619    0.3463    1.0244 C   0  0  0  0  0  0  0  0  0  0  0  0
   -2.6693   -0.3370    0.7550 C   0  0  0  0  0  0  0  0  0  0  0  0
   -2.5514   -1.6926    0.8892 C   0  0  0  0  0  0  0  0  0  0  0  0
   -1.3305   -2.3886    0.6416 C   0  0  0  0  0  0  0  0  0  0  0  0
   -1.2325   -3.7858    0.7882 C   0  0  0  0  0  0  0  0  0  0  0  0
   -0.0533   -4.4324    0.5456 C   0  0  0  0  0  0  0  0  0  0  0  0
    1.0772   -3.7180    0.1472 C   0  0  0  0  0  0  0  0  0  0  0  0
    1.0150   -2.3628   -0.0037 C   0  0  0  0  0  0  0  0  0  0  0  0
   -0.1818   -1.6696    0.2386 C   0  0  0  0  0  0  0  0  0  0  0  0
   -0.3041   -0.2551    0.0987 C   0  0  0  0  0  0  0  0  0  0  0  0
   -1.5161    0.3960    0.3515 C   0  0  0  0  0  0  0  0  0  0  0  0
   -1.2967    1.8044    0.1226 C   0  0  0  0  0  0  0  0  0  0  0  0
   -2.1185    2.9346    0.2107 C   0  0  0  0  0  0  0  0  0  0  0  0
   -1.5865    4.1670   -0.0788 C   0  0  0  0  0  0  0  0  0  0  0  0
   -0.2468    4.3062   -0.4575 C   0  0  0  0  0  0  0  0  0  0  0  0
    0.5743    3.2120   -0.5513 C   0  0  0  0  0  0  0  0  0  0  0  0
    0.0465    1.9553   -0.2608 C   0  0  0  0  0  0  0  0  0  0  0  0
    0.6533    0.6921   -0.2763 N   0  0  0  0  0  0  0  0  0  0  0  0
    2.0421    0.4523   -0.6048 C   0  0  0  0  0  0  0  0  0  0  0  0
    2.3147    0.1966   -1.8832 N   0  0  0  0  0  0  0  0  0  0  0  0
    3.5753   -0.0499   -2.1509 C   0  0  0  0  0  0  0  0  0  0  0  0
    4.5471   -0.0528   -1.1889 C   0  0  0  0  0  0  0  0  0  0  0  0
    4.1521    0.2187    0.0918 C   0  0  0  0  0  0  0  0  0  0  0  0
    2.9045    0.4715    0.4098 N   0  0  0  0  0  0  0  0  0  0  0  0
   -3.8567    1.0710    1.8324 H   0  0  0  0  0  0  0  0  0  0  0  0
   -4.3186    0.8671    0.1353 H   0  0  0  0  0  0  0  0  0  0  0  0
   -4.7334   -0.3655    1.3201 H   0  0  0  0  0  0  0  0  0  0  0  0
   -3.4092   -2.2641    1.1941 H   0  0  0  0  0  0  0  0  0  0  0  0
   -2.1021   -4.3400    1.0954 H   0  0  0  0  0  0  0  0  0  0  0  0
    0.0067   -5.5021    0.6622 H   0  0  0  0  0  0  0  0  0  0  0  0
    2.0009   -4.2395   -0.0411 H   0  0  0  0  0  0  0  0  0  0  0  0
    1.8851   -1.8126   -0.3100 H   0  0  0  0  0  0  0  0  0  0  0  0
   -3.1480    2.8355    0.5015 H   0  0  0  0  0  0  0  0  0  0  0  0
   -2.2100    5.0431   -0.0130 H   0  0  0  0  0  0  0  0  0  0  0  0
    0.1435    5.2858   -0.6781 H   0  0  0  0  0  0  0  0  0  0  0  0
    1.6061    3.2992   -0.8412 H   0  0  0  0  0  0  0  0  0  0  0  0
    3.8294   -0.2577   -3.1790 H   0  0  0  0  0  0  0  0  0  0  0  0
    5.5774   -0.2584   -1.4293 H   0  0  0  0  0  0  0  0  0  0  0  0
    4.8763    0.2301    0.8919 H   0  0  0  0  0  0  0  0  0  0  0  0
  1  2  1  0  0  0  0
  2  3  2  0  0  0  0
  3  4  1  0  0  0  0
  4  5  2  0  0  0  0
  5  6  1  0  0  0  0
  6  7  2  0  0  0  0
  7  8  1  0  0  0  0
  8  9  2  0  0  0  0
  9 10  1  0  0  0  0
 10 11  2  0  0  0  0
 11 12  1  0  0  0  0
 12 13  2  0  0  0  0
 13 14  1  0  0  0  0
 14 15  2  0  0  0  0
 15 16  1  0  0  0  0
 16 17  2  0  0  0  0
 17 18  1  0  0  0  0
 18 19  1  0  0  0  0
 19 20  2  0  0  0  0
 20 21  1  0  0  0  0
 21 22  2  0  0  0  0
 22 23  1  0  0  0  0
 23 24  2  0  0  0  0
 11  2  1  0  0  0  0
 17 12  1  0  0  0  0
 24 19  1  0  0  0  0
  9  4  1  0  0  0  0
 18 10  1  0  0  0  0
  1 25  1  0  0  0  0
  1 26  1  0  0  0  0
  1 27  1  0  0  0  0
  3 28  1  0  0  0  0
  5 29  1  0  0  0  0
  6 30  1  0  0  0  0
  7 31  1  0  0  0  0
  8 32  1  0  0  0  0
 13 33  1  0  0  0  0
 14 34  1  0  0  0  0
 15 35  1  0  0  0  0
 16 36  1  0  0  0  0
 21 37  1  0  0  0  0
 22 38  1  0  0  0  0
 23 39  1  0  0  0  0
M  END
