
  xtb     03012221233D
 energy: -6.365004022388 gnorm: 0.000225783529 xtb: 6.4.1 (afa7bdf)
 32 33  0     0  0            999 V2000
    5.1285    1.5480    1.5116 C   0  0  0  0  0  0  0  0  0  0  0  0
    4.0138    0.6515    1.1273 C   0  0  0  0  0  0  0  0  0  0  0  0
    3.2122    0.9612    0.0773 C   0  0  0  0  0  0  0  0  0  0  0  0
    2.1638    0.1018   -0.3043 C   0  0  0  0  0  0  0  0  0  0  0  0
    1.3685    0.4018   -1.3692 O   0  0  0  0  0  0  0  0  0  0  0  0
    1.9717   -1.0773    0.4255 C   0  0  0  0  0  0  0  0  0  0  0  0
    0.9416   -2.0608    0.0258 C   0  0  0  0  0  0  0  0  0  0  0  0
    1.2184   -3.2418   -0.1172 O   0  0  0  0  0  0  0  0  0  0  0  0
   -0.4414   -1.6475   -0.2101 C   0  0  0  0  0  0  0  0  0  0  0  0
   -0.9425   -0.4531    0.1224 C   0  0  0  0  0  0  0  0  0  0  0  0
   -2.3199   -0.0328   -0.0803 C   0  0  0  0  0  0  0  0  0  0  0  0
   -2.6614    1.3075    0.0963 C   0  0  0  0  0  0  0  0  0  0  0  0
   -3.9572    1.7327   -0.0873 C   0  0  0  0  0  0  0  0  0  0  0  0
   -4.9389    0.8433   -0.4451 C   0  0  0  0  0  0  0  0  0  0  0  0
   -4.6354   -0.5066   -0.6260 C   0  0  0  0  0  0  0  0  0  0  0  0
   -5.6387   -1.3886   -0.9821 O   0  0  0  0  0  0  0  0  0  0  0  0
   -3.3203   -0.9279   -0.4393 C   0  0  0  0  0  0  0  0  0  0  0  0
    2.8301   -1.3543    1.5574 C   0  0  0  0  0  0  0  0  0  0  0  0
    2.6175   -2.3512    2.2390 O   0  0  0  0  0  0  0  0  0  0  0  0
    3.8464   -0.4771    1.8758 O   0  0  0  0  0  0  0  0  0  0  0  0
    5.8595    1.6273    0.7075 H   0  0  0  0  0  0  0  0  0  0  0  0
    5.6337    1.1495    2.3910 H   0  0  0  0  0  0  0  0  0  0  0  0
    4.7636    2.5462    1.7517 H   0  0  0  0  0  0  0  0  0  0  0  0
    3.3844    1.8632   -0.4774 H   0  0  0  0  0  0  0  0  0  0  0  0
    1.6767    1.2255   -1.8042 H   0  0  0  0  0  0  0  0  0  0  0  0
   -1.0726   -2.3921   -0.6569 H   0  0  0  0  0  0  0  0  0  0  0  0
   -0.2755    0.2672    0.5602 H   0  0  0  0  0  0  0  0  0  0  0  0
   -1.8970    2.0111    0.3741 H   0  0  0  0  0  0  0  0  0  0  0  0
   -4.2033    2.7749    0.0516 H   0  0  0  0  0  0  0  0  0  0  0  0
   -5.9544    1.1631   -0.5904 H   0  0  0  0  0  0  0  0  0  0  0  0
   -5.2795   -2.2969   -1.0705 H   0  0  0  0  0  0  0  0  0  0  0  0
   -3.0925   -1.9679   -0.5638 H   0  0  0  0  0  0  0  0  0  0  0  0
  1  2  1  0  0  0  0
  2  3  2  0  0  0  0
  3  4  1  0  0  0  0
  4  5  1  0  0  0  0
  4  6  2  0  0  0  0
  6  7  1  0  0  0  0
  7  8  2  0  0  0  0
  7  9  1  0  0  0  0
  9 10  2  0  0  0  0
 10 11  1  0  0  0  0
 11 12  2  0  0  0  0
 12 13  1  0  0  0  0
 13 14  2  0  0  0  0
 14 15  1  0  0  0  0
 15 16  1  0  0  0  0
 15 17  2  0  0  0  0
  6 18  1  0  0  0  0
 18 19  2  0  0  0  0
 18 20  1  0  0  0  0
 20  2  1  0  0  0  0
 17 11  1  0  0  0  0
  1 21  1  0  0  0  0
  1 22  1  0  0  0  0
  1 23  1  0  0  0  0
  3 24  1  0  0  0  0
  5 25  1  0  0  0  0
  9 26  1  0  0  0  0
 10 27  1  0  0  0  0
 12 28  1  0  0  0  0
 13 29  1  0  0  0  0
 14 30  1  0  0  0  0
 16 31  1  0  0  0  0
 17 32  1  0  0  0  0
M  END
