
  xtb     03012221333D
 energy: -12.250015591429 gnorm: 0.000246913262 xtb: 6.4.1 (afa7bdf)
 56 62  0     0  0            999 V2000
   -0.0654    2.4300    2.0619 C   0  0  0  0  0  0  0  0  0  0  0  0
    1.1413    1.9583    1.5926 C   0  0  0  0  0  0  0  0  0  0  0  0
    1.1876    0.9048    0.6764 C   0  0  0  0  0  0  0  0  0  0  0  0
    2.4827    0.3711    0.1840 C   0  0  0  0  0  0  0  0  0  0  0  0
    2.8813   -0.9456    0.5185 C   0  0  0  0  0  0  0  0  0  0  0  0
    2.0839   -1.7828    1.3413 C   0  0  0  0  0  0  0  0  0  0  0  0
    2.4802   -3.0434    1.6576 C   0  0  0  0  0  0  0  0  0  0  0  0
    3.6994   -3.5494    1.1754 C   0  0  0  0  0  0  0  0  0  0  0  0
    4.4994   -2.7833    0.3900 C   0  0  0  0  0  0  0  0  0  0  0  0
    4.1216   -1.4590    0.0379 C   0  0  0  0  0  0  0  0  0  0  0  0
    4.9357   -0.6574   -0.7582 C   0  0  0  0  0  0  0  0  0  0  0  0
    4.5635    0.6401   -1.1011 C   0  0  0  0  0  0  0  0  0  0  0  0
    5.3900    1.4574   -1.9191 C   0  0  0  0  0  0  0  0  0  0  0  0
    5.0065    2.7149   -2.2586 C   0  0  0  0  0  0  0  0  0  0  0  0
    3.7796    3.2310   -1.8073 C   0  0  0  0  0  0  0  0  0  0  0  0
    2.9636    2.4813   -1.0206 C   0  0  0  0  0  0  0  0  0  0  0  0
    3.3238    1.1655   -0.6314 C   0  0  0  0  0  0  0  0  0  0  0  0
   -0.0133    0.3475    0.2471 C   0  0  0  0  0  0  0  0  0  0  0  0
   -1.2388    0.8101    0.7167 C   0  0  0  0  0  0  0  0  0  0  0  0
   -2.5049    0.1844    0.2546 C   0  0  0  0  0  0  0  0  0  0  0  0
   -2.9888    0.4333   -1.0514 C   0  0  0  0  0  0  0  0  0  0  0  0
   -2.3050    1.2936   -1.9482 C   0  0  0  0  0  0  0  0  0  0  0  0
   -2.7835    1.5290   -3.1981 C   0  0  0  0  0  0  0  0  0  0  0  0
   -3.9744    0.9212   -3.6321 C   0  0  0  0  0  0  0  0  0  0  0  0
   -4.6635    0.0910   -2.8075 C   0  0  0  0  0  0  0  0  0  0  0  0
   -4.1973   -0.1808   -1.4926 C   0  0  0  0  0  0  0  0  0  0  0  0
   -4.8924   -1.0279   -0.6327 C   0  0  0  0  0  0  0  0  0  0  0  0
   -4.4312   -1.2921    0.6549 C   0  0  0  0  0  0  0  0  0  0  0  0
   -5.1314   -2.1641    1.5322 C   0  0  0  0  0  0  0  0  0  0  0  0
   -4.6607   -2.4206    2.7799 C   0  0  0  0  0  0  0  0  0  0  0  0
   -3.4679   -1.8265    3.2272 C   0  0  0  0  0  0  0  0  0  0  0  0
   -2.7713   -0.9851    2.4190 C   0  0  0  0  0  0  0  0  0  0  0  0
   -3.2251   -0.6830    1.1095 C   0  0  0  0  0  0  0  0  0  0  0  0
   -1.2462    1.8635    1.6337 C   0  0  0  0  0  0  0  0  0  0  0  0
   -0.0856    3.2424    2.7694 H   0  0  0  0  0  0  0  0  0  0  0  0
    2.0656    2.3908    1.9350 H   0  0  0  0  0  0  0  0  0  0  0  0
    1.1518   -1.4024    1.7204 H   0  0  0  0  0  0  0  0  0  0  0  0
    1.8584   -3.6627    2.2830 H   0  0  0  0  0  0  0  0  0  0  0  0
    3.9985   -4.5518    1.4348 H   0  0  0  0  0  0  0  0  0  0  0  0
    5.4343   -3.1710    0.0236 H   0  0  0  0  0  0  0  0  0  0  0  0
    5.8704   -1.0488   -1.1168 H   0  0  0  0  0  0  0  0  0  0  0  0
    6.3277    1.0614   -2.2689 H   0  0  0  0  0  0  0  0  0  0  0  0
    5.6425    3.3236   -2.8804 H   0  0  0  0  0  0  0  0  0  0  0  0
    3.4871    4.2287   -2.0908 H   0  0  0  0  0  0  0  0  0  0  0  0
    2.0227    2.8815   -0.6863 H   0  0  0  0  0  0  0  0  0  0  0  0
    0.0056   -0.4635   -0.4586 H   0  0  0  0  0  0  0  0  0  0  0  0
   -1.3937    1.7633   -1.6219 H   0  0  0  0  0  0  0  0  0  0  0  0
   -2.2491    2.1860   -3.8645 H   0  0  0  0  0  0  0  0  0  0  0  0
   -4.3397    1.1188   -4.6266 H   0  0  0  0  0  0  0  0  0  0  0  0
   -5.5755   -0.3733   -3.1412 H   0  0  0  0  0  0  0  0  0  0  0  0
   -5.8022   -1.4898   -0.9708 H   0  0  0  0  0  0  0  0  0  0  0  0
   -6.0431   -2.6225    1.1897 H   0  0  0  0  0  0  0  0  0  0  0  0
   -5.2010   -3.0852    3.4341 H   0  0  0  0  0  0  0  0  0  0  0  0
   -3.1062   -2.0434    4.2189 H   0  0  0  0  0  0  0  0  0  0  0  0
   -1.8570   -0.5367    2.7663 H   0  0  0  0  0  0  0  0  0  0  0  0
   -2.1906    2.2278    1.9995 H   0  0  0  0  0  0  0  0  0  0  0  0
  1  2  2  0  0  0  0
  2  3  1  0  0  0  0
  3  4  1  0  0  0  0
  4  5  1  0  0  0  0
  5  6  2  0  0  0  0
  6  7  1  0  0  0  0
  7  8  2  0  0  0  0
  8  9  1  0  0  0  0
  9 10  2  0  0  0  0
 10 11  1  0  0  0  0
 11 12  2  0  0  0  0
 12 13  1  0  0  0  0
 13 14  2  0  0  0  0
 14 15  1  0  0  0  0
 15 16  2  0  0  0  0
 16 17  1  0  0  0  0
  3 18  2  0  0  0  0
 18 19  1  0  0  0  0
 19 20  1  0  0  0  0
 20 21  1  0  0  0  0
 21 22  2  0  0  0  0
 22 23  1  0  0  0  0
 23 24  2  0  0  0  0
 24 25  1  0  0  0  0
 25 26  2  0  0  0  0
 26 27  1  0  0  0  0
 27 28  2  0  0  0  0
 28 29  1  0  0  0  0
 29 30  2  0  0  0  0
 30 31  1  0  0  0  0
 31 32  2  0  0  0  0
 32 33  1  0  0  0  0
 19 34  2  0  0  0  0
 34  1  1  0  0  0  0
 17  4  2  0  0  0  0
 33 20  2  0  0  0  0
 10  5  1  0  0  0  0
 17 12  1  0  0  0  0
 26 21  1  0  0  0  0
 33 28  1  0  0  0  0
  1 35  1  0  0  0  0
  2 36  1  0  0  0  0
  6 37  1  0  0  0  0
  7 38  1  0  0  0  0
  8 39  1  0  0  0  0
  9 40  1  0  0  0  0
 11 41  1  0  0  0  0
 13 42  1  0  0  0  0
 14 43  1  0  0  0  0
 15 44  1  0  0  0  0
 16 45  1  0  0  0  0
 18 46  1  0  0  0  0
 22 47  1  0  0  0  0
 23 48  1  0  0  0  0
 24 49  1  0  0  0  0
 25 50  1  0  0  0  0
 27 51  1  0  0  0  0
 29 52  1  0  0  0  0
 30 53  1  0  0  0  0
 31 54  1  0  0  0  0
 32 55  1  0  0  0  0
 34 56  1  0  0  0  0
M  END
