
  xtb     03012221263D
 energy: -4.581487760808 gnorm: 0.000324077055 xtb: 6.4.1 (afa7bdf)
 23 25  0     0  0            999 V2000
   -4.7602    0.9730    0.3161 C   0  0  0  0  0  0  0  0  0  0  0  0
   -5.2245   -0.2543   -0.0069 C   0  0  0  0  0  0  0  0  0  0  0  0
   -3.9218   -1.3344   -0.3573 S   0  0  0  0  0  0  0  0  0  0  0  0
   -2.7213   -0.0992   -0.0605 C   0  0  0  0  0  0  0  0  0  0  0  0
   -1.2968   -0.2897   -0.1685 C   0  0  0  0  0  0  0  0  0  0  0  0
   -0.6714   -1.4545   -0.5162 C   0  0  0  0  0  0  0  0  0  0  0  0
    0.7393   -1.3637   -0.5454 C   0  0  0  0  0  0  0  0  0  0  0  0
    1.2241   -0.1255   -0.2203 C   0  0  0  0  0  0  0  0  0  0  0  0
    2.6128    0.2614   -0.1665 C   0  0  0  0  0  0  0  0  0  0  0  0
    3.6878   -0.5402   -0.4306 C   0  0  0  0  0  0  0  0  0  0  0  0
    4.9404    0.1177   -0.2963 C   0  0  0  0  0  0  0  0  0  0  0  0
    4.8312    1.4141    0.0679 C   0  0  0  0  0  0  0  0  0  0  0  0
    3.1735    1.8617    0.2563 S   0  0  0  0  0  0  0  0  0  0  0  0
   -0.1053    0.9487    0.1295 S   0  0  0  0  0  0  0  0  0  0  0  0
   -3.3426    1.0658    0.2871 C   0  0  0  0  0  0  0  0  0  0  0  0
   -5.4007    1.8047    0.5719 H   0  0  0  0  0  0  0  0  0  0  0  0
   -6.2590   -0.5394   -0.0461 H   0  0  0  0  0  0  0  0  0  0  0  0
   -1.2145   -2.3578   -0.7461 H   0  0  0  0  0  0  0  0  0  0  0  0
    1.3762   -2.1958   -0.8012 H   0  0  0  0  0  0  0  0  0  0  0  0
    3.5944   -1.5767   -0.7149 H   0  0  0  0  0  0  0  0  0  0  0  0
    5.8866   -0.3746   -0.4696 H   0  0  0  0  0  0  0  0  0  0  0  0
    5.6507    2.0900    0.2239 H   0  0  0  0  0  0  0  0  0  0  0  0
   -2.7988    1.9689    0.5170 H   0  0  0  0  0  0  0  0  0  0  0  0
  1  2  2  0  0  0  0
  2  3  1  0  0  0  0
  3  4  1  0  0  0  0
  4  5  1  0  0  0  0
  5  6  2  0  0  0  0
  6  7  1  0  0  0  0
  7  8  2  0  0  0  0
  8  9  1  0  0  0  0
  9 10  2  0  0  0  0
 10 11  1  0  0  0  0
 11 12  2  0  0  0  0
 12 13  1  0  0  0  0
  8 14  1  0  0  0  0
  4 15  2  0  0  0  0
 15  1  1  0  0  0  0
 14  5  1  0  0  0  0
 13  9  1  0  0  0  0
  1 16  1  0  0  0  0
  2 17  1  0  0  0  0
  6 18  1  0  0  0  0
  7 19  1  0  0  0  0
 10 20  1  0  0  0  0
 11 21  1  0  0  0  0
 12 22  1  0  0  0  0
 15 23  1  0  0  0  0
M  END
