
  xtb     03012221293D
 energy: -6.326036414586 gnorm: 0.000244846985 xtb: 6.4.1 (afa7bdf)
 32 33  0     0  0            999 V2000
   -4.6137   -1.9394   -1.5951 C   0  0  0  0  0  0  0  0  0  0  0  0
   -4.1250   -0.5651   -1.9935 C   0  0  0  0  0  0  0  0  0  0  0  0
   -2.9888   -0.1905   -1.2554 O   0  0  0  0  0  0  0  0  0  0  0  0
   -2.3373    0.8290   -1.8817 C   0  0  0  0  0  0  0  0  0  0  0  0
   -2.8052    1.3841   -2.8590 O   0  0  0  0  0  0  0  0  0  0  0  0
   -1.1337    1.2284   -1.3463 N   0  0  0  0  0  0  0  0  0  0  0  0
   -0.2464    0.5198   -0.6687 C   0  0  0  0  0  0  0  0  0  0  0  0
    0.6491    1.2356    0.0966 O   0  0  0  0  0  0  0  0  0  0  0  0
    1.5549    0.5712    0.8913 C   0  0  0  0  0  0  0  0  0  0  0  0
    2.4383    1.3293    1.7109 C   0  0  0  0  0  0  0  0  0  0  0  0
    2.3172    2.7145    1.6460 O   0  0  0  0  0  0  0  0  0  0  0  0
    3.2013    3.4342    2.4666 C   0  0  0  0  0  0  0  0  0  0  0  0
    3.3475    0.6545    2.5087 C   0  0  0  0  0  0  0  0  0  0  0  0
    3.4056   -0.7295    2.5169 C   0  0  0  0  0  0  0  0  0  0  0  0
    2.5621   -1.4663    1.7321 C   0  0  0  0  0  0  0  0  0  0  0  0
    1.6237   -0.8303    0.9092 C   0  0  0  0  0  0  0  0  0  0  0  0
    0.7492   -1.5535    0.0643 C   0  0  0  0  0  0  0  0  0  0  0  0
   -0.1614   -0.9243   -0.7178 C   0  0  0  0  0  0  0  0  0  0  0  0
   -0.8990   -1.7404   -1.5819 C   0  0  0  0  0  0  0  0  0  0  0  0
   -1.4821   -2.4671   -2.2773 N   0  0  0  0  0  0  0  0  0  0  0  0
   -3.8202   -2.6729   -1.7462 H   0  0  0  0  0  0  0  0  0  0  0  0
   -4.8745   -1.9596   -0.5371 H   0  0  0  0  0  0  0  0  0  0  0  0
   -5.4858   -2.2523   -2.1710 H   0  0  0  0  0  0  0  0  0  0  0  0
   -3.8399   -0.5346   -3.0569 H   0  0  0  0  0  0  0  0  0  0  0  0
   -4.8843    0.2139   -1.8363 H   0  0  0  0  0  0  0  0  0  0  0  0
    3.0305    3.1749    3.5128 H   0  0  0  0  0  0  0  0  0  0  0  0
    4.2315    3.2246    2.1740 H   0  0  0  0  0  0  0  0  0  0  0  0
    2.9999    4.4976    2.3258 H   0  0  0  0  0  0  0  0  0  0  0  0
    4.0227    1.2102    3.1328 H   0  0  0  0  0  0  0  0  0  0  0  0
    4.1245   -1.2296    3.1467 H   0  0  0  0  0  0  0  0  0  0  0  0
    2.6124   -2.5411    1.7372 H   0  0  0  0  0  0  0  0  0  0  0  0
    0.8273   -2.6254    0.0228 H   0  0  0  0  0  0  0  0  0  0  0  0
  1  2  1  0  0  0  0
  2  3  1  0  0  0  0
  3  4  1  0  0  0  0
  4  5  2  0  0  0  0
  4  6  1  0  0  0  0
  6  7  2  0  0  0  0
  7  8  1  0  0  0  0
  8  9  1  0  0  0  0
  9 10  2  0  0  0  0
 10 11  1  0  0  0  0
 11 12  1  0  0  0  0
 10 13  1  0  0  0  0
 13 14  2  0  0  0  0
 14 15  1  0  0  0  0
 15 16  2  0  0  0  0
 16 17  1  0  0  0  0
 17 18  2  0  0  0  0
 18 19  1  0  0  0  0
 19 20  3  0  0  0  0
 18  7  1  0  0  0  0
 16  9  1  0  0  0  0
  1 21  1  0  0  0  0
  1 22  1  0  0  0  0
  1 23  1  0  0  0  0
  2 24  1  0  0  0  0
  2 25  1  0  0  0  0
 12 26  1  0  0  0  0
 12 27  1  0  0  0  0
 12 28  1  0  0  0  0
 13 29  1  0  0  0  0
 14 30  1  0  0  0  0
 15 31  1  0  0  0  0
 17 32  1  0  0  0  0
M  END
