
  xtb     03012221253D
 energy: -7.041464926742 gnorm: 0.000170745289 xtb: 6.4.1 (afa7bdf)
 35 37  0     0  0            999 V2000
    4.3975   -1.7095   -0.1034 C   0  0  0  0  0  0  0  0  0  0  0  0
    2.9942   -1.5422   -0.6455 C   0  0  0  0  0  0  0  0  0  0  0  0
    2.1836   -0.7671    0.2034 O   0  0  0  0  0  0  0  0  0  0  0  0
    0.9526   -0.6110   -0.3590 C   0  0  0  0  0  0  0  0  0  0  0  0
    0.6245   -1.0855   -1.4228 O   0  0  0  0  0  0  0  0  0  0  0  0
   -0.0055    0.2379    0.4508 C   0  0  0  0  0  0  0  0  0  0  0  0
    0.3791    1.6915    0.4129 C   0  0  0  0  0  0  0  0  0  0  0  0
    1.5776    2.3073    0.7018 C   0  0  0  0  0  0  0  0  0  0  0  0
    1.6725    3.6799    0.5639 C   0  0  0  0  0  0  0  0  0  0  0  0
    0.5842    4.4249    0.1378 C   0  0  0  0  0  0  0  0  0  0  0  0
   -0.6151    3.8121   -0.1615 C   0  0  0  0  0  0  0  0  0  0  0  0
   -0.7081    2.4394   -0.0236 C   0  0  0  0  0  0  0  0  0  0  0  0
   -1.8521    1.5485   -0.2810 C   0  0  0  0  0  0  0  0  0  0  0  0
   -2.9596    1.9073   -0.6239 O   0  0  0  0  0  0  0  0  0  0  0  0
   -1.4113    0.2396   -0.0434 N   0  0  0  0  0  0  0  0  0  0  0  0
   -2.2913   -0.8786    0.0555 C   0  0  0  0  0  0  0  0  0  0  0  0
   -1.8880   -2.1049   -0.4535 C   0  0  0  0  0  0  0  0  0  0  0  0
   -2.7180   -3.1887   -0.3658 C   0  0  0  0  0  0  0  0  0  0  0  0
   -3.9378   -3.0105    0.2368 C   0  0  0  0  0  0  0  0  0  0  0  0
   -4.2617   -1.7623    0.7161 C   0  0  0  0  0  0  0  0  0  0  0  0
   -3.4786   -0.7044    0.6454 N   0  0  0  0  0  0  0  0  0  0  0  0
    4.3754   -2.1883    0.8755 H   0  0  0  0  0  0  0  0  0  0  0  0
    4.8773   -0.7392    0.0244 H   0  0  0  0  0  0  0  0  0  0  0  0
    5.0239   -2.3130   -0.7619 H   0  0  0  0  0  0  0  0  0  0  0  0
    2.9937   -1.0487   -1.6275 H   0  0  0  0  0  0  0  0  0  0  0  0
    2.4906   -2.5099   -0.7760 H   0  0  0  0  0  0  0  0  0  0  0  0
   -0.0102   -0.1188    1.4885 H   0  0  0  0  0  0  0  0  0  0  0  0
    2.4181    1.7124    1.0131 H   0  0  0  0  0  0  0  0  0  0  0  0
    2.6030    4.1740    0.7864 H   0  0  0  0  0  0  0  0  0  0  0  0
    0.6758    5.4935    0.0349 H   0  0  0  0  0  0  0  0  0  0  0  0
   -1.4702    4.3704   -0.4992 H   0  0  0  0  0  0  0  0  0  0  0  0
   -0.9365   -2.1691   -0.9481 H   0  0  0  0  0  0  0  0  0  0  0  0
   -2.4276   -4.1463   -0.7650 H   0  0  0  0  0  0  0  0  0  0  0  0
   -4.6309   -3.8305    0.3274 H   0  0  0  0  0  0  0  0  0  0  0  0
   -5.2211   -1.6096    1.1868 H   0  0  0  0  0  0  0  0  0  0  0  0
  1  2  1  0  0  0  0
  2  3  1  0  0  0  0
  3  4  1  0  0  0  0
  4  5  2  0  0  0  0
  4  6  1  0  0  0  0
  6  7  1  0  0  0  0
  7  8  2  0  0  0  0
  8  9  1  0  0  0  0
  9 10  2  0  0  0  0
 10 11  1  0  0  0  0
 11 12  2  0  0  0  0
 12 13  1  0  0  0  0
 13 14  2  0  0  0  0
 13 15  1  0  0  0  0
 15 16  1  0  0  0  0
 16 17  2  0  0  0  0
 17 18  1  0  0  0  0
 18 19  2  0  0  0  0
 19 20  1  0  0  0  0
 20 21  2  0  0  0  0
 15  6  1  0  0  0  0
 21 16  1  0  0  0  0
 12  7  1  0  0  0  0
  1 22  1  0  0  0  0
  1 23  1  0  0  0  0
  1 24  1  0  0  0  0
  2 25  1  0  0  0  0
  2 26  1  0  0  0  0
  6 27  1  0  0  0  0
  8 28  1  0  0  0  0
  9 29  1  0  0  0  0
 10 30  1  0  0  0  0
 11 31  1  0  0  0  0
 17 32  1  0  0  0  0
 18 33  1  0  0  0  0
 19 34  1  0  0  0  0
 20 35  1  0  0  0  0
M  END
