
  xtb     03012221223D
 energy: -8.697273789333 gnorm: 0.000256305406 xtb: 6.4.1 (afa7bdf)
 47 50  0     0  0            999 V2000
    3.2911   -0.0036   -0.0749 C   0  0  0  0  0  0  0  0  0  0  0  0
    2.1385   -0.6781   -0.2007 C   0  0  0  0  0  0  0  0  0  0  0  0
    0.8477   -0.0448   -0.0486 C   0  0  0  0  0  0  0  0  0  0  0  0
    0.8430    1.2640    0.2211 N   0  0  0  0  0  0  0  0  0  0  0  0
   -0.3419    1.8307    0.3865 C   0  0  0  0  0  0  0  0  0  0  0  0
   -1.5167    1.1097    0.2660 C   0  0  0  0  0  0  0  0  0  0  0  0
   -1.4011   -0.2443   -0.0602 C   0  0  0  0  0  0  0  0  0  0  0  0
   -2.5732   -1.0421   -0.2493 N   0  0  0  0  0  0  0  0  0  0  0  0
   -2.5996   -2.4121    0.2675 C   0  0  0  0  0  0  0  0  0  0  0  0
   -4.0482   -2.8872    0.4270 C   0  0  0  0  0  0  0  0  0  0  0  0
   -4.9690   -1.8264    0.2078 O   0  0  0  0  0  0  0  0  0  0  0  0
   -4.8656   -1.2727   -1.0997 C   0  0  0  0  0  0  0  0  0  0  0  0
   -3.4238   -0.8865   -1.4400 C   0  0  0  0  0  0  0  0  0  0  0  0
   -0.2144   -0.8310   -0.1942 N   0  0  0  0  0  0  0  0  0  0  0  0
   -2.8647    1.6974    0.5918 C   0  0  0  0  0  0  0  0  0  0  0  0
   -2.8785    3.2337    0.6444 C   0  0  0  0  0  0  0  0  0  0  0  0
   -1.6516    3.7686    1.3914 C   0  0  0  0  0  0  0  0  0  0  0  0
   -0.3537    3.3001    0.7165 C   0  0  0  0  0  0  0  0  0  0  0  0
    4.6252   -0.5622   -0.2024 C   0  0  0  0  0  0  0  0  0  0  0  0
    4.8489   -1.9119   -0.4828 C   0  0  0  0  0  0  0  0  0  0  0  0
    6.1295   -2.4062   -0.5913 C   0  0  0  0  0  0  0  0  0  0  0  0
    7.2145   -1.5698   -0.4237 C   0  0  0  0  0  0  0  0  0  0  0  0
    7.0145   -0.2327   -0.1469 C   0  0  0  0  0  0  0  0  0  0  0  0
    5.7365    0.2669   -0.0373 C   0  0  0  0  0  0  0  0  0  0  0  0
    3.2232    1.0471    0.1447 H   0  0  0  0  0  0  0  0  0  0  0  0
    2.1423   -1.7290   -0.4182 H   0  0  0  0  0  0  0  0  0  0  0  0
   -2.0718   -2.4162    1.2269 H   0  0  0  0  0  0  0  0  0  0  0  0
   -2.0267   -3.0547   -0.4090 H   0  0  0  0  0  0  0  0  0  0  0  0
   -4.2925   -3.6841   -0.2850 H   0  0  0  0  0  0  0  0  0  0  0  0
   -4.2396   -3.2863    1.4304 H   0  0  0  0  0  0  0  0  0  0  0  0
   -5.2768   -2.0012   -1.8084 H   0  0  0  0  0  0  0  0  0  0  0  0
   -5.5275   -0.3985   -1.1227 H   0  0  0  0  0  0  0  0  0  0  0  0
   -3.3443    0.1349   -1.8244 H   0  0  0  0  0  0  0  0  0  0  0  0
   -3.0172   -1.5357   -2.2223 H   0  0  0  0  0  0  0  0  0  0  0  0
   -3.1884    1.2924    1.5582 H   0  0  0  0  0  0  0  0  0  0  0  0
   -3.6059    1.3376   -0.1296 H   0  0  0  0  0  0  0  0  0  0  0  0
   -3.8053    3.6001    1.1071 H   0  0  0  0  0  0  0  0  0  0  0  0
   -2.8825    3.6323   -0.3775 H   0  0  0  0  0  0  0  0  0  0  0  0
   -1.6836    4.8656    1.4591 H   0  0  0  0  0  0  0  0  0  0  0  0
   -1.6724    3.4086    2.4280 H   0  0  0  0  0  0  0  0  0  0  0  0
   -0.1900    3.8633   -0.2090 H   0  0  0  0  0  0  0  0  0  0  0  0
    0.5136    3.5177    1.3515 H   0  0  0  0  0  0  0  0  0  0  0  0
    4.0130   -2.5750   -0.6157 H   0  0  0  0  0  0  0  0  0  0  0  0
    6.2856   -3.4509   -0.8077 H   0  0  0  0  0  0  0  0  0  0  0  0
    8.2152   -1.9597   -0.5085 H   0  0  0  0  0  0  0  0  0  0  0  0
    7.8610    0.4219   -0.0156 H   0  0  0  0  0  0  0  0  0  0  0  0
    5.5835    1.3102    0.1797 H   0  0  0  0  0  0  0  0  0  0  0  0
  1  2  2  0  0  0  0
  2  3  1  0  0  0  0
  3  4  2  0  0  0  0
  4  5  1  0  0  0  0
  5  6  2  0  0  0  0
  6  7  1  0  0  0  0
  7  8  1  0  0  0  0
  8  9  1  0  0  0  0
  9 10  1  0  0  0  0
 10 11  1  0  0  0  0
 11 12  1  0  0  0  0
 12 13  1  0  0  0  0
  7 14  2  0  0  0  0
  6 15  1  0  0  0  0
 15 16  1  0  0  0  0
 16 17  1  0  0  0  0
 17 18  1  0  0  0  0
  1 19  1  0  0  0  0
 19 20  2  0  0  0  0
 20 21  1  0  0  0  0
 21 22  2  0  0  0  0
 22 23  1  0  0  0  0
 23 24  2  0  0  0  0
 14  3  1  0  0  0  0
 24 19  1  0  0  0  0
 18  5  1  0  0  0  0
 13  8  1  0  0  0  0
  1 25  1  0  0  0  0
  2 26  1  0  0  0  0
  9 27  1  0  0  0  0
  9 28  1  0  0  0  0
 10 29  1  0  0  0  0
 10 30  1  0  0  0  0
 12 31  1  0  0  0  0
 12 32  1  0  0  0  0
 13 33  1  0  0  0  0
 13 34  1  0  0  0  0
 15 35  1  0  0  0  0
 15 36  1  0  0  0  0
 16 37  1  0  0  0  0
 16 38  1  0  0  0  0
 17 39  1  0  0  0  0
 17 40  1  0  0  0  0
 18 41  1  0  0  0  0
 18 42  1  0  0  0  0
 20 43  1  0  0  0  0
 21 44  1  0  0  0  0
 22 45  1  0  0  0  0
 23 46  1  0  0  0  0
 24 47  1  0  0  0  0
M  END
