
  xtb     03012221203D
 energy: -3.857249656778 gnorm: 0.000426922178 xtb: 6.4.1 (afa7bdf)
 18 19  0     0  0            999 V2000
    3.0914   -0.2485    0.2765 N   0  0  0  0  0  0  0  0  0  0  0  0
    1.7541    0.0067    0.0677 C   0  0  0  0  0  0  0  0  0  0  0  0
    1.3478    1.1618   -0.6280 C   0  0  0  0  0  0  0  0  0  0  0  0
    0.0201    1.4381   -0.8468 C   0  0  0  0  0  0  0  0  0  0  0  0
   -0.9291    0.5504   -0.3661 C   0  0  0  0  0  0  0  0  0  0  0  0
   -0.5444   -0.5984    0.3233 C   0  0  0  0  0  0  0  0  0  0  0  0
    0.7832   -0.8807    0.5462 C   0  0  0  0  0  0  0  0  0  0  0  0
   -1.7630   -1.3309    0.7037 C   0  0  0  0  0  0  0  0  0  0  0  0
   -1.8049   -2.3748    1.3187 O   0  0  0  0  0  0  0  0  0  0  0  0
   -2.8231   -0.5788    0.2169 N   0  0  0  0  0  0  0  0  0  0  0  0
   -2.3930    0.5680   -0.4397 C   0  0  0  0  0  0  0  0  0  0  0  0
   -3.0726    1.4204   -0.9735 O   0  0  0  0  0  0  0  0  0  0  0  0
    3.4309   -1.0512    0.7862 H   0  0  0  0  0  0  0  0  0  0  0  0
    3.8316    0.3678   -0.0266 H   0  0  0  0  0  0  0  0  0  0  0  0
    2.1040    1.8351   -0.9909 H   0  0  0  0  0  0  0  0  0  0  0  0
   -0.2985    2.3188   -1.3780 H   0  0  0  0  0  0  0  0  0  0  0  0
    1.0615   -1.7701    1.0807 H   0  0  0  0  0  0  0  0  0  0  0  0
   -3.7960   -0.8334    0.3295 H   0  0  0  0  0  0  0  0  0  0  0  0
  1  2  1  0  0  0  0
  2  3  2  0  0  0  0
  3  4  1  0  0  0  0
  4  5  2  0  0  0  0
  5  6  1  0  0  0  0
  6  7  2  0  0  0  0
  6  8  1  0  0  0  0
  8  9  2  0  0  0  0
  8 10  1  0  0  0  0
 10 11  1  0  0  0  0
 11 12  2  0  0  0  0
  7  2  1  0  0  0  0
 11  5  1  0  0  0  0
  1 13  1  0  0  0  0
  1 14  1  0  0  0  0
  3 15  1  0  0  0  0
  4 16  1  0  0  0  0
  7 17  1  0  0  0  0
 10 18  1  0  0  0  0
M  END
