
  xtb     03012221223D
 energy: -10.512661997627 gnorm: 0.000132864204 xtb: 6.4.1 (afa7bdf)
 62 64  0     0  0            999 V2000
    5.3201   -0.3756   -2.1600 C   0  0  0  0  0  0  0  0  0  0  0  0
    4.6290   -1.9783   -2.4173 S   0  0  0  0  0  0  0  0  0  0  0  0
    3.0424   -1.7757   -1.6918 C   0  0  0  0  0  0  0  0  0  0  0  0
    2.5742   -0.6324   -1.1869 C   0  0  0  0  0  0  0  0  0  0  0  0
    1.2607   -0.4401   -0.5890 C   0  0  0  0  0  0  0  0  0  0  0  0
    0.9015    0.8215   -0.1117 C   0  0  0  0  0  0  0  0  0  0  0  0
   -0.3328    1.0444    0.4506 C   0  0  0  0  0  0  0  0  0  0  0  0
   -1.2665    0.0128    0.5625 C   0  0  0  0  0  0  0  0  0  0  0  0
   -2.5886    0.2100    1.1394 C   0  0  0  0  0  0  0  0  0  0  0  0
   -3.0813    1.3673    1.5857 C   0  0  0  0  0  0  0  0  0  0  0  0
   -4.6946    1.5696    2.2492 S   0  0  0  0  0  0  0  0  0  0  0  0
   -5.4699    0.0871    1.6877 C   0  0  0  0  0  0  0  0  0  0  0  0
   -5.7759   -0.1720    0.4186 C   0  0  0  0  0  0  0  0  0  0  0  0
   -6.5048   -1.4233    0.0454 C   0  0  0  0  0  0  0  0  0  0  0  0
   -8.0252   -1.3202    0.2580 C   0  0  0  0  0  0  0  0  0  0  0  0
   -8.6183    0.0711   -0.0252 C   0  0  0  0  0  0  0  0  0  0  0  0
   -8.0689    0.7787   -1.2790 C   0  0  0  0  0  0  0  0  0  0  0  0
   -6.8250    1.6337   -0.9952 C   0  0  0  0  0  0  0  0  0  0  0  0
   -5.5662    0.8215   -0.6806 C   0  0  0  0  0  0  0  0  0  0  0  0
   -0.9055   -1.2499    0.0895 C   0  0  0  0  0  0  0  0  0  0  0  0
    0.3285   -1.4727   -0.4733 C   0  0  0  0  0  0  0  0  0  0  0  0
    5.8327    0.0445   -1.0056 C   0  0  0  0  0  0  0  0  0  0  0  0
    5.8908   -0.8461    0.1998 C   0  0  0  0  0  0  0  0  0  0  0  0
    7.2934   -1.4502    0.4319 C   0  0  0  0  0  0  0  0  0  0  0  0
    8.4327   -0.5901   -0.1215 C   0  0  0  0  0  0  0  0  0  0  0  0
    8.5275    0.8214    0.4664 C   0  0  0  0  0  0  0  0  0  0  0  0
    7.2394    1.6610    0.3729 C   0  0  0  0  0  0  0  0  0  0  0  0
    6.4244    1.4228   -0.9057 C   0  0  0  0  0  0  0  0  0  0  0  0
    5.3156    0.2797   -3.0105 H   0  0  0  0  0  0  0  0  0  0  0  0
    2.4388   -2.6613   -1.6795 H   0  0  0  0  0  0  0  0  0  0  0  0
    3.2102    0.2340   -1.2199 H   0  0  0  0  0  0  0  0  0  0  0  0
    1.6092    1.6292   -0.1911 H   0  0  0  0  0  0  0  0  0  0  0  0
   -0.5804    2.0278    0.8087 H   0  0  0  0  0  0  0  0  0  0  0  0
   -3.2174   -0.6610    1.1949 H   0  0  0  0  0  0  0  0  0  0  0  0
   -2.4876    2.2592    1.5563 H   0  0  0  0  0  0  0  0  0  0  0  0
   -5.7062   -0.6332    2.4481 H   0  0  0  0  0  0  0  0  0  0  0  0
   -6.0869   -2.2746    0.5976 H   0  0  0  0  0  0  0  0  0  0  0  0
   -6.2944   -1.6404   -1.0093 H   0  0  0  0  0  0  0  0  0  0  0  0
   -8.5284   -2.0706   -0.3668 H   0  0  0  0  0  0  0  0  0  0  0  0
   -8.2699   -1.6072    1.2900 H   0  0  0  0  0  0  0  0  0  0  0  0
   -9.7129   -0.0119   -0.0861 H   0  0  0  0  0  0  0  0  0  0  0  0
   -8.4401    0.7237    0.8393 H   0  0  0  0  0  0  0  0  0  0  0  0
   -7.8481    0.0383   -2.0569 H   0  0  0  0  0  0  0  0  0  0  0  0
   -8.8514    1.4200   -1.7093 H   0  0  0  0  0  0  0  0  0  0  0  0
   -6.6259    2.3020   -1.8443 H   0  0  0  0  0  0  0  0  0  0  0  0
   -7.0411    2.2998   -0.1507 H   0  0  0  0  0  0  0  0  0  0  0  0
   -4.7331    1.4862   -0.4232 H   0  0  0  0  0  0  0  0  0  0  0  0
   -5.2390    0.2869   -1.5805 H   0  0  0  0  0  0  0  0  0  0  0  0
   -1.6139   -2.0572    0.1674 H   0  0  0  0  0  0  0  0  0  0  0  0
    0.5764   -2.4565   -0.8299 H   0  0  0  0  0  0  0  0  0  0  0  0
    5.1391   -1.6400    0.1105 H   0  0  0  0  0  0  0  0  0  0  0  0
    5.5693   -0.2716    1.0763 H   0  0  0  0  0  0  0  0  0  0  0  0
    7.3397   -2.4414   -0.0405 H   0  0  0  0  0  0  0  0  0  0  0  0
    7.4536   -1.6377    1.5015 H   0  0  0  0  0  0  0  0  0  0  0  0
    9.3907   -1.1115    0.0131 H   0  0  0  0  0  0  0  0  0  0  0  0
    8.3092   -0.5108   -1.2092 H   0  0  0  0  0  0  0  0  0  0  0  0
    8.8496    0.7584    1.5144 H   0  0  0  0  0  0  0  0  0  0  0  0
    9.3398    1.3577   -0.0440 H   0  0  0  0  0  0  0  0  0  0  0  0
    7.4879    2.7275    0.4659 H   0  0  0  0  0  0  0  0  0  0  0  0
    6.6020    1.4586    1.2416 H   0  0  0  0  0  0  0  0  0  0  0  0
    7.0618    1.6028   -1.7792 H   0  0  0  0  0  0  0  0  0  0  0  0
    5.6097    2.1543   -0.9787 H   0  0  0  0  0  0  0  0  0  0  0  0
  1  2  1  0  0  0  0
  2  3  1  0  0  0  0
  3  4  2  0  0  0  0
  4  5  1  0  0  0  0
  5  6  2  0  0  0  0
  6  7  1  0  0  0  0
  7  8  2  0  0  0  0
  8  9  1  0  0  0  0
  9 10  2  0  0  0  0
 10 11  1  0  0  0  0
 11 12  1  0  0  0  0
 12 13  2  0  0  0  0
 13 14  1  0  0  0  0
 14 15  1  0  0  0  0
 15 16  1  0  0  0  0
 16 17  1  0  0  0  0
 17 18  1  0  0  0  0
 18 19  1  0  0  0  0
  8 20  1  0  0  0  0
 20 21  2  0  0  0  0
  1 22  2  0  0  0  0
 22 23  1  0  0  0  0
 23 24  1  0  0  0  0
 24 25  1  0  0  0  0
 25 26  1  0  0  0  0
 26 27  1  0  0  0  0
 27 28  1  0  0  0  0
 21  5  1  0  0  0  0
 28 22  1  0  0  0  0
 19 13  1  0  0  0  0
  1 29  1  0  0  0  0
  3 30  1  0  0  0  0
  4 31  1  0  0  0  0
  6 32  1  0  0  0  0
  7 33  1  0  0  0  0
  9 34  1  0  0  0  0
 10 35  1  0  0  0  0
 12 36  1  0  0  0  0
 14 37  1  0  0  0  0
 14 38  1  0  0  0  0
 15 39  1  0  0  0  0
 15 40  1  0  0  0  0
 16 41  1  0  0  0  0
 16 42  1  0  0  0  0
 17 43  1  0  0  0  0
 17 44  1  0  0  0  0
 18 45  1  0  0  0  0
 18 46  1  0  0  0  0
 19 47  1  0  0  0  0
 19 48  1  0  0  0  0
 20 49  1  0  0  0  0
 21 50  1  0  0  0  0
 23 51  1  0  0  0  0
 23 52  1  0  0  0  0
 24 53  1  0  0  0  0
 24 54  1  0  0  0  0
 25 55  1  0  0  0  0
 25 56  1  0  0  0  0
 26 57  1  0  0  0  0
 26 58  1  0  0  0  0
 27 59  1  0  0  0  0
 27 60  1  0  0  0  0
 28 61  1  0  0  0  0
 28 62  1  0  0  0  0
M  END
