
  xtb     03012221253D
 energy: -9.546604687910 gnorm: 0.000275583793 xtb: 6.4.1 (afa7bdf)
 45 49  0     0  0            999 V2000
   -6.1334   -1.7257    1.1311 C   0  0  0  0  0  0  0  0  0  0  0  0
   -6.2861   -0.6346    0.2704 O   0  0  0  0  0  0  0  0  0  0  0  0
   -5.0603   -0.1258   -0.1374 C   0  0  0  0  0  0  0  0  0  0  0  0
   -3.9607   -0.7078    0.3103 N   0  0  0  0  0  0  0  0  0  0  0  0
   -2.8317   -0.1690   -0.1167 C   0  0  0  0  0  0  0  0  0  0  0  0
   -1.6525   -0.7701    0.3504 N   0  0  0  0  0  0  0  0  0  0  0  0
   -0.3295   -0.4347    0.1051 C   0  0  0  0  0  0  0  0  0  0  0  0
   -0.0197    0.6418   -0.7123 C   0  0  0  0  0  0  0  0  0  0  0  0
    1.2765    1.0155   -0.9747 C   0  0  0  0  0  0  0  0  0  0  0  0
    2.3575    0.3298   -0.4302 C   0  0  0  0  0  0  0  0  0  0  0  0
    2.0854   -0.7862    0.4144 C   0  0  0  0  0  0  0  0  0  0  0  0
    3.1483   -1.5259    0.9981 C   0  0  0  0  0  0  0  0  0  0  0  0
    2.8763   -2.6031    1.8099 C   0  0  0  0  0  0  0  0  0  0  0  0
    1.5715   -2.9805    2.0688 C   0  0  0  0  0  0  0  0  0  0  0  0
    0.5267   -2.2855    1.5213 C   0  0  0  0  0  0  0  0  0  0  0  0
    0.7477   -1.1778    0.6869 C   0  0  0  0  0  0  0  0  0  0  0  0
    4.5378   -1.1543    0.7456 C   0  0  0  0  0  0  0  0  0  0  0  0
    5.4561   -1.7845    1.2445 O   0  0  0  0  0  0  0  0  0  0  0  0
    4.7962   -0.0053   -0.1222 C   0  0  0  0  0  0  0  0  0  0  0  0
    6.1121    0.3621   -0.3712 C   0  0  0  0  0  0  0  0  0  0  0  0
    6.4008    1.4326   -1.1791 C   0  0  0  0  0  0  0  0  0  0  0  0
    5.3722    2.1574   -1.7548 C   0  0  0  0  0  0  0  0  0  0  0  0
    4.0653    1.8084   -1.5193 C   0  0  0  0  0  0  0  0  0  0  0  0
    3.7362    0.7215   -0.6993 C   0  0  0  0  0  0  0  0  0  0  0  0
   -2.7419    0.8684   -0.9273 N   0  0  0  0  0  0  0  0  0  0  0  0
   -3.8981    1.3767   -1.3183 C   0  0  0  0  0  0  0  0  0  0  0  0
   -3.8525    2.4705   -2.1719 O   0  0  0  0  0  0  0  0  0  0  0  0
   -5.1367    2.9113   -2.5051 C   0  0  0  0  0  0  0  0  0  0  0  0
   -5.0822    0.9167   -0.9525 N   0  0  0  0  0  0  0  0  0  0  0  0
   -5.5770   -1.4079    2.0149 H   0  0  0  0  0  0  0  0  0  0  0  0
   -5.5863   -2.5154    0.6127 H   0  0  0  0  0  0  0  0  0  0  0  0
   -7.1211   -2.0865    1.4224 H   0  0  0  0  0  0  0  0  0  0  0  0
   -1.8384   -1.5577    0.9653 H   0  0  0  0  0  0  0  0  0  0  0  0
   -0.8288    1.1951   -1.1474 H   0  0  0  0  0  0  0  0  0  0  0  0
    1.4478    1.8601   -1.6163 H   0  0  0  0  0  0  0  0  0  0  0  0
    3.7028   -3.1438    2.2370 H   0  0  0  0  0  0  0  0  0  0  0  0
    1.3775   -3.8289    2.7070 H   0  0  0  0  0  0  0  0  0  0  0  0
   -0.4756   -2.6027    1.7384 H   0  0  0  0  0  0  0  0  0  0  0  0
    6.8975   -0.2147    0.0860 H   0  0  0  0  0  0  0  0  0  0  0  0
    7.4264    1.7084   -1.3649 H   0  0  0  0  0  0  0  0  0  0  0  0
    5.5993    2.9977   -2.3891 H   0  0  0  0  0  0  0  0  0  0  0  0
    3.2847    2.3881   -1.9785 H   0  0  0  0  0  0  0  0  0  0  0  0
   -5.6626    3.1963   -1.5915 H   0  0  0  0  0  0  0  0  0  0  0  0
   -5.6726    2.1001   -3.0022 H   0  0  0  0  0  0  0  0  0  0  0  0
   -5.0553    3.7702   -3.1733 H   0  0  0  0  0  0  0  0  0  0  0  0
  1  2  1  0  0  0  0
  2  3  1  0  0  0  0
  3  4  2  0  0  0  0
  4  5  1  0  0  0  0
  5  6  1  0  0  0  0
  6  7  1  0  0  0  0
  7  8  2  0  0  0  0
  8  9  1  0  0  0  0
  9 10  2  0  0  0  0
 10 11  1  0  0  0  0
 11 12  2  0  0  0  0
 12 13  1  0  0  0  0
 13 14  2  0  0  0  0
 14 15  1  0  0  0  0
 15 16  2  0  0  0  0
 12 17  1  0  0  0  0
 17 18  2  0  0  0  0
 17 19  1  0  0  0  0
 19 20  2  0  0  0  0
 20 21  1  0  0  0  0
 21 22  2  0  0  0  0
 22 23  1  0  0  0  0
 23 24  2  0  0  0  0
  5 25  2  0  0  0  0
 25 26  1  0  0  0  0
 26 27  1  0  0  0  0
 27 28  1  0  0  0  0
 26 29  2  0  0  0  0
 29  3  1  0  0  0  0
 16  7  1  0  0  0  0
 24 19  1  0  0  0  0
 24 10  1  0  0  0  0
 16 11  1  0  0  0  0
  1 30  1  0  0  0  0
  1 31  1  0  0  0  0
  1 32  1  0  0  0  0
  6 33  1  0  0  0  0
  8 34  1  0  0  0  0
  9 35  1  0  0  0  0
 13 36  1  0  0  0  0
 14 37  1  0  0  0  0
 15 38  1  0  0  0  0
 20 39  1  0  0  0  0
 21 40  1  0  0  0  0
 22 41  1  0  0  0  0
 23 42  1  0  0  0  0
 28 43  1  0  0  0  0
 28 44  1  0  0  0  0
 28 45  1  0  0  0  0
M  END
