
  xtb     03012221263D
 energy: -14.383138956057 gnorm: 0.000245032444 xtb: 6.4.1 (afa7bdf)
 71 77  0     0  0            999 V2000
    3.3069    1.8241   -1.7080 C   0  0  0  0  0  0  0  0  0  0  0  0
    4.4081    1.2626   -0.9407 N   0  0  0  0  0  0  0  0  0  0  0  0
    4.3353    0.5556    0.2214 C   0  0  0  0  0  0  0  0  0  0  0  0
    3.2173    0.0955    0.9073 C   0  0  0  0  0  0  0  0  0  0  0  0
    1.8971    0.1558    0.4870 C   0  0  0  0  0  0  0  0  0  0  0  0
    0.8608   -0.3832    1.2163 C   0  0  0  0  0  0  0  0  0  0  0  0
   -0.5059   -0.3877    0.8546 C   0  0  0  0  0  0  0  0  0  0  0  0
   -1.4149   -1.2503    1.5259 C   0  0  0  0  0  0  0  0  0  0  0  0
   -1.2040   -2.0731    2.6585 C   0  0  0  0  0  0  0  0  0  0  0  0
   -2.3845   -2.7085    2.9501 C   0  0  0  0  0  0  0  0  0  0  0  0
   -3.3615   -2.3183    2.0012 C   0  0  0  0  0  0  0  0  0  0  0  0
   -4.7433   -2.7797    1.9594 C   0  0  0  0  0  0  0  0  0  0  0  0
   -5.5069   -2.6754    0.7976 C   0  0  0  0  0  0  0  0  0  0  0  0
   -6.8090   -3.1152    0.7571 C   0  0  0  0  0  0  0  0  0  0  0  0
   -7.3821   -3.6778    1.8794 C   0  0  0  0  0  0  0  0  0  0  0  0
   -6.6449   -3.7976    3.0405 C   0  0  0  0  0  0  0  0  0  0  0  0
   -5.3418   -3.3562    3.0826 C   0  0  0  0  0  0  0  0  0  0  0  0
   -2.7308   -1.4425    1.1680 N   0  0  0  0  0  4  0  0  0  0  0  0
   -3.3112   -0.7590   -0.0808 B   0  0  0  0  0  4  0  0  0  0  0  0
   -3.4654   -1.7279   -1.0720 F   0  0  0  0  0  0  0  0  0  0  0  0
   -4.5187   -0.1576    0.2699 F   0  0  0  0  0  0  0  0  0  0  0  0
   -2.3658    0.3299   -0.6155 N   0  0  0  0  0  0  0  0  0  0  0  0
   -1.0726    0.4469   -0.1509 C   0  0  0  0  0  0  0  0  0  0  0  0
   -0.5479    1.5949   -0.7946 C   0  0  0  0  0  0  0  0  0  0  0  0
   -1.5135    2.1032   -1.6257 C   0  0  0  0  0  0  0  0  0  0  0  0
   -2.6728    1.2971   -1.5263 C   0  0  0  0  0  0  0  0  0  0  0  0
   -3.9215    1.5060   -2.2481 C   0  0  0  0  0  0  0  0  0  0  0  0
   -4.8587    0.4828   -2.3839 C   0  0  0  0  0  0  0  0  0  0  0  0
   -6.0322    0.6756   -3.0738 C   0  0  0  0  0  0  0  0  0  0  0  0
   -6.2984    1.8997   -3.6529 C   0  0  0  0  0  0  0  0  0  0  0  0
   -5.3844    2.9278   -3.5366 C   0  0  0  0  0  0  0  0  0  0  0  0
   -4.2100    2.7360   -2.8449 C   0  0  0  0  0  0  0  0  0  0  0  0
    5.7672    0.3088    0.7159 C   0  0  0  0  0  0  0  0  0  0  0  0
    6.0038    1.0011    2.0642 C   0  0  0  0  0  0  0  0  0  0  0  0
    6.0600   -1.1945    0.8059 C   0  0  0  0  0  0  0  0  0  0  0  0
    6.6162    0.9528   -0.3691 C   0  0  0  0  0  0  0  0  0  0  0  0
    7.9848    1.0462   -0.5079 C   0  0  0  0  0  0  0  0  0  0  0  0
    8.5009    1.6914   -1.6178 C   0  0  0  0  0  0  0  0  0  0  0  0
    7.6558    2.2323   -2.5747 C   0  0  0  0  0  0  0  0  0  0  0  0
    6.2860    2.1420   -2.4402 C   0  0  0  0  0  0  0  0  0  0  0  0
    5.7592    1.4998   -1.3256 C   0  0  0  0  0  0  0  0  0  0  0  0
    2.7681    1.0348   -2.2306 H   0  0  0  0  0  0  0  0  0  0  0  0
    2.6308    2.3645   -1.0478 H   0  0  0  0  0  0  0  0  0  0  0  0
    3.6716    2.5322   -2.4489 H   0  0  0  0  0  0  0  0  0  0  0  0
    3.4001   -0.3899    1.8504 H   0  0  0  0  0  0  0  0  0  0  0  0
    1.6817    0.5491   -0.4843 H   0  0  0  0  0  0  0  0  0  0  0  0
    1.1264   -0.9094    2.1157 H   0  0  0  0  0  0  0  0  0  0  0  0
   -0.2821   -2.1761    3.2050 H   0  0  0  0  0  0  0  0  0  0  0  0
   -2.5369   -3.4095    3.7535 H   0  0  0  0  0  0  0  0  0  0  0  0
   -5.0532   -2.2460   -0.0753 H   0  0  0  0  0  0  0  0  0  0  0  0
   -7.3811   -3.0201   -0.1512 H   0  0  0  0  0  0  0  0  0  0  0  0
   -8.4026   -4.0227    1.8492 H   0  0  0  0  0  0  0  0  0  0  0  0
   -7.0925   -4.2356    3.9176 H   0  0  0  0  0  0  0  0  0  0  0  0
   -4.7770   -3.4407    3.9940 H   0  0  0  0  0  0  0  0  0  0  0  0
    0.4012    2.0595   -0.5956 H   0  0  0  0  0  0  0  0  0  0  0  0
   -1.4092    2.9779   -2.2455 H   0  0  0  0  0  0  0  0  0  0  0  0
   -4.6448   -0.4682   -1.9343 H   0  0  0  0  0  0  0  0  0  0  0  0
   -6.7437   -0.1290   -3.1613 H   0  0  0  0  0  0  0  0  0  0  0  0
   -7.2179    2.0526   -4.1937 H   0  0  0  0  0  0  0  0  0  0  0  0
   -5.5928    3.8845   -3.9869 H   0  0  0  0  0  0  0  0  0  0  0  0
   -3.5081    3.5452   -2.7479 H   0  0  0  0  0  0  0  0  0  0  0  0
    5.7860    2.0665    1.9897 H   0  0  0  0  0  0  0  0  0  0  0  0
    5.3660    0.5792    2.8406 H   0  0  0  0  0  0  0  0  0  0  0  0
    7.0407    0.8901    2.3815 H   0  0  0  0  0  0  0  0  0  0  0  0
    5.4250   -1.6751    1.5498 H   0  0  0  0  0  0  0  0  0  0  0  0
    5.8795   -1.6767   -0.1549 H   0  0  0  0  0  0  0  0  0  0  0  0
    7.0990   -1.3727    1.0830 H   0  0  0  0  0  0  0  0  0  0  0  0
    8.6312    0.6203    0.2391 H   0  0  0  0  0  0  0  0  0  0  0  0
    9.5686    1.7717   -1.7399 H   0  0  0  0  0  0  0  0  0  0  0  0
    8.0748    2.7277   -3.4353 H   0  0  0  0  0  0  0  0  0  0  0  0
    5.6342    2.5524   -3.1896 H   0  0  0  0  0  0  0  0  0  0  0  0
  1  2  1  0  0  0  0
  2  3  1  0  0  0  0
  3  4  2  0  0  0  0
  4  5  1  0  0  0  0
  5  6  2  0  0  0  0
  6  7  1  0  0  0  0
  7  8  2  0  0  0  0
  8  9  1  0  0  0  0
  9 10  2  0  0  0  0
 10 11  1  0  0  0  0
 11 12  1  0  0  0  0
 12 13  2  0  0  0  0
 13 14  1  0  0  0  0
 14 15  2  0  0  0  0
 15 16  1  0  0  0  0
 16 17  2  0  0  0  0
 11 18  2  0  0  0  0
 18 19  1  0  0  0  0
 19 20  1  0  0  0  0
 19 21  1  0  0  0  0
 19 22  1  0  0  0  0
 22 23  1  0  0  0  0
 23 24  2  0  0  0  0
 24 25  1  0  0  0  0
 25 26  2  0  0  0  0
 26 27  1  0  0  0  0
 27 28  2  0  0  0  0
 28 29  1  0  0  0  0
 29 30  2  0  0  0  0
 30 31  1  0  0  0  0
 31 32  2  0  0  0  0
  3 33  1  0  0  0  0
 33 34  1  0  0  0  0
 33 35  1  0  0  0  0
 33 36  1  0  0  0  0
 36 37  2  0  0  0  0
 37 38  1  0  0  0  0
 38 39  2  0  0  0  0
 39 40  1  0  0  0  0
 40 41  2  0  0  0  0
 41  2  1  0  0  0  0
 23  7  1  0  0  0  0
 32 27  1  0  0  0  0
 41 36  1  0  0  0  0
 18  8  1  0  0  0  0
 26 22  1  0  0  0  0
 17 12  1  0  0  0  0
  1 42  1  0  0  0  0
  1 43  1  0  0  0  0
  1 44  1  0  0  0  0
  4 45  1  0  0  0  0
  5 46  1  0  0  0  0
  6 47  1  0  0  0  0
  9 48  1  0  0  0  0
 10 49  1  0  0  0  0
 13 50  1  0  0  0  0
 14 51  1  0  0  0  0
 15 52  1  0  0  0  0
 16 53  1  0  0  0  0
 17 54  1  0  0  0  0
 24 55  1  0  0  0  0
 25 56  1  0  0  0  0
 28 57  1  0  0  0  0
 29 58  1  0  0  0  0
 30 59  1  0  0  0  0
 31 60  1  0  0  0  0
 32 61  1  0  0  0  0
 34 62  1  0  0  0  0
 34 63  1  0  0  0  0
 34 64  1  0  0  0  0
 35 65  1  0  0  0  0
 35 66  1  0  0  0  0
 35 67  1  0  0  0  0
 37 68  1  0  0  0  0
 38 69  1  0  0  0  0
 39 70  1  0  0  0  0
 40 71  1  0  0  0  0
M  CHG  1  18   1
M  CHG  1  19  -1
M  END
