
  xtb     03012221283D
 energy: -16.622545333855 gnorm: 0.000077311442 xtb: 6.4.1 (afa7bdf)
 86 92  0     0  0            999 V2000
  -10.0407   -0.0340    0.3032 C   0  0  0  0  0  0  0  0  0  0  0  0
   -9.3500    0.0356   -1.0705 C   0  0  0  0  0  0  0  0  0  0  0  0
   -9.8754   -1.1233   -1.9385 C   0  0  0  0  0  0  0  0  0  0  0  0
   -9.7062    1.3625   -1.7647 C   0  0  0  0  0  0  0  0  0  0  0  0
   -7.8278   -0.0415   -0.8773 C   0  0  0  0  0  0  0  0  0  0  0  0
   -7.0518   -1.0464   -1.4426 C   0  0  0  0  0  0  0  0  0  0  0  0
   -5.6868   -1.0859   -1.2594 C   0  0  0  0  0  0  0  0  0  0  0  0
   -5.0444   -0.1138   -0.4964 C   0  0  0  0  0  0  0  0  0  0  0  0
   -3.6132   -0.1237   -0.2802 C   0  0  0  0  0  0  0  0  0  0  0  0
   -2.6270   -0.8063   -0.8952 C   0  0  0  0  0  0  0  0  0  0  0  0
   -1.2443   -0.5142   -0.4432 C   0  0  0  0  0  0  0  0  0  0  0  0
   -0.0760   -1.0865   -0.9696 C   0  0  0  0  0  0  0  0  0  0  0  0
    1.1278   -0.6771   -0.4610 C   0  0  0  0  0  0  0  0  0  0  0  0
    1.2489    0.2843    0.5522 C   0  0  0  0  0  0  0  0  0  0  0  0
    0.0804    0.8517    1.0832 C   0  0  0  0  0  0  0  0  0  0  0  0
   -1.1234    0.4416    0.5753 C   0  0  0  0  0  0  0  0  0  0  0  0
   -2.8098    0.8967    0.9591 P   0  0  0  0  0  5  0  0  0  0  0  0
   -3.1062    2.4047    0.7624 O   0  0  0  0  0  0  0  0  0  0  0  0
   -3.2598    0.3441    2.6042 C   0  0  0  0  0  0  0  0  0  0  0  0
   -3.0963   -0.9754    2.9529 C   0  0  0  0  0  0  0  0  0  0  0  0
   -3.4546   -1.3904    4.2227 C   0  0  0  0  0  0  0  0  0  0  0  0
   -3.9714   -0.4812    5.1250 C   0  0  0  0  0  0  0  0  0  0  0  0
   -4.1312    0.8422    4.7633 C   0  0  0  0  0  0  0  0  0  0  0  0
   -3.7723    1.2571    3.4930 C   0  0  0  0  0  0  0  0  0  0  0  0
    2.6343    0.6216    0.9621 C   0  0  0  0  0  0  0  0  0  0  0  0
    3.6231   -0.0297    0.3182 C   0  0  0  0  0  0  0  0  0  0  0  0
    5.0625    0.0552    0.4449 C   0  0  0  0  0  0  0  0  0  0  0  0
    5.6859    1.0948    1.1308 C   0  0  0  0  0  0  0  0  0  0  0  0
    7.0600    1.1641    1.2029 C   0  0  0  0  0  0  0  0  0  0  0  0
    7.8643    0.2048    0.5994 C   0  0  0  0  0  0  0  0  0  0  0  0
    9.3988    0.2609    0.6526 C   0  0  0  0  0  0  0  0  0  0  0  0
    9.8990    1.4881    1.4377 C   0  0  0  0  0  0  0  0  0  0  0  0
    9.9531    0.3431   -0.7811 C   0  0  0  0  0  0  0  0  0  0  0  0
    9.9299   -1.0078    1.3433 C   0  0  0  0  0  0  0  0  0  0  0  0
    7.2388   -0.8352   -0.0750 C   0  0  0  0  0  0  0  0  0  0  0  0
    5.8674   -0.9120   -0.1516 C   0  0  0  0  0  0  0  0  0  0  0  0
    2.8155   -1.1049   -0.8707 P   0  0  0  0  0  5  0  0  0  0  0  0
    3.1535   -2.5983   -0.6347 O   0  0  0  0  0  0  0  0  0  0  0  0
    3.2117   -0.5958   -2.5431 C   0  0  0  0  0  0  0  0  0  0  0  0
    3.0249    0.7113   -2.9252 C   0  0  0  0  0  0  0  0  0  0  0  0
    3.3404    1.0912   -4.2172 C   0  0  0  0  0  0  0  0  0  0  0  0
    3.8381    0.1598   -5.1076 C   0  0  0  0  0  0  0  0  0  0  0  0
    4.0214   -1.1508   -4.7122 C   0  0  0  0  0  0  0  0  0  0  0  0
    3.7054   -1.5306   -3.4198 C   0  0  0  0  0  0  0  0  0  0  0  0
   -5.8209    0.8949    0.0679 C   0  0  0  0  0  0  0  0  0  0  0  0
   -7.1834    0.9266   -0.1190 C   0  0  0  0  0  0  0  0  0  0  0  0
  -11.1245    0.0007    0.1966 H   0  0  0  0  0  0  0  0  0  0  0  0
   -9.7423    0.7978    0.9395 H   0  0  0  0  0  0  0  0  0  0  0  0
   -9.7813   -0.9588    0.8175 H   0  0  0  0  0  0  0  0  0  0  0  0
  -10.9555   -1.0529   -2.0636 H   0  0  0  0  0  0  0  0  0  0  0  0
   -9.6595   -2.0870   -1.4786 H   0  0  0  0  0  0  0  0  0  0  0  0
   -9.4274   -1.1040   -2.9314 H   0  0  0  0  0  0  0  0  0  0  0  0
  -10.7800    1.4385   -1.9332 H   0  0  0  0  0  0  0  0  0  0  0  0
   -9.4024    2.2183   -1.1637 H   0  0  0  0  0  0  0  0  0  0  0  0
   -9.2067    1.4374   -2.7300 H   0  0  0  0  0  0  0  0  0  0  0  0
   -7.5184   -1.8119   -2.0366 H   0  0  0  0  0  0  0  0  0  0  0  0
   -5.1052   -1.8758   -1.7017 H   0  0  0  0  0  0  0  0  0  0  0  0
   -2.8163   -1.5002   -1.7013 H   0  0  0  0  0  0  0  0  0  0  0  0
   -0.1222   -1.8181   -1.7555 H   0  0  0  0  0  0  0  0  0  0  0  0
    0.1269    1.5932    1.8598 H   0  0  0  0  0  0  0  0  0  0  0  0
   -2.6917   -1.6703    2.2347 H   0  0  0  0  0  0  0  0  0  0  0  0
   -3.3300   -2.4227    4.5070 H   0  0  0  0  0  0  0  0  0  0  0  0
   -4.2503   -0.8051    6.1143 H   0  0  0  0  0  0  0  0  0  0  0  0
   -4.5340    1.5512    5.4682 H   0  0  0  0  0  0  0  0  0  0  0  0
   -3.8859    2.2845    3.1853 H   0  0  0  0  0  0  0  0  0  0  0  0
    2.8262    1.3446    1.7415 H   0  0  0  0  0  0  0  0  0  0  0  0
    5.0820    1.8546    1.5951 H   0  0  0  0  0  0  0  0  0  0  0  0
    7.5113    1.9821    1.7355 H   0  0  0  0  0  0  0  0  0  0  0  0
    9.5460    1.4651    2.4682 H   0  0  0  0  0  0  0  0  0  0  0  0
   10.9880    1.5123    1.4635 H   0  0  0  0  0  0  0  0  0  0  0  0
    9.5603    2.4145    0.9750 H   0  0  0  0  0  0  0  0  0  0  0  0
    9.5680    1.2249   -1.2922 H   0  0  0  0  0  0  0  0  0  0  0  0
    9.6718   -0.5317   -1.3656 H   0  0  0  0  0  0  0  0  0  0  0  0
   11.0409    0.4040   -0.7757 H   0  0  0  0  0  0  0  0  0  0  0  0
    9.6486   -1.9051    0.7944 H   0  0  0  0  0  0  0  0  0  0  0  0
   11.0171   -0.9873    1.4131 H   0  0  0  0  0  0  0  0  0  0  0  0
    9.5282   -1.0928    2.3524 H   0  0  0  0  0  0  0  0  0  0  0  0
    7.8371   -1.5958   -0.5455 H   0  0  0  0  0  0  0  0  0  0  0  0
    5.3917   -1.7319   -0.6618 H   0  0  0  0  0  0  0  0  0  0  0  0
    2.6355    1.4236   -2.2158 H   0  0  0  0  0  0  0  0  0  0  0  0
    3.1972    2.1133   -4.5280 H   0  0  0  0  0  0  0  0  0  0  0  0
    4.0834    0.4565   -6.1143 H   0  0  0  0  0  0  0  0  0  0  0  0
    4.4091   -1.8771   -5.4079 H   0  0  0  0  0  0  0  0  0  0  0  0
    3.8380   -2.5473   -3.0853 H   0  0  0  0  0  0  0  0  0  0  0  0
   -5.3273    1.6661    0.6339 H   0  0  0  0  0  0  0  0  0  0  0  0
   -7.7587    1.7203    0.3247 H   0  0  0  0  0  0  0  0  0  0  0  0
  1  2  1  0  0  0  0
  2  3  1  0  0  0  0
  2  4  1  0  0  0  0
  2  5  1  0  0  0  0
  5  6  2  0  0  0  0
  6  7  1  0  0  0  0
  7  8  2  0  0  0  0
  8  9  1  0  0  0  0
  9 10  2  0  0  0  0
 10 11  1  0  0  0  0
 11 12  2  0  0  0  0
 12 13  1  0  0  0  0
 13 14  2  0  0  0  0
 14 15  1  0  0  0  0
 15 16  2  0  0  0  0
 16 17  1  0  0  0  0
 17 18  2  0  0  0  0
 17 19  1  0  0  0  0
 19 20  2  0  0  0  0
 20 21  1  0  0  0  0
 21 22  2  0  0  0  0
 22 23  1  0  0  0  0
 23 24  2  0  0  0  0
 14 25  1  0  0  0  0
 25 26  2  0  0  0  0
 26 27  1  0  0  0  0
 27 28  2  0  0  0  0
 28 29  1  0  0  0  0
 29 30  2  0  0  0  0
 30 31  1  0  0  0  0
 31 32  1  0  0  0  0
 31 33  1  0  0  0  0
 31 34  1  0  0  0  0
 30 35  1  0  0  0  0
 35 36  2  0  0  0  0
 26 37  1  0  0  0  0
 37 38  2  0  0  0  0
 37 39  1  0  0  0  0
 39 40  2  0  0  0  0
 40 41  1  0  0  0  0
 41 42  2  0  0  0  0
 42 43  1  0  0  0  0
 43 44  2  0  0  0  0
  8 45  1  0  0  0  0
 45 46  2  0  0  0  0
 46  5  1  0  0  0  0
 17  9  1  0  0  0  0
 24 19  1  0  0  0  0
 36 27  1  0  0  0  0
 44 39  1  0  0  0  0
 16 11  1  0  0  0  0
 37 13  1  0  0  0  0
  1 47  1  0  0  0  0
  1 48  1  0  0  0  0
  1 49  1  0  0  0  0
  3 50  1  0  0  0  0
  3 51  1  0  0  0  0
  3 52  1  0  0  0  0
  4 53  1  0  0  0  0
  4 54  1  0  0  0  0
  4 55  1  0  0  0  0
  6 56  1  0  0  0  0
  7 57  1  0  0  0  0
 10 58  1  0  0  0  0
 12 59  1  0  0  0  0
 15 60  1  0  0  0  0
 20 61  1  0  0  0  0
 21 62  1  0  0  0  0
 22 63  1  0  0  0  0
 23 64  1  0  0  0  0
 24 65  1  0  0  0  0
 25 66  1  0  0  0  0
 28 67  1  0  0  0  0
 29 68  1  0  0  0  0
 32 69  1  0  0  0  0
 32 70  1  0  0  0  0
 32 71  1  0  0  0  0
 33 72  1  0  0  0  0
 33 73  1  0  0  0  0
 33 74  1  0  0  0  0
 34 75  1  0  0  0  0
 34 76  1  0  0  0  0
 34 77  1  0  0  0  0
 35 78  1  0  0  0  0
 36 79  1  0  0  0  0
 40 80  1  0  0  0  0
 41 81  1  0  0  0  0
 42 82  1  0  0  0  0
 43 83  1  0  0  0  0
 44 84  1  0  0  0  0
 45 85  1  0  0  0  0
 46 86  1  0  0  0  0
M  END
