
  xtb     03012221323D
 energy: -15.759777008373 gnorm: 0.000213243142 xtb: 6.4.1 (afa7bdf)
 81 86  0     0  0            999 V2000
    3.0503    5.3639   -0.4165 C   0  0  0  0  0  0  0  0  0  0  0  0
    2.4535    4.0098   -0.3138 C   0  0  0  0  0  0  0  0  0  0  0  0
    3.1483    2.8278   -0.2219 C   0  0  0  0  0  0  0  0  0  0  0  0
    2.2178    1.7511   -0.1411 C   0  0  0  0  0  0  0  0  0  0  0  0
    2.4401    0.3530   -0.0384 C   0  0  0  0  0  0  0  0  0  0  0  0
    3.6573   -0.2323    0.0147 C   0  0  0  0  0  0  0  0  0  0  0  0
    3.8901   -1.6463    0.1156 C   0  0  0  0  0  0  0  0  0  0  0  0
    5.2053   -2.1311    0.1800 C   0  0  0  0  0  0  0  0  0  0  0  0
    5.4621   -3.4700    0.2764 C   0  0  0  0  0  0  0  0  0  0  0  0
    4.4177   -4.4110    0.3135 C   0  0  0  0  0  0  0  0  0  0  0  0
    4.6777   -5.7720    0.4101 N   0  0  0  0  0  0  0  0  0  0  0  0
    3.5996   -6.7621    0.4505 C   0  0  0  0  0  0  0  0  0  0  0  0
    6.0447   -6.2935    0.4709 C   0  0  0  0  0  0  0  0  0  0  0  0
    3.1006   -3.9218    0.2479 C   0  0  0  0  0  0  0  0  0  0  0  0
    2.8445   -2.5823    0.1522 C   0  0  0  0  0  0  0  0  0  0  0  0
    0.9941    2.3237   -0.1858 N   0  0  0  0  0  4  0  0  0  0  0  0
    1.0522    3.6889   -0.2899 C   0  0  0  0  0  0  0  0  0  0  0  0
   -0.0962    4.4999   -0.3515 C   0  0  0  0  0  0  0  0  0  0  0  0
    0.0057    5.9764   -0.4665 C   0  0  0  0  0  0  0  0  0  0  0  0
    0.0580    6.5954   -1.7188 C   0  0  0  0  0  0  0  0  0  0  0  0
    0.1565    7.9637   -1.8217 C   0  0  0  0  0  0  0  0  0  0  0  0
    0.2059    8.7429   -0.6827 C   0  0  0  0  0  0  0  0  0  0  0  0
    0.1571    8.1500    0.5636 C   0  0  0  0  0  0  0  0  0  0  0  0
    0.0586    6.7823    0.6745 C   0  0  0  0  0  0  0  0  0  0  0  0
   -1.3410    3.8364   -0.3014 C   0  0  0  0  0  0  0  0  0  0  0  0
   -2.6678    4.3825   -0.3459 C   0  0  0  0  0  0  0  0  0  0  0  0
   -3.0433    5.8138   -0.4551 C   0  0  0  0  0  0  0  0  0  0  0  0
   -3.5455    3.3335   -0.2674 C   0  0  0  0  0  0  0  0  0  0  0  0
   -2.8163    2.1147   -0.1723 C   0  0  0  0  0  0  0  0  0  0  0  0
   -3.4034    0.8216   -0.0758 C   0  0  0  0  0  0  0  0  0  0  0  0
   -2.7053   -0.3307    0.0263 C   0  0  0  0  0  0  0  0  0  0  0  0
   -3.2574   -1.6523    0.1222 C   0  0  0  0  0  0  0  0  0  0  0  0
   -2.3935   -2.7530    0.2246 C   0  0  0  0  0  0  0  0  0  0  0  0
   -2.8793   -4.0270    0.3179 C   0  0  0  0  0  0  0  0  0  0  0  0
   -4.2628   -4.2803    0.3144 C   0  0  0  0  0  0  0  0  0  0  0  0
   -4.7596   -5.5738    0.4097 N   0  0  0  0  0  0  0  0  0  0  0  0
   -3.8734   -6.7337    0.5242 C   0  0  0  0  0  0  0  0  0  0  0  0
   -6.1977   -5.8498    0.4017 C   0  0  0  0  0  0  0  0  0  0  0  0
   -5.1252   -3.1741    0.2112 C   0  0  0  0  0  0  0  0  0  0  0  0
   -4.6383   -1.9001    0.1180 C   0  0  0  0  0  0  0  0  0  0  0  0
   -1.5041    2.4693   -0.1967 N   0  0  0  0  0  0  0  0  0  0  0  0
   -0.3012    1.5182   -0.1191 B   0  0  0  0  0  4  0  0  0  0  0  0
   -0.3254    0.6431   -1.2018 F   0  0  0  0  0  0  0  0  0  0  0  0
   -0.3243    0.8337    1.0932 F   0  0  0  0  0  0  0  0  0  0  0  0
    2.7342    5.8591   -1.3348 H   0  0  0  0  0  0  0  0  0  0  0  0
    2.7476    5.9867    0.4256 H   0  0  0  0  0  0  0  0  0  0  0  0
    4.1394    5.3138   -0.4214 H   0  0  0  0  0  0  0  0  0  0  0  0
    4.2202    2.7329   -0.2149 H   0  0  0  0  0  0  0  0  0  0  0  0
    1.5551   -0.2529   -0.0014 H   0  0  0  0  0  0  0  0  0  0  0  0
    4.5242    0.4030   -0.0194 H   0  0  0  0  0  0  0  0  0  0  0  0
    6.0198   -1.4282    0.1531 H   0  0  0  0  0  0  0  0  0  0  0  0
    6.4812   -3.8127    0.3258 H   0  0  0  0  0  0  0  0  0  0  0  0
    3.0097   -6.7080   -0.4624 H   0  0  0  0  0  0  0  0  0  0  0  0
    3.9937   -7.7721    0.5401 H   0  0  0  0  0  0  0  0  0  0  0  0
    2.9527   -6.5744    1.3052 H   0  0  0  0  0  0  0  0  0  0  0  0
    6.5531   -5.9048    1.3511 H   0  0  0  0  0  0  0  0  0  0  0  0
    6.5966   -5.9980   -0.4192 H   0  0  0  0  0  0  0  0  0  0  0  0
    6.0514   -7.3799    0.5275 H   0  0  0  0  0  0  0  0  0  0  0  0
    2.2799   -4.6178    0.2724 H   0  0  0  0  0  0  0  0  0  0  0  0
    1.8261   -2.2427    0.1016 H   0  0  0  0  0  0  0  0  0  0  0  0
    0.0198    5.9822   -2.6023 H   0  0  0  0  0  0  0  0  0  0  0  0
    0.1953    8.4284   -2.7932 H   0  0  0  0  0  0  0  0  0  0  0  0
    0.2831    9.8152   -0.7665 H   0  0  0  0  0  0  0  0  0  0  0  0
    0.1962    8.7599    1.4511 H   0  0  0  0  0  0  0  0  0  0  0  0
    0.0204    6.3138    1.6425 H   0  0  0  0  0  0  0  0  0  0  0  0
   -4.1267    5.9352   -0.4717 H   0  0  0  0  0  0  0  0  0  0  0  0
   -2.6448    6.2519   -1.3703 H   0  0  0  0  0  0  0  0  0  0  0  0
   -2.6568    6.3830    0.3904 H   0  0  0  0  0  0  0  0  0  0  0  0
   -4.6188    3.4154   -0.2747 H   0  0  0  0  0  0  0  0  0  0  0  0
   -4.4760    0.7813   -0.0862 H   0  0  0  0  0  0  0  0  0  0  0  0
   -1.6346   -0.2624    0.0390 H   0  0  0  0  0  0  0  0  0  0  0  0
   -1.3313   -2.5792    0.2287 H   0  0  0  0  0  0  0  0  0  0  0  0
   -2.1929   -4.8525    0.3948 H   0  0  0  0  0  0  0  0  0  0  0  0
   -3.2551   -6.6439    1.4152 H   0  0  0  0  0  0  0  0  0  0  0  0
   -3.2303   -6.7992   -0.3513 H   0  0  0  0  0  0  0  0  0  0  0  0
   -4.4409   -7.6589    0.5980 H   0  0  0  0  0  0  0  0  0  0  0  0
   -6.6767   -5.3566    1.2453 H   0  0  0  0  0  0  0  0  0  0  0  0
   -6.6419   -5.4865   -0.5230 H   0  0  0  0  0  0  0  0  0  0  0  0
   -6.3960   -6.9169    0.4757 H   0  0  0  0  0  0  0  0  0  0  0  0
   -6.1892   -3.3364    0.2062 H   0  0  0  0  0  0  0  0  0  0  0  0
   -5.3246   -1.0766    0.0404 H   0  0  0  0  0  0  0  0  0  0  0  0
  1  2  1  0  0  0  0
  2  3  2  0  0  0  0
  3  4  1  0  0  0  0
  4  5  1  0  0  0  0
  5  6  2  0  0  0  0
  6  7  1  0  0  0  0
  7  8  2  0  0  0  0
  8  9  1  0  0  0  0
  9 10  2  0  0  0  0
 10 11  1  0  0  0  0
 11 12  1  0  0  0  0
 11 13  1  0  0  0  0
 10 14  1  0  0  0  0
 14 15  2  0  0  0  0
  4 16  2  0  0  0  0
 16 17  1  0  0  0  0
 17 18  2  0  0  0  0
 18 19  1  0  0  0  0
 19 20  2  0  0  0  0
 20 21  1  0  0  0  0
 21 22  2  0  0  0  0
 22 23  1  0  0  0  0
 23 24  2  0  0  0  0
 18 25  1  0  0  0  0
 25 26  2  0  0  0  0
 26 27  1  0  0  0  0
 26 28  1  0  0  0  0
 28 29  2  0  0  0  0
 29 30  1  0  0  0  0
 30 31  2  0  0  0  0
 31 32  1  0  0  0  0
 32 33  2  0  0  0  0
 33 34  1  0  0  0  0
 34 35  2  0  0  0  0
 35 36  1  0  0  0  0
 36 37  1  0  0  0  0
 36 38  1  0  0  0  0
 35 39  1  0  0  0  0
 39 40  2  0  0  0  0
 29 41  1  0  0  0  0
 41 42  1  0  0  0  0
 42 43  1  0  0  0  0
 42 44  1  0  0  0  0
 17  2  1  0  0  0  0
 24 19  1  0  0  0  0
 41 25  1  0  0  0  0
 15  7  1  0  0  0  0
 42 16  1  0  0  0  0
 40 32  1  0  0  0  0
  1 45  1  0  0  0  0
  1 46  1  0  0  0  0
  1 47  1  0  0  0  0
  3 48  1  0  0  0  0
  5 49  1  0  0  0  0
  6 50  1  0  0  0  0
  8 51  1  0  0  0  0
  9 52  1  0  0  0  0
 12 53  1  0  0  0  0
 12 54  1  0  0  0  0
 12 55  1  0  0  0  0
 13 56  1  0  0  0  0
 13 57  1  0  0  0  0
 13 58  1  0  0  0  0
 14 59  1  0  0  0  0
 15 60  1  0  0  0  0
 20 61  1  0  0  0  0
 21 62  1  0  0  0  0
 22 63  1  0  0  0  0
 23 64  1  0  0  0  0
 24 65  1  0  0  0  0
 27 66  1  0  0  0  0
 27 67  1  0  0  0  0
 27 68  1  0  0  0  0
 28 69  1  0  0  0  0
 30 70  1  0  0  0  0
 31 71  1  0  0  0  0
 33 72  1  0  0  0  0
 34 73  1  0  0  0  0
 37 74  1  0  0  0  0
 37 75  1  0  0  0  0
 37 76  1  0  0  0  0
 38 77  1  0  0  0  0
 38 78  1  0  0  0  0
 38 79  1  0  0  0  0
 39 80  1  0  0  0  0
 40 81  1  0  0  0  0
M  CHG  1  16   1
M  CHG  1  42  -1
M  END
