
  xtb     03012221223D
 energy: -17.252126703942 gnorm: 0.000257906762 xtb: 6.4.1 (afa7bdf)
 95 99  0     0  0            999 V2000
    7.4808   -0.9563    0.8665 C   0  0  0  0  0  0  0  0  0  0  0  0
    6.1751   -1.1481    0.1105 C   0  0  0  0  0  0  0  0  0  0  0  0
    5.5230   -2.5009    0.3960 C   0  0  0  0  0  0  0  0  0  0  0  0
    4.2743   -2.8007   -0.4421 C   0  0  0  0  0  0  0  0  0  0  0  0
    3.1036   -1.8223   -0.2140 C   0  0  0  0  0  0  0  0  0  0  0  0
    3.0840   -0.6394   -1.1871 C   0  0  0  0  0  0  0  0  0  0  0  0
    2.0076    0.3983   -0.8590 C   0  0  0  0  0  0  0  0  0  0  0  0
    0.5805   -0.1278   -1.0222 C   0  0  0  0  0  0  0  0  0  0  0  0
   -0.5099    0.9111   -0.6435 C   0  0  0  0  0  0  0  0  0  0  0  0
   -1.9611    0.4047   -0.9384 C   0  0  0  0  0  0  0  0  0  0  0  0
   -2.6256   -0.5295    0.0857 C   0  0  0  0  0  0  0  0  0  0  0  0
   -2.0834   -1.9592    0.1196 C   0  0  0  0  0  0  0  0  0  0  0  0
   -2.8137   -2.8662    1.1156 C   0  0  0  0  0  0  0  0  0  0  0  0
   -4.2675   -3.1548    0.7394 C   0  0  0  0  0  0  0  0  0  0  0  0
   -4.9519   -4.1118    1.7161 C   0  0  0  0  0  0  0  0  0  0  0  0
   -6.4245   -4.3755    1.3874 C   0  0  0  0  0  0  0  0  0  0  0  0
   -6.6253   -5.1225    0.0780 C   0  0  0  0  0  0  0  0  0  0  0  0
   -0.3425    1.3774    0.8081 C   0  0  0  0  0  0  0  0  0  0  0  0
   -0.3213    0.6488    1.9761 C   0  0  0  0  0  0  0  0  0  0  0  0
   -0.1173    1.2916    3.1985 C   0  0  0  0  0  0  0  0  0  0  0  0
   -0.1082    0.5090    4.4518 C   0  0  0  0  0  0  0  0  0  0  0  0
   -0.9882   -0.5593    4.6280 C   0  0  0  0  0  0  0  0  0  0  0  0
   -0.9674   -1.3041    5.7830 C   0  0  0  0  0  0  0  0  0  0  0  0
   -0.0706   -1.0041    6.7895 C   0  0  0  0  0  0  0  0  0  0  0  0
   -0.0415   -1.8100    8.0094 N   0  0  0  0  0  4  0  0  0  0  0  0
   -0.8316   -2.7598    8.1074 O   0  0  0  0  0  0  0  0  0  0  0  0
    0.7737   -1.5123    8.8939 O   0  0  0  0  0  1  0  0  0  0  0  0
    0.8034    0.0542    6.6331 C   0  0  0  0  0  0  0  0  0  0  0  0
    0.7873    0.8036    5.4802 C   0  0  0  0  0  0  0  0  0  0  0  0
    0.0812    2.6767    3.2107 C   0  0  0  0  0  0  0  0  0  0  0  0
    0.0889    3.4091    2.0456 C   0  0  0  0  0  0  0  0  0  0  0  0
   -0.1194    2.7581    0.8363 C   0  0  0  0  0  0  0  0  0  0  0  0
   -0.0870    3.2714   -0.5369 C   0  0  0  0  0  0  0  0  0  0  0  0
    0.1375    4.5545   -1.0181 C   0  0  0  0  0  0  0  0  0  0  0  0
    0.1548    4.7649   -2.3780 C   0  0  0  0  0  0  0  0  0  0  0  0
   -0.0463    3.7157   -3.2828 C   0  0  0  0  0  0  0  0  0  0  0  0
   -0.0164    3.9593   -4.7402 C   0  0  0  0  0  0  0  0  0  0  0  0
    0.9001    4.8494   -5.3011 C   0  0  0  0  0  0  0  0  0  0  0  0
    0.9313    5.0629   -6.6592 C   0  0  0  0  0  0  0  0  0  0  0  0
    0.0518    4.3970   -7.4903 C   0  0  0  0  0  0  0  0  0  0  0  0
    0.0928    4.6193   -8.9351 N   0  0  0  0  0  4  0  0  0  0  0  0
   -0.7041    3.9957   -9.6508 O   0  0  0  0  0  0  0  0  0  0  0  0
    0.9238    5.4209   -9.3854 O   0  0  0  0  0  1  0  0  0  0  0  0
   -0.8637    3.5152   -6.9503 C   0  0  0  0  0  0  0  0  0  0  0  0
   -0.8995    3.2967   -5.5934 C   0  0  0  0  0  0  0  0  0  0  0  0
   -0.2717    2.4294   -2.7865 C   0  0  0  0  0  0  0  0  0  0  0  0
   -0.2889    2.2131   -1.4273 C   0  0  0  0  0  0  0  0  0  0  0  0
    8.2092   -1.7235    0.5981 H   0  0  0  0  0  0  0  0  0  0  0  0
    7.3261   -1.0234    1.9447 H   0  0  0  0  0  0  0  0  0  0  0  0
    7.9362    0.0145    0.6596 H   0  0  0  0  0  0  0  0  0  0  0  0
    5.4772   -0.3423    0.3704 H   0  0  0  0  0  0  0  0  0  0  0  0
    6.3477   -1.0491   -0.9693 H   0  0  0  0  0  0  0  0  0  0  0  0
    6.2694   -3.2911    0.2396 H   0  0  0  0  0  0  0  0  0  0  0  0
    5.2697   -2.5600    1.4618 H   0  0  0  0  0  0  0  0  0  0  0  0
    3.9432   -3.8260   -0.2273 H   0  0  0  0  0  0  0  0  0  0  0  0
    4.5366   -2.8073   -1.5065 H   0  0  0  0  0  0  0  0  0  0  0  0
    2.1496   -2.3590   -0.2937 H   0  0  0  0  0  0  0  0  0  0  0  0
    3.1311   -1.4539    0.8185 H   0  0  0  0  0  0  0  0  0  0  0  0
    2.9356   -1.0103   -2.2085 H   0  0  0  0  0  0  0  0  0  0  0  0
    4.0682   -0.1584   -1.2043 H   0  0  0  0  0  0  0  0  0  0  0  0
    2.1365    1.2872   -1.4889 H   0  0  0  0  0  0  0  0  0  0  0  0
    2.1482    0.7547    0.1681 H   0  0  0  0  0  0  0  0  0  0  0  0
    0.4564   -1.0190   -0.4081 H   0  0  0  0  0  0  0  0  0  0  0  0
    0.4233   -0.4526   -2.0551 H   0  0  0  0  0  0  0  0  0  0  0  0
   -2.5859    1.2999   -1.0436 H   0  0  0  0  0  0  0  0  0  0  0  0
   -1.9726   -0.0654   -1.9263 H   0  0  0  0  0  0  0  0  0  0  0  0
   -2.5629   -0.0856    1.0849 H   0  0  0  0  0  0  0  0  0  0  0  0
   -3.7013   -0.5747   -0.1247 H   0  0  0  0  0  0  0  0  0  0  0  0
   -1.0186   -1.9446    0.3687 H   0  0  0  0  0  0  0  0  0  0  0  0
   -2.1398   -2.3954   -0.8848 H   0  0  0  0  0  0  0  0  0  0  0  0
   -2.7786   -2.4156    2.1146 H   0  0  0  0  0  0  0  0  0  0  0  0
   -2.2782   -3.8194    1.2141 H   0  0  0  0  0  0  0  0  0  0  0  0
   -4.8366   -2.2200    0.6917 H   0  0  0  0  0  0  0  0  0  0  0  0
   -4.3046   -3.5660   -0.2755 H   0  0  0  0  0  0  0  0  0  0  0  0
   -4.4060   -5.0629    1.7377 H   0  0  0  0  0  0  0  0  0  0  0  0
   -4.8612   -3.7072    2.7327 H   0  0  0  0  0  0  0  0  0  0  0  0
   -6.9646   -3.4200    1.3597 H   0  0  0  0  0  0  0  0  0  0  0  0
   -6.8890   -4.9416    2.2069 H   0  0  0  0  0  0  0  0  0  0  0  0
   -6.2572   -4.5481   -0.7732 H   0  0  0  0  0  0  0  0  0  0  0  0
   -6.0905   -6.0738    0.0811 H   0  0  0  0  0  0  0  0  0  0  0  0
   -7.6787   -5.3401   -0.1110 H   0  0  0  0  0  0  0  0  0  0  0  0
   -0.4299   -0.4187    1.9473 H   0  0  0  0  0  0  0  0  0  0  0  0
   -1.6978   -0.7891    3.8528 H   0  0  0  0  0  0  0  0  0  0  0  0
   -1.6448   -2.1290    5.9240 H   0  0  0  0  0  0  0  0  0  0  0  0
    1.4955    0.2736    7.4282 H   0  0  0  0  0  0  0  0  0  0  0  0
    1.4827    1.6151    5.3563 H   0  0  0  0  0  0  0  0  0  0  0  0
    0.2248    3.1733    4.1544 H   0  0  0  0  0  0  0  0  0  0  0  0
    0.2597    4.4721    2.0590 H   0  0  0  0  0  0  0  0  0  0  0  0
    0.2961    5.3657   -0.3281 H   0  0  0  0  0  0  0  0  0  0  0  0
    0.3127    5.7578   -2.7613 H   0  0  0  0  0  0  0  0  0  0  0  0
    1.5991    5.3582   -4.6609 H   0  0  0  0  0  0  0  0  0  0  0  0
    1.6393    5.7455   -7.0976 H   0  0  0  0  0  0  0  0  0  0  0  0
   -1.5443    3.0080   -7.6128 H   0  0  0  0  0  0  0  0  0  0  0  0
   -1.6238    2.6189   -5.1770 H   0  0  0  0  0  0  0  0  0  0  0  0
   -0.4137    1.6058   -3.4611 H   0  0  0  0  0  0  0  0  0  0  0  0
  1  2  1  0  0  0  0
  2  3  1  0  0  0  0
  3  4  1  0  0  0  0
  4  5  1  0  0  0  0
  5  6  1  0  0  0  0
  6  7  1  0  0  0  0
  7  8  1  0  0  0  0
  8  9  1  0  0  0  0
  9 10  1  0  0  0  0
 10 11  1  0  0  0  0
 11 12  1  0  0  0  0
 12 13  1  0  0  0  0
 13 14  1  0  0  0  0
 14 15  1  0  0  0  0
 15 16  1  0  0  0  0
 16 17  1  0  0  0  0
  9 18  1  0  0  0  0
 18 19  2  0  0  0  0
 19 20  1  0  0  0  0
 20 21  1  0  0  0  0
 21 22  2  0  0  0  0
 22 23  1  0  0  0  0
 23 24  2  0  0  0  0
 24 25  1  0  0  0  0
 25 26  2  0  0  0  0
 25 27  1  0  0  0  0
 24 28  1  0  0  0  0
 28 29  2  0  0  0  0
 20 30  2  0  0  0  0
 30 31  1  0  0  0  0
 31 32  2  0  0  0  0
 32 33  1  0  0  0  0
 33 34  2  0  0  0  0
 34 35  1  0  0  0  0
 35 36  2  0  0  0  0
 36 37  1  0  0  0  0
 37 38  2  0  0  0  0
 38 39  1  0  0  0  0
 39 40  2  0  0  0  0
 40 41  1  0  0  0  0
 41 42  2  0  0  0  0
 41 43  1  0  0  0  0
 40 44  1  0  0  0  0
 44 45  2  0  0  0  0
 36 46  1  0  0  0  0
 46 47  2  0  0  0  0
 47  9  1  0  0  0  0
 32 18  1  0  0  0  0
 47 33  1  0  0  0  0
 29 21  1  0  0  0  0
 45 37  1  0  0  0  0
  1 48  1  0  0  0  0
  1 49  1  0  0  0  0
  1 50  1  0  0  0  0
  2 51  1  0  0  0  0
  2 52  1  0  0  0  0
  3 53  1  0  0  0  0
  3 54  1  0  0  0  0
  4 55  1  0  0  0  0
  4 56  1  0  0  0  0
  5 57  1  0  0  0  0
  5 58  1  0  0  0  0
  6 59  1  0  0  0  0
  6 60  1  0  0  0  0
  7 61  1  0  0  0  0
  7 62  1  0  0  0  0
  8 63  1  0  0  0  0
  8 64  1  0  0  0  0
 10 65  1  0  0  0  0
 10 66  1  0  0  0  0
 11 67  1  0  0  0  0
 11 68  1  0  0  0  0
 12 69  1  0  0  0  0
 12 70  1  0  0  0  0
 13 71  1  0  0  0  0
 13 72  1  0  0  0  0
 14 73  1  0  0  0  0
 14 74  1  0  0  0  0
 15 75  1  0  0  0  0
 15 76  1  0  0  0  0
 16 77  1  0  0  0  0
 16 78  1  0  0  0  0
 17 79  1  0  0  0  0
 17 80  1  0  0  0  0
 17 81  1  0  0  0  0
 19 82  1  0  0  0  0
 22 83  1  0  0  0  0
 23 84  1  0  0  0  0
 28 85  1  0  0  0  0
 29 86  1  0  0  0  0
 30 87  1  0  0  0  0
 31 88  1  0  0  0  0
 34 89  1  0  0  0  0
 35 90  1  0  0  0  0
 38 91  1  0  0  0  0
 39 92  1  0  0  0  0
 44 93  1  0  0  0  0
 45 94  1  0  0  0  0
 46 95  1  0  0  0  0
M  CHG  1  25   1
M  CHG  1  27  -1
M  CHG  1  41   1
M  CHG  1  43  -1
M  END
