
  xtb     03012221313D
 energy: -19.736520174104 gnorm: 0.000328956978 xtb: 6.4.1 (afa7bdf)
 97106  0     0  0            999 V2000
   -2.6458   -2.6850    1.5506 C   0  0  0  0  0  0  0  0  0  0  0  0
   -1.3575   -2.1145    1.1224 C   0  0  0  0  0  0  0  0  0  0  0  0
   -0.1792   -2.6943    1.3097 N   0  0  0  0  0  4  0  0  0  0  0  0
    0.8882   -1.9340    0.8046 C   0  0  0  0  0  0  0  0  0  0  0  0
    2.2510   -2.3118    0.9015 C   0  0  0  0  0  0  0  0  0  0  0  0
    3.3221   -1.4751    0.3495 C   0  0  0  0  0  0  0  0  0  0  0  0
    4.5182   -1.2634    1.0505 C   0  0  0  0  0  0  0  0  0  0  0  0
    5.5008   -0.4548    0.5457 C   0  0  0  0  0  0  0  0  0  0  0  0
    5.3438    0.1911   -0.6874 C   0  0  0  0  0  0  0  0  0  0  0  0
    6.3491    1.0502   -1.2005 N   0  0  0  0  0  0  0  0  0  0  0  0
    7.7242    0.8679   -0.8370 C   0  0  0  0  0  0  0  0  0  0  0  0
    8.5674    1.9662   -0.6621 C   0  0  0  0  0  0  0  0  0  0  0  0
    9.8892    1.7924   -0.3232 C   0  0  0  0  0  0  0  0  0  0  0  0
   10.4007    0.5201   -0.1542 C   0  0  0  0  0  0  0  0  0  0  0  0
    9.5822   -0.5793   -0.3277 C   0  0  0  0  0  0  0  0  0  0  0  0
    8.2598   -0.4098   -0.6661 C   0  0  0  0  0  0  0  0  0  0  0  0
    6.0018    2.1230   -2.0878 C   0  0  0  0  0  0  0  0  0  0  0  0
    4.8219    2.8480   -1.9113 C   0  0  0  0  0  0  0  0  0  0  0  0
    4.4947    3.8786   -2.7613 C   0  0  0  0  0  0  0  0  0  0  0  0
    5.3374    4.2118   -3.8042 C   0  0  0  0  0  0  0  0  0  0  0  0
    6.5123    3.5091   -3.9911 C   0  0  0  0  0  0  0  0  0  0  0  0
    6.8432    2.4777   -3.1433 C   0  0  0  0  0  0  0  0  0  0  0  0
    4.1549   -0.0285   -1.3941 C   0  0  0  0  0  0  0  0  0  0  0  0
    3.1738   -0.8389   -0.8916 C   0  0  0  0  0  0  0  0  0  0  0  0
    2.5028   -3.5258    1.5608 C   0  0  0  0  0  0  0  0  0  0  0  0
    3.7139   -4.2276    1.7944 C   0  0  0  0  0  0  0  0  0  0  0  0
    3.4071   -5.3929    2.4561 C   0  0  0  0  0  0  0  0  0  0  0  0
    2.0054   -5.4547    2.6441 C   0  0  0  0  0  0  0  0  0  0  0  0
    1.2215   -6.5253    3.2853 C   0  0  0  0  0  0  0  0  0  0  0  0
    1.5075   -4.3430    2.0989 N   0  0  0  0  0  0  0  0  0  0  0  0
    0.0098   -4.0291    2.0342 B   0  0  0  0  0  4  0  0  0  0  0  0
   -0.4958   -3.9241    3.3355 F   0  0  0  0  0  0  0  0  0  0  0  0
   -0.6425   -5.0388    1.3162 F   0  0  0  0  0  0  0  0  0  0  0  0
    0.3055   -0.7849    0.2811 C   0  0  0  0  0  0  0  0  0  0  0  0
   -1.0882   -0.8716    0.4550 C   0  0  0  0  0  0  0  0  0  0  0  0
   -2.0246    0.1245    0.0276 C   0  0  0  0  0  0  0  0  0  0  0  0
   -3.4237    0.1193    0.1933 C   0  0  0  0  0  0  0  0  0  0  0  0
   -3.9304    1.2776   -0.3897 C   0  0  0  0  0  0  0  0  0  0  0  0
   -2.8159    1.9681   -0.8937 N   0  0  0  0  0  0  0  0  0  0  0  0
   -1.6864    1.3257   -0.6681 C   0  0  0  0  0  0  0  0  0  0  0  0
   -2.9203    3.3158   -1.6142 B   0  0  0  0  0  4  0  0  0  0  0  0
   -2.2028    4.2739   -0.8915 F   0  0  0  0  0  0  0  0  0  0  0  0
   -2.4327    3.1723   -2.9168 F   0  0  0  0  0  0  0  0  0  0  0  0
   -4.3955    3.7327   -1.6735 N   0  0  0  0  0  4  0  0  0  0  0  0
   -4.8413    4.8471   -2.2397 C   0  0  0  0  0  0  0  0  0  0  0  0
   -6.2459    4.8465   -2.0919 C   0  0  0  0  0  0  0  0  0  0  0  0
   -6.6163    3.7041   -1.4247 C   0  0  0  0  0  0  0  0  0  0  0  0
   -5.4352    2.9670   -1.1396 C   0  0  0  0  0  0  0  0  0  0  0  0
   -5.2593    1.7426   -0.4899 C   0  0  0  0  0  0  0  0  0  0  0  0
   -6.3942    0.9706    0.0693 C   0  0  0  0  0  0  0  0  0  0  0  0
   -6.8248   -0.2145   -0.5560 C   0  0  0  0  0  0  0  0  0  0  0  0
   -6.1549   -0.7149   -1.7883 C   0  0  0  0  0  0  0  0  0  0  0  0
   -7.8680   -0.9322   -0.0022 C   0  0  0  0  0  0  0  0  0  0  0  0
   -8.5212   -0.5017    1.1414 C   0  0  0  0  0  0  0  0  0  0  0  0
   -9.6313   -1.3011    1.7291 C   0  0  0  0  0  0  0  0  0  0  0  0
   -8.0909    0.6661    1.7506 C   0  0  0  0  0  0  0  0  0  0  0  0
   -7.0380    1.4038    1.2432 C   0  0  0  0  0  0  0  0  0  0  0  0
   -6.6054    2.6507    1.9330 C   0  0  0  0  0  0  0  0  0  0  0  0
   -2.4840   -3.6583    2.0149 H   0  0  0  0  0  0  0  0  0  0  0  0
   -3.3136   -2.8263    0.7011 H   0  0  0  0  0  0  0  0  0  0  0  0
   -3.1337   -2.0426    2.2833 H   0  0  0  0  0  0  0  0  0  0  0  0
    4.6384   -1.7138    2.0199 H   0  0  0  0  0  0  0  0  0  0  0  0
    6.3959   -0.2754    1.1131 H   0  0  0  0  0  0  0  0  0  0  0  0
    8.1624    2.9550   -0.7844 H   0  0  0  0  0  0  0  0  0  0  0  0
   10.5272    2.6502   -0.1880 H   0  0  0  0  0  0  0  0  0  0  0  0
   11.4364    0.3854    0.1104 H   0  0  0  0  0  0  0  0  0  0  0  0
    9.9821   -1.5720   -0.2014 H   0  0  0  0  0  0  0  0  0  0  0  0
    7.6256   -1.2640   -0.8243 H   0  0  0  0  0  0  0  0  0  0  0  0
    4.1784    2.5998   -1.0860 H   0  0  0  0  0  0  0  0  0  0  0  0
    3.5799    4.4286   -2.6125 H   0  0  0  0  0  0  0  0  0  0  0  0
    5.0790    5.0187   -4.4697 H   0  0  0  0  0  0  0  0  0  0  0  0
    7.1695    3.7686   -4.8048 H   0  0  0  0  0  0  0  0  0  0  0  0
    7.7508    1.9200   -3.2924 H   0  0  0  0  0  0  0  0  0  0  0  0
    4.0326    0.4328   -2.3574 H   0  0  0  0  0  0  0  0  0  0  0  0
    2.2828   -1.0217   -1.4662 H   0  0  0  0  0  0  0  0  0  0  0  0
    4.6947   -3.9178    1.4782 H   0  0  0  0  0  0  0  0  0  0  0  0
    4.1083   -6.1485    2.7707 H   0  0  0  0  0  0  0  0  0  0  0  0
    1.5350   -6.6732    4.3186 H   0  0  0  0  0  0  0  0  0  0  0  0
    1.3385   -7.4672    2.7497 H   0  0  0  0  0  0  0  0  0  0  0  0
    0.1625   -6.2646    3.2851 H   0  0  0  0  0  0  0  0  0  0  0  0
    0.8303    0.0480   -0.1504 H   0  0  0  0  0  0  0  0  0  0  0  0
   -4.0134   -0.6315    0.6851 H   0  0  0  0  0  0  0  0  0  0  0  0
   -0.7119    1.6699   -0.9686 H   0  0  0  0  0  0  0  0  0  0  0  0
   -4.2191    5.5870   -2.7165 H   0  0  0  0  0  0  0  0  0  0  0  0
   -6.9136    5.6146   -2.4481 H   0  0  0  0  0  0  0  0  0  0  0  0
   -7.6180    3.4070   -1.1641 H   0  0  0  0  0  0  0  0  0  0  0  0
   -6.8585   -1.2450   -2.4308 H   0  0  0  0  0  0  0  0  0  0  0  0
   -5.7333    0.1059   -2.3691 H   0  0  0  0  0  0  0  0  0  0  0  0
   -5.3446   -1.4002   -1.5384 H   0  0  0  0  0  0  0  0  0  0  0  0
   -8.1831   -1.8467   -0.4722 H   0  0  0  0  0  0  0  0  0  0  0  0
  -10.1804   -1.8396    0.9560 H   0  0  0  0  0  0  0  0  0  0  0  0
   -9.2466   -2.0326    2.4403 H   0  0  0  0  0  0  0  0  0  0  0  0
  -10.3414   -0.6618    2.2544 H   0  0  0  0  0  0  0  0  0  0  0  0
   -8.5841    1.0023    2.6451 H   0  0  0  0  0  0  0  0  0  0  0  0
   -6.8020    2.5970    3.0041 H   0  0  0  0  0  0  0  0  0  0  0  0
   -5.5364    2.8217    1.8030 H   0  0  0  0  0  0  0  0  0  0  0  0
   -7.1348    3.5172    1.5360 H   0  0  0  0  0  0  0  0  0  0  0  0
  1  2  1  0  0  0  0
  2  3  2  0  0  0  0
  3  4  1  0  0  0  0
  4  5  2  0  0  0  0
  5  6  1  0  0  0  0
  6  7  2  0  0  0  0
  7  8  1  0  0  0  0
  8  9  2  0  0  0  0
  9 10  1  0  0  0  0
 10 11  1  0  0  0  0
 11 12  2  0  0  0  0
 12 13  1  0  0  0  0
 13 14  2  0  0  0  0
 14 15  1  0  0  0  0
 15 16  2  0  0  0  0
 10 17  1  0  0  0  0
 17 18  2  0  0  0  0
 18 19  1  0  0  0  0
 19 20  2  0  0  0  0
 20 21  1  0  0  0  0
 21 22  2  0  0  0  0
  9 23  1  0  0  0  0
 23 24  2  0  0  0  0
  5 25  1  0  0  0  0
 25 26  2  0  0  0  0
 26 27  1  0  0  0  0
 27 28  2  0  0  0  0
 28 29  1  0  0  0  0
 28 30  1  0  0  0  0
 30 31  1  0  0  0  0
 31 32  1  0  0  0  0
 31 33  1  0  0  0  0
  4 34  1  0  0  0  0
 34 35  2  0  0  0  0
 35 36  1  0  0  0  0
 36 37  1  0  0  0  0
 37 38  2  0  0  0  0
 38 39  1  0  0  0  0
 39 40  1  0  0  0  0
 39 41  1  0  0  0  0
 41 42  1  0  0  0  0
 41 43  1  0  0  0  0
 41 44  1  0  0  0  0
 44 45  2  0  0  0  0
 45 46  1  0  0  0  0
 46 47  2  0  0  0  0
 47 48  1  0  0  0  0
 48 49  2  0  0  0  0
 49 50  1  0  0  0  0
 50 51  2  0  0  0  0
 51 52  1  0  0  0  0
 51 53  1  0  0  0  0
 53 54  2  0  0  0  0
 54 55  1  0  0  0  0
 54 56  1  0  0  0  0
 56 57  2  0  0  0  0
 57 58  1  0  0  0  0
 35  2  1  0  0  0  0
 40 36  2  0  0  0  0
 48 44  1  0  0  0  0
 57 50  1  0  0  0  0
 31  3  1  0  0  0  0
 49 38  1  0  0  0  0
 24  6  1  0  0  0  0
 30 25  1  0  0  0  0
 16 11  1  0  0  0  0
 22 17  1  0  0  0  0
  1 59  1  0  0  0  0
  1 60  1  0  0  0  0
  1 61  1  0  0  0  0
  7 62  1  0  0  0  0
  8 63  1  0  0  0  0
 12 64  1  0  0  0  0
 13 65  1  0  0  0  0
 14 66  1  0  0  0  0
 15 67  1  0  0  0  0
 16 68  1  0  0  0  0
 18 69  1  0  0  0  0
 19 70  1  0  0  0  0
 20 71  1  0  0  0  0
 21 72  1  0  0  0  0
 22 73  1  0  0  0  0
 23 74  1  0  0  0  0
 24 75  1  0  0  0  0
 26 76  1  0  0  0  0
 27 77  1  0  0  0  0
 29 78  1  0  0  0  0
 29 79  1  0  0  0  0
 29 80  1  0  0  0  0
 34 81  1  0  0  0  0
 37 82  1  0  0  0  0
 40 83  1  0  0  0  0
 45 84  1  0  0  0  0
 46 85  1  0  0  0  0
 47 86  1  0  0  0  0
 52 87  1  0  0  0  0
 52 88  1  0  0  0  0
 52 89  1  0  0  0  0
 53 90  1  0  0  0  0
 55 91  1  0  0  0  0
 55 92  1  0  0  0  0
 55 93  1  0  0  0  0
 56 94  1  0  0  0  0
 58 95  1  0  0  0  0
 58 96  1  0  0  0  0
 58 97  1  0  0  0  0
M  CHG  1   3   1
M  CHG  1  31  -1
M  CHG  1  41  -1
M  CHG  1  44   1
M  END
