
  xtb     03012221213D
 energy: -6.261299654402 gnorm: 0.000414107070 xtb: 6.4.1 (afa7bdf)
 32 33  0     0  0            999 V2000
   -4.9978   -0.7529    0.8667 C   0  0  0  0  0  0  0  0  0  0  0  0
   -4.0952    0.1941    0.2122 N   0  0  0  0  0  0  0  0  0  0  0  0
   -4.7130    1.3208   -0.4876 C   0  0  0  0  0  0  0  0  0  0  0  0
   -2.7013    0.0286    0.2524 C   0  0  0  0  0  0  0  0  0  0  0  0
   -2.1229   -1.0965    0.8500 C   0  0  0  0  0  0  0  0  0  0  0  0
   -0.7613   -1.2562    0.8891 C   0  0  0  0  0  0  0  0  0  0  0  0
    0.0970   -0.3014    0.3338 C   0  0  0  0  0  0  0  0  0  0  0  0
    1.5301   -0.5067    0.3939 C   0  0  0  0  0  0  0  0  0  0  0  0
    2.4538    0.3233   -0.1219 C   0  0  0  0  0  0  0  0  0  0  0  0
    3.8915    0.1392   -0.0773 C   0  0  0  0  0  0  0  0  0  0  0  0
    4.4698   -0.9680    0.5466 C   0  0  0  0  0  0  0  0  0  0  0  0
    5.7599   -1.1916    0.6187 N   0  0  0  0  0  0  0  0  0  0  0  0
    6.4816   -0.2562    0.0363 C   0  0  0  0  0  0  0  0  0  0  0  0
    5.9376    0.8430   -0.5834 C   0  0  0  0  0  0  0  0  0  0  0  0
    4.6463    1.0734   -0.6592 N   0  0  0  0  0  0  0  0  0  0  0  0
   -0.4807    0.8241   -0.2638 C   0  0  0  0  0  0  0  0  0  0  0  0
   -1.8428    0.9836   -0.3034 C   0  0  0  0  0  0  0  0  0  0  0  0
   -4.9424   -1.7217    0.3745 H   0  0  0  0  0  0  0  0  0  0  0  0
   -4.7237   -0.8684    1.9133 H   0  0  0  0  0  0  0  0  0  0  0  0
   -6.0281   -0.4060    0.8258 H   0  0  0  0  0  0  0  0  0  0  0  0
   -4.3517    1.3667   -1.5131 H   0  0  0  0  0  0  0  0  0  0  0  0
   -4.4694    2.2525    0.0191 H   0  0  0  0  0  0  0  0  0  0  0  0
   -5.7957    1.2189   -0.5172 H   0  0  0  0  0  0  0  0  0  0  0  0
   -2.7585   -1.8500    1.2789 H   0  0  0  0  0  0  0  0  0  0  0  0
   -0.3369   -2.1303    1.3524 H   0  0  0  0  0  0  0  0  0  0  0  0
    1.8587   -1.4003    0.8913 H   0  0  0  0  0  0  0  0  0  0  0  0
    2.1283    1.2140   -0.6239 H   0  0  0  0  0  0  0  0  0  0  0  0
    3.8363   -1.7054    1.0098 H   0  0  0  0  0  0  0  0  0  0  0  0
    7.5540   -0.3834    0.0609 H   0  0  0  0  0  0  0  0  0  0  0  0
    6.5871    1.5731   -1.0416 H   0  0  0  0  0  0  0  0  0  0  0  0
    0.1493    1.5789   -0.6982 H   0  0  0  0  0  0  0  0  0  0  0  0
   -2.2603    1.8606   -0.7642 H   0  0  0  0  0  0  0  0  0  0  0  0
  1  2  1  0  0  0  0
  2  3  1  0  0  0  0
  2  4  1  0  0  0  0
  4  5  2  0  0  0  0
  5  6  1  0  0  0  0
  6  7  2  0  0  0  0
  7  8  1  0  0  0  0
  8  9  2  0  0  0  0
  9 10  1  0  0  0  0
 10 11  2  0  0  0  0
 11 12  1  0  0  0  0
 12 13  2  0  0  0  0
 13 14  1  0  0  0  0
 14 15  2  0  0  0  0
  7 16  1  0  0  0  0
 16 17  2  0  0  0  0
 17  4  1  0  0  0  0
 15 10  1  0  0  0  0
  1 18  1  0  0  0  0
  1 19  1  0  0  0  0
  1 20  1  0  0  0  0
  3 21  1  0  0  0  0
  3 22  1  0  0  0  0
  3 23  1  0  0  0  0
  5 24  1  0  0  0  0
  6 25  1  0  0  0  0
  8 26  1  0  0  0  0
  9 27  1  0  0  0  0
 11 28  1  0  0  0  0
 13 29  1  0  0  0  0
 14 30  1  0  0  0  0
 16 31  1  0  0  0  0
 17 32  1  0  0  0  0
M  END
