
  xtb     03012221263D
 energy: -13.437653017410 gnorm: 0.000460318266 xtb: 6.4.1 (afa7bdf)
 64 70  0     0  0            999 V2000
   -2.1358    4.3962    1.8130 C   0  0  0  0  0  0  0  0  0  0  0  0
   -1.5918    3.6374    0.6132 C   0  0  0  0  0  0  0  0  0  0  0  0
   -1.9906    2.1615    0.6162 C   0  0  0  0  0  0  0  0  0  0  0  0
   -1.4536    1.3978   -0.5835 C   0  0  0  0  0  0  0  0  0  0  0  0
   -1.8712   -0.0131   -0.5704 N   0  0  0  0  0  0  0  0  0  0  0  0
   -1.0613   -1.0696   -0.1365 C   0  0  0  0  0  0  0  0  0  0  0  0
    0.3910   -1.0067    0.0562 C   0  0  0  0  0  0  0  0  0  0  0  0
    1.2233   -0.3728   -0.8684 C   0  0  0  0  0  0  0  0  0  0  0  0
    2.5795   -0.3163   -0.6633 C   0  0  0  0  0  0  0  0  0  0  0  0
    3.1507   -0.8988    0.4637 C   0  0  0  0  0  0  0  0  0  0  0  0
    4.5861   -0.8148    0.6802 C   0  0  0  0  0  0  0  0  0  0  0  0
    5.2306   -1.3516    1.7202 N   0  0  0  0  0  0  0  0  0  0  0  0
    6.4907   -1.0789    1.6009 N   0  0  0  0  0  0  0  0  0  0  0  0
    6.6627   -0.3656    0.4849 C   0  0  0  0  0  0  0  0  0  0  0  0
    7.9451    0.1345    0.0125 C   0  0  0  0  0  0  0  0  0  0  0  0
    8.0171    0.8635   -1.1693 C   0  0  0  0  0  0  0  0  0  0  0  0
    9.2265    1.3433   -1.6206 C   0  0  0  0  0  0  0  0  0  0  0  0
   10.3791    1.1021   -0.8986 C   0  0  0  0  0  0  0  0  0  0  0  0
   10.3207    0.3791    0.2768 C   0  0  0  0  0  0  0  0  0  0  0  0
    9.1130   -0.1023    0.7307 C   0  0  0  0  0  0  0  0  0  0  0  0
    5.4676   -0.1756   -0.1349 O   0  0  0  0  0  0  0  0  0  0  0  0
    2.3271   -1.5570    1.3729 C   0  0  0  0  0  0  0  0  0  0  0  0
    0.9709   -1.6148    1.1698 C   0  0  0  0  0  0  0  0  0  0  0  0
   -1.7795   -2.1488    0.1430 N   0  0  0  0  0  0  0  0  0  0  0  0
   -3.0599   -1.8298   -0.1262 C   0  0  0  0  0  0  0  0  0  0  0  0
   -4.2263   -2.6522    0.0622 C   0  0  0  0  0  0  0  0  0  0  0  0
   -4.1063   -3.9657    0.5213 C   0  0  0  0  0  0  0  0  0  0  0  0
   -5.2190   -4.7415    0.7117 C   0  0  0  0  0  0  0  0  0  0  0  0
   -6.4759   -4.2183    0.4480 C   0  0  0  0  0  0  0  0  0  0  0  0
   -6.6143   -2.9289   -0.0024 C   0  0  0  0  0  0  0  0  0  0  0  0
   -5.4989   -2.1051   -0.2093 C   0  0  0  0  0  0  0  0  0  0  0  0
   -5.6131   -0.7245   -0.6946 C   0  0  0  0  0  0  0  0  0  0  0  0
   -6.8588   -0.1532   -0.9899 C   0  0  0  0  0  0  0  0  0  0  0  0
   -6.9642    1.1267   -1.4697 C   0  0  0  0  0  0  0  0  0  0  0  0
   -5.8263    1.8871   -1.6823 C   0  0  0  0  0  0  0  0  0  0  0  0
   -4.5917    1.3642   -1.4022 C   0  0  0  0  0  0  0  0  0  0  0  0
   -4.4519    0.0672   -0.8922 C   0  0  0  0  0  0  0  0  0  0  0  0
   -3.1621   -0.5062   -0.5778 C   0  0  0  0  0  0  0  0  0  0  0  0
   -3.2262    4.3570    1.8427 H   0  0  0  0  0  0  0  0  0  0  0  0
   -1.8444    5.4486    1.7993 H   0  0  0  0  0  0  0  0  0  0  0  0
   -1.7728    3.9673    2.7488 H   0  0  0  0  0  0  0  0  0  0  0  0
   -1.9387    4.1040   -0.3180 H   0  0  0  0  0  0  0  0  0  0  0  0
   -0.4973    3.7169    0.5798 H   0  0  0  0  0  0  0  0  0  0  0  0
   -1.6378    1.6813    1.5362 H   0  0  0  0  0  0  0  0  0  0  0  0
   -3.0814    2.0712    0.6561 H   0  0  0  0  0  0  0  0  0  0  0  0
   -0.3621    1.4455   -0.5821 H   0  0  0  0  0  0  0  0  0  0  0  0
   -1.7598    1.8531   -1.5285 H   0  0  0  0  0  0  0  0  0  0  0  0
    0.7930    0.0467   -1.7605 H   0  0  0  0  0  0  0  0  0  0  0  0
    3.2234    0.1757   -1.3719 H   0  0  0  0  0  0  0  0  0  0  0  0
    7.1110    1.0444   -1.7215 H   0  0  0  0  0  0  0  0  0  0  0  0
    9.2732    1.9075   -2.5376 H   0  0  0  0  0  0  0  0  0  0  0  0
   11.3248    1.4786   -1.2526 H   0  0  0  0  0  0  0  0  0  0  0  0
   11.2205    0.1917    0.8394 H   0  0  0  0  0  0  0  0  0  0  0  0
    9.0549   -0.6662    1.6453 H   0  0  0  0  0  0  0  0  0  0  0  0
    2.7728   -2.0169    2.2377 H   0  0  0  0  0  0  0  0  0  0  0  0
    0.3339   -2.1251    1.8705 H   0  0  0  0  0  0  0  0  0  0  0  0
   -3.1231   -4.3539    0.7230 H   0  0  0  0  0  0  0  0  0  0  0  0
   -5.1189   -5.7541    1.0655 H   0  0  0  0  0  0  0  0  0  0  0  0
   -7.3501   -4.8310    0.5986 H   0  0  0  0  0  0  0  0  0  0  0  0
   -7.6010   -2.5522   -0.1978 H   0  0  0  0  0  0  0  0  0  0  0  0
   -7.7562   -0.7252   -0.8430 H   0  0  0  0  0  0  0  0  0  0  0  0
   -7.9344    1.5416   -1.6902 H   0  0  0  0  0  0  0  0  0  0  0  0
   -5.9140    2.8884   -2.0711 H   0  0  0  0  0  0  0  0  0  0  0  0
   -3.7185    1.9571   -1.5925 H   0  0  0  0  0  0  0  0  0  0  0  0
  1  2  1  0  0  0  0
  2  3  1  0  0  0  0
  3  4  1  0  0  0  0
  4  5  1  0  0  0  0
  5  6  1  0  0  0  0
  6  7  1  0  0  0  0
  7  8  2  0  0  0  0
  8  9  1  0  0  0  0
  9 10  2  0  0  0  0
 10 11  1  0  0  0  0
 11 12  2  0  0  0  0
 12 13  1  0  0  0  0
 13 14  2  0  0  0  0
 14 15  1  0  0  0  0
 15 16  2  0  0  0  0
 16 17  1  0  0  0  0
 17 18  2  0  0  0  0
 18 19  1  0  0  0  0
 19 20  2  0  0  0  0
 14 21  1  0  0  0  0
 10 22  1  0  0  0  0
 22 23  2  0  0  0  0
  6 24  2  0  0  0  0
 24 25  1  0  0  0  0
 25 26  2  0  0  0  0
 26 27  1  0  0  0  0
 27 28  2  0  0  0  0
 28 29  1  0  0  0  0
 29 30  2  0  0  0  0
 30 31  1  0  0  0  0
 31 32  2  0  0  0  0
 32 33  1  0  0  0  0
 33 34  2  0  0  0  0
 34 35  1  0  0  0  0
 35 36  2  0  0  0  0
 36 37  1  0  0  0  0
 37 38  2  0  0  0  0
 38  5  1  0  0  0  0
 23  7  1  0  0  0  0
 38 25  1  0  0  0  0
 21 11  1  0  0  0  0
 31 26  1  0  0  0  0
 37 32  1  0  0  0  0
 20 15  1  0  0  0  0
  1 39  1  0  0  0  0
  1 40  1  0  0  0  0
  1 41  1  0  0  0  0
  2 42  1  0  0  0  0
  2 43  1  0  0  0  0
  3 44  1  0  0  0  0
  3 45  1  0  0  0  0
  4 46  1  0  0  0  0
  4 47  1  0  0  0  0
  8 48  1  0  0  0  0
  9 49  1  0  0  0  0
 16 50  1  0  0  0  0
 17 51  1  0  0  0  0
 18 52  1  0  0  0  0
 19 53  1  0  0  0  0
 20 54  1  0  0  0  0
 22 55  1  0  0  0  0
 23 56  1  0  0  0  0
 27 57  1  0  0  0  0
 28 58  1  0  0  0  0
 29 59  1  0  0  0  0
 30 60  1  0  0  0  0
 33 61  1  0  0  0  0
 34 62  1  0  0  0  0
 35 63  1  0  0  0  0
 36 64  1  0  0  0  0
M  END
