
  xtb     03012221223D
 energy: -6.018532447535 gnorm: 0.000267236888 xtb: 6.4.1 (afa7bdf)
 30 32  0     0  0            999 V2000
    5.4561   -0.1486    0.0245 C   0  0  0  0  0  0  0  0  0  0  0  0
    4.4463    0.5918   -0.6157 O   0  0  0  0  0  0  0  0  0  0  0  0
    3.1428    0.2287   -0.2788 C   0  0  0  0  0  0  0  0  0  0  0  0
    2.8107   -0.8210    0.6183 C   0  0  0  0  0  0  0  0  0  0  0  0
    1.5188   -1.1218    0.9013 C   0  0  0  0  0  0  0  0  0  0  0  0
    0.4547   -0.3970    0.3112 C   0  0  0  0  0  0  0  0  0  0  0  0
   -0.8878   -0.6831    0.5871 C   0  0  0  0  0  0  0  0  0  0  0  0
   -1.9163    0.0361    0.0069 C   0  0  0  0  0  0  0  0  0  0  0  0
   -3.3052   -0.2366    0.2796 C   0  0  0  0  0  0  0  0  0  0  0  0
   -3.7019   -1.3226    1.2148 C   0  0  0  0  0  0  0  0  0  0  0  0
   -4.2384    0.5128   -0.3299 C   0  0  0  0  0  0  0  0  0  0  0  0
   -3.9059    1.5829   -1.2493 C   0  0  0  0  0  0  0  0  0  0  0  0
   -4.8235    2.2086   -1.7579 O   0  0  0  0  0  0  0  0  0  0  0  0
   -2.5836    1.8536   -1.5145 O   0  0  0  0  0  0  0  0  0  0  0  0
   -1.6030    1.0931   -0.8962 C   0  0  0  0  0  0  0  0  0  0  0  0
   -0.2820    1.3802   -1.1732 C   0  0  0  0  0  0  0  0  0  0  0  0
    0.7659    0.6567   -0.5878 C   0  0  0  0  0  0  0  0  0  0  0  0
    2.1156    0.9424   -0.8610 C   0  0  0  0  0  0  0  0  0  0  0  0
    5.3759   -0.0261    1.1048 H   0  0  0  0  0  0  0  0  0  0  0  0
    6.4221    0.2341   -0.3053 H   0  0  0  0  0  0  0  0  0  0  0  0
    5.3767   -1.1997   -0.2535 H   0  0  0  0  0  0  0  0  0  0  0  0
    3.5982   -1.3878    1.0811 H   0  0  0  0  0  0  0  0  0  0  0  0
    1.2850   -1.9207    1.5834 H   0  0  0  0  0  0  0  0  0  0  0  0
   -1.1146   -1.4818    1.2687 H   0  0  0  0  0  0  0  0  0  0  0  0
   -4.7862   -1.3847    1.3147 H   0  0  0  0  0  0  0  0  0  0  0  0
   -3.3478   -2.2911    0.8596 H   0  0  0  0  0  0  0  0  0  0  0  0
   -3.2894   -1.1500    2.2096 H   0  0  0  0  0  0  0  0  0  0  0  0
   -5.2821    0.3341   -0.1474 H   0  0  0  0  0  0  0  0  0  0  0  0
   -0.0664    2.1809   -1.8558 H   0  0  0  0  0  0  0  0  0  0  0  0
    2.3653    1.7366   -1.5394 H   0  0  0  0  0  0  0  0  0  0  0  0
  1  2  1  0  0  0  0
  2  3  1  0  0  0  0
  3  4  2  0  0  0  0
  4  5  1  0  0  0  0
  5  6  2  0  0  0  0
  6  7  1  0  0  0  0
  7  8  2  0  0  0  0
  8  9  1  0  0  0  0
  9 10  1  0  0  0  0
  9 11  2  0  0  0  0
 11 12  1  0  0  0  0
 12 13  2  0  0  0  0
 12 14  1  0  0  0  0
 14 15  1  0  0  0  0
 15 16  2  0  0  0  0
 16 17  1  0  0  0  0
 17 18  2  0  0  0  0
 18  3  1  0  0  0  0
 17  6  1  0  0  0  0
 15  8  1  0  0  0  0
  1 19  1  0  0  0  0
  1 20  1  0  0  0  0
  1 21  1  0  0  0  0
  4 22  1  0  0  0  0
  5 23  1  0  0  0  0
  7 24  1  0  0  0  0
 10 25  1  0  0  0  0
 10 26  1  0  0  0  0
 10 27  1  0  0  0  0
 11 28  1  0  0  0  0
 16 29  1  0  0  0  0
 18 30  1  0  0  0  0
M  END
