
  xtb     03012221323D
 energy: -20.334089935682 gnorm: 0.000221888718 xtb: 6.4.1 (afa7bdf)
108115  0     0  0            999 V2000
    5.6888   -1.9165   -2.2392 C   0  0  0  0  0  0  0  0  0  0  0  0
    4.7300   -2.2886   -1.1158 C   0  0  0  0  0  0  0  0  0  0  0  0
    3.6154   -1.2456   -0.8984 C   0  0  0  0  0  0  0  0  0  0  0  0
    3.9002   -0.1154    0.1350 C   0  0  0  0  0  0  0  0  0  0  0  0
    3.8711   -0.6736    1.5838 C   0  0  0  0  0  0  0  0  0  0  0  0
    4.2609    0.3216    2.6865 C   0  0  0  0  0  0  0  0  0  0  0  0
    3.2320    1.4125    2.9397 C   0  0  0  0  0  0  0  0  0  0  0  0
    5.2122    0.6242   -0.1474 C   0  0  0  0  0  0  0  0  0  0  0  0
    6.5183    0.2199    0.0202 C   0  0  0  0  0  0  0  0  0  0  0  0
    7.5672    1.0965   -0.2755 C   0  0  0  0  0  0  0  0  0  0  0  0
    8.9706    0.6646   -0.1149 C   0  0  0  0  0  0  0  0  0  0  0  0
    9.9669    1.1091   -0.9865 C   0  0  0  0  0  0  0  0  0  0  0  0
   11.2684    0.7029   -0.8366 C   0  0  0  0  0  0  0  0  0  0  0  0
   11.6441   -0.1680    0.1919 C   0  0  0  0  0  0  0  0  0  0  0  0
   12.9893   -0.5308    0.2723 O   0  0  0  0  0  0  0  0  0  0  0  0
   13.3029   -1.4000    1.3339 C   0  0  0  0  0  0  0  0  0  0  0  0
   10.6449   -0.6125    1.0649 C   0  0  0  0  0  0  0  0  0  0  0  0
    9.3430   -0.2057    0.9125 C   0  0  0  0  0  0  0  0  0  0  0  0
    7.2600    2.3895   -0.7205 C   0  0  0  0  0  0  0  0  0  0  0  0
    5.9570    2.8126   -0.8571 C   0  0  0  0  0  0  0  0  0  0  0  0
    4.9268    1.9281   -0.5645 C   0  0  0  0  0  0  0  0  0  0  0  0
    3.4785    2.1447   -0.5283 C   0  0  0  0  0  0  0  0  0  0  0  0
    2.7283    3.2787   -0.8123 C   0  0  0  0  0  0  0  0  0  0  0  0
    1.3618    3.2335   -0.6462 C   0  0  0  0  0  0  0  0  0  0  0  0
    0.7148    2.0752   -0.1942 C   0  0  0  0  0  0  0  0  0  0  0  0
   -0.7520    2.0477   -0.0121 C   0  0  0  0  0  0  0  0  0  0  0  0
   -1.4451    3.1896    0.4119 C   0  0  0  0  0  0  0  0  0  0  0  0
   -2.8109    3.1796    0.5879 C   0  0  0  0  0  0  0  0  0  0  0  0
   -3.5126    2.0060    0.3428 C   0  0  0  0  0  0  0  0  0  0  0  0
   -2.8391    0.8562   -0.0714 C   0  0  0  0  0  0  0  0  0  0  0  0
   -1.4737    0.8742   -0.2531 C   0  0  0  0  0  0  0  0  0  0  0  0
   -3.8415   -0.2928   -0.2670 C   0  0  0  0  0  0  0  0  0  0  0  0
   -3.4730   -1.4134    0.7504 C   0  0  0  0  0  0  0  0  0  0  0  0
   -4.2436   -2.7457    0.6892 C   0  0  0  0  0  0  0  0  0  0  0  0
   -3.6148   -3.7746   -0.2412 C   0  0  0  0  0  0  0  0  0  0  0  0
   -3.7748   -0.7335   -1.7597 C   0  0  0  0  0  0  0  0  0  0  0  0
   -5.0227   -1.4010   -2.3431 C   0  0  0  0  0  0  0  0  0  0  0  0
   -4.8189   -1.8635   -3.7774 C   0  0  0  0  0  0  0  0  0  0  0  0
   -5.1772    0.3798    0.0941 C   0  0  0  0  0  0  0  0  0  0  0  0
   -6.4616   -0.1201    0.1360 C   0  0  0  0  0  0  0  0  0  0  0  0
   -7.5295    0.7019    0.5106 C   0  0  0  0  0  0  0  0  0  0  0  0
   -8.9069    0.1688    0.5437 C   0  0  0  0  0  0  0  0  0  0  0  0
   -9.9982    0.9658    0.1897 C   0  0  0  0  0  0  0  0  0  0  0  0
  -11.2786    0.4721    0.2137 C   0  0  0  0  0  0  0  0  0  0  0  0
  -11.5327   -0.8500    0.5956 C   0  0  0  0  0  0  0  0  0  0  0  0
  -12.7996   -1.4329    0.6481 O   0  0  0  0  0  0  0  0  0  0  0  0
  -13.8569   -0.5786    0.2825 C   0  0  0  0  0  0  0  0  0  0  0  0
  -10.4381   -1.6460    0.9502 C   0  0  0  0  0  0  0  0  0  0  0  0
   -9.1593   -1.1509    0.9246 C   0  0  0  0  0  0  0  0  0  0  0  0
   -7.2685    2.0355    0.8497 C   0  0  0  0  0  0  0  0  0  0  0  0
   -5.9904    2.5441    0.8208 C   0  0  0  0  0  0  0  0  0  0  0  0
   -4.9424    1.7147    0.4429 C   0  0  0  0  0  0  0  0  0  0  0  0
    1.4835    0.9407    0.0848 C   0  0  0  0  0  0  0  0  0  0  0  0
    2.8507    0.9808   -0.0769 C   0  0  0  0  0  0  0  0  0  0  0  0
    6.1434   -0.9391   -2.0769 H   0  0  0  0  0  0  0  0  0  0  0  0
    6.4995   -2.6411   -2.3444 H   0  0  0  0  0  0  0  0  0  0  0  0
    5.1700   -1.8652   -3.1984 H   0  0  0  0  0  0  0  0  0  0  0  0
    4.2829   -3.2674   -1.3424 H   0  0  0  0  0  0  0  0  0  0  0  0
    5.2781   -2.4483   -0.1798 H   0  0  0  0  0  0  0  0  0  0  0  0
    2.6880   -1.7414   -0.5896 H   0  0  0  0  0  0  0  0  0  0  0  0
    3.3793   -0.7780   -1.8600 H   0  0  0  0  0  0  0  0  0  0  0  0
    4.5415   -1.5379    1.6258 H   0  0  0  0  0  0  0  0  0  0  0  0
    2.8718   -1.0704    1.7858 H   0  0  0  0  0  0  0  0  0  0  0  0
    4.4369   -0.2277    3.6226 H   0  0  0  0  0  0  0  0  0  0  0  0
    5.2308    0.7732    2.4406 H   0  0  0  0  0  0  0  0  0  0  0  0
    3.1227    2.0713    2.0779 H   0  0  0  0  0  0  0  0  0  0  0  0
    3.5044    2.0426    3.7896 H   0  0  0  0  0  0  0  0  0  0  0  0
    2.2485    0.9873    3.1486 H   0  0  0  0  0  0  0  0  0  0  0  0
    6.7312   -0.7730    0.3696 H   0  0  0  0  0  0  0  0  0  0  0  0
    9.7005    1.7653   -1.7968 H   0  0  0  0  0  0  0  0  0  0  0  0
   12.0312    1.0462   -1.5127 H   0  0  0  0  0  0  0  0  0  0  0  0
   14.3723   -1.6116    1.3055 H   0  0  0  0  0  0  0  0  0  0  0  0
   13.0624   -0.9265    2.2865 H   0  0  0  0  0  0  0  0  0  0  0  0
   12.7550   -2.3364    1.2228 H   0  0  0  0  0  0  0  0  0  0  0  0
   10.8984   -1.2798    1.8683 H   0  0  0  0  0  0  0  0  0  0  0  0
    8.5927   -0.5458    1.6053 H   0  0  0  0  0  0  0  0  0  0  0  0
    8.0646    3.0727   -0.9283 H   0  0  0  0  0  0  0  0  0  0  0  0
    5.7278    3.8163   -1.1692 H   0  0  0  0  0  0  0  0  0  0  0  0
    3.2183    4.1736   -1.1535 H   0  0  0  0  0  0  0  0  0  0  0  0
    0.7709    4.1014   -0.8809 H   0  0  0  0  0  0  0  0  0  0  0  0
   -0.8907    4.0880    0.6194 H   0  0  0  0  0  0  0  0  0  0  0  0
   -3.3364    4.0603    0.9131 H   0  0  0  0  0  0  0  0  0  0  0  0
   -0.9702   -0.0101   -0.5979 H   0  0  0  0  0  0  0  0  0  0  0  0
   -3.5829   -0.9708    1.7476 H   0  0  0  0  0  0  0  0  0  0  0  0
   -2.4033   -1.6254    0.6553 H   0  0  0  0  0  0  0  0  0  0  0  0
   -4.3004   -3.1795    1.6985 H   0  0  0  0  0  0  0  0  0  0  0  0
   -5.2883   -2.5629    0.4186 H   0  0  0  0  0  0  0  0  0  0  0  0
   -4.1868   -4.7050   -0.2682 H   0  0  0  0  0  0  0  0  0  0  0  0
   -3.5398   -3.4116   -1.2658 H   0  0  0  0  0  0  0  0  0  0  0  0
   -2.6012   -4.0252    0.0783 H   0  0  0  0  0  0  0  0  0  0  0  0
   -3.5567    0.1572   -2.3596 H   0  0  0  0  0  0  0  0  0  0  0  0
   -2.9014   -1.3783   -1.8950 H   0  0  0  0  0  0  0  0  0  0  0  0
   -5.3281   -2.2481   -1.7196 H   0  0  0  0  0  0  0  0  0  0  0  0
   -5.8641   -0.6975   -2.2980 H   0  0  0  0  0  0  0  0  0  0  0  0
   -4.5584   -1.0269   -4.4286 H   0  0  0  0  0  0  0  0  0  0  0  0
   -4.0067   -2.5896   -3.8471 H   0  0  0  0  0  0  0  0  0  0  0  0
   -5.7152   -2.3334   -4.1890 H   0  0  0  0  0  0  0  0  0  0  0  0
   -6.6573   -1.1370   -0.1434 H   0  0  0  0  0  0  0  0  0  0  0  0
   -9.8226    1.9800   -0.1249 H   0  0  0  0  0  0  0  0  0  0  0  0
  -12.0956    1.1109   -0.0682 H   0  0  0  0  0  0  0  0  0  0  0  0
  -13.8946    0.2771    0.9576 H   0  0  0  0  0  0  0  0  0  0  0  0
  -13.7285   -0.2474   -0.7487 H   0  0  0  0  0  0  0  0  0  0  0  0
  -14.7935   -1.1314    0.3613 H   0  0  0  0  0  0  0  0  0  0  0  0
  -10.6267   -2.6622    1.2478 H   0  0  0  0  0  0  0  0  0  0  0  0
   -8.3358   -1.7786    1.2185 H   0  0  0  0  0  0  0  0  0  0  0  0
   -8.0851    2.6649    1.1569 H   0  0  0  0  0  0  0  0  0  0  0  0
   -5.7931    3.5671    1.0887 H   0  0  0  0  0  0  0  0  0  0  0  0
    1.0151    0.0433    0.4447 H   0  0  0  0  0  0  0  0  0  0  0  0
  1  2  1  0  0  0  0
  2  3  1  0  0  0  0
  3  4  1  0  0  0  0
  4  5  1  0  0  0  0
  5  6  1  0  0  0  0
  6  7  1  0  0  0  0
  4  8  1  0  0  0  0
  8  9  2  0  0  0  0
  9 10  1  0  0  0  0
 10 11  1  0  0  0  0
 11 12  2  0  0  0  0
 12 13  1  0  0  0  0
 13 14  2  0  0  0  0
 14 15  1  0  0  0  0
 15 16  1  0  0  0  0
 14 17  1  0  0  0  0
 17 18  2  0  0  0  0
 10 19  2  0  0  0  0
 19 20  1  0  0  0  0
 20 21  2  0  0  0  0
 21 22  1  0  0  0  0
 22 23  2  0  0  0  0
 23 24  1  0  0  0  0
 24 25  2  0  0  0  0
 25 26  1  0  0  0  0
 26 27  2  0  0  0  0
 27 28  1  0  0  0  0
 28 29  2  0  0  0  0
 29 30  1  0  0  0  0
 30 31  2  0  0  0  0
 30 32  1  0  0  0  0
 32 33  1  0  0  0  0
 33 34  1  0  0  0  0
 34 35  1  0  0  0  0
 32 36  1  0  0  0  0
 36 37  1  0  0  0  0
 37 38  1  0  0  0  0
 32 39  1  0  0  0  0
 39 40  2  0  0  0  0
 40 41  1  0  0  0  0
 41 42  1  0  0  0  0
 42 43  2  0  0  0  0
 43 44  1  0  0  0  0
 44 45  2  0  0  0  0
 45 46  1  0  0  0  0
 46 47  1  0  0  0  0
 45 48  1  0  0  0  0
 48 49  2  0  0  0  0
 41 50  2  0  0  0  0
 50 51  1  0  0  0  0
 51 52  2  0  0  0  0
 25 53  1  0  0  0  0
 53 54  2  0  0  0  0
 54  4  1  0  0  0  0
 21  8  1  0  0  0  0
 54 22  1  0  0  0  0
 18 11  1  0  0  0  0
 31 26  1  0  0  0  0
 52 39  1  0  0  0  0
 52 29  1  0  0  0  0
 49 42  1  0  0  0  0
  1 55  1  0  0  0  0
  1 56  1  0  0  0  0
  1 57  1  0  0  0  0
  2 58  1  0  0  0  0
  2 59  1  0  0  0  0
  3 60  1  0  0  0  0
  3 61  1  0  0  0  0
  5 62  1  0  0  0  0
  5 63  1  0  0  0  0
  6 64  1  0  0  0  0
  6 65  1  0  0  0  0
  7 66  1  0  0  0  0
  7 67  1  0  0  0  0
  7 68  1  0  0  0  0
  9 69  1  0  0  0  0
 12 70  1  0  0  0  0
 13 71  1  0  0  0  0
 16 72  1  0  0  0  0
 16 73  1  0  0  0  0
 16 74  1  0  0  0  0
 17 75  1  0  0  0  0
 18 76  1  0  0  0  0
 19 77  1  0  0  0  0
 20 78  1  0  0  0  0
 23 79  1  0  0  0  0
 24 80  1  0  0  0  0
 27 81  1  0  0  0  0
 28 82  1  0  0  0  0
 31 83  1  0  0  0  0
 33 84  1  0  0  0  0
 33 85  1  0  0  0  0
 34 86  1  0  0  0  0
 34 87  1  0  0  0  0
 35 88  1  0  0  0  0
 35 89  1  0  0  0  0
 35 90  1  0  0  0  0
 36 91  1  0  0  0  0
 36 92  1  0  0  0  0
 37 93  1  0  0  0  0
 37 94  1  0  0  0  0
 38 95  1  0  0  0  0
 38 96  1  0  0  0  0
 38 97  1  0  0  0  0
 40 98  1  0  0  0  0
 43 99  1  0  0  0  0
 44100  1  0  0  0  0
 47101  1  0  0  0  0
 47102  1  0  0  0  0
 47103  1  0  0  0  0
 48104  1  0  0  0  0
 49105  1  0  0  0  0
 50106  1  0  0  0  0
 51107  1  0  0  0  0
 53108  1  0  0  0  0
M  END
