
  xtb     03012221273D
 energy: -7.705055610741 gnorm: 0.000138801245 xtb: 6.4.1 (afa7bdf)
 42 44  0     0  0            999 V2000
    4.8112    0.8559    0.7127 C   0  0  0  0  0  0  0  0  0  0  0  0
    4.5736   -0.0887   -0.3640 N   0  0  0  0  0  0  0  0  0  0  0  0
    3.3472    0.1070   -1.1482 C   0  0  0  0  0  0  0  0  0  0  0  0
    2.0772   -0.0892   -0.3307 C   0  0  0  0  0  0  0  0  0  0  0  0
    0.8089    0.0161   -1.1765 C   0  0  0  0  0  0  0  0  0  0  0  0
   -0.4467   -0.0718   -0.3955 N   0  0  0  0  0  0  0  0  0  0  0  0
   -1.0646   -1.3712   -0.4225 C   0  0  0  0  0  0  0  0  0  0  0  0
   -0.2737   -2.5252   -0.3980 C   0  0  0  0  0  0  0  0  0  0  0  0
   -0.8190   -3.7814   -0.5313 C   0  0  0  0  0  0  0  0  0  0  0  0
   -2.1791   -3.9279   -0.6969 C   0  0  0  0  0  0  0  0  0  0  0  0
   -2.9843   -2.8087   -0.7224 C   0  0  0  0  0  0  0  0  0  0  0  0
   -2.4463   -1.5378   -0.5942 C   0  0  0  0  0  0  0  0  0  0  0  0
   -3.3426   -0.3542   -0.5366 C   0  0  0  0  0  0  0  0  0  0  0  0
   -3.2485    0.2948    0.8433 C   0  0  0  0  0  0  0  0  0  0  0  0
   -2.1060    1.2555    0.9728 C   0  0  0  0  0  0  0  0  0  0  0  0
   -2.3415    2.3851    1.7453 C   0  0  0  0  0  0  0  0  0  0  0  0
   -1.4212    3.4051    1.8434 C   0  0  0  0  0  0  0  0  0  0  0  0
   -0.2416    3.3129    1.1434 C   0  0  0  0  0  0  0  0  0  0  0  0
    0.0209    2.1934    0.3891 C   0  0  0  0  0  0  0  0  0  0  0  0
   -0.8670    1.1102    0.3076 C   0  0  0  0  0  0  0  0  0  0  0  0
    4.0135    0.7939    1.4520 H   0  0  0  0  0  0  0  0  0  0  0  0
    4.8494    1.8793    0.3369 H   0  0  0  0  0  0  0  0  0  0  0  0
    5.7496    0.6368    1.2246 H   0  0  0  0  0  0  0  0  0  0  0  0
    5.3925   -0.1217   -0.9827 H   0  0  0  0  0  0  0  0  0  0  0  0
    3.3572    1.1075   -1.5950 H   0  0  0  0  0  0  0  0  0  0  0  0
    3.3465   -0.5992   -1.9868 H   0  0  0  0  0  0  0  0  0  0  0  0
    2.0465    0.6336    0.4901 H   0  0  0  0  0  0  0  0  0  0  0  0
    2.1253   -1.0576    0.1768 H   0  0  0  0  0  0  0  0  0  0  0  0
    0.7984   -0.7724   -1.9354 H   0  0  0  0  0  0  0  0  0  0  0  0
    0.7971    0.9464   -1.7515 H   0  0  0  0  0  0  0  0  0  0  0  0
    0.7881   -2.4332   -0.2709 H   0  0  0  0  0  0  0  0  0  0  0  0
   -0.1829   -4.6513   -0.5083 H   0  0  0  0  0  0  0  0  0  0  0  0
   -2.6111   -4.9104   -0.7998 H   0  0  0  0  0  0  0  0  0  0  0  0
   -4.0494   -2.9191   -0.8345 H   0  0  0  0  0  0  0  0  0  0  0  0
   -3.0670    0.3650   -1.3163 H   0  0  0  0  0  0  0  0  0  0  0  0
   -4.3719   -0.6630   -0.7586 H   0  0  0  0  0  0  0  0  0  0  0  0
   -4.1816    0.8292    1.0642 H   0  0  0  0  0  0  0  0  0  0  0  0
   -3.1640   -0.4789    1.6153 H   0  0  0  0  0  0  0  0  0  0  0  0
   -3.2806    2.4732    2.2653 H   0  0  0  0  0  0  0  0  0  0  0  0
   -1.6326    4.2752    2.4441 H   0  0  0  0  0  0  0  0  0  0  0  0
    0.4761    4.1160    1.1889 H   0  0  0  0  0  0  0  0  0  0  0  0
    0.9439    2.1707   -0.1593 H   0  0  0  0  0  0  0  0  0  0  0  0
  1  2  1  0  0  0  0
  2  3  1  0  0  0  0
  3  4  1  0  0  0  0
  4  5  1  0  0  0  0
  5  6  1  0  0  0  0
  6  7  1  0  0  0  0
  7  8  2  0  0  0  0
  8  9  1  0  0  0  0
  9 10  2  0  0  0  0
 10 11  1  0  0  0  0
 11 12  2  0  0  0  0
 12 13  1  0  0  0  0
 13 14  1  0  0  0  0
 14 15  1  0  0  0  0
 15 16  2  0  0  0  0
 16 17  1  0  0  0  0
 17 18  2  0  0  0  0
 18 19  1  0  0  0  0
 19 20  2  0  0  0  0
 20  6  1  0  0  0  0
 12  7  1  0  0  0  0
 20 15  1  0  0  0  0
  1 21  1  0  0  0  0
  1 22  1  0  0  0  0
  1 23  1  0  0  0  0
  2 24  1  0  0  0  0
  3 25  1  0  0  0  0
  3 26  1  0  0  0  0
  4 27  1  0  0  0  0
  4 28  1  0  0  0  0
  5 29  1  0  0  0  0
  5 30  1  0  0  0  0
  8 31  1  0  0  0  0
  9 32  1  0  0  0  0
 10 33  1  0  0  0  0
 11 34  1  0  0  0  0
 13 35  1  0  0  0  0
 13 36  1  0  0  0  0
 14 37  1  0  0  0  0
 14 38  1  0  0  0  0
 16 39  1  0  0  0  0
 17 40  1  0  0  0  0
 18 41  1  0  0  0  0
 19 42  1  0  0  0  0
M  END
