
  xtb     03012221283D
 energy: -7.130464988264 gnorm: 0.000493563725 xtb: 6.4.1 (afa7bdf)
 31 33  0     0  0            999 V2000
    8.6854    1.7277   -0.1421 N   0  0  0  0  0  0  0  0  0  0  0  0
    7.5666    1.4430   -0.0114 C   0  0  0  0  0  0  0  0  0  0  0  0
    6.2159    1.0980    0.1448 C   0  0  0  0  0  0  0  0  0  0  0  0
    5.7578    0.5544    1.3377 C   0  0  0  0  0  0  0  0  0  0  0  0
    4.4330    0.2163    1.4900 C   0  0  0  0  0  0  0  0  0  0  0  0
    3.5259    0.4115    0.4546 C   0  0  0  0  0  0  0  0  0  0  0  0
    2.1714    0.0659    0.6086 C   0  0  0  0  0  0  0  0  0  0  0  0
    0.9940   -0.2326    0.7412 C   0  0  0  0  0  0  0  0  0  0  0  0
   -0.3628   -0.5746    0.8876 C   0  0  0  0  0  0  0  0  0  0  0  0
   -0.8247   -1.3229    1.8857 N   0  0  0  0  0  0  0  0  0  0  0  0
   -2.1327   -1.4295    1.6889 C   0  0  0  0  0  0  0  0  0  0  0  0
   -2.4962   -0.7278    0.5373 C   0  0  0  0  0  0  0  0  0  0  0  0
   -3.8314   -0.5812   -0.0421 C   0  0  0  0  0  0  0  0  0  0  0  0
   -4.9503   -1.2061    0.4999 C   0  0  0  0  0  0  0  0  0  0  0  0
   -6.1892   -1.0443   -0.0786 C   0  0  0  0  0  0  0  0  0  0  0  0
   -6.3317   -0.2583   -1.2039 C   0  0  0  0  0  0  0  0  0  0  0  0
   -5.2304    0.3670   -1.7515 C   0  0  0  0  0  0  0  0  0  0  0  0
   -3.9905    0.2061   -1.1754 C   0  0  0  0  0  0  0  0  0  0  0  0
   -1.3566   -0.1827    0.0291 O   0  0  0  0  0  0  0  0  0  0  0  0
    3.9877    0.9553   -0.7386 C   0  0  0  0  0  0  0  0  0  0  0  0
    5.3124    1.2936   -0.8914 C   0  0  0  0  0  0  0  0  0  0  0  0
    6.4563    0.4022    2.1426 H   0  0  0  0  0  0  0  0  0  0  0  0
    4.0825   -0.2053    2.4166 H   0  0  0  0  0  0  0  0  0  0  0  0
   -2.7933   -1.9783    2.3420 H   0  0  0  0  0  0  0  0  0  0  0  0
   -4.8410   -1.8211    1.3758 H   0  0  0  0  0  0  0  0  0  0  0  0
   -7.0498   -1.5334    0.3476 H   0  0  0  0  0  0  0  0  0  0  0  0
   -7.3024   -0.1335   -1.6547 H   0  0  0  0  0  0  0  0  0  0  0  0
   -5.3402    0.9807   -2.6303 H   0  0  0  0  0  0  0  0  0  0  0  0
   -3.1222    0.6869   -1.5929 H   0  0  0  0  0  0  0  0  0  0  0  0
    3.2911    1.1090   -1.5451 H   0  0  0  0  0  0  0  0  0  0  0  0
    5.6652    1.7142   -1.8174 H   0  0  0  0  0  0  0  0  0  0  0  0
  1  2  3  0  0  0  0
  2  3  1  0  0  0  0
  3  4  2  0  0  0  0
  4  5  1  0  0  0  0
  5  6  2  0  0  0  0
  6  7  1  0  0  0  0
  7  8  3  0  0  0  0
  8  9  1  0  0  0  0
  9 10  2  0  0  0  0
 10 11  1  0  0  0  0
 11 12  2  0  0  0  0
 12 13  1  0  0  0  0
 13 14  2  0  0  0  0
 14 15  1  0  0  0  0
 15 16  2  0  0  0  0
 16 17  1  0  0  0  0
 17 18  2  0  0  0  0
 12 19  1  0  0  0  0
  6 20  1  0  0  0  0
 20 21  2  0  0  0  0
 21  3  1  0  0  0  0
 19  9  1  0  0  0  0
 18 13  1  0  0  0  0
  4 22  1  0  0  0  0
  5 23  1  0  0  0  0
 11 24  1  0  0  0  0
 14 25  1  0  0  0  0
 15 26  1  0  0  0  0
 16 27  1  0  0  0  0
 17 28  1  0  0  0  0
 18 29  1  0  0  0  0
 20 30  1  0  0  0  0
 21 31  1  0  0  0  0
M  END
