
  xtb     03012221303D
 energy: -22.144964843446 gnorm: 0.000245861287 xtb: 6.4.1 (afa7bdf)
 99111  0     0  0            999 V2000
   -4.6468    4.7115   -0.1657 C   0  0  0  0  0  0  0  0  0  0  0  0
   -4.6004    4.1067    1.0749 C   0  0  0  0  0  0  0  0  0  0  0  0
   -4.9861    2.7920    1.2156 C   0  0  0  0  0  0  0  0  0  0  0  0
   -5.4215    2.0672    0.1143 C   0  0  0  0  0  0  0  0  0  0  0  0
   -5.8349    0.6918    0.2622 N   0  0  0  0  0  0  0  0  0  0  0  0
   -5.0511   -0.4742    0.1742 C   0  0  0  0  0  0  0  0  0  0  0  0
   -3.6224   -0.5445   -0.0947 C   0  0  0  0  0  0  0  0  0  0  0  0
   -2.8364    0.5829   -0.3416 C   0  0  0  0  0  0  0  0  0  0  0  0
   -1.4914    0.4690   -0.5809 C   0  0  0  0  0  0  0  0  0  0  0  0
   -0.8636   -0.7828   -0.5850 C   0  0  0  0  0  0  0  0  0  0  0  0
    0.5945   -0.9088   -0.8245 C   0  0  0  0  0  0  0  0  0  0  0  0
    1.4390   -1.4600    0.1751 C   0  0  0  0  0  0  0  0  0  0  0  0
    0.9251   -1.8647    1.4307 C   0  0  0  0  0  0  0  0  0  0  0  0
    1.7291   -2.4038    2.3869 C   0  0  0  0  0  0  0  0  0  0  0  0
    3.0976   -2.5694    2.1442 C   0  0  0  0  0  0  0  0  0  0  0  0
    3.6354   -2.1780    0.9571 C   0  0  0  0  0  0  0  0  0  0  0  0
    2.8366   -1.5981   -0.0589 C   0  0  0  0  0  0  0  0  0  0  0  0
    3.4034   -1.1729   -1.2867 C   0  0  0  0  0  0  0  0  0  0  0  0
    4.8626   -1.3133   -1.5235 C   0  0  0  0  0  0  0  0  0  0  0  0
    5.3579   -2.1482   -2.5311 C   0  0  0  0  0  0  0  0  0  0  0  0
    6.7143   -2.2845   -2.7289 C   0  0  0  0  0  0  0  0  0  0  0  0
    7.6048   -1.5984   -1.9311 C   0  0  0  0  0  0  0  0  0  0  0  0
    7.1447   -0.7596   -0.9217 C   0  0  0  0  0  0  0  0  0  0  0  0
    8.0644   -0.0414   -0.0833 N   0  0  0  0  0  0  0  0  0  0  0  0
    8.0220    1.3398    0.1946 C   0  0  0  0  0  0  0  0  0  0  0  0
    7.1658    2.3378   -0.2692 C   0  0  0  0  0  0  0  0  0  0  0  0
    7.3595    3.6271    0.1625 C   0  0  0  0  0  0  0  0  0  0  0  0
    8.3939    3.9421    1.0481 C   0  0  0  0  0  0  0  0  0  0  0  0
    9.2500    2.9709    1.5110 C   0  0  0  0  0  0  0  0  0  0  0  0
    9.0661    1.6569    1.0799 C   0  0  0  0  0  0  0  0  0  0  0  0
    9.7748    0.4298    1.3634 C   0  0  0  0  0  0  0  0  0  0  0  0
   10.8707    0.1437    2.1777 C   0  0  0  0  0  0  0  0  0  0  0  0
   11.3104   -1.1566    2.2576 C   0  0  0  0  0  0  0  0  0  0  0  0
   10.6753   -2.1761    1.5430 C   0  0  0  0  0  0  0  0  0  0  0  0
    9.5959   -1.9088    0.7368 C   0  0  0  0  0  0  0  0  0  0  0  0
    9.1415   -0.5943    0.6386 C   0  0  0  0  0  0  0  0  0  0  0  0
    5.7795   -0.6248   -0.7305 C   0  0  0  0  0  0  0  0  0  0  0  0
    2.5645   -0.6072   -2.2794 C   0  0  0  0  0  0  0  0  0  0  0  0
    3.0927   -0.1431   -3.5087 C   0  0  0  0  0  0  0  0  0  0  0  0
    2.2878    0.3847   -4.4709 C   0  0  0  0  0  0  0  0  0  0  0  0
    0.9069    0.4785   -4.2617 C   0  0  0  0  0  0  0  0  0  0  0  0
    0.3622    0.0570   -3.0881 C   0  0  0  0  0  0  0  0  0  0  0  0
    1.1640   -0.4816   -2.0531 C   0  0  0  0  0  0  0  0  0  0  0  0
   -1.6540   -1.9131   -0.3429 C   0  0  0  0  0  0  0  0  0  0  0  0
   -2.9988   -1.7931   -0.1046 C   0  0  0  0  0  0  0  0  0  0  0  0
   -5.7831   -1.5623    0.3792 N   0  0  0  0  0  0  0  0  0  0  0  0
   -7.0457   -1.1393    0.6020 C   0  0  0  0  0  0  0  0  0  0  0  0
   -8.2175   -1.9298    0.8808 C   0  0  0  0  0  0  0  0  0  0  0  0
   -8.1400   -3.3227    0.9435 C   0  0  0  0  0  0  0  0  0  0  0  0
   -9.2560   -4.0702    1.2096 C   0  0  0  0  0  0  0  0  0  0  0  0
  -10.4743   -3.4406    1.4189 C   0  0  0  0  0  0  0  0  0  0  0  0
  -10.5708   -2.0726    1.3616 C   0  0  0  0  0  0  0  0  0  0  0  0
   -9.4513   -1.2734    1.0920 C   0  0  0  0  0  0  0  0  0  0  0  0
   -9.5238    0.1912    1.0263 C   0  0  0  0  0  0  0  0  0  0  0  0
  -10.7235    0.8868    1.2312 C   0  0  0  0  0  0  0  0  0  0  0  0
  -10.7756    2.2563    1.1690 C   0  0  0  0  0  0  0  0  0  0  0  0
   -9.6305    2.9902    0.8990 C   0  0  0  0  0  0  0  0  0  0  0  0
   -8.4411    2.3457    0.6929 C   0  0  0  0  0  0  0  0  0  0  0  0
   -8.3596    0.9502    0.7504 C   0  0  0  0  0  0  0  0  0  0  0  0
   -7.1179    0.2532    0.5384 C   0  0  0  0  0  0  0  0  0  0  0  0
   -5.4672    2.6848   -1.1286 C   0  0  0  0  0  0  0  0  0  0  0  0
   -5.0808    3.9996   -1.2666 C   0  0  0  0  0  0  0  0  0  0  0  0
   -4.3450    5.7405   -0.2748 H   0  0  0  0  0  0  0  0  0  0  0  0
   -4.2626    4.6634    1.9334 H   0  0  0  0  0  0  0  0  0  0  0  0
   -4.9563    2.3079    2.1761 H   0  0  0  0  0  0  0  0  0  0  0  0
   -3.2925    1.5534   -0.3401 H   0  0  0  0  0  0  0  0  0  0  0  0
   -0.8953    1.3482   -0.7542 H   0  0  0  0  0  0  0  0  0  0  0  0
   -0.1238   -1.7312    1.6304 H   0  0  0  0  0  0  0  0  0  0  0  0
    1.3142   -2.7062    3.3345 H   0  0  0  0  0  0  0  0  0  0  0  0
    3.7251   -3.0052    2.9041 H   0  0  0  0  0  0  0  0  0  0  0  0
    4.6874   -2.3111    0.7784 H   0  0  0  0  0  0  0  0  0  0  0  0
    4.6611   -2.6928   -3.1445 H   0  0  0  0  0  0  0  0  0  0  0  0
    7.0810   -2.9311   -3.5091 H   0  0  0  0  0  0  0  0  0  0  0  0
    8.6653   -1.6925   -2.0858 H   0  0  0  0  0  0  0  0  0  0  0  0
    6.3779    2.0886   -0.9575 H   0  0  0  0  0  0  0  0  0  0  0  0
    6.7056    4.4087   -0.1876 H   0  0  0  0  0  0  0  0  0  0  0  0
    8.5229    4.9624    1.3704 H   0  0  0  0  0  0  0  0  0  0  0  0
   10.0503    3.2057    2.1902 H   0  0  0  0  0  0  0  0  0  0  0  0
   11.3498    0.9330    2.7294 H   0  0  0  0  0  0  0  0  0  0  0  0
   12.1548   -1.3950    2.8834 H   0  0  0  0  0  0  0  0  0  0  0  0
   11.0372   -3.1875    1.6287 H   0  0  0  0  0  0  0  0  0  0  0  0
    9.0948   -2.6892    0.1925 H   0  0  0  0  0  0  0  0  0  0  0  0
    5.4219    0.0168    0.0536 H   0  0  0  0  0  0  0  0  0  0  0  0
    4.1530   -0.2084   -3.6756 H   0  0  0  0  0  0  0  0  0  0  0  0
    2.7110    0.7291   -5.4001 H   0  0  0  0  0  0  0  0  0  0  0  0
    0.2764    0.8875   -5.0342 H   0  0  0  0  0  0  0  0  0  0  0  0
   -0.7015    0.1238   -2.9402 H   0  0  0  0  0  0  0  0  0  0  0  0
   -1.1891   -2.8836   -0.3543 H   0  0  0  0  0  0  0  0  0  0  0  0
   -3.5993   -2.6662    0.0808 H   0  0  0  0  0  0  0  0  0  0  0  0
   -7.1872   -3.7945    0.7787 H   0  0  0  0  0  0  0  0  0  0  0  0
   -9.1889   -5.1447    1.2565 H   0  0  0  0  0  0  0  0  0  0  0  0
  -11.3508   -4.0324    1.6282 H   0  0  0  0  0  0  0  0  0  0  0  0
  -11.5274   -1.6124    1.5280 H   0  0  0  0  0  0  0  0  0  0  0  0
  -11.6257    0.3428    1.4424 H   0  0  0  0  0  0  0  0  0  0  0  0
  -11.7111    2.7670    1.3309 H   0  0  0  0  0  0  0  0  0  0  0  0
   -9.6782    4.0657    0.8521 H   0  0  0  0  0  0  0  0  0  0  0  0
   -7.5537    2.9126    0.4843 H   0  0  0  0  0  0  0  0  0  0  0  0
   -5.8092    2.1183   -1.9770 H   0  0  0  0  0  0  0  0  0  0  0  0
   -5.1184    4.4730   -2.2338 H   0  0  0  0  0  0  0  0  0  0  0  0
  1  2  2  0  0  0  0
  2  3  1  0  0  0  0
  3  4  2  0  0  0  0
  4  5  1  0  0  0  0
  5  6  1  0  0  0  0
  6  7  1  0  0  0  0
  7  8  2  0  0  0  0
  8  9  1  0  0  0  0
  9 10  2  0  0  0  0
 10 11  1  0  0  0  0
 11 12  1  0  0  0  0
 12 13  2  0  0  0  0
 13 14  1  0  0  0  0
 14 15  2  0  0  0  0
 15 16  1  0  0  0  0
 16 17  2  0  0  0  0
 17 18  1  0  0  0  0
 18 19  1  0  0  0  0
 19 20  2  0  0  0  0
 20 21  1  0  0  0  0
 21 22  2  0  0  0  0
 22 23  1  0  0  0  0
 23 24  1  0  0  0  0
 24 25  1  0  0  0  0
 25 26  2  0  0  0  0
 26 27  1  0  0  0  0
 27 28  2  0  0  0  0
 28 29  1  0  0  0  0
 29 30  2  0  0  0  0
 30 31  1  0  0  0  0
 31 32  2  0  0  0  0
 32 33  1  0  0  0  0
 33 34  2  0  0  0  0
 34 35  1  0  0  0  0
 35 36  2  0  0  0  0
 23 37  2  0  0  0  0
 18 38  2  0  0  0  0
 38 39  1  0  0  0  0
 39 40  2  0  0  0  0
 40 41  1  0  0  0  0
 41 42  2  0  0  0  0
 42 43  1  0  0  0  0
 10 44  1  0  0  0  0
 44 45  2  0  0  0  0
  6 46  2  0  0  0  0
 46 47  1  0  0  0  0
 47 48  2  0  0  0  0
 48 49  1  0  0  0  0
 49 50  2  0  0  0  0
 50 51  1  0  0  0  0
 51 52  2  0  0  0  0
 52 53  1  0  0  0  0
 53 54  2  0  0  0  0
 54 55  1  0  0  0  0
 55 56  2  0  0  0  0
 56 57  1  0  0  0  0
 57 58  2  0  0  0  0
 58 59  1  0  0  0  0
 59 60  2  0  0  0  0
  4 61  1  0  0  0  0
 61 62  2  0  0  0  0
 62  1  1  0  0  0  0
 60  5  1  0  0  0  0
 45  7  1  0  0  0  0
 60 47  1  0  0  0  0
 43 11  2  0  0  0  0
 53 48  1  0  0  0  0
 59 54  1  0  0  0  0
 17 12  1  0  0  0  0
 37 19  1  0  0  0  0
 43 38  1  0  0  0  0
 36 24  1  0  0  0  0
 30 25  1  0  0  0  0
 36 31  1  0  0  0  0
  1 63  1  0  0  0  0
  2 64  1  0  0  0  0
  3 65  1  0  0  0  0
  8 66  1  0  0  0  0
  9 67  1  0  0  0  0
 13 68  1  0  0  0  0
 14 69  1  0  0  0  0
 15 70  1  0  0  0  0
 16 71  1  0  0  0  0
 20 72  1  0  0  0  0
 21 73  1  0  0  0  0
 22 74  1  0  0  0  0
 26 75  1  0  0  0  0
 27 76  1  0  0  0  0
 28 77  1  0  0  0  0
 29 78  1  0  0  0  0
 32 79  1  0  0  0  0
 33 80  1  0  0  0  0
 34 81  1  0  0  0  0
 35 82  1  0  0  0  0
 37 83  1  0  0  0  0
 39 84  1  0  0  0  0
 40 85  1  0  0  0  0
 41 86  1  0  0  0  0
 42 87  1  0  0  0  0
 44 88  1  0  0  0  0
 45 89  1  0  0  0  0
 49 90  1  0  0  0  0
 50 91  1  0  0  0  0
 51 92  1  0  0  0  0
 52 93  1  0  0  0  0
 55 94  1  0  0  0  0
 56 95  1  0  0  0  0
 57 96  1  0  0  0  0
 58 97  1  0  0  0  0
 61 98  1  0  0  0  0
 62 99  1  0  0  0  0
M  END
