
  xtb     03012221293D
 energy: -12.178171086333 gnorm: 0.000363896654 xtb: 6.4.1 (afa7bdf)
 65 68  0     0  0            999 V2000
   -3.8866    5.5839   -0.2699 C   0  0  0  0  0  0  0  0  0  0  0  0
   -4.0173    4.1530    0.1262 C   0  0  0  0  0  0  0  0  0  0  0  0
   -4.8341    3.8263    0.9585 O   0  0  0  0  0  0  0  0  0  0  0  0
   -3.1525    3.1396   -0.4977 C   0  0  0  0  0  0  0  0  0  0  0  0
   -2.1977    3.4651   -1.5009 C   0  0  0  0  0  0  0  0  0  0  0  0
   -1.4110    2.5092   -2.0427 C   0  0  0  0  0  0  0  0  0  0  0  0
   -1.5373    1.1981   -1.6257 N   0  0  0  0  0  0  0  0  0  0  0  0
   -0.8733    0.0301   -1.9687 C   0  0  0  0  0  0  0  0  0  0  0  0
   -1.3771   -1.0325   -1.2291 C   0  0  0  0  0  0  0  0  0  0  0  0
   -2.4001   -0.5528   -0.3999 C   0  0  0  0  0  0  0  0  0  0  0  0
   -3.2152   -1.3435    0.5307 C   0  0  0  0  0  0  0  0  0  0  0  0
   -2.6616   -2.4184    1.2243 C   0  0  0  0  0  0  0  0  0  0  0  0
   -3.4235   -3.1633    2.0954 C   0  0  0  0  0  0  0  0  0  0  0  0
   -4.7647   -2.8719    2.2986 C   0  0  0  0  0  0  0  0  0  0  0  0
   -5.5798   -3.6617    3.2634 C   0  0  0  0  0  0  0  0  0  0  0  0
   -5.3188   -1.8018    1.6110 C   0  0  0  0  0  0  0  0  0  0  0  0
   -4.5625   -1.0522    0.7394 C   0  0  0  0  0  0  0  0  0  0  0  0
   -2.4758    0.8456   -0.6562 C   0  0  0  0  0  0  0  0  0  0  0  0
   -3.2810    1.8398   -0.0836 C   0  0  0  0  0  0  0  0  0  0  0  0
   -0.6483   -2.2884   -1.6172 C   0  0  0  0  0  0  0  0  0  0  0  0
    0.3054   -1.7821   -2.6388 N   0  0  0  0  0  0  0  0  0  0  0  0
    1.3675   -2.5597   -3.2785 C   0  0  0  0  0  0  0  0  0  0  0  0
    2.7365   -2.0112   -2.9054 C   0  0  0  0  0  0  0  0  0  0  0  0
    2.9953   -2.0853   -1.4097 C   0  0  0  0  0  0  0  0  0  0  0  0
    4.2233   -1.4279   -1.0141 N   0  0  0  0  0  0  0  0  0  0  0  0
    4.2412   -0.5372    0.0436 C   0  0  0  0  0  0  0  0  0  0  0  0
    3.2409   -0.3798    0.7235 O   0  0  0  0  0  0  0  0  0  0  0  0
    5.4232    0.1285    0.2382 O   0  0  0  0  0  0  0  0  0  0  0  0
    5.3839    1.1140    1.3031 C   0  0  0  0  0  0  0  0  0  0  0  0
    6.7674    1.7761    1.3625 C   0  0  0  0  0  0  0  0  0  0  0  0
    4.3227    2.1762    0.9878 C   0  0  0  0  0  0  0  0  0  0  0  0
    5.0889    0.4267    2.6417 C   0  0  0  0  0  0  0  0  0  0  0  0
    0.2018   -0.4105   -2.8573 C   0  0  0  0  0  0  0  0  0  0  0  0
    0.8718    0.2761   -3.6074 O   0  0  0  0  0  0  0  0  0  0  0  0
   -4.1233    5.7224   -1.3247 H   0  0  0  0  0  0  0  0  0  0  0  0
   -4.5787    6.1915    0.3122 H   0  0  0  0  0  0  0  0  0  0  0  0
   -2.8779    5.9528   -0.0841 H   0  0  0  0  0  0  0  0  0  0  0  0
   -2.1012    4.4852   -1.8256 H   0  0  0  0  0  0  0  0  0  0  0  0
   -0.6752    2.7292   -2.7967 H   0  0  0  0  0  0  0  0  0  0  0  0
   -1.6205   -2.6488    1.0852 H   0  0  0  0  0  0  0  0  0  0  0  0
   -2.9785   -3.9831    2.6341 H   0  0  0  0  0  0  0  0  0  0  0  0
   -5.2162   -4.6868    3.3391 H   0  0  0  0  0  0  0  0  0  0  0  0
   -6.6243   -3.7032    2.9537 H   0  0  0  0  0  0  0  0  0  0  0  0
   -5.5407   -3.2161    4.2577 H   0  0  0  0  0  0  0  0  0  0  0  0
   -6.3572   -1.5609    1.7666 H   0  0  0  0  0  0  0  0  0  0  0  0
   -5.0167   -0.2472    0.1902 H   0  0  0  0  0  0  0  0  0  0  0  0
   -3.9841    1.6034    0.6923 H   0  0  0  0  0  0  0  0  0  0  0  0
   -0.1102   -2.7269   -0.7752 H   0  0  0  0  0  0  0  0  0  0  0  0
   -1.3192   -3.0310   -2.0529 H   0  0  0  0  0  0  0  0  0  0  0  0
    1.2686   -3.6036   -2.9742 H   0  0  0  0  0  0  0  0  0  0  0  0
    1.2040   -2.5208   -4.3584 H   0  0  0  0  0  0  0  0  0  0  0  0
    3.5323   -2.5343   -3.4481 H   0  0  0  0  0  0  0  0  0  0  0  0
    2.7963   -0.9621   -3.2200 H   0  0  0  0  0  0  0  0  0  0  0  0
    3.0183   -3.1247   -1.0640 H   0  0  0  0  0  0  0  0  0  0  0  0
    2.1768   -1.5990   -0.8646 H   0  0  0  0  0  0  0  0  0  0  0  0
    5.0259   -1.5144   -1.6365 H   0  0  0  0  0  0  0  0  0  0  0  0
    7.0017    2.2457    0.4090 H   0  0  0  0  0  0  0  0  0  0  0  0
    6.8100    2.5351    2.1422 H   0  0  0  0  0  0  0  0  0  0  0  0
    7.5343    1.0302    1.5630 H   0  0  0  0  0  0  0  0  0  0  0  0
    4.5310    2.6456    0.0282 H   0  0  0  0  0  0  0  0  0  0  0  0
    4.2963    2.9488    1.7546 H   0  0  0  0  0  0  0  0  0  0  0  0
    3.3370    1.7179    0.9261 H   0  0  0  0  0  0  0  0  0  0  0  0
    5.0898    1.1429    3.4619 H   0  0  0  0  0  0  0  0  0  0  0  0
    4.1150   -0.0583    2.6094 H   0  0  0  0  0  0  0  0  0  0  0  0
    5.8357   -0.3379    2.8472 H   0  0  0  0  0  0  0  0  0  0  0  0
  1  2  1  0  0  0  0
  2  3  2  0  0  0  0
  2  4  1  0  0  0  0
  4  5  1  0  0  0  0
  5  6  2  0  0  0  0
  6  7  1  0  0  0  0
  7  8  1  0  0  0  0
  8  9  2  0  0  0  0
  9 10  1  0  0  0  0
 10 11  1  0  0  0  0
 11 12  2  0  0  0  0
 12 13  1  0  0  0  0
 13 14  2  0  0  0  0
 14 15  1  0  0  0  0
 14 16  1  0  0  0  0
 16 17  2  0  0  0  0
 10 18  2  0  0  0  0
 18 19  1  0  0  0  0
  9 20  1  0  0  0  0
 20 21  1  0  0  0  0
 21 22  1  0  0  0  0
 22 23  1  0  0  0  0
 23 24  1  0  0  0  0
 24 25  1  0  0  0  0
 25 26  1  0  0  0  0
 26 27  2  0  0  0  0
 26 28  1  0  0  0  0
 28 29  1  0  0  0  0
 29 30  1  0  0  0  0
 29 31  1  0  0  0  0
 29 32  1  0  0  0  0
 21 33  1  0  0  0  0
 33 34  2  0  0  0  0
 19  4  2  0  0  0  0
 18  7  1  0  0  0  0
 33  8  1  0  0  0  0
 17 11  1  0  0  0  0
  1 35  1  0  0  0  0
  1 36  1  0  0  0  0
  1 37  1  0  0  0  0
  5 38  1  0  0  0  0
  6 39  1  0  0  0  0
 12 40  1  0  0  0  0
 13 41  1  0  0  0  0
 15 42  1  0  0  0  0
 15 43  1  0  0  0  0
 15 44  1  0  0  0  0
 16 45  1  0  0  0  0
 17 46  1  0  0  0  0
 19 47  1  0  0  0  0
 20 48  1  0  0  0  0
 20 49  1  0  0  0  0
 22 50  1  0  0  0  0
 22 51  1  0  0  0  0
 23 52  1  0  0  0  0
 23 53  1  0  0  0  0
 24 54  1  0  0  0  0
 24 55  1  0  0  0  0
 25 56  1  0  0  0  0
 30 57  1  0  0  0  0
 30 58  1  0  0  0  0
 30 59  1  0  0  0  0
 31 60  1  0  0  0  0
 31 61  1  0  0  0  0
 31 62  1  0  0  0  0
 32 63  1  0  0  0  0
 32 64  1  0  0  0  0
 32 65  1  0  0  0  0
M  END
