
  xtb     03012221273D
 energy: -4.747182940770 gnorm: 0.000659704437 xtb: 6.4.1 (afa7bdf)
 24 25  0     0  0            999 V2000
    5.4072   -0.3297    0.0046 C   0  0  0  0  0  0  0  0  0  0  0  0
    4.2281    0.3976    0.1135 O   0  0  0  0  0  0  0  0  0  0  0  0
    3.1597   -0.4394   -0.0241 C   0  0  0  0  0  0  0  0  0  0  0  0
    3.2685   -1.6354   -0.2141 O   0  0  0  0  0  0  0  0  0  0  0  0
    1.8189    0.1713    0.0675 C   0  0  0  0  0  0  0  0  0  0  0  0
    1.6122    1.4630    0.3037 N   0  0  0  0  0  0  0  0  0  0  0  0
    0.2922    1.6295    0.3109 C   0  0  0  0  0  0  0  0  0  0  0  0
   -0.5186    3.1566    0.5760 Cl  0  0  0  0  0  0  0  0  0  0  0  0
   -0.3391    0.4023    0.0715 C   0  0  0  0  0  0  0  0  0  0  0  0
   -1.7639    0.1139   -0.0098 C   0  0  0  0  0  0  0  0  0  0  0  0
   -2.7317    1.1019    0.1379 C   0  0  0  0  0  0  0  0  0  0  0  0
   -4.0680    0.7917    0.0516 C   0  0  0  0  0  0  0  0  0  0  0  0
   -4.4611   -0.5098   -0.1829 C   0  0  0  0  0  0  0  0  0  0  0  0
   -3.5128   -1.5011   -0.3315 C   0  0  0  0  0  0  0  0  0  0  0  0
   -2.1749   -1.1926   -0.2461 C   0  0  0  0  0  0  0  0  0  0  0  0
    0.6545   -0.5221   -0.0818 O   0  0  0  0  0  0  0  0  0  0  0  0
    5.4335   -1.0746    0.8040 H   0  0  0  0  0  0  0  0  0  0  0  0
    6.2556    0.3525    0.0914 H   0  0  0  0  0  0  0  0  0  0  0  0
    5.4200   -0.8308   -0.9669 H   0  0  0  0  0  0  0  0  0  0  0  0
   -2.4195    2.1133    0.3207 H   0  0  0  0  0  0  0  0  0  0  0  0
   -4.8086    1.5661    0.1672 H   0  0  0  0  0  0  0  0  0  0  0  0
   -5.5098   -0.7524   -0.2502 H   0  0  0  0  0  0  0  0  0  0  0  0
   -3.8200   -2.5176   -0.5151 H   0  0  0  0  0  0  0  0  0  0  0  0
   -1.4225   -1.9541   -0.3612 H   0  0  0  0  0  0  0  0  0  0  0  0
  1  2  1  0  0  0  0
  2  3  1  0  0  0  0
  3  4  2  0  0  0  0
  3  5  1  0  0  0  0
  5  6  2  0  0  0  0
  6  7  1  0  0  0  0
  7  8  1  0  0  0  0
  7  9  2  0  0  0  0
  9 10  1  0  0  0  0
 10 11  2  0  0  0  0
 11 12  1  0  0  0  0
 12 13  2  0  0  0  0
 13 14  1  0  0  0  0
 14 15  2  0  0  0  0
  9 16  1  0  0  0  0
 16  5  1  0  0  0  0
 15 10  1  0  0  0  0
  1 17  1  0  0  0  0
  1 18  1  0  0  0  0
  1 19  1  0  0  0  0
 11 20  1  0  0  0  0
 12 21  1  0  0  0  0
 13 22  1  0  0  0  0
 14 23  1  0  0  0  0
 15 24  1  0  0  0  0
M  END
