
  xtb     03012221283D
 energy: -7.083804306086 gnorm: 0.000175069329 xtb: 6.4.1 (afa7bdf)
 35 37  0     0  0            999 V2000
    5.4082   -1.1364    1.2981 C   0  0  0  0  0  0  0  0  0  0  0  0
    4.7696    0.2414    1.3675 C   0  0  0  0  0  0  0  0  0  0  0  0
    3.5104    0.3333    0.5567 C   0  0  0  0  0  0  0  0  0  0  0  0
    2.2788    0.0338    1.1226 C   0  0  0  0  0  0  0  0  0  0  0  0
    1.1304    0.0835    0.3677 C   0  0  0  0  0  0  0  0  0  0  0  0
    1.1688    0.4254   -0.9806 C   0  0  0  0  0  0  0  0  0  0  0  0
    0.0080    0.4716   -1.7722 N   0  0  0  0  0  0  0  0  0  0  0  0
   -1.3212    0.2254   -1.3860 C   0  0  0  0  0  0  0  0  0  0  0  0
   -2.3135    0.3060   -2.3821 C   0  0  0  0  0  0  0  0  0  0  0  0
   -3.6131    0.0811   -2.0764 C   0  0  0  0  0  0  0  0  0  0  0  0
   -3.9478   -0.2310   -0.7488 C   0  0  0  0  0  0  0  0  0  0  0  0
   -5.2739   -0.4796   -0.3379 C   0  0  0  0  0  0  0  0  0  0  0  0
   -5.5524   -0.7768    0.9637 C   0  0  0  0  0  0  0  0  0  0  0  0
   -4.5224   -0.8383    1.9063 C   0  0  0  0  0  0  0  0  0  0  0  0
   -3.2308   -0.6032    1.5353 C   0  0  0  0  0  0  0  0  0  0  0  0
   -2.8998   -0.2930    0.1994 C   0  0  0  0  0  0  0  0  0  0  0  0
   -1.6021   -0.0672   -0.1249 N   0  0  0  0  0  0  0  0  0  0  0  0
    2.4090    0.7171   -1.5467 C   0  0  0  0  0  0  0  0  0  0  0  0
    3.5577    0.6685   -0.7898 C   0  0  0  0  0  0  0  0  0  0  0  0
    6.3239   -1.1969    1.8914 H   0  0  0  0  0  0  0  0  0  0  0  0
    5.6630   -1.3999    0.2694 H   0  0  0  0  0  0  0  0  0  0  0  0
    4.7248   -1.9049    1.6652 H   0  0  0  0  0  0  0  0  0  0  0  0
    4.5461    0.5068    2.4082 H   0  0  0  0  0  0  0  0  0  0  0  0
    5.4749    1.0072    1.0213 H   0  0  0  0  0  0  0  0  0  0  0  0
    2.2309   -0.2419    2.1623 H   0  0  0  0  0  0  0  0  0  0  0  0
    0.1821   -0.1455    0.8130 H   0  0  0  0  0  0  0  0  0  0  0  0
    0.1505    0.7122   -2.7494 H   0  0  0  0  0  0  0  0  0  0  0  0
   -2.0239    0.5475   -3.3898 H   0  0  0  0  0  0  0  0  0  0  0  0
   -4.3830    0.1378   -2.8267 H   0  0  0  0  0  0  0  0  0  0  0  0
   -6.0641   -0.4310   -1.0670 H   0  0  0  0  0  0  0  0  0  0  0  0
   -6.5687   -0.9650    1.2692 H   0  0  0  0  0  0  0  0  0  0  0  0
   -4.7528   -1.0729    2.9326 H   0  0  0  0  0  0  0  0  0  0  0  0
   -2.4356   -0.6493    2.2582 H   0  0  0  0  0  0  0  0  0  0  0  0
    2.4577    0.9796   -2.5890 H   0  0  0  0  0  0  0  0  0  0  0  0
    4.5103    0.8886   -1.2408 H   0  0  0  0  0  0  0  0  0  0  0  0
  1  2  1  0  0  0  0
  2  3  1  0  0  0  0
  3  4  2  0  0  0  0
  4  5  1  0  0  0  0
  5  6  2  0  0  0  0
  6  7  1  0  0  0  0
  7  8  1  0  0  0  0
  8  9  2  0  0  0  0
  9 10  1  0  0  0  0
 10 11  2  0  0  0  0
 11 12  1  0  0  0  0
 12 13  2  0  0  0  0
 13 14  1  0  0  0  0
 14 15  2  0  0  0  0
 15 16  1  0  0  0  0
 16 17  2  0  0  0  0
  6 18  1  0  0  0  0
 18 19  2  0  0  0  0
 19  3  1  0  0  0  0
 17  8  1  0  0  0  0
 16 11  1  0  0  0  0
  1 20  1  0  0  0  0
  1 21  1  0  0  0  0
  1 22  1  0  0  0  0
  2 23  1  0  0  0  0
  2 24  1  0  0  0  0
  4 25  1  0  0  0  0
  5 26  1  0  0  0  0
  7 27  1  0  0  0  0
  9 28  1  0  0  0  0
 10 29  1  0  0  0  0
 12 30  1  0  0  0  0
 13 31  1  0  0  0  0
 14 32  1  0  0  0  0
 15 33  1  0  0  0  0
 18 34  1  0  0  0  0
 19 35  1  0  0  0  0
M  END
