
  xtb     03012221253D
 energy: -11.511434961862 gnorm: 0.000254951262 xtb: 6.4.1 (afa7bdf)
 56 60  0     0  0            999 V2000
   -5.4774   -2.8563   -0.3337 C   0  0  0  0  0  0  0  0  0  0  0  0
   -4.1905   -2.1477   -0.0984 C   0  0  0  0  0  0  0  0  0  0  0  0
   -4.1757   -0.8537    0.4043 C   0  0  0  0  0  0  0  0  0  0  0  0
   -2.9874   -0.1863    0.5964 C   0  0  0  0  0  0  0  0  0  0  0  0
   -1.7708   -0.7879    0.2805 C   0  0  0  0  0  0  0  0  0  0  0  0
   -0.5351   -0.1103    0.4858 N   0  0  0  0  0  0  0  0  0  0  0  0
   -0.3265    1.2879    0.6707 C   0  0  0  0  0  0  0  0  0  0  0  0
   -1.1861    2.3187    0.0982 C   0  0  0  0  0  0  0  0  0  0  0  0
   -1.8337    2.0890   -1.1131 C   0  0  0  0  0  0  0  0  0  0  0  0
   -2.6382    3.0486   -1.6844 C   0  0  0  0  0  0  0  0  0  0  0  0
   -2.8088    4.2691   -1.0556 C   0  0  0  0  0  0  0  0  0  0  0  0
   -2.1760    4.5274    0.1374 C   0  0  0  0  0  0  0  0  0  0  0  0
   -1.3547    3.5701    0.7382 C   0  0  0  0  0  0  0  0  0  0  0  0
   -0.7323    3.8412    1.9440 N   0  0  0  0  0  0  0  0  0  0  0  0
    0.7669    1.5397    1.3249 N   0  0  0  0  0  0  0  0  0  0  0  0
    1.4610    0.3442    1.6317 C   0  0  0  0  0  0  0  0  0  0  0  0
    2.9102    0.3956    1.1963 C   0  0  0  0  0  0  0  0  0  0  0  0
    3.2952    1.2263    0.1583 C   0  0  0  0  0  0  0  0  0  0  0  0
    4.5978    1.2295   -0.2935 C   0  0  0  0  0  0  0  0  0  0  0  0
    5.5314    0.3986    0.2880 C   0  0  0  0  0  0  0  0  0  0  0  0
    5.1581   -0.4330    1.3226 C   0  0  0  0  0  0  0  0  0  0  0  0
    3.8552   -0.4367    1.7751 C   0  0  0  0  0  0  0  0  0  0  0  0
    0.6579   -0.8270    0.9706 C   0  0  0  0  0  0  0  0  0  0  0  0
    1.3821   -1.5293   -0.1470 C   0  0  0  0  0  0  0  0  0  0  0  0
    2.0523   -2.7223    0.0757 C   0  0  0  0  0  0  0  0  0  0  0  0
    2.7404   -3.3381   -0.9490 C   0  0  0  0  0  0  0  0  0  0  0  0
    2.7684   -2.7693   -2.2052 C   0  0  0  0  0  0  0  0  0  0  0  0
    2.1057   -1.5821   -2.4358 C   0  0  0  0  0  0  0  0  0  0  0  0
    1.4176   -0.9670   -1.4115 C   0  0  0  0  0  0  0  0  0  0  0  0
   -1.7913   -2.0872   -0.2227 C   0  0  0  0  0  0  0  0  0  0  0  0
   -2.9810   -2.7518   -0.4140 C   0  0  0  0  0  0  0  0  0  0  0  0
   -6.2381   -2.5383    0.3807 H   0  0  0  0  0  0  0  0  0  0  0  0
   -5.3571   -3.9356   -0.2304 H   0  0  0  0  0  0  0  0  0  0  0  0
   -5.8525   -2.6537   -1.3378 H   0  0  0  0  0  0  0  0  0  0  0  0
   -5.1085   -0.3738    0.6434 H   0  0  0  0  0  0  0  0  0  0  0  0
   -2.9846    0.8091    1.0034 H   0  0  0  0  0  0  0  0  0  0  0  0
   -1.6940    1.1400   -1.6015 H   0  0  0  0  0  0  0  0  0  0  0  0
   -3.1342    2.8498   -2.6197 H   0  0  0  0  0  0  0  0  0  0  0  0
   -3.4393    5.0204   -1.5040 H   0  0  0  0  0  0  0  0  0  0  0  0
   -2.3085    5.4750    0.6281 H   0  0  0  0  0  0  0  0  0  0  0  0
    0.0211    3.2444    2.2669 H   0  0  0  0  0  0  0  0  0  0  0  0
   -0.6420    4.7847    2.2970 H   0  0  0  0  0  0  0  0  0  0  0  0
    1.4361    0.2344    2.7281 H   0  0  0  0  0  0  0  0  0  0  0  0
    2.5570    1.8648   -0.2929 H   0  0  0  0  0  0  0  0  0  0  0  0
    4.8843    1.8800   -1.1050 H   0  0  0  0  0  0  0  0  0  0  0  0
    6.5491    0.3980   -0.0660 H   0  0  0  0  0  0  0  0  0  0  0  0
    5.8861   -1.0869    1.7768 H   0  0  0  0  0  0  0  0  0  0  0  0
    3.5584   -1.0960    2.5717 H   0  0  0  0  0  0  0  0  0  0  0  0
    0.3380   -1.5602    1.7230 H   0  0  0  0  0  0  0  0  0  0  0  0
    2.0373   -3.1593    1.0589 H   0  0  0  0  0  0  0  0  0  0  0  0
    3.2608   -4.2649   -0.7658 H   0  0  0  0  0  0  0  0  0  0  0  0
    3.3086   -3.2503   -3.0038 H   0  0  0  0  0  0  0  0  0  0  0  0
    2.1280   -1.1324   -3.4157 H   0  0  0  0  0  0  0  0  0  0  0  0
    0.9022   -0.0382   -1.5795 H   0  0  0  0  0  0  0  0  0  0  0  0
   -0.8598   -2.5605   -0.4758 H   0  0  0  0  0  0  0  0  0  0  0  0
   -2.9828   -3.7503   -0.8148 H   0  0  0  0  0  0  0  0  0  0  0  0
  1  2  1  0  0  0  0
  2  3  2  0  0  0  0
  3  4  1  0  0  0  0
  4  5  2  0  0  0  0
  5  6  1  0  0  0  0
  6  7  1  0  0  0  0
  7  8  1  0  0  0  0
  8  9  2  0  0  0  0
  9 10  1  0  0  0  0
 10 11  2  0  0  0  0
 11 12  1  0  0  0  0
 12 13  2  0  0  0  0
 13 14  1  0  0  0  0
  7 15  2  0  0  0  0
 15 16  1  0  0  0  0
 16 17  1  0  0  0  0
 17 18  2  0  0  0  0
 18 19  1  0  0  0  0
 19 20  2  0  0  0  0
 20 21  1  0  0  0  0
 21 22  2  0  0  0  0
 16 23  1  0  0  0  0
 23 24  1  0  0  0  0
 24 25  2  0  0  0  0
 25 26  1  0  0  0  0
 26 27  2  0  0  0  0
 27 28  1  0  0  0  0
 28 29  2  0  0  0  0
  5 30  1  0  0  0  0
 30 31  2  0  0  0  0
 31  2  1  0  0  0  0
 23  6  1  0  0  0  0
 29 24  1  0  0  0  0
 13  8  1  0  0  0  0
 22 17  1  0  0  0  0
  1 32  1  0  0  0  0
  1 33  1  0  0  0  0
  1 34  1  0  0  0  0
  3 35  1  0  0  0  0
  4 36  1  0  0  0  0
  9 37  1  0  0  0  0
 10 38  1  0  0  0  0
 11 39  1  0  0  0  0
 12 40  1  0  0  0  0
 14 41  1  0  0  0  0
 14 42  1  0  0  0  0
 16 43  1  0  0  0  0
 18 44  1  0  0  0  0
 19 45  1  0  0  0  0
 20 46  1  0  0  0  0
 21 47  1  0  0  0  0
 22 48  1  0  0  0  0
 23 49  1  0  0  0  0
 25 50  1  0  0  0  0
 26 51  1  0  0  0  0
 27 52  1  0  0  0  0
 28 53  1  0  0  0  0
 29 54  1  0  0  0  0
 30 55  1  0  0  0  0
 31 56  1  0  0  0  0
M  END
