
  xtb     03012221293D
 energy: -16.095687661348 gnorm: 0.000290562374 xtb: 6.4.1 (afa7bdf)
 80 85  0     0  0            999 V2000
    7.8490    3.0120    0.0922 C   0  0  0  0  0  0  0  0  0  0  0  0
    7.3821    1.6227   -0.3004 C   0  0  0  0  0  0  0  0  0  0  0  0
    7.7225    0.5725    0.7554 C   0  0  0  0  0  0  0  0  0  0  0  0
    7.1929   -0.8165    0.4032 C   0  0  0  0  0  0  0  0  0  0  0  0
    7.3670   -1.8684    1.5141 C   0  0  0  0  0  0  0  0  0  0  0  0
    8.8387   -2.1283    1.8792 C   0  0  0  0  0  0  0  0  0  0  0  0
    9.6725   -2.6455    0.7187 C   0  0  0  0  0  0  0  0  0  0  0  0
    6.5459   -1.4967    2.7527 C   0  0  0  0  0  0  0  0  0  0  0  0
    5.1748   -1.1753    2.4090 N   0  0  0  0  0  0  0  0  0  0  0  0
    4.7683    0.1648    2.4882 C   0  0  0  0  0  0  0  0  0  0  0  0
    5.5356    1.0403    2.8508 O   0  0  0  0  0  0  0  0  0  0  0  0
    3.3913    0.4804    2.0978 C   0  0  0  0  0  0  0  0  0  0  0  0
    2.9275    1.7719    2.1642 C   0  0  0  0  0  0  0  0  0  0  0  0
    1.6248    2.0824    1.7856 C   0  0  0  0  0  0  0  0  0  0  0  0
    0.7817    1.1049    1.3383 C   0  0  0  0  0  0  0  0  0  0  0  0
    1.2087   -0.2355    1.2509 C   0  0  0  0  0  0  0  0  0  0  0  0
    0.3515   -1.2777    0.7843 C   0  0  0  0  0  0  0  0  0  0  0  0
   -0.9632   -1.0054    0.3834 C   0  0  0  0  0  0  0  0  0  0  0  0
   -2.1028   -0.7386    0.0287 C   0  0  0  0  0  0  0  0  0  0  0  0
   -3.4051   -0.4123   -0.3858 C   0  0  0  0  0  0  0  0  0  0  0  0
   -4.0357    0.7333    0.0926 C   0  0  0  0  0  0  0  0  0  0  0  0
   -5.3074    1.0571   -0.3176 C   0  0  0  0  0  0  0  0  0  0  0  0
   -5.9955    0.2487   -1.2211 C   0  0  0  0  0  0  0  0  0  0  0  0
   -7.3163    0.5895   -1.6531 N   0  0  0  0  0  0  0  0  0  0  0  0
   -7.7026    1.9660   -1.7818 C   0  0  0  0  0  0  0  0  0  0  0  0
   -8.9878    2.3778   -1.4383 C   0  0  0  0  0  0  0  0  0  0  0  0
   -9.3608    3.6966   -1.5669 C   0  0  0  0  0  0  0  0  0  0  0  0
   -8.4584    4.6284   -2.0418 C   0  0  0  0  0  0  0  0  0  0  0  0
   -7.1805    4.2353   -2.3890 C   0  0  0  0  0  0  0  0  0  0  0  0
   -6.8052    2.9171   -2.2613 C   0  0  0  0  0  0  0  0  0  0  0  0
   -8.2600   -0.4434   -1.9746 C   0  0  0  0  0  0  0  0  0  0  0  0
   -8.3238   -1.6115   -1.2189 C   0  0  0  0  0  0  0  0  0  0  0  0
   -9.2299   -2.6003   -1.5292 C   0  0  0  0  0  0  0  0  0  0  0  0
  -10.0894   -2.4410   -2.5988 C   0  0  0  0  0  0  0  0  0  0  0  0
  -10.0399   -1.2873   -3.3569 C   0  0  0  0  0  0  0  0  0  0  0  0
   -9.1350   -0.2971   -3.0481 C   0  0  0  0  0  0  0  0  0  0  0  0
   -5.3618   -0.8987   -1.6960 C   0  0  0  0  0  0  0  0  0  0  0  0
   -4.0901   -1.2233   -1.2867 C   0  0  0  0  0  0  0  0  0  0  0  0
    0.8370   -2.5672    0.7250 C   0  0  0  0  0  0  0  0  0  0  0  0
    2.1376   -2.8699    1.1053 C   0  0  0  0  0  0  0  0  0  0  0  0
    2.9890   -1.8891    1.5565 C   0  0  0  0  0  0  0  0  0  0  0  0
    2.5335   -0.5503    1.6379 C   0  0  0  0  0  0  0  0  0  0  0  0
    4.3633   -2.2181    1.9412 C   0  0  0  0  0  0  0  0  0  0  0  0
    4.7907   -3.3559    1.8424 O   0  0  0  0  0  0  0  0  0  0  0  0
    7.5988    3.7603   -0.6648 H   0  0  0  0  0  0  0  0  0  0  0  0
    8.9317    3.0399    0.2371 H   0  0  0  0  0  0  0  0  0  0  0  0
    7.3899    3.3296    1.0319 H   0  0  0  0  0  0  0  0  0  0  0  0
    7.8199    1.3292   -1.2633 H   0  0  0  0  0  0  0  0  0  0  0  0
    6.2970    1.6259   -0.4680 H   0  0  0  0  0  0  0  0  0  0  0  0
    8.8070    0.5378    0.9075 H   0  0  0  0  0  0  0  0  0  0  0  0
    7.3064    0.8925    1.7167 H   0  0  0  0  0  0  0  0  0  0  0  0
    6.1253   -0.7346    0.1678 H   0  0  0  0  0  0  0  0  0  0  0  0
    7.6635   -1.1633   -0.5230 H   0  0  0  0  0  0  0  0  0  0  0  0
    6.9472   -2.8159    1.1337 H   0  0  0  0  0  0  0  0  0  0  0  0
    8.8754   -2.8438    2.7104 H   0  0  0  0  0  0  0  0  0  0  0  0
    9.2749   -1.2070    2.2813 H   0  0  0  0  0  0  0  0  0  0  0  0
    9.7320   -1.9156   -0.0896 H   0  0  0  0  0  0  0  0  0  0  0  0
   10.6960   -2.8751    1.0221 H   0  0  0  0  0  0  0  0  0  0  0  0
    9.2425   -3.5571    0.3010 H   0  0  0  0  0  0  0  0  0  0  0  0
    6.9836   -0.6360    3.2648 H   0  0  0  0  0  0  0  0  0  0  0  0
    6.5319   -2.3191    3.4743 H   0  0  0  0  0  0  0  0  0  0  0  0
    3.5944    2.5397    2.5167 H   0  0  0  0  0  0  0  0  0  0  0  0
    1.2815    3.1018    1.8466 H   0  0  0  0  0  0  0  0  0  0  0  0
   -0.2241    1.3496    1.0461 H   0  0  0  0  0  0  0  0  0  0  0  0
   -3.5123    1.3628    0.7908 H   0  0  0  0  0  0  0  0  0  0  0  0
   -5.7942    1.9370    0.0649 H   0  0  0  0  0  0  0  0  0  0  0  0
   -9.6833    1.6480   -1.0622 H   0  0  0  0  0  0  0  0  0  0  0  0
  -10.3579    4.0027   -1.2960 H   0  0  0  0  0  0  0  0  0  0  0  0
   -8.7511    5.6604   -2.1423 H   0  0  0  0  0  0  0  0  0  0  0  0
   -6.4774    4.9615   -2.7626 H   0  0  0  0  0  0  0  0  0  0  0  0
   -5.8153    2.6025   -2.5419 H   0  0  0  0  0  0  0  0  0  0  0  0
   -7.6589   -1.7246   -0.3805 H   0  0  0  0  0  0  0  0  0  0  0  0
   -9.2695   -3.4991   -0.9361 H   0  0  0  0  0  0  0  0  0  0  0  0
  -10.7978   -3.2158   -2.8414 H   0  0  0  0  0  0  0  0  0  0  0  0
  -10.7094   -1.1631   -4.1922 H   0  0  0  0  0  0  0  0  0  0  0  0
   -9.0854    0.6005   -3.6394 H   0  0  0  0  0  0  0  0  0  0  0  0
   -5.8807   -1.5221   -2.4028 H   0  0  0  0  0  0  0  0  0  0  0  0
   -3.6070   -2.1085   -1.6617 H   0  0  0  0  0  0  0  0  0  0  0  0
    0.1865   -3.3496    0.3726 H   0  0  0  0  0  0  0  0  0  0  0  0
    2.5036   -3.8803    1.0512 H   0  0  0  0  0  0  0  0  0  0  0  0
  1  2  1  0  0  0  0
  2  3  1  0  0  0  0
  3  4  1  0  0  0  0
  4  5  1  0  0  0  0
  5  6  1  0  0  0  0
  6  7  1  0  0  0  0
  5  8  1  0  0  0  0
  8  9  1  0  0  0  0
  9 10  1  0  0  0  0
 10 11  2  0  0  0  0
 10 12  1  0  0  0  0
 12 13  1  0  0  0  0
 13 14  2  0  0  0  0
 14 15  1  0  0  0  0
 15 16  2  0  0  0  0
 16 17  1  0  0  0  0
 17 18  1  0  0  0  0
 18 19  3  0  0  0  0
 19 20  1  0  0  0  0
 20 21  2  0  0  0  0
 21 22  1  0  0  0  0
 22 23  2  0  0  0  0
 23 24  1  0  0  0  0
 24 25  1  0  0  0  0
 25 26  2  0  0  0  0
 26 27  1  0  0  0  0
 27 28  2  0  0  0  0
 28 29  1  0  0  0  0
 29 30  2  0  0  0  0
 24 31  1  0  0  0  0
 31 32  2  0  0  0  0
 32 33  1  0  0  0  0
 33 34  2  0  0  0  0
 34 35  1  0  0  0  0
 35 36  2  0  0  0  0
 23 37  1  0  0  0  0
 37 38  2  0  0  0  0
 17 39  2  0  0  0  0
 39 40  1  0  0  0  0
 40 41  2  0  0  0  0
 41 42  1  0  0  0  0
 41 43  1  0  0  0  0
 43 44  2  0  0  0  0
 43  9  1  0  0  0  0
 42 12  2  0  0  0  0
 42 16  1  0  0  0  0
 38 20  1  0  0  0  0
 30 25  1  0  0  0  0
 36 31  1  0  0  0  0
  1 45  1  0  0  0  0
  1 46  1  0  0  0  0
  1 47  1  0  0  0  0
  2 48  1  0  0  0  0
  2 49  1  0  0  0  0
  3 50  1  0  0  0  0
  3 51  1  0  0  0  0
  4 52  1  0  0  0  0
  4 53  1  0  0  0  0
  5 54  1  0  0  0  0
  6 55  1  0  0  0  0
  6 56  1  0  0  0  0
  7 57  1  0  0  0  0
  7 58  1  0  0  0  0
  7 59  1  0  0  0  0
  8 60  1  0  0  0  0
  8 61  1  0  0  0  0
 13 62  1  0  0  0  0
 14 63  1  0  0  0  0
 15 64  1  0  0  0  0
 21 65  1  0  0  0  0
 22 66  1  0  0  0  0
 26 67  1  0  0  0  0
 27 68  1  0  0  0  0
 28 69  1  0  0  0  0
 29 70  1  0  0  0  0
 30 71  1  0  0  0  0
 32 72  1  0  0  0  0
 33 73  1  0  0  0  0
 34 74  1  0  0  0  0
 35 75  1  0  0  0  0
 36 76  1  0  0  0  0
 37 77  1  0  0  0  0
 38 78  1  0  0  0  0
 39 79  1  0  0  0  0
 40 80  1  0  0  0  0
M  END
