
  xtb     03012221273D
 energy: -3.112121252633 gnorm: 0.000408747158 xtb: 6.4.1 (afa7bdf)
 16 17  0     0  0            999 V2000
    2.8913   -0.3312   -0.5218 C   0  0  0  0  0  0  0  0  0  0  0  0
    3.1807   -0.2721    0.7965 C   0  0  0  0  0  0  0  0  0  0  0  0
    1.7437   -0.0620    1.7326 S   0  0  0  0  0  0  0  0  0  0  0  0
    0.7273   -0.0535    0.3114 C   0  0  0  0  0  0  0  0  0  0  0  0
   -0.7107    0.0956    0.3383 C   0  0  0  0  0  0  0  0  0  0  0  0
   -1.5422    0.1078   -0.7454 C   0  0  0  0  0  0  0  0  0  0  0  0
   -2.9151    0.2707   -0.4133 C   0  0  0  0  0  0  0  0  0  0  0  0
   -3.1373    0.3829    0.9146 C   0  0  0  0  0  0  0  0  0  0  0  0
   -1.6540    0.2903    1.7960 S   0  0  0  0  0  0  0  0  0  0  0  0
    1.5029   -0.2079   -0.8023 C   0  0  0  0  0  0  0  0  0  0  0  0
    3.6393   -0.4595   -1.2908 H   0  0  0  0  0  0  0  0  0  0  0  0
    4.1634   -0.3441    1.2228 H   0  0  0  0  0  0  0  0  0  0  0  0
   -1.1901    0.0035   -1.7596 H   0  0  0  0  0  0  0  0  0  0  0  0
   -3.7013    0.3014   -1.1536 H   0  0  0  0  0  0  0  0  0  0  0  0
   -4.0974    0.5123    1.3770 H   0  0  0  0  0  0  0  0  0  0  0  0
    1.0996   -0.2339   -1.8024 H   0  0  0  0  0  0  0  0  0  0  0  0
  1  2  2  0  0  0  0
  2  3  1  0  0  0  0
  3  4  1  0  0  0  0
  4  5  1  0  0  0  0
  5  6  2  0  0  0  0
  6  7  1  0  0  0  0
  7  8  2  0  0  0  0
  8  9  1  0  0  0  0
  4 10  2  0  0  0  0
 10  1  1  0  0  0  0
  9  5  1  0  0  0  0
  1 11  1  0  0  0  0
  2 12  1  0  0  0  0
  6 13  1  0  0  0  0
  7 14  1  0  0  0  0
  8 15  1  0  0  0  0
 10 16  1  0  0  0  0
M  END
