
  xtb     03012221233D
 energy: -11.303721394958 gnorm: 0.000252487104 xtb: 6.4.1 (afa7bdf)
 57 61  0     0  0            999 V2000
   -8.0097    2.5090    0.0779 C   0  0  0  0  0  0  0  0  0  0  0  0
   -6.7546    2.0438   -0.2991 O   0  0  0  0  0  0  0  0  0  0  0  0
   -6.0729    1.6242    0.8068 C   0  0  0  0  0  0  0  0  0  0  0  0
   -6.5241    1.6652    1.9368 O   0  0  0  0  0  0  0  0  0  0  0  0
   -4.7084    1.0943    0.5798 C   0  0  0  0  0  0  0  0  0  0  0  0
   -4.1729    1.0432   -0.6987 C   0  0  0  0  0  0  0  0  0  0  0  0
   -2.9085    0.5500   -0.9059 C   0  0  0  0  0  0  0  0  0  0  0  0
   -2.1376    0.0905    0.1667 C   0  0  0  0  0  0  0  0  0  0  0  0
   -0.7731   -0.4452   -0.0535 C   0  0  0  0  0  0  0  0  0  0  0  0
   -0.5567   -1.7657   -0.4911 C   0  0  0  0  0  0  0  0  0  0  0  0
   -1.4595   -2.8308   -0.7864 C   0  0  0  0  0  0  0  0  0  0  0  0
   -2.9387   -2.7890   -0.7077 C   0  0  0  0  0  0  0  0  0  0  0  0
   -0.6978   -3.9204   -1.1734 C   0  0  0  0  0  0  0  0  0  0  0  0
    0.6671   -3.5698   -1.1220 C   0  0  0  0  0  0  0  0  0  0  0  0
    1.8473   -4.3989   -1.4258 C   0  0  0  0  0  0  0  0  0  0  0  0
    0.7059   -2.2989   -0.7129 N   0  0  0  0  0  4  0  0  0  0  0  0
    2.0045   -1.5282   -0.5060 B   0  0  0  0  0  4  0  0  0  0  0  0
    2.6824   -1.4430   -1.7146 F   0  0  0  0  0  0  0  0  0  0  0  0
    2.7682   -2.1691    0.4603 F   0  0  0  0  0  0  0  0  0  0  0  0
    1.6542   -0.1256   -0.0239 N   0  0  0  0  0  0  0  0  0  0  0  0
    2.6041    0.8112    0.2521 C   0  0  0  0  0  0  0  0  0  0  0  0
    3.9903    0.5989    0.1438 C   0  0  0  0  0  0  0  0  0  0  0  0
    4.9445    1.5302    0.4147 C   0  0  0  0  0  0  0  0  0  0  0  0
    6.3239    1.2421    0.2854 C   0  0  0  0  0  0  0  0  0  0  0  0
    7.3848    2.1222    0.5397 C   0  0  0  0  0  0  0  0  0  0  0  0
    8.5147    1.4320    0.2905 N   0  0  0  0  0  0  0  0  0  0  0  0
    8.1305    0.1637   -0.1049 C   0  0  0  0  0  0  0  0  0  0  0  0
    6.8329    0.0297   -0.1149 N   0  0  0  0  0  0  0  0  0  0  0  0
    1.8790    1.9764    0.6492 C   0  0  0  0  0  0  0  0  0  0  0  0
    0.5357    1.7070    0.5938 C   0  0  0  0  0  0  0  0  0  0  0  0
   -0.5506    2.6550    0.9346 C   0  0  0  0  0  0  0  0  0  0  0  0
    0.3791    0.3377    0.1652 C   0  0  0  0  0  0  0  0  0  0  0  0
   -2.6867    0.1469    1.4516 C   0  0  0  0  0  0  0  0  0  0  0  0
   -3.9519    0.6414    1.6503 C   0  0  0  0  0  0  0  0  0  0  0  0
   -8.5500    2.8465   -0.8088 H   0  0  0  0  0  0  0  0  0  0  0  0
   -8.5562    1.6982    0.5650 H   0  0  0  0  0  0  0  0  0  0  0  0
   -7.8843    3.3371    0.7794 H   0  0  0  0  0  0  0  0  0  0  0  0
   -4.7680    1.3979   -1.5219 H   0  0  0  0  0  0  0  0  0  0  0  0
   -2.4929    0.5134   -1.8975 H   0  0  0  0  0  0  0  0  0  0  0  0
   -3.3511   -2.1526   -1.4905 H   0  0  0  0  0  0  0  0  0  0  0  0
   -3.3655   -3.7850   -0.8260 H   0  0  0  0  0  0  0  0  0  0  0  0
   -3.2665   -2.3982    0.2555 H   0  0  0  0  0  0  0  0  0  0  0  0
   -1.0832   -4.8824   -1.4631 H   0  0  0  0  0  0  0  0  0  0  0  0
    2.7516   -3.7903   -1.3793 H   0  0  0  0  0  0  0  0  0  0  0  0
    1.7773   -4.8290   -2.4246 H   0  0  0  0  0  0  0  0  0  0  0  0
    1.9488   -5.2097   -0.7048 H   0  0  0  0  0  0  0  0  0  0  0  0
    4.3099   -0.3772   -0.1769 H   0  0  0  0  0  0  0  0  0  0  0  0
    4.6532    2.5124    0.7367 H   0  0  0  0  0  0  0  0  0  0  0  0
    7.3166    3.1462    0.8689 H   0  0  0  0  0  0  0  0  0  0  0  0
    9.4793    1.7649    0.3734 H   0  0  0  0  0  0  0  0  0  0  0  0
    8.8124   -0.6308   -0.3758 H   0  0  0  0  0  0  0  0  0  0  0  0
    2.3137    2.9157    0.9411 H   0  0  0  0  0  0  0  0  0  0  0  0
   -0.1672    3.6705    1.0339 H   0  0  0  0  0  0  0  0  0  0  0  0
   -1.3175    2.6629    0.1604 H   0  0  0  0  0  0  0  0  0  0  0  0
   -1.0229    2.3809    1.8777 H   0  0  0  0  0  0  0  0  0  0  0  0
   -2.1026   -0.2073    2.2826 H   0  0  0  0  0  0  0  0  0  0  0  0
   -4.3805    0.6863    2.6364 H   0  0  0  0  0  0  0  0  0  0  0  0
  1  2  1  0  0  0  0
  2  3  1  0  0  0  0
  3  4  2  0  0  0  0
  3  5  1  0  0  0  0
  5  6  2  0  0  0  0
  6  7  1  0  0  0  0
  7  8  2  0  0  0  0
  8  9  1  0  0  0  0
  9 10  2  0  0  0  0
 10 11  1  0  0  0  0
 11 12  1  0  0  0  0
 11 13  2  0  0  0  0
 13 14  1  0  0  0  0
 14 15  1  0  0  0  0
 14 16  2  0  0  0  0
 16 17  1  0  0  0  0
 17 18  1  0  0  0  0
 17 19  1  0  0  0  0
 17 20  1  0  0  0  0
 20 21  1  0  0  0  0
 21 22  1  0  0  0  0
 22 23  2  0  0  0  0
 23 24  1  0  0  0  0
 24 25  2  0  0  0  0
 25 26  1  0  0  0  0
 26 27  1  0  0  0  0
 27 28  2  0  0  0  0
 21 29  2  0  0  0  0
 29 30  1  0  0  0  0
 30 31  1  0  0  0  0
 30 32  2  0  0  0  0
  8 33  1  0  0  0  0
 33 34  2  0  0  0  0
 34  5  1  0  0  0  0
 32  9  1  0  0  0  0
 16 10  1  0  0  0  0
 32 20  1  0  0  0  0
 28 24  1  0  0  0  0
  1 35  1  0  0  0  0
  1 36  1  0  0  0  0
  1 37  1  0  0  0  0
  6 38  1  0  0  0  0
  7 39  1  0  0  0  0
 12 40  1  0  0  0  0
 12 41  1  0  0  0  0
 12 42  1  0  0  0  0
 13 43  1  0  0  0  0
 15 44  1  0  0  0  0
 15 45  1  0  0  0  0
 15 46  1  0  0  0  0
 22 47  1  0  0  0  0
 23 48  1  0  0  0  0
 25 49  1  0  0  0  0
 26 50  1  0  0  0  0
 27 51  1  0  0  0  0
 29 52  1  0  0  0  0
 31 53  1  0  0  0  0
 31 54  1  0  0  0  0
 31 55  1  0  0  0  0
 33 56  1  0  0  0  0
 34 57  1  0  0  0  0
M  CHG  1  16   1
M  CHG  1  17  -1
M  END
