
  xtb     03012221233D
 energy: -14.978472825868 gnorm: 0.000212346251 xtb: 6.4.1 (afa7bdf)
 77 82  0     0  0            999 V2000
    8.8961    1.3463   -2.1968 C   0  0  0  0  0  0  0  0  0  0  0  0
    9.6998    0.2213   -1.7083 N   0  0  0  0  0  0  0  0  0  0  0  0
   10.3207    0.4891   -0.3821 C   0  0  0  0  0  0  0  0  0  0  0  0
    9.4204    0.0183    0.7563 C   0  0  0  0  0  0  0  0  0  0  0  0
    8.0409   -0.1736    0.2877 N   0  0  0  0  0  0  0  0  0  0  0  0
    6.9748    0.6809    0.6655 C   0  0  0  0  0  0  0  0  0  0  0  0
    7.2127    1.9754    1.1344 C   0  0  0  0  0  0  0  0  0  0  0  0
    6.1680    2.7967    1.4945 C   0  0  0  0  0  0  0  0  0  0  0  0
    4.8678    2.3524    1.3954 C   0  0  0  0  0  0  0  0  0  0  0  0
    4.5858    1.0668    0.9264 C   0  0  0  0  0  0  0  0  0  0  0  0
    3.2079    0.6241    0.8261 C   0  0  0  0  0  0  0  0  0  0  0  0
    2.7947   -0.5239    0.2697 C   0  0  0  0  0  0  0  0  0  0  0  0
    1.4027   -0.8684    0.2072 C   0  0  0  0  0  0  0  0  0  0  0  0
    0.9392   -1.9792   -0.3680 N   0  0  0  0  0  0  0  0  0  0  0  0
   -0.3791   -1.9350   -0.2302 C   0  0  0  0  0  0  0  0  0  0  0  0
   -0.7488   -0.7683    0.4486 C   0  0  0  0  0  0  0  0  0  0  0  0
   -2.0965   -0.3353    0.8043 C   0  0  0  0  0  0  0  0  0  0  0  0
   -2.2588    0.7886    1.6006 C   0  0  0  0  0  0  0  0  0  0  0  0
   -3.5146    1.2302    1.9544 C   0  0  0  0  0  0  0  0  0  0  0  0
   -4.6516    0.5642    1.5177 C   0  0  0  0  0  0  0  0  0  0  0  0
   -5.9563    0.9643    1.8639 O   0  0  0  0  0  0  0  0  0  0  0  0
   -6.2386    2.3432    1.6193 C   0  0  0  0  0  0  0  0  0  0  0  0
   -6.2647    2.7048    0.1657 C   0  0  0  0  0  0  0  0  0  0  0  0
   -6.2783    4.0330   -0.2280 C   0  0  0  0  0  0  0  0  0  0  0  0
   -6.3269    4.3661   -1.5662 C   0  0  0  0  0  0  0  0  0  0  0  0
   -6.3672    3.3747   -2.5242 C   0  0  0  0  0  0  0  0  0  0  0  0
   -6.3590    2.0498   -2.1427 C   0  0  0  0  0  0  0  0  0  0  0  0
   -6.3103    1.7199   -0.8044 C   0  0  0  0  0  0  0  0  0  0  0  0
   -4.5014   -0.5835    0.6921 C   0  0  0  0  0  0  0  0  0  0  0  0
   -5.6746   -1.1982    0.2286 O   0  0  0  0  0  0  0  0  0  0  0  0
   -5.5638   -2.6051    0.0171 C   0  0  0  0  0  0  0  0  0  0  0  0
   -6.8933   -3.2867    0.0895 C   0  0  0  0  0  0  0  0  0  0  0  0
   -7.0819   -4.5518   -0.4415 C   0  0  0  0  0  0  0  0  0  0  0  0
   -8.3096   -5.1739   -0.3443 C   0  0  0  0  0  0  0  0  0  0  0  0
   -9.3576   -4.5381    0.2889 C   0  0  0  0  0  0  0  0  0  0  0  0
   -9.1780   -3.2807    0.8267 C   0  0  0  0  0  0  0  0  0  0  0  0
   -7.9491   -2.6623    0.7280 C   0  0  0  0  0  0  0  0  0  0  0  0
   -3.2294   -1.0118    0.3573 C   0  0  0  0  0  0  0  0  0  0  0  0
    0.3990   -0.0892    0.7279 O   0  0  0  0  0  0  0  0  0  0  0  0
    5.6540    0.2478    0.5706 C   0  0  0  0  0  0  0  0  0  0  0  0
    7.8992   -1.2108   -0.7539 C   0  0  0  0  0  0  0  0  0  0  0  0
    9.0083   -1.1051   -1.7981 C   0  0  0  0  0  0  0  0  0  0  0  0
    8.5336    1.1385   -3.2016 H   0  0  0  0  0  0  0  0  0  0  0  0
    9.4955    2.2540   -2.2306 H   0  0  0  0  0  0  0  0  0  0  0  0
    8.0408    1.5133   -1.5461 H   0  0  0  0  0  0  0  0  0  0  0  0
   10.5159    1.5623   -0.3032 H   0  0  0  0  0  0  0  0  0  0  0  0
   11.2980   -0.0023   -0.3528 H   0  0  0  0  0  0  0  0  0  0  0  0
    9.4378    0.7029    1.6099 H   0  0  0  0  0  0  0  0  0  0  0  0
    9.7664   -0.9458    1.1453 H   0  0  0  0  0  0  0  0  0  0  0  0
    8.2216    2.3434    1.1842 H   0  0  0  0  0  0  0  0  0  0  0  0
    6.3677    3.7937    1.8507 H   0  0  0  0  0  0  0  0  0  0  0  0
    4.0534    2.9985    1.6760 H   0  0  0  0  0  0  0  0  0  0  0  0
    2.4511    1.2800    1.2206 H   0  0  0  0  0  0  0  0  0  0  0  0
    3.4956   -1.2122   -0.1630 H   0  0  0  0  0  0  0  0  0  0  0  0
   -1.0448   -2.7026   -0.5925 H   0  0  0  0  0  0  0  0  0  0  0  0
   -1.3795    1.3073    1.9422 H   0  0  0  0  0  0  0  0  0  0  0  0
   -3.6219    2.0840    2.5979 H   0  0  0  0  0  0  0  0  0  0  0  0
   -7.2172    2.5460    2.0666 H   0  0  0  0  0  0  0  0  0  0  0  0
   -5.5101    2.9542    2.1591 H   0  0  0  0  0  0  0  0  0  0  0  0
   -6.2517    4.8036    0.5228 H   0  0  0  0  0  0  0  0  0  0  0  0
   -6.3340    5.4019   -1.8630 H   0  0  0  0  0  0  0  0  0  0  0  0
   -6.4032    3.6354   -3.5700 H   0  0  0  0  0  0  0  0  0  0  0  0
   -6.3853    1.2722   -2.8880 H   0  0  0  0  0  0  0  0  0  0  0  0
   -6.2769    0.6891   -0.4955 H   0  0  0  0  0  0  0  0  0  0  0  0
   -4.8961   -3.0172    0.7808 H   0  0  0  0  0  0  0  0  0  0  0  0
   -5.1039   -2.7640   -0.9633 H   0  0  0  0  0  0  0  0  0  0  0  0
   -6.2590   -5.0452   -0.9304 H   0  0  0  0  0  0  0  0  0  0  0  0
   -8.4491   -6.1572   -0.7616 H   0  0  0  0  0  0  0  0  0  0  0  0
  -10.3169   -5.0249    0.3649 H   0  0  0  0  0  0  0  0  0  0  0  0
   -9.9940   -2.7828    1.3232 H   0  0  0  0  0  0  0  0  0  0  0  0
   -7.7885   -1.6800    1.1405 H   0  0  0  0  0  0  0  0  0  0  0  0
   -3.1134   -1.8621   -0.2867 H   0  0  0  0  0  0  0  0  0  0  0  0
    5.4632   -0.7587    0.2521 H   0  0  0  0  0  0  0  0  0  0  0  0
    7.8842   -2.1940   -0.2717 H   0  0  0  0  0  0  0  0  0  0  0  0
    6.9244   -1.0854   -1.2351 H   0  0  0  0  0  0  0  0  0  0  0  0
    9.7651   -1.8795   -1.6428 H   0  0  0  0  0  0  0  0  0  0  0  0
    8.6290   -1.2433   -2.8147 H   0  0  0  0  0  0  0  0  0  0  0  0
  1  2  1  0  0  0  0
  2  3  1  0  0  0  0
  3  4  1  0  0  0  0
  4  5  1  0  0  0  0
  5  6  1  0  0  0  0
  6  7  2  0  0  0  0
  7  8  1  0  0  0  0
  8  9  2  0  0  0  0
  9 10  1  0  0  0  0
 10 11  1  0  0  0  0
 11 12  2  0  0  0  0
 12 13  1  0  0  0  0
 13 14  2  0  0  0  0
 14 15  1  0  0  0  0
 15 16  2  0  0  0  0
 16 17  1  0  0  0  0
 17 18  2  0  0  0  0
 18 19  1  0  0  0  0
 19 20  2  0  0  0  0
 20 21  1  0  0  0  0
 21 22  1  0  0  0  0
 22 23  1  0  0  0  0
 23 24  2  0  0  0  0
 24 25  1  0  0  0  0
 25 26  2  0  0  0  0
 26 27  1  0  0  0  0
 27 28  2  0  0  0  0
 20 29  1  0  0  0  0
 29 30  1  0  0  0  0
 30 31  1  0  0  0  0
 31 32  1  0  0  0  0
 32 33  2  0  0  0  0
 33 34  1  0  0  0  0
 34 35  2  0  0  0  0
 35 36  1  0  0  0  0
 36 37  2  0  0  0  0
 29 38  2  0  0  0  0
 16 39  1  0  0  0  0
 10 40  2  0  0  0  0
  5 41  1  0  0  0  0
 41 42  1  0  0  0  0
 42  2  1  0  0  0  0
 40  6  1  0  0  0  0
 39 13  1  0  0  0  0
 38 17  1  0  0  0  0
 28 23  1  0  0  0  0
 37 32  1  0  0  0  0
  1 43  1  0  0  0  0
  1 44  1  0  0  0  0
  1 45  1  0  0  0  0
  3 46  1  0  0  0  0
  3 47  1  0  0  0  0
  4 48  1  0  0  0  0
  4 49  1  0  0  0  0
  7 50  1  0  0  0  0
  8 51  1  0  0  0  0
  9 52  1  0  0  0  0
 11 53  1  0  0  0  0
 12 54  1  0  0  0  0
 15 55  1  0  0  0  0
 18 56  1  0  0  0  0
 19 57  1  0  0  0  0
 22 58  1  0  0  0  0
 22 59  1  0  0  0  0
 24 60  1  0  0  0  0
 25 61  1  0  0  0  0
 26 62  1  0  0  0  0
 27 63  1  0  0  0  0
 28 64  1  0  0  0  0
 31 65  1  0  0  0  0
 31 66  1  0  0  0  0
 33 67  1  0  0  0  0
 34 68  1  0  0  0  0
 35 69  1  0  0  0  0
 36 70  1  0  0  0  0
 37 71  1  0  0  0  0
 38 72  1  0  0  0  0
 40 73  1  0  0  0  0
 41 74  1  0  0  0  0
 41 75  1  0  0  0  0
 42 76  1  0  0  0  0
 42 77  1  0  0  0  0
M  END
