
  xtb     03012221323D
 energy: -13.528200848216 gnorm: 0.000419445808 xtb: 6.4.1 (afa7bdf)
 72 76  0     0  0            999 V2000
   -3.7771    6.9129    0.4764 C   0  0  0  0  0  0  0  0  0  0  0  0
   -3.2566    5.4866    0.5451 C   0  0  0  0  0  0  0  0  0  0  0  0
   -2.9546    4.8966   -0.8336 C   0  0  0  0  0  0  0  0  0  0  0  0
   -2.4316    3.4987   -0.7616 C   0  0  0  0  0  0  0  0  0  0  0  0
   -3.1574    2.3576   -0.9169 C   0  0  0  0  0  0  0  0  0  0  0  0
   -2.2529    1.2774   -0.7140 C   0  0  0  0  0  0  0  0  0  0  0  0
   -1.0308    1.7451   -0.4339 N   0  0  0  0  0  0  0  0  0  0  0  0
   -1.0832    3.0882   -0.4456 C   0  0  0  0  0  0  0  0  0  0  0  0
   -0.0064    3.9806   -0.1902 C   0  0  0  0  0  0  0  0  0  0  0  0
    1.3090    3.7398    0.1340 C   0  0  0  0  0  0  0  0  0  0  0  0
    2.0060    2.5195    0.3212 C   0  0  0  0  0  0  0  0  0  0  0  0
    1.5055    1.2485    0.2089 N   0  0  0  0  0  0  0  0  0  0  0  0
    2.4712    0.3119    0.4264 C   0  0  0  0  0  0  0  0  0  0  0  0
    3.6643    1.0132    0.7051 C   0  0  0  0  0  0  0  0  0  0  0  0
    3.3878    2.3619    0.6576 C   0  0  0  0  0  0  0  0  0  0  0  0
    4.3832    3.4558    0.8507 C   0  0  0  0  0  0  0  0  0  0  0  0
    5.0289    3.8818   -0.4635 C   0  0  0  0  0  0  0  0  0  0  0  0
    5.7534    2.8443   -1.0871 O   0  0  0  0  0  0  0  0  0  0  0  0
    2.2110   -1.0921    0.3467 C   0  0  0  0  0  0  0  0  0  0  0  0
    0.9868   -1.5586    0.0784 N   0  0  0  0  0  0  0  0  0  0  0  0
    1.0493   -2.9010    0.0583 C   0  0  0  0  0  0  0  0  0  0  0  0
   -0.0303   -3.7943   -0.1807 C   0  0  0  0  0  0  0  0  0  0  0  0
   -1.3537   -3.5549   -0.4750 C   0  0  0  0  0  0  0  0  0  0  0  0
   -2.0587   -2.3362   -0.6481 C   0  0  0  0  0  0  0  0  0  0  0  0
   -1.5541   -1.0650   -0.5539 N   0  0  0  0  0  0  0  0  0  0  0  0
   -2.5184   -0.1264   -0.7698 C   0  0  0  0  0  0  0  0  0  0  0  0
   -3.7187   -0.8266   -1.0197 C   0  0  0  0  0  0  0  0  0  0  0  0
   -3.4484   -2.1766   -0.9549 C   0  0  0  0  0  0  0  0  0  0  0  0
   -4.4688   -3.2608   -1.0938 C   0  0  0  0  0  0  0  0  0  0  0  0
   -5.2637   -3.4963    0.1953 C   0  0  0  0  0  0  0  0  0  0  0  0
   -4.3952   -3.9632    1.3520 C   0  0  0  0  0  0  0  0  0  0  0  0
    2.4073   -3.3140    0.3296 C   0  0  0  0  0  0  0  0  0  0  0  0
    2.9004   -4.7265    0.4031 C   0  0  0  0  0  0  0  0  0  0  0  0
    4.4226   -4.8577    0.5031 C   0  0  0  0  0  0  0  0  0  0  0  0
    4.8881   -6.3045    0.5381 C   0  0  0  0  0  0  0  0  0  0  0  0
    3.1241   -2.1708    0.5140 C   0  0  0  0  0  0  0  0  0  0  0  0
   -3.9878    7.3213    1.4673 H   0  0  0  0  0  0  0  0  0  0  0  0
   -4.6993    6.9687   -0.1050 H   0  0  0  0  0  0  0  0  0  0  0  0
   -3.0534    7.5738   -0.0042 H   0  0  0  0  0  0  0  0  0  0  0  0
   -2.3504    5.4431    1.1638 H   0  0  0  0  0  0  0  0  0  0  0  0
   -3.9803    4.8419    1.0616 H   0  0  0  0  0  0  0  0  0  0  0  0
   -3.8602    4.9110   -1.4496 H   0  0  0  0  0  0  0  0  0  0  0  0
   -2.2348    5.5284   -1.3643 H   0  0  0  0  0  0  0  0  0  0  0  0
   -4.2073    2.2859   -1.1422 H   0  0  0  0  0  0  0  0  0  0  0  0
   -0.2803    5.0206   -0.2669 H   0  0  0  0  0  0  0  0  0  0  0  0
    1.9230    4.6158    0.2678 H   0  0  0  0  0  0  0  0  0  0  0  0
    0.5399    1.0583   -0.0403 H   0  0  0  0  0  0  0  0  0  0  0  0
    4.6238    0.5708    0.9085 H   0  0  0  0  0  0  0  0  0  0  0  0
    3.8996    4.3080    1.3402 H   0  0  0  0  0  0  0  0  0  0  0  0
    5.1573    3.1152    1.5457 H   0  0  0  0  0  0  0  0  0  0  0  0
    5.7002    4.7398   -0.3252 H   0  0  0  0  0  0  0  0  0  0  0  0
    4.2603    4.2002   -1.1781 H   0  0  0  0  0  0  0  0  0  0  0  0
    6.4106    2.4658   -0.4592 H   0  0  0  0  0  0  0  0  0  0  0  0
    0.2488   -4.8335   -0.1164 H   0  0  0  0  0  0  0  0  0  0  0  0
   -1.9651   -4.4334   -0.6031 H   0  0  0  0  0  0  0  0  0  0  0  0
   -0.5830   -0.8744   -0.3288 H   0  0  0  0  0  0  0  0  0  0  0  0
   -4.6794   -0.3825   -1.2139 H   0  0  0  0  0  0  0  0  0  0  0  0
   -5.1451   -3.0014   -1.9168 H   0  0  0  0  0  0  0  0  0  0  0  0
   -3.9777   -4.1884   -1.4038 H   0  0  0  0  0  0  0  0  0  0  0  0
   -5.7790   -2.5663    0.4710 H   0  0  0  0  0  0  0  0  0  0  0  0
   -6.0648   -4.2262    0.0125 H   0  0  0  0  0  0  0  0  0  0  0  0
   -3.8952   -4.9045    1.1159 H   0  0  0  0  0  0  0  0  0  0  0  0
   -4.9749   -4.1190    2.2648 H   0  0  0  0  0  0  0  0  0  0  0  0
   -3.6159   -3.2332    1.5799 H   0  0  0  0  0  0  0  0  0  0  0  0
    2.5489   -5.2702   -0.4803 H   0  0  0  0  0  0  0  0  0  0  0  0
    2.4316   -5.2223    1.2599 H   0  0  0  0  0  0  0  0  0  0  0  0
    4.8862   -4.3323   -0.3425 H   0  0  0  0  0  0  0  0  0  0  0  0
    4.7748   -4.3273    1.3978 H   0  0  0  0  0  0  0  0  0  0  0  0
    4.5784   -6.8403   -0.3611 H   0  0  0  0  0  0  0  0  0  0  0  0
    4.4624   -6.8354    1.3915 H   0  0  0  0  0  0  0  0  0  0  0  0
    5.9751   -6.3845    0.6101 H   0  0  0  0  0  0  0  0  0  0  0  0
    4.1737   -2.0884    0.7351 H   0  0  0  0  0  0  0  0  0  0  0  0
  1  2  1  0  0  0  0
  2  3  1  0  0  0  0
  3  4  1  0  0  0  0
  4  5  2  0  0  0  0
  5  6  1  0  0  0  0
  6  7  2  0  0  0  0
  7  8  1  0  0  0  0
  8  9  2  0  0  0  0
  9 10  1  0  0  0  0
 10 11  2  0  0  0  0
 11 12  1  0  0  0  0
 12 13  1  0  0  0  0
 13 14  1  0  0  0  0
 14 15  2  0  0  0  0
 15 16  1  0  0  0  0
 16 17  1  0  0  0  0
 17 18  1  0  0  0  0
 13 19  2  0  0  0  0
 19 20  1  0  0  0  0
 20 21  2  0  0  0  0
 21 22  1  0  0  0  0
 22 23  2  0  0  0  0
 23 24  1  0  0  0  0
 24 25  1  0  0  0  0
 25 26  1  0  0  0  0
 26 27  2  0  0  0  0
 27 28  1  0  0  0  0
 28 29  1  0  0  0  0
 29 30  1  0  0  0  0
 30 31  1  0  0  0  0
 21 32  1  0  0  0  0
 32 33  1  0  0  0  0
 33 34  1  0  0  0  0
 34 35  1  0  0  0  0
 32 36  2  0  0  0  0
  8  4  1  0  0  0  0
 15 11  1  0  0  0  0
 36 19  1  0  0  0  0
 26  6  1  0  0  0  0
 28 24  2  0  0  0  0
  1 37  1  0  0  0  0
  1 38  1  0  0  0  0
  1 39  1  0  0  0  0
  2 40  1  0  0  0  0
  2 41  1  0  0  0  0
  3 42  1  0  0  0  0
  3 43  1  0  0  0  0
  5 44  1  0  0  0  0
  9 45  1  0  0  0  0
 10 46  1  0  0  0  0
 12 47  1  0  0  0  0
 14 48  1  0  0  0  0
 16 49  1  0  0  0  0
 16 50  1  0  0  0  0
 17 51  1  0  0  0  0
 17 52  1  0  0  0  0
 18 53  1  0  0  0  0
 22 54  1  0  0  0  0
 23 55  1  0  0  0  0
 25 56  1  0  0  0  0
 27 57  1  0  0  0  0
 29 58  1  0  0  0  0
 29 59  1  0  0  0  0
 30 60  1  0  0  0  0
 30 61  1  0  0  0  0
 31 62  1  0  0  0  0
 31 63  1  0  0  0  0
 31 64  1  0  0  0  0
 33 65  1  0  0  0  0
 33 66  1  0  0  0  0
 34 67  1  0  0  0  0
 34 68  1  0  0  0  0
 35 69  1  0  0  0  0
 35 70  1  0  0  0  0
 35 71  1  0  0  0  0
 36 72  1  0  0  0  0
M  END
