
  xtb     03012221203D
 energy: -18.511747884257 gnorm: 0.000286283771 xtb: 6.4.1 (afa7bdf)
100105  0     0  0            999 V2000
  -13.6219    0.4960    4.4575 C   0  0  0  0  0  0  0  0  0  0  0  0
  -14.9879    0.1153    3.9085 C   0  0  0  0  0  0  0  0  0  0  0  0
  -14.9197   -0.9217    2.7840 C   0  0  0  0  0  0  0  0  0  0  0  0
  -14.2347   -0.4082    1.5184 C   0  0  0  0  0  0  0  0  0  0  0  0
  -14.2133   -1.4431    0.3941 C   0  0  0  0  0  0  0  0  0  0  0  0
  -13.5796   -0.9278   -0.9003 C   0  0  0  0  0  0  0  0  0  0  0  0
  -12.0919   -0.6106   -0.7660 C   0  0  0  0  0  0  0  0  0  0  0  0
  -11.4526   -0.1885   -2.0816 C   0  0  0  0  0  0  0  0  0  0  0  0
  -10.0774    0.0939   -1.9566 O   0  0  0  0  0  0  0  0  0  0  0  0
   -9.3663   -1.0623   -1.7736 C   0  0  0  0  0  0  0  0  0  0  0  0
   -9.8675   -2.1698   -1.7069 O   0  0  0  0  0  0  0  0  0  0  0  0
   -7.8953   -0.9119   -1.6544 C   0  0  0  0  0  0  0  0  0  0  0  0
   -7.3044    0.3403   -1.7214 C   0  0  0  0  0  0  0  0  0  0  0  0
   -5.9394    0.4747   -1.6218 C   0  0  0  0  0  0  0  0  0  0  0  0
   -5.1220   -0.6419   -1.4531 C   0  0  0  0  0  0  0  0  0  0  0  0
   -3.6519   -0.4986   -1.3617 C   0  0  0  0  0  0  0  0  0  0  0  0
   -2.8131   -1.3924   -2.0227 C   0  0  0  0  0  0  0  0  0  0  0  0
   -1.4282   -1.2697   -1.9665 C   0  0  0  0  0  0  0  0  0  0  0  0
   -0.5516   -2.1747   -2.6474 C   0  0  0  0  0  0  0  0  0  0  0  0
    0.7908   -2.0284   -2.5875 C   0  0  0  0  0  0  0  0  0  0  0  0
    1.3886   -0.9624   -1.8408 C   0  0  0  0  0  0  0  0  0  0  0  0
    2.7669   -0.7838   -1.7736 C   0  0  0  0  0  0  0  0  0  0  0  0
    3.3323    0.2605   -1.0462 C   0  0  0  0  0  0  0  0  0  0  0  0
    4.8008    0.4400   -1.0082 C   0  0  0  0  0  0  0  0  0  0  0  0
    5.4509    0.7912    0.1739 C   0  0  0  0  0  0  0  0  0  0  0  0
    6.8147    0.9682    0.2019 C   0  0  0  0  0  0  0  0  0  0  0  0
    7.5702    0.8011   -0.9483 C   0  0  0  0  0  0  0  0  0  0  0  0
    9.0400    1.0012   -0.9282 C   0  0  0  0  0  0  0  0  0  0  0  0
    9.6828    0.8500   -1.9511 O   0  0  0  0  0  0  0  0  0  0  0  0
    9.5864    1.3531    0.2772 O   0  0  0  0  0  0  0  0  0  0  0  0
   10.9781    1.5357    0.1486 C   0  0  0  0  0  0  0  0  0  0  0  0
   11.7329    0.2240   -0.0220 C   0  0  0  0  0  0  0  0  0  0  0  0
   13.2332    0.4087   -0.2517 C   0  0  0  0  0  0  0  0  0  0  0  0
   13.9666    1.0996    0.9025 C   0  0  0  0  0  0  0  0  0  0  0  0
   13.8307    0.3936    2.2567 C   0  0  0  0  0  0  0  0  0  0  0  0
   14.3704   -1.0464    2.3079 C   0  0  0  0  0  0  0  0  0  0  0  0
   15.8736   -1.1698    2.5902 C   0  0  0  0  0  0  0  0  0  0  0  0
   16.7723   -0.6133    1.4973 C   0  0  0  0  0  0  0  0  0  0  0  0
    6.9324    0.4503   -2.1275 C   0  0  0  0  0  0  0  0  0  0  0  0
    5.5694    0.2714   -2.1589 C   0  0  0  0  0  0  0  0  0  0  0  0
    2.4945    1.1416   -0.3670 C   0  0  0  0  0  0  0  0  0  0  0  0
    1.1101    1.0057   -0.4048 C   0  0  0  0  0  0  0  0  0  0  0  0
    0.2334    1.9084    0.2794 C   0  0  0  0  0  0  0  0  0  0  0  0
   -1.1091    1.7636    0.2172 C   0  0  0  0  0  0  0  0  0  0  0  0
   -1.7074    0.7019   -0.5353 C   0  0  0  0  0  0  0  0  0  0  0  0
   -3.0864    0.5380   -0.6232 C   0  0  0  0  0  0  0  0  0  0  0  0
   -0.8663   -0.2097   -1.2163 C   0  0  0  0  0  0  0  0  0  0  0  0
    0.5480   -0.0564   -1.1518 C   0  0  0  0  0  0  0  0  0  0  0  0
   -5.7254   -1.8967   -1.3848 C   0  0  0  0  0  0  0  0  0  0  0  0
   -7.0909   -2.0274   -1.4836 C   0  0  0  0  0  0  0  0  0  0  0  0
  -12.9986    0.9679    3.6956 H   0  0  0  0  0  0  0  0  0  0  0  0
  -13.0819   -0.3826    4.8169 H   0  0  0  0  0  0  0  0  0  0  0  0
  -13.6968    1.1978    5.2921 H   0  0  0  0  0  0  0  0  0  0  0  0
  -15.5067    1.0105    3.5430 H   0  0  0  0  0  0  0  0  0  0  0  0
  -15.6169   -0.2665    4.7241 H   0  0  0  0  0  0  0  0  0  0  0  0
  -15.9314   -1.2649    2.5274 H   0  0  0  0  0  0  0  0  0  0  0  0
  -14.3970   -1.8177    3.1425 H   0  0  0  0  0  0  0  0  0  0  0  0
  -13.2111   -0.0979    1.7538 H   0  0  0  0  0  0  0  0  0  0  0  0
  -14.7381    0.5020    1.1712 H   0  0  0  0  0  0  0  0  0  0  0  0
  -15.2393   -1.7804    0.1998 H   0  0  0  0  0  0  0  0  0  0  0  0
  -13.6771   -2.3374    0.7328 H   0  0  0  0  0  0  0  0  0  0  0  0
  -14.1141   -0.0336   -1.2418 H   0  0  0  0  0  0  0  0  0  0  0  0
  -13.7133   -1.6662   -1.7010 H   0  0  0  0  0  0  0  0  0  0  0  0
  -11.5572   -1.4867   -0.3815 H   0  0  0  0  0  0  0  0  0  0  0  0
  -11.9303    0.1768   -0.0225 H   0  0  0  0  0  0  0  0  0  0  0  0
  -11.9368    0.7105   -2.4815 H   0  0  0  0  0  0  0  0  0  0  0  0
  -11.5577   -0.9742   -2.8405 H   0  0  0  0  0  0  0  0  0  0  0  0
   -7.9343    1.2017   -1.8591 H   0  0  0  0  0  0  0  0  0  0  0  0
   -5.4875    1.4491   -1.6913 H   0  0  0  0  0  0  0  0  0  0  0  0
   -3.2443   -2.1863   -2.6045 H   0  0  0  0  0  0  0  0  0  0  0  0
   -0.9856   -2.9793   -3.2144 H   0  0  0  0  0  0  0  0  0  0  0  0
    1.4360   -2.7153   -3.1062 H   0  0  0  0  0  0  0  0  0  0  0  0
    3.4093   -1.4735   -2.2897 H   0  0  0  0  0  0  0  0  0  0  0  0
    4.8730    0.9134    1.0735 H   0  0  0  0  0  0  0  0  0  0  0  0
    7.3159    1.2402    1.1143 H   0  0  0  0  0  0  0  0  0  0  0  0
   11.3170    2.0764    1.0399 H   0  0  0  0  0  0  0  0  0  0  0  0
   11.1428    2.1976   -0.7112 H   0  0  0  0  0  0  0  0  0  0  0  0
   11.5523   -0.4119    0.8510 H   0  0  0  0  0  0  0  0  0  0  0  0
   11.2858   -0.3176   -0.8651 H   0  0  0  0  0  0  0  0  0  0  0  0
   13.6987   -0.5636   -0.4526 H   0  0  0  0  0  0  0  0  0  0  0  0
   13.3793    0.9841   -1.1748 H   0  0  0  0  0  0  0  0  0  0  0  0
   15.0246    1.2114    0.6452 H   0  0  0  0  0  0  0  0  0  0  0  0
   13.5979    2.1293    0.9925 H   0  0  0  0  0  0  0  0  0  0  0  0
   14.3243    0.9835    3.0396 H   0  0  0  0  0  0  0  0  0  0  0  0
   12.7699    0.3959    2.5391 H   0  0  0  0  0  0  0  0  0  0  0  0
   14.1288   -1.5665    1.3740 H   0  0  0  0  0  0  0  0  0  0  0  0
   13.8236   -1.6050    3.0824 H   0  0  0  0  0  0  0  0  0  0  0  0
   16.1030   -0.6790    3.5447 H   0  0  0  0  0  0  0  0  0  0  0  0
   16.1209   -2.2281    2.7528 H   0  0  0  0  0  0  0  0  0  0  0  0
   17.8216   -0.8730    1.6610 H   0  0  0  0  0  0  0  0  0  0  0  0
   16.4904   -1.0007    0.5159 H   0  0  0  0  0  0  0  0  0  0  0  0
   16.7250    0.4756    1.4506 H   0  0  0  0  0  0  0  0  0  0  0  0
    7.5270    0.3271   -3.0161 H   0  0  0  0  0  0  0  0  0  0  0  0
    5.0810    0.0148   -3.0830 H   0  0  0  0  0  0  0  0  0  0  0  0
    2.9250    1.9569    0.1850 H   0  0  0  0  0  0  0  0  0  0  0  0
    0.6674    2.7124    0.8472 H   0  0  0  0  0  0  0  0  0  0  0  0
   -1.7541    2.4512    0.7352 H   0  0  0  0  0  0  0  0  0  0  0  0
   -3.7288    1.2234   -0.1015 H   0  0  0  0  0  0  0  0  0  0  0  0
   -5.1092   -2.7677   -1.2431 H   0  0  0  0  0  0  0  0  0  0  0  0
   -7.5586   -2.9954   -1.4329 H   0  0  0  0  0  0  0  0  0  0  0  0
  1  2  1  0  0  0  0
  2  3  1  0  0  0  0
  3  4  1  0  0  0  0
  4  5  1  0  0  0  0
  5  6  1  0  0  0  0
  6  7  1  0  0  0  0
  7  8  1  0  0  0  0
  8  9  1  0  0  0  0
  9 10  1  0  0  0  0
 10 11  2  0  0  0  0
 10 12  1  0  0  0  0
 12 13  2  0  0  0  0
 13 14  1  0  0  0  0
 14 15  2  0  0  0  0
 15 16  1  0  0  0  0
 16 17  2  0  0  0  0
 17 18  1  0  0  0  0
 18 19  2  0  0  0  0
 19 20  1  0  0  0  0
 20 21  2  0  0  0  0
 21 22  1  0  0  0  0
 22 23  2  0  0  0  0
 23 24  1  0  0  0  0
 24 25  2  0  0  0  0
 25 26  1  0  0  0  0
 26 27  2  0  0  0  0
 27 28  1  0  0  0  0
 28 29  2  0  0  0  0
 28 30  1  0  0  0  0
 30 31  1  0  0  0  0
 31 32  1  0  0  0  0
 32 33  1  0  0  0  0
 33 34  1  0  0  0  0
 34 35  1  0  0  0  0
 35 36  1  0  0  0  0
 36 37  1  0  0  0  0
 37 38  1  0  0  0  0
 27 39  1  0  0  0  0
 39 40  2  0  0  0  0
 23 41  1  0  0  0  0
 41 42  2  0  0  0  0
 42 43  1  0  0  0  0
 43 44  2  0  0  0  0
 44 45  1  0  0  0  0
 45 46  2  0  0  0  0
 45 47  1  0  0  0  0
 47 48  2  0  0  0  0
 15 49  1  0  0  0  0
 49 50  2  0  0  0  0
 50 12  1  0  0  0  0
 46 16  1  0  0  0  0
 47 18  1  0  0  0  0
 48 21  1  0  0  0  0
 40 24  1  0  0  0  0
 48 42  1  0  0  0  0
  1 51  1  0  0  0  0
  1 52  1  0  0  0  0
  1 53  1  0  0  0  0
  2 54  1  0  0  0  0
  2 55  1  0  0  0  0
  3 56  1  0  0  0  0
  3 57  1  0  0  0  0
  4 58  1  0  0  0  0
  4 59  1  0  0  0  0
  5 60  1  0  0  0  0
  5 61  1  0  0  0  0
  6 62  1  0  0  0  0
  6 63  1  0  0  0  0
  7 64  1  0  0  0  0
  7 65  1  0  0  0  0
  8 66  1  0  0  0  0
  8 67  1  0  0  0  0
 13 68  1  0  0  0  0
 14 69  1  0  0  0  0
 17 70  1  0  0  0  0
 19 71  1  0  0  0  0
 20 72  1  0  0  0  0
 22 73  1  0  0  0  0
 25 74  1  0  0  0  0
 26 75  1  0  0  0  0
 31 76  1  0  0  0  0
 31 77  1  0  0  0  0
 32 78  1  0  0  0  0
 32 79  1  0  0  0  0
 33 80  1  0  0  0  0
 33 81  1  0  0  0  0
 34 82  1  0  0  0  0
 34 83  1  0  0  0  0
 35 84  1  0  0  0  0
 35 85  1  0  0  0  0
 36 86  1  0  0  0  0
 36 87  1  0  0  0  0
 37 88  1  0  0  0  0
 37 89  1  0  0  0  0
 38 90  1  0  0  0  0
 38 91  1  0  0  0  0
 38 92  1  0  0  0  0
 39 93  1  0  0  0  0
 40 94  1  0  0  0  0
 41 95  1  0  0  0  0
 43 96  1  0  0  0  0
 44 97  1  0  0  0  0
 46 98  1  0  0  0  0
 49 99  1  0  0  0  0
 50100  1  0  0  0  0
M  END
