
  xtb     03012221263D
 energy: -6.528445984829 gnorm: 0.000408223801 xtb: 6.4.1 (afa7bdf)
 30 33  0     0  0            999 V2000
    4.6256   -0.2274    0.0175 C   0  0  0  0  0  0  0  0  0  0  0  0
    4.1638    1.0852   -0.0510 C   0  0  0  0  0  0  0  0  0  0  0  0
    2.8227    1.3480   -0.0663 C   0  0  0  0  0  0  0  0  0  0  0  0
    1.8722    0.3079   -0.0136 C   0  0  0  0  0  0  0  0  0  0  0  0
    2.3497   -1.0201    0.0557 C   0  0  0  0  0  0  0  0  0  0  0  0
    3.7369   -1.2615    0.0699 C   0  0  0  0  0  0  0  0  0  0  0  0
    1.4207   -2.0919    0.1100 C   0  0  0  0  0  0  0  0  0  0  0  0
    0.0882   -1.8620    0.0965 C   0  0  0  0  0  0  0  0  0  0  0  0
   -0.4439   -0.5446    0.0276 C   0  0  0  0  0  0  0  0  0  0  0  0
   -1.8723   -0.3076    0.0136 C   0  0  0  0  0  0  0  0  0  0  0  0
   -2.8225   -1.3481    0.0663 C   0  0  0  0  0  0  0  0  0  0  0  0
   -4.1637   -1.0854    0.0511 C   0  0  0  0  0  0  0  0  0  0  0  0
   -4.6256    0.2271   -0.0174 C   0  0  0  0  0  0  0  0  0  0  0  0
   -3.7373    1.2615   -0.0699 C   0  0  0  0  0  0  0  0  0  0  0  0
   -2.3499    1.0203   -0.0557 C   0  0  0  0  0  0  0  0  0  0  0  0
   -1.4209    2.0921   -0.1100 C   0  0  0  0  0  0  0  0  0  0  0  0
   -0.0884    1.8623   -0.0965 C   0  0  0  0  0  0  0  0  0  0  0  0
    0.4439    0.5449   -0.0277 C   0  0  0  0  0  0  0  0  0  0  0  0
    5.6854   -0.4234    0.0289 H   0  0  0  0  0  0  0  0  0  0  0  0
    4.8718    1.8969   -0.0922 H   0  0  0  0  0  0  0  0  0  0  0  0
    2.4948    2.3699   -0.1196 H   0  0  0  0  0  0  0  0  0  0  0  0
    4.0889   -2.2774    0.1229 H   0  0  0  0  0  0  0  0  0  0  0  0
    1.7974   -3.0991    0.1626 H   0  0  0  0  0  0  0  0  0  0  0  0
   -0.5816   -2.7011    0.1391 H   0  0  0  0  0  0  0  0  0  0  0  0
   -2.4942   -2.3698    0.1196 H   0  0  0  0  0  0  0  0  0  0  0  0
   -4.8714   -1.8974    0.0922 H   0  0  0  0  0  0  0  0  0  0  0  0
   -5.6855    0.4229   -0.0289 H   0  0  0  0  0  0  0  0  0  0  0  0
   -4.0894    2.2773   -0.1229 H   0  0  0  0  0  0  0  0  0  0  0  0
   -1.7975    3.0993   -0.1626 H   0  0  0  0  0  0  0  0  0  0  0  0
    0.5818    2.7011   -0.1391 H   0  0  0  0  0  0  0  0  0  0  0  0
  1  2  2  0  0  0  0
  2  3  1  0  0  0  0
  3  4  2  0  0  0  0
  4  5  1  0  0  0  0
  5  6  2  0  0  0  0
  5  7  1  0  0  0  0
  7  8  2  0  0  0  0
  8  9  1  0  0  0  0
  9 10  2  0  0  0  0
 10 11  1  0  0  0  0
 11 12  2  0  0  0  0
 12 13  1  0  0  0  0
 13 14  2  0  0  0  0
 14 15  1  0  0  0  0
 15 16  2  0  0  0  0
 16 17  1  0  0  0  0
 17 18  2  0  0  0  0
  6  1  1  0  0  0  0
 18  9  1  0  0  0  0
 18  4  1  0  0  0  0
 15 10  1  0  0  0  0
  1 19  1  0  0  0  0
  2 20  1  0  0  0  0
  3 21  1  0  0  0  0
  6 22  1  0  0  0  0
  7 23  1  0  0  0  0
  8 24  1  0  0  0  0
 11 25  1  0  0  0  0
 12 26  1  0  0  0  0
 13 27  1  0  0  0  0
 14 28  1  0  0  0  0
 16 29  1  0  0  0  0
 17 30  1  0  0  0  0
M  END
