
  xtb     03012221223D
 energy: -8.906320847761 gnorm: 0.000242273348 xtb: 6.4.1 (afa7bdf)
 40 43  0     0  0            999 V2000
    7.7365   -0.7585    3.1463 N   0  0  0  0  0  0  0  0  0  0  0  0
    6.6618   -0.6461    2.7188 C   0  0  0  0  0  0  0  0  0  0  0  0
    5.3646   -0.5114    2.2031 C   0  0  0  0  0  0  0  0  0  0  0  0
    5.1623   -0.2661    0.8495 C   0  0  0  0  0  0  0  0  0  0  0  0
    3.8904   -0.1355    0.3453 C   0  0  0  0  0  0  0  0  0  0  0  0
    2.7786   -0.2457    1.1767 C   0  0  0  0  0  0  0  0  0  0  0  0
    1.4414   -0.1058    0.6171 C   0  0  0  0  0  0  0  0  0  0  0  0
    1.2004    0.1150   -0.6707 N   0  0  0  0  0  0  0  0  0  0  0  0
   -0.1378    0.1803   -0.8111 C   0  0  0  0  0  0  0  0  0  0  0  0
   -0.7895    0.4674   -2.0951 C   0  0  0  0  0  0  0  0  0  0  0  0
   -0.1519    0.1139   -3.2817 C   0  0  0  0  0  0  0  0  0  0  0  0
   -0.7292    0.3895   -4.5014 C   0  0  0  0  0  0  0  0  0  0  0  0
   -1.9497    1.0320   -4.5586 C   0  0  0  0  0  0  0  0  0  0  0  0
   -2.5887    1.4046   -3.3931 C   0  0  0  0  0  0  0  0  0  0  0  0
   -2.0139    1.1302   -2.1721 C   0  0  0  0  0  0  0  0  0  0  0  0
   -0.7555   -0.0303    0.4436 C   0  0  0  0  0  0  0  0  0  0  0  0
   -2.1798   -0.1463    0.7729 C   0  0  0  0  0  0  0  0  0  0  0  0
   -2.6730    0.4035    1.9552 C   0  0  0  0  0  0  0  0  0  0  0  0
   -4.0055    0.2850    2.2830 C   0  0  0  0  0  0  0  0  0  0  0  0
   -4.8678   -0.3907    1.4428 C   0  0  0  0  0  0  0  0  0  0  0  0
   -4.3945   -0.9530    0.2742 C   0  0  0  0  0  0  0  0  0  0  0  0
   -3.0633   -0.8366   -0.0579 C   0  0  0  0  0  0  0  0  0  0  0  0
    0.2633   -0.1905    1.3340 N   0  0  0  0  0  0  0  0  0  0  0  0
    2.9835   -0.4906    2.5331 C   0  0  0  0  0  0  0  0  0  0  0  0
    4.2564   -0.6212    3.0361 C   0  0  0  0  0  0  0  0  0  0  0  0
    6.0181   -0.1801    0.2021 H   0  0  0  0  0  0  0  0  0  0  0  0
    3.7339    0.0544   -0.7020 H   0  0  0  0  0  0  0  0  0  0  0  0
    0.8040   -0.3774   -3.2270 H   0  0  0  0  0  0  0  0  0  0  0  0
   -0.2264    0.1065   -5.4113 H   0  0  0  0  0  0  0  0  0  0  0  0
   -2.4005    1.2482   -5.5134 H   0  0  0  0  0  0  0  0  0  0  0  0
   -3.5366    1.9147   -3.4388 H   0  0  0  0  0  0  0  0  0  0  0  0
   -2.5009    1.4391   -1.2642 H   0  0  0  0  0  0  0  0  0  0  0  0
   -1.9974    0.9308    2.6058 H   0  0  0  0  0  0  0  0  0  0  0  0
   -4.3753    0.7196    3.1968 H   0  0  0  0  0  0  0  0  0  0  0  0
   -5.9101   -0.4827    1.7014 H   0  0  0  0  0  0  0  0  0  0  0  0
   -5.0667   -1.4861   -0.3773 H   0  0  0  0  0  0  0  0  0  0  0  0
   -2.6878   -1.2852   -0.9611 H   0  0  0  0  0  0  0  0  0  0  0  0
    0.1592   -0.4062    2.3264 H   0  0  0  0  0  0  0  0  0  0  0  0
    2.1355   -0.5775    3.1877 H   0  0  0  0  0  0  0  0  0  0  0  0
    4.4118   -0.8111    4.0844 H   0  0  0  0  0  0  0  0  0  0  0  0
  1  2  3  0  0  0  0
  2  3  1  0  0  0  0
  3  4  2  0  0  0  0
  4  5  1  0  0  0  0
  5  6  2  0  0  0  0
  6  7  1  0  0  0  0
  7  8  2  0  0  0  0
  8  9  1  0  0  0  0
  9 10  1  0  0  0  0
 10 11  2  0  0  0  0
 11 12  1  0  0  0  0
 12 13  2  0  0  0  0
 13 14  1  0  0  0  0
 14 15  2  0  0  0  0
  9 16  2  0  0  0  0
 16 17  1  0  0  0  0
 17 18  2  0  0  0  0
 18 19  1  0  0  0  0
 19 20  2  0  0  0  0
 20 21  1  0  0  0  0
 21 22  2  0  0  0  0
 16 23  1  0  0  0  0
  6 24  1  0  0  0  0
 24 25  2  0  0  0  0
 25  3  1  0  0  0  0
 23  7  1  0  0  0  0
 15 10  1  0  0  0  0
 22 17  1  0  0  0  0
  4 26  1  0  0  0  0
  5 27  1  0  0  0  0
 11 28  1  0  0  0  0
 12 29  1  0  0  0  0
 13 30  1  0  0  0  0
 14 31  1  0  0  0  0
 15 32  1  0  0  0  0
 18 33  1  0  0  0  0
 19 34  1  0  0  0  0
 20 35  1  0  0  0  0
 21 36  1  0  0  0  0
 22 37  1  0  0  0  0
 23 38  1  0  0  0  0
 24 39  1  0  0  0  0
 25 40  1  0  0  0  0
M  END
