
  xtb     03012221203D
 energy: -7.892935518623 gnorm: 0.000229436077 xtb: 6.4.1 (afa7bdf)
 39 41  0     0  0            999 V2000
   -1.5799    3.6302   -2.6307 C   0  0  0  0  0  0  0  0  0  0  0  0
   -1.5667    2.2850   -2.2878 O   0  0  0  0  0  0  0  0  0  0  0  0
   -0.9074    2.1289   -1.1023 C   0  0  0  0  0  0  0  0  0  0  0  0
   -0.4058    3.0536   -0.4924 O   0  0  0  0  0  0  0  0  0  0  0  0
   -0.8070    0.7430   -0.5617 C   0  0  0  0  0  0  0  0  0  0  0  0
   -1.8496   -0.0078    0.0076 C   0  0  0  0  0  0  0  0  0  0  0  0
   -3.2548    0.3851    0.1730 C   0  0  0  0  0  0  0  0  0  0  0  0
   -3.6400    1.4899   -0.1652 O   0  0  0  0  0  0  0  0  0  0  0  0
   -4.0862   -0.5495    0.7282 O   0  0  0  0  0  0  0  0  0  0  0  0
   -5.3721   -0.0297    0.8161 C   0  0  0  0  0  0  0  0  0  0  0  0
   -1.2931   -1.2255    0.4204 C   0  0  0  0  0  0  0  0  0  0  0  0
   -1.8569   -2.3494    1.0223 C   0  0  0  0  0  0  0  0  0  0  0  0
   -1.0186   -3.3866    1.2638 C   0  0  0  0  0  0  0  0  0  0  0  0
    0.3312   -3.2873    0.9066 C   0  0  0  0  0  0  0  0  0  0  0  0
    0.8868   -2.2515    0.3500 N   0  0  0  0  0  0  0  0  0  0  0  0
    0.0589   -1.2186    0.1268 N   0  0  0  0  0  0  0  0  0  0  0  0
    0.3694    0.0005   -0.4743 C   0  0  0  0  0  0  0  0  0  0  0  0
    1.6844    0.3959   -0.9995 C   0  0  0  0  0  0  0  0  0  0  0  0
    1.7729    0.9956   -2.0571 O   0  0  0  0  0  0  0  0  0  0  0  0
    2.9120    0.0844   -0.2445 C   0  0  0  0  0  0  0  0  0  0  0  0
    2.8815   -0.3884    1.0655 C   0  0  0  0  0  0  0  0  0  0  0  0
    4.0467   -0.6294    1.7481 C   0  0  0  0  0  0  0  0  0  0  0  0
    5.2697   -0.3981    1.1365 C   0  0  0  0  0  0  0  0  0  0  0  0
    6.7308   -0.7030    1.9907 Cl  0  0  0  0  0  0  0  0  0  0  0  0
    5.3117    0.0802   -0.1646 C   0  0  0  0  0  0  0  0  0  0  0  0
    4.1440    0.3209   -0.8443 C   0  0  0  0  0  0  0  0  0  0  0  0
   -2.1038    4.1778   -1.8453 H   0  0  0  0  0  0  0  0  0  0  0  0
   -2.0920    3.7464   -3.5859 H   0  0  0  0  0  0  0  0  0  0  0  0
   -0.5477    3.9775   -2.7024 H   0  0  0  0  0  0  0  0  0  0  0  0
   -6.0352   -0.7812    1.2480 H   0  0  0  0  0  0  0  0  0  0  0  0
   -5.7085    0.2416   -0.1872 H   0  0  0  0  0  0  0  0  0  0  0  0
   -5.3467    0.8622    1.4461 H   0  0  0  0  0  0  0  0  0  0  0  0
   -2.9050   -2.3698    1.2617 H   0  0  0  0  0  0  0  0  0  0  0  0
   -1.3895   -4.2878    1.7220 H   0  0  0  0  0  0  0  0  0  0  0  0
    0.9805   -4.1270    1.0955 H   0  0  0  0  0  0  0  0  0  0  0  0
    1.9312   -0.5766    1.5308 H   0  0  0  0  0  0  0  0  0  0  0  0
    4.0291   -1.0010    2.7604 H   0  0  0  0  0  0  0  0  0  0  0  0
    6.2694    0.2626   -0.6259 H   0  0  0  0  0  0  0  0  0  0  0  0
    4.1563    0.7068   -1.8492 H   0  0  0  0  0  0  0  0  0  0  0  0
  1  2  1  0  0  0  0
  2  3  1  0  0  0  0
  3  4  2  0  0  0  0
  3  5  1  0  0  0  0
  5  6  1  0  0  0  0
  6  7  1  0  0  0  0
  7  8  2  0  0  0  0
  7  9  1  0  0  0  0
  9 10  1  0  0  0  0
  6 11  2  0  0  0  0
 11 12  1  0  0  0  0
 12 13  2  0  0  0  0
 13 14  1  0  0  0  0
 14 15  2  0  0  0  0
 15 16  1  0  0  0  0
 16 17  1  0  0  0  0
 17 18  1  0  0  0  0
 18 19  2  0  0  0  0
 18 20  1  0  0  0  0
 20 21  2  0  0  0  0
 21 22  1  0  0  0  0
 22 23  2  0  0  0  0
 23 24  1  0  0  0  0
 23 25  1  0  0  0  0
 25 26  2  0  0  0  0
 17  5  2  0  0  0  0
 26 20  1  0  0  0  0
 16 11  1  0  0  0  0
  1 27  1  0  0  0  0
  1 28  1  0  0  0  0
  1 29  1  0  0  0  0
 10 30  1  0  0  0  0
 10 31  1  0  0  0  0
 10 32  1  0  0  0  0
 12 33  1  0  0  0  0
 13 34  1  0  0  0  0
 14 35  1  0  0  0  0
 21 36  1  0  0  0  0
 22 37  1  0  0  0  0
 25 38  1  0  0  0  0
 26 39  1  0  0  0  0
M  END
