
  xtb     03012221253D
 energy: -10.279913546987 gnorm: 0.000323300546 xtb: 6.4.1 (afa7bdf)
 52 56  0     0  0            999 V2000
   -4.6557    2.4430   -2.4911 C   0  0  0  0  0  0  0  0  0  0  0  0
   -4.8932    1.0595   -2.0667 N   0  0  0  0  0  0  0  0  0  0  0  0
   -6.1756    0.4685   -2.4617 C   0  0  0  0  0  0  0  0  0  0  0  0
   -3.9554    0.3489   -1.3383 C   0  0  0  0  0  0  0  0  0  0  0  0
   -4.1925   -0.9799   -0.9359 C   0  0  0  0  0  0  0  0  0  0  0  0
   -3.2660   -1.6797   -0.2188 C   0  0  0  0  0  0  0  0  0  0  0  0
   -2.0383   -1.1017    0.1434 C   0  0  0  0  0  0  0  0  0  0  0  0
   -1.0581   -1.8455    0.8954 C   0  0  0  0  0  0  0  0  0  0  0  0
   -1.2696   -3.1095    1.5297 C   0  0  0  0  0  0  0  0  0  0  0  0
   -0.1166   -3.4978    2.1394 C   0  0  0  0  0  0  0  0  0  0  0  0
    0.8664   -2.4966    1.9010 C   0  0  0  0  0  0  0  0  0  0  0  0
    0.2419   -1.5224    1.1454 N   0  0  0  0  0  0  0  0  0  0  0  0
    1.0249   -0.2712    0.7062 B   0  0  0  0  0  4  0  0  0  0  0  0
    0.5021    0.8212    1.3862 F   0  0  0  0  0  0  0  0  0  0  0  0
    0.9006   -0.1301   -0.6695 F   0  0  0  0  0  0  0  0  0  0  0  0
    2.5226   -0.3779    1.0458 N   0  0  0  0  0  4  0  0  0  0  0  0
    3.5289    0.4541    0.6840 C   0  0  0  0  0  0  0  0  0  0  0  0
    3.4584    1.6518   -0.1427 C   0  0  0  0  0  0  0  0  0  0  0  0
    4.6077    2.1961   -0.7178 C   0  0  0  0  0  0  0  0  0  0  0  0
    4.5370    3.3260   -1.4988 C   0  0  0  0  0  0  0  0  0  0  0  0
    3.3248    3.9424   -1.7253 C   0  0  0  0  0  0  0  0  0  0  0  0
    2.1793    3.4216   -1.1634 C   0  0  0  0  0  0  0  0  0  0  0  0
    2.2462    2.2939   -0.3818 C   0  0  0  0  0  0  0  0  0  0  0  0
    4.7115   -0.0961    1.2603 C   0  0  0  0  0  0  0  0  0  0  0  0
    4.3865   -1.2300    1.9453 C   0  0  0  0  0  0  0  0  0  0  0  0
    2.9870   -1.4342    1.8144 C   0  0  0  0  0  0  0  0  0  0  0  0
    2.2036   -2.4829    2.2745 C   0  0  0  0  0  0  0  0  0  0  0  0
    2.8087   -3.6473    3.0411 C   0  0  0  0  0  0  0  0  0  0  0  0
    1.8907   -4.1396    3.8967 F   0  0  0  0  0  0  0  0  0  0  0  0
    3.8902   -3.2214    3.7231 F   0  0  0  0  0  0  0  0  0  0  0  0
    3.1659   -4.5951    2.1519 F   0  0  0  0  0  0  0  0  0  0  0  0
   -1.8068    0.2232   -0.2484 C   0  0  0  0  0  0  0  0  0  0  0  0
   -2.7268    0.9273   -0.9667 C   0  0  0  0  0  0  0  0  0  0  0  0
   -3.7786    2.4889   -3.1323 H   0  0  0  0  0  0  0  0  0  0  0  0
   -5.5036    2.8356   -3.0464 H   0  0  0  0  0  0  0  0  0  0  0  0
   -4.4969    3.0763   -1.6215 H   0  0  0  0  0  0  0  0  0  0  0  0
   -6.0049   -0.4085   -3.0816 H   0  0  0  0  0  0  0  0  0  0  0  0
   -6.7760    1.1741   -3.0301 H   0  0  0  0  0  0  0  0  0  0  0  0
   -6.7388    0.1781   -1.5780 H   0  0  0  0  0  0  0  0  0  0  0  0
   -5.1226   -1.4518   -1.2026 H   0  0  0  0  0  0  0  0  0  0  0  0
   -3.4700   -2.6965    0.0644 H   0  0  0  0  0  0  0  0  0  0  0  0
   -2.1943   -3.6594    1.5445 H   0  0  0  0  0  0  0  0  0  0  0  0
    0.0500   -4.3985    2.7074 H   0  0  0  0  0  0  0  0  0  0  0  0
    5.5559    1.7149   -0.5578 H   0  0  0  0  0  0  0  0  0  0  0  0
    5.4355    3.7308   -1.9387 H   0  0  0  0  0  0  0  0  0  0  0  0
    3.2730    4.8260   -2.3383 H   0  0  0  0  0  0  0  0  0  0  0  0
    1.2273    3.8996   -1.3363 H   0  0  0  0  0  0  0  0  0  0  0  0
    1.3576    1.8927    0.0657 H   0  0  0  0  0  0  0  0  0  0  0  0
    5.7002    0.3234    1.1836 H   0  0  0  0  0  0  0  0  0  0  0  0
    5.0539   -1.8753    2.4917 H   0  0  0  0  0  0  0  0  0  0  0  0
   -0.8860    0.6879    0.0460 H   0  0  0  0  0  0  0  0  0  0  0  0
   -2.5124    1.9428   -1.2522 H   0  0  0  0  0  0  0  0  0  0  0  0
  1  2  1  0  0  0  0
  2  3  1  0  0  0  0
  2  4  1  0  0  0  0
  4  5  2  0  0  0  0
  5  6  1  0  0  0  0
  6  7  2  0  0  0  0
  7  8  1  0  0  0  0
  8  9  2  0  0  0  0
  9 10  1  0  0  0  0
 10 11  2  0  0  0  0
 11 12  1  0  0  0  0
 12 13  1  0  0  0  0
 13 14  1  0  0  0  0
 13 15  1  0  0  0  0
 13 16  1  0  0  0  0
 16 17  2  0  0  0  0
 17 18  1  0  0  0  0
 18 19  2  0  0  0  0
 19 20  1  0  0  0  0
 20 21  2  0  0  0  0
 21 22  1  0  0  0  0
 22 23  2  0  0  0  0
 17 24  1  0  0  0  0
 24 25  2  0  0  0  0
 25 26  1  0  0  0  0
 26 27  2  0  0  0  0
 27 28  1  0  0  0  0
 28 29  1  0  0  0  0
 28 30  1  0  0  0  0
 28 31  1  0  0  0  0
  7 32  1  0  0  0  0
 32 33  2  0  0  0  0
 33  4  1  0  0  0  0
 12  8  1  0  0  0  0
 26 16  1  0  0  0  0
 27 11  1  0  0  0  0
 23 18  1  0  0  0  0
  1 34  1  0  0  0  0
  1 35  1  0  0  0  0
  1 36  1  0  0  0  0
  3 37  1  0  0  0  0
  3 38  1  0  0  0  0
  3 39  1  0  0  0  0
  5 40  1  0  0  0  0
  6 41  1  0  0  0  0
  9 42  1  0  0  0  0
 10 43  1  0  0  0  0
 19 44  1  0  0  0  0
 20 45  1  0  0  0  0
 21 46  1  0  0  0  0
 22 47  1  0  0  0  0
 23 48  1  0  0  0  0
 24 49  1  0  0  0  0
 25 50  1  0  0  0  0
 32 51  1  0  0  0  0
 33 52  1  0  0  0  0
M  CHG  1  13  -1
M  CHG  1  16   1
M  END
