
  xtb     03012221313D
 energy: -5.440225241259 gnorm: 0.000518135757 xtb: 6.4.1 (afa7bdf)
 28 29  0     0  0            999 V2000
   -4.2083    0.9580    0.3624 C   0  0  0  0  0  0  0  0  0  0  0  0
   -3.0626    0.0281    0.1555 C   0  0  0  0  0  0  0  0  0  0  0  0
   -3.2656   -1.3429    0.0815 C   0  0  0  0  0  0  0  0  0  0  0  0
   -2.1996   -2.2043   -0.0840 C   0  0  0  0  0  0  0  0  0  0  0  0
   -0.9170   -1.7095   -0.1713 C   0  0  0  0  0  0  0  0  0  0  0  0
   -0.6783   -0.3397   -0.0918 C   0  0  0  0  0  0  0  0  0  0  0  0
    0.7003    0.1983   -0.1797 C   0  0  0  0  0  0  0  0  0  0  0  0
    0.9803    1.3226   -0.9524 C   0  0  0  0  0  0  0  0  0  0  0  0
    2.2619    1.8220   -1.0260 C   0  0  0  0  0  0  0  0  0  0  0  0
    3.2861    1.2084   -0.3329 C   0  0  0  0  0  0  0  0  0  0  0  0
    3.0423    0.0815    0.4394 C   0  0  0  0  0  0  0  0  0  0  0  0
    4.1451   -0.5628    1.2067 C   0  0  0  0  0  0  0  0  0  0  0  0
    1.7475   -0.4070    0.5122 C   0  0  0  0  0  0  0  0  0  0  0  0
   -1.7674    0.5134    0.0753 C   0  0  0  0  0  0  0  0  0  0  0  0
   -5.1308    0.5443   -0.0471 H   0  0  0  0  0  0  0  0  0  0  0  0
   -4.3664    1.1471    1.4249 H   0  0  0  0  0  0  0  0  0  0  0  0
   -4.0300    1.9163   -0.1273 H   0  0  0  0  0  0  0  0  0  0  0  0
   -4.2673   -1.7306    0.1561 H   0  0  0  0  0  0  0  0  0  0  0  0
   -2.3713   -3.2668   -0.1451 H   0  0  0  0  0  0  0  0  0  0  0  0
   -0.0859   -2.3795   -0.3108 H   0  0  0  0  0  0  0  0  0  0  0  0
    0.1825    1.7943   -1.5003 H   0  0  0  0  0  0  0  0  0  0  0  0
    2.4656    2.6944   -1.6256 H   0  0  0  0  0  0  0  0  0  0  0  0
    4.2868    1.6021   -0.3852 H   0  0  0  0  0  0  0  0  0  0  0  0
    3.9039   -1.5982    1.4518 H   0  0  0  0  0  0  0  0  0  0  0  0
    5.0727   -0.5662    0.6317 H   0  0  0  0  0  0  0  0  0  0  0  0
    4.3297   -0.0299    2.1409 H   0  0  0  0  0  0  0  0  0  0  0  0
    1.5424   -1.2658    1.1261 H   0  0  0  0  0  0  0  0  0  0  0  0
   -1.5964    1.5721    0.1560 H   0  0  0  0  0  0  0  0  0  0  0  0
  1  2  1  0  0  0  0
  2  3  2  0  0  0  0
  3  4  1  0  0  0  0
  4  5  2  0  0  0  0
  5  6  1  0  0  0  0
  6  7  1  0  0  0  0
  7  8  2  0  0  0  0
  8  9  1  0  0  0  0
  9 10  2  0  0  0  0
 10 11  1  0  0  0  0
 11 12  1  0  0  0  0
 11 13  2  0  0  0  0
  6 14  2  0  0  0  0
 14  2  1  0  0  0  0
 13  7  1  0  0  0  0
  1 15  1  0  0  0  0
  1 16  1  0  0  0  0
  1 17  1  0  0  0  0
  3 18  1  0  0  0  0
  4 19  1  0  0  0  0
  5 20  1  0  0  0  0
  8 21  1  0  0  0  0
  9 22  1  0  0  0  0
 10 23  1  0  0  0  0
 12 24  1  0  0  0  0
 12 25  1  0  0  0  0
 12 26  1  0  0  0  0
 13 27  1  0  0  0  0
 14 28  1  0  0  0  0
M  END
