
  xtb     03012221213D
 energy: -3.555043679626 gnorm: 0.000453360169 xtb: 6.4.1 (afa7bdf)
 20 20  0     0  0            999 V2000
   -3.5206    0.2393    0.2908 C   0  0  0  0  0  0  0  0  0  0  0  0
   -2.7504   -0.6782   -0.4456 O   0  0  0  0  0  0  0  0  0  0  0  0
   -1.3573   -0.5155   -0.3220 C   0  0  0  0  0  0  0  0  0  0  0  0
   -0.5415   -1.4117   -1.0099 C   0  0  0  0  0  0  0  0  0  0  0  0
    0.8274   -1.3228   -0.9402 C   0  0  0  0  0  0  0  0  0  0  0  0
    1.4470   -0.3332   -0.1795 C   0  0  0  0  0  0  0  0  0  0  0  0
    2.8549   -0.3143   -0.1609 O   0  0  0  0  0  0  0  0  0  0  0  0
    3.4217    0.6972    0.6346 C   0  0  0  0  0  0  0  0  0  0  0  0
    0.6319    0.5654    0.5074 C   0  0  0  0  0  0  0  0  0  0  0  0
   -0.7390    0.4764    0.4379 C   0  0  0  0  0  0  0  0  0  0  0  0
   -4.5749    0.0106    0.1319 H   0  0  0  0  0  0  0  0  0  0  0  0
   -3.2936    0.1453    1.3534 H   0  0  0  0  0  0  0  0  0  0  0  0
   -3.3219    1.2538   -0.0567 H   0  0  0  0  0  0  0  0  0  0  0  0
   -1.0125   -2.1788   -1.5986 H   0  0  0  0  0  0  0  0  0  0  0  0
    1.4507   -2.0190   -1.4730 H   0  0  0  0  0  0  0  0  0  0  0  0
    3.1090    0.5721    1.6718 H   0  0  0  0  0  0  0  0  0  0  0  0
    3.1231    1.6761    0.2581 H   0  0  0  0  0  0  0  0  0  0  0  0
    4.5074    0.6122    0.5790 H   0  0  0  0  0  0  0  0  0  0  0  0
    1.0799    1.3412    1.1010 H   0  0  0  0  0  0  0  0  0  0  0  0
   -1.3413    1.1839    0.9780 H   0  0  0  0  0  0  0  0  0  0  0  0
  1  2  1  0  0  0  0
  2  3  1  0  0  0  0
  3  4  2  0  0  0  0
  4  5  1  0  0  0  0
  5  6  2  0  0  0  0
  6  7  1  0  0  0  0
  7  8  1  0  0  0  0
  6  9  1  0  0  0  0
  9 10  2  0  0  0  0
 10  3  1  0  0  0  0
  1 11  1  0  0  0  0
  1 12  1  0  0  0  0
  1 13  1  0  0  0  0
  4 14  1  0  0  0  0
  5 15  1  0  0  0  0
  8 16  1  0  0  0  0
  8 17  1  0  0  0  0
  8 18  1  0  0  0  0
  9 19  1  0  0  0  0
 10 20  1  0  0  0  0
M  END
