
  xtb     03012221233D
 energy: -11.785773310765 gnorm: 0.000349167158 xtb: 6.4.1 (afa7bdf)
 67 68  0     0  0            999 V2000
   -5.4609    1.0749   -3.7085 C   0  0  0  0  0  0  0  0  0  0  0  0
   -4.6636    1.0981   -2.4211 C   0  0  0  0  0  0  0  0  0  0  0  0
   -3.4864    0.1216   -2.4338 C   0  0  0  0  0  0  0  0  0  0  0  0
   -2.6278    0.2120   -1.1761 C   0  0  0  0  0  0  0  0  0  0  0  0
   -3.3258   -0.2529    0.0959 C   0  0  0  0  0  0  0  0  0  0  0  0
   -2.5244    0.0673    1.3130 C   0  0  0  0  0  0  0  0  0  0  0  0
   -1.5491   -0.8494    1.6841 C   0  0  0  0  0  0  0  0  0  0  0  0
   -1.3429   -1.9980    0.8931 O   0  0  0  0  0  0  0  0  0  0  0  0
   -0.0323   -2.3626    0.5688 C   0  0  0  0  0  0  0  0  0  0  0  0
    0.2480   -3.7204    0.4857 C   0  0  0  0  0  0  0  0  0  0  0  0
    1.5273   -4.1894    0.2155 C   0  0  0  0  0  0  0  0  0  0  0  0
    1.8047   -5.5402    0.1389 O   0  0  0  0  0  0  0  0  0  0  0  0
    2.5532   -3.2563    0.0188 C   0  0  0  0  0  0  0  0  0  0  0  0
    2.3124   -1.9045    0.0783 C   0  0  0  0  0  0  0  0  0  0  0  0
    3.4126   -0.9217   -0.1860 C   0  0  0  0  0  0  0  0  0  0  0  0
    3.3217   -0.2900   -1.5673 C   0  0  0  0  0  0  0  0  0  0  0  0
    4.3550    0.7842   -1.7553 C   0  0  0  0  0  0  0  0  0  0  0  0
    4.5104    1.6160   -0.9026 O   0  0  0  0  0  0  0  0  0  0  0  0
    5.1643    0.8223   -3.0158 C   0  0  0  0  0  0  0  0  0  0  0  0
    6.6158    1.1210   -2.7239 C   0  0  0  0  0  0  0  0  0  0  0  0
    1.0136   -1.4389    0.3322 C   0  0  0  0  0  0  0  0  0  0  0  0
    0.7741    0.0326    0.2857 C   0  0  0  0  0  0  0  0  0  0  0  0
    0.0994    0.5136   -0.6075 O   0  0  0  0  0  0  0  0  0  0  0  0
    1.3972    0.7711    1.2562 O   0  0  0  0  0  0  0  0  0  0  0  0
    1.1604    2.1219    1.0380 C   0  0  0  0  0  0  0  0  0  0  0  0
   -0.7561   -0.6324    2.8395 C   0  0  0  0  0  0  0  0  0  0  0  0
    0.1687   -1.6157    3.1888 O   0  0  0  0  0  0  0  0  0  0  0  0
    1.2719   -1.1335    3.9157 C   0  0  0  0  0  0  0  0  0  0  0  0
   -0.9436    0.5384    3.5464 C   0  0  0  0  0  0  0  0  0  0  0  0
   -1.8800    1.4951    3.1644 C   0  0  0  0  0  0  0  0  0  0  0  0
   -1.9685    2.6362    3.9342 O   0  0  0  0  0  0  0  0  0  0  0  0
   -2.6867    1.2699    2.0242 C   0  0  0  0  0  0  0  0  0  0  0  0
   -3.6520    2.2961    1.5566 C   0  0  0  0  0  0  0  0  0  0  0  0
   -4.0648    2.2866    0.4101 O   0  0  0  0  0  0  0  0  0  0  0  0
   -4.0756    3.2542    2.4252 O   0  0  0  0  0  0  0  0  0  0  0  0
   -6.2991    1.7763   -3.6858 H   0  0  0  0  0  0  0  0  0  0  0  0
   -5.8710    0.0812   -3.9029 H   0  0  0  0  0  0  0  0  0  0  0  0
   -4.8377    1.3390   -4.5660 H   0  0  0  0  0  0  0  0  0  0  0  0
   -4.2907    2.1109   -2.2248 H   0  0  0  0  0  0  0  0  0  0  0  0
   -5.3209    0.8770   -1.5727 H   0  0  0  0  0  0  0  0  0  0  0  0
   -2.8702    0.3171   -3.3193 H   0  0  0  0  0  0  0  0  0  0  0  0
   -3.8544   -0.9027   -2.5552 H   0  0  0  0  0  0  0  0  0  0  0  0
   -1.6959   -0.3597   -1.2954 H   0  0  0  0  0  0  0  0  0  0  0  0
   -2.2987    1.2510   -1.0325 H   0  0  0  0  0  0  0  0  0  0  0  0
   -3.5096   -1.3313    0.0524 H   0  0  0  0  0  0  0  0  0  0  0  0
   -4.3089    0.2169    0.1860 H   0  0  0  0  0  0  0  0  0  0  0  0
   -0.5482   -4.4160    0.6612 H   0  0  0  0  0  0  0  0  0  0  0  0
    0.9907   -6.0598    0.3146 H   0  0  0  0  0  0  0  0  0  0  0  0
    3.5400   -3.6207   -0.1914 H   0  0  0  0  0  0  0  0  0  0  0  0
    3.3752   -0.1281    0.5682 H   0  0  0  0  0  0  0  0  0  0  0  0
    4.3868   -1.4022   -0.0569 H   0  0  0  0  0  0  0  0  0  0  0  0
    2.3290    0.1559   -1.7063 H   0  0  0  0  0  0  0  0  0  0  0  0
    3.4178   -1.0583   -2.3432 H   0  0  0  0  0  0  0  0  0  0  0  0
    4.7431    1.5873   -3.6761 H   0  0  0  0  0  0  0  0  0  0  0  0
    5.0670   -0.1277   -3.5511 H   0  0  0  0  0  0  0  0  0  0  0  0
    7.2191    1.1878   -3.6332 H   0  0  0  0  0  0  0  0  0  0  0  0
    6.7115    2.0673   -2.1859 H   0  0  0  0  0  0  0  0  0  0  0  0
    7.0549    0.3499   -2.0867 H   0  0  0  0  0  0  0  0  0  0  0  0
    0.0819    2.2968    1.0009 H   0  0  0  0  0  0  0  0  0  0  0  0
    1.6049    2.6995    1.8516 H   0  0  0  0  0  0  0  0  0  0  0  0
    1.6149    2.4102    0.0861 H   0  0  0  0  0  0  0  0  0  0  0  0
    2.0339   -1.9139    3.9432 H   0  0  0  0  0  0  0  0  0  0  0  0
    1.6788   -0.2527    3.4141 H   0  0  0  0  0  0  0  0  0  0  0  0
    0.9702   -0.8924    4.9359 H   0  0  0  0  0  0  0  0  0  0  0  0
   -0.3619    0.7378    4.4234 H   0  0  0  0  0  0  0  0  0  0  0  0
   -2.7183    3.1601    3.5871 H   0  0  0  0  0  0  0  0  0  0  0  0
   -4.7049    3.8159    1.9324 H   0  0  0  0  0  0  0  0  0  0  0  0
  1  2  1  0  0  0  0
  2  3  1  0  0  0  0
  3  4  1  0  0  0  0
  4  5  1  0  0  0  0
  5  6  1  0  0  0  0
  6  7  2  0  0  0  0
  7  8  1  0  0  0  0
  8  9  1  0  0  0  0
  9 10  2  0  0  0  0
 10 11  1  0  0  0  0
 11 12  1  0  0  0  0
 11 13  2  0  0  0  0
 13 14  1  0  0  0  0
 14 15  1  0  0  0  0
 15 16  1  0  0  0  0
 16 17  1  0  0  0  0
 17 18  2  0  0  0  0
 17 19  1  0  0  0  0
 19 20  1  0  0  0  0
 14 21  2  0  0  0  0
 21 22  1  0  0  0  0
 22 23  2  0  0  0  0
 22 24  1  0  0  0  0
 24 25  1  0  0  0  0
  7 26  1  0  0  0  0
 26 27  1  0  0  0  0
 27 28  1  0  0  0  0
 26 29  2  0  0  0  0
 29 30  1  0  0  0  0
 30 31  1  0  0  0  0
 30 32  2  0  0  0  0
 32 33  1  0  0  0  0
 33 34  2  0  0  0  0
 33 35  1  0  0  0  0
 32  6  1  0  0  0  0
 21  9  1  0  0  0  0
  1 36  1  0  0  0  0
  1 37  1  0  0  0  0
  1 38  1  0  0  0  0
  2 39  1  0  0  0  0
  2 40  1  0  0  0  0
  3 41  1  0  0  0  0
  3 42  1  0  0  0  0
  4 43  1  0  0  0  0
  4 44  1  0  0  0  0
  5 45  1  0  0  0  0
  5 46  1  0  0  0  0
 10 47  1  0  0  0  0
 12 48  1  0  0  0  0
 13 49  1  0  0  0  0
 15 50  1  0  0  0  0
 15 51  1  0  0  0  0
 16 52  1  0  0  0  0
 16 53  1  0  0  0  0
 19 54  1  0  0  0  0
 19 55  1  0  0  0  0
 20 56  1  0  0  0  0
 20 57  1  0  0  0  0
 20 58  1  0  0  0  0
 25 59  1  0  0  0  0
 25 60  1  0  0  0  0
 25 61  1  0  0  0  0
 28 62  1  0  0  0  0
 28 63  1  0  0  0  0
 28 64  1  0  0  0  0
 29 65  1  0  0  0  0
 31 66  1  0  0  0  0
 35 67  1  0  0  0  0
M  END
