
  xtb     03012221333D
 energy: -5.206086293808 gnorm: 0.000316045123 xtb: 6.4.1 (afa7bdf)
 26 28  0     0  0            999 V2000
   -4.9871   -0.9650   -0.9849 F   0  0  0  0  0  0  0  0  0  0  0  0
   -4.3485   -1.0790    0.1960 C   0  0  0  0  0  0  0  0  0  0  0  0
   -4.0549   -2.3709    0.4461 F   0  0  0  0  0  0  0  0  0  0  0  0
   -5.1082   -0.5721    1.1865 F   0  0  0  0  0  0  0  0  0  0  0  0
   -3.0569   -0.2880    0.1244 C   0  0  0  0  0  0  0  0  0  0  0  0
   -3.0845    1.0639   -0.1321 C   0  0  0  0  0  0  0  0  0  0  0  0
   -1.9009    1.7767   -0.1972 C   0  0  0  0  0  0  0  0  0  0  0  0
   -0.6864    1.1507   -0.0090 C   0  0  0  0  0  0  0  0  0  0  0  0
   -0.6494   -0.2243    0.2503 C   0  0  0  0  0  0  0  0  0  0  0  0
   -1.8487   -0.9229    0.3135 C   0  0  0  0  0  0  0  0  0  0  0  0
    0.5556   -0.9138    0.4440 N   0  0  0  0  0  0  0  0  0  0  0  0
    1.8501   -0.3744    0.3958 C   0  0  0  0  0  0  0  0  0  0  0  0
    2.9458   -1.2081    0.5911 C   0  0  0  0  0  0  0  0  0  0  0  0
    4.2305   -0.7102    0.5443 C   0  0  0  0  0  0  0  0  0  0  0  0
    4.4440    0.6270    0.3028 C   0  0  0  0  0  0  0  0  0  0  0  0
    3.3634    1.4675    0.1081 C   0  0  0  0  0  0  0  0  0  0  0  0
    2.0718    0.9856    0.1516 C   0  0  0  0  0  0  0  0  0  0  0  0
    0.7679    2.1531   -0.1094 S   0  0  0  0  0  0  0  0  0  0  0  0
   -4.0355    1.5478   -0.2793 H   0  0  0  0  0  0  0  0  0  0  0  0
   -1.9163    2.8356   -0.3966 H   0  0  0  0  0  0  0  0  0  0  0  0
   -1.8489   -1.9796    0.5100 H   0  0  0  0  0  0  0  0  0  0  0  0
    0.4836   -1.9102    0.6298 H   0  0  0  0  0  0  0  0  0  0  0  0
    2.7783   -2.2540    0.7792 H   0  0  0  0  0  0  0  0  0  0  0  0
    5.0693   -1.3715    0.6973 H   0  0  0  0  0  0  0  0  0  0  0  0
    5.4465    1.0182    0.2654 H   0  0  0  0  0  0  0  0  0  0  0  0
    3.5194    2.5183   -0.0814 H   0  0  0  0  0  0  0  0  0  0  0  0
  1  2  1  0  0  0  0
  2  3  1  0  0  0  0
  2  4  1  0  0  0  0
  2  5  1  0  0  0  0
  5  6  2  0  0  0  0
  6  7  1  0  0  0  0
  7  8  2  0  0  0  0
  8  9  1  0  0  0  0
  9 10  2  0  0  0  0
  9 11  1  0  0  0  0
 11 12  1  0  0  0  0
 12 13  2  0  0  0  0
 13 14  1  0  0  0  0
 14 15  2  0  0  0  0
 15 16  1  0  0  0  0
 16 17  2  0  0  0  0
 17 18  1  0  0  0  0
 10  5  1  0  0  0  0
 17 12  1  0  0  0  0
 18  8  1  0  0  0  0
  6 19  1  0  0  0  0
  7 20  1  0  0  0  0
 10 21  1  0  0  0  0
 11 22  1  0  0  0  0
 13 23  1  0  0  0  0
 14 24  1  0  0  0  0
 15 25  1  0  0  0  0
 16 26  1  0  0  0  0
M  END
