
  xtb     03012221263D
 energy: -13.573270707273 gnorm: 0.000537225696 xtb: 6.4.1 (afa7bdf)
 61 65  0     0  0            999 V2000
  -11.2868   -6.1333    0.7988 O   0  0  0  0  0  0  0  0  0  0  0  0
  -10.5506   -5.4785    0.1100 C   0  0  0  0  0  0  0  0  0  0  0  0
   -9.3144   -4.8868    0.5592 C   0  0  0  0  0  0  0  0  0  0  0  0
   -8.8227   -4.9955    1.8233 C   0  0  0  0  0  0  0  0  0  0  0  0
   -7.5933   -4.3265    2.0132 C   0  0  0  0  0  0  0  0  0  0  0  0
   -7.1248   -3.6948    0.8969 C   0  0  0  0  0  0  0  0  0  0  0  0
   -5.9521   -2.9612    0.7740 C   0  0  0  0  0  0  0  0  0  0  0  0
   -4.9162   -2.3149    0.6596 C   0  0  0  0  0  0  0  0  0  0  0  0
   -3.7333   -1.5847    0.5267 C   0  0  0  0  0  0  0  0  0  0  0  0
   -3.6517   -0.3375    1.1419 C   0  0  0  0  0  0  0  0  0  0  0  0
   -3.4778    0.7788    1.6172 C   0  0  0  0  0  0  0  0  0  0  0  0
   -3.1355    2.0450    2.0650 C   0  0  0  0  0  0  0  0  0  0  0  0
   -3.9158    2.9295    2.7494 C   0  0  0  0  0  0  0  0  0  0  0  0
   -3.2700    4.1476    3.0423 C   0  0  0  0  0  0  0  0  0  0  0  0
   -1.9891    4.2065    2.5798 C   0  0  0  0  0  0  0  0  0  0  0  0
   -1.1022    5.3350    2.6998 C   0  0  0  0  0  0  0  0  0  0  0  0
    0.0062    5.3923    2.2426 O   0  0  0  0  0  0  0  0  0  0  0  0
   -1.5565    2.7188    1.7940 S   0  0  0  0  0  0  0  0  0  0  0  0
   -2.7135   -2.1047   -0.2095 C   0  0  0  0  0  0  0  0  0  0  0  0
   -1.4331   -1.5274   -0.4523 C   0  0  0  0  0  0  0  0  0  0  0  0
   -0.8808   -0.3566    0.0304 C   0  0  0  0  0  0  0  0  0  0  0  0
    0.4246   -0.1137   -0.4074 C   0  0  0  0  0  0  0  0  0  0  0  0
    0.9234   -1.0842   -1.2528 C   0  0  0  0  0  0  0  0  0  0  0  0
    2.1960   -1.1690   -1.8859 C   0  0  0  0  0  0  0  0  0  0  0  0
    3.2727   -0.3588   -1.6974 C   0  0  0  0  0  0  0  0  0  0  0  0
    3.2962    0.6969   -0.7870 C   0  0  0  0  0  0  0  0  0  0  0  0
    3.3547    1.6143    0.0237 C   0  0  0  0  0  0  0  0  0  0  0  0
    3.4486    2.6480    0.9439 C   0  0  0  0  0  0  0  0  0  0  0  0
    4.5763    3.0644    1.5910 C   0  0  0  0  0  0  0  0  0  0  0  0
    4.3722    4.1589    2.4587 C   0  0  0  0  0  0  0  0  0  0  0  0
    3.0853    4.5980    2.4899 C   0  0  0  0  0  0  0  0  0  0  0  0
    2.6307    5.7085    3.2890 C   0  0  0  0  0  0  0  0  0  0  0  0
    3.3152    6.3442    4.0448 O   0  0  0  0  0  0  0  0  0  0  0  0
    2.1009    3.6230    1.4376 S   0  0  0  0  0  0  0  0  0  0  0  0
    4.4364   -0.6158   -2.4260 C   0  0  0  0  0  0  0  0  0  0  0  0
    5.4530   -0.8579   -3.0679 C   0  0  0  0  0  0  0  0  0  0  0  0
    6.5991   -1.1543   -3.7939 C   0  0  0  0  0  0  0  0  0  0  0  0
    7.7676   -0.4486   -3.8267 C   0  0  0  0  0  0  0  0  0  0  0  0
    8.7565   -1.0109   -4.6642 C   0  0  0  0  0  0  0  0  0  0  0  0
    8.3603   -2.1547   -5.2859 C   0  0  0  0  0  0  0  0  0  0  0  0
    9.1824   -2.9213   -6.1896 C   0  0  0  0  0  0  0  0  0  0  0  0
   10.3108   -2.6403   -6.4946 O   0  0  0  0  0  0  0  0  0  0  0  0
    6.7304   -2.5438   -4.8273 S   0  0  0  0  0  0  0  0  0  0  0  0
   -0.2829   -2.3137   -1.4925 S   0  0  0  0  0  0  0  0  0  0  0  0
   -8.2353   -3.9367   -0.4162 S   0  0  0  0  0  0  0  0  0  0  0  0
  -10.8495   -5.3309   -0.9190 H   0  0  0  0  0  0  0  0  0  0  0  0
   -9.3389   -5.5467    2.5953 H   0  0  0  0  0  0  0  0  0  0  0  0
   -7.0645   -4.3125    2.9542 H   0  0  0  0  0  0  0  0  0  0  0  0
   -4.9357    2.7132    3.0283 H   0  0  0  0  0  0  0  0  0  0  0  0
   -3.7448    4.9637    3.5651 H   0  0  0  0  0  0  0  0  0  0  0  0
   -1.4507    6.2106    3.2308 H   0  0  0  0  0  0  0  0  0  0  0  0
   -2.8852   -3.0646   -0.6655 H   0  0  0  0  0  0  0  0  0  0  0  0
   -1.3996    0.3195    0.6862 H   0  0  0  0  0  0  0  0  0  0  0  0
    0.9858    0.7572   -0.1120 H   0  0  0  0  0  0  0  0  0  0  0  0
    2.3145   -1.9780   -2.5863 H   0  0  0  0  0  0  0  0  0  0  0  0
    5.5384    2.5988    1.4402 H   0  0  0  0  0  0  0  0  0  0  0  0
    5.1519    4.6223    3.0448 H   0  0  0  0  0  0  0  0  0  0  0  0
    1.5948    6.0121    3.2122 H   0  0  0  0  0  0  0  0  0  0  0  0
    7.9163    0.4573   -3.2589 H   0  0  0  0  0  0  0  0  0  0  0  0
    9.7399   -0.5889   -4.8097 H   0  0  0  0  0  0  0  0  0  0  0  0
    8.7667   -3.8167   -6.6316 H   0  0  0  0  0  0  0  0  0  0  0  0
  1  2  2  0  0  0  0
  2  3  1  0  0  0  0
  3  4  2  0  0  0  0
  4  5  1  0  0  0  0
  5  6  2  0  0  0  0
  6  7  1  0  0  0  0
  7  8  3  0  0  0  0
  8  9  1  0  0  0  0
  9 10  1  0  0  0  0
 10 11  3  0  0  0  0
 11 12  1  0  0  0  0
 12 13  2  0  0  0  0
 13 14  1  0  0  0  0
 14 15  2  0  0  0  0
 15 16  1  0  0  0  0
 16 17  2  0  0  0  0
 15 18  1  0  0  0  0
  9 19  2  0  0  0  0
 19 20  1  0  0  0  0
 20 21  2  0  0  0  0
 21 22  1  0  0  0  0
 22 23  2  0  0  0  0
 23 24  1  0  0  0  0
 24 25  2  0  0  0  0
 25 26  1  0  0  0  0
 26 27  3  0  0  0  0
 27 28  1  0  0  0  0
 28 29  2  0  0  0  0
 29 30  1  0  0  0  0
 30 31  2  0  0  0  0
 31 32  1  0  0  0  0
 32 33  2  0  0  0  0
 31 34  1  0  0  0  0
 25 35  1  0  0  0  0
 35 36  3  0  0  0  0
 36 37  1  0  0  0  0
 37 38  2  0  0  0  0
 38 39  1  0  0  0  0
 39 40  2  0  0  0  0
 40 41  1  0  0  0  0
 41 42  2  0  0  0  0
 40 43  1  0  0  0  0
 23 44  1  0  0  0  0
  6 45  1  0  0  0  0
 45  3  1  0  0  0  0
 18 12  1  0  0  0  0
 44 20  1  0  0  0  0
 34 28  1  0  0  0  0
 43 37  1  0  0  0  0
  2 46  1  0  0  0  0
  4 47  1  0  0  0  0
  5 48  1  0  0  0  0
 13 49  1  0  0  0  0
 14 50  1  0  0  0  0
 16 51  1  0  0  0  0
 19 52  1  0  0  0  0
 21 53  1  0  0  0  0
 22 54  1  0  0  0  0
 24 55  1  0  0  0  0
 29 56  1  0  0  0  0
 30 57  1  0  0  0  0
 32 58  1  0  0  0  0
 38 59  1  0  0  0  0
 39 60  1  0  0  0  0
 41 61  1  0  0  0  0
M  END
