
  xtb     03012221333D
 energy: -7.559703882183 gnorm: 0.000155385838 xtb: 6.4.1 (afa7bdf)
 36 38  0     0  0            999 V2000
    0.0183    0.9093    1.8065 O   0  0  0  0  0  0  0  0  0  0  0  0
   -0.5498    0.8197    0.7349 C   0  0  0  0  0  0  0  0  0  0  0  0
    0.1216    0.4592   -0.4352 N   0  0  0  0  0  0  0  0  0  0  0  0
    1.4153    0.1148   -0.4527 N   0  0  0  0  0  0  0  0  0  0  0  0
    2.1731   -0.0084    0.5739 C   0  0  0  0  0  0  0  0  0  0  0  0
    3.5562   -0.4008    0.5544 C   0  0  0  0  0  0  0  0  0  0  0  0
    4.2474   -0.5022    1.7610 C   0  0  0  0  0  0  0  0  0  0  0  0
    5.5714   -0.8746    1.7979 C   0  0  0  0  0  0  0  0  0  0  0  0
    6.2458   -1.1570    0.6259 C   0  0  0  0  0  0  0  0  0  0  0  0
    5.5959   -1.0670   -0.5818 C   0  0  0  0  0  0  0  0  0  0  0  0
    4.2559   -0.6930   -0.6504 C   0  0  0  0  0  0  0  0  0  0  0  0
    3.6420   -0.6150   -1.8793 O   0  0  0  0  0  0  0  0  0  0  0  0
   -1.9944    1.1171    0.6314 C   0  0  0  0  0  0  0  0  0  0  0  0
   -2.4885    2.2326    1.2604 C   0  0  0  0  0  0  0  0  0  0  0  0
   -3.8409    2.5605    1.1992 C   0  0  0  0  0  0  0  0  0  0  0  0
   -4.7127    1.7649    0.5166 C   0  0  0  0  0  0  0  0  0  0  0  0
   -4.2644    0.5914   -0.1277 C   0  0  0  0  0  0  0  0  0  0  0  0
   -5.1513   -0.2681   -0.8132 C   0  0  0  0  0  0  0  0  0  0  0  0
   -4.6987   -1.4121   -1.3987 C   0  0  0  0  0  0  0  0  0  0  0  0
   -3.3451   -1.7533   -1.3283 C   0  0  0  0  0  0  0  0  0  0  0  0
   -2.4630   -0.9410   -0.6817 C   0  0  0  0  0  0  0  0  0  0  0  0
   -2.8907    0.2547   -0.0699 C   0  0  0  0  0  0  0  0  0  0  0  0
   -0.3373    0.5893   -1.3343 H   0  0  0  0  0  0  0  0  0  0  0  0
    1.7332    0.2051    1.5298 H   0  0  0  0  0  0  0  0  0  0  0  0
    3.7274   -0.2830    2.6780 H   0  0  0  0  0  0  0  0  0  0  0  0
    6.0837   -0.9460    2.7430 H   0  0  0  0  0  0  0  0  0  0  0  0
    7.2834   -1.4482    0.6583 H   0  0  0  0  0  0  0  0  0  0  0  0
    6.1094   -1.2834   -1.5015 H   0  0  0  0  0  0  0  0  0  0  0  0
    2.7201   -0.3382   -1.6948 H   0  0  0  0  0  0  0  0  0  0  0  0
   -1.8028    2.8559    1.8111 H   0  0  0  0  0  0  0  0  0  0  0  0
   -4.1967    3.4470    1.6971 H   0  0  0  0  0  0  0  0  0  0  0  0
   -5.7579    2.0171    0.4719 H   0  0  0  0  0  0  0  0  0  0  0  0
   -6.1948   -0.0097   -0.8604 H   0  0  0  0  0  0  0  0  0  0  0  0
   -5.3859   -2.0616   -1.9152 H   0  0  0  0  0  0  0  0  0  0  0  0
   -3.0003   -2.6642   -1.7893 H   0  0  0  0  0  0  0  0  0  0  0  0
   -1.4249   -1.2118   -0.6238 H   0  0  0  0  0  0  0  0  0  0  0  0
  1  2  2  0  0  0  0
  2  3  1  0  0  0  0
  3  4  1  0  0  0  0
  4  5  2  0  0  0  0
  5  6  1  0  0  0  0
  6  7  2  0  0  0  0
  7  8  1  0  0  0  0
  8  9  2  0  0  0  0
  9 10  1  0  0  0  0
 10 11  2  0  0  0  0
 11 12  1  0  0  0  0
  2 13  1  0  0  0  0
 13 14  2  0  0  0  0
 14 15  1  0  0  0  0
 15 16  2  0  0  0  0
 16 17  1  0  0  0  0
 17 18  2  0  0  0  0
 18 19  1  0  0  0  0
 19 20  2  0  0  0  0
 20 21  1  0  0  0  0
 21 22  2  0  0  0  0
 11  6  1  0  0  0  0
 22 13  1  0  0  0  0
 22 17  1  0  0  0  0
  3 23  1  0  0  0  0
  5 24  1  0  0  0  0
  7 25  1  0  0  0  0
  8 26  1  0  0  0  0
  9 27  1  0  0  0  0
 10 28  1  0  0  0  0
 12 29  1  0  0  0  0
 14 30  1  0  0  0  0
 15 31  1  0  0  0  0
 16 32  1  0  0  0  0
 18 33  1  0  0  0  0
 19 34  1  0  0  0  0
 20 35  1  0  0  0  0
 21 36  1  0  0  0  0
M  END
