
  xtb     03012221253D
 energy: -7.547374533570 gnorm: 0.000201768344 xtb: 6.4.1 (afa7bdf)
 37 40  0     0  0            999 V2000
   -1.5283   -2.3632    1.2172 C   0  0  0  0  0  0  0  0  0  0  0  0
   -1.5171   -1.3710    0.0494 C   0  0  0  0  0  0  0  0  0  0  0  0
   -1.8406   -2.0886   -1.2651 C   0  0  0  0  0  0  0  0  0  0  0  0
   -2.5739   -0.3528    0.2962 N   0  0  0  0  0  0  0  0  0  0  0  0
   -2.3680    1.0097    0.3949 C   0  0  0  0  0  0  0  0  0  0  0  0
   -3.4475    1.8701    0.6094 C   0  0  0  0  0  0  0  0  0  0  0  0
   -3.2552    3.2247    0.7084 C   0  0  0  0  0  0  0  0  0  0  0  0
   -1.9798    3.7501    0.5952 C   0  0  0  0  0  0  0  0  0  0  0  0
   -0.9037    2.9183    0.3843 C   0  0  0  0  0  0  0  0  0  0  0  0
   -1.0657    1.5366    0.2796 C   0  0  0  0  0  0  0  0  0  0  0  0
    0.0569    0.6318    0.0568 C   0  0  0  0  0  0  0  0  0  0  0  0
    1.3412    1.1355   -0.0464 N   0  0  0  0  0  0  0  0  0  0  0  0
    2.4719    0.3576   -0.2579 C   0  0  0  0  0  0  0  0  0  0  0  0
    3.7507    0.9139   -0.3536 C   0  0  0  0  0  0  0  0  0  0  0  0
    4.8428    0.1105   -0.5630 C   0  0  0  0  0  0  0  0  0  0  0  0
    4.6871   -1.2648   -0.6819 C   0  0  0  0  0  0  0  0  0  0  0  0
    3.4377   -1.8269   -0.5906 C   0  0  0  0  0  0  0  0  0  0  0  0
    2.3184   -1.0286   -0.3787 C   0  0  0  0  0  0  0  0  0  0  0  0
    0.9843   -1.6097   -0.2794 C   0  0  0  0  0  0  0  0  0  0  0  0
    0.8369   -2.8278   -0.3876 O   0  0  0  0  0  0  0  0  0  0  0  0
   -0.1368   -0.7310   -0.0546 C   0  0  0  0  0  0  0  0  0  0  0  0
   -0.7730   -3.1348    1.0725 H   0  0  0  0  0  0  0  0  0  0  0  0
   -2.5000   -2.8458    1.3097 H   0  0  0  0  0  0  0  0  0  0  0  0
   -1.3135   -1.8475    2.1517 H   0  0  0  0  0  0  0  0  0  0  0  0
   -1.0897   -2.8475   -1.4824 H   0  0  0  0  0  0  0  0  0  0  0  0
   -2.8150   -2.5720   -1.2164 H   0  0  0  0  0  0  0  0  0  0  0  0
   -1.8540   -1.3772   -2.0893 H   0  0  0  0  0  0  0  0  0  0  0  0
   -3.5100   -0.7468    0.3656 H   0  0  0  0  0  0  0  0  0  0  0  0
   -4.4353    1.4528    0.6958 H   0  0  0  0  0  0  0  0  0  0  0  0
   -4.0953    3.8792    0.8739 H   0  0  0  0  0  0  0  0  0  0  0  0
   -1.8306    4.8145    0.6729 H   0  0  0  0  0  0  0  0  0  0  0  0
    0.0750    3.3518    0.2987 H   0  0  0  0  0  0  0  0  0  0  0  0
    1.4918    2.1349    0.0380 H   0  0  0  0  0  0  0  0  0  0  0  0
    3.8652    1.9795   -0.2612 H   0  0  0  0  0  0  0  0  0  0  0  0
    5.8251    0.5460   -0.6358 H   0  0  0  0  0  0  0  0  0  0  0  0
    5.5485   -1.8911   -0.8457 H   0  0  0  0  0  0  0  0  0  0  0  0
    3.2996   -2.8905   -0.6805 H   0  0  0  0  0  0  0  0  0  0  0  0
  1  2  1  0  0  0  0
  2  3  1  0  0  0  0
  2  4  1  0  0  0  0
  4  5  1  0  0  0  0
  5  6  2  0  0  0  0
  6  7  1  0  0  0  0
  7  8  2  0  0  0  0
  8  9  1  0  0  0  0
  9 10  2  0  0  0  0
 10 11  1  0  0  0  0
 11 12  1  0  0  0  0
 12 13  1  0  0  0  0
 13 14  2  0  0  0  0
 14 15  1  0  0  0  0
 15 16  2  0  0  0  0
 16 17  1  0  0  0  0
 17 18  2  0  0  0  0
 18 19  1  0  0  0  0
 19 20  2  0  0  0  0
 19 21  1  0  0  0  0
 21  2  1  0  0  0  0
 10  5  1  0  0  0  0
 21 11  2  0  0  0  0
 18 13  1  0  0  0  0
  1 22  1  0  0  0  0
  1 23  1  0  0  0  0
  1 24  1  0  0  0  0
  3 25  1  0  0  0  0
  3 26  1  0  0  0  0
  3 27  1  0  0  0  0
  4 28  1  0  0  0  0
  6 29  1  0  0  0  0
  7 30  1  0  0  0  0
  8 31  1  0  0  0  0
  9 32  1  0  0  0  0
 12 33  1  0  0  0  0
 14 34  1  0  0  0  0
 15 35  1  0  0  0  0
 16 36  1  0  0  0  0
 17 37  1  0  0  0  0
M  END
