
  xtb     03012221283D
 energy: -9.338409830779 gnorm: 0.000248736615 xtb: 6.4.1 (afa7bdf)
 48 52  0     0  0            999 V2000
   -0.8677    0.2299    1.0589 C   0  0  0  0  0  0  0  0  0  0  0  0
    0.4872    0.3820    1.2335 C   0  0  0  0  0  0  0  0  0  0  0  0
    1.3961   -0.1791    0.3355 C   0  0  0  0  0  0  0  0  0  0  0  0
    2.8522   -0.0211    0.5278 C   0  0  0  0  0  0  0  0  0  0  0  0
    3.4103    0.0067    1.8064 C   0  0  0  0  0  0  0  0  0  0  0  0
    4.7623    0.1516    1.9804 C   0  0  0  0  0  0  0  0  0  0  0  0
    5.6260    0.2813    0.8891 C   0  0  0  0  0  0  0  0  0  0  0  0
    5.0779    0.2408   -0.4082 C   0  0  0  0  0  0  0  0  0  0  0  0
    3.7147    0.0959   -0.5641 C   0  0  0  0  0  0  0  0  0  0  0  0
    5.9688    0.3196   -1.6115 C   0  0  0  0  0  0  0  0  0  0  0  0
    7.4436    0.1223   -1.2450 C   0  0  0  0  0  0  0  0  0  0  0  0
    7.7652    0.8774    0.0419 C   0  0  0  0  0  0  0  0  0  0  0  0
    6.9880    0.4349    1.1519 O   0  0  0  0  0  0  0  0  0  0  0  0
    0.8860   -0.8978   -0.7465 C   0  0  0  0  0  0  0  0  0  0  0  0
   -0.4690   -1.0512   -0.9203 C   0  0  0  0  0  0  0  0  0  0  0  0
   -1.3776   -0.4918   -0.0211 C   0  0  0  0  0  0  0  0  0  0  0  0
   -2.8338   -0.6617   -0.2021 C   0  0  0  0  0  0  0  0  0  0  0  0
   -3.3625   -1.8417   -0.7267 C   0  0  0  0  0  0  0  0  0  0  0  0
   -4.7157   -1.9972   -0.8815 C   0  0  0  0  0  0  0  0  0  0  0  0
   -5.6104   -0.9869   -0.5173 C   0  0  0  0  0  0  0  0  0  0  0  0
   -5.0895    0.2168   -0.0028 C   0  0  0  0  0  0  0  0  0  0  0  0
   -3.7250    0.3547    0.1481 C   0  0  0  0  0  0  0  0  0  0  0  0
   -6.0033    1.3534    0.3462 C   0  0  0  0  0  0  0  0  0  0  0  0
   -7.4203    1.1376   -0.1960 C   0  0  0  0  0  0  0  0  0  0  0  0
   -7.8327   -0.3199   -0.0088 C   0  0  0  0  0  0  0  0  0  0  0  0
   -6.9736   -1.2282   -0.6934 O   0  0  0  0  0  0  0  0  0  0  0  0
   -1.5506    0.6568    1.7721 H   0  0  0  0  0  0  0  0  0  0  0  0
    0.8587    0.9531    2.0661 H   0  0  0  0  0  0  0  0  0  0  0  0
    2.7684   -0.1056    2.6628 H   0  0  0  0  0  0  0  0  0  0  0  0
    5.1887    0.1716    2.9677 H   0  0  0  0  0  0  0  0  0  0  0  0
    3.3052    0.0842   -1.5580 H   0  0  0  0  0  0  0  0  0  0  0  0
    5.6489   -0.4297   -2.3468 H   0  0  0  0  0  0  0  0  0  0  0  0
    5.8274    1.2934   -2.0952 H   0  0  0  0  0  0  0  0  0  0  0  0
    7.6440   -0.9444   -1.0906 H   0  0  0  0  0  0  0  0  0  0  0  0
    8.1045    0.4408   -2.0626 H   0  0  0  0  0  0  0  0  0  0  0  0
    7.5635    1.9482   -0.0782 H   0  0  0  0  0  0  0  0  0  0  0  0
    8.8221    0.7803    0.3215 H   0  0  0  0  0  0  0  0  0  0  0  0
    1.5696   -1.3512   -1.4425 H   0  0  0  0  0  0  0  0  0  0  0  0
   -0.8414   -1.5985   -1.7683 H   0  0  0  0  0  0  0  0  0  0  0  0
   -2.6962   -2.6439   -0.9920 H   0  0  0  0  0  0  0  0  0  0  0  0
   -5.1202   -2.9111   -1.2794 H   0  0  0  0  0  0  0  0  0  0  0  0
   -3.3369    1.2823    0.5282 H   0  0  0  0  0  0  0  0  0  0  0  0
   -6.0299    1.4652    1.4367 H   0  0  0  0  0  0  0  0  0  0  0  0
   -5.5791    2.2887   -0.0406 H   0  0  0  0  0  0  0  0  0  0  0  0
   -8.1395    1.8142    0.2851 H   0  0  0  0  0  0  0  0  0  0  0  0
   -7.4450    1.3790   -1.2650 H   0  0  0  0  0  0  0  0  0  0  0  0
   -7.8039   -0.5961    1.0518 H   0  0  0  0  0  0  0  0  0  0  0  0
   -8.8556   -0.5058   -0.3607 H   0  0  0  0  0  0  0  0  0  0  0  0
  1  2  2  0  0  0  0
  2  3  1  0  0  0  0
  3  4  1  0  0  0  0
  4  5  2  0  0  0  0
  5  6  1  0  0  0  0
  6  7  2  0  0  0  0
  7  8  1  0  0  0  0
  8  9  2  0  0  0  0
  8 10  1  0  0  0  0
 10 11  1  0  0  0  0
 11 12  1  0  0  0  0
 12 13  1  0  0  0  0
  3 14  2  0  0  0  0
 14 15  1  0  0  0  0
 15 16  2  0  0  0  0
 16 17  1  0  0  0  0
 17 18  2  0  0  0  0
 18 19  1  0  0  0  0
 19 20  2  0  0  0  0
 20 21  1  0  0  0  0
 21 22  2  0  0  0  0
 21 23  1  0  0  0  0
 23 24  1  0  0  0  0
 24 25  1  0  0  0  0
 25 26  1  0  0  0  0
 16  1  1  0  0  0  0
 22 17  1  0  0  0  0
  9  4  1  0  0  0  0
 26 20  1  0  0  0  0
 13  7  1  0  0  0  0
  1 27  1  0  0  0  0
  2 28  1  0  0  0  0
  5 29  1  0  0  0  0
  6 30  1  0  0  0  0
  9 31  1  0  0  0  0
 10 32  1  0  0  0  0
 10 33  1  0  0  0  0
 11 34  1  0  0  0  0
 11 35  1  0  0  0  0
 12 36  1  0  0  0  0
 12 37  1  0  0  0  0
 14 38  1  0  0  0  0
 15 39  1  0  0  0  0
 18 40  1  0  0  0  0
 19 41  1  0  0  0  0
 22 42  1  0  0  0  0
 23 43  1  0  0  0  0
 23 44  1  0  0  0  0
 24 45  1  0  0  0  0
 24 46  1  0  0  0  0
 25 47  1  0  0  0  0
 25 48  1  0  0  0  0
M  END
