
  xtb     03012221273D
 energy: -8.199131390923 gnorm: 0.000196961833 xtb: 6.4.1 (afa7bdf)
 44 45  0     0  0            999 V2000
   -3.4522    1.0685   -3.2729 C   0  0  0  0  0  0  0  0  0  0  0  0
   -4.0502    0.9249   -1.8888 C   0  0  0  0  0  0  0  0  0  0  0  0
   -3.8383   -0.4227   -1.3211 N   0  0  0  0  0  0  0  0  0  0  0  0
   -4.9084   -1.4083   -1.5799 C   0  0  0  0  0  0  0  0  0  0  0  0
   -4.5108   -2.4275   -2.6282 C   0  0  0  0  0  0  0  0  0  0  0  0
   -2.6512   -0.7686   -0.6523 C   0  0  0  0  0  0  0  0  0  0  0  0
   -2.5130   -2.0158   -0.0125 C   0  0  0  0  0  0  0  0  0  0  0  0
   -1.3570   -2.3580    0.6266 C   0  0  0  0  0  0  0  0  0  0  0  0
   -0.2690   -1.4725    0.6694 C   0  0  0  0  0  0  0  0  0  0  0  0
    0.9565   -1.8023    1.2833 C   0  0  0  0  0  0  0  0  0  0  0  0
    1.9822   -0.9104    1.3240 C   0  0  0  0  0  0  0  0  0  0  0  0
    3.2278   -1.3463    1.7932 C   0  0  0  0  0  0  0  0  0  0  0  0
    4.2715   -1.7350    2.1273 N   0  0  0  0  0  0  0  0  0  0  0  0
    1.7977    0.4039    0.7535 C   0  0  0  0  0  0  0  0  0  0  0  0
    2.7275    1.3492    0.8764 N   0  0  0  0  0  0  0  0  0  0  0  0
    3.5518    1.4986    1.9574 C   0  0  0  0  0  0  0  0  0  0  0  0
    3.2584    1.1696    3.0873 O   0  0  0  0  0  0  0  0  0  0  0  0
    4.9136    2.1038    1.7190 C   0  0  0  0  0  0  0  0  0  0  0  0
    5.9749    1.0471    1.9989 C   0  0  0  0  0  0  0  0  0  0  0  0
    5.0897    3.3414    2.5873 C   0  0  0  0  0  0  0  0  0  0  0  0
    0.6538    0.6983    0.0417 O   0  0  0  0  0  0  0  0  0  0  0  0
   -0.3850   -0.2157    0.0379 C   0  0  0  0  0  0  0  0  0  0  0  0
   -1.5749    0.1078   -0.6063 C   0  0  0  0  0  0  0  0  0  0  0  0
   -3.5655    2.0810   -3.6663 H   0  0  0  0  0  0  0  0  0  0  0  0
   -3.9276    0.3865   -3.9790 H   0  0  0  0  0  0  0  0  0  0  0  0
   -2.3874    0.8314   -3.2702 H   0  0  0  0  0  0  0  0  0  0  0  0
   -5.1240    1.1320   -1.9071 H   0  0  0  0  0  0  0  0  0  0  0  0
   -3.6327    1.6596   -1.1947 H   0  0  0  0  0  0  0  0  0  0  0  0
   -5.8105   -0.8738   -1.8906 H   0  0  0  0  0  0  0  0  0  0  0  0
   -5.1711   -1.8879   -0.6331 H   0  0  0  0  0  0  0  0  0  0  0  0
   -3.6077   -2.9653   -2.3368 H   0  0  0  0  0  0  0  0  0  0  0  0
   -4.2962   -1.9455   -3.5828 H   0  0  0  0  0  0  0  0  0  0  0  0
   -5.2954   -3.1672   -2.8011 H   0  0  0  0  0  0  0  0  0  0  0  0
   -3.3350   -2.7085   -0.0199 H   0  0  0  0  0  0  0  0  0  0  0  0
   -1.2657   -3.3168    1.1078 H   0  0  0  0  0  0  0  0  0  0  0  0
    1.0951   -2.7861    1.6946 H   0  0  0  0  0  0  0  0  0  0  0  0
    4.9624    2.3950    0.6564 H   0  0  0  0  0  0  0  0  0  0  0  0
    6.9832    1.4297    1.8393 H   0  0  0  0  0  0  0  0  0  0  0  0
    5.8972    0.7068    3.0316 H   0  0  0  0  0  0  0  0  0  0  0  0
    5.8320    0.1697    1.3664 H   0  0  0  0  0  0  0  0  0  0  0  0
    6.0704    3.7968    2.4474 H   0  0  0  0  0  0  0  0  0  0  0  0
    4.9867    3.0759    3.6394 H   0  0  0  0  0  0  0  0  0  0  0  0
    4.3281    4.0897    2.3654 H   0  0  0  0  0  0  0  0  0  0  0  0
   -1.6315    1.0670   -1.0808 H   0  0  0  0  0  0  0  0  0  0  0  0
  1  2  1  0  0  0  0
  2  3  1  0  0  0  0
  3  4  1  0  0  0  0
  4  5  1  0  0  0  0
  3  6  1  0  0  0  0
  6  7  2  0  0  0  0
  7  8  1  0  0  0  0
  8  9  2  0  0  0  0
  9 10  1  0  0  0  0
 10 11  2  0  0  0  0
 11 12  1  0  0  0  0
 12 13  3  0  0  0  0
 11 14  1  0  0  0  0
 14 15  2  0  0  0  0
 15 16  1  0  0  0  0
 16 17  2  0  0  0  0
 16 18  1  0  0  0  0
 18 19  1  0  0  0  0
 18 20  1  0  0  0  0
 14 21  1  0  0  0  0
 21 22  1  0  0  0  0
 22 23  2  0  0  0  0
 23  6  1  0  0  0  0
 22  9  1  0  0  0  0
  1 24  1  0  0  0  0
  1 25  1  0  0  0  0
  1 26  1  0  0  0  0
  2 27  1  0  0  0  0
  2 28  1  0  0  0  0
  4 29  1  0  0  0  0
  4 30  1  0  0  0  0
  5 31  1  0  0  0  0
  5 32  1  0  0  0  0
  5 33  1  0  0  0  0
  7 34  1  0  0  0  0
  8 35  1  0  0  0  0
 10 36  1  0  0  0  0
 18 37  1  0  0  0  0
 19 38  1  0  0  0  0
 19 39  1  0  0  0  0
 19 40  1  0  0  0  0
 20 41  1  0  0  0  0
 20 42  1  0  0  0  0
 20 43  1  0  0  0  0
 23 44  1  0  0  0  0
M  END
