
  xtb     03012221213D
 energy: -9.990123210756 gnorm: 0.000243838534 xtb: 6.4.1 (afa7bdf)
 48 52  0     0  0            999 V2000
    7.9204    1.2775   -0.4107 C   0  0  0  0  0  0  0  0  0  0  0  0
    7.1126    0.0572   -0.3889 N   0  0  0  0  0  0  0  0  0  0  0  0
    7.8331   -1.2159   -0.4362 C   0  0  0  0  0  0  0  0  0  0  0  0
    5.7089    0.1056   -0.3248 C   0  0  0  0  0  0  0  0  0  0  0  0
    5.0248    1.3258   -0.3465 C   0  0  0  0  0  0  0  0  0  0  0  0
    3.6554    1.3710   -0.2839 C   0  0  0  0  0  0  0  0  0  0  0  0
    2.8964    0.2001   -0.1965 C   0  0  0  0  0  0  0  0  0  0  0  0
    1.4533    0.2851   -0.1327 C   0  0  0  0  0  0  0  0  0  0  0  0
    0.6048   -0.7538   -0.0652 C   0  0  0  0  0  0  0  0  0  0  0  0
   -0.8197   -0.5723   -0.0057 C   0  0  0  0  0  0  0  0  0  0  0  0
   -1.4092    0.6214   -0.0066 N   0  0  0  0  0  0  0  0  0  0  0  0
   -2.7264    0.3677    0.0577 C   0  0  0  0  0  0  0  0  0  0  0  0
   -3.8382    1.2859    0.0873 C   0  0  0  0  0  0  0  0  0  0  0  0
   -3.6249    2.6638    0.0481 C   0  0  0  0  0  0  0  0  0  0  0  0
   -4.6830    3.5332    0.0767 C   0  0  0  0  0  0  0  0  0  0  0  0
   -5.9781    3.0415    0.1451 C   0  0  0  0  0  0  0  0  0  0  0  0
   -6.2089    1.6888    0.1845 C   0  0  0  0  0  0  0  0  0  0  0  0
   -5.1522    0.7690    0.1570 C   0  0  0  0  0  0  0  0  0  0  0  0
   -5.3705   -0.6821    0.1981 C   0  0  0  0  0  0  0  0  0  0  0  0
   -6.6499   -1.2493    0.2662 C   0  0  0  0  0  0  0  0  0  0  0  0
   -6.8253   -2.6105    0.3034 C   0  0  0  0  0  0  0  0  0  0  0  0
   -5.7314   -3.4632    0.2741 C   0  0  0  0  0  0  0  0  0  0  0  0
   -4.4655   -2.9450    0.2075 C   0  0  0  0  0  0  0  0  0  0  0  0
   -4.2672   -1.5652    0.1689 C   0  0  0  0  0  0  0  0  0  0  0  0
   -2.9373   -1.0229    0.0983 C   0  0  0  0  0  0  0  0  0  0  0  0
   -1.7151   -1.6190    0.0578 O   0  0  0  0  0  0  0  0  0  0  0  0
    3.5792   -1.0201   -0.1743 C   0  0  0  0  0  0  0  0  0  0  0  0
    4.9488   -1.0654   -0.2370 C   0  0  0  0  0  0  0  0  0  0  0  0
    7.6805    1.8989    0.4494 H   0  0  0  0  0  0  0  0  0  0  0  0
    7.7239    1.8378   -1.3222 H   0  0  0  0  0  0  0  0  0  0  0  0
    8.9824    1.0462   -0.3735 H   0  0  0  0  0  0  0  0  0  0  0  0
    7.4732   -1.8172   -1.2683 H   0  0  0  0  0  0  0  0  0  0  0  0
    7.6826   -1.7637    0.4916 H   0  0  0  0  0  0  0  0  0  0  0  0
    8.9006   -1.0585   -0.5712 H   0  0  0  0  0  0  0  0  0  0  0  0
    5.5832    2.2418   -0.4186 H   0  0  0  0  0  0  0  0  0  0  0  0
    3.1475    2.3201   -0.3033 H   0  0  0  0  0  0  0  0  0  0  0  0
    1.0227    1.2705   -0.1420 H   0  0  0  0  0  0  0  0  0  0  0  0
    0.9696   -1.7621   -0.0557 H   0  0  0  0  0  0  0  0  0  0  0  0
   -2.6136    3.0284   -0.0048 H   0  0  0  0  0  0  0  0  0  0  0  0
   -4.5106    4.5964    0.0462 H   0  0  0  0  0  0  0  0  0  0  0  0
   -6.8084    3.7285    0.1675 H   0  0  0  0  0  0  0  0  0  0  0  0
   -7.2221    1.3352    0.2375 H   0  0  0  0  0  0  0  0  0  0  0  0
   -7.5149   -0.6125    0.2901 H   0  0  0  0  0  0  0  0  0  0  0  0
   -7.8200   -3.0222    0.3556 H   0  0  0  0  0  0  0  0  0  0  0  0
   -5.8781   -4.5303    0.3035 H   0  0  0  0  0  0  0  0  0  0  0  0
   -3.6047   -3.5912    0.1837 H   0  0  0  0  0  0  0  0  0  0  0  0
    3.0231   -1.9378   -0.1050 H   0  0  0  0  0  0  0  0  0  0  0  0
    5.4489   -2.0170   -0.2133 H   0  0  0  0  0  0  0  0  0  0  0  0
  1  2  1  0  0  0  0
  2  3  1  0  0  0  0
  2  4  1  0  0  0  0
  4  5  2  0  0  0  0
  5  6  1  0  0  0  0
  6  7  2  0  0  0  0
  7  8  1  0  0  0  0
  8  9  2  0  0  0  0
  9 10  1  0  0  0  0
 10 11  2  0  0  0  0
 11 12  1  0  0  0  0
 12 13  2  0  0  0  0
 13 14  1  0  0  0  0
 14 15  2  0  0  0  0
 15 16  1  0  0  0  0
 16 17  2  0  0  0  0
 17 18  1  0  0  0  0
 18 19  2  0  0  0  0
 19 20  1  0  0  0  0
 20 21  2  0  0  0  0
 21 22  1  0  0  0  0
 22 23  2  0  0  0  0
 23 24  1  0  0  0  0
 24 25  2  0  0  0  0
 25 26  1  0  0  0  0
  7 27  1  0  0  0  0
 27 28  2  0  0  0  0
 28  4  1  0  0  0  0
 26 10  1  0  0  0  0
 25 12  1  0  0  0  0
 18 13  1  0  0  0  0
 24 19  1  0  0  0  0
  1 29  1  0  0  0  0
  1 30  1  0  0  0  0
  1 31  1  0  0  0  0
  3 32  1  0  0  0  0
  3 33  1  0  0  0  0
  3 34  1  0  0  0  0
  5 35  1  0  0  0  0
  6 36  1  0  0  0  0
  8 37  1  0  0  0  0
  9 38  1  0  0  0  0
 14 39  1  0  0  0  0
 15 40  1  0  0  0  0
 16 41  1  0  0  0  0
 17 42  1  0  0  0  0
 20 43  1  0  0  0  0
 21 44  1  0  0  0  0
 22 45  1  0  0  0  0
 23 46  1  0  0  0  0
 27 47  1  0  0  0  0
 28 48  1  0  0  0  0
M  END
