
  xtb     03012221293D
 energy: -16.542112753196 gnorm: 0.000263441090 xtb: 6.4.1 (afa7bdf)
 90 94  0     0  0            999 V2000
  -10.3610    0.5032    2.0838 C   0  0  0  0  0  0  0  0  0  0  0  0
   -8.8721    0.3501    1.8541 C   0  0  0  0  0  0  0  0  0  0  0  0
   -8.5758   -0.6730    0.9344 O   0  0  0  0  0  0  0  0  0  0  0  0
   -7.2255   -0.7622    0.7668 C   0  0  0  0  0  0  0  0  0  0  0  0
   -6.4124   -0.0534    1.3217 O   0  0  0  0  0  0  0  0  0  0  0  0
   -6.7534   -1.8040   -0.2097 C   0  0  0  0  0  0  0  0  0  0  0  0
   -6.4324   -1.2004   -1.5795 C   0  0  0  0  0  0  0  0  0  0  0  0
   -5.5208    0.0228   -1.4931 C   0  0  0  0  0  0  0  0  0  0  0  0
   -4.1564   -0.2692   -0.8733 C   0  0  0  0  0  0  0  0  0  0  0  0
   -3.4260    0.9951   -0.4541 C   0  0  0  0  0  0  0  0  0  0  0  0
   -2.2062    0.7051    0.3143 N   0  0  0  0  0  0  0  0  0  0  0  0
   -2.2948    0.5489    1.7122 C   0  0  0  0  0  0  0  0  0  0  0  0
   -3.5205    0.4421    2.3771 C   0  0  0  0  0  0  0  0  0  0  0  0
   -3.5755    0.3181    3.7416 C   0  0  0  0  0  0  0  0  0  0  0  0
   -2.4153    0.2850    4.5114 C   0  0  0  0  0  0  0  0  0  0  0  0
   -2.4822    0.1791    5.9941 C   0  0  0  0  0  0  0  0  0  0  0  0
   -1.2020    0.3805    3.8640 C   0  0  0  0  0  0  0  0  0  0  0  0
   -1.1204    0.4996    2.4825 C   0  0  0  0  0  0  0  0  0  0  0  0
    0.1879    0.5599    1.8462 C   0  0  0  0  0  0  0  0  0  0  0  0
    1.2190    0.5604    2.5032 O   0  0  0  0  0  0  0  0  0  0  0  0
    0.2304    0.5992    0.3916 C   0  0  0  0  0  0  0  0  0  0  0  0
    1.4553    0.5729   -0.2511 C   0  0  0  0  0  0  0  0  0  0  0  0
    1.5572    0.5857   -1.6373 C   0  0  0  0  0  0  0  0  0  0  0  0
    0.3605    0.6013   -2.3824 C   0  0  0  0  0  0  0  0  0  0  0  0
   -0.8642    0.6384   -1.7398 C   0  0  0  0  0  0  0  0  0  0  0  0
   -0.9641    0.6509   -0.3543 C   0  0  0  0  0  0  0  0  0  0  0  0
    0.3975    0.5626   -3.8366 C   0  0  0  0  0  0  0  0  0  0  0  0
   -0.6352    0.5914   -4.4908 O   0  0  0  0  0  0  0  0  0  0  0  0
    1.7016    0.4727   -4.4765 C   0  0  0  0  0  0  0  0  0  0  0  0
    1.7753    0.3836   -5.8608 C   0  0  0  0  0  0  0  0  0  0  0  0
    2.9832    0.2720   -6.5156 C   0  0  0  0  0  0  0  0  0  0  0  0
    3.0416    0.2040   -8.0008 C   0  0  0  0  0  0  0  0  0  0  0  0
    4.1467    0.2608   -5.7503 C   0  0  0  0  0  0  0  0  0  0  0  0
    4.0985    0.3513   -4.3826 C   0  0  0  0  0  0  0  0  0  0  0  0
    2.8787    0.4670   -3.7086 C   0  0  0  0  0  0  0  0  0  0  0  0
    2.8014    0.5772   -2.3058 N   0  0  0  0  0  0  0  0  0  0  0  0
    4.0371    0.6897   -1.5143 C   0  0  0  0  0  0  0  0  0  0  0  0
    4.5723   -0.6690   -1.0922 C   0  0  0  0  0  0  0  0  0  0  0  0
    5.8179   -0.5689   -0.2203 C   0  0  0  0  0  0  0  0  0  0  0  0
    6.3868   -1.9269    0.1814 C   0  0  0  0  0  0  0  0  0  0  0  0
    7.5956   -1.8034    1.1048 C   0  0  0  0  0  0  0  0  0  0  0  0
    7.2163   -1.1675    2.4118 C   0  0  0  0  0  0  0  0  0  0  0  0
    6.9863   -1.8685    3.3739 O   0  0  0  0  0  0  0  0  0  0  0  0
    7.1211    0.1933    2.3983 O   0  0  0  0  0  0  0  0  0  0  0  0
    6.6838    0.6665    3.6520 C   0  0  0  0  0  0  0  0  0  0  0  0
    7.7470    0.5577    4.7242 C   0  0  0  0  0  0  0  0  0  0  0  0
  -10.7883   -0.4258    2.4614 H   0  0  0  0  0  0  0  0  0  0  0  0
  -10.8717    0.7345    1.1489 H   0  0  0  0  0  0  0  0  0  0  0  0
  -10.5884    1.2956    2.7988 H   0  0  0  0  0  0  0  0  0  0  0  0
   -8.4256    1.2749    1.4639 H   0  0  0  0  0  0  0  0  0  0  0  0
   -8.3413    0.1100    2.7856 H   0  0  0  0  0  0  0  0  0  0  0  0
   -5.8734   -2.2970    0.2120 H   0  0  0  0  0  0  0  0  0  0  0  0
   -7.5197   -2.5810   -0.2955 H   0  0  0  0  0  0  0  0  0  0  0  0
   -5.9752   -1.9572   -2.2286 H   0  0  0  0  0  0  0  0  0  0  0  0
   -7.3717   -0.9177   -2.0720 H   0  0  0  0  0  0  0  0  0  0  0  0
   -6.0242    0.7868   -0.8853 H   0  0  0  0  0  0  0  0  0  0  0  0
   -5.3874    0.4833   -2.4815 H   0  0  0  0  0  0  0  0  0  0  0  0
   -3.5396   -0.8597   -1.5590 H   0  0  0  0  0  0  0  0  0  0  0  0
   -4.2810   -0.9027    0.0098 H   0  0  0  0  0  0  0  0  0  0  0  0
   -4.0737    1.6273    0.1602 H   0  0  0  0  0  0  0  0  0  0  0  0
   -3.1788    1.6151   -1.3197 H   0  0  0  0  0  0  0  0  0  0  0  0
   -4.4409    0.4080    1.8214 H   0  0  0  0  0  0  0  0  0  0  0  0
   -4.5310    0.2371    4.2336 H   0  0  0  0  0  0  0  0  0  0  0  0
   -1.6368   -0.3879    6.3849 H   0  0  0  0  0  0  0  0  0  0  0  0
   -3.3947   -0.3258    6.3125 H   0  0  0  0  0  0  0  0  0  0  0  0
   -2.4661    1.1678    6.4535 H   0  0  0  0  0  0  0  0  0  0  0  0
   -0.2862    0.3578    4.4298 H   0  0  0  0  0  0  0  0  0  0  0  0
    2.3314    0.5192    0.3654 H   0  0  0  0  0  0  0  0  0  0  0  0
   -1.7443    0.6315   -2.3530 H   0  0  0  0  0  0  0  0  0  0  0  0
    0.8576    0.4011   -6.4235 H   0  0  0  0  0  0  0  0  0  0  0  0
    2.1794   -0.3289   -8.4031 H   0  0  0  0  0  0  0  0  0  0  0  0
    3.9387   -0.3169   -8.3368 H   0  0  0  0  0  0  0  0  0  0  0  0
    3.0506    1.2047   -8.4336 H   0  0  0  0  0  0  0  0  0  0  0  0
    5.0975    0.1787   -6.2511 H   0  0  0  0  0  0  0  0  0  0  0  0
    5.0156    0.3157   -3.8253 H   0  0  0  0  0  0  0  0  0  0  0  0
    3.8461    1.3209   -0.6426 H   0  0  0  0  0  0  0  0  0  0  0  0
    4.7839    1.2456   -2.0866 H   0  0  0  0  0  0  0  0  0  0  0  0
    3.7902   -1.2203   -0.5594 H   0  0  0  0  0  0  0  0  0  0  0  0
    4.7863   -1.2715   -1.9811 H   0  0  0  0  0  0  0  0  0  0  0  0
    6.5892    0.0131   -0.7411 H   0  0  0  0  0  0  0  0  0  0  0  0
    5.5886    0.0118    0.6830 H   0  0  0  0  0  0  0  0  0  0  0  0
    6.6473   -2.4964   -0.7194 H   0  0  0  0  0  0  0  0  0  0  0  0
    5.6079   -2.5117    0.6851 H   0  0  0  0  0  0  0  0  0  0  0  0
    8.3766   -1.2020    0.6309 H   0  0  0  0  0  0  0  0  0  0  0  0
    8.0361   -2.7840    1.3107 H   0  0  0  0  0  0  0  0  0  0  0  0
    6.3663    1.7077    3.5069 H   0  0  0  0  0  0  0  0  0  0  0  0
    5.7846    0.0919    3.9165 H   0  0  0  0  0  0  0  0  0  0  0  0
    8.6412    1.1117    4.4384 H   0  0  0  0  0  0  0  0  0  0  0  0
    7.4027    0.9379    5.6872 H   0  0  0  0  0  0  0  0  0  0  0  0
    8.0398   -0.4845    4.8574 H   0  0  0  0  0  0  0  0  0  0  0  0
  1  2  1  0  0  0  0
  2  3  1  0  0  0  0
  3  4  1  0  0  0  0
  4  5  2  0  0  0  0
  4  6  1  0  0  0  0
  6  7  1  0  0  0  0
  7  8  1  0  0  0  0
  8  9  1  0  0  0  0
  9 10  1  0  0  0  0
 10 11  1  0  0  0  0
 11 12  1  0  0  0  0
 12 13  2  0  0  0  0
 13 14  1  0  0  0  0
 14 15  2  0  0  0  0
 15 16  1  0  0  0  0
 15 17  1  0  0  0  0
 17 18  2  0  0  0  0
 18 19  1  0  0  0  0
 19 20  2  0  0  0  0
 19 21  1  0  0  0  0
 21 22  2  0  0  0  0
 22 23  1  0  0  0  0
 23 24  2  0  0  0  0
 24 25  1  0  0  0  0
 25 26  2  0  0  0  0
 24 27  1  0  0  0  0
 27 28  2  0  0  0  0
 27 29  1  0  0  0  0
 29 30  2  0  0  0  0
 30 31  1  0  0  0  0
 31 32  1  0  0  0  0
 31 33  2  0  0  0  0
 33 34  1  0  0  0  0
 34 35  2  0  0  0  0
 35 36  1  0  0  0  0
 36 37  1  0  0  0  0
 37 38  1  0  0  0  0
 38 39  1  0  0  0  0
 39 40  1  0  0  0  0
 40 41  1  0  0  0  0
 41 42  1  0  0  0  0
 42 43  2  0  0  0  0
 42 44  1  0  0  0  0
 44 45  1  0  0  0  0
 45 46  1  0  0  0  0
 26 11  1  0  0  0  0
 35 29  1  0  0  0  0
 18 12  1  0  0  0  0
 26 21  1  0  0  0  0
 36 23  1  0  0  0  0
  1 47  1  0  0  0  0
  1 48  1  0  0  0  0
  1 49  1  0  0  0  0
  2 50  1  0  0  0  0
  2 51  1  0  0  0  0
  6 52  1  0  0  0  0
  6 53  1  0  0  0  0
  7 54  1  0  0  0  0
  7 55  1  0  0  0  0
  8 56  1  0  0  0  0
  8 57  1  0  0  0  0
  9 58  1  0  0  0  0
  9 59  1  0  0  0  0
 10 60  1  0  0  0  0
 10 61  1  0  0  0  0
 13 62  1  0  0  0  0
 14 63  1  0  0  0  0
 16 64  1  0  0  0  0
 16 65  1  0  0  0  0
 16 66  1  0  0  0  0
 17 67  1  0  0  0  0
 22 68  1  0  0  0  0
 25 69  1  0  0  0  0
 30 70  1  0  0  0  0
 32 71  1  0  0  0  0
 32 72  1  0  0  0  0
 32 73  1  0  0  0  0
 33 74  1  0  0  0  0
 34 75  1  0  0  0  0
 37 76  1  0  0  0  0
 37 77  1  0  0  0  0
 38 78  1  0  0  0  0
 38 79  1  0  0  0  0
 39 80  1  0  0  0  0
 39 81  1  0  0  0  0
 40 82  1  0  0  0  0
 40 83  1  0  0  0  0
 41 84  1  0  0  0  0
 41 85  1  0  0  0  0
 45 86  1  0  0  0  0
 45 87  1  0  0  0  0
 46 88  1  0  0  0  0
 46 89  1  0  0  0  0
 46 90  1  0  0  0  0
M  END
