
  xtb     03012221203D
 energy: -8.116081482898 gnorm: 0.000231772994 xtb: 6.4.1 (afa7bdf)
 42 45  0     0  0            999 V2000
    8.3673   -2.0857    2.3684 O   0  0  0  0  0  0  0  0  0  0  0  0
    8.4775   -1.3972    1.3885 C   0  0  0  0  0  0  0  0  0  0  0  0
    7.3855   -0.8176    0.6459 C   0  0  0  0  0  0  0  0  0  0  0  0
    7.4866   -0.0338   -0.4676 C   0  0  0  0  0  0  0  0  0  0  0  0
    6.2411    0.3879   -0.9783 C   0  0  0  0  0  0  0  0  0  0  0  0
    5.1630   -0.0657   -0.2636 C   0  0  0  0  0  0  0  0  0  0  0  0
    3.7771    0.2008   -0.5453 C   0  0  0  0  0  0  0  0  0  0  0  0
    3.2877    0.9477   -1.5830 C   0  0  0  0  0  0  0  0  0  0  0  0
    1.8784    1.0390   -1.6116 C   0  0  0  0  0  0  0  0  0  0  0  0
    1.2517    0.3654   -0.5983 C   0  0  0  0  0  0  0  0  0  0  0  0
   -0.1827    0.2690   -0.3550 C   0  0  0  0  0  0  0  0  0  0  0  0
   -1.0676    0.7474   -1.2423 C   0  0  0  0  0  0  0  0  0  0  0  0
   -2.5505    0.6907   -1.0677 C   0  0  0  0  0  0  0  0  0  0  0  0
   -2.9884   -0.3744   -0.0354 C   0  0  0  0  0  0  0  0  0  0  0  0
   -4.4734   -0.3218    0.2593 C   0  0  0  0  0  0  0  0  0  0  0  0
   -5.0410    0.7869    0.8683 C   0  0  0  0  0  0  0  0  0  0  0  0
   -6.3947    0.8317    1.1314 C   0  0  0  0  0  0  0  0  0  0  0  0
   -7.2009   -0.2329    0.7877 C   0  0  0  0  0  0  0  0  0  0  0  0
   -6.6505   -1.3415    0.1800 C   0  0  0  0  0  0  0  0  0  0  0  0
   -5.2967   -1.3848   -0.0824 C   0  0  0  0  0  0  0  0  0  0  0  0
   -2.1247   -0.2457    1.2361 C   0  0  0  0  0  0  0  0  0  0  0  0
   -0.6286   -0.4114    0.9173 C   0  0  0  0  0  0  0  0  0  0  0  0
    2.4509   -0.3972    0.4119 S   0  0  0  0  0  0  0  0  0  0  0  0
    5.7188   -1.0368    1.0708 S   0  0  0  0  0  0  0  0  0  0  0  0
    9.4852   -1.2045    1.0466 H   0  0  0  0  0  0  0  0  0  0  0  0
    8.4335    0.2342   -0.9109 H   0  0  0  0  0  0  0  0  0  0  0  0
    6.1459    1.0115   -1.8535 H   0  0  0  0  0  0  0  0  0  0  0  0
    3.9225    1.4243   -2.3135 H   0  0  0  0  0  0  0  0  0  0  0  0
    1.3511    1.6023   -2.3657 H   0  0  0  0  0  0  0  0  0  0  0  0
   -0.6956    1.1945   -2.1475 H   0  0  0  0  0  0  0  0  0  0  0  0
   -2.9113    1.6710   -0.7370 H   0  0  0  0  0  0  0  0  0  0  0  0
   -3.0455    0.5033   -2.0290 H   0  0  0  0  0  0  0  0  0  0  0  0
   -2.7701   -1.3608   -0.4752 H   0  0  0  0  0  0  0  0  0  0  0  0
   -4.4149    1.6200    1.1370 H   0  0  0  0  0  0  0  0  0  0  0  0
   -6.8226    1.6996    1.6062 H   0  0  0  0  0  0  0  0  0  0  0  0
   -8.2583   -0.1984    0.9931 H   0  0  0  0  0  0  0  0  0  0  0  0
   -7.2784   -2.1748   -0.0904 H   0  0  0  0  0  0  0  0  0  0  0  0
   -4.8690   -2.2509   -0.5577 H   0  0  0  0  0  0  0  0  0  0  0  0
   -2.4555   -0.9745    1.9872 H   0  0  0  0  0  0  0  0  0  0  0  0
   -2.2987    0.7379    1.6857 H   0  0  0  0  0  0  0  0  0  0  0  0
   -0.0206   -0.0308    1.7477 H   0  0  0  0  0  0  0  0  0  0  0  0
   -0.3839   -1.4775    0.8424 H   0  0  0  0  0  0  0  0  0  0  0  0
  1  2  2  0  0  0  0
  2  3  1  0  0  0  0
  3  4  2  0  0  0  0
  4  5  1  0  0  0  0
  5  6  2  0  0  0  0
  6  7  1  0  0  0  0
  7  8  2  0  0  0  0
  8  9  1  0  0  0  0
  9 10  2  0  0  0  0
 10 11  1  0  0  0  0
 11 12  2  0  0  0  0
 12 13  1  0  0  0  0
 13 14  1  0  0  0  0
 14 15  1  0  0  0  0
 15 16  2  0  0  0  0
 16 17  1  0  0  0  0
 17 18  2  0  0  0  0
 18 19  1  0  0  0  0
 19 20  2  0  0  0  0
 14 21  1  0  0  0  0
 21 22  1  0  0  0  0
 10 23  1  0  0  0  0
  6 24  1  0  0  0  0
 24  3  1  0  0  0  0
 23  7  1  0  0  0  0
 22 11  1  0  0  0  0
 20 15  1  0  0  0  0
  2 25  1  0  0  0  0
  4 26  1  0  0  0  0
  5 27  1  0  0  0  0
  8 28  1  0  0  0  0
  9 29  1  0  0  0  0
 12 30  1  0  0  0  0
 13 31  1  0  0  0  0
 13 32  1  0  0  0  0
 14 33  1  0  0  0  0
 16 34  1  0  0  0  0
 17 35  1  0  0  0  0
 18 36  1  0  0  0  0
 19 37  1  0  0  0  0
 20 38  1  0  0  0  0
 21 39  1  0  0  0  0
 21 40  1  0  0  0  0
 22 41  1  0  0  0  0
 22 42  1  0  0  0  0
M  END
