
  xtb     03012221263D
 energy: -6.292628860322 gnorm: 0.000328777474 xtb: 6.4.1 (afa7bdf)
 31 33  0     0  0            999 V2000
   -1.7329    1.2484   -3.2610 N   0  0  0  0  0  0  0  0  0  0  0  0
   -1.0951    0.7470   -2.4286 C   0  0  0  0  0  0  0  0  0  0  0  0
   -0.3744    0.1565   -1.3792 C   0  0  0  0  0  0  0  0  0  0  0  0
    0.8216   -0.3756   -1.4843 N   0  0  0  0  0  0  0  0  0  0  0  0
    1.0901   -0.7493   -0.2372 N   0  0  0  0  0  0  0  0  0  0  0  0
    2.3336   -1.3908    0.1069 C   0  0  0  0  0  0  0  0  0  0  0  0
    2.5891   -1.7633    1.4163 C   0  0  0  0  0  0  0  0  0  0  0  0
    3.7789   -2.3752    1.7446 C   0  0  0  0  0  0  0  0  0  0  0  0
    4.7219   -2.6193    0.7658 C   0  0  0  0  0  0  0  0  0  0  0  0
    4.4736   -2.2509   -0.5417 C   0  0  0  0  0  0  0  0  0  0  0  0
    3.2839   -1.6389   -0.8699 C   0  0  0  0  0  0  0  0  0  0  0  0
    0.1600   -0.4940    0.6925 N   0  0  0  0  0  0  0  0  0  0  0  0
   -0.7900    0.0686   -0.0081 C   0  0  0  0  0  0  0  0  0  0  0  0
   -2.0113    0.6023    0.5245 N   0  0  0  0  0  0  0  0  0  0  0  0
   -3.2778    0.4468   -0.2281 C   0  0  0  0  0  0  0  0  0  0  0  0
   -3.7219    1.8654   -0.6084 C   0  0  0  0  0  0  0  0  0  0  0  0
   -3.0840    2.7896    0.4501 C   0  0  0  0  0  0  0  0  0  0  0  0
   -1.9834    1.9543    1.1345 C   0  0  0  0  0  0  0  0  0  0  0  0
    1.8430   -1.5656    2.1653 H   0  0  0  0  0  0  0  0  0  0  0  0
    3.9727   -2.6628    2.7646 H   0  0  0  0  0  0  0  0  0  0  0  0
    5.6530   -3.0982    1.0228 H   0  0  0  0  0  0  0  0  0  0  0  0
    5.2094   -2.4415   -1.3052 H   0  0  0  0  0  0  0  0  0  0  0  0
    3.0734   -1.3445   -1.8828 H   0  0  0  0  0  0  0  0  0  0  0  0
   -3.1185   -0.1954   -1.0997 H   0  0  0  0  0  0  0  0  0  0  0  0
   -4.0077   -0.0482    0.4189 H   0  0  0  0  0  0  0  0  0  0  0  0
   -4.8140    1.9608   -0.6394 H   0  0  0  0  0  0  0  0  0  0  0  0
   -3.3545    2.1167   -1.6107 H   0  0  0  0  0  0  0  0  0  0  0  0
   -2.6772    3.7015   -0.0032 H   0  0  0  0  0  0  0  0  0  0  0  0
   -3.8327    3.1149    1.1819 H   0  0  0  0  0  0  0  0  0  0  0  0
   -2.1406    1.8563    2.2128 H   0  0  0  0  0  0  0  0  0  0  0  0
   -0.9882    2.3842    0.9859 H   0  0  0  0  0  0  0  0  0  0  0  0
  1  2  3  0  0  0  0
  2  3  1  0  0  0  0
  3  4  2  0  0  0  0
  4  5  1  0  0  0  0
  5  6  1  0  0  0  0
  6  7  2  0  0  0  0
  7  8  1  0  0  0  0
  8  9  2  0  0  0  0
  9 10  1  0  0  0  0
 10 11  2  0  0  0  0
  5 12  1  0  0  0  0
 12 13  2  0  0  0  0
 13 14  1  0  0  0  0
 14 15  1  0  0  0  0
 15 16  1  0  0  0  0
 16 17  1  0  0  0  0
 17 18  1  0  0  0  0
 13  3  1  0  0  0  0
 18 14  1  0  0  0  0
 11  6  1  0  0  0  0
  7 19  1  0  0  0  0
  8 20  1  0  0  0  0
  9 21  1  0  0  0  0
 10 22  1  0  0  0  0
 11 23  1  0  0  0  0
 15 24  1  0  0  0  0
 15 25  1  0  0  0  0
 16 26  1  0  0  0  0
 16 27  1  0  0  0  0
 17 28  1  0  0  0  0
 17 29  1  0  0  0  0
 18 30  1  0  0  0  0
 18 31  1  0  0  0  0
M  END
