
  xtb     03012221303D
 energy: -8.595211563688 gnorm: 0.000365923123 xtb: 6.4.1 (afa7bdf)
 45 48  0     0  0            999 V2000
   -4.8633   -2.1792    1.0132 C   0  0  0  0  0  0  0  0  0  0  0  0
   -3.4095   -1.9838    0.8772 C   0  0  0  0  0  0  0  0  0  0  0  0
   -2.8140   -0.8861    0.3893 N   0  0  0  0  0  4  0  0  0  0  0  0
   -1.4265   -0.9833    0.4012 C   0  0  0  0  0  0  0  0  0  0  0  0
   -0.5597    0.0526   -0.0203 C   0  0  0  0  0  0  0  0  0  0  0  0
    0.8956   -0.0895    0.0077 C   0  0  0  0  0  0  0  0  0  0  0  0
    1.5179   -1.3028   -0.3385 C   0  0  0  0  0  0  0  0  0  0  0  0
    2.8756   -1.4387   -0.3128 C   0  0  0  0  0  0  0  0  0  0  0  0
    3.7095   -0.3655    0.0658 C   0  0  0  0  0  0  0  0  0  0  0  0
    5.0792   -0.4999    0.0943 N   0  0  0  0  0  0  0  0  0  0  0  0
    5.7381   -1.7557   -0.2493 C   0  0  0  0  0  0  0  0  0  0  0  0
    5.9547    0.6056    0.4694 C   0  0  0  0  0  0  0  0  0  0  0  0
    3.0852    0.8507    0.4141 C   0  0  0  0  0  0  0  0  0  0  0  0
    1.7270    0.9812    0.3838 C   0  0  0  0  0  0  0  0  0  0  0  0
   -1.1939    1.2361   -0.4664 C   0  0  0  0  0  0  0  0  0  0  0  0
   -0.6682    2.4292   -1.0135 C   0  0  0  0  0  0  0  0  0  0  0  0
   -1.7262    3.2609   -1.3264 C   0  0  0  0  0  0  0  0  0  0  0  0
   -2.9273    2.6047   -0.9975 C   0  0  0  0  0  0  0  0  0  0  0  0
   -4.3096    3.0871   -1.1612 C   0  0  0  0  0  0  0  0  0  0  0  0
   -2.5734    1.4114   -0.4990 N   0  0  0  0  0  0  0  0  0  0  0  0
   -3.5851    0.3497   -0.0711 B   0  0  0  0  0  4  0  0  0  0  0  0
   -4.3456    0.8395    0.9884 F   0  0  0  0  0  0  0  0  0  0  0  0
   -4.3870    0.0124   -1.1591 F   0  0  0  0  0  0  0  0  0  0  0  0
   -1.1612   -2.2509    0.9687 C   0  0  0  0  0  0  0  0  0  0  0  0
   -2.3705   -2.8570    1.2503 C   0  0  0  0  0  0  0  0  0  0  0  0
   -5.3955   -1.3345    0.5741 H   0  0  0  0  0  0  0  0  0  0  0  0
   -5.1853   -3.0871    0.5037 H   0  0  0  0  0  0  0  0  0  0  0  0
   -5.1494   -2.2504    2.0624 H   0  0  0  0  0  0  0  0  0  0  0  0
    0.9041   -2.1226   -0.6684 H   0  0  0  0  0  0  0  0  0  0  0  0
    3.3211   -2.3753   -0.5934 H   0  0  0  0  0  0  0  0  0  0  0  0
    5.5177   -2.0232   -1.2820 H   0  0  0  0  0  0  0  0  0  0  0  0
    6.8191   -1.6797   -0.1424 H   0  0  0  0  0  0  0  0  0  0  0  0
    5.3900   -2.5523    0.4072 H   0  0  0  0  0  0  0  0  0  0  0  0
    5.7482    0.9150    1.4933 H   0  0  0  0  0  0  0  0  0  0  0  0
    5.7949    1.4520   -0.1976 H   0  0  0  0  0  0  0  0  0  0  0  0
    7.0038    0.3209    0.4067 H   0  0  0  0  0  0  0  0  0  0  0  0
    3.6922    1.6840    0.7168 H   0  0  0  0  0  0  0  0  0  0  0  0
    1.2712    1.9056    0.6922 H   0  0  0  0  0  0  0  0  0  0  0  0
    0.3721    2.6366   -1.1970 H   0  0  0  0  0  0  0  0  0  0  0  0
   -1.6552    4.2422   -1.7662 H   0  0  0  0  0  0  0  0  0  0  0  0
   -4.5032    3.3748   -2.1943 H   0  0  0  0  0  0  0  0  0  0  0  0
   -4.5001    3.9477   -0.5204 H   0  0  0  0  0  0  0  0  0  0  0  0
   -5.0137    2.2997   -0.8897 H   0  0  0  0  0  0  0  0  0  0  0  0
   -0.1876   -2.6542    1.1888 H   0  0  0  0  0  0  0  0  0  0  0  0
   -2.5059   -3.8280    1.6978 H   0  0  0  0  0  0  0  0  0  0  0  0
  1  2  1  0  0  0  0
  2  3  2  0  0  0  0
  3  4  1  0  0  0  0
  4  5  2  0  0  0  0
  5  6  1  0  0  0  0
  6  7  2  0  0  0  0
  7  8  1  0  0  0  0
  8  9  2  0  0  0  0
  9 10  1  0  0  0  0
 10 11  1  0  0  0  0
 10 12  1  0  0  0  0
  9 13  1  0  0  0  0
 13 14  2  0  0  0  0
  5 15  1  0  0  0  0
 15 16  2  0  0  0  0
 16 17  1  0  0  0  0
 17 18  2  0  0  0  0
 18 19  1  0  0  0  0
 18 20  1  0  0  0  0
 20 21  1  0  0  0  0
 21 22  1  0  0  0  0
 21 23  1  0  0  0  0
  4 24  1  0  0  0  0
 24 25  2  0  0  0  0
 25  2  1  0  0  0  0
 21  3  1  0  0  0  0
 14  6  1  0  0  0  0
 20 15  1  0  0  0  0
  1 26  1  0  0  0  0
  1 27  1  0  0  0  0
  1 28  1  0  0  0  0
  7 29  1  0  0  0  0
  8 30  1  0  0  0  0
 11 31  1  0  0  0  0
 11 32  1  0  0  0  0
 11 33  1  0  0  0  0
 12 34  1  0  0  0  0
 12 35  1  0  0  0  0
 12 36  1  0  0  0  0
 13 37  1  0  0  0  0
 14 38  1  0  0  0  0
 16 39  1  0  0  0  0
 17 40  1  0  0  0  0
 19 41  1  0  0  0  0
 19 42  1  0  0  0  0
 19 43  1  0  0  0  0
 24 44  1  0  0  0  0
 25 45  1  0  0  0  0
M  CHG  1   3   1
M  CHG  1  21  -1
M  END
