
  xtb     03012221313D
 energy: -7.784556415281 gnorm: 0.000191858920 xtb: 6.4.1 (afa7bdf)
 38 40  0     0  0            999 V2000
   -5.6820   -3.0173   -1.5889 C   0  0  0  0  0  0  0  0  0  0  0  0
   -5.7167   -1.8229   -0.8448 O   0  0  0  0  0  0  0  0  0  0  0  0
   -4.4682   -1.2700   -0.5471 C   0  0  0  0  0  0  0  0  0  0  0  0
   -3.2589   -1.7958   -0.9840 C   0  0  0  0  0  0  0  0  0  0  0  0
   -2.0634   -1.1992   -0.6515 C   0  0  0  0  0  0  0  0  0  0  0  0
   -2.0330   -0.0560    0.1292 C   0  0  0  0  0  0  0  0  0  0  0  0
   -0.7417    0.5417    0.4650 C   0  0  0  0  0  0  0  0  0  0  0  0
   -0.4999    1.6808    1.2345 C   0  0  0  0  0  0  0  0  0  0  0  0
    0.8080    1.8992    1.3128 N   0  0  0  0  0  0  0  0  0  0  0  0
    1.3870    0.9288    0.6140 C   0  0  0  0  0  0  0  0  0  0  0  0
    2.7809    0.8133    0.4587 C   0  0  0  0  0  0  0  0  0  0  0  0
    3.9902    0.7076    0.3186 C   0  0  0  0  0  0  0  0  0  0  0  0
    5.3825    0.5864    0.1520 C   0  0  0  0  0  0  0  0  0  0  0  0
    6.2441    0.7191    1.2361 C   0  0  0  0  0  0  0  0  0  0  0  0
    7.6073    0.6011    1.0705 C   0  0  0  0  0  0  0  0  0  0  0  0
    8.1323    0.3488   -0.1802 C   0  0  0  0  0  0  0  0  0  0  0  0
    7.2916    0.2142   -1.2659 C   0  0  0  0  0  0  0  0  0  0  0  0
    5.9282    0.3317   -1.1019 C   0  0  0  0  0  0  0  0  0  0  0  0
    0.4716    0.0647    0.0698 O   0  0  0  0  0  0  0  0  0  0  0  0
   -3.2363    0.4850    0.5731 C   0  0  0  0  0  0  0  0  0  0  0  0
   -4.4537   -0.0935    0.2540 C   0  0  0  0  0  0  0  0  0  0  0  0
   -5.6908    0.4072    0.6755 O   0  0  0  0  0  0  0  0  0  0  0  0
   -5.6355    1.6156    1.3952 C   0  0  0  0  0  0  0  0  0  0  0  0
   -5.2391   -2.8309   -2.5680 H   0  0  0  0  0  0  0  0  0  0  0  0
   -6.7066   -3.3658   -1.7232 H   0  0  0  0  0  0  0  0  0  0  0  0
   -5.1176   -3.7763   -1.0459 H   0  0  0  0  0  0  0  0  0  0  0  0
   -3.2510   -2.6810   -1.5930 H   0  0  0  0  0  0  0  0  0  0  0  0
   -1.1294   -1.6128   -0.9923 H   0  0  0  0  0  0  0  0  0  0  0  0
   -1.2410    2.3067    1.7061 H   0  0  0  0  0  0  0  0  0  0  0  0
    5.8292    0.9163    2.2100 H   0  0  0  0  0  0  0  0  0  0  0  0
    8.2633    0.7063    1.9187 H   0  0  0  0  0  0  0  0  0  0  0  0
    9.1981    0.2571   -0.3092 H   0  0  0  0  0  0  0  0  0  0  0  0
    7.7008    0.0171   -2.2430 H   0  0  0  0  0  0  0  0  0  0  0  0
    5.2673    0.2275   -1.9457 H   0  0  0  0  0  0  0  0  0  0  0  0
   -3.2099    1.3689    1.1798 H   0  0  0  0  0  0  0  0  0  0  0  0
   -5.0861    1.4681    2.3257 H   0  0  0  0  0  0  0  0  0  0  0  0
   -5.1658    2.3886    0.7858 H   0  0  0  0  0  0  0  0  0  0  0  0
   -6.6560    1.9199    1.6305 H   0  0  0  0  0  0  0  0  0  0  0  0
  1  2  1  0  0  0  0
  2  3  1  0  0  0  0
  3  4  2  0  0  0  0
  4  5  1  0  0  0  0
  5  6  2  0  0  0  0
  6  7  1  0  0  0  0
  7  8  2  0  0  0  0
  8  9  1  0  0  0  0
  9 10  2  0  0  0  0
 10 11  1  0  0  0  0
 11 12  3  0  0  0  0
 12 13  1  0  0  0  0
 13 14  2  0  0  0  0
 14 15  1  0  0  0  0
 15 16  2  0  0  0  0
 16 17  1  0  0  0  0
 17 18  2  0  0  0  0
 10 19  1  0  0  0  0
  6 20  1  0  0  0  0
 20 21  2  0  0  0  0
 21 22  1  0  0  0  0
 22 23  1  0  0  0  0
 21  3  1  0  0  0  0
 19  7  1  0  0  0  0
 18 13  1  0  0  0  0
  1 24  1  0  0  0  0
  1 25  1  0  0  0  0
  1 26  1  0  0  0  0
  4 27  1  0  0  0  0
  5 28  1  0  0  0  0
  8 29  1  0  0  0  0
 14 30  1  0  0  0  0
 15 31  1  0  0  0  0
 16 32  1  0  0  0  0
 17 33  1  0  0  0  0
 18 34  1  0  0  0  0
 20 35  1  0  0  0  0
 23 36  1  0  0  0  0
 23 37  1  0  0  0  0
 23 38  1  0  0  0  0
M  END
