
  xtb     03012221253D
 energy: -11.294100167872 gnorm: 0.000342405423 xtb: 6.4.1 (afa7bdf)
 55 61  0     0  0            999 V2000
    9.7562    1.6317   -2.5063 C   0  0  0  0  0  0  0  0  0  0  0  0
    9.7105    1.2016   -1.1675 O   0  0  0  0  0  0  0  0  0  0  0  0
    8.4370    0.9289   -0.6814 C   0  0  0  0  0  0  0  0  0  0  0  0
    7.2529    1.0522   -1.4226 C   0  0  0  0  0  0  0  0  0  0  0  0
    6.0369    0.7618   -0.8615 C   0  0  0  0  0  0  0  0  0  0  0  0
    5.9439    0.3353    0.4637 C   0  0  0  0  0  0  0  0  0  0  0  0
    4.6708    0.0188    1.0947 C   0  0  0  0  0  0  0  0  0  0  0  0
    3.4174    0.0984    0.4955 C   0  0  0  0  0  0  0  0  0  0  0  0
    2.5048   -0.2947    1.4730 C   0  0  0  0  0  0  0  0  0  0  0  0
    3.2310   -0.6108    2.6645 C   0  0  0  0  0  0  0  0  0  0  0  0
    4.5755   -0.4095    2.4087 O   0  0  0  0  0  0  0  0  0  0  0  0
    2.3106   -1.0038    3.6395 C   0  0  0  0  0  0  0  0  0  0  0  0
    1.0152   -0.9334    3.0605 C   0  0  0  0  0  0  0  0  0  0  0  0
   -0.2288   -1.2144    3.6063 C   0  0  0  0  0  0  0  0  0  0  0  0
   -1.3477   -1.0525    2.8023 C   0  0  0  0  0  0  0  0  0  0  0  0
   -2.7237   -1.2595    3.0888 C   0  0  0  0  0  0  0  0  0  0  0  0
   -3.4467   -0.9517    1.9335 C   0  0  0  0  0  0  0  0  0  0  0  0
   -4.7176   -0.8851    1.3911 O   0  0  0  0  0  0  0  0  0  0  0  0
   -4.5691   -0.4563    0.0822 C   0  0  0  0  0  0  0  0  0  0  0  0
   -5.7009   -0.2680   -0.8137 C   0  0  0  0  0  0  0  0  0  0  0  0
   -5.5488    0.1662   -2.1305 C   0  0  0  0  0  0  0  0  0  0  0  0
   -6.6414    0.3295   -2.9395 C   0  0  0  0  0  0  0  0  0  0  0  0
   -7.9381    0.0677   -2.4750 C   0  0  0  0  0  0  0  0  0  0  0  0
   -8.9875    0.2607   -3.3660 O   0  0  0  0  0  0  0  0  0  0  0  0
  -10.2654   -0.0186   -2.8481 C   0  0  0  0  0  0  0  0  0  0  0  0
   -8.0813   -0.3682   -1.1501 C   0  0  0  0  0  0  0  0  0  0  0  0
   -6.9853   -0.5300   -0.3443 C   0  0  0  0  0  0  0  0  0  0  0  0
   -3.2305   -0.2430   -0.2331 C   0  0  0  0  0  0  0  0  0  0  0  0
   -2.5161   -0.5511    0.9234 C   0  0  0  0  0  0  0  0  0  0  0  0
   -1.2725   -0.6257    1.4840 N   0  0  0  0  0  0  0  0  0  0  0  0
    0.0349   -0.2947    0.7686 B   0  0  0  0  0  4  0  0  0  0  0  0
    0.0118    1.0336    0.3656 F   0  0  0  0  0  0  0  0  0  0  0  0
    0.1962   -1.1558   -0.3084 F   0  0  0  0  0  0  0  0  0  0  0  0
    1.1836   -0.5014    1.7526 N   0  0  0  0  0  4  0  0  0  0  0  0
    7.1154    0.2103    1.2052 C   0  0  0  0  0  0  0  0  0  0  0  0
    8.3323    0.4992    0.6487 C   0  0  0  0  0  0  0  0  0  0  0  0
    9.3531    0.8563   -3.1583 H   0  0  0  0  0  0  0  0  0  0  0  0
   10.7977    1.8135   -2.7726 H   0  0  0  0  0  0  0  0  0  0  0  0
    9.1944    2.5598   -2.6161 H   0  0  0  0  0  0  0  0  0  0  0  0
    7.2973    1.3788   -2.4463 H   0  0  0  0  0  0  0  0  0  0  0  0
    5.1401    0.8623   -1.4464 H   0  0  0  0  0  0  0  0  0  0  0  0
    3.1736    0.3978   -0.5065 H   0  0  0  0  0  0  0  0  0  0  0  0
    2.5481   -1.3031    4.6445 H   0  0  0  0  0  0  0  0  0  0  0  0
   -0.3236   -1.5458    4.6226 H   0  0  0  0  0  0  0  0  0  0  0  0
   -3.1413   -1.5915    4.0222 H   0  0  0  0  0  0  0  0  0  0  0  0
   -4.5642    0.3735   -2.5097 H   0  0  0  0  0  0  0  0  0  0  0  0
   -6.5274    0.6645   -3.9562 H   0  0  0  0  0  0  0  0  0  0  0  0
  -10.4738    0.6372   -2.0023 H   0  0  0  0  0  0  0  0  0  0  0  0
  -11.0009    0.1670   -3.6312 H   0  0  0  0  0  0  0  0  0  0  0  0
  -10.3224   -1.0656   -2.5487 H   0  0  0  0  0  0  0  0  0  0  0  0
   -9.0610   -0.5785   -0.7597 H   0  0  0  0  0  0  0  0  0  0  0  0
   -7.0971   -0.8649    0.6727 H   0  0  0  0  0  0  0  0  0  0  0  0
   -2.8075    0.0884   -1.1628 H   0  0  0  0  0  0  0  0  0  0  0  0
    7.0422   -0.1188    2.2275 H   0  0  0  0  0  0  0  0  0  0  0  0
    9.2375    0.4026    1.2233 H   0  0  0  0  0  0  0  0  0  0  0  0
  1  2  1  0  0  0  0
  2  3  1  0  0  0  0
  3  4  2  0  0  0  0
  4  5  1  0  0  0  0
  5  6  2  0  0  0  0
  6  7  1  0  0  0  0
  7  8  2  0  0  0  0
  8  9  1  0  0  0  0
  9 10  1  0  0  0  0
 10 11  1  0  0  0  0
 10 12  2  0  0  0  0
 12 13  1  0  0  0  0
 13 14  2  0  0  0  0
 14 15  1  0  0  0  0
 15 16  2  0  0  0  0
 16 17  1  0  0  0  0
 17 18  1  0  0  0  0
 18 19  1  0  0  0  0
 19 20  1  0  0  0  0
 20 21  2  0  0  0  0
 21 22  1  0  0  0  0
 22 23  2  0  0  0  0
 23 24  1  0  0  0  0
 24 25  1  0  0  0  0
 23 26  1  0  0  0  0
 26 27  2  0  0  0  0
 19 28  2  0  0  0  0
 28 29  1  0  0  0  0
 29 30  1  0  0  0  0
 30 31  1  0  0  0  0
 31 32  1  0  0  0  0
 31 33  1  0  0  0  0
 31 34  1  0  0  0  0
  6 35  1  0  0  0  0
 35 36  2  0  0  0  0
 36  3  1  0  0  0  0
 11  7  1  0  0  0  0
 34 13  1  0  0  0  0
 34  9  2  0  0  0  0
 30 15  1  0  0  0  0
 29 17  2  0  0  0  0
 27 20  1  0  0  0  0
  1 37  1  0  0  0  0
  1 38  1  0  0  0  0
  1 39  1  0  0  0  0
  4 40  1  0  0  0  0
  5 41  1  0  0  0  0
  8 42  1  0  0  0  0
 12 43  1  0  0  0  0
 14 44  1  0  0  0  0
 16 45  1  0  0  0  0
 21 46  1  0  0  0  0
 22 47  1  0  0  0  0
 25 48  1  0  0  0  0
 25 49  1  0  0  0  0
 25 50  1  0  0  0  0
 26 51  1  0  0  0  0
 27 52  1  0  0  0  0
 28 53  1  0  0  0  0
 35 54  1  0  0  0  0
 36 55  1  0  0  0  0
M  CHG  1  31  -1
M  CHG  1  34   1
M  END
