
  xtb     03012221223D
 energy: -18.220670766031 gnorm: 0.000307041791 xtb: 6.4.1 (afa7bdf)
101105  0     0  0            999 V2000
   -8.6043   -0.4584   -0.0862 C   0  0  0  0  0  0  0  0  0  0  0  0
   -8.6021   -1.7890    0.6496 C   0  0  0  0  0  0  0  0  0  0  0  0
   -7.6319   -1.8180    1.8371 C   0  0  0  0  0  0  0  0  0  0  0  0
   -6.2058   -1.6380    1.4247 C   0  0  0  0  0  0  0  0  0  0  0  0
   -5.3970   -2.6086    0.9131 C   0  0  0  0  0  0  0  0  0  0  0  0
   -4.1647   -1.9745    0.6039 C   0  0  0  0  0  0  0  0  0  0  0  0
   -4.2234   -0.6705    0.9051 N   0  0  0  0  0  0  0  0  0  0  0  0
   -5.4399   -0.4157    1.4009 C   0  0  0  0  0  0  0  0  0  0  0  0
   -5.9145    0.8621    1.8307 C   0  0  0  0  0  0  0  0  0  0  0  0
   -5.2927    2.0805    1.8415 C   0  0  0  0  0  0  0  0  0  0  0  0
   -3.9800    2.4670    1.4331 C   0  0  0  0  0  0  0  0  0  0  0  0
   -2.9892    1.6740    0.9071 N   0  0  0  0  0  0  0  0  0  0  0  0
   -1.8526    2.3851    0.6618 C   0  0  0  0  0  0  0  0  0  0  0  0
   -2.1183    3.7083    1.0430 C   0  0  0  0  0  0  0  0  0  0  0  0
   -3.4225    3.7704    1.5074 C   0  0  0  0  0  0  0  0  0  0  0  0
   -4.0850    4.9900    2.0623 C   0  0  0  0  0  0  0  0  0  0  0  0
   -4.0393    5.0456    3.5893 C   0  0  0  0  0  0  0  0  0  0  0  0
   -4.7188    6.2816    4.1539 C   0  0  0  0  0  0  0  0  0  0  0  0
   -0.6531    1.7903    0.1344 C   0  0  0  0  0  0  0  0  0  0  0  0
   -0.5826    0.4930   -0.1779 N   0  0  0  0  0  0  0  0  0  0  0  0
    0.6602    0.2446   -0.6228 C   0  0  0  0  0  0  0  0  0  0  0  0
    1.1596   -1.0379   -1.0735 C   0  0  0  0  0  0  0  0  0  0  0  0
    2.4724   -1.0058   -1.4881 O   0  0  0  0  0  0  0  0  0  0  0  0
    3.1662   -2.1479   -1.8472 C   0  0  0  0  0  0  0  0  0  0  0  0
    2.7639   -3.2848   -1.8406 O   0  0  0  0  0  0  0  0  0  0  0  0
    4.5816   -1.8802   -2.2641 C   0  0  0  0  0  0  0  0  0  0  0  0
    5.5848   -2.4133   -1.2529 C   0  0  0  0  0  0  0  0  0  0  0  0
    7.0127   -1.9920   -1.5771 C   0  0  0  0  0  0  0  0  0  0  0  0
    7.1613   -0.4991   -1.5225 C   0  0  0  0  0  0  0  0  0  0  0  0
    6.6859    0.1701   -2.4135 O   0  0  0  0  0  0  0  0  0  0  0  0
    7.8140   -0.0248   -0.4183 O   0  0  0  0  0  0  0  0  0  0  0  0
    7.8945    1.4195   -0.3549 C   0  0  0  0  0  0  0  0  0  0  0  0
    6.4864    2.0183   -0.3076 C   0  0  0  0  0  0  0  0  0  0  0  0
    8.6707    1.9548   -1.5609 C   0  0  0  0  0  0  0  0  0  0  0  0
    8.6422    1.7829    0.9323 C   0  0  0  0  0  0  0  0  0  0  0  0
    0.4283   -2.2432   -1.1228 C   0  0  0  0  0  0  0  0  0  0  0  0
   -0.8648   -2.6039   -0.7467 C   0  0  0  0  0  0  0  0  0  0  0  0
   -1.8645   -1.8213   -0.2038 N   0  0  0  0  0  0  0  0  0  0  0  0
   -2.9828   -2.5507    0.0426 C   0  0  0  0  0  0  0  0  0  0  0  0
   -2.7057   -3.8843   -0.3543 C   0  0  0  0  0  0  0  0  0  0  0  0
   -1.4234   -3.9280   -0.8407 C   0  0  0  0  0  0  0  0  0  0  0  0
   -0.7087   -5.1512   -1.3203 C   0  0  0  0  0  0  0  0  0  0  0  0
    0.3642   -5.6435   -0.3443 C   0  0  0  0  0  0  0  0  0  0  0  0
   -0.2020   -6.0228    1.0120 C   0  0  0  0  0  0  0  0  0  0  0  0
    1.4271    1.4587   -0.5888 C   0  0  0  0  0  0  0  0  0  0  0  0
    2.8363    1.6798   -1.0395 C   0  0  0  0  0  0  0  0  0  0  0  0
    2.9320    2.2116   -2.4743 C   0  0  0  0  0  0  0  0  0  0  0  0
    2.3150    1.2713   -3.4947 C   0  0  0  0  0  0  0  0  0  0  0  0
    0.5864    2.4263   -0.1194 C   0  0  0  0  0  0  0  0  0  0  0  0
   -7.6119   -0.2202   -0.4727 H   0  0  0  0  0  0  0  0  0  0  0  0
   -8.8968    0.3584    0.5755 H   0  0  0  0  0  0  0  0  0  0  0  0
   -9.2941   -0.4583   -0.9328 H   0  0  0  0  0  0  0  0  0  0  0  0
   -8.3372   -2.5960   -0.0462 H   0  0  0  0  0  0  0  0  0  0  0  0
   -9.6187   -2.0263    0.9922 H   0  0  0  0  0  0  0  0  0  0  0  0
   -7.9045   -1.0439    2.5608 H   0  0  0  0  0  0  0  0  0  0  0  0
   -7.7217   -2.7663    2.3793 H   0  0  0  0  0  0  0  0  0  0  0  0
   -5.6455   -3.6446    0.7628 H   0  0  0  0  0  0  0  0  0  0  0  0
   -6.9252    0.8503    2.2024 H   0  0  0  0  0  0  0  0  0  0  0  0
   -5.8820    2.8997    2.2241 H   0  0  0  0  0  0  0  0  0  0  0  0
   -3.0944    0.6768    0.7522 H   0  0  0  0  0  0  0  0  0  0  0  0
   -1.4238    4.5300    0.9943 H   0  0  0  0  0  0  0  0  0  0  0  0
   -5.1233    5.0314    1.7148 H   0  0  0  0  0  0  0  0  0  0  0  0
   -3.6055    5.8825    1.6440 H   0  0  0  0  0  0  0  0  0  0  0  0
   -2.9931    5.0020    3.9192 H   0  0  0  0  0  0  0  0  0  0  0  0
   -4.5015    4.1379    3.9983 H   0  0  0  0  0  0  0  0  0  0  0  0
   -4.2474    7.1946    3.7849 H   0  0  0  0  0  0  0  0  0  0  0  0
   -5.7700    6.3219    3.8623 H   0  0  0  0  0  0  0  0  0  0  0  0
   -4.6793    6.3095    5.2453 H   0  0  0  0  0  0  0  0  0  0  0  0
    4.7593   -2.3184   -3.2500 H   0  0  0  0  0  0  0  0  0  0  0  0
    4.7186   -0.8005   -2.3790 H   0  0  0  0  0  0  0  0  0  0  0  0
    5.3172   -2.0444   -0.2561 H   0  0  0  0  0  0  0  0  0  0  0  0
    5.4997   -3.5050   -1.1955 H   0  0  0  0  0  0  0  0  0  0  0  0
    7.2925   -2.3374   -2.5771 H   0  0  0  0  0  0  0  0  0  0  0  0
    7.7253   -2.4429   -0.8781 H   0  0  0  0  0  0  0  0  0  0  0  0
    6.5201    3.1038   -0.2094 H   0  0  0  0  0  0  0  0  0  0  0  0
    5.9432    1.7728   -1.2190 H   0  0  0  0  0  0  0  0  0  0  0  0
    5.9284    1.6103    0.5350 H   0  0  0  0  0  0  0  0  0  0  0  0
    8.7733    3.0394   -1.5155 H   0  0  0  0  0  0  0  0  0  0  0  0
    8.1565    1.6963   -2.4862 H   0  0  0  0  0  0  0  0  0  0  0  0
    9.6663    1.5132   -1.5978 H   0  0  0  0  0  0  0  0  0  0  0  0
    8.7369    2.8635    1.0443 H   0  0  0  0  0  0  0  0  0  0  0  0
    8.1133    1.3902    1.8006 H   0  0  0  0  0  0  0  0  0  0  0  0
    9.6410    1.3470    0.9260 H   0  0  0  0  0  0  0  0  0  0  0  0
    0.9877   -3.0615   -1.5317 H   0  0  0  0  0  0  0  0  0  0  0  0
   -1.7482   -0.8294   -0.0261 H   0  0  0  0  0  0  0  0  0  0  0  0
   -3.3824   -4.7169   -0.2780 H   0  0  0  0  0  0  0  0  0  0  0  0
   -1.4423   -5.9462   -1.4891 H   0  0  0  0  0  0  0  0  0  0  0  0
   -0.2686   -4.9438   -2.3020 H   0  0  0  0  0  0  0  0  0  0  0  0
    1.1309   -4.8659   -0.2215 H   0  0  0  0  0  0  0  0  0  0  0  0
    0.8986   -6.5002   -0.7802 H   0  0  0  0  0  0  0  0  0  0  0  0
   -0.9480   -6.8137    0.9202 H   0  0  0  0  0  0  0  0  0  0  0  0
   -0.6929   -5.1707    1.4848 H   0  0  0  0  0  0  0  0  0  0  0  0
    0.5722   -6.3767    1.6959 H   0  0  0  0  0  0  0  0  0  0  0  0
    3.3265    2.3685   -0.3421 H   0  0  0  0  0  0  0  0  0  0  0  0
    3.3860    0.7378   -0.9557 H   0  0  0  0  0  0  0  0  0  0  0  0
    2.4380    3.1899   -2.5274 H   0  0  0  0  0  0  0  0  0  0  0  0
    3.9821    2.4020   -2.7327 H   0  0  0  0  0  0  0  0  0  0  0  0
    2.7924    0.2901   -3.4644 H   0  0  0  0  0  0  0  0  0  0  0  0
    1.2535    1.1120   -3.2927 H   0  0  0  0  0  0  0  0  0  0  0  0
    2.4040    1.6518   -4.5154 H   0  0  0  0  0  0  0  0  0  0  0  0
    0.8184    3.4671    0.0265 H   0  0  0  0  0  0  0  0  0  0  0  0
  1  2  1  0  0  0  0
  2  3  1  0  0  0  0
  3  4  1  0  0  0  0
  4  5  2  0  0  0  0
  5  6  1  0  0  0  0
  6  7  2  0  0  0  0
  7  8  1  0  0  0  0
  8  9  2  0  0  0  0
  9 10  1  0  0  0  0
 10 11  2  0  0  0  0
 11 12  1  0  0  0  0
 12 13  1  0  0  0  0
 13 14  1  0  0  0  0
 14 15  2  0  0  0  0
 15 16  1  0  0  0  0
 16 17  1  0  0  0  0
 17 18  1  0  0  0  0
 13 19  2  0  0  0  0
 19 20  1  0  0  0  0
 20 21  2  0  0  0  0
 21 22  1  0  0  0  0
 22 23  1  0  0  0  0
 23 24  1  0  0  0  0
 24 25  2  0  0  0  0
 24 26  1  0  0  0  0
 26 27  1  0  0  0  0
 27 28  1  0  0  0  0
 28 29  1  0  0  0  0
 29 30  2  0  0  0  0
 29 31  1  0  0  0  0
 31 32  1  0  0  0  0
 32 33  1  0  0  0  0
 32 34  1  0  0  0  0
 32 35  1  0  0  0  0
 22 36  2  0  0  0  0
 36 37  1  0  0  0  0
 37 38  1  0  0  0  0
 38 39  1  0  0  0  0
 39 40  2  0  0  0  0
 40 41  1  0  0  0  0
 41 42  1  0  0  0  0
 42 43  1  0  0  0  0
 43 44  1  0  0  0  0
 21 45  1  0  0  0  0
 45 46  1  0  0  0  0
 46 47  1  0  0  0  0
 47 48  1  0  0  0  0
 45 49  2  0  0  0  0
  8  4  1  0  0  0  0
 15 11  1  0  0  0  0
 49 19  1  0  0  0  0
 39  6  1  0  0  0  0
 41 37  2  0  0  0  0
  1 50  1  0  0  0  0
  1 51  1  0  0  0  0
  1 52  1  0  0  0  0
  2 53  1  0  0  0  0
  2 54  1  0  0  0  0
  3 55  1  0  0  0  0
  3 56  1  0  0  0  0
  5 57  1  0  0  0  0
  9 58  1  0  0  0  0
 10 59  1  0  0  0  0
 12 60  1  0  0  0  0
 14 61  1  0  0  0  0
 16 62  1  0  0  0  0
 16 63  1  0  0  0  0
 17 64  1  0  0  0  0
 17 65  1  0  0  0  0
 18 66  1  0  0  0  0
 18 67  1  0  0  0  0
 18 68  1  0  0  0  0
 26 69  1  0  0  0  0
 26 70  1  0  0  0  0
 27 71  1  0  0  0  0
 27 72  1  0  0  0  0
 28 73  1  0  0  0  0
 28 74  1  0  0  0  0
 33 75  1  0  0  0  0
 33 76  1  0  0  0  0
 33 77  1  0  0  0  0
 34 78  1  0  0  0  0
 34 79  1  0  0  0  0
 34 80  1  0  0  0  0
 35 81  1  0  0  0  0
 35 82  1  0  0  0  0
 35 83  1  0  0  0  0
 36 84  1  0  0  0  0
 38 85  1  0  0  0  0
 40 86  1  0  0  0  0
 42 87  1  0  0  0  0
 42 88  1  0  0  0  0
 43 89  1  0  0  0  0
 43 90  1  0  0  0  0
 44 91  1  0  0  0  0
 44 92  1  0  0  0  0
 44 93  1  0  0  0  0
 46 94  1  0  0  0  0
 46 95  1  0  0  0  0
 47 96  1  0  0  0  0
 47 97  1  0  0  0  0
 48 98  1  0  0  0  0
 48 99  1  0  0  0  0
 48100  1  0  0  0  0
 49101  1  0  0  0  0
M  END
