
  xtb     03012221313D
 energy: -12.238750028935 gnorm: 0.000180732711 xtb: 6.4.1 (afa7bdf)
 65 68  0     0  0            999 V2000
   -8.2156    1.2808    0.1772 C   0  0  0  0  0  0  0  0  0  0  0  0
   -7.8609    0.4457    1.3966 C   0  0  0  0  0  0  0  0  0  0  0  0
   -6.6914   -0.5240    1.1820 C   0  0  0  0  0  0  0  0  0  0  0  0
   -5.3478    0.1586    0.8545 C   0  0  0  0  0  0  0  0  0  0  0  0
   -5.0876    0.3301   -0.6448 C   0  0  0  0  0  0  0  0  0  0  0  0
   -3.8092    1.1139   -0.9605 C   0  0  0  0  0  0  0  0  0  0  0  0
   -2.5339    0.4894   -0.3907 C   0  0  0  0  0  0  0  0  0  0  0  0
   -2.2555   -0.9146   -0.9067 C   0  0  0  0  0  0  0  0  0  0  0  0
   -1.0497   -1.4989   -0.2842 N   0  0  0  0  0  0  0  0  0  0  0  0
    0.1930   -0.8108   -0.4004 C   0  0  0  0  0  0  0  0  0  0  0  0
    0.5305   -0.1357   -1.5716 C   0  0  0  0  0  0  0  0  0  0  0  0
    1.7451    0.5011   -1.6989 C   0  0  0  0  0  0  0  0  0  0  0  0
    2.6685    0.4868   -0.6607 C   0  0  0  0  0  0  0  0  0  0  0  0
    3.9133    1.1288   -0.7851 C   0  0  0  0  0  0  0  0  0  0  0  0
    4.9981    1.6817   -0.8944 C   0  0  0  0  0  0  0  0  0  0  0  0
    6.2491    2.3117   -1.0216 C   0  0  0  0  0  0  0  0  0  0  0  0
    6.3672    3.5468   -1.6522 C   0  0  0  0  0  0  0  0  0  0  0  0
    7.5903    4.1583   -1.7773 C   0  0  0  0  0  0  0  0  0  0  0  0
    8.7515    3.5627   -1.2780 C   0  0  0  0  0  0  0  0  0  0  0  0
    9.9556    4.2522   -1.4510 O   0  0  0  0  0  0  0  0  0  0  0  0
   11.0891    3.6007   -0.9319 C   0  0  0  0  0  0  0  0  0  0  0  0
    8.6284    2.3232   -0.6440 C   0  0  0  0  0  0  0  0  0  0  0  0
    7.4027    1.7143   -0.5209 C   0  0  0  0  0  0  0  0  0  0  0  0
    2.3280   -0.1834    0.5140 C   0  0  0  0  0  0  0  0  0  0  0  0
    1.1144   -0.8187    0.6541 C   0  0  0  0  0  0  0  0  0  0  0  0
    0.7491   -1.5956    2.2003 S   0  0  0  0  0  0  0  0  0  0  0  0
   -0.3862   -2.8394    1.6613 C   0  0  0  0  0  0  0  0  0  0  0  0
   -0.5023   -3.9845    2.4127 C   0  0  0  0  0  0  0  0  0  0  0  0
   -1.3998   -4.9911    2.0641 C   0  0  0  0  0  0  0  0  0  0  0  0
   -1.4939   -6.1804    2.8927 C   0  0  0  0  0  0  0  0  0  0  0  0
   -0.8523   -6.3746    3.8918 O   0  0  0  0  0  0  0  0  0  0  0  0
   -2.1831   -4.8238    0.9270 C   0  0  0  0  0  0  0  0  0  0  0  0
   -2.0718   -3.6833    0.1673 C   0  0  0  0  0  0  0  0  0  0  0  0
   -1.1782   -2.6679    0.5157 C   0  0  0  0  0  0  0  0  0  0  0  0
   -7.4127    1.9722   -0.0826 H   0  0  0  0  0  0  0  0  0  0  0  0
   -9.1115    1.8837    0.3429 H   0  0  0  0  0  0  0  0  0  0  0  0
   -8.4043    0.6501   -0.6933 H   0  0  0  0  0  0  0  0  0  0  0  0
   -8.7462   -0.1201    1.7189 H   0  0  0  0  0  0  0  0  0  0  0  0
   -7.6275    1.1073    2.2411 H   0  0  0  0  0  0  0  0  0  0  0  0
   -6.5774   -1.1452    2.0817 H   0  0  0  0  0  0  0  0  0  0  0  0
   -6.9405   -1.2318    0.3822 H   0  0  0  0  0  0  0  0  0  0  0  0
   -5.3006    1.1331    1.3546 H   0  0  0  0  0  0  0  0  0  0  0  0
   -4.5229   -0.4207    1.2890 H   0  0  0  0  0  0  0  0  0  0  0  0
   -5.0459   -0.6573   -1.1188 H   0  0  0  0  0  0  0  0  0  0  0  0
   -5.9460    0.8217   -1.1156 H   0  0  0  0  0  0  0  0  0  0  0  0
   -3.6995    1.2186   -2.0474 H   0  0  0  0  0  0  0  0  0  0  0  0
   -3.9167    2.1382   -0.5814 H   0  0  0  0  0  0  0  0  0  0  0  0
   -2.5851    0.4609    0.7045 H   0  0  0  0  0  0  0  0  0  0  0  0
   -1.6695    1.1301   -0.6089 H   0  0  0  0  0  0  0  0  0  0  0  0
   -2.1413   -0.9229   -1.9932 H   0  0  0  0  0  0  0  0  0  0  0  0
   -3.1078   -1.5601   -0.6878 H   0  0  0  0  0  0  0  0  0  0  0  0
   -0.1612   -0.1347   -2.3949 H   0  0  0  0  0  0  0  0  0  0  0  0
    1.9966    1.0140   -2.6118 H   0  0  0  0  0  0  0  0  0  0  0  0
    5.4815    4.0183   -2.0433 H   0  0  0  0  0  0  0  0  0  0  0  0
    7.6797    5.1122   -2.2656 H   0  0  0  0  0  0  0  0  0  0  0  0
   11.2238    2.6386   -1.4276 H   0  0  0  0  0  0  0  0  0  0  0  0
   10.9801    3.4667    0.1449 H   0  0  0  0  0  0  0  0  0  0  0  0
   11.9638    4.2232   -1.1235 H   0  0  0  0  0  0  0  0  0  0  0  0
    9.5012    1.8379   -0.2476 H   0  0  0  0  0  0  0  0  0  0  0  0
    7.3195    0.7582   -0.0320 H   0  0  0  0  0  0  0  0  0  0  0  0
    3.0267   -0.1983    1.3338 H   0  0  0  0  0  0  0  0  0  0  0  0
    0.1023   -4.1118    3.2942 H   0  0  0  0  0  0  0  0  0  0  0  0
   -2.1894   -6.9555    2.6038 H   0  0  0  0  0  0  0  0  0  0  0  0
   -2.8721   -5.6007    0.6442 H   0  0  0  0  0  0  0  0  0  0  0  0
   -2.6513   -3.5864   -0.7334 H   0  0  0  0  0  0  0  0  0  0  0  0
  1  2  1  0  0  0  0
  2  3  1  0  0  0  0
  3  4  1  0  0  0  0
  4  5  1  0  0  0  0
  5  6  1  0  0  0  0
  6  7  1  0  0  0  0
  7  8  1  0  0  0  0
  8  9  1  0  0  0  0
  9 10  1  0  0  0  0
 10 11  2  0  0  0  0
 11 12  1  0  0  0  0
 12 13  2  0  0  0  0
 13 14  1  0  0  0  0
 14 15  3  0  0  0  0
 15 16  1  0  0  0  0
 16 17  2  0  0  0  0
 17 18  1  0  0  0  0
 18 19  2  0  0  0  0
 19 20  1  0  0  0  0
 20 21  1  0  0  0  0
 19 22  1  0  0  0  0
 22 23  2  0  0  0  0
 13 24  1  0  0  0  0
 24 25  2  0  0  0  0
 25 26  1  0  0  0  0
 26 27  1  0  0  0  0
 27 28  2  0  0  0  0
 28 29  1  0  0  0  0
 29 30  1  0  0  0  0
 30 31  2  0  0  0  0
 29 32  2  0  0  0  0
 32 33  1  0  0  0  0
 33 34  2  0  0  0  0
 34  9  1  0  0  0  0
 25 10  1  0  0  0  0
 34 27  1  0  0  0  0
 23 16  1  0  0  0  0
  1 35  1  0  0  0  0
  1 36  1  0  0  0  0
  1 37  1  0  0  0  0
  2 38  1  0  0  0  0
  2 39  1  0  0  0  0
  3 40  1  0  0  0  0
  3 41  1  0  0  0  0
  4 42  1  0  0  0  0
  4 43  1  0  0  0  0
  5 44  1  0  0  0  0
  5 45  1  0  0  0  0
  6 46  1  0  0  0  0
  6 47  1  0  0  0  0
  7 48  1  0  0  0  0
  7 49  1  0  0  0  0
  8 50  1  0  0  0  0
  8 51  1  0  0  0  0
 11 52  1  0  0  0  0
 12 53  1  0  0  0  0
 17 54  1  0  0  0  0
 18 55  1  0  0  0  0
 21 56  1  0  0  0  0
 21 57  1  0  0  0  0
 21 58  1  0  0  0  0
 22 59  1  0  0  0  0
 23 60  1  0  0  0  0
 24 61  1  0  0  0  0
 28 62  1  0  0  0  0
 30 63  1  0  0  0  0
 32 64  1  0  0  0  0
 33 65  1  0  0  0  0
M  END
