
  xtb     03012221323D
 energy: -6.050728727720 gnorm: 0.000079010271 xtb: 6.4.1 (afa7bdf)
 30 33  0     0  0            999 V2000
    6.3318    1.0879    0.7889 C   0  0  0  0  0  0  0  0  0  0  0  0
    7.0052    0.0313    0.2819 C   0  0  0  0  0  0  0  0  0  0  0  0
    5.9141   -1.1540   -0.3426 S   0  0  0  0  0  0  0  0  0  0  0  0
    4.5148   -0.2003    0.0912 C   0  0  0  0  0  0  0  0  0  0  0  0
    3.1484   -0.5913   -0.1452 C   0  0  0  0  0  0  0  0  0  0  0  0
    2.7476   -1.7561   -0.7386 C   0  0  0  0  0  0  0  0  0  0  0  0
    1.3464   -1.8935   -0.8495 C   0  0  0  0  0  0  0  0  0  0  0  0
    0.6398   -0.8347   -0.3424 C   0  0  0  0  0  0  0  0  0  0  0  0
   -0.7932   -0.7033   -0.3201 C   0  0  0  0  0  0  0  0  0  0  0  0
   -1.6959   -1.6144   -0.8021 C   0  0  0  0  0  0  0  0  0  0  0  0
   -3.0446   -1.2248   -0.6483 C   0  0  0  0  0  0  0  0  0  0  0  0
   -3.2083   -0.0082   -0.0460 C   0  0  0  0  0  0  0  0  0  0  0  0
   -4.4727    0.6243    0.2315 C   0  0  0  0  0  0  0  0  0  0  0  0
   -4.6414    1.8389    0.8326 C   0  0  0  0  0  0  0  0  0  0  0  0
   -6.0021    2.2199    0.9817 C   0  0  0  0  0  0  0  0  0  0  0  0
   -6.8721    1.3051    0.4988 C   0  0  0  0  0  0  0  0  0  0  0  0
   -6.0351   -0.0573   -0.1559 S   0  0  0  0  0  0  0  0  0  0  0  0
   -1.6472    0.6686    0.3389 S   0  0  0  0  0  0  0  0  0  0  0  0
    1.7492    0.3571    0.2859 S   0  0  0  0  0  0  0  0  0  0  0  0
    4.9205    0.9615    0.6832 C   0  0  0  0  0  0  0  0  0  0  0  0
    6.8159    1.9463    1.2319 H   0  0  0  0  0  0  0  0  0  0  0  0
    8.0734   -0.0753    0.2609 H   0  0  0  0  0  0  0  0  0  0  0  0
    3.4475   -2.4990   -1.0883 H   0  0  0  0  0  0  0  0  0  0  0  0
    0.8749   -2.7558   -1.2941 H   0  0  0  0  0  0  0  0  0  0  0  0
   -1.4031   -2.5468   -1.2586 H   0  0  0  0  0  0  0  0  0  0  0  0
   -3.8784   -1.8270   -0.9740 H   0  0  0  0  0  0  0  0  0  0  0  0
   -3.8124    2.4463    1.1608 H   0  0  0  0  0  0  0  0  0  0  0  0
   -6.3078    3.1508    1.4371 H   0  0  0  0  0  0  0  0  0  0  0  0
   -7.9419    1.3949    0.5114 H   0  0  0  0  0  0  0  0  0  0  0  0
    4.2266    1.7089    1.0353 H   0  0  0  0  0  0  0  0  0  0  0  0
  1  2  2  0  0  0  0
  2  3  1  0  0  0  0
  3  4  1  0  0  0  0
  4  5  1  0  0  0  0
  5  6  2  0  0  0  0
  6  7  1  0  0  0  0
  7  8  2  0  0  0  0
  8  9  1  0  0  0  0
  9 10  2  0  0  0  0
 10 11  1  0  0  0  0
 11 12  2  0  0  0  0
 12 13  1  0  0  0  0
 13 14  2  0  0  0  0
 14 15  1  0  0  0  0
 15 16  2  0  0  0  0
 16 17  1  0  0  0  0
 12 18  1  0  0  0  0
  8 19  1  0  0  0  0
  4 20  2  0  0  0  0
 20  1  1  0  0  0  0
 19  5  1  0  0  0  0
 18  9  1  0  0  0  0
 17 13  1  0  0  0  0
  1 21  1  0  0  0  0
  2 22  1  0  0  0  0
  6 23  1  0  0  0  0
  7 24  1  0  0  0  0
 10 25  1  0  0  0  0
 11 26  1  0  0  0  0
 14 27  1  0  0  0  0
 15 28  1  0  0  0  0
 16 29  1  0  0  0  0
 20 30  1  0  0  0  0
M  END
