
  xtb     03012221243D
 energy: -10.724078385288 gnorm: 0.000362156171 xtb: 6.4.1 (afa7bdf)
 53 58  0     0  0            999 V2000
   -4.0905   -1.2244    1.6132 C   0  0  0  0  0  0  0  0  0  0  0  0
   -3.6891   -0.2537    0.4830 C   0  0  0  0  0  0  0  0  0  0  0  0
   -4.9459    0.3904   -0.1384 C   0  0  0  0  0  0  0  0  0  0  0  0
   -2.9640   -1.0518   -0.6074 C   0  0  0  0  0  0  0  0  0  0  0  0
   -3.6177   -2.0948   -1.2435 C   0  0  0  0  0  0  0  0  0  0  0  0
   -2.9989   -2.8381   -2.2285 C   0  0  0  0  0  0  0  0  0  0  0  0
   -1.7036   -2.5506   -2.5994 C   0  0  0  0  0  0  0  0  0  0  0  0
   -1.0386   -1.5213   -1.9819 C   0  0  0  0  0  0  0  0  0  0  0  0
   -1.6472   -0.7583   -0.9857 C   0  0  0  0  0  0  0  0  0  0  0  0
   -0.9237    0.2961   -0.3714 N   0  0  0  0  0  0  0  0  0  0  0  0
    0.4371    0.5608   -0.7817 C   0  0  0  0  0  0  0  0  0  0  0  0
    0.7063    1.4080   -1.8536 C   0  0  0  0  0  0  0  0  0  0  0  0
    2.0042    1.6469   -2.2129 C   0  0  0  0  0  0  0  0  0  0  0  0
    3.0130    1.0639   -1.5427 N   0  0  0  0  0  4  0  0  0  0  0  0
    2.8071    0.2367   -0.4826 C   0  0  0  0  0  0  0  0  0  0  0  0
    1.4997   -0.0206   -0.1039 C   0  0  0  0  0  0  0  0  0  0  0  0
    3.9570   -0.3612    0.1821 C   0  0  0  0  0  0  0  0  0  0  0  0
    3.8654   -1.0233    1.4026 C   0  0  0  0  0  0  0  0  0  0  0  0
    4.9675   -1.6221    1.9683 C   0  0  0  0  0  0  0  0  0  0  0  0
    6.1896   -1.5783    1.3237 C   0  0  0  0  0  0  0  0  0  0  0  0
    6.3103   -0.9265    0.1215 C   0  0  0  0  0  0  0  0  0  0  0  0
    5.2110   -0.2994   -0.4631 C   0  0  0  0  0  0  0  0  0  0  0  0
    5.3625    0.3591   -1.6568 O   0  0  0  0  0  0  0  0  0  0  0  0
    4.4373    1.4714   -1.9238 B   0  0  0  0  0  4  0  0  0  0  0  0
    4.7731    2.5574   -1.1205 F   0  0  0  0  0  0  0  0  0  0  0  0
    4.4486    1.8213   -3.2693 F   0  0  0  0  0  0  0  0  0  0  0  0
   -1.5089    1.0873    0.6504 C   0  0  0  0  0  0  0  0  0  0  0  0
   -0.7681    2.1150    1.2337 C   0  0  0  0  0  0  0  0  0  0  0  0
   -1.2976    2.9039    2.2237 C   0  0  0  0  0  0  0  0  0  0  0  0
   -2.5877    2.6780    2.6511 C   0  0  0  0  0  0  0  0  0  0  0  0
   -3.3370    1.6661    2.0851 C   0  0  0  0  0  0  0  0  0  0  0  0
   -2.8210    0.8582    1.0846 C   0  0  0  0  0  0  0  0  0  0  0  0
   -4.7303   -2.0240    1.2431 H   0  0  0  0  0  0  0  0  0  0  0  0
   -4.6324   -0.7106    2.4057 H   0  0  0  0  0  0  0  0  0  0  0  0
   -3.2045   -1.6804    2.0537 H   0  0  0  0  0  0  0  0  0  0  0  0
   -5.5113    0.9547    0.6015 H   0  0  0  0  0  0  0  0  0  0  0  0
   -5.6124   -0.3615   -0.5579 H   0  0  0  0  0  0  0  0  0  0  0  0
   -4.6649    1.0739   -0.9389 H   0  0  0  0  0  0  0  0  0  0  0  0
   -4.6288   -2.3316   -0.9651 H   0  0  0  0  0  0  0  0  0  0  0  0
   -3.5296   -3.6450   -2.7084 H   0  0  0  0  0  0  0  0  0  0  0  0
   -1.2175   -3.1283   -3.3672 H   0  0  0  0  0  0  0  0  0  0  0  0
   -0.0251   -1.2928   -2.2669 H   0  0  0  0  0  0  0  0  0  0  0  0
   -0.1111    1.8678   -2.3803 H   0  0  0  0  0  0  0  0  0  0  0  0
    2.2539    2.3035   -3.0279 H   0  0  0  0  0  0  0  0  0  0  0  0
    1.2851   -0.6863    0.7100 H   0  0  0  0  0  0  0  0  0  0  0  0
    2.9213   -1.0592    1.9176 H   0  0  0  0  0  0  0  0  0  0  0  0
    4.8781   -2.1285    2.9149 H   0  0  0  0  0  0  0  0  0  0  0  0
    7.0498   -2.0517    1.7677 H   0  0  0  0  0  0  0  0  0  0  0  0
    7.2554   -0.8738   -0.3885 H   0  0  0  0  0  0  0  0  0  0  0  0
    0.2394    2.2891    0.8939 H   0  0  0  0  0  0  0  0  0  0  0  0
   -0.7104    3.6929    2.6620 H   0  0  0  0  0  0  0  0  0  0  0  0
   -3.0126    3.2932    3.4282 H   0  0  0  0  0  0  0  0  0  0  0  0
   -4.3425    1.5030    2.4289 H   0  0  0  0  0  0  0  0  0  0  0  0
  1  2  1  0  0  0  0
  2  3  1  0  0  0  0
  2  4  1  0  0  0  0
  4  5  2  0  0  0  0
  5  6  1  0  0  0  0
  6  7  2  0  0  0  0
  7  8  1  0  0  0  0
  8  9  2  0  0  0  0
  9 10  1  0  0  0  0
 10 11  1  0  0  0  0
 11 12  2  0  0  0  0
 12 13  1  0  0  0  0
 13 14  2  0  0  0  0
 14 15  1  0  0  0  0
 15 16  2  0  0  0  0
 15 17  1  0  0  0  0
 17 18  2  0  0  0  0
 18 19  1  0  0  0  0
 19 20  2  0  0  0  0
 20 21  1  0  0  0  0
 21 22  2  0  0  0  0
 22 23  1  0  0  0  0
 23 24  1  0  0  0  0
 24 25  1  0  0  0  0
 24 26  1  0  0  0  0
 10 27  1  0  0  0  0
 27 28  2  0  0  0  0
 28 29  1  0  0  0  0
 29 30  2  0  0  0  0
 30 31  1  0  0  0  0
 31 32  2  0  0  0  0
 32  2  1  0  0  0  0
  9  4  1  0  0  0  0
 16 11  1  0  0  0  0
 22 17  1  0  0  0  0
 32 27  1  0  0  0  0
 24 14  1  0  0  0  0
  1 33  1  0  0  0  0
  1 34  1  0  0  0  0
  1 35  1  0  0  0  0
  3 36  1  0  0  0  0
  3 37  1  0  0  0  0
  3 38  1  0  0  0  0
  5 39  1  0  0  0  0
  6 40  1  0  0  0  0
  7 41  1  0  0  0  0
  8 42  1  0  0  0  0
 12 43  1  0  0  0  0
 13 44  1  0  0  0  0
 16 45  1  0  0  0  0
 18 46  1  0  0  0  0
 19 47  1  0  0  0  0
 20 48  1  0  0  0  0
 21 49  1  0  0  0  0
 28 50  1  0  0  0  0
 29 51  1  0  0  0  0
 30 52  1  0  0  0  0
 31 53  1  0  0  0  0
M  CHG  1  14   1
M  CHG  1  24  -1
M  END
