
  xtb     03012221283D
 energy: -11.184576736360 gnorm: 0.000310875079 xtb: 6.4.1 (afa7bdf)
 54 58  0     0  0            999 V2000
    8.9683   -2.0046    0.7741 C   0  0  0  0  0  0  0  0  0  0  0  0
    8.5975   -0.7232    0.1728 N   0  0  0  0  0  0  0  0  0  0  0  0
    9.6945    0.1631   -0.2182 C   0  0  0  0  0  0  0  0  0  0  0  0
    7.2609   -0.3579   -0.0081 C   0  0  0  0  0  0  0  0  0  0  0  0
    6.9168    0.8664   -0.5998 C   0  0  0  0  0  0  0  0  0  0  0  0
    5.6073    1.2264   -0.7775 C   0  0  0  0  0  0  0  0  0  0  0  0
    4.5635    0.3820   -0.3725 C   0  0  0  0  0  0  0  0  0  0  0  0
    3.1768    0.7255   -0.5397 C   0  0  0  0  0  0  0  0  0  0  0  0
    2.6941    1.8627   -1.0907 C   0  0  0  0  0  0  0  0  0  0  0  0
    1.3089    2.1023   -1.2053 C   0  0  0  0  0  0  0  0  0  0  0  0
    0.4168    1.2661   -0.7936 N   0  0  0  0  0  0  0  0  0  0  0  0
   -0.8784    1.5325   -0.9259 N   0  0  0  0  0  0  0  0  0  0  0  0
   -1.7600    0.7015   -0.4860 C   0  0  0  0  0  0  0  0  0  0  0  0
   -3.1655    0.9154   -0.5967 C   0  0  0  0  0  0  0  0  0  0  0  0
   -3.6186    2.0875   -1.2179 C   0  0  0  0  0  0  0  0  0  0  0  0
   -4.9506    2.3626   -1.3625 C   0  0  0  0  0  0  0  0  0  0  0  0
   -5.9220    1.4706   -0.8883 C   0  0  0  0  0  0  0  0  0  0  0  0
   -7.3149    1.7336   -1.0269 C   0  0  0  0  0  0  0  0  0  0  0  0
   -8.2441    0.8646   -0.5646 C   0  0  0  0  0  0  0  0  0  0  0  0
   -7.8613   -0.3492    0.0800 C   0  0  0  0  0  0  0  0  0  0  0  0
   -8.8000   -1.2621    0.5663 C   0  0  0  0  0  0  0  0  0  0  0  0
   -8.3976   -2.4272    1.1851 C   0  0  0  0  0  0  0  0  0  0  0  0
   -7.0583   -2.7165    1.3371 C   0  0  0  0  0  0  0  0  0  0  0  0
   -6.0792   -1.8366    0.8682 C   0  0  0  0  0  0  0  0  0  0  0  0
   -4.6863   -2.1020    1.0075 C   0  0  0  0  0  0  0  0  0  0  0  0
   -3.7558   -1.2334    0.5449 C   0  0  0  0  0  0  0  0  0  0  0  0
   -4.1215   -0.0160   -0.1013 C   0  0  0  0  0  0  0  0  0  0  0  0
   -5.5019    0.2750   -0.2540 C   0  0  0  0  0  0  0  0  0  0  0  0
   -6.4825   -0.6385    0.2321 C   0  0  0  0  0  0  0  0  0  0  0  0
    4.9067   -0.8419    0.2198 C   0  0  0  0  0  0  0  0  0  0  0  0
    6.2160   -1.2016    0.3967 C   0  0  0  0  0  0  0  0  0  0  0  0
    8.5873   -2.0631    1.7920 H   0  0  0  0  0  0  0  0  0  0  0  0
    8.5541   -2.8242    0.1899 H   0  0  0  0  0  0  0  0  0  0  0  0
   10.0489   -2.1262    0.8083 H   0  0  0  0  0  0  0  0  0  0  0  0
    9.6141    1.1115    0.3096 H   0  0  0  0  0  0  0  0  0  0  0  0
    9.6612    0.3477   -1.2903 H   0  0  0  0  0  0  0  0  0  0  0  0
   10.6610   -0.2757    0.0209 H   0  0  0  0  0  0  0  0  0  0  0  0
    7.6977    1.5327   -0.9199 H   0  0  0  0  0  0  0  0  0  0  0  0
    5.3769    2.1719   -1.2344 H   0  0  0  0  0  0  0  0  0  0  0  0
    2.4546    0.0082   -0.1920 H   0  0  0  0  0  0  0  0  0  0  0  0
    3.3757    2.6099   -1.4544 H   0  0  0  0  0  0  0  0  0  0  0  0
    0.9568    3.0162   -1.6523 H   0  0  0  0  0  0  0  0  0  0  0  0
   -1.3874   -0.1890   -0.0183 H   0  0  0  0  0  0  0  0  0  0  0  0
   -2.8826    2.7805   -1.5867 H   0  0  0  0  0  0  0  0  0  0  0  0
   -5.2671    3.2715   -1.8445 H   0  0  0  0  0  0  0  0  0  0  0  0
   -7.6203    2.6450   -1.5109 H   0  0  0  0  0  0  0  0  0  0  0  0
   -9.2928    1.0797   -0.6781 H   0  0  0  0  0  0  0  0  0  0  0  0
   -9.8481   -1.0444    0.4520 H   0  0  0  0  0  0  0  0  0  0  0  0
   -9.1378   -3.1186    1.5535 H   0  0  0  0  0  0  0  0  0  0  0  0
   -6.7528   -3.6283    1.8213 H   0  0  0  0  0  0  0  0  0  0  0  0
   -4.3830   -3.0142    1.4917 H   0  0  0  0  0  0  0  0  0  0  0  0
   -2.7153   -1.4704    0.6696 H   0  0  0  0  0  0  0  0  0  0  0  0
    4.1198   -1.5034    0.5394 H   0  0  0  0  0  0  0  0  0  0  0  0
    6.4497   -2.1446    0.8573 H   0  0  0  0  0  0  0  0  0  0  0  0
  1  2  1  0  0  0  0
  2  3  1  0  0  0  0
  2  4  1  0  0  0  0
  4  5  2  0  0  0  0
  5  6  1  0  0  0  0
  6  7  2  0  0  0  0
  7  8  1  0  0  0  0
  8  9  2  0  0  0  0
  9 10  1  0  0  0  0
 10 11  2  0  0  0  0
 11 12  1  0  0  0  0
 12 13  2  0  0  0  0
 13 14  1  0  0  0  0
 14 15  2  0  0  0  0
 15 16  1  0  0  0  0
 16 17  2  0  0  0  0
 17 18  1  0  0  0  0
 18 19  2  0  0  0  0
 19 20  1  0  0  0  0
 20 21  2  0  0  0  0
 21 22  1  0  0  0  0
 22 23  2  0  0  0  0
 23 24  1  0  0  0  0
 24 25  2  0  0  0  0
 25 26  1  0  0  0  0
 26 27  2  0  0  0  0
 27 28  1  0  0  0  0
 28 29  2  0  0  0  0
  7 30  1  0  0  0  0
 30 31  2  0  0  0  0
 31  4  1  0  0  0  0
 27 14  1  0  0  0  0
 28 17  1  0  0  0  0
 29 20  1  0  0  0  0
 29 24  1  0  0  0  0
  1 32  1  0  0  0  0
  1 33  1  0  0  0  0
  1 34  1  0  0  0  0
  3 35  1  0  0  0  0
  3 36  1  0  0  0  0
  3 37  1  0  0  0  0
  5 38  1  0  0  0  0
  6 39  1  0  0  0  0
  8 40  1  0  0  0  0
  9 41  1  0  0  0  0
 10 42  1  0  0  0  0
 13 43  1  0  0  0  0
 15 44  1  0  0  0  0
 16 45  1  0  0  0  0
 18 46  1  0  0  0  0
 19 47  1  0  0  0  0
 21 48  1  0  0  0  0
 22 49  1  0  0  0  0
 23 50  1  0  0  0  0
 25 51  1  0  0  0  0
 26 52  1  0  0  0  0
 30 53  1  0  0  0  0
 31 54  1  0  0  0  0
M  END
