
  xtb     03012221253D
 energy: -8.594774140330 gnorm: 0.000316913849 xtb: 6.4.1 (afa7bdf)
 46 48  0     0  0            999 V2000
   -6.6618   -0.1566    0.2610 C   0  0  0  0  0  0  0  0  0  0  0  0
   -6.4153    1.1779   -0.4089 C   0  0  0  0  0  0  0  0  0  0  0  0
   -5.3574    1.1278   -1.3369 O   0  0  0  0  0  0  0  0  0  0  0  0
   -4.1571    1.0152   -0.6862 C   0  0  0  0  0  0  0  0  0  0  0  0
   -4.0741    0.9869    0.5301 O   0  0  0  0  0  0  0  0  0  0  0  0
   -2.9501    0.9263   -1.5272 C   0  0  0  0  0  0  0  0  0  0  0  0
   -2.9706    1.1505   -2.8973 C   0  0  0  0  0  0  0  0  0  0  0  0
   -4.0590    1.4654   -3.6381 N   0  0  0  0  0  0  0  0  0  0  0  0
   -1.3770    0.9749   -3.5554 S   0  0  0  0  0  0  0  0  0  0  0  0
   -0.6637    0.6056   -2.0055 C   0  0  0  0  0  0  0  0  0  0  0  0
    0.6743    0.3466   -1.8861 N   0  0  0  0  0  0  0  0  0  0  0  0
    1.3403    0.3809   -0.7805 C   0  0  0  0  0  0  0  0  0  0  0  0
    2.7145    0.0714   -0.6885 C   0  0  0  0  0  0  0  0  0  0  0  0
    3.5278   -0.3108   -1.7252 C   0  0  0  0  0  0  0  0  0  0  0  0
    4.8600   -0.5530   -1.3400 C   0  0  0  0  0  0  0  0  0  0  0  0
    5.1010   -0.3638   -0.0039 C   0  0  0  0  0  0  0  0  0  0  0  0
    6.3676   -0.5359    0.6534 C   0  0  0  0  0  0  0  0  0  0  0  0
    6.6118   -0.3283    1.9817 C   0  0  0  0  0  0  0  0  0  0  0  0
    7.9580   -0.5736    2.3611 C   0  0  0  0  0  0  0  0  0  0  0  0
    8.7437   -0.9672    1.3347 C   0  0  0  0  0  0  0  0  0  0  0  0
    7.8411   -1.0465   -0.1361 S   0  0  0  0  0  0  0  0  0  0  0  0
    3.6259    0.1236    0.7930 S   0  0  0  0  0  0  0  0  0  0  0  0
   -1.6391    0.6148   -1.0266 C   0  0  0  0  0  0  0  0  0  0  0  0
   -1.3887    0.2468    0.4006 C   0  0  0  0  0  0  0  0  0  0  0  0
   -0.7560    0.9916    1.1267 O   0  0  0  0  0  0  0  0  0  0  0  0
   -1.8752   -0.9692    0.7998 O   0  0  0  0  0  0  0  0  0  0  0  0
   -1.6880   -1.1375    2.1840 C   0  0  0  0  0  0  0  0  0  0  0  0
   -0.2515   -1.4391    2.5538 C   0  0  0  0  0  0  0  0  0  0  0  0
   -6.8929   -0.9225   -0.4793 H   0  0  0  0  0  0  0  0  0  0  0  0
   -7.4830   -0.1139    0.9778 H   0  0  0  0  0  0  0  0  0  0  0  0
   -5.7643   -0.4788    0.7911 H   0  0  0  0  0  0  0  0  0  0  0  0
   -7.3039    1.5254   -0.9518 H   0  0  0  0  0  0  0  0  0  0  0  0
   -6.1597    1.9552    0.3249 H   0  0  0  0  0  0  0  0  0  0  0  0
   -4.9857    1.5375   -3.2318 H   0  0  0  0  0  0  0  0  0  0  0  0
   -4.0386    1.6068   -4.6390 H   0  0  0  0  0  0  0  0  0  0  0  0
    0.8379    0.6945    0.1152 H   0  0  0  0  0  0  0  0  0  0  0  0
    3.1660   -0.4076   -2.7382 H   0  0  0  0  0  0  0  0  0  0  0  0
    5.6308   -0.8579   -2.0311 H   0  0  0  0  0  0  0  0  0  0  0  0
    5.8469   -0.0066    2.6709 H   0  0  0  0  0  0  0  0  0  0  0  0
    8.3159   -0.4554    3.3739 H   0  0  0  0  0  0  0  0  0  0  0  0
    9.7890   -1.2027    1.4045 H   0  0  0  0  0  0  0  0  0  0  0  0
   -2.0467   -0.2136    2.6617 H   0  0  0  0  0  0  0  0  0  0  0  0
   -2.3622   -1.9457    2.4973 H   0  0  0  0  0  0  0  0  0  0  0  0
    0.3950   -0.6132    2.2568 H   0  0  0  0  0  0  0  0  0  0  0  0
   -0.1264   -1.5963    3.6259 H   0  0  0  0  0  0  0  0  0  0  0  0
    0.1004   -2.3299    2.0340 H   0  0  0  0  0  0  0  0  0  0  0  0
  1  2  1  0  0  0  0
  2  3  1  0  0  0  0
  3  4  1  0  0  0  0
  4  5  2  0  0  0  0
  4  6  1  0  0  0  0
  6  7  2  0  0  0  0
  7  8  1  0  0  0  0
  7  9  1  0  0  0  0
  9 10  1  0  0  0  0
 10 11  1  0  0  0  0
 11 12  2  0  0  0  0
 12 13  1  0  0  0  0
 13 14  2  0  0  0  0
 14 15  1  0  0  0  0
 15 16  2  0  0  0  0
 16 17  1  0  0  0  0
 17 18  2  0  0  0  0
 18 19  1  0  0  0  0
 19 20  2  0  0  0  0
 20 21  1  0  0  0  0
 16 22  1  0  0  0  0
 10 23  2  0  0  0  0
 23 24  1  0  0  0  0
 24 25  2  0  0  0  0
 24 26  1  0  0  0  0
 26 27  1  0  0  0  0
 27 28  1  0  0  0  0
 23  6  1  0  0  0  0
 22 13  1  0  0  0  0
 21 17  1  0  0  0  0
  1 29  1  0  0  0  0
  1 30  1  0  0  0  0
  1 31  1  0  0  0  0
  2 32  1  0  0  0  0
  2 33  1  0  0  0  0
  8 34  1  0  0  0  0
  8 35  1  0  0  0  0
 12 36  1  0  0  0  0
 14 37  1  0  0  0  0
 15 38  1  0  0  0  0
 18 39  1  0  0  0  0
 19 40  1  0  0  0  0
 20 41  1  0  0  0  0
 27 42  1  0  0  0  0
 27 43  1  0  0  0  0
 28 44  1  0  0  0  0
 28 45  1  0  0  0  0
 28 46  1  0  0  0  0
M  END
