
  xtb     03012221253D
 energy: -14.076811824821 gnorm: 0.000135144338 xtb: 6.4.1 (afa7bdf)
 64 70  0     0  0            999 V2000
   -0.0160    0.9462   -1.0968 O   0  0  0  0  0  0  0  0  0  0  0  0
   -0.0020    0.1437   -0.1628 C   0  0  0  0  0  0  0  0  0  0  0  0
    1.0263   -0.3952    0.7089 C   0  0  0  0  0  0  0  0  0  0  0  0
    2.3894   -0.2778    0.9299 N   0  0  0  0  0  0  0  0  0  0  0  0
    2.9227   -0.9694    2.0804 C   0  0  0  0  0  0  0  0  0  0  0  0
    2.9395   -2.3596    2.1310 C   0  0  0  0  0  0  0  0  0  0  0  0
    3.4518   -3.0136    3.2274 C   0  0  0  0  0  0  0  0  0  0  0  0
    3.9586   -2.2908    4.2892 C   0  0  0  0  0  0  0  0  0  0  0  0
    3.9464   -0.9105    4.2540 C   0  0  0  0  0  0  0  0  0  0  0  0
    3.4313   -0.2540    3.1604 C   0  0  0  0  0  0  0  0  0  0  0  0
    3.3005    0.4661    0.1135 C   0  0  0  0  0  0  0  0  0  0  0  0
    4.6919    0.3756    0.3396 C   0  0  0  0  0  0  0  0  0  0  0  0
    5.5843    1.0581   -0.4253 C   0  0  0  0  0  0  0  0  0  0  0  0
    5.1428    1.8841   -1.4832 C   0  0  0  0  0  0  0  0  0  0  0  0
    6.0343    2.6056   -2.3035 C   0  0  0  0  0  0  0  0  0  0  0  0
    5.5679    3.3861   -3.3198 C   0  0  0  0  0  0  0  0  0  0  0  0
    4.1942    3.4821   -3.5641 C   0  0  0  0  0  0  0  0  0  0  0  0
    3.3037    2.7998   -2.7916 C   0  0  0  0  0  0  0  0  0  0  0  0
    3.7539    1.9836   -1.7304 C   0  0  0  0  0  0  0  0  0  0  0  0
    2.8631    1.2631   -0.9166 C   0  0  0  0  0  0  0  0  0  0  0  0
    0.0214   -1.1859    1.3831 C   0  0  0  0  0  0  0  0  0  0  0  0
    0.0360   -1.9883    2.3158 O   0  0  0  0  0  1  0  0  0  0  0  0
   -1.0068   -0.6527    0.5182 C   0  0  0  0  0  0  0  0  0  0  0  0
   -2.3667   -0.9125    0.4551 N   0  0  0  0  0  4  0  0  0  0  0  0
   -2.8699   -1.9580    1.3152 C   0  0  0  0  0  0  0  0  0  0  0  0
   -2.8644   -1.8071    2.6982 C   0  0  0  0  0  0  0  0  0  0  0  0
   -3.3515   -2.8030    3.5126 C   0  0  0  0  0  0  0  0  0  0  0  0
   -3.8548   -3.9639    2.9598 C   0  0  0  0  0  0  0  0  0  0  0  0
   -3.8642   -4.1289    1.5890 C   0  0  0  0  0  0  0  0  0  0  0  0
   -3.3743   -3.1361    0.7725 C   0  0  0  0  0  0  0  0  0  0  0  0
   -3.3028   -0.2283   -0.3849 C   0  0  0  0  0  0  0  0  0  0  0  0
   -4.6889   -0.4552   -0.2339 C   0  0  0  0  0  0  0  0  0  0  0  0
   -5.6047    0.1875   -1.0054 C   0  0  0  0  0  0  0  0  0  0  0  0
   -5.1940    1.1143   -1.9897 C   0  0  0  0  0  0  0  0  0  0  0  0
   -6.1105    1.8053   -2.8086 C   0  0  0  0  0  0  0  0  0  0  0  0
   -5.6734    2.6981   -3.7422 C   0  0  0  0  0  0  0  0  0  0  0  0
   -4.3055    2.9421   -3.9010 C   0  0  0  0  0  0  0  0  0  0  0  0
   -3.3915    2.2923   -3.1279 C   0  0  0  0  0  0  0  0  0  0  0  0
   -3.8109    1.3607   -2.1527 C   0  0  0  0  0  0  0  0  0  0  0  0
   -2.8952    0.6756   -1.3359 C   0  0  0  0  0  0  0  0  0  0  0  0
    2.5158   -2.9109    1.3093 H   0  0  0  0  0  0  0  0  0  0  0  0
    3.4473   -4.0903    3.2614 H   0  0  0  0  0  0  0  0  0  0  0  0
    4.3562   -2.8042    5.1494 H   0  0  0  0  0  0  0  0  0  0  0  0
    4.3351   -0.3470    5.0858 H   0  0  0  0  0  0  0  0  0  0  0  0
    3.4066    0.8215    3.1261 H   0  0  0  0  0  0  0  0  0  0  0  0
    5.0448   -0.2587    1.1330 H   0  0  0  0  0  0  0  0  0  0  0  0
    6.6401    0.9739   -0.2360 H   0  0  0  0  0  0  0  0  0  0  0  0
    7.0925    2.5294   -2.1156 H   0  0  0  0  0  0  0  0  0  0  0  0
    6.2588    3.9316   -3.9403 H   0  0  0  0  0  0  0  0  0  0  0  0
    3.8391    4.1019   -4.3727 H   0  0  0  0  0  0  0  0  0  0  0  0
    2.2466    2.8715   -2.9803 H   0  0  0  0  0  0  0  0  0  0  0  0
    1.8130    1.3302   -1.1172 H   0  0  0  0  0  0  0  0  0  0  0  0
   -2.4438   -0.9094    3.1175 H   0  0  0  0  0  0  0  0  0  0  0  0
   -3.3303   -2.6805    4.5827 H   0  0  0  0  0  0  0  0  0  0  0  0
   -4.2330   -4.7450    3.5990 H   0  0  0  0  0  0  0  0  0  0  0  0
   -4.2502   -5.0379    1.1584 H   0  0  0  0  0  0  0  0  0  0  0  0
   -3.3671   -3.2575   -0.2969 H   0  0  0  0  0  0  0  0  0  0  0  0
   -5.0184   -1.1482    0.5195 H   0  0  0  0  0  0  0  0  0  0  0  0
   -6.6559    0.0003   -0.8726 H   0  0  0  0  0  0  0  0  0  0  0  0
   -7.1642    1.6180   -2.6840 H   0  0  0  0  0  0  0  0  0  0  0  0
   -6.3832    3.2206   -4.3611 H   0  0  0  0  0  0  0  0  0  0  0  0
   -3.9737    3.6523   -4.6423 H   0  0  0  0  0  0  0  0  0  0  0  0
   -2.3387    2.4812   -3.2481 H   0  0  0  0  0  0  0  0  0  0  0  0
   -1.8498    0.8776   -1.4523 H   0  0  0  0  0  0  0  0  0  0  0  0
  1  2  2  0  0  0  0
  2  3  1  0  0  0  0
  3  4  1  0  0  0  0
  4  5  1  0  0  0  0
  5  6  2  0  0  0  0
  6  7  1  0  0  0  0
  7  8  2  0  0  0  0
  8  9  1  0  0  0  0
  9 10  2  0  0  0  0
  4 11  1  0  0  0  0
 11 12  2  0  0  0  0
 12 13  1  0  0  0  0
 13 14  2  0  0  0  0
 14 15  1  0  0  0  0
 15 16  2  0  0  0  0
 16 17  1  0  0  0  0
 17 18  2  0  0  0  0
 18 19  1  0  0  0  0
 19 20  2  0  0  0  0
  3 21  2  0  0  0  0
 21 22  1  0  0  0  0
 21 23  1  0  0  0  0
 23 24  2  0  0  0  0
 24 25  1  0  0  0  0
 25 26  2  0  0  0  0
 26 27  1  0  0  0  0
 27 28  2  0  0  0  0
 28 29  1  0  0  0  0
 29 30  2  0  0  0  0
 24 31  1  0  0  0  0
 31 32  2  0  0  0  0
 32 33  1  0  0  0  0
 33 34  2  0  0  0  0
 34 35  1  0  0  0  0
 35 36  2  0  0  0  0
 36 37  1  0  0  0  0
 37 38  2  0  0  0  0
 38 39  1  0  0  0  0
 39 40  2  0  0  0  0
 23  2  1  0  0  0  0
 30 25  1  0  0  0  0
 40 31  1  0  0  0  0
 10  5  1  0  0  0  0
 20 11  1  0  0  0  0
 39 34  1  0  0  0  0
 19 14  1  0  0  0  0
  6 41  1  0  0  0  0
  7 42  1  0  0  0  0
  8 43  1  0  0  0  0
  9 44  1  0  0  0  0
 10 45  1  0  0  0  0
 12 46  1  0  0  0  0
 13 47  1  0  0  0  0
 15 48  1  0  0  0  0
 16 49  1  0  0  0  0
 17 50  1  0  0  0  0
 18 51  1  0  0  0  0
 20 52  1  0  0  0  0
 26 53  1  0  0  0  0
 27 54  1  0  0  0  0
 28 55  1  0  0  0  0
 29 56  1  0  0  0  0
 30 57  1  0  0  0  0
 32 58  1  0  0  0  0
 33 59  1  0  0  0  0
 35 60  1  0  0  0  0
 36 61  1  0  0  0  0
 37 62  1  0  0  0  0
 38 63  1  0  0  0  0
 40 64  1  0  0  0  0
M  CHG  1  22  -1
M  CHG  1  24   1
M  END
