
  xtb     03012221263D
 energy: -6.285982771850 gnorm: 0.000418188738 xtb: 6.4.1 (afa7bdf)
 30 32  0     0  0            999 V2000
   -2.7555   -2.2410    0.6671 O   0  0  0  0  0  0  0  0  0  0  0  0
   -2.7729   -1.0503    0.4471 C   0  0  0  0  0  0  0  0  0  0  0  0
   -3.4714   -0.1588    1.1823 O   0  0  0  0  0  0  0  0  0  0  0  0
   -1.9670   -0.5007   -0.6829 C   0  0  0  0  0  0  0  0  0  0  0  0
   -0.6029   -0.1616   -0.2547 N   0  0  0  0  0  0  0  0  0  0  0  0
    0.4069   -1.1387   -0.3439 C   0  0  0  0  0  0  0  0  0  0  0  0
    0.1071   -2.5028   -0.3887 C   0  0  0  0  0  0  0  0  0  0  0  0
    1.1003   -3.4367   -0.5313 C   0  0  0  0  0  0  0  0  0  0  0  0
    2.4248   -3.0371   -0.6244 C   0  0  0  0  0  0  0  0  0  0  0  0
    2.7463   -1.7045   -0.5494 C   0  0  0  0  0  0  0  0  0  0  0  0
    1.7546   -0.7439   -0.3958 C   0  0  0  0  0  0  0  0  0  0  0  0
    2.1106    0.6668   -0.2696 C   0  0  0  0  0  0  0  0  0  0  0  0
    3.2658    1.0411   -0.3912 O   0  0  0  0  0  0  0  0  0  0  0  0
    1.0381    1.6090    0.0395 C   0  0  0  0  0  0  0  0  0  0  0  0
    1.3334    2.9391    0.3098 C   0  0  0  0  0  0  0  0  0  0  0  0
    0.3379    3.8236    0.6431 C   0  0  0  0  0  0  0  0  0  0  0  0
   -0.9760    3.3884    0.7267 C   0  0  0  0  0  0  0  0  0  0  0  0
   -1.2888    2.0816    0.4552 C   0  0  0  0  0  0  0  0  0  0  0  0
   -0.2967    1.1708    0.0818 C   0  0  0  0  0  0  0  0  0  0  0  0
   -3.9322   -0.6623    1.8799 H   0  0  0  0  0  0  0  0  0  0  0  0
   -2.4526    0.3850   -1.0957 H   0  0  0  0  0  0  0  0  0  0  0  0
   -1.9171   -1.2301   -1.4934 H   0  0  0  0  0  0  0  0  0  0  0  0
   -0.9129   -2.8111   -0.2367 H   0  0  0  0  0  0  0  0  0  0  0  0
    0.8525   -4.4849   -0.5578 H   0  0  0  0  0  0  0  0  0  0  0  0
    3.2025   -3.7733   -0.7385 H   0  0  0  0  0  0  0  0  0  0  0  0
    3.7710   -1.3769   -0.5987 H   0  0  0  0  0  0  0  0  0  0  0  0
    2.3619    3.2544    0.2590 H   0  0  0  0  0  0  0  0  0  0  0  0
    0.5791    4.8516    0.8548 H   0  0  0  0  0  0  0  0  0  0  0  0
   -1.7516    4.0778    1.0167 H   0  0  0  0  0  0  0  0  0  0  0  0
   -2.2953    1.7256    0.5895 H   0  0  0  0  0  0  0  0  0  0  0  0
  1  2  2  0  0  0  0
  2  3  1  0  0  0  0
  2  4  1  0  0  0  0
  4  5  1  0  0  0  0
  5  6  1  0  0  0  0
  6  7  2  0  0  0  0
  7  8  1  0  0  0  0
  8  9  2  0  0  0  0
  9 10  1  0  0  0  0
 10 11  2  0  0  0  0
 11 12  1  0  0  0  0
 12 13  2  0  0  0  0
 12 14  1  0  0  0  0
 14 15  2  0  0  0  0
 15 16  1  0  0  0  0
 16 17  2  0  0  0  0
 17 18  1  0  0  0  0
 18 19  2  0  0  0  0
 19  5  1  0  0  0  0
 11  6  1  0  0  0  0
 19 14  1  0  0  0  0
  3 20  1  0  0  0  0
  4 21  1  0  0  0  0
  4 22  1  0  0  0  0
  7 23  1  0  0  0  0
  8 24  1  0  0  0  0
  9 25  1  0  0  0  0
 10 26  1  0  0  0  0
 15 27  1  0  0  0  0
 16 28  1  0  0  0  0
 17 29  1  0  0  0  0
 18 30  1  0  0  0  0
M  END
