
  xtb     03012221243D
 energy: -12.328163560421 gnorm: 0.000372374833 xtb: 6.4.1 (afa7bdf)
 67 72  0     0  0            999 V2000
   -0.8909   -3.0573   -0.1017 C   0  0  0  0  0  0  0  0  0  0  0  0
   -2.2573   -2.4894   -0.0328 C   0  0  0  0  0  0  0  0  0  0  0  0
   -3.4476   -3.2241   -0.0445 C   0  0  0  0  0  0  0  0  0  0  0  0
   -4.5328   -2.3441    0.0252 C   0  0  0  0  0  0  0  0  0  0  0  0
   -5.9710   -2.6675    0.0155 C   0  0  0  0  0  0  0  0  0  0  0  0
   -4.0073   -1.1043    0.0800 N   0  0  0  0  0  4  0  0  0  0  0  0
   -2.6075   -1.1239    0.0583 C   0  0  0  0  0  0  0  0  0  0  0  0
   -1.8073    0.0413    0.1034 C   0  0  0  0  0  0  0  0  0  0  0  0
   -0.3358   -0.0239    0.0700 C   0  0  0  0  0  0  0  0  0  0  0  0
    0.4903    0.1939   -1.0673 C   0  0  0  0  0  0  0  0  0  0  0  0
   -0.0300    0.5215   -2.4170 C   0  0  0  0  0  0  0  0  0  0  0  0
    1.8271    0.0173   -0.6602 C   0  0  0  0  0  0  0  0  0  0  0  0
    3.0490    0.0931   -1.3631 C   0  0  0  0  0  0  0  0  0  0  0  0
    3.0863    0.3333   -2.8256 C   0  0  0  0  0  0  0  0  0  0  0  0
    4.2153   -0.0489   -0.6172 C   0  0  0  0  0  0  0  0  0  0  0  0
    5.6069    0.0436   -0.9642 C   0  0  0  0  0  0  0  0  0  0  0  0
    6.2018    0.3594   -2.2853 C   0  0  0  0  0  0  0  0  0  0  0  0
    6.3394   -0.2119    0.1830 C   0  0  0  0  0  0  0  0  0  0  0  0
    5.4589   -0.4513    1.2571 C   0  0  0  0  0  0  0  0  0  0  0  0
    5.8007   -0.7531    2.6588 C   0  0  0  0  0  0  0  0  0  0  0  0
    4.2228   -0.3429    0.7616 N   0  0  0  0  0  0  0  0  0  0  0  0
    2.9671   -0.5187    1.6126 B   0  0  0  0  0  4  0  0  0  0  0  0
    2.9728    0.4231    2.6475 F   0  0  0  0  0  0  0  0  0  0  0  0
    2.9197   -1.8249    2.1115 F   0  0  0  0  0  0  0  0  0  0  0  0
    1.7541   -0.2773    0.7189 N   0  0  0  0  0  4  0  0  0  0  0  0
    0.5108   -0.3240    1.1829 C   0  0  0  0  0  0  0  0  0  0  0  0
    0.1125   -0.5568    2.5818 C   0  0  0  0  0  0  0  0  0  0  0  0
   -2.5016    1.2712    0.1746 C   0  0  0  0  0  0  0  0  0  0  0  0
   -2.0317    2.5996    0.2725 C   0  0  0  0  0  0  0  0  0  0  0  0
   -0.6197    3.0438    0.3234 C   0  0  0  0  0  0  0  0  0  0  0  0
   -3.1525    3.4356    0.3121 C   0  0  0  0  0  0  0  0  0  0  0  0
   -4.3117    2.6546    0.2550 C   0  0  0  0  0  0  0  0  0  0  0  0
   -5.7158    3.1027    0.2810 C   0  0  0  0  0  0  0  0  0  0  0  0
   -3.8979    1.3743    0.1786 N   0  0  0  0  0  0  0  0  0  0  0  0
   -4.8453    0.1747    0.1235 B   0  0  0  0  0  4  0  0  0  0  0  0
   -5.6435    0.1643    1.2719 F   0  0  0  0  0  0  0  0  0  0  0  0
   -5.6218    0.2551   -1.0371 F   0  0  0  0  0  0  0  0  0  0  0  0
   -0.3725   -2.9483    0.8520 H   0  0  0  0  0  0  0  0  0  0  0  0
   -0.2975   -2.5553   -0.8674 H   0  0  0  0  0  0  0  0  0  0  0  0
   -0.9197   -4.1203   -0.3467 H   0  0  0  0  0  0  0  0  0  0  0  0
   -3.5203   -4.2969   -0.1085 H   0  0  0  0  0  0  0  0  0  0  0  0
   -6.2207   -3.3602    0.8189 H   0  0  0  0  0  0  0  0  0  0  0  0
   -6.2616   -3.1179   -0.9334 H   0  0  0  0  0  0  0  0  0  0  0  0
   -6.5584   -1.7591    0.1535 H   0  0  0  0  0  0  0  0  0  0  0  0
    0.5214    1.3487   -2.8631 H   0  0  0  0  0  0  0  0  0  0  0  0
   -1.0777    0.8178   -2.3650 H   0  0  0  0  0  0  0  0  0  0  0  0
    0.0324   -0.3410   -3.0802 H   0  0  0  0  0  0  0  0  0  0  0  0
    3.9567   -0.1349   -3.2813 H   0  0  0  0  0  0  0  0  0  0  0  0
    2.2179   -0.0987   -3.3195 H   0  0  0  0  0  0  0  0  0  0  0  0
    3.1137    1.4006   -3.0464 H   0  0  0  0  0  0  0  0  0  0  0  0
    7.2595    0.6038   -2.1848 H   0  0  0  0  0  0  0  0  0  0  0  0
    5.7111    1.2185   -2.7426 H   0  0  0  0  0  0  0  0  0  0  0  0
    6.1240   -0.4908   -2.9631 H   0  0  0  0  0  0  0  0  0  0  0  0
    7.4133   -0.2169    0.2501 H   0  0  0  0  0  0  0  0  0  0  0  0
    6.4084   -1.6553    2.7264 H   0  0  0  0  0  0  0  0  0  0  0  0
    6.3524    0.0709    3.1110 H   0  0  0  0  0  0  0  0  0  0  0  0
    4.8913   -0.9114    3.2394 H   0  0  0  0  0  0  0  0  0  0  0  0
   -0.7937   -1.1594    2.6386 H   0  0  0  0  0  0  0  0  0  0  0  0
   -0.0730    0.3886    3.0907 H   0  0  0  0  0  0  0  0  0  0  0  0
    0.9076   -1.0763    3.1171 H   0  0  0  0  0  0  0  0  0  0  0  0
   -0.5492    4.0950    0.6073 H   0  0  0  0  0  0  0  0  0  0  0  0
   -0.1386    2.9261   -0.6487 H   0  0  0  0  0  0  0  0  0  0  0  0
   -0.0533    2.4635    1.0536 H   0  0  0  0  0  0  0  0  0  0  0  0
   -3.1299    4.5101    0.3848 H   0  0  0  0  0  0  0  0  0  0  0  0
   -5.9273    3.7711   -0.5533 H   0  0  0  0  0  0  0  0  0  0  0  0
   -6.3829    2.2434    0.2061 H   0  0  0  0  0  0  0  0  0  0  0  0
   -5.9400    3.6261    1.2100 H   0  0  0  0  0  0  0  0  0  0  0  0
  1  2  1  0  0  0  0
  2  3  2  0  0  0  0
  3  4  1  0  0  0  0
  4  5  1  0  0  0  0
  4  6  2  0  0  0  0
  6  7  1  0  0  0  0
  7  8  2  0  0  0  0
  8  9  1  0  0  0  0
  9 10  2  0  0  0  0
 10 11  1  0  0  0  0
 10 12  1  0  0  0  0
 12 13  2  0  0  0  0
 13 14  1  0  0  0  0
 13 15  1  0  0  0  0
 15 16  2  0  0  0  0
 16 17  1  0  0  0  0
 16 18  1  0  0  0  0
 18 19  2  0  0  0  0
 19 20  1  0  0  0  0
 19 21  1  0  0  0  0
 21 22  1  0  0  0  0
 22 23  1  0  0  0  0
 22 24  1  0  0  0  0
 22 25  1  0  0  0  0
 25 26  2  0  0  0  0
 26 27  1  0  0  0  0
  8 28  1  0  0  0  0
 28 29  2  0  0  0  0
 29 30  1  0  0  0  0
 29 31  1  0  0  0  0
 31 32  2  0  0  0  0
 32 33  1  0  0  0  0
 32 34  1  0  0  0  0
 34 35  1  0  0  0  0
 35 36  1  0  0  0  0
 35 37  1  0  0  0  0
  7  2  1  0  0  0  0
 26  9  1  0  0  0  0
 34 28  1  0  0  0  0
 35  6  1  0  0  0  0
 25 12  1  0  0  0  0
 21 15  1  0  0  0  0
  1 38  1  0  0  0  0
  1 39  1  0  0  0  0
  1 40  1  0  0  0  0
  3 41  1  0  0  0  0
  5 42  1  0  0  0  0
  5 43  1  0  0  0  0
  5 44  1  0  0  0  0
 11 45  1  0  0  0  0
 11 46  1  0  0  0  0
 11 47  1  0  0  0  0
 14 48  1  0  0  0  0
 14 49  1  0  0  0  0
 14 50  1  0  0  0  0
 17 51  1  0  0  0  0
 17 52  1  0  0  0  0
 17 53  1  0  0  0  0
 18 54  1  0  0  0  0
 20 55  1  0  0  0  0
 20 56  1  0  0  0  0
 20 57  1  0  0  0  0
 27 58  1  0  0  0  0
 27 59  1  0  0  0  0
 27 60  1  0  0  0  0
 30 61  1  0  0  0  0
 30 62  1  0  0  0  0
 30 63  1  0  0  0  0
 31 64  1  0  0  0  0
 33 65  1  0  0  0  0
 33 66  1  0  0  0  0
 33 67  1  0  0  0  0
M  CHG  1   6   1
M  CHG  1  22  -1
M  CHG  1  25   1
M  CHG  1  35  -1
M  END
