
  xtb     03012221253D
 energy: -12.728544926458 gnorm: 0.000298108160 xtb: 6.4.1 (afa7bdf)
 60 65  0     0  0            999 V2000
   -0.9834    5.7530   -1.7407 C   0  0  0  0  0  0  0  0  0  0  0  0
   -1.3369    4.4440   -1.4325 O   0  0  0  0  0  0  0  0  0  0  0  0
   -2.6910    4.2858   -1.5829 C   0  0  0  0  0  0  0  0  0  0  0  0
   -3.4145    5.2000   -1.9403 O   0  0  0  0  0  0  0  0  0  0  0  0
   -3.2604    2.9617   -1.2969 C   0  0  0  0  0  0  0  0  0  0  0  0
   -4.6236    2.7546   -1.4431 C   0  0  0  0  0  0  0  0  0  0  0  0
   -5.7523    2.4825   -1.5365 N   0  0  0  0  0  0  0  0  0  0  0  0
   -2.4755    1.9157   -0.8866 C   0  0  0  0  0  0  0  0  0  0  0  0
   -0.7423    1.9795   -0.6502 S   0  0  0  0  0  0  0  0  0  0  0  0
   -0.5875    0.3044   -0.1511 C   0  0  0  0  0  0  0  0  0  0  0  0
    0.5800   -0.3313    0.2041 C   0  0  0  0  0  0  0  0  0  0  0  0
    0.7527   -2.0001    0.7186 S   0  0  0  0  0  0  0  0  0  0  0  0
    2.4866   -1.9187    0.9467 C   0  0  0  0  0  0  0  0  0  0  0  0
    3.2832   -2.9522    1.3661 C   0  0  0  0  0  0  0  0  0  0  0  0
    4.6460   -2.7322    1.4965 C   0  0  0  0  0  0  0  0  0  0  0  0
    5.7734   -2.4500    1.5746 N   0  0  0  0  0  0  0  0  0  0  0  0
    2.7271   -4.2762    1.6776 C   0  0  0  0  0  0  0  0  0  0  0  0
    3.4603   -5.1775    2.0477 O   0  0  0  0  0  0  0  0  0  0  0  0
    1.3739   -4.4489    1.5365 O   0  0  0  0  0  0  0  0  0  0  0  0
    1.0326   -5.7531    1.8773 C   0  0  0  0  0  0  0  0  0  0  0  0
    2.8996   -0.5805    0.6120 C   0  0  0  0  0  0  0  0  0  0  0  0
    4.1650    0.0796    0.5958 C   0  0  0  0  0  0  0  0  0  0  0  0
    4.1051    1.3852    0.1968 C   0  0  0  0  0  0  0  0  0  0  0  0
    5.2369    2.2921    0.0784 C   0  0  0  0  0  0  0  0  0  0  0  0
    5.0405    3.6045   -0.3462 C   0  0  0  0  0  0  0  0  0  0  0  0
    6.0957    4.4774   -0.4694 C   0  0  0  0  0  0  0  0  0  0  0  0
    7.3745    4.0553   -0.1696 C   0  0  0  0  0  0  0  0  0  0  0  0
    7.5940    2.7602    0.2531 C   0  0  0  0  0  0  0  0  0  0  0  0
    6.5383    1.8874    0.3762 C   0  0  0  0  0  0  0  0  0  0  0  0
    2.4479    1.8450   -0.1680 S   0  0  0  0  0  0  0  0  0  0  0  0
    1.8533    0.2589    0.2147 C   0  0  0  0  0  0  0  0  0  0  0  0
   -1.8651   -0.2766   -0.1763 C   0  0  0  0  0  0  0  0  0  0  0  0
   -2.4785   -1.8614    0.1819 S   0  0  0  0  0  0  0  0  0  0  0  0
   -4.1261   -1.3875   -0.2087 C   0  0  0  0  0  0  0  0  0  0  0  0
   -5.2630   -2.2928   -0.1365 C   0  0  0  0  0  0  0  0  0  0  0  0
   -6.5566   -1.8762   -0.4514 C   0  0  0  0  0  0  0  0  0  0  0  0
   -7.6161   -2.7503   -0.3802 C   0  0  0  0  0  0  0  0  0  0  0  0
   -7.4082   -4.0585    0.0065 C   0  0  0  0  0  0  0  0  0  0  0  0
   -6.1373   -4.4924    0.3228 C   0  0  0  0  0  0  0  0  0  0  0  0
   -5.0784   -3.6182    0.2515 C   0  0  0  0  0  0  0  0  0  0  0  0
   -4.1717   -0.0741   -0.5826 C   0  0  0  0  0  0  0  0  0  0  0  0
   -2.9013    0.5764   -0.5724 C   0  0  0  0  0  0  0  0  0  0  0  0
    0.0962    5.8697   -1.6272 H   0  0  0  0  0  0  0  0  0  0  0  0
   -1.2816    5.9638   -2.7708 H   0  0  0  0  0  0  0  0  0  0  0  0
   -1.5112    6.4279   -1.0624 H   0  0  0  0  0  0  0  0  0  0  0  0
   -0.0460   -5.8823    1.7683 H   0  0  0  0  0  0  0  0  0  0  0  0
    1.3337   -5.9356    2.9120 H   0  0  0  0  0  0  0  0  0  0  0  0
    1.5661   -6.4399    1.2154 H   0  0  0  0  0  0  0  0  0  0  0  0
    5.0753   -0.4222    0.8709 H   0  0  0  0  0  0  0  0  0  0  0  0
    4.0401    3.9283   -0.5797 H   0  0  0  0  0  0  0  0  0  0  0  0
    5.9245    5.4879   -0.7997 H   0  0  0  0  0  0  0  0  0  0  0  0
    8.2035    4.7379   -0.2662 H   0  0  0  0  0  0  0  0  0  0  0  0
    8.5930    2.4324    0.4864 H   0  0  0  0  0  0  0  0  0  0  0  0
    6.7186    0.8782    0.7060 H   0  0  0  0  0  0  0  0  0  0  0  0
   -6.7276   -0.8571   -0.7547 H   0  0  0  0  0  0  0  0  0  0  0  0
   -8.6087   -2.4135   -0.6270 H   0  0  0  0  0  0  0  0  0  0  0  0
   -8.2399   -4.7424    0.0611 H   0  0  0  0  0  0  0  0  0  0  0  0
   -5.9750   -5.5133    0.6240 H   0  0  0  0  0  0  0  0  0  0  0  0
   -4.0839   -3.9519    0.4962 H   0  0  0  0  0  0  0  0  0  0  0  0
   -5.0740    0.4375   -0.8660 H   0  0  0  0  0  0  0  0  0  0  0  0
  1  2  1  0  0  0  0
  2  3  1  0  0  0  0
  3  4  2  0  0  0  0
  3  5  1  0  0  0  0
  5  6  1  0  0  0  0
  6  7  3  0  0  0  0
  5  8  2  0  0  0  0
  8  9  1  0  0  0  0
  9 10  1  0  0  0  0
 10 11  2  0  0  0  0
 11 12  1  0  0  0  0
 12 13  1  0  0  0  0
 13 14  2  0  0  0  0
 14 15  1  0  0  0  0
 15 16  3  0  0  0  0
 14 17  1  0  0  0  0
 17 18  2  0  0  0  0
 17 19  1  0  0  0  0
 19 20  1  0  0  0  0
 13 21  1  0  0  0  0
 21 22  1  0  0  0  0
 22 23  2  0  0  0  0
 23 24  1  0  0  0  0
 24 25  2  0  0  0  0
 25 26  1  0  0  0  0
 26 27  2  0  0  0  0
 27 28  1  0  0  0  0
 28 29  2  0  0  0  0
 23 30  1  0  0  0  0
 30 31  1  0  0  0  0
 10 32  1  0  0  0  0
 32 33  1  0  0  0  0
 33 34  1  0  0  0  0
 34 35  1  0  0  0  0
 35 36  2  0  0  0  0
 36 37  1  0  0  0  0
 37 38  2  0  0  0  0
 38 39  1  0  0  0  0
 39 40  2  0  0  0  0
 34 41  2  0  0  0  0
 41 42  1  0  0  0  0
 42  8  1  0  0  0  0
 31 11  1  0  0  0  0
 42 32  2  0  0  0  0
 31 21  2  0  0  0  0
 40 35  1  0  0  0  0
 29 24  1  0  0  0  0
  1 43  1  0  0  0  0
  1 44  1  0  0  0  0
  1 45  1  0  0  0  0
 20 46  1  0  0  0  0
 20 47  1  0  0  0  0
 20 48  1  0  0  0  0
 22 49  1  0  0  0  0
 25 50  1  0  0  0  0
 26 51  1  0  0  0  0
 27 52  1  0  0  0  0
 28 53  1  0  0  0  0
 29 54  1  0  0  0  0
 36 55  1  0  0  0  0
 37 56  1  0  0  0  0
 38 57  1  0  0  0  0
 39 58  1  0  0  0  0
 40 59  1  0  0  0  0
 41 60  1  0  0  0  0
M  END
