
  xtb     03012221273D
 energy: -7.304285640869 gnorm: 0.000122750294 xtb: 6.4.1 (afa7bdf)
 34 37  0     0  0            999 V2000
    4.0089   -1.5669    0.2468 C   0  0  0  0  0  0  0  0  0  0  0  0
    3.7145   -0.5620   -0.6539 C   0  0  0  0  0  0  0  0  0  0  0  0
    2.4352   -0.0591   -0.7340 C   0  0  0  0  0  0  0  0  0  0  0  0
    1.4211   -0.5543    0.0885 C   0  0  0  0  0  0  0  0  0  0  0  0
    0.0389   -0.0146    0.0030 C   0  0  0  0  0  0  0  0  0  0  0  0
   -1.0068   -0.8082   -0.5282 C   0  0  0  0  0  0  0  0  0  0  0  0
   -0.7776   -2.1242   -1.0068 C   0  0  0  0  0  0  0  0  0  0  0  0
   -1.7893   -2.8729   -1.5195 C   0  0  0  0  0  0  0  0  0  0  0  0
   -3.0945   -2.3562   -1.5894 C   0  0  0  0  0  0  0  0  0  0  0  0
   -3.3611   -1.0999   -1.1482 C   0  0  0  0  0  0  0  0  0  0  0  0
   -2.3306   -0.2840   -0.6071 C   0  0  0  0  0  0  0  0  0  0  0  0
   -2.5865    1.0100   -0.1598 C   0  0  0  0  0  0  0  0  0  0  0  0
   -1.5741    1.8089    0.3662 C   0  0  0  0  0  0  0  0  0  0  0  0
   -1.8335    3.1284    0.8270 C   0  0  0  0  0  0  0  0  0  0  0  0
   -0.8381    3.8922    1.3462 C   0  0  0  0  0  0  0  0  0  0  0  0
    0.4709    3.3887    1.4386 C   0  0  0  0  0  0  0  0  0  0  0  0
    0.7589    2.1327    1.0067 C   0  0  0  0  0  0  0  0  0  0  0  0
   -0.2455    1.2981    0.4517 C   0  0  0  0  0  0  0  0  0  0  0  0
    1.7383   -1.5702    0.9925 C   0  0  0  0  0  0  0  0  0  0  0  0
    3.0193   -2.0692    1.0689 C   0  0  0  0  0  0  0  0  0  0  0  0
    5.0108   -1.9591    0.3079 H   0  0  0  0  0  0  0  0  0  0  0  0
    4.4870   -0.1720   -1.2963 H   0  0  0  0  0  0  0  0  0  0  0  0
    2.1991    0.7205   -1.4379 H   0  0  0  0  0  0  0  0  0  0  0  0
    0.2196   -2.5252   -0.9621 H   0  0  0  0  0  0  0  0  0  0  0  0
   -1.5935   -3.8703   -1.8774 H   0  0  0  0  0  0  0  0  0  0  0  0
   -3.8852   -2.9635   -1.9984 H   0  0  0  0  0  0  0  0  0  0  0  0
   -4.3605   -0.7041   -1.2049 H   0  0  0  0  0  0  0  0  0  0  0  0
   -3.5862    1.4002   -0.2219 H   0  0  0  0  0  0  0  0  0  0  0  0
   -2.8362    3.5140    0.7594 H   0  0  0  0  0  0  0  0  0  0  0  0
   -1.0490    4.8906    1.6928 H   0  0  0  0  0  0  0  0  0  0  0  0
    1.2487    4.0062    1.8569 H   0  0  0  0  0  0  0  0  0  0  0  0
    1.7622    1.7530    1.0861 H   0  0  0  0  0  0  0  0  0  0  0  0
    0.9643   -1.9551    1.6342 H   0  0  0  0  0  0  0  0  0  0  0  0
    3.2504   -2.8524    1.7723 H   0  0  0  0  0  0  0  0  0  0  0  0
  1  2  2  0  0  0  0
  2  3  1  0  0  0  0
  3  4  2  0  0  0  0
  4  5  1  0  0  0  0
  5  6  1  0  0  0  0
  6  7  2  0  0  0  0
  7  8  1  0  0  0  0
  8  9  2  0  0  0  0
  9 10  1  0  0  0  0
 10 11  2  0  0  0  0
 11 12  1  0  0  0  0
 12 13  2  0  0  0  0
 13 14  1  0  0  0  0
 14 15  2  0  0  0  0
 15 16  1  0  0  0  0
 16 17  2  0  0  0  0
 17 18  1  0  0  0  0
  4 19  1  0  0  0  0
 19 20  2  0  0  0  0
 20  1  1  0  0  0  0
 18  5  2  0  0  0  0
 11  6  1  0  0  0  0
 18 13  1  0  0  0  0
  1 21  1  0  0  0  0
  2 22  1  0  0  0  0
  3 23  1  0  0  0  0
  7 24  1  0  0  0  0
  8 25  1  0  0  0  0
  9 26  1  0  0  0  0
 10 27  1  0  0  0  0
 12 28  1  0  0  0  0
 14 29  1  0  0  0  0
 15 30  1  0  0  0  0
 16 31  1  0  0  0  0
 17 32  1  0  0  0  0
 19 33  1  0  0  0  0
 20 34  1  0  0  0  0
M  END
