
  xtb     03012221283D
 energy: -14.279118347030 gnorm: 0.000275432696 xtb: 6.4.1 (afa7bdf)
 72 78  0     0  0            999 V2000
   -3.4935   -2.9912    0.1626 C   0  0  0  0  0  0  0  0  0  0  0  0
   -4.1109   -2.3119    1.3733 C   0  0  0  0  0  0  0  0  0  0  0  0
   -3.6491   -0.8641    1.5812 C   0  0  0  0  0  0  0  0  0  0  0  0
   -4.2526    0.1390    0.6007 C   0  0  0  0  0  0  0  0  0  0  0  0
   -3.7627   -0.0100   -0.7801 N   0  0  0  0  0  0  0  0  0  0  0  0
   -4.5793   -0.4849   -1.8203 C   0  0  0  0  0  0  0  0  0  0  0  0
   -5.9712   -0.5697   -1.9405 C   0  0  0  0  0  0  0  0  0  0  0  0
   -6.5050   -1.1542   -3.0607 C   0  0  0  0  0  0  0  0  0  0  0  0
   -5.6829   -1.6691   -4.0703 C   0  0  0  0  0  0  0  0  0  0  0  0
   -4.3165   -1.6031   -3.9693 C   0  0  0  0  0  0  0  0  0  0  0  0
   -3.7559   -1.0019   -2.8372 C   0  0  0  0  0  0  0  0  0  0  0  0
   -2.3955   -0.8364   -2.4082 C   0  0  0  0  0  0  0  0  0  0  0  0
   -1.1959   -1.3251   -2.9763 C   0  0  0  0  0  0  0  0  0  0  0  0
   -0.0154   -1.1334   -2.3209 C   0  0  0  0  0  0  0  0  0  0  0  0
   -0.0029   -0.4095   -1.1060 C   0  0  0  0  0  0  0  0  0  0  0  0
    1.1048    0.0435   -0.3127 C   0  0  0  0  0  0  0  0  0  0  0  0
    2.4806   -0.1518   -0.4353 C   0  0  0  0  0  0  0  0  0  0  0  0
    3.3441    0.5017    0.4305 C   0  0  0  0  0  0  0  0  0  0  0  0
    4.8058    0.3121    0.3170 C   0  0  0  0  0  0  0  0  0  0  0  0
    5.6927    1.3948    0.5266 C   0  0  0  0  0  0  0  0  0  0  0  0
    7.0396    1.2358    0.4230 C   0  0  0  0  0  0  0  0  0  0  0  0
    7.5963   -0.0236    0.1004 C   0  0  0  0  0  0  0  0  0  0  0  0
    8.9894   -0.2251   -0.0145 C   0  0  0  0  0  0  0  0  0  0  0  0
    9.4895   -1.4548   -0.3279 C   0  0  0  0  0  0  0  0  0  0  0  0
    8.6285   -2.5389   -0.5410 C   0  0  0  0  0  0  0  0  0  0  0  0
    7.2791   -2.3790   -0.4383 C   0  0  0  0  0  0  0  0  0  0  0  0
    6.7252   -1.1184   -0.1154 C   0  0  0  0  0  0  0  0  0  0  0  0
    5.3343   -0.9194   -0.0005 C   0  0  0  0  0  0  0  0  0  0  0  0
    2.8060    1.3643    1.4146 C   0  0  0  0  0  0  0  0  0  0  0  0
    1.4587    1.5704    1.5399 C   0  0  0  0  0  0  0  0  0  0  0  0
    0.5849    0.8972    0.6775 C   0  0  0  0  0  0  0  0  0  0  0  0
   -0.8090    0.9639    0.5339 N   0  0  0  0  0  0  0  0  0  0  0  0
   -1.5688    2.1462    0.9769 C   0  0  0  0  0  0  0  0  0  0  0  0
   -1.9104    2.1219    2.4603 C   0  0  0  0  0  0  0  0  0  0  0  0
   -2.7245    3.3352    2.9179 C   0  0  0  0  0  0  0  0  0  0  0  0
   -1.9501    4.6414    2.8346 C   0  0  0  0  0  0  0  0  0  0  0  0
   -1.1744    0.1233   -0.5370 C   0  0  0  0  0  0  0  0  0  0  0  0
   -2.4201   -0.1593   -1.1740 C   0  0  0  0  0  0  0  0  0  0  0  0
   -3.7812   -4.0425    0.0897 H   0  0  0  0  0  0  0  0  0  0  0  0
   -3.8030   -2.5104   -0.7637 H   0  0  0  0  0  0  0  0  0  0  0  0
   -2.4034   -2.9493    0.1985 H   0  0  0  0  0  0  0  0  0  0  0  0
   -5.2063   -2.3347    1.3009 H   0  0  0  0  0  0  0  0  0  0  0  0
   -3.8747   -2.9013    2.2712 H   0  0  0  0  0  0  0  0  0  0  0  0
   -2.5561   -0.8229    1.5148 H   0  0  0  0  0  0  0  0  0  0  0  0
   -3.8935   -0.5545    2.6067 H   0  0  0  0  0  0  0  0  0  0  0  0
   -4.0705    1.1681    0.9172 H   0  0  0  0  0  0  0  0  0  0  0  0
   -5.3401    0.0311    0.5939 H   0  0  0  0  0  0  0  0  0  0  0  0
   -6.6044   -0.1724   -1.1679 H   0  0  0  0  0  0  0  0  0  0  0  0
   -7.5754   -1.2211   -3.1664 H   0  0  0  0  0  0  0  0  0  0  0  0
   -6.1316   -2.1270   -4.9368 H   0  0  0  0  0  0  0  0  0  0  0  0
   -3.6773   -2.0058   -4.7348 H   0  0  0  0  0  0  0  0  0  0  0  0
   -1.2328   -1.8641   -3.9063 H   0  0  0  0  0  0  0  0  0  0  0  0
    0.9111   -1.4959   -2.7296 H   0  0  0  0  0  0  0  0  0  0  0  0
    2.8635   -0.7836   -1.2147 H   0  0  0  0  0  0  0  0  0  0  0  0
    5.2824    2.3633    0.7553 H   0  0  0  0  0  0  0  0  0  0  0  0
    7.7000    2.0707    0.5826 H   0  0  0  0  0  0  0  0  0  0  0  0
    9.6518    0.6074    0.1491 H   0  0  0  0  0  0  0  0  0  0  0  0
   10.5547   -1.5968   -0.4128 H   0  0  0  0  0  0  0  0  0  0  0  0
    9.0392   -3.5043   -0.7878 H   0  0  0  0  0  0  0  0  0  0  0  0
    6.6171   -3.2123   -0.6022 H   0  0  0  0  0  0  0  0  0  0  0  0
    4.6756   -1.7556   -0.1503 H   0  0  0  0  0  0  0  0  0  0  0  0
    3.4832    1.8623    2.0864 H   0  0  0  0  0  0  0  0  0  0  0  0
    1.0688    2.2426    2.2823 H   0  0  0  0  0  0  0  0  0  0  0  0
   -0.9679    3.0284    0.7390 H   0  0  0  0  0  0  0  0  0  0  0  0
   -2.4660    2.2353    0.3608 H   0  0  0  0  0  0  0  0  0  0  0  0
   -0.9881    2.0573    3.0480 H   0  0  0  0  0  0  0  0  0  0  0  0
   -2.4483    1.1963    2.6903 H   0  0  0  0  0  0  0  0  0  0  0  0
   -3.0719    3.1792    3.9492 H   0  0  0  0  0  0  0  0  0  0  0  0
   -3.6406    3.4035    2.3162 H   0  0  0  0  0  0  0  0  0  0  0  0
   -1.0320    4.5933    3.4230 H   0  0  0  0  0  0  0  0  0  0  0  0
   -2.5330    5.4874    3.2058 H   0  0  0  0  0  0  0  0  0  0  0  0
   -1.6627    4.8731    1.8079 H   0  0  0  0  0  0  0  0  0  0  0  0
  1  2  1  0  0  0  0
  2  3  1  0  0  0  0
  3  4  1  0  0  0  0
  4  5  1  0  0  0  0
  5  6  1  0  0  0  0
  6  7  2  0  0  0  0
  7  8  1  0  0  0  0
  8  9  2  0  0  0  0
  9 10  1  0  0  0  0
 10 11  2  0  0  0  0
 11 12  1  0  0  0  0
 12 13  2  0  0  0  0
 13 14  1  0  0  0  0
 14 15  2  0  0  0  0
 15 16  1  0  0  0  0
 16 17  2  0  0  0  0
 17 18  1  0  0  0  0
 18 19  1  0  0  0  0
 19 20  2  0  0  0  0
 20 21  1  0  0  0  0
 21 22  2  0  0  0  0
 22 23  1  0  0  0  0
 23 24  2  0  0  0  0
 24 25  1  0  0  0  0
 25 26  2  0  0  0  0
 26 27  1  0  0  0  0
 27 28  2  0  0  0  0
 18 29  2  0  0  0  0
 29 30  1  0  0  0  0
 30 31  2  0  0  0  0
 31 32  1  0  0  0  0
 32 33  1  0  0  0  0
 33 34  1  0  0  0  0
 34 35  1  0  0  0  0
 35 36  1  0  0  0  0
 32 37  1  0  0  0  0
 37 38  2  0  0  0  0
 38  5  1  0  0  0  0
 11  6  1  0  0  0  0
 38 12  1  0  0  0  0
 37 15  1  0  0  0  0
 31 16  1  0  0  0  0
 28 19  1  0  0  0  0
 27 22  1  0  0  0  0
  1 39  1  0  0  0  0
  1 40  1  0  0  0  0
  1 41  1  0  0  0  0
  2 42  1  0  0  0  0
  2 43  1  0  0  0  0
  3 44  1  0  0  0  0
  3 45  1  0  0  0  0
  4 46  1  0  0  0  0
  4 47  1  0  0  0  0
  7 48  1  0  0  0  0
  8 49  1  0  0  0  0
  9 50  1  0  0  0  0
 10 51  1  0  0  0  0
 13 52  1  0  0  0  0
 14 53  1  0  0  0  0
 17 54  1  0  0  0  0
 20 55  1  0  0  0  0
 21 56  1  0  0  0  0
 23 57  1  0  0  0  0
 24 58  1  0  0  0  0
 25 59  1  0  0  0  0
 26 60  1  0  0  0  0
 28 61  1  0  0  0  0
 29 62  1  0  0  0  0
 30 63  1  0  0  0  0
 33 64  1  0  0  0  0
 33 65  1  0  0  0  0
 34 66  1  0  0  0  0
 34 67  1  0  0  0  0
 35 68  1  0  0  0  0
 35 69  1  0  0  0  0
 36 70  1  0  0  0  0
 36 71  1  0  0  0  0
 36 72  1  0  0  0  0
M  END
