
  xtb     03012221273D
 energy: -6.612630332097 gnorm: 0.000489619504 xtb: 6.4.1 (afa7bdf)
 34 36  0     0  0            999 V2000
    5.4225    0.5175    0.1449 C   0  0  0  0  0  0  0  0  0  0  0  0
    4.6229   -0.5693   -0.2493 O   0  0  0  0  0  0  0  0  0  0  0  0
    3.2486   -0.3330   -0.2030 C   0  0  0  0  0  0  0  0  0  0  0  0
    2.4119   -1.3958   -0.5598 C   0  0  0  0  0  0  0  0  0  0  0  0
    1.0199   -1.3003   -0.5544 C   0  0  0  0  0  0  0  0  0  0  0  0
    0.1329   -2.3163   -0.8963 O   0  0  0  0  0  0  0  0  0  0  0  0
    0.7461   -3.5196   -1.2863 C   0  0  0  0  0  0  0  0  0  0  0  0
    0.4816   -0.0592   -0.1661 C   0  0  0  0  0  0  0  0  0  0  0  0
    1.3070    1.0104    0.1897 C   0  0  0  0  0  0  0  0  0  0  0  0
    2.6759    0.8910    0.1765 C   0  0  0  0  0  0  0  0  0  0  0  0
    0.4565    2.1633    0.5428 C   0  0  0  0  0  0  0  0  0  0  0  0
    0.8268    3.2622    0.8972 O   0  0  0  0  0  0  0  0  0  0  0  0
   -0.9246    1.6991    0.3750 C   0  0  0  0  0  0  0  0  0  0  0  0
   -2.1305    2.3510    0.5698 C   0  0  0  0  0  0  0  0  0  0  0  0
   -3.3013    1.6658    0.3403 C   0  0  0  0  0  0  0  0  0  0  0  0
   -3.3016    0.3223   -0.0857 C   0  0  0  0  0  0  0  0  0  0  0  0
   -4.4513   -0.4265   -0.3321 O   0  0  0  0  0  0  0  0  0  0  0  0
   -5.6623    0.2544   -0.1159 C   0  0  0  0  0  0  0  0  0  0  0  0
   -2.0757   -0.3212   -0.2795 C   0  0  0  0  0  0  0  0  0  0  0  0
   -0.9006    0.3643   -0.0505 C   0  0  0  0  0  0  0  0  0  0  0  0
    5.2572    1.3602   -0.5268 H   0  0  0  0  0  0  0  0  0  0  0  0
    6.4678    0.2140    0.0849 H   0  0  0  0  0  0  0  0  0  0  0  0
    5.1901    0.7929    1.1741 H   0  0  0  0  0  0  0  0  0  0  0  0
    2.8846   -2.3148   -0.8446 H   0  0  0  0  0  0  0  0  0  0  0  0
   -0.0355   -4.2381   -1.5366 H   0  0  0  0  0  0  0  0  0  0  0  0
    1.3424   -3.9147   -0.4628 H   0  0  0  0  0  0  0  0  0  0  0  0
    1.3682   -3.3487   -2.1660 H   0  0  0  0  0  0  0  0  0  0  0  0
    3.2764    1.7347    0.4553 H   0  0  0  0  0  0  0  0  0  0  0  0
   -2.1294    3.3760    0.8962 H   0  0  0  0  0  0  0  0  0  0  0  0
   -4.2372    2.1707    0.4912 H   0  0  0  0  0  0  0  0  0  0  0  0
   -5.7286    1.1130   -0.7845 H   0  0  0  0  0  0  0  0  0  0  0  0
   -5.7288    0.5688    0.9259 H   0  0  0  0  0  0  0  0  0  0  0  0
   -6.4829   -0.4296   -0.3334 H   0  0  0  0  0  0  0  0  0  0  0  0
   -2.0493   -1.3442   -0.6032 H   0  0  0  0  0  0  0  0  0  0  0  0
  1  2  1  0  0  0  0
  2  3  1  0  0  0  0
  3  4  2  0  0  0  0
  4  5  1  0  0  0  0
  5  6  1  0  0  0  0
  6  7  1  0  0  0  0
  5  8  2  0  0  0  0
  8  9  1  0  0  0  0
  9 10  2  0  0  0  0
  9 11  1  0  0  0  0
 11 12  2  0  0  0  0
 11 13  1  0  0  0  0
 13 14  2  0  0  0  0
 14 15  1  0  0  0  0
 15 16  2  0  0  0  0
 16 17  1  0  0  0  0
 17 18  1  0  0  0  0
 16 19  1  0  0  0  0
 19 20  2  0  0  0  0
 10  3  1  0  0  0  0
 20 13  1  0  0  0  0
 20  8  1  0  0  0  0
  1 21  1  0  0  0  0
  1 22  1  0  0  0  0
  1 23  1  0  0  0  0
  4 24  1  0  0  0  0
  7 25  1  0  0  0  0
  7 26  1  0  0  0  0
  7 27  1  0  0  0  0
 10 28  1  0  0  0  0
 14 29  1  0  0  0  0
 15 30  1  0  0  0  0
 18 31  1  0  0  0  0
 18 32  1  0  0  0  0
 18 33  1  0  0  0  0
 19 34  1  0  0  0  0
M  END
