
  xtb     03012221263D
 energy: -16.205986544026 gnorm: 0.000191085039 xtb: 6.4.1 (afa7bdf)
 85 89  0     0  0            999 V2000
   -2.8235    0.0641   -3.0976 C   0  0  0  0  0  0  0  0  0  0  0  0
   -2.7970    1.4854   -2.5744 C   0  0  0  0  0  0  0  0  0  0  0  0
   -3.8324    1.7183   -1.6509 O   0  0  0  0  0  0  0  0  0  0  0  0
   -3.6359    2.8990   -0.9861 C   0  0  0  0  0  0  0  0  0  0  0  0
   -2.7495    3.6907   -1.2482 O   0  0  0  0  0  0  0  0  0  0  0  0
   -4.5675    3.1763    0.1379 C   0  0  0  0  0  0  0  0  0  0  0  0
   -5.0009    4.4729    0.3535 C   0  0  0  0  0  0  0  0  0  0  0  0
   -5.8649    4.7677    1.3818 C   0  0  0  0  0  0  0  0  0  0  0  0
   -6.3057    3.7611    2.2178 C   0  0  0  0  0  0  0  0  0  0  0  0
   -5.8789    2.4683    2.0321 C   0  0  0  0  0  0  0  0  0  0  0  0
   -4.9997    2.1447    0.9974 C   0  0  0  0  0  0  0  0  0  0  0  0
   -4.5190    0.7504    0.8246 C   0  0  0  0  0  0  0  0  0  0  0  0
   -5.3936   -0.2743    0.4517 C   0  0  0  0  0  0  0  0  0  0  0  0
   -6.7903   -0.0512    0.2819 C   0  0  0  0  0  0  0  0  0  0  0  0
   -7.6233   -1.0432   -0.0875 C   0  0  0  0  0  0  0  0  0  0  0  0
   -7.1311   -2.3744   -0.3321 C   0  0  0  0  0  0  0  0  0  0  0  0
   -7.8957   -3.2883   -0.6631 O   0  0  0  0  0  0  0  0  0  0  0  0
   -5.7372   -2.5902   -0.1853 C   0  0  0  0  0  0  0  0  0  0  0  0
   -4.8710   -1.5818    0.1834 C   0  0  0  0  0  0  0  0  0  0  0  0
   -3.5261   -1.8670    0.2582 O   0  0  0  0  0  0  0  0  0  0  0  0
   -2.6747   -0.8489    0.6125 C   0  0  0  0  0  0  0  0  0  0  0  0
   -1.3055   -1.1091    0.6340 C   0  0  0  0  0  0  0  0  0  0  0  0
   -0.3818   -0.1353    0.9555 C   0  0  0  0  0  0  0  0  0  0  0  0
    0.9953   -0.3035    0.9182 O   0  0  0  0  0  0  0  0  0  0  0  0
    1.5091   -1.5051    0.5000 C   0  0  0  0  0  0  0  0  0  0  0  0
    0.9033   -2.5191    0.2523 O   0  0  0  0  0  0  0  0  0  0  0  0
    3.0037   -1.4738    0.2779 C   0  0  0  0  0  0  0  0  0  0  0  0
    3.2992   -0.8181   -1.0627 C   0  0  0  0  0  0  0  0  0  0  0  0
    4.9262   -0.1035   -1.1645 S   0  0  0  0  0  0  0  0  0  0  0  0
    4.5530    1.1801   -2.3413 C   0  0  0  0  0  0  0  0  0  0  0  0
    3.3965    2.0274   -1.9235 C   0  0  0  0  0  0  0  0  0  0  0  0
    3.3986    2.6611   -0.6918 C   0  0  0  0  0  0  0  0  0  0  0  0
    2.3094    3.3964   -0.2727 C   0  0  0  0  0  0  0  0  0  0  0  0
    1.1900    3.5265   -1.0800 C   0  0  0  0  0  0  0  0  0  0  0  0
    0.0037    4.3035   -0.6288 C   0  0  0  0  0  0  0  0  0  0  0  0
    1.1848    2.8881   -2.3100 C   0  0  0  0  0  0  0  0  0  0  0  0
    2.2732    2.1509   -2.7277 C   0  0  0  0  0  0  0  0  0  0  0  0
    3.5385   -2.8168    0.3559 N   0  0  0  0  0  0  0  0  0  0  0  0
    4.8598   -3.0677    0.6698 C   0  0  0  0  0  0  0  0  0  0  0  0
    5.6287   -2.1424    0.8635 O   0  0  0  0  0  0  0  0  0  0  0  0
    5.2022   -4.3905    0.7380 O   0  0  0  0  0  0  0  0  0  0  0  0
    6.5933   -4.6312    1.0757 C   0  0  0  0  0  0  0  0  0  0  0  0
    6.7958   -6.1526    1.1089 C   0  0  0  0  0  0  0  0  0  0  0  0
    7.5040   -4.0169    0.0050 C   0  0  0  0  0  0  0  0  0  0  0  0
    6.9020   -4.0440    2.4589 C   0  0  0  0  0  0  0  0  0  0  0  0
   -0.8571    1.1390    1.3187 C   0  0  0  0  0  0  0  0  0  0  0  0
   -2.1862    1.4180    1.3076 C   0  0  0  0  0  0  0  0  0  0  0  0
   -3.1332    0.4492    0.9323 C   0  0  0  0  0  0  0  0  0  0  0  0
   -2.7368   -0.6459   -2.2745 H   0  0  0  0  0  0  0  0  0  0  0  0
   -3.7701   -0.1419   -3.5966 H   0  0  0  0  0  0  0  0  0  0  0  0
   -2.0152   -0.1320   -3.8035 H   0  0  0  0  0  0  0  0  0  0  0  0
   -1.8496    1.7022   -2.0618 H   0  0  0  0  0  0  0  0  0  0  0  0
   -2.9054    2.2254   -3.3787 H   0  0  0  0  0  0  0  0  0  0  0  0
   -4.6448    5.2492   -0.3045 H   0  0  0  0  0  0  0  0  0  0  0  0
   -6.1966    5.7806    1.5342 H   0  0  0  0  0  0  0  0  0  0  0  0
   -6.9841    3.9917    3.0244 H   0  0  0  0  0  0  0  0  0  0  0  0
   -6.2075    1.6883    2.6961 H   0  0  0  0  0  0  0  0  0  0  0  0
   -7.1772    0.9381    0.4447 H   0  0  0  0  0  0  0  0  0  0  0  0
   -8.6770   -0.8691   -0.2144 H   0  0  0  0  0  0  0  0  0  0  0  0
   -5.3458   -3.5701   -0.3798 H   0  0  0  0  0  0  0  0  0  0  0  0
   -0.9702   -2.0931    0.3701 H   0  0  0  0  0  0  0  0  0  0  0  0
    3.4661   -0.8858    1.0844 H   0  0  0  0  0  0  0  0  0  0  0  0
    2.5636   -0.0295   -1.2300 H   0  0  0  0  0  0  0  0  0  0  0  0
    3.1708   -1.5440   -1.8671 H   0  0  0  0  0  0  0  0  0  0  0  0
    5.4430    1.7988   -2.4664 H   0  0  0  0  0  0  0  0  0  0  0  0
    4.3549    0.7107   -3.3062 H   0  0  0  0  0  0  0  0  0  0  0  0
    4.2578    2.5520   -0.0517 H   0  0  0  0  0  0  0  0  0  0  0  0
    2.3195    3.8718    0.6929 H   0  0  0  0  0  0  0  0  0  0  0  0
    0.2597    4.9954    0.1739 H   0  0  0  0  0  0  0  0  0  0  0  0
   -0.7806    3.6388   -0.2666 H   0  0  0  0  0  0  0  0  0  0  0  0
   -0.4208    4.8842   -1.4484 H   0  0  0  0  0  0  0  0  0  0  0  0
    0.3146    2.9717   -2.9378 H   0  0  0  0  0  0  0  0  0  0  0  0
    2.2527    1.6528   -3.6823 H   0  0  0  0  0  0  0  0  0  0  0  0
    2.8471   -3.5657    0.2718 H   0  0  0  0  0  0  0  0  0  0  0  0
    6.1340   -6.6040    1.8454 H   0  0  0  0  0  0  0  0  0  0  0  0
    6.5575   -6.5852    0.1393 H   0  0  0  0  0  0  0  0  0  0  0  0
    7.8233   -6.4100    1.3611 H   0  0  0  0  0  0  0  0  0  0  0  0
    8.5531   -4.2142    0.2186 H   0  0  0  0  0  0  0  0  0  0  0  0
    7.2654   -4.4267   -0.9744 H   0  0  0  0  0  0  0  0  0  0  0  0
    7.3577   -2.9392   -0.0398 H   0  0  0  0  0  0  0  0  0  0  0  0
    6.2353   -4.4688    3.2066 H   0  0  0  0  0  0  0  0  0  0  0  0
    6.7511   -2.9661    2.4518 H   0  0  0  0  0  0  0  0  0  0  0  0
    7.9302   -4.2469    2.7537 H   0  0  0  0  0  0  0  0  0  0  0  0
   -0.1363    1.8906    1.5843 H   0  0  0  0  0  0  0  0  0  0  0  0
   -2.5282    2.4058    1.5691 H   0  0  0  0  0  0  0  0  0  0  0  0
  1  2  1  0  0  0  0
  2  3  1  0  0  0  0
  3  4  1  0  0  0  0
  4  5  2  0  0  0  0
  4  6  1  0  0  0  0
  6  7  2  0  0  0  0
  7  8  1  0  0  0  0
  8  9  2  0  0  0  0
  9 10  1  0  0  0  0
 10 11  2  0  0  0  0
 11 12  1  0  0  0  0
 12 13  2  0  0  0  0
 13 14  1  0  0  0  0
 14 15  2  0  0  0  0
 15 16  1  0  0  0  0
 16 17  2  0  0  0  0
 16 18  1  0  0  0  0
 18 19  2  0  0  0  0
 19 20  1  0  0  0  0
 20 21  1  0  0  0  0
 21 22  2  0  0  0  0
 22 23  1  0  0  0  0
 23 24  1  0  0  0  0
 24 25  1  0  0  0  0
 25 26  2  0  0  0  0
 25 27  1  0  0  0  0
 27 28  1  0  0  0  0
 28 29  1  0  0  0  0
 29 30  1  0  0  0  0
 30 31  1  0  0  0  0
 31 32  2  0  0  0  0
 32 33  1  0  0  0  0
 33 34  2  0  0  0  0
 34 35  1  0  0  0  0
 34 36  1  0  0  0  0
 36 37  2  0  0  0  0
 27 38  1  0  0  0  0
 38 39  1  0  0  0  0
 39 40  2  0  0  0  0
 39 41  1  0  0  0  0
 41 42  1  0  0  0  0
 42 43  1  0  0  0  0
 42 44  1  0  0  0  0
 42 45  1  0  0  0  0
 23 46  2  0  0  0  0
 46 47  1  0  0  0  0
 47 48  2  0  0  0  0
 11  6  1  0  0  0  0
 48 12  1  0  0  0  0
 19 13  1  0  0  0  0
 48 21  1  0  0  0  0
 37 31  1  0  0  0  0
  1 49  1  0  0  0  0
  1 50  1  0  0  0  0
  1 51  1  0  0  0  0
  2 52  1  0  0  0  0
  2 53  1  0  0  0  0
  7 54  1  0  0  0  0
  8 55  1  0  0  0  0
  9 56  1  0  0  0  0
 10 57  1  0  0  0  0
 14 58  1  0  0  0  0
 15 59  1  0  0  0  0
 18 60  1  0  0  0  0
 22 61  1  0  0  0  0
 27 62  1  0  0  0  0
 28 63  1  0  0  0  0
 28 64  1  0  0  0  0
 30 65  1  0  0  0  0
 30 66  1  0  0  0  0
 32 67  1  0  0  0  0
 33 68  1  0  0  0  0
 35 69  1  0  0  0  0
 35 70  1  0  0  0  0
 35 71  1  0  0  0  0
 36 72  1  0  0  0  0
 37 73  1  0  0  0  0
 38 74  1  0  0  0  0
 43 75  1  0  0  0  0
 43 76  1  0  0  0  0
 43 77  1  0  0  0  0
 44 78  1  0  0  0  0
 44 79  1  0  0  0  0
 44 80  1  0  0  0  0
 45 81  1  0  0  0  0
 45 82  1  0  0  0  0
 45 83  1  0  0  0  0
 46 84  1  0  0  0  0
 47 85  1  0  0  0  0
M  END
