
  xtb     03012221253D
 energy: -13.013353110662 gnorm: 0.000078800973 xtb: 6.4.1 (afa7bdf)
 62 68  0     0  0            999 V2000
   -4.2871   -0.4561   -2.1065 O   0  0  0  0  0  0  0  0  0  0  0  0
   -4.0805    0.4127   -0.8420 P   0  0  0  0  0  5  0  0  0  0  0  0
   -4.0914   -0.5907    0.6436 C   0  0  0  0  0  0  0  0  0  0  0  0
   -4.4317   -1.9165    0.5319 C   0  0  0  0  0  0  0  0  0  0  0  0
   -4.4458   -2.7147    1.6616 C   0  0  0  0  0  0  0  0  0  0  0  0
   -4.1185   -2.1722    2.8885 C   0  0  0  0  0  0  0  0  0  0  0  0
   -3.7779   -0.8376    2.9904 C   0  0  0  0  0  0  0  0  0  0  0  0
   -3.7645   -0.0412    1.8601 C   0  0  0  0  0  0  0  0  0  0  0  0
   -2.5837    1.4019   -0.9363 C   0  0  0  0  0  0  0  0  0  0  0  0
   -1.2708    0.8185   -1.0851 C   0  0  0  0  0  0  0  0  0  0  0  0
   -1.1492   -0.5460   -1.3538 C   0  0  0  0  0  0  0  0  0  0  0  0
    0.0830   -1.1379   -1.4766 C   0  0  0  0  0  0  0  0  0  0  0  0
    1.2484   -0.3821   -1.3406 C   0  0  0  0  0  0  0  0  0  0  0  0
    2.5620   -0.9738   -1.4437 C   0  0  0  0  0  0  0  0  0  0  0  0
    2.9548   -2.2021   -1.8370 C   0  0  0  0  0  0  0  0  0  0  0  0
    4.4203   -2.4549   -1.8371 C   0  0  0  0  0  0  0  0  0  0  0  0
    5.0470   -3.6469   -2.2178 C   0  0  0  0  0  0  0  0  0  0  0  0
    6.4237   -3.7339   -2.1783 C   0  0  0  0  0  0  0  0  0  0  0  0
    7.1919   -2.6564   -1.7685 C   0  0  0  0  0  0  0  0  0  0  0  0
    6.5888   -1.4708   -1.3887 C   0  0  0  0  0  0  0  0  0  0  0  0
    5.2216   -1.3875   -1.4272 C   0  0  0  0  0  0  0  0  0  0  0  0
    4.0635   -0.0825   -1.0214 P   0  0  0  0  0  5  0  0  0  0  0  0
    4.2461    1.1932   -1.8791 O   0  0  0  0  0  0  0  0  0  0  0  0
    4.1069    0.3007    0.7294 C   0  0  0  0  0  0  0  0  0  0  0  0
    3.8245   -0.6672    1.6633 C   0  0  0  0  0  0  0  0  0  0  0  0
    3.8607   -0.3447    3.0075 C   0  0  0  0  0  0  0  0  0  0  0  0
    4.1791    0.9409    3.3989 C   0  0  0  0  0  0  0  0  0  0  0  0
    4.4617    1.9062    2.4528 C   0  0  0  0  0  0  0  0  0  0  0  0
    4.4249    1.5818    1.1085 C   0  0  0  0  0  0  0  0  0  0  0  0
    1.1265    0.9863   -1.0932 C   0  0  0  0  0  0  0  0  0  0  0  0
   -0.1056    1.5772   -0.9646 C   0  0  0  0  0  0  0  0  0  0  0  0
   -2.9790    2.6872   -0.8401 C   0  0  0  0  0  0  0  0  0  0  0  0
   -4.4430    2.9174   -0.7161 C   0  0  0  0  0  0  0  0  0  0  0  0
   -5.0719    4.1635   -0.6156 C   0  0  0  0  0  0  0  0  0  0  0  0
   -6.4470    4.2251   -0.5172 C   0  0  0  0  0  0  0  0  0  0  0  0
   -7.2116    3.0698   -0.5184 C   0  0  0  0  0  0  0  0  0  0  0  0
   -6.6062    1.8299   -0.6168 C   0  0  0  0  0  0  0  0  0  0  0  0
   -5.2406    1.7714   -0.7128 C   0  0  0  0  0  0  0  0  0  0  0  0
   -4.6813   -2.3147   -0.4396 H   0  0  0  0  0  0  0  0  0  0  0  0
   -4.7118   -3.7560    1.5828 H   0  0  0  0  0  0  0  0  0  0  0  0
   -4.1293   -2.7926    3.7697 H   0  0  0  0  0  0  0  0  0  0  0  0
   -3.5228   -0.4167    3.9491 H   0  0  0  0  0  0  0  0  0  0  0  0
   -3.5005    1.0026    1.9194 H   0  0  0  0  0  0  0  0  0  0  0  0
   -2.0473   -1.1247   -1.4838 H   0  0  0  0  0  0  0  0  0  0  0  0
    0.1571   -2.1919   -1.6777 H   0  0  0  0  0  0  0  0  0  0  0  0
    2.2565   -2.9607   -2.1589 H   0  0  0  0  0  0  0  0  0  0  0  0
    4.4486   -4.4808   -2.5400 H   0  0  0  0  0  0  0  0  0  0  0  0
    6.9073   -4.6505   -2.4727 H   0  0  0  0  0  0  0  0  0  0  0  0
    8.2661   -2.7405   -1.7470 H   0  0  0  0  0  0  0  0  0  0  0  0
    7.1688   -0.6211   -1.0713 H   0  0  0  0  0  0  0  0  0  0  0  0
    3.5771   -1.6651    1.3381 H   0  0  0  0  0  0  0  0  0  0  0  0
    3.6407   -1.0962    3.7478 H   0  0  0  0  0  0  0  0  0  0  0  0
    4.2077    1.1918    4.4467 H   0  0  0  0  0  0  0  0  0  0  0  0
    4.7103    2.9090    2.7589 H   0  0  0  0  0  0  0  0  0  0  0  0
    4.6398    2.3167    0.3481 H   0  0  0  0  0  0  0  0  0  0  0  0
    2.0239    1.5767   -1.0256 H   0  0  0  0  0  0  0  0  0  0  0  0
   -0.1796    2.6322   -0.7683 H   0  0  0  0  0  0  0  0  0  0  0  0
   -2.2840    3.5135   -0.8731 H   0  0  0  0  0  0  0  0  0  0  0  0
   -4.4764    5.0595   -0.6192 H   0  0  0  0  0  0  0  0  0  0  0  0
   -6.9323    5.1840   -0.4412 H   0  0  0  0  0  0  0  0  0  0  0  0
   -8.2846    3.1364   -0.4441 H   0  0  0  0  0  0  0  0  0  0  0  0
   -7.1834    0.9211   -0.6234 H   0  0  0  0  0  0  0  0  0  0  0  0
  1  2  2  0  0  0  0
  2  3  1  0  0  0  0
  3  4  2  0  0  0  0
  4  5  1  0  0  0  0
  5  6  2  0  0  0  0
  6  7  1  0  0  0  0
  7  8  2  0  0  0  0
  2  9  1  0  0  0  0
  9 10  1  0  0  0  0
 10 11  2  0  0  0  0
 11 12  1  0  0  0  0
 12 13  2  0  0  0  0
 13 14  1  0  0  0  0
 14 15  2  0  0  0  0
 15 16  1  0  0  0  0
 16 17  2  0  0  0  0
 17 18  1  0  0  0  0
 18 19  2  0  0  0  0
 19 20  1  0  0  0  0
 20 21  2  0  0  0  0
 21 22  1  0  0  0  0
 22 23  2  0  0  0  0
 22 24  1  0  0  0  0
 24 25  2  0  0  0  0
 25 26  1  0  0  0  0
 26 27  2  0  0  0  0
 27 28  1  0  0  0  0
 28 29  2  0  0  0  0
 13 30  1  0  0  0  0
 30 31  2  0  0  0  0
  9 32  2  0  0  0  0
 32 33  1  0  0  0  0
 33 34  2  0  0  0  0
 34 35  1  0  0  0  0
 35 36  2  0  0  0  0
 36 37  1  0  0  0  0
 37 38  2  0  0  0  0
 38  2  1  0  0  0  0
  8  3  1  0  0  0  0
 31 10  1  0  0  0  0
 38 33  1  0  0  0  0
 22 14  1  0  0  0  0
 29 24  1  0  0  0  0
 21 16  1  0  0  0  0
  4 39  1  0  0  0  0
  5 40  1  0  0  0  0
  6 41  1  0  0  0  0
  7 42  1  0  0  0  0
  8 43  1  0  0  0  0
 11 44  1  0  0  0  0
 12 45  1  0  0  0  0
 15 46  1  0  0  0  0
 17 47  1  0  0  0  0
 18 48  1  0  0  0  0
 19 49  1  0  0  0  0
 20 50  1  0  0  0  0
 25 51  1  0  0  0  0
 26 52  1  0  0  0  0
 27 53  1  0  0  0  0
 28 54  1  0  0  0  0
 29 55  1  0  0  0  0
 30 56  1  0  0  0  0
 31 57  1  0  0  0  0
 32 58  1  0  0  0  0
 34 59  1  0  0  0  0
 35 60  1  0  0  0  0
 36 61  1  0  0  0  0
 37 62  1  0  0  0  0
M  END
