
  xtb     03012221313D
 energy: -6.148053163577 gnorm: 0.000352785653 xtb: 6.4.1 (afa7bdf)
 26 28  0     0  0            999 V2000
   -2.4160    3.2994    1.7459 N   0  0  0  0  0  0  0  0  0  0  0  0
   -1.6777    2.4863    1.3647 C   0  0  0  0  0  0  0  0  0  0  0  0
   -0.8510    1.4773    0.8620 C   0  0  0  0  0  0  0  0  0  0  0  0
    0.4645    1.3726    1.2445 C   0  0  0  0  0  0  0  0  0  0  0  0
    1.0320    2.2710    2.1530 C   0  0  0  0  0  0  0  0  0  0  0  0
    1.5621    2.9827    2.9039 N   0  0  0  0  0  0  0  0  0  0  0  0
    1.2951    0.3236    0.7116 C   0  0  0  0  0  0  0  0  0  0  0  0
    2.6393    0.2166    1.1017 C   0  0  0  0  0  0  0  0  0  0  0  0
    3.4420   -0.7705    0.6070 C   0  0  0  0  0  0  0  0  0  0  0  0
    2.9296   -1.6896   -0.2982 C   0  0  0  0  0  0  0  0  0  0  0  0
    1.6227   -1.6109   -0.6972 C   0  0  0  0  0  0  0  0  0  0  0  0
    0.7699   -0.6089   -0.2084 C   0  0  0  0  0  0  0  0  0  0  0  0
   -0.6192   -0.4990   -0.6117 C   0  0  0  0  0  0  0  0  0  0  0  0
   -1.2156   -1.3871   -1.5206 C   0  0  0  0  0  0  0  0  0  0  0  0
   -2.5293   -1.2587   -1.8825 C   0  0  0  0  0  0  0  0  0  0  0  0
   -3.3052   -0.2373   -1.3522 C   0  0  0  0  0  0  0  0  0  0  0  0
   -2.7559    0.6435   -0.4657 C   0  0  0  0  0  0  0  0  0  0  0  0
   -1.4118    0.5380   -0.0751 C   0  0  0  0  0  0  0  0  0  0  0  0
    3.0321    0.9316    1.8037 H   0  0  0  0  0  0  0  0  0  0  0  0
    4.4717   -0.8373    0.9176 H   0  0  0  0  0  0  0  0  0  0  0  0
    3.5660   -2.4676   -0.6868 H   0  0  0  0  0  0  0  0  0  0  0  0
    1.2490   -2.3337   -1.3987 H   0  0  0  0  0  0  0  0  0  0  0  0
   -0.6352   -2.1858   -1.9443 H   0  0  0  0  0  0  0  0  0  0  0  0
   -2.9660   -1.9525   -2.5820 H   0  0  0  0  0  0  0  0  0  0  0  0
   -4.3390   -0.1408   -1.6405 H   0  0  0  0  0  0  0  0  0  0  0  0
   -3.3537    1.4370   -0.0519 H   0  0  0  0  0  0  0  0  0  0  0  0
  1  2  3  0  0  0  0
  2  3  1  0  0  0  0
  3  4  2  0  0  0  0
  4  5  1  0  0  0  0
  5  6  3  0  0  0  0
  4  7  1  0  0  0  0
  7  8  2  0  0  0  0
  8  9  1  0  0  0  0
  9 10  2  0  0  0  0
 10 11  1  0  0  0  0
 11 12  2  0  0  0  0
 12 13  1  0  0  0  0
 13 14  2  0  0  0  0
 14 15  1  0  0  0  0
 15 16  2  0  0  0  0
 16 17  1  0  0  0  0
 17 18  2  0  0  0  0
 18  3  1  0  0  0  0
 12  7  1  0  0  0  0
 18 13  1  0  0  0  0
  8 19  1  0  0  0  0
  9 20  1  0  0  0  0
 10 21  1  0  0  0  0
 11 22  1  0  0  0  0
 14 23  1  0  0  0  0
 15 24  1  0  0  0  0
 16 25  1  0  0  0  0
 17 26  1  0  0  0  0
M  END
