
  xtb     03012221233D
 energy: -5.792932377665 gnorm: 0.000095444902 xtb: 6.4.1 (afa7bdf)
 28 29  0     0  0            999 V2000
    0.8701   -2.4775    0.2820 O   0  0  0  0  0  0  0  0  0  0  0  0
    1.0600   -1.2815    0.1735 C   0  0  0  0  0  0  0  0  0  0  0  0
   -0.0772   -0.3696    0.1392 C   0  0  0  0  0  0  0  0  0  0  0  0
   -1.3258   -0.8321    0.2256 C   0  0  0  0  0  0  0  0  0  0  0  0
   -2.5394   -0.0263    0.2032 C   0  0  0  0  0  0  0  0  0  0  0  0
   -2.5119    1.3634    0.0844 C   0  0  0  0  0  0  0  0  0  0  0  0
   -3.6800    2.0935    0.0668 C   0  0  0  0  0  0  0  0  0  0  0  0
   -4.8989    1.4553    0.1669 C   0  0  0  0  0  0  0  0  0  0  0  0
   -4.9475    0.0817    0.2851 C   0  0  0  0  0  0  0  0  0  0  0  0
   -3.7820   -0.6519    0.3032 C   0  0  0  0  0  0  0  0  0  0  0  0
    2.4490   -0.7674    0.0775 C   0  0  0  0  0  0  0  0  0  0  0  0
    2.7623    0.5831   -0.0488 C   0  0  0  0  0  0  0  0  0  0  0  0
    4.0754    0.9928   -0.1332 C   0  0  0  0  0  0  0  0  0  0  0  0
    5.0965    0.0663   -0.0932 C   0  0  0  0  0  0  0  0  0  0  0  0
    4.8018   -1.2751    0.0316 C   0  0  0  0  0  0  0  0  0  0  0  0
    3.4894   -1.6851    0.1159 C   0  0  0  0  0  0  0  0  0  0  0  0
    0.0998    0.6827    0.0434 H   0  0  0  0  0  0  0  0  0  0  0  0
   -1.4456   -1.8974    0.3204 H   0  0  0  0  0  0  0  0  0  0  0  0
   -1.5690    1.8737    0.0056 H   0  0  0  0  0  0  0  0  0  0  0  0
   -3.6418    3.1665   -0.0256 H   0  0  0  0  0  0  0  0  0  0  0  0
   -5.8113    2.0288    0.1528 H   0  0  0  0  0  0  0  0  0  0  0  0
   -5.8991   -0.4178    0.3634 H   0  0  0  0  0  0  0  0  0  0  0  0
   -3.8222   -1.7236    0.3955 H   0  0  0  0  0  0  0  0  0  0  0  0
    1.9787    1.3177   -0.0815 H   0  0  0  0  0  0  0  0  0  0  0  0
    4.3056    2.0411   -0.2307 H   0  0  0  0  0  0  0  0  0  0  0  0
    6.1224    0.3899   -0.1594 H   0  0  0  0  0  0  0  0  0  0  0  0
    5.5966   -2.0020    0.0632 H   0  0  0  0  0  0  0  0  0  0  0  0
    3.2442   -2.7291    0.2137 H   0  0  0  0  0  0  0  0  0  0  0  0
  1  2  2  0  0  0  0
  2  3  1  0  0  0  0
  3  4  2  0  0  0  0
  4  5  1  0  0  0  0
  5  6  2  0  0  0  0
  6  7  1  0  0  0  0
  7  8  2  0  0  0  0
  8  9  1  0  0  0  0
  9 10  2  0  0  0  0
  2 11  1  0  0  0  0
 11 12  2  0  0  0  0
 12 13  1  0  0  0  0
 13 14  2  0  0  0  0
 14 15  1  0  0  0  0
 15 16  2  0  0  0  0
 10  5  1  0  0  0  0
 16 11  1  0  0  0  0
  3 17  1  0  0  0  0
  4 18  1  0  0  0  0
  6 19  1  0  0  0  0
  7 20  1  0  0  0  0
  8 21  1  0  0  0  0
  9 22  1  0  0  0  0
 10 23  1  0  0  0  0
 12 24  1  0  0  0  0
 13 25  1  0  0  0  0
 14 26  1  0  0  0  0
 15 27  1  0  0  0  0
 16 28  1  0  0  0  0
M  END
