
  xtb     03012221223D
 energy: -8.733755661497 gnorm: 0.000360453446 xtb: 6.4.1 (afa7bdf)
 40 45  0     0  0            999 V2000
    0.9704    1.8691   -2.5099 O   0  0  0  0  0  0  0  0  0  0  0  0
    1.0011    1.1737   -1.5190 C   0  0  0  0  0  0  0  0  0  0  0  0
    2.2056    0.7393   -0.7974 C   0  0  0  0  0  0  0  0  0  0  0  0
    3.5267    0.9861   -1.0338 C   0  0  0  0  0  0  0  0  0  0  0  0
    4.4929    0.4320   -0.1630 C   0  0  0  0  0  0  0  0  0  0  0  0
    5.8716    0.6523   -0.3574 C   0  0  0  0  0  0  0  0  0  0  0  0
    6.7901    0.1113    0.4905 C   0  0  0  0  0  0  0  0  0  0  0  0
    6.3813   -0.6743    1.5717 C   0  0  0  0  0  0  0  0  0  0  0  0
    5.0590   -0.9113    1.7946 C   0  0  0  0  0  0  0  0  0  0  0  0
    4.0755   -0.3698    0.9403 C   0  0  0  0  0  0  0  0  0  0  0  0
    2.7004   -0.6058    1.1569 C   0  0  0  0  0  0  0  0  0  0  0  0
    1.7863   -0.0564    0.2972 C   0  0  0  0  0  0  0  0  0  0  0  0
    0.3314   -0.1258    0.2698 C   0  0  0  0  0  0  0  0  0  0  0  0
   -0.4218   -0.7836    1.1385 N   0  0  0  0  0  0  0  0  0  0  0  0
   -1.7560   -0.7110    0.9175 C   0  0  0  0  0  0  0  0  0  0  0  0
   -2.6051   -1.3963    1.8156 C   0  0  0  0  0  0  0  0  0  0  0  0
   -3.9508   -1.3757    1.6670 C   0  0  0  0  0  0  0  0  0  0  0  0
   -4.5400   -0.6609    0.5997 C   0  0  0  0  0  0  0  0  0  0  0  0
   -5.9310   -0.6079    0.4016 C   0  0  0  0  0  0  0  0  0  0  0  0
   -6.4573    0.0957   -0.6434 C   0  0  0  0  0  0  0  0  0  0  0  0
   -5.6192    0.7723   -1.5292 C   0  0  0  0  0  0  0  0  0  0  0  0
   -4.2666    0.7367   -1.3593 C   0  0  0  0  0  0  0  0  0  0  0  0
   -3.6922    0.0234   -0.2967 C   0  0  0  0  0  0  0  0  0  0  0  0
   -2.3270   -0.0259   -0.1062 N   0  0  0  0  0  4  0  0  0  0  0  0
   -1.5163    0.7514   -1.1361 B   0  0  0  0  0  4  0  0  0  0  0  0
   -1.8796    2.0881   -1.0646 F   0  0  0  0  0  0  0  0  0  0  0  0
   -1.7643    0.2120   -2.3897 F   0  0  0  0  0  0  0  0  0  0  0  0
   -0.0567    0.6011   -0.7967 N   0  0  0  0  0  0  0  0  0  0  0  0
    3.8172    1.5930   -1.8712 H   0  0  0  0  0  0  0  0  0  0  0  0
    6.1895    1.2569   -1.1891 H   0  0  0  0  0  0  0  0  0  0  0  0
    7.8412    0.2886    0.3291 H   0  0  0  0  0  0  0  0  0  0  0  0
    7.1218   -1.0952    2.2335 H   0  0  0  0  0  0  0  0  0  0  0  0
    4.7484   -1.5167    2.6280 H   0  0  0  0  0  0  0  0  0  0  0  0
    2.3682   -1.2070    1.9825 H   0  0  0  0  0  0  0  0  0  0  0  0
   -2.1505   -1.9386    2.6261 H   0  0  0  0  0  0  0  0  0  0  0  0
   -4.5854   -1.9020    2.3583 H   0  0  0  0  0  0  0  0  0  0  0  0
   -6.5764   -1.1305    1.0861 H   0  0  0  0  0  0  0  0  0  0  0  0
   -7.5251    0.1302   -0.7868 H   0  0  0  0  0  0  0  0  0  0  0  0
   -6.0433    1.3253   -2.3513 H   0  0  0  0  0  0  0  0  0  0  0  0
   -3.6135    1.2563   -2.0386 H   0  0  0  0  0  0  0  0  0  0  0  0
  1  2  2  0  0  0  0
  2  3  1  0  0  0  0
  3  4  2  0  0  0  0
  4  5  1  0  0  0  0
  5  6  2  0  0  0  0
  6  7  1  0  0  0  0
  7  8  2  0  0  0  0
  8  9  1  0  0  0  0
  9 10  2  0  0  0  0
 10 11  1  0  0  0  0
 11 12  2  0  0  0  0
 12 13  1  0  0  0  0
 13 14  2  0  0  0  0
 14 15  1  0  0  0  0
 15 16  2  0  0  0  0
 16 17  1  0  0  0  0
 17 18  2  0  0  0  0
 18 19  1  0  0  0  0
 19 20  2  0  0  0  0
 20 21  1  0  0  0  0
 21 22  2  0  0  0  0
 22 23  1  0  0  0  0
 23 24  2  0  0  0  0
 24 25  1  0  0  0  0
 25 26  1  0  0  0  0
 25 27  1  0  0  0  0
 25 28  1  0  0  0  0
 28  2  1  0  0  0  0
 12  3  1  0  0  0  0
 28 13  1  0  0  0  0
 10  5  1  0  0  0  0
 24 15  1  0  0  0  0
 23 18  1  0  0  0  0
  4 29  1  0  0  0  0
  6 30  1  0  0  0  0
  7 31  1  0  0  0  0
  8 32  1  0  0  0  0
  9 33  1  0  0  0  0
 11 34  1  0  0  0  0
 16 35  1  0  0  0  0
 17 36  1  0  0  0  0
 19 37  1  0  0  0  0
 20 38  1  0  0  0  0
 21 39  1  0  0  0  0
 22 40  1  0  0  0  0
M  CHG  1  24   1
M  CHG  1  25  -1
M  END
