
  xtb     03012221253D
 energy: -19.542504051098 gnorm: 0.000371215546 xtb: 6.4.1 (afa7bdf)
 87 98  0     0  0            999 V2000
   -2.9551    2.0478    0.3132 F   0  0  0  0  0  0  0  0  0  0  0  0
   -2.0432    1.0532    0.2465 C   0  0  0  0  0  0  0  0  0  0  0  0
   -2.4628   -0.2739    0.1639 C   0  0  0  0  0  0  0  0  0  0  0  0
   -3.8541   -0.5916    0.1761 N   0  0  0  0  0  0  0  0  0  0  0  0
   -4.8188   -0.0775    1.0632 C   0  0  0  0  0  0  0  0  0  0  0  0
   -4.7008    0.8124    2.1304 C   0  0  0  0  0  0  0  0  0  0  0  0
   -5.8214    1.1406    2.8492 C   0  0  0  0  0  0  0  0  0  0  0  0
   -7.0659    0.5928    2.5268 C   0  0  0  0  0  0  0  0  0  0  0  0
   -7.2037   -0.2877    1.4817 C   0  0  0  0  0  0  0  0  0  0  0  0
   -6.0707   -0.6279    0.7428 C   0  0  0  0  0  0  0  0  0  0  0  0
   -5.8764   -1.5041   -0.3846 C   0  0  0  0  0  0  0  0  0  0  0  0
   -6.7591   -2.2909   -1.1243 C   0  0  0  0  0  0  0  0  0  0  0  0
   -6.2625   -3.0252   -2.1734 C   0  0  0  0  0  0  0  0  0  0  0  0
   -4.9040   -2.9904   -2.4992 C   0  0  0  0  0  0  0  0  0  0  0  0
   -4.0272   -2.2197   -1.7799 C   0  0  0  0  0  0  0  0  0  0  0  0
   -4.5103   -1.4682   -0.7088 C   0  0  0  0  0  0  0  0  0  0  0  0
   -1.5138   -1.2874    0.0402 C   0  0  0  0  0  0  0  0  0  0  0  0
   -1.9025   -2.5808   -0.0017 F   0  0  0  0  0  0  0  0  0  0  0  0
   -0.1560   -0.9845    0.0009 C   0  0  0  0  0  0  0  0  0  0  0  0
    0.7650   -2.0725   -0.1517 N   0  0  0  0  0  0  0  0  0  0  0  0
    1.0403   -3.0523    0.8172 C   0  0  0  0  0  0  0  0  0  0  0  0
    0.5334   -3.2210    2.1030 C   0  0  0  0  0  0  0  0  0  0  0  0
    0.9981   -4.2667    2.8596 C   0  0  0  0  0  0  0  0  0  0  0  0
    1.9608   -5.1469    2.3581 C   0  0  0  0  0  0  0  0  0  0  0  0
    2.4686   -4.9943    1.0914 C   0  0  0  0  0  0  0  0  0  0  0  0
    2.0041   -3.9374    0.3083 C   0  0  0  0  0  0  0  0  0  0  0  0
    2.3206   -3.5019   -1.0290 C   0  0  0  0  0  0  0  0  0  0  0  0
    3.2098   -3.9799   -1.9917 C   0  0  0  0  0  0  0  0  0  0  0  0
    3.2987   -3.3175   -3.1912 C   0  0  0  0  0  0  0  0  0  0  0  0
    2.5168   -2.1886   -3.4503 C   0  0  0  0  0  0  0  0  0  0  0  0
    1.6358   -1.7084   -2.5150 C   0  0  0  0  0  0  0  0  0  0  0  0
    1.5358   -2.3681   -1.2925 C   0  0  0  0  0  0  0  0  0  0  0  0
    0.2742    0.3474    0.1369 C   0  0  0  0  0  0  0  0  0  0  0  0
    1.6960    0.6519    0.2260 C   0  0  0  0  0  0  0  0  0  0  0  0
    2.2171    1.7941    0.6877 N   0  0  0  0  0  0  0  0  0  0  0  0
    3.5085    1.7156    0.6247 N   0  0  0  0  0  0  0  0  0  0  0  0
    3.8268    0.5206    0.1291 C   0  0  0  0  0  0  0  0  0  0  0  0
    5.1739    0.0246   -0.1050 C   0  0  0  0  0  0  0  0  0  0  0  0
    6.2916    0.7910    0.2034 C   0  0  0  0  0  0  0  0  0  0  0  0
    7.5559    0.2984   -0.0265 C   0  0  0  0  0  0  0  0  0  0  0  0
    7.7197   -0.9630   -0.5669 C   0  0  0  0  0  0  0  0  0  0  0  0
    6.6149   -1.7324   -0.8778 C   0  0  0  0  0  0  0  0  0  0  0  0
    5.3507   -1.2417   -0.6479 C   0  0  0  0  0  0  0  0  0  0  0  0
    2.7002   -0.1857   -0.1353 O   0  0  0  0  0  0  0  0  0  0  0  0
   -0.6870    1.3689    0.2327 C   0  0  0  0  0  0  0  0  0  0  0  0
   -0.3169    2.7516    0.2433 N   0  0  0  0  0  0  0  0  0  0  0  0
   -0.6565    3.6930    1.2303 C   0  0  0  0  0  0  0  0  0  0  0  0
   -1.3449    3.5407    2.4313 C   0  0  0  0  0  0  0  0  0  0  0  0
   -1.5264    4.6409    3.2302 C   0  0  0  0  0  0  0  0  0  0  0  0
   -1.0303    5.8923    2.8556 C   0  0  0  0  0  0  0  0  0  0  0  0
   -0.3468    6.0586    1.6763 C   0  0  0  0  0  0  0  0  0  0  0  0
   -0.1556    4.9493    0.8522 C   0  0  0  0  0  0  0  0  0  0  0  0
    0.5038    4.7819   -0.4189 C   0  0  0  0  0  0  0  0  0  0  0  0
    1.1751    5.6705   -1.2590 C   0  0  0  0  0  0  0  0  0  0  0  0
    1.7092    5.1929   -2.4305 C   0  0  0  0  0  0  0  0  0  0  0  0
    1.5859    3.8462   -2.7820 C   0  0  0  0  0  0  0  0  0  0  0  0
    0.9270    2.9608   -1.9677 C   0  0  0  0  0  0  0  0  0  0  0  0
    0.3826    3.4292   -0.7740 C   0  0  0  0  0  0  0  0  0  0  0  0
   -3.7405    1.2424    2.3551 H   0  0  0  0  0  0  0  0  0  0  0  0
   -5.7430    1.8339    3.6694 H   0  0  0  0  0  0  0  0  0  0  0  0
   -7.9317    0.8681    3.1076 H   0  0  0  0  0  0  0  0  0  0  0  0
   -8.1577   -0.7132    1.2280 H   0  0  0  0  0  0  0  0  0  0  0  0
   -7.8030   -2.3115   -0.8687 H   0  0  0  0  0  0  0  0  0  0  0  0
   -6.9306   -3.6400   -2.7553 H   0  0  0  0  0  0  0  0  0  0  0  0
   -4.5406   -3.5808   -3.3231 H   0  0  0  0  0  0  0  0  0  0  0  0
   -2.9751   -2.2001   -2.0072 H   0  0  0  0  0  0  0  0  0  0  0  0
   -0.2128   -2.5404    2.4724 H   0  0  0  0  0  0  0  0  0  0  0  0
    0.6142   -4.4128    3.8559 H   0  0  0  0  0  0  0  0  0  0  0  0
    2.3085   -5.9593    2.9762 H   0  0  0  0  0  0  0  0  0  0  0  0
    3.2091   -5.6680    0.6980 H   0  0  0  0  0  0  0  0  0  0  0  0
    3.8108   -4.8474   -1.7833 H   0  0  0  0  0  0  0  0  0  0  0  0
    3.9841   -3.6714   -3.9447 H   0  0  0  0  0  0  0  0  0  0  0  0
    2.6112   -1.6852   -4.3984 H   0  0  0  0  0  0  0  0  0  0  0  0
    1.0407   -0.8311   -2.6948 H   0  0  0  0  0  0  0  0  0  0  0  0
    6.1497    1.7718    0.6245 H   0  0  0  0  0  0  0  0  0  0  0  0
    8.4186    0.8970    0.2158 H   0  0  0  0  0  0  0  0  0  0  0  0
    8.7103   -1.3473   -0.7458 H   0  0  0  0  0  0  0  0  0  0  0  0
    6.7419   -2.7158   -1.2997 H   0  0  0  0  0  0  0  0  0  0  0  0
    4.4783   -1.8261   -0.8859 H   0  0  0  0  0  0  0  0  0  0  0  0
   -1.7211    2.5724    2.7071 H   0  0  0  0  0  0  0  0  0  0  0  0
   -2.0602    4.5392    4.1607 H   0  0  0  0  0  0  0  0  0  0  0  0
   -1.1869    6.7399    3.5037 H   0  0  0  0  0  0  0  0  0  0  0  0
    0.0398    7.0181    1.3814 H   0  0  0  0  0  0  0  0  0  0  0  0
    1.2672    6.7055   -0.9811 H   0  0  0  0  0  0  0  0  0  0  0  0
    2.2338    5.8663   -3.0895 H   0  0  0  0  0  0  0  0  0  0  0  0
    2.0192    3.4972   -3.7049 H   0  0  0  0  0  0  0  0  0  0  0  0
    0.8379    1.9195   -2.2203 H   0  0  0  0  0  0  0  0  0  0  0  0
  1  2  1  0  0  0  0
  2  3  2  0  0  0  0
  3  4  1  0  0  0  0
  4  5  1  0  0  0  0
  5  6  2  0  0  0  0
  6  7  1  0  0  0  0
  7  8  2  0  0  0  0
  8  9  1  0  0  0  0
  9 10  2  0  0  0  0
 10 11  1  0  0  0  0
 11 12  2  0  0  0  0
 12 13  1  0  0  0  0
 13 14  2  0  0  0  0
 14 15  1  0  0  0  0
 15 16  2  0  0  0  0
  3 17  1  0  0  0  0
 17 18  1  0  0  0  0
 17 19  2  0  0  0  0
 19 20  1  0  0  0  0
 20 21  1  0  0  0  0
 21 22  2  0  0  0  0
 22 23  1  0  0  0  0
 23 24  2  0  0  0  0
 24 25  1  0  0  0  0
 25 26  2  0  0  0  0
 26 27  1  0  0  0  0
 27 28  2  0  0  0  0
 28 29  1  0  0  0  0
 29 30  2  0  0  0  0
 30 31  1  0  0  0  0
 31 32  2  0  0  0  0
 19 33  1  0  0  0  0
 33 34  1  0  0  0  0
 34 35  2  0  0  0  0
 35 36  1  0  0  0  0
 36 37  2  0  0  0  0
 37 38  1  0  0  0  0
 38 39  2  0  0  0  0
 39 40  1  0  0  0  0
 40 41  2  0  0  0  0
 41 42  1  0  0  0  0
 42 43  2  0  0  0  0
 37 44  1  0  0  0  0
 33 45  2  0  0  0  0
 45 46  1  0  0  0  0
 46 47  1  0  0  0  0
 47 48  2  0  0  0  0
 48 49  1  0  0  0  0
 49 50  2  0  0  0  0
 50 51  1  0  0  0  0
 51 52  2  0  0  0  0
 52 53  1  0  0  0  0
 53 54  2  0  0  0  0
 54 55  1  0  0  0  0
 55 56  2  0  0  0  0
 56 57  1  0  0  0  0
 57 58  2  0  0  0  0
 45  2  1  0  0  0  0
 58 46  1  0  0  0  0
 16  4  1  0  0  0  0
 32 20  1  0  0  0  0
 44 34  1  0  0  0  0
 52 47  1  0  0  0  0
 58 53  1  0  0  0  0
 10  5  1  0  0  0  0
 16 11  1  0  0  0  0
 26 21  1  0  0  0  0
 32 27  1  0  0  0  0
 43 38  1  0  0  0  0
  6 59  1  0  0  0  0
  7 60  1  0  0  0  0
  8 61  1  0  0  0  0
  9 62  1  0  0  0  0
 12 63  1  0  0  0  0
 13 64  1  0  0  0  0
 14 65  1  0  0  0  0
 15 66  1  0  0  0  0
 22 67  1  0  0  0  0
 23 68  1  0  0  0  0
 24 69  1  0  0  0  0
 25 70  1  0  0  0  0
 28 71  1  0  0  0  0
 29 72  1  0  0  0  0
 30 73  1  0  0  0  0
 31 74  1  0  0  0  0
 39 75  1  0  0  0  0
 40 76  1  0  0  0  0
 41 77  1  0  0  0  0
 42 78  1  0  0  0  0
 43 79  1  0  0  0  0
 48 80  1  0  0  0  0
 49 81  1  0  0  0  0
 50 82  1  0  0  0  0
 51 83  1  0  0  0  0
 54 84  1  0  0  0  0
 55 85  1  0  0  0  0
 56 86  1  0  0  0  0
 57 87  1  0  0  0  0
M  END
