
  xtb     03012221273D
 energy: -14.984627111928 gnorm: 0.000383795352 xtb: 6.4.1 (afa7bdf)
 68 76  0     0  0            999 V2000
    5.6149   -4.5248    0.6119 C   0  0  0  0  0  0  0  0  0  0  0  0
    5.0204   -3.1988    0.8744 C   0  0  0  0  0  0  0  0  0  0  0  0
    5.5813   -2.2649    1.6256 N   0  0  0  0  0  0  0  0  0  0  0  0
    4.8016   -1.2278    1.6327 N   0  0  0  0  0  0  0  0  0  0  0  0
    3.7400   -1.4910    0.8715 C   0  0  0  0  0  0  0  0  0  0  0  0
    2.5876   -0.6269    0.6257 C   0  0  0  0  0  0  0  0  0  0  0  0
    1.4228   -1.2553    0.2087 C   0  0  0  0  0  0  0  0  0  0  0  0
    0.2379   -0.5685    0.0229 C   0  0  0  0  0  0  0  0  0  0  0  0
   -0.9429   -1.2734   -0.3881 N   0  0  0  0  0  0  0  0  0  0  0  0
   -1.0813   -2.0054   -1.5831 C   0  0  0  0  0  0  0  0  0  0  0  0
   -0.1496   -2.3145   -2.5728 C   0  0  0  0  0  0  0  0  0  0  0  0
   -0.5710   -3.0018   -3.6829 C   0  0  0  0  0  0  0  0  0  0  0  0
   -1.9075   -3.3854   -3.8291 C   0  0  0  0  0  0  0  0  0  0  0  0
   -2.8391   -3.0844   -2.8652 C   0  0  0  0  0  0  0  0  0  0  0  0
   -2.4252   -2.3875   -1.7295 C   0  0  0  0  0  0  0  0  0  0  0  0
   -3.1374   -1.8946   -0.5778 C   0  0  0  0  0  0  0  0  0  0  0  0
   -4.4809   -1.9524   -0.2054 C   0  0  0  0  0  0  0  0  0  0  0  0
   -4.8647   -1.3567    0.9718 C   0  0  0  0  0  0  0  0  0  0  0  0
   -3.9321   -0.7101    1.7880 C   0  0  0  0  0  0  0  0  0  0  0  0
   -2.6083   -0.6474    1.4348 C   0  0  0  0  0  0  0  0  0  0  0  0
   -2.2042   -1.2320    0.2361 C   0  0  0  0  0  0  0  0  0  0  0  0
    0.2114    0.8191    0.2520 C   0  0  0  0  0  0  0  0  0  0  0  0
   -0.9917    1.5796    0.0681 N   0  0  0  0  0  0  0  0  0  0  0  0
   -1.6406    2.3302    1.0675 C   0  0  0  0  0  0  0  0  0  0  0  0
   -1.2672    2.6089    2.3813 C   0  0  0  0  0  0  0  0  0  0  0  0
   -2.1286    3.3253    3.1730 C   0  0  0  0  0  0  0  0  0  0  0  0
   -3.3607    3.7678    2.6819 C   0  0  0  0  0  0  0  0  0  0  0  0
   -3.7457    3.4970    1.3912 C   0  0  0  0  0  0  0  0  0  0  0  0
   -2.8793    2.7711    0.5732 C   0  0  0  0  0  0  0  0  0  0  0  0
   -2.9919    2.2961   -0.7826 C   0  0  0  0  0  0  0  0  0  0  0  0
   -4.0041    2.4034   -1.7370 C   0  0  0  0  0  0  0  0  0  0  0  0
   -3.8203    1.8099   -2.9624 C   0  0  0  0  0  0  0  0  0  0  0  0
   -2.6426    1.1163   -3.2558 C   0  0  0  0  0  0  0  0  0  0  0  0
   -1.6395    1.0038   -2.3273 C   0  0  0  0  0  0  0  0  0  0  0  0
   -1.8159    1.5855   -1.0734 C   0  0  0  0  0  0  0  0  0  0  0  0
    1.3704    1.4528    0.6562 C   0  0  0  0  0  0  0  0  0  0  0  0
    2.5668    0.7709    0.8320 C   0  0  0  0  0  0  0  0  0  0  0  0
    3.7432    1.5675    1.1720 C   0  0  0  0  0  0  0  0  0  0  0  0
    3.6597    2.7752    1.7300 N   0  0  0  0  0  0  0  0  0  0  0  0
    4.8641    3.2393    1.8809 N   0  0  0  0  0  0  0  0  0  0  0  0
    5.7182    2.3430    1.4117 C   0  0  0  0  0  0  0  0  0  0  0  0
    7.1859    2.5011    1.4211 C   0  0  0  0  0  0  0  0  0  0  0  0
    5.0497    1.2663    0.9390 O   0  0  0  0  0  0  0  0  0  0  0  0
    3.8431   -2.7559    0.3745 O   0  0  0  0  0  0  0  0  0  0  0  0
    6.1513   -4.5220   -0.3361 H   0  0  0  0  0  0  0  0  0  0  0  0
    6.3143   -4.7958    1.4020 H   0  0  0  0  0  0  0  0  0  0  0  0
    4.8382   -5.2870    0.5633 H   0  0  0  0  0  0  0  0  0  0  0  0
    1.4401   -2.3184    0.0523 H   0  0  0  0  0  0  0  0  0  0  0  0
    0.8753   -2.0087   -2.4556 H   0  0  0  0  0  0  0  0  0  0  0  0
    0.1389   -3.2487   -4.4556 H   0  0  0  0  0  0  0  0  0  0  0  0
   -2.2104   -3.9228   -4.7119 H   0  0  0  0  0  0  0  0  0  0  0  0
   -3.8713   -3.3690   -2.9726 H   0  0  0  0  0  0  0  0  0  0  0  0
   -5.1917   -2.4526   -0.8397 H   0  0  0  0  0  0  0  0  0  0  0  0
   -5.8985   -1.3892    1.2718 H   0  0  0  0  0  0  0  0  0  0  0  0
   -4.2586   -0.2498    2.7064 H   0  0  0  0  0  0  0  0  0  0  0  0
   -1.8832   -0.1466    2.0515 H   0  0  0  0  0  0  0  0  0  0  0  0
   -0.3202    2.2588    2.7531 H   0  0  0  0  0  0  0  0  0  0  0  0
   -1.8520    3.5498    4.1905 H   0  0  0  0  0  0  0  0  0  0  0  0
   -4.0174    4.3273    3.3265 H   0  0  0  0  0  0  0  0  0  0  0  0
   -4.6952    3.8269    1.0070 H   0  0  0  0  0  0  0  0  0  0  0  0
   -4.9074    2.9389   -1.5022 H   0  0  0  0  0  0  0  0  0  0  0  0
   -4.5933    1.8803   -3.7089 H   0  0  0  0  0  0  0  0  0  0  0  0
   -2.5228    0.6586   -4.2245 H   0  0  0  0  0  0  0  0  0  0  0  0
   -0.7323    0.4662   -2.5394 H   0  0  0  0  0  0  0  0  0  0  0  0
    1.3519    2.5148    0.8155 H   0  0  0  0  0  0  0  0  0  0  0  0
    7.5741    2.4083    2.4347 H   0  0  0  0  0  0  0  0  0  0  0  0
    7.4710    3.4772    1.0303 H   0  0  0  0  0  0  0  0  0  0  0  0
    7.6516    1.7327    0.8050 H   0  0  0  0  0  0  0  0  0  0  0  0
  1  2  1  0  0  0  0
  2  3  2  0  0  0  0
  3  4  1  0  0  0  0
  4  5  2  0  0  0  0
  5  6  1  0  0  0  0
  6  7  2  0  0  0  0
  7  8  1  0  0  0  0
  8  9  1  0  0  0  0
  9 10  1  0  0  0  0
 10 11  2  0  0  0  0
 11 12  1  0  0  0  0
 12 13  2  0  0  0  0
 13 14  1  0  0  0  0
 14 15  2  0  0  0  0
 15 16  1  0  0  0  0
 16 17  2  0  0  0  0
 17 18  1  0  0  0  0
 18 19  2  0  0  0  0
 19 20  1  0  0  0  0
 20 21  2  0  0  0  0
  8 22  2  0  0  0  0
 22 23  1  0  0  0  0
 23 24  1  0  0  0  0
 24 25  2  0  0  0  0
 25 26  1  0  0  0  0
 26 27  2  0  0  0  0
 27 28  1  0  0  0  0
 28 29  2  0  0  0  0
 29 30  1  0  0  0  0
 30 31  2  0  0  0  0
 31 32  1  0  0  0  0
 32 33  2  0  0  0  0
 33 34  1  0  0  0  0
 34 35  2  0  0  0  0
 22 36  1  0  0  0  0
 36 37  2  0  0  0  0
 37 38  1  0  0  0  0
 38 39  2  0  0  0  0
 39 40  1  0  0  0  0
 40 41  2  0  0  0  0
 41 42  1  0  0  0  0
 41 43  1  0  0  0  0
  5 44  1  0  0  0  0
 44  2  1  0  0  0  0
 37  6  1  0  0  0  0
 43 38  1  0  0  0  0
 21  9  1  0  0  0  0
 35 23  1  0  0  0  0
 15 10  1  0  0  0  0
 21 16  1  0  0  0  0
 29 24  1  0  0  0  0
 35 30  1  0  0  0  0
  1 45  1  0  0  0  0
  1 46  1  0  0  0  0
  1 47  1  0  0  0  0
  7 48  1  0  0  0  0
 11 49  1  0  0  0  0
 12 50  1  0  0  0  0
 13 51  1  0  0  0  0
 14 52  1  0  0  0  0
 17 53  1  0  0  0  0
 18 54  1  0  0  0  0
 19 55  1  0  0  0  0
 20 56  1  0  0  0  0
 25 57  1  0  0  0  0
 26 58  1  0  0  0  0
 27 59  1  0  0  0  0
 28 60  1  0  0  0  0
 31 61  1  0  0  0  0
 32 62  1  0  0  0  0
 33 63  1  0  0  0  0
 34 64  1  0  0  0  0
 36 65  1  0  0  0  0
 42 66  1  0  0  0  0
 42 67  1  0  0  0  0
 42 68  1  0  0  0  0
M  END
