
  xtb     03012221253D
 energy: -11.386729726758 gnorm: 0.000209765838 xtb: 6.4.1 (afa7bdf)
 57 62  0     0  0            999 V2000
   -6.6005    1.7058   -0.5228 C   0  0  0  0  0  0  0  0  0  0  0  0
   -5.8428    0.6533    0.1535 N   0  0  0  0  0  0  0  0  0  0  0  0
   -6.6147   -0.3696    0.8584 C   0  0  0  0  0  0  0  0  0  0  0  0
   -4.4386    0.6299    0.1325 C   0  0  0  0  0  0  0  0  0  0  0  0
   -3.7102    1.5907   -0.5787 C   0  0  0  0  0  0  0  0  0  0  0  0
   -2.3390    1.5624   -0.6047 C   0  0  0  0  0  0  0  0  0  0  0  0
   -1.6265    0.5669    0.0660 C   0  0  0  0  0  0  0  0  0  0  0  0
   -0.1489    0.5820    0.0480 C   0  0  0  0  0  0  0  0  0  0  0  0
    0.4221    1.7731    0.2485 N   0  0  0  0  0  0  0  0  0  0  0  0
    1.7441    1.8355    0.3210 C   0  0  0  0  0  0  0  0  0  0  0  0
    2.6091    0.7330    0.1929 C   0  0  0  0  0  0  0  0  0  0  0  0
    1.9962   -0.5370    0.1299 C   0  0  0  0  0  0  0  0  0  0  0  0
    0.6103   -0.6002   -0.0653 C   0  0  0  0  0  0  0  0  0  0  0  0
   -0.0092   -1.9063   -0.3936 C   0  0  0  0  0  0  0  0  0  0  0  0
   -1.0881   -2.0248   -1.2690 C   0  0  0  0  0  0  0  0  0  0  0  0
   -1.6304   -3.2555   -1.5633 C   0  0  0  0  0  0  0  0  0  0  0  0
   -1.0921   -4.3973   -1.0069 C   0  0  0  0  0  0  0  0  0  0  0  0
    0.0024   -4.3058   -0.1713 C   0  0  0  0  0  0  0  0  0  0  0  0
    0.5563   -3.0736    0.1313 C   0  0  0  0  0  0  0  0  0  0  0  0
    1.7978   -2.9439    0.9581 C   0  0  0  0  0  0  0  0  0  0  0  0
    2.7196   -1.8376    0.4011 C   0  0  0  0  0  0  0  0  0  0  0  0
    4.0786    0.9909    0.0714 C   0  0  0  0  0  0  0  0  0  0  0  0
    5.0342   -0.0226   -0.0606 C   0  0  0  0  0  0  0  0  0  0  0  0
    6.3828    0.2437   -0.1508 C   0  0  0  0  0  0  0  0  0  0  0  0
    6.8334    1.5427   -0.1438 C   0  0  0  0  0  0  0  0  0  0  0  0
    5.9187    2.5688   -0.0800 C   0  0  0  0  0  0  0  0  0  0  0  0
    4.5583    2.3158    0.0085 C   0  0  0  0  0  0  0  0  0  0  0  0
    3.6183    3.4832   -0.0429 C   0  0  0  0  0  0  0  0  0  0  0  0
    2.2936    3.1914    0.6568 C   0  0  0  0  0  0  0  0  0  0  0  0
   -2.3505   -0.3772    0.8009 C   0  0  0  0  0  0  0  0  0  0  0  0
   -3.7214   -0.3513    0.8268 C   0  0  0  0  0  0  0  0  0  0  0  0
   -6.4197    1.6654   -1.5953 H   0  0  0  0  0  0  0  0  0  0  0  0
   -6.3000    2.6821   -0.1469 H   0  0  0  0  0  0  0  0  0  0  0  0
   -7.6693    1.5933   -0.3529 H   0  0  0  0  0  0  0  0  0  0  0  0
   -6.3495   -1.3586    0.4889 H   0  0  0  0  0  0  0  0  0  0  0  0
   -6.4097   -0.3212    1.9264 H   0  0  0  0  0  0  0  0  0  0  0  0
   -7.6834   -0.2293    0.7094 H   0  0  0  0  0  0  0  0  0  0  0  0
   -4.2350    2.3620   -1.1128 H   0  0  0  0  0  0  0  0  0  0  0  0
   -1.7877    2.3119   -1.1460 H   0  0  0  0  0  0  0  0  0  0  0  0
   -1.4969   -1.1369   -1.7187 H   0  0  0  0  0  0  0  0  0  0  0  0
   -2.4741   -3.3268   -2.2298 H   0  0  0  0  0  0  0  0  0  0  0  0
   -1.5165   -5.3613   -1.2364 H   0  0  0  0  0  0  0  0  0  0  0  0
    0.4421   -5.1965    0.2432 H   0  0  0  0  0  0  0  0  0  0  0  0
    2.3216   -3.9071    0.9945 H   0  0  0  0  0  0  0  0  0  0  0  0
    1.5151   -2.7136    1.9918 H   0  0  0  0  0  0  0  0  0  0  0  0
    3.5193   -1.6562    1.1298 H   0  0  0  0  0  0  0  0  0  0  0  0
    3.1802   -2.1920   -0.5284 H   0  0  0  0  0  0  0  0  0  0  0  0
    4.7358   -1.0457   -0.1547 H   0  0  0  0  0  0  0  0  0  0  0  0
    7.0879   -0.5675   -0.2396 H   0  0  0  0  0  0  0  0  0  0  0  0
    7.8877    1.7552   -0.2148 H   0  0  0  0  0  0  0  0  0  0  0  0
    6.2585    3.5902   -0.1183 H   0  0  0  0  0  0  0  0  0  0  0  0
    4.1026    4.3618    0.4024 H   0  0  0  0  0  0  0  0  0  0  0  0
    3.4372    3.7429   -1.0928 H   0  0  0  0  0  0  0  0  0  0  0  0
    2.4187    3.2563    1.7442 H   0  0  0  0  0  0  0  0  0  0  0  0
    1.5397    3.9459    0.3983 H   0  0  0  0  0  0  0  0  0  0  0  0
   -1.8130   -1.1291    1.3526 H   0  0  0  0  0  0  0  0  0  0  0  0
   -4.2549   -1.0917    1.3950 H   0  0  0  0  0  0  0  0  0  0  0  0
  1  2  1  0  0  0  0
  2  3  1  0  0  0  0
  2  4  1  0  0  0  0
  4  5  2  0  0  0  0
  5  6  1  0  0  0  0
  6  7  2  0  0  0  0
  7  8  1  0  0  0  0
  8  9  2  0  0  0  0
  9 10  1  0  0  0  0
 10 11  2  0  0  0  0
 11 12  1  0  0  0  0
 12 13  2  0  0  0  0
 13 14  1  0  0  0  0
 14 15  2  0  0  0  0
 15 16  1  0  0  0  0
 16 17  2  0  0  0  0
 17 18  1  0  0  0  0
 18 19  2  0  0  0  0
 19 20  1  0  0  0  0
 20 21  1  0  0  0  0
 11 22  1  0  0  0  0
 22 23  2  0  0  0  0
 23 24  1  0  0  0  0
 24 25  2  0  0  0  0
 25 26  1  0  0  0  0
 26 27  2  0  0  0  0
 27 28  1  0  0  0  0
 28 29  1  0  0  0  0
  7 30  1  0  0  0  0
 30 31  2  0  0  0  0
 31  4  1  0  0  0  0
 13  8  1  0  0  0  0
 19 14  1  0  0  0  0
 27 22  1  0  0  0  0
 29 10  1  0  0  0  0
 21 12  1  0  0  0  0
  1 32  1  0  0  0  0
  1 33  1  0  0  0  0
  1 34  1  0  0  0  0
  3 35  1  0  0  0  0
  3 36  1  0  0  0  0
  3 37  1  0  0  0  0
  5 38  1  0  0  0  0
  6 39  1  0  0  0  0
 15 40  1  0  0  0  0
 16 41  1  0  0  0  0
 17 42  1  0  0  0  0
 18 43  1  0  0  0  0
 20 44  1  0  0  0  0
 20 45  1  0  0  0  0
 21 46  1  0  0  0  0
 21 47  1  0  0  0  0
 23 48  1  0  0  0  0
 24 49  1  0  0  0  0
 25 50  1  0  0  0  0
 26 51  1  0  0  0  0
 28 52  1  0  0  0  0
 28 53  1  0  0  0  0
 29 54  1  0  0  0  0
 29 55  1  0  0  0  0
 30 56  1  0  0  0  0
 31 57  1  0  0  0  0
M  END
