
  xtb     03012221283D
 energy: -10.409796376506 gnorm: 0.000746633431 xtb: 6.4.1 (afa7bdf)
 46 49  0     0  0            999 V2000
    0.6189   -2.8993    0.1611 N   0  0  0  0  0  0  0  0  0  0  0  0
    0.5940   -1.7382    0.0872 C   0  0  0  0  0  0  0  0  0  0  0  0
    0.5955   -0.3491    0.0006 C   0  0  0  0  0  0  0  0  0  0  0  0
   -0.5912    0.3534   -0.0171 C   0  0  0  0  0  0  0  0  0  0  0  0
   -0.5900    1.7428   -0.0996 C   0  0  0  0  0  0  0  0  0  0  0  0
   -0.6167    2.9036   -0.1749 N   0  0  0  0  0  0  0  0  0  0  0  0
   -1.9447   -0.2313    0.0358 C   0  0  0  0  0  0  0  0  0  0  0  0
   -3.0508    0.6232   -0.0344 C   0  0  0  0  0  0  0  0  0  0  0  0
   -4.3381    0.1508    0.0033 C   0  0  0  0  0  0  0  0  0  0  0  0
   -4.5959   -1.2135    0.1151 C   0  0  0  0  0  0  0  0  0  0  0  0
   -5.9783   -1.7288    0.1484 C   0  0  0  0  0  0  0  0  0  0  0  0
   -7.0160   -1.0154    0.7306 C   0  0  0  0  0  0  0  0  0  0  0  0
   -8.2839   -1.5408    0.7320 C   0  0  0  0  0  0  0  0  0  0  0  0
   -8.6137   -2.7088    0.2069 N   0  0  0  0  0  0  0  0  0  0  0  0
   -7.6219   -3.3856   -0.3472 C   0  0  0  0  0  0  0  0  0  0  0  0
   -6.3200   -2.9552   -0.4030 C   0  0  0  0  0  0  0  0  0  0  0  0
   -3.5035   -2.0750    0.1892 C   0  0  0  0  0  0  0  0  0  0  0  0
   -2.2176   -1.5978    0.1502 C   0  0  0  0  0  0  0  0  0  0  0  0
    1.9484    0.2348   -0.0751 C   0  0  0  0  0  0  0  0  0  0  0  0
    2.2205    1.6035   -0.1626 C   0  0  0  0  0  0  0  0  0  0  0  0
    3.5050    2.0793   -0.2409 C   0  0  0  0  0  0  0  0  0  0  0  0
    4.5968    1.2141   -0.2361 C   0  0  0  0  0  0  0  0  0  0  0  0
    5.9771    1.7274   -0.3305 C   0  0  0  0  0  0  0  0  0  0  0  0
    6.2924    2.8565   -1.0726 C   0  0  0  0  0  0  0  0  0  0  0  0
    7.5934    3.2894   -1.1301 C   0  0  0  0  0  0  0  0  0  0  0  0
    8.6079    2.7034   -0.5168 N   0  0  0  0  0  0  0  0  0  0  0  0
    8.3032    1.6279    0.1899 C   0  0  0  0  0  0  0  0  0  0  0  0
    7.0387    1.1090    0.3139 C   0  0  0  0  0  0  0  0  0  0  0  0
    4.3403   -0.1520   -0.1447 C   0  0  0  0  0  0  0  0  0  0  0  0
    3.0542   -0.6230   -0.0668 C   0  0  0  0  0  0  0  0  0  0  0  0
   -2.8808    1.6819   -0.1243 H   0  0  0  0  0  0  0  0  0  0  0  0
   -5.1632    0.8368   -0.0733 H   0  0  0  0  0  0  0  0  0  0  0  0
   -6.8186   -0.0644    1.1939 H   0  0  0  0  0  0  0  0  0  0  0  0
   -9.0867   -0.9823    1.1891 H   0  0  0  0  0  0  0  0  0  0  0  0
   -7.8824   -4.3390   -0.7815 H   0  0  0  0  0  0  0  0  0  0  0  0
   -5.5679   -3.5528   -0.8882 H   0  0  0  0  0  0  0  0  0  0  0  0
   -3.6779   -3.1315    0.2938 H   0  0  0  0  0  0  0  0  0  0  0  0
   -1.4147   -2.3058    0.2096 H   0  0  0  0  0  0  0  0  0  0  0  0
    1.4183    2.3146   -0.1699 H   0  0  0  0  0  0  0  0  0  0  0  0
    3.6796    3.1398   -0.2915 H   0  0  0  0  0  0  0  0  0  0  0  0
    5.5199    3.3742   -1.6142 H   0  0  0  0  0  0  0  0  0  0  0  0
    7.8335    4.1662   -1.7124 H   0  0  0  0  0  0  0  0  0  0  0  0
    9.1248    1.1448    0.6968 H   0  0  0  0  0  0  0  0  0  0  0  0
    6.8626    0.2383    0.9214 H   0  0  0  0  0  0  0  0  0  0  0  0
    5.1648   -0.8429   -0.1557 H   0  0  0  0  0  0  0  0  0  0  0  0
    2.8847   -1.6835   -0.0019 H   0  0  0  0  0  0  0  0  0  0  0  0
  1  2  3  0  0  0  0
  2  3  1  0  0  0  0
  3  4  2  0  0  0  0
  4  5  1  0  0  0  0
  5  6  3  0  0  0  0
  4  7  1  0  0  0  0
  7  8  2  0  0  0  0
  8  9  1  0  0  0  0
  9 10  2  0  0  0  0
 10 11  1  0  0  0  0
 11 12  2  0  0  0  0
 12 13  1  0  0  0  0
 13 14  2  0  0  0  0
 14 15  1  0  0  0  0
 15 16  2  0  0  0  0
 10 17  1  0  0  0  0
 17 18  2  0  0  0  0
  3 19  1  0  0  0  0
 19 20  2  0  0  0  0
 20 21  1  0  0  0  0
 21 22  2  0  0  0  0
 22 23  1  0  0  0  0
 23 24  2  0  0  0  0
 24 25  1  0  0  0  0
 25 26  2  0  0  0  0
 26 27  1  0  0  0  0
 27 28  2  0  0  0  0
 22 29  1  0  0  0  0
 29 30  2  0  0  0  0
 18  7  1  0  0  0  0
 30 19  1  0  0  0  0
 16 11  1  0  0  0  0
 28 23  1  0  0  0  0
  8 31  1  0  0  0  0
  9 32  1  0  0  0  0
 12 33  1  0  0  0  0
 13 34  1  0  0  0  0
 15 35  1  0  0  0  0
 16 36  1  0  0  0  0
 17 37  1  0  0  0  0
 18 38  1  0  0  0  0
 20 39  1  0  0  0  0
 21 40  1  0  0  0  0
 24 41  1  0  0  0  0
 25 42  1  0  0  0  0
 27 43  1  0  0  0  0
 28 44  1  0  0  0  0
 29 45  1  0  0  0  0
 30 46  1  0  0  0  0
M  END
