
  xtb     03012221313D
 energy: -20.385089156456 gnorm: 0.000288005492 xtb: 6.4.1 (afa7bdf)
 97103  0     0  0            999 V2000
    0.1070   -2.4725    3.3502 C   0  0  0  0  0  0  0  0  0  0  0  0
   -0.5332   -1.1381    3.7022 C   0  0  0  0  0  0  0  0  0  0  0  0
    0.3854    0.0760    3.5030 C   0  0  0  0  0  0  0  0  0  0  0  0
    0.6413    0.4927    2.0275 C   0  0  0  0  0  0  0  0  0  0  0  0
    1.4246    1.8357    1.9925 C   0  0  0  0  0  0  0  0  0  0  0  0
    1.6406    2.4461    0.5988 C   0  0  0  0  0  0  0  0  0  0  0  0
    2.7263    1.7655   -0.2211 C   0  0  0  0  0  0  0  0  0  0  0  0
    1.3778   -0.6017    1.2572 C   0  0  0  0  0  0  0  0  0  0  0  0
    2.6387   -1.1206    1.4446 C   0  0  0  0  0  0  0  0  0  0  0  0
    3.1331   -2.0762    0.5487 C   0  0  0  0  0  0  0  0  0  0  0  0
    4.5311   -2.5293    0.6390 C   0  0  0  0  0  0  0  0  0  0  0  0
    5.4453   -2.3034   -0.3314 C   0  0  0  0  0  0  0  0  0  0  0  0
    5.0779   -1.5564   -1.4654 C   0  0  0  0  0  0  0  0  0  0  0  0
    4.6094   -0.8646   -2.3580 C   0  0  0  0  0  0  0  0  0  0  0  0
    3.9362   -0.0485   -3.2911 C   0  0  0  0  0  0  0  0  0  0  0  0
    4.6277    0.6867   -4.2477 C   0  0  0  0  0  0  0  0  0  0  0  0
    3.9503    1.4937   -5.1376 C   0  0  0  0  0  0  0  0  0  0  0  0
    2.5736    1.5810   -5.0847 C   0  0  0  0  0  0  0  0  0  0  0  0
    1.8735    0.8584   -4.1402 C   0  0  0  0  0  0  0  0  0  0  0  0
    2.5490    0.0501   -3.2520 C   0  0  0  0  0  0  0  0  0  0  0  0
    6.7687   -2.7554   -0.1908 C   0  0  0  0  0  0  0  0  0  0  0  0
    7.9223   -3.1419   -0.0714 C   0  0  0  0  0  0  0  0  0  0  0  0
    9.2559   -3.5830    0.0595 C   0  0  0  0  0  0  0  0  0  0  0  0
    9.7683   -3.9434    1.3017 C   0  0  0  0  0  0  0  0  0  0  0  0
   11.0724   -4.3735    1.4279 C   0  0  0  0  0  0  0  0  0  0  0  0
   11.8862   -4.4505    0.3159 C   0  0  0  0  0  0  0  0  0  0  0  0
   11.3931   -4.0965   -0.9235 C   0  0  0  0  0  0  0  0  0  0  0  0
   10.0892   -3.6662   -1.0515 C   0  0  0  0  0  0  0  0  0  0  0  0
    2.3077   -2.5169   -0.4984 C   0  0  0  0  0  0  0  0  0  0  0  0
    1.0397   -2.0146   -0.6771 C   0  0  0  0  0  0  0  0  0  0  0  0
    0.5768   -1.0388    0.1961 C   0  0  0  0  0  0  0  0  0  0  0  0
   -0.6830   -0.2952    0.2016 C   0  0  0  0  0  0  0  0  0  0  0  0
   -1.7726   -0.3628   -0.6562 C   0  0  0  0  0  0  0  0  0  0  0  0
   -2.8444    0.4717   -0.4370 C   0  0  0  0  0  0  0  0  0  0  0  0
   -2.8665    1.3836    0.6291 C   0  0  0  0  0  0  0  0  0  0  0  0
   -3.9884    2.2872    0.8658 C   0  0  0  0  0  0  0  0  0  0  0  0
   -5.2786    2.1102    0.5003 C   0  0  0  0  0  0  0  0  0  0  0  0
   -5.7488    0.9536   -0.1452 C   0  0  0  0  0  0  0  0  0  0  0  0
   -6.1190   -0.0699   -0.7017 C   0  0  0  0  0  0  0  0  0  0  0  0
   -6.4744   -1.2731   -1.3456 C   0  0  0  0  0  0  0  0  0  0  0  0
   -5.5141   -2.2501   -1.5894 C   0  0  0  0  0  0  0  0  0  0  0  0
   -5.8528   -3.4290   -2.2188 C   0  0  0  0  0  0  0  0  0  0  0  0
   -7.1560   -3.6512   -2.6152 C   0  0  0  0  0  0  0  0  0  0  0  0
   -8.1201   -2.6917   -2.3809 C   0  0  0  0  0  0  0  0  0  0  0  0
   -7.7833   -1.5119   -1.7514 C   0  0  0  0  0  0  0  0  0  0  0  0
   -6.2147    3.1132    0.8116 C   0  0  0  0  0  0  0  0  0  0  0  0
   -7.0283    3.9862    1.0779 C   0  0  0  0  0  0  0  0  0  0  0  0
   -7.9669    4.9955    1.3792 C   0  0  0  0  0  0  0  0  0  0  0  0
   -8.1927    5.3879    2.6948 C   0  0  0  0  0  0  0  0  0  0  0  0
   -9.1102    6.3749    2.9879 C   0  0  0  0  0  0  0  0  0  0  0  0
   -9.8171    6.9861    1.9723 C   0  0  0  0  0  0  0  0  0  0  0  0
   -9.6047    6.6084    0.6621 C   0  0  0  0  0  0  0  0  0  0  0  0
   -8.6877    5.6216    0.3672 C   0  0  0  0  0  0  0  0  0  0  0  0
   -1.7512    1.4499    1.4736 C   0  0  0  0  0  0  0  0  0  0  0  0
   -0.6774    0.6164    1.2612 C   0  0  0  0  0  0  0  0  0  0  0  0
    0.3475   -2.5376    2.2894 H   0  0  0  0  0  0  0  0  0  0  0  0
   -0.5499   -3.3141    3.5802 H   0  0  0  0  0  0  0  0  0  0  0  0
    1.0367   -2.6217    3.9016 H   0  0  0  0  0  0  0  0  0  0  0  0
   -0.8698   -1.1690    4.7488 H   0  0  0  0  0  0  0  0  0  0  0  0
   -1.4515   -0.9963    3.1169 H   0  0  0  0  0  0  0  0  0  0  0  0
   -0.0425    0.9424    4.0210 H   0  0  0  0  0  0  0  0  0  0  0  0
    1.3492   -0.1087    3.9881 H   0  0  0  0  0  0  0  0  0  0  0  0
    0.8798    2.5498    2.6211 H   0  0  0  0  0  0  0  0  0  0  0  0
    2.3922    1.6926    2.4839 H   0  0  0  0  0  0  0  0  0  0  0  0
    1.8908    3.5119    0.7047 H   0  0  0  0  0  0  0  0  0  0  0  0
    0.6906    2.4348    0.0484 H   0  0  0  0  0  0  0  0  0  0  0  0
    2.4726    0.7299   -0.4430 H   0  0  0  0  0  0  0  0  0  0  0  0
    3.6780    1.7552    0.3123 H   0  0  0  0  0  0  0  0  0  0  0  0
    2.8920    2.2657   -1.1778 H   0  0  0  0  0  0  0  0  0  0  0  0
    3.2601   -0.7590    2.2432 H   0  0  0  0  0  0  0  0  0  0  0  0
    4.8471   -3.0374    1.5345 H   0  0  0  0  0  0  0  0  0  0  0  0
    5.7017    0.6193   -4.2817 H   0  0  0  0  0  0  0  0  0  0  0  0
    4.4974    2.0586   -5.8750 H   0  0  0  0  0  0  0  0  0  0  0  0
    2.0460    2.2131   -5.7802 H   0  0  0  0  0  0  0  0  0  0  0  0
    0.7986    0.9272   -4.0947 H   0  0  0  0  0  0  0  0  0  0  0  0
    2.0095   -0.5109   -2.5089 H   0  0  0  0  0  0  0  0  0  0  0  0
    9.1299   -3.8814    2.1667 H   0  0  0  0  0  0  0  0  0  0  0  0
   11.4565   -4.6497    2.3965 H   0  0  0  0  0  0  0  0  0  0  0  0
   12.9054   -4.7867    0.4153 H   0  0  0  0  0  0  0  0  0  0  0  0
   12.0277   -4.1563   -1.7928 H   0  0  0  0  0  0  0  0  0  0  0  0
    9.7002   -3.3889   -2.0165 H   0  0  0  0  0  0  0  0  0  0  0  0
    2.6956   -3.2500   -1.1840 H   0  0  0  0  0  0  0  0  0  0  0  0
    0.4153   -2.3503   -1.4869 H   0  0  0  0  0  0  0  0  0  0  0  0
   -1.7644   -1.0561   -1.4793 H   0  0  0  0  0  0  0  0  0  0  0  0
   -3.6794    0.4390   -1.1113 H   0  0  0  0  0  0  0  0  0  0  0  0
   -3.7588    3.1882    1.4085 H   0  0  0  0  0  0  0  0  0  0  0  0
   -4.4989   -2.0721   -1.2779 H   0  0  0  0  0  0  0  0  0  0  0  0
   -5.0989   -4.1777   -2.4010 H   0  0  0  0  0  0  0  0  0  0  0  0
   -7.4205   -4.5730   -3.1072 H   0  0  0  0  0  0  0  0  0  0  0  0
   -9.1382   -2.8643   -2.6906 H   0  0  0  0  0  0  0  0  0  0  0  0
   -8.5319   -0.7603   -1.5664 H   0  0  0  0  0  0  0  0  0  0  0  0
   -7.6391    4.9082    3.4839 H   0  0  0  0  0  0  0  0  0  0  0  0
   -9.2755    6.6688    4.0118 H   0  0  0  0  0  0  0  0  0  0  0  0
  -10.5341    7.7573    2.2022 H   0  0  0  0  0  0  0  0  0  0  0  0
  -10.1561    7.0852   -0.1321 H   0  0  0  0  0  0  0  0  0  0  0  0
   -8.5191    5.3233   -0.6537 H   0  0  0  0  0  0  0  0  0  0  0  0
   -1.7351    2.1464    2.2921 H   0  0  0  0  0  0  0  0  0  0  0  0
  1  2  1  0  0  0  0
  2  3  1  0  0  0  0
  3  4  1  0  0  0  0
  4  5  1  0  0  0  0
  5  6  1  0  0  0  0
  6  7  1  0  0  0  0
  4  8  1  0  0  0  0
  8  9  2  0  0  0  0
  9 10  1  0  0  0  0
 10 11  1  0  0  0  0
 11 12  2  0  0  0  0
 12 13  1  0  0  0  0
 13 14  3  0  0  0  0
 14 15  1  0  0  0  0
 15 16  2  0  0  0  0
 16 17  1  0  0  0  0
 17 18  2  0  0  0  0
 18 19  1  0  0  0  0
 19 20  2  0  0  0  0
 12 21  1  0  0  0  0
 21 22  3  0  0  0  0
 22 23  1  0  0  0  0
 23 24  2  0  0  0  0
 24 25  1  0  0  0  0
 25 26  2  0  0  0  0
 26 27  1  0  0  0  0
 27 28  2  0  0  0  0
 10 29  2  0  0  0  0
 29 30  1  0  0  0  0
 30 31  2  0  0  0  0
 31 32  1  0  0  0  0
 32 33  2  0  0  0  0
 33 34  1  0  0  0  0
 34 35  2  0  0  0  0
 35 36  1  0  0  0  0
 36 37  2  0  0  0  0
 37 38  1  0  0  0  0
 38 39  3  0  0  0  0
 39 40  1  0  0  0  0
 40 41  2  0  0  0  0
 41 42  1  0  0  0  0
 42 43  2  0  0  0  0
 43 44  1  0  0  0  0
 44 45  2  0  0  0  0
 37 46  1  0  0  0  0
 46 47  3  0  0  0  0
 47 48  1  0  0  0  0
 48 49  2  0  0  0  0
 49 50  1  0  0  0  0
 50 51  2  0  0  0  0
 51 52  1  0  0  0  0
 52 53  2  0  0  0  0
 35 54  1  0  0  0  0
 54 55  2  0  0  0  0
 55  4  1  0  0  0  0
 31  8  1  0  0  0  0
 55 32  1  0  0  0  0
 20 15  1  0  0  0  0
 28 23  1  0  0  0  0
 45 40  1  0  0  0  0
 53 48  1  0  0  0  0
  1 56  1  0  0  0  0
  1 57  1  0  0  0  0
  1 58  1  0  0  0  0
  2 59  1  0  0  0  0
  2 60  1  0  0  0  0
  3 61  1  0  0  0  0
  3 62  1  0  0  0  0
  5 63  1  0  0  0  0
  5 64  1  0  0  0  0
  6 65  1  0  0  0  0
  6 66  1  0  0  0  0
  7 67  1  0  0  0  0
  7 68  1  0  0  0  0
  7 69  1  0  0  0  0
  9 70  1  0  0  0  0
 11 71  1  0  0  0  0
 16 72  1  0  0  0  0
 17 73  1  0  0  0  0
 18 74  1  0  0  0  0
 19 75  1  0  0  0  0
 20 76  1  0  0  0  0
 24 77  1  0  0  0  0
 25 78  1  0  0  0  0
 26 79  1  0  0  0  0
 27 80  1  0  0  0  0
 28 81  1  0  0  0  0
 29 82  1  0  0  0  0
 30 83  1  0  0  0  0
 33 84  1  0  0  0  0
 34 85  1  0  0  0  0
 36 86  1  0  0  0  0
 41 87  1  0  0  0  0
 42 88  1  0  0  0  0
 43 89  1  0  0  0  0
 44 90  1  0  0  0  0
 45 91  1  0  0  0  0
 49 92  1  0  0  0  0
 50 93  1  0  0  0  0
 51 94  1  0  0  0  0
 52 95  1  0  0  0  0
 53 96  1  0  0  0  0
 54 97  1  0  0  0  0
M  END
