
  xtb     03012221323D
 energy: -11.384794121159 gnorm: 0.000512367822 xtb: 6.4.1 (afa7bdf)
 51 55  0     0  0            999 V2000
   -5.3454    3.0312    3.3374 C   0  0  0  0  0  0  0  0  0  0  0  0
   -4.2991    2.0713    2.8902 C   0  0  0  0  0  0  0  0  0  0  0  0
   -2.9770    2.4740    2.7574 C   0  0  0  0  0  0  0  0  0  0  0  0
   -2.0125    1.5935    2.3203 C   0  0  0  0  0  0  0  0  0  0  0  0
   -2.3458    0.2841    1.9974 C   0  0  0  0  0  0  0  0  0  0  0  0
   -1.3401   -0.6343    1.5366 N   0  0  0  0  0  0  0  0  0  0  0  0
   -1.1049   -1.9313    2.0428 C   0  0  0  0  0  0  0  0  0  0  0  0
   -1.7194   -2.6389    3.0736 C   0  0  0  0  0  0  0  0  0  0  0  0
   -1.2736   -3.9070    3.3587 C   0  0  0  0  0  0  0  0  0  0  0  0
   -0.2253   -4.4851    2.6377 C   0  0  0  0  0  0  0  0  0  0  0  0
    0.3946   -3.7970    1.6240 C   0  0  0  0  0  0  0  0  0  0  0  0
   -0.0445   -2.5082    1.3260 C   0  0  0  0  0  0  0  0  0  0  0  0
    0.3904   -1.5387    0.3508 C   0  0  0  0  0  0  0  0  0  0  0  0
    1.3854   -1.5835   -0.6149 C   0  0  0  0  0  0  0  0  0  0  0  0
    1.5936   -0.4938   -1.4535 C   0  0  0  0  0  0  0  0  0  0  0  0
    2.6520   -0.4591   -2.4817 C   0  0  0  0  0  0  0  0  0  0  0  0
    3.3606   -1.5634   -2.8958 C   0  0  0  0  0  0  0  0  0  0  0  0
    3.1807   -2.8476   -2.3978 C   0  0  0  0  0  0  0  0  0  0  0  0
    3.0107   -3.9017   -1.9330 N   0  0  0  0  0  0  0  0  0  0  0  0
    4.3518   -1.4330   -3.8635 C   0  0  0  0  0  0  0  0  0  0  0  0
    5.1681   -1.2901   -4.6817 N   0  0  0  0  0  0  0  0  0  0  0  0
    2.9685    0.8576   -3.0952 C   0  0  0  0  0  0  0  0  0  0  0  0
    2.8262    1.0653   -4.4669 C   0  0  0  0  0  0  0  0  0  0  0  0
    3.1233    2.2855   -5.0286 C   0  0  0  0  0  0  0  0  0  0  0  0
    3.5654    3.3241   -4.2349 C   0  0  0  0  0  0  0  0  0  0  0  0
    3.7133    3.1377   -2.8756 C   0  0  0  0  0  0  0  0  0  0  0  0
    3.4199    1.9182   -2.3102 C   0  0  0  0  0  0  0  0  0  0  0  0
    0.7490    0.6316   -1.2968 C   0  0  0  0  0  0  0  0  0  0  0  0
   -0.2370    0.6898   -0.3482 C   0  0  0  0  0  0  0  0  0  0  0  0
   -0.4194   -0.4024    0.4983 C   0  0  0  0  0  0  0  0  0  0  0  0
   -3.6697   -0.1181    2.1205 C   0  0  0  0  0  0  0  0  0  0  0  0
   -4.6318    0.7650    2.5579 C   0  0  0  0  0  0  0  0  0  0  0  0
   -4.9251    3.7948    3.9926 H   0  0  0  0  0  0  0  0  0  0  0  0
   -5.8001    3.5336    2.4831 H   0  0  0  0  0  0  0  0  0  0  0  0
   -6.1363    2.5216    3.8887 H   0  0  0  0  0  0  0  0  0  0  0  0
   -2.7103    3.4879    3.0015 H   0  0  0  0  0  0  0  0  0  0  0  0
   -0.9862    1.9048    2.2339 H   0  0  0  0  0  0  0  0  0  0  0  0
   -2.5196   -2.1867    3.6303 H   0  0  0  0  0  0  0  0  0  0  0  0
   -1.7398   -4.4669    4.1532 H   0  0  0  0  0  0  0  0  0  0  0  0
    0.1012   -5.4820    2.8814 H   0  0  0  0  0  0  0  0  0  0  0  0
    1.2022   -4.2315    1.0593 H   0  0  0  0  0  0  0  0  0  0  0  0
    1.9651   -2.4800   -0.6984 H   0  0  0  0  0  0  0  0  0  0  0  0
    2.4921    0.2492   -5.0844 H   0  0  0  0  0  0  0  0  0  0  0  0
    3.0172    2.4273   -6.0917 H   0  0  0  0  0  0  0  0  0  0  0  0
    3.8006    4.2781   -4.6770 H   0  0  0  0  0  0  0  0  0  0  0  0
    4.0647    3.9468   -2.2565 H   0  0  0  0  0  0  0  0  0  0  0  0
    3.5434    1.7657   -1.2518 H   0  0  0  0  0  0  0  0  0  0  0  0
    0.8862    1.4693   -1.9576 H   0  0  0  0  0  0  0  0  0  0  0  0
   -0.8728    1.5510   -0.2525 H   0  0  0  0  0  0  0  0  0  0  0  0
   -3.9337   -1.1262    1.8527 H   0  0  0  0  0  0  0  0  0  0  0  0
   -5.6568    0.4473    2.6422 H   0  0  0  0  0  0  0  0  0  0  0  0
  1  2  1  0  0  0  0
  2  3  2  0  0  0  0
  3  4  1  0  0  0  0
  4  5  2  0  0  0  0
  5  6  1  0  0  0  0
  6  7  1  0  0  0  0
  7  8  2  0  0  0  0
  8  9  1  0  0  0  0
  9 10  2  0  0  0  0
 10 11  1  0  0  0  0
 11 12  2  0  0  0  0
 12 13  1  0  0  0  0
 13 14  2  0  0  0  0
 14 15  1  0  0  0  0
 15 16  1  0  0  0  0
 16 17  2  0  0  0  0
 17 18  1  0  0  0  0
 18 19  3  0  0  0  0
 17 20  1  0  0  0  0
 20 21  3  0  0  0  0
 16 22  1  0  0  0  0
 22 23  2  0  0  0  0
 23 24  1  0  0  0  0
 24 25  2  0  0  0  0
 25 26  1  0  0  0  0
 26 27  2  0  0  0  0
 15 28  2  0  0  0  0
 28 29  1  0  0  0  0
 29 30  2  0  0  0  0
  5 31  1  0  0  0  0
 31 32  2  0  0  0  0
 32  2  1  0  0  0  0
 30  6  1  0  0  0  0
 12  7  1  0  0  0  0
 30 13  1  0  0  0  0
 27 22  1  0  0  0  0
  1 33  1  0  0  0  0
  1 34  1  0  0  0  0
  1 35  1  0  0  0  0
  3 36  1  0  0  0  0
  4 37  1  0  0  0  0
  8 38  1  0  0  0  0
  9 39  1  0  0  0  0
 10 40  1  0  0  0  0
 11 41  1  0  0  0  0
 14 42  1  0  0  0  0
 23 43  1  0  0  0  0
 24 44  1  0  0  0  0
 25 45  1  0  0  0  0
 26 46  1  0  0  0  0
 27 47  1  0  0  0  0
 28 48  1  0  0  0  0
 29 49  1  0  0  0  0
 31 50  1  0  0  0  0
 32 51  1  0  0  0  0
M  END
