
  xtb     03012221273D
 energy: -12.946940196594 gnorm: 0.000313063258 xtb: 6.4.1 (afa7bdf)
 61 68  0     0  0            999 V2000
   -7.1194   -0.1381    1.4088 C   0  0  0  0  0  0  0  0  0  0  0  0
   -7.1010    0.2441   -0.0799 C   0  0  0  0  0  0  0  0  0  0  0  0
   -7.0569    1.7748   -0.2106 C   0  0  0  0  0  0  0  0  0  0  0  0
   -8.3826   -0.2803   -0.7477 C   0  0  0  0  0  0  0  0  0  0  0  0
   -5.8435   -0.3383   -0.7198 C   0  0  0  0  0  0  0  0  0  0  0  0
   -5.8391   -1.2239   -1.7773 C   0  0  0  0  0  0  0  0  0  0  0  0
   -4.6508   -1.7241   -2.3183 C   0  0  0  0  0  0  0  0  0  0  0  0
   -3.4322   -1.3499   -1.8129 C   0  0  0  0  0  0  0  0  0  0  0  0
   -3.4049   -0.4558   -0.7447 C   0  0  0  0  0  0  0  0  0  0  0  0
   -4.5968    0.0512   -0.1975 C   0  0  0  0  0  0  0  0  0  0  0  0
   -4.3241    0.9153    0.8475 O   0  0  0  0  0  0  0  0  0  0  0  0
   -2.9482    0.9732    0.9910 C   0  0  0  0  0  0  0  0  0  0  0  0
   -2.2730    1.6905    1.8921 N   0  0  0  0  0  0  0  0  0  0  0  0
   -0.9461    1.5616    1.8206 C   0  0  0  0  0  0  0  0  0  0  0  0
   -0.0113    2.1812    2.6328 O   0  0  0  0  0  0  0  0  0  0  0  0
    1.2436    1.7652    2.2217 C   0  0  0  0  0  0  0  0  0  0  0  0
    2.5119    2.0894    2.7120 C   0  0  0  0  0  0  0  0  0  0  0  0
    3.6170    1.5319    2.1269 C   0  0  0  0  0  0  0  0  0  0  0  0
    3.5071    0.6433    1.0431 C   0  0  0  0  0  0  0  0  0  0  0  0
    4.6908    0.0727    0.4572 N   0  0  0  0  0  0  0  0  0  0  0  0
    5.0824    0.1810   -0.8908 C   0  0  0  0  0  0  0  0  0  0  0  0
    4.4861    0.8383   -1.9663 C   0  0  0  0  0  0  0  0  0  0  0  0
    5.0992    0.7840   -3.1932 C   0  0  0  0  0  0  0  0  0  0  0  0
    6.2984    0.0864   -3.3702 C   0  0  0  0  0  0  0  0  0  0  0  0
    6.9002   -0.5641   -2.3204 C   0  0  0  0  0  0  0  0  0  0  0  0
    6.2895   -0.5171   -1.0657 C   0  0  0  0  0  0  0  0  0  0  0  0
    6.6523   -1.0752    0.2147 C   0  0  0  0  0  0  0  0  0  0  0  0
    7.7318   -1.8573    0.6297 C   0  0  0  0  0  0  0  0  0  0  0  0
    7.7941   -2.2495    1.9450 C   0  0  0  0  0  0  0  0  0  0  0  0
    6.7992   -1.8778    2.8550 C   0  0  0  0  0  0  0  0  0  0  0  0
    5.7324   -1.1083    2.4625 C   0  0  0  0  0  0  0  0  0  0  0  0
    5.6562   -0.6989    1.1318 C   0  0  0  0  0  0  0  0  0  0  0  0
    2.2615    0.3167    0.5455 C   0  0  0  0  0  0  0  0  0  0  0  0
    1.1317    0.8763    1.1357 C   0  0  0  0  0  0  0  0  0  0  0  0
   -0.2692    0.7402    0.8732 C   0  0  0  0  0  0  0  0  0  0  0  0
   -0.9682    0.0009   -0.0598 C   0  0  0  0  0  0  0  0  0  0  0  0
   -2.3411    0.1309    0.0137 C   0  0  0  0  0  0  0  0  0  0  0  0
   -6.2291    0.2395    1.9123 H   0  0  0  0  0  0  0  0  0  0  0  0
   -7.1377   -1.2211    1.5296 H   0  0  0  0  0  0  0  0  0  0  0  0
   -7.9937    0.2758    1.9109 H   0  0  0  0  0  0  0  0  0  0  0  0
   -6.1665    2.1750    0.2751 H   0  0  0  0  0  0  0  0  0  0  0  0
   -7.9304    2.2348    0.2511 H   0  0  0  0  0  0  0  0  0  0  0  0
   -7.0287    2.0725   -1.2586 H   0  0  0  0  0  0  0  0  0  0  0  0
   -8.4525   -1.3647   -0.6635 H   0  0  0  0  0  0  0  0  0  0  0  0
   -8.4114   -0.0136   -1.8041 H   0  0  0  0  0  0  0  0  0  0  0  0
   -9.2674    0.1459   -0.2746 H   0  0  0  0  0  0  0  0  0  0  0  0
   -6.7739   -1.5432   -2.2020 H   0  0  0  0  0  0  0  0  0  0  0  0
   -4.6943   -2.4145   -3.1442 H   0  0  0  0  0  0  0  0  0  0  0  0
   -2.5118   -1.7295   -2.2207 H   0  0  0  0  0  0  0  0  0  0  0  0
    2.5951    2.7700    3.5397 H   0  0  0  0  0  0  0  0  0  0  0  0
    4.6007    1.7742    2.4886 H   0  0  0  0  0  0  0  0  0  0  0  0
    3.5665    1.3767   -1.8193 H   0  0  0  0  0  0  0  0  0  0  0  0
    4.6506    1.2879   -4.0340 H   0  0  0  0  0  0  0  0  0  0  0  0
    6.7571    0.0607   -4.3446 H   0  0  0  0  0  0  0  0  0  0  0  0
    7.8237   -1.1014   -2.4474 H   0  0  0  0  0  0  0  0  0  0  0  0
    8.4914   -2.1415   -0.0774 H   0  0  0  0  0  0  0  0  0  0  0  0
    8.6198   -2.8542    2.2811 H   0  0  0  0  0  0  0  0  0  0  0  0
    6.8714   -2.2026    3.8802 H   0  0  0  0  0  0  0  0  0  0  0  0
    4.9592   -0.8228    3.1536 H   0  0  0  0  0  0  0  0  0  0  0  0
    2.1674   -0.3665   -0.2773 H   0  0  0  0  0  0  0  0  0  0  0  0
   -0.4830   -0.6281   -0.7823 H   0  0  0  0  0  0  0  0  0  0  0  0
  1  2  1  0  0  0  0
  2  3  1  0  0  0  0
  2  4  1  0  0  0  0
  2  5  1  0  0  0  0
  5  6  2  0  0  0  0
  6  7  1  0  0  0  0
  7  8  2  0  0  0  0
  8  9  1  0  0  0  0
  9 10  2  0  0  0  0
 10 11  1  0  0  0  0
 11 12  1  0  0  0  0
 12 13  2  0  0  0  0
 13 14  1  0  0  0  0
 14 15  1  0  0  0  0
 15 16  1  0  0  0  0
 16 17  2  0  0  0  0
 17 18  1  0  0  0  0
 18 19  2  0  0  0  0
 19 20  1  0  0  0  0
 20 21  1  0  0  0  0
 21 22  2  0  0  0  0
 22 23  1  0  0  0  0
 23 24  2  0  0  0  0
 24 25  1  0  0  0  0
 25 26  2  0  0  0  0
 26 27  1  0  0  0  0
 27 28  2  0  0  0  0
 28 29  1  0  0  0  0
 29 30  2  0  0  0  0
 30 31  1  0  0  0  0
 31 32  2  0  0  0  0
 19 33  1  0  0  0  0
 33 34  2  0  0  0  0
 34 35  1  0  0  0  0
 35 36  1  0  0  0  0
 36 37  2  0  0  0  0
 10  5  1  0  0  0  0
 37 12  1  0  0  0  0
 37  9  1  0  0  0  0
 35 14  2  0  0  0  0
 34 16  1  0  0  0  0
 32 20  1  0  0  0  0
 26 21  1  0  0  0  0
 32 27  1  0  0  0  0
  1 38  1  0  0  0  0
  1 39  1  0  0  0  0
  1 40  1  0  0  0  0
  3 41  1  0  0  0  0
  3 42  1  0  0  0  0
  3 43  1  0  0  0  0
  4 44  1  0  0  0  0
  4 45  1  0  0  0  0
  4 46  1  0  0  0  0
  6 47  1  0  0  0  0
  7 48  1  0  0  0  0
  8 49  1  0  0  0  0
 17 50  1  0  0  0  0
 18 51  1  0  0  0  0
 22 52  1  0  0  0  0
 23 53  1  0  0  0  0
 24 54  1  0  0  0  0
 25 55  1  0  0  0  0
 28 56  1  0  0  0  0
 29 57  1  0  0  0  0
 30 58  1  0  0  0  0
 31 59  1  0  0  0  0
 33 60  1  0  0  0  0
 36 61  1  0  0  0  0
M  END
