
  xtb     03012221223D
 energy: -17.440161345630 gnorm: 0.000701696853 xtb: 6.4.1 (afa7bdf)
 78 83  0     0  0            999 V2000
   -5.9624    0.1532   -0.2652 C   0  0  0  0  0  0  0  0  0  0  0  0
   -6.0495    1.3691   -0.3580 C   0  0  0  0  0  0  0  0  0  0  0  0
   -6.0980    2.7751   -0.4551 C   0  0  0  0  0  0  0  0  0  0  0  0
   -5.3701    3.5707    0.4237 C   0  0  0  0  0  0  0  0  0  0  0  0
   -5.4114    4.9455    0.3276 C   0  0  0  0  0  0  0  0  0  0  0  0
   -6.1791    5.5478   -0.6479 C   0  0  0  0  0  0  0  0  0  0  0  0
   -6.9059    4.7725   -1.5280 C   0  0  0  0  0  0  0  0  0  0  0  0
   -6.8662    3.3976   -1.4332 C   0  0  0  0  0  0  0  0  0  0  0  0
   -5.8505   -1.2431   -0.1524 C   0  0  0  0  0  0  0  0  0  0  0  0
   -7.0406   -1.9885   -0.2466 C   0  0  0  0  0  0  0  0  0  0  0  0
   -8.0786   -2.6308   -0.3210 C   0  0  0  0  0  0  0  0  0  0  0  0
   -9.2802   -3.3656   -0.4006 C   0  0  0  0  0  0  0  0  0  0  0  0
   -9.2753   -4.7531   -0.2995 C   0  0  0  0  0  0  0  0  0  0  0  0
  -10.4512   -5.4691   -0.3752 C   0  0  0  0  0  0  0  0  0  0  0  0
  -11.6513   -4.8115   -0.5530 C   0  0  0  0  0  0  0  0  0  0  0  0
  -11.6734   -3.4355   -0.6550 C   0  0  0  0  0  0  0  0  0  0  0  0
  -10.4984   -2.7179   -0.5795 C   0  0  0  0  0  0  0  0  0  0  0  0
   -4.6902   -1.9135    0.0358 C   0  0  0  0  0  0  0  0  0  0  0  0
   -3.3392   -1.3861    0.1780 C   0  0  0  0  0  0  0  0  0  0  0  0
   -3.0410   -0.0237    0.2421 C   0  0  0  0  0  0  0  0  0  0  0  0
   -1.7494    0.4195    0.3897 C   0  0  0  0  0  0  0  0  0  0  0  0
   -0.6861   -0.4786    0.4799 C   0  0  0  0  0  0  0  0  0  0  0  0
    0.7033   -0.0018    0.6368 C   0  0  0  0  0  0  0  0  0  0  0  0
    0.9953    1.1347    1.3915 C   0  0  0  0  0  0  0  0  0  0  0  0
    2.2882    1.5775    1.5352 C   0  0  0  0  0  0  0  0  0  0  0  0
    3.3561    0.9100    0.9292 C   0  0  0  0  0  0  0  0  0  0  0  0
    4.7068    1.4226    1.1210 C   0  0  0  0  0  0  0  0  0  0  0  0
    5.8637    1.0049    0.5566 C   0  0  0  0  0  0  0  0  0  0  0  0
    7.0538    1.6682    0.9092 C   0  0  0  0  0  0  0  0  0  0  0  0
    8.0912    2.2433    1.2071 C   0  0  0  0  0  0  0  0  0  0  0  0
    9.2938    2.8997    1.5435 C   0  0  0  0  0  0  0  0  0  0  0  0
   10.2295    2.2899    2.3730 C   0  0  0  0  0  0  0  0  0  0  0  0
   11.4056    2.9314    2.6997 C   0  0  0  0  0  0  0  0  0  0  0  0
   11.6667    4.1923    2.2034 C   0  0  0  0  0  0  0  0  0  0  0  0
   10.7489    4.8109    1.3792 C   0  0  0  0  0  0  0  0  0  0  0  0
    9.5724    4.1708    1.0516 C   0  0  0  0  0  0  0  0  0  0  0  0
    5.9697   -0.0445   -0.3720 C   0  0  0  0  0  0  0  0  0  0  0  0
    6.0487   -0.9632   -1.1748 C   0  0  0  0  0  0  0  0  0  0  0  0
    6.0807   -2.0278   -2.0990 C   0  0  0  0  0  0  0  0  0  0  0  0
    6.8983   -1.9739   -3.2228 C   0  0  0  0  0  0  0  0  0  0  0  0
    6.9206   -3.0141   -4.1276 C   0  0  0  0  0  0  0  0  0  0  0  0
    6.1269   -4.1245   -3.9247 C   0  0  0  0  0  0  0  0  0  0  0  0
    5.3098   -4.1929   -2.8151 C   0  0  0  0  0  0  0  0  0  0  0  0
    5.2858   -3.1537   -1.9094 C   0  0  0  0  0  0  0  0  0  0  0  0
    3.0581   -0.2274    0.1764 C   0  0  0  0  0  0  0  0  0  0  0  0
    1.7668   -0.6730    0.0338 C   0  0  0  0  0  0  0  0  0  0  0  0
   -0.9782   -1.8413    0.4160 C   0  0  0  0  0  0  0  0  0  0  0  0
   -2.2713   -2.2830    0.2706 C   0  0  0  0  0  0  0  0  0  0  0  0
   -4.7721    3.0970    1.1834 H   0  0  0  0  0  0  0  0  0  0  0  0
   -4.8433    5.5501    1.0156 H   0  0  0  0  0  0  0  0  0  0  0  0
   -6.2108    6.6225   -0.7225 H   0  0  0  0  0  0  0  0  0  0  0  0
   -7.5053    5.2420   -2.2909 H   0  0  0  0  0  0  0  0  0  0  0  0
   -7.4307    2.7884   -2.1184 H   0  0  0  0  0  0  0  0  0  0  0  0
   -8.3366   -5.2620   -0.1602 H   0  0  0  0  0  0  0  0  0  0  0  0
  -10.4328   -6.5439   -0.2951 H   0  0  0  0  0  0  0  0  0  0  0  0
  -12.5702   -5.3717   -0.6117 H   0  0  0  0  0  0  0  0  0  0  0  0
  -12.6103   -2.9206   -0.7934 H   0  0  0  0  0  0  0  0  0  0  0  0
  -10.5108   -1.6440   -0.6578 H   0  0  0  0  0  0  0  0  0  0  0  0
   -4.7689   -2.9860    0.0892 H   0  0  0  0  0  0  0  0  0  0  0  0
   -3.8338    0.6952    0.1750 H   0  0  0  0  0  0  0  0  0  0  0  0
   -1.5458    1.4763    0.4190 H   0  0  0  0  0  0  0  0  0  0  0  0
    0.1920    1.6584    1.8809 H   0  0  0  0  0  0  0  0  0  0  0  0
    2.4901    2.4551    2.1250 H   0  0  0  0  0  0  0  0  0  0  0  0
    4.7876    2.2508    1.8043 H   0  0  0  0  0  0  0  0  0  0  0  0
   10.0221    1.3056    2.7573 H   0  0  0  0  0  0  0  0  0  0  0  0
   12.1219    2.4470    3.3433 H   0  0  0  0  0  0  0  0  0  0  0  0
   12.5862    4.6930    2.4589 H   0  0  0  0  0  0  0  0  0  0  0  0
   10.9520    5.7956    0.9904 H   0  0  0  0  0  0  0  0  0  0  0  0
    8.8541    4.6492    0.4077 H   0  0  0  0  0  0  0  0  0  0  0  0
    7.5145   -1.1047   -3.3776 H   0  0  0  0  0  0  0  0  0  0  0  0
    7.5585   -2.9593   -4.9945 H   0  0  0  0  0  0  0  0  0  0  0  0
    6.1446   -4.9371   -4.6325 H   0  0  0  0  0  0  0  0  0  0  0  0
    4.6892   -5.0597   -2.6557 H   0  0  0  0  0  0  0  0  0  0  0  0
    4.6490   -3.2034   -1.0427 H   0  0  0  0  0  0  0  0  0  0  0  0
    3.8511   -0.7670   -0.3028 H   0  0  0  0  0  0  0  0  0  0  0  0
    1.5637   -1.5430   -0.5670 H   0  0  0  0  0  0  0  0  0  0  0  0
   -0.1751   -2.5533    0.5006 H   0  0  0  0  0  0  0  0  0  0  0  0
   -2.4734   -3.3395    0.2271 H   0  0  0  0  0  0  0  0  0  0  0  0
  1  2  3  0  0  0  0
  2  3  1  0  0  0  0
  3  4  2  0  0  0  0
  4  5  1  0  0  0  0
  5  6  2  0  0  0  0
  6  7  1  0  0  0  0
  7  8  2  0  0  0  0
  1  9  1  0  0  0  0
  9 10  1  0  0  0  0
 10 11  3  0  0  0  0
 11 12  1  0  0  0  0
 12 13  2  0  0  0  0
 13 14  1  0  0  0  0
 14 15  2  0  0  0  0
 15 16  1  0  0  0  0
 16 17  2  0  0  0  0
  9 18  2  0  0  0  0
 18 19  1  0  0  0  0
 19 20  2  0  0  0  0
 20 21  1  0  0  0  0
 21 22  2  0  0  0  0
 22 23  1  0  0  0  0
 23 24  2  0  0  0  0
 24 25  1  0  0  0  0
 25 26  2  0  0  0  0
 26 27  1  0  0  0  0
 27 28  2  0  0  0  0
 28 29  1  0  0  0  0
 29 30  3  0  0  0  0
 30 31  1  0  0  0  0
 31 32  2  0  0  0  0
 32 33  1  0  0  0  0
 33 34  2  0  0  0  0
 34 35  1  0  0  0  0
 35 36  2  0  0  0  0
 28 37  1  0  0  0  0
 37 38  3  0  0  0  0
 38 39  1  0  0  0  0
 39 40  2  0  0  0  0
 40 41  1  0  0  0  0
 41 42  2  0  0  0  0
 42 43  1  0  0  0  0
 43 44  2  0  0  0  0
 26 45  1  0  0  0  0
 45 46  2  0  0  0  0
 22 47  1  0  0  0  0
 47 48  2  0  0  0  0
  8  3  1  0  0  0  0
 17 12  1  0  0  0  0
 48 19  1  0  0  0  0
 46 23  1  0  0  0  0
 36 31  1  0  0  0  0
 44 39  1  0  0  0  0
  4 49  1  0  0  0  0
  5 50  1  0  0  0  0
  6 51  1  0  0  0  0
  7 52  1  0  0  0  0
  8 53  1  0  0  0  0
 13 54  1  0  0  0  0
 14 55  1  0  0  0  0
 15 56  1  0  0  0  0
 16 57  1  0  0  0  0
 17 58  1  0  0  0  0
 18 59  1  0  0  0  0
 20 60  1  0  0  0  0
 21 61  1  0  0  0  0
 24 62  1  0  0  0  0
 25 63  1  0  0  0  0
 27 64  1  0  0  0  0
 32 65  1  0  0  0  0
 33 66  1  0  0  0  0
 34 67  1  0  0  0  0
 35 68  1  0  0  0  0
 36 69  1  0  0  0  0
 40 70  1  0  0  0  0
 41 71  1  0  0  0  0
 42 72  1  0  0  0  0
 43 73  1  0  0  0  0
 44 74  1  0  0  0  0
 45 75  1  0  0  0  0
 46 76  1  0  0  0  0
 47 77  1  0  0  0  0
 48 78  1  0  0  0  0
M  END
