
  xtb     03012221253D
 energy: -10.950406319919 gnorm: 0.000273238284 xtb: 6.4.1 (afa7bdf)
 50 55  0     0  0            999 V2000
   -0.0168   -3.8894    1.1800 O   0  0  0  0  0  0  0  0  0  0  0  0
   -0.2565   -2.8302    0.6283 C   0  0  0  0  0  0  0  0  0  0  0  0
   -1.3877   -2.0070    1.1248 C   0  0  0  0  0  0  0  0  0  0  0  0
   -2.3485   -2.7064    1.8448 C   0  0  0  0  0  0  0  0  0  0  0  0
   -3.4786   -2.0996    2.3364 C   0  0  0  0  0  0  0  0  0  0  0  0
   -3.6776   -0.7509    2.1212 C   0  0  0  0  0  0  0  0  0  0  0  0
   -2.7416   -0.0267    1.4293 C   0  0  0  0  0  0  0  0  0  0  0  0
   -1.5759   -0.6131    0.9124 C   0  0  0  0  0  0  0  0  0  0  0  0
   -0.5780    0.2339    0.2709 C   0  0  0  0  0  0  0  0  0  0  0  0
   -0.8528    1.3811   -0.4303 C   0  0  0  0  0  0  0  0  0  0  0  0
   -2.2080    1.8005   -0.8254 C   0  0  0  0  0  0  0  0  0  0  0  0
   -2.5504    3.1462   -0.7446 C   0  0  0  0  0  0  0  0  0  0  0  0
   -3.8034    3.5507   -1.1154 C   0  0  0  0  0  0  0  0  0  0  0  0
   -4.6825    2.5960   -1.5650 C   0  0  0  0  0  0  0  0  0  0  0  0
   -4.2624    1.2908   -1.6211 C   0  0  0  0  0  0  0  0  0  0  0  0
   -3.0613    0.8693   -1.2695 N   0  0  0  0  0  0  0  0  0  0  0  0
    0.2275    2.1528   -0.8418 N   0  0  0  0  0  0  0  0  0  0  0  0
    1.5045    2.0768   -0.4490 N   0  0  0  0  0  0  0  0  0  0  0  0
    1.8082    1.0138    0.2313 C   0  0  0  0  0  0  0  0  0  0  0  0
    3.1342    0.8834    0.7979 C   0  0  0  0  0  0  0  0  0  0  0  0
    4.0390    1.9321    0.6534 C   0  0  0  0  0  0  0  0  0  0  0  0
    5.2976    1.8189    1.1747 C   0  0  0  0  0  0  0  0  0  0  0  0
    5.6213    0.6549    1.8294 C   0  0  0  0  0  0  0  0  0  0  0  0
    4.6706   -0.3321    1.9280 C   0  0  0  0  0  0  0  0  0  0  0  0
    3.4489   -0.2544    1.4374 N   0  0  0  0  0  0  0  0  0  0  0  0
    0.8688   -0.1635    0.3416 C   0  0  0  0  0  0  0  0  0  0  0  0
    1.1285   -1.2030   -0.7127 C   0  0  0  0  0  0  0  0  0  0  0  0
    1.8630   -0.9214   -1.8508 C   0  0  0  0  0  0  0  0  0  0  0  0
    2.0721   -1.8838   -2.8154 C   0  0  0  0  0  0  0  0  0  0  0  0
    1.5361   -3.1436   -2.6525 C   0  0  0  0  0  0  0  0  0  0  0  0
    0.7819   -3.4297   -1.5372 C   0  0  0  0  0  0  0  0  0  0  0  0
    0.5494   -2.4640   -0.5670 C   0  0  0  0  0  0  0  0  0  0  0  0
   -2.1850   -3.7582    2.0085 H   0  0  0  0  0  0  0  0  0  0  0  0
   -4.2063   -2.6734    2.8867 H   0  0  0  0  0  0  0  0  0  0  0  0
   -4.5615   -0.2682    2.5033 H   0  0  0  0  0  0  0  0  0  0  0  0
   -2.8924    1.0288    1.2904 H   0  0  0  0  0  0  0  0  0  0  0  0
   -1.8316    3.8556   -0.3748 H   0  0  0  0  0  0  0  0  0  0  0  0
   -4.0925    4.5884   -1.0560 H   0  0  0  0  0  0  0  0  0  0  0  0
   -5.6798    2.8667   -1.8683 H   0  0  0  0  0  0  0  0  0  0  0  0
   -4.9447    0.5326   -1.9750 H   0  0  0  0  0  0  0  0  0  0  0  0
    0.0244    2.9654   -1.4227 H   0  0  0  0  0  0  0  0  0  0  0  0
    3.7326    2.8198    0.1295 H   0  0  0  0  0  0  0  0  0  0  0  0
    6.0147    2.6187    1.0746 H   0  0  0  0  0  0  0  0  0  0  0  0
    6.6005    0.5195    2.2567 H   0  0  0  0  0  0  0  0  0  0  0  0
    4.9156   -1.2506    2.4402 H   0  0  0  0  0  0  0  0  0  0  0  0
    1.0486   -0.6285    1.3237 H   0  0  0  0  0  0  0  0  0  0  0  0
    2.2642    0.0682   -1.9775 H   0  0  0  0  0  0  0  0  0  0  0  0
    2.6533   -1.6524   -3.6922 H   0  0  0  0  0  0  0  0  0  0  0  0
    1.7049   -3.9029   -3.3983 H   0  0  0  0  0  0  0  0  0  0  0  0
    0.3656   -4.4119   -1.3929 H   0  0  0  0  0  0  0  0  0  0  0  0
  1  2  2  0  0  0  0
  2  3  1  0  0  0  0
  3  4  2  0  0  0  0
  4  5  1  0  0  0  0
  5  6  2  0  0  0  0
  6  7  1  0  0  0  0
  7  8  2  0  0  0  0
  8  9  1  0  0  0  0
  9 10  2  0  0  0  0
 10 11  1  0  0  0  0
 11 12  2  0  0  0  0
 12 13  1  0  0  0  0
 13 14  2  0  0  0  0
 14 15  1  0  0  0  0
 15 16  2  0  0  0  0
 10 17  1  0  0  0  0
 17 18  1  0  0  0  0
 18 19  2  0  0  0  0
 19 20  1  0  0  0  0
 20 21  2  0  0  0  0
 21 22  1  0  0  0  0
 22 23  2  0  0  0  0
 23 24  1  0  0  0  0
 24 25  2  0  0  0  0
 19 26  1  0  0  0  0
 26 27  1  0  0  0  0
 27 28  2  0  0  0  0
 28 29  1  0  0  0  0
 29 30  2  0  0  0  0
 30 31  1  0  0  0  0
 31 32  2  0  0  0  0
 32  2  1  0  0  0  0
  8  3  1  0  0  0  0
 26  9  1  0  0  0  0
 32 27  1  0  0  0  0
 16 11  1  0  0  0  0
 25 20  1  0  0  0  0
  4 33  1  0  0  0  0
  5 34  1  0  0  0  0
  6 35  1  0  0  0  0
  7 36  1  0  0  0  0
 12 37  1  0  0  0  0
 13 38  1  0  0  0  0
 14 39  1  0  0  0  0
 15 40  1  0  0  0  0
 17 41  1  0  0  0  0
 21 42  1  0  0  0  0
 22 43  1  0  0  0  0
 23 44  1  0  0  0  0
 24 45  1  0  0  0  0
 26 46  1  0  0  0  0
 28 47  1  0  0  0  0
 29 48  1  0  0  0  0
 30 49  1  0  0  0  0
 31 50  1  0  0  0  0
M  END
