
  xtb     03012221283D
 energy: -16.284783462131 gnorm: 0.000169599983 xtb: 6.4.1 (afa7bdf)
 91 95  0     0  0            999 V2000
    0.6337   -3.3738   -2.5976 C   0  0  0  0  0  0  0  0  0  0  0  0
    0.9204   -2.4175   -1.4507 C   0  0  0  0  0  0  0  0  0  0  0  0
   -0.1815   -1.3734   -1.2729 C   0  0  0  0  0  0  0  0  0  0  0  0
   -0.0204   -0.4117   -0.0661 C   0  0  0  0  0  0  0  0  0  0  0  0
    0.1059   -1.1572    1.2887 C   0  0  0  0  0  0  0  0  0  0  0  0
   -1.0360   -2.1108    1.6390 C   0  0  0  0  0  0  0  0  0  0  0  0
   -0.7856   -2.8640    2.9360 C   0  0  0  0  0  0  0  0  0  0  0  0
    1.1919    0.5167   -0.2372 C   0  0  0  0  0  0  0  0  0  0  0  0
    2.5405    0.2310   -0.2614 C   0  0  0  0  0  0  0  0  0  0  0  0
    3.4728    1.2623   -0.4030 C   0  0  0  0  0  0  0  0  0  0  0  0
    4.9225    0.9612   -0.4461 C   0  0  0  0  0  0  0  0  0  0  0  0
    5.4030   -0.1573   -1.1214 C   0  0  0  0  0  0  0  0  0  0  0  0
    6.7521   -0.4360   -1.1633 C   0  0  0  0  0  0  0  0  0  0  0  0
    7.6782    0.3908   -0.5388 C   0  0  0  0  0  0  0  0  0  0  0  0
    9.1892    0.0998   -0.5544 C   0  0  0  0  0  0  0  0  0  0  0  0
    9.5236   -1.0707   -1.4994 C   0  0  0  0  0  0  0  0  0  0  0  0
    9.9398    1.3495   -1.0541 C   0  0  0  0  0  0  0  0  0  0  0  0
    9.6303   -0.2577    0.8929 C   0  0  0  0  0  0  0  0  0  0  0  0
   11.1102   -0.5630    1.0629 C   0  0  0  0  0  0  0  0  0  0  0  0
    7.1959    1.5012    0.1420 C   0  0  0  0  0  0  0  0  0  0  0  0
    5.8484    1.7848    0.1879 C   0  0  0  0  0  0  0  0  0  0  0  0
    3.0141    2.5811   -0.5017 C   0  0  0  0  0  0  0  0  0  0  0  0
    1.6704    2.8781   -0.4511 C   0  0  0  0  0  0  0  0  0  0  0  0
    0.7560    1.8424   -0.3122 C   0  0  0  0  0  0  0  0  0  0  0  0
   -0.7040    1.8815   -0.2021 C   0  0  0  0  0  0  0  0  0  0  0  0
   -1.5754    2.9619   -0.2457 C   0  0  0  0  0  0  0  0  0  0  0  0
   -2.9303    2.7314   -0.1610 C   0  0  0  0  0  0  0  0  0  0  0  0
   -3.4419    1.4336   -0.0467 C   0  0  0  0  0  0  0  0  0  0  0  0
   -4.9038    1.2027    0.0219 C   0  0  0  0  0  0  0  0  0  0  0  0
   -5.7229    2.0138    0.8019 C   0  0  0  0  0  0  0  0  0  0  0  0
   -7.0825    1.7974    0.8649 C   0  0  0  0  0  0  0  0  0  0  0  0
   -7.6819    0.7682    0.1487 C   0  0  0  0  0  0  0  0  0  0  0  0
   -9.1951    0.4942    0.2046 C   0  0  0  0  0  0  0  0  0  0  0  0
   -9.7573    0.4756   -1.2299 C   0  0  0  0  0  0  0  0  0  0  0  0
   -9.9334    1.5913    0.9960 C   0  0  0  0  0  0  0  0  0  0  0  0
   -9.4161   -0.8818    0.8939 C   0  0  0  0  0  0  0  0  0  0  0  0
  -10.8678   -1.3133    1.0301 C   0  0  0  0  0  0  0  0  0  0  0  0
   -6.8613   -0.0443   -0.6232 C   0  0  0  0  0  0  0  0  0  0  0  0
   -5.5012    0.1656   -0.6886 C   0  0  0  0  0  0  0  0  0  0  0  0
   -2.5531    0.3563   -0.0051 C   0  0  0  0  0  0  0  0  0  0  0  0
   -1.1938    0.5802   -0.0612 C   0  0  0  0  0  0  0  0  0  0  0  0
    0.5324   -2.8370   -3.5431 H   0  0  0  0  0  0  0  0  0  0  0  0
   -0.2995   -3.9171   -2.4351 H   0  0  0  0  0  0  0  0  0  0  0  0
    1.4271   -4.1145   -2.7237 H   0  0  0  0  0  0  0  0  0  0  0  0
    1.0505   -2.9821   -0.5187 H   0  0  0  0  0  0  0  0  0  0  0  0
    1.8797   -1.9141   -1.6213 H   0  0  0  0  0  0  0  0  0  0  0  0
   -0.2574   -0.7680   -2.1825 H   0  0  0  0  0  0  0  0  0  0  0  0
   -1.1484   -1.8791   -1.1894 H   0  0  0  0  0  0  0  0  0  0  0  0
    1.0517   -1.7076    1.2974 H   0  0  0  0  0  0  0  0  0  0  0  0
    0.2083   -0.4079    2.0809 H   0  0  0  0  0  0  0  0  0  0  0  0
   -1.9744   -1.5483    1.7146 H   0  0  0  0  0  0  0  0  0  0  0  0
   -1.1897   -2.8230    0.8184 H   0  0  0  0  0  0  0  0  0  0  0  0
    0.1259   -3.4622    2.8757 H   0  0  0  0  0  0  0  0  0  0  0  0
   -0.6633   -2.1757    3.7748 H   0  0  0  0  0  0  0  0  0  0  0  0
   -1.6068   -3.5410    3.1837 H   0  0  0  0  0  0  0  0  0  0  0  0
    2.8813   -0.7792   -0.1327 H   0  0  0  0  0  0  0  0  0  0  0  0
    4.7045   -0.8025   -1.6265 H   0  0  0  0  0  0  0  0  0  0  0  0
    7.0855   -1.3116   -1.6914 H   0  0  0  0  0  0  0  0  0  0  0  0
    9.0872   -2.0032   -1.1423 H   0  0  0  0  0  0  0  0  0  0  0  0
   10.6001   -1.2184   -1.5775 H   0  0  0  0  0  0  0  0  0  0  0  0
    9.1511   -0.8766   -2.5052 H   0  0  0  0  0  0  0  0  0  0  0  0
    9.8373    2.1819   -0.3592 H   0  0  0  0  0  0  0  0  0  0  0  0
    9.5494    1.6688   -2.0203 H   0  0  0  0  0  0  0  0  0  0  0  0
   11.0035    1.1491   -1.1778 H   0  0  0  0  0  0  0  0  0  0  0  0
    9.0310   -1.1125    1.2282 H   0  0  0  0  0  0  0  0  0  0  0  0
    9.3459    0.5679    1.5552 H   0  0  0  0  0  0  0  0  0  0  0  0
   11.3595   -0.7962    2.1013 H   0  0  0  0  0  0  0  0  0  0  0  0
   11.4178   -1.4197    0.4608 H   0  0  0  0  0  0  0  0  0  0  0  0
   11.7322    0.2836    0.7666 H   0  0  0  0  0  0  0  0  0  0  0  0
    7.8882    2.1508    0.6490 H   0  0  0  0  0  0  0  0  0  0  0  0
    5.4979    2.6456    0.7313 H   0  0  0  0  0  0  0  0  0  0  0  0
    3.7316    3.3734   -0.6248 H   0  0  0  0  0  0  0  0  0  0  0  0
    1.3225    3.8945   -0.5156 H   0  0  0  0  0  0  0  0  0  0  0  0
   -1.1865    3.9598   -0.3519 H   0  0  0  0  0  0  0  0  0  0  0  0
   -3.6175    3.5583   -0.2051 H   0  0  0  0  0  0  0  0  0  0  0  0
   -5.2772    2.8115    1.3715 H   0  0  0  0  0  0  0  0  0  0  0  0
   -7.6825    2.4397    1.4847 H   0  0  0  0  0  0  0  0  0  0  0  0
  -10.8430    0.3845   -1.2285 H   0  0  0  0  0  0  0  0  0  0  0  0
   -9.5038    1.3984   -1.7515 H   0  0  0  0  0  0  0  0  0  0  0  0
   -9.3544   -0.3564   -1.8060 H   0  0  0  0  0  0  0  0  0  0  0  0
   -9.7341    2.5761    0.5737 H   0  0  0  0  0  0  0  0  0  0  0  0
   -9.6292    1.5949    2.0425 H   0  0  0  0  0  0  0  0  0  0  0  0
  -11.0119    1.4406    0.9656 H   0  0  0  0  0  0  0  0  0  0  0  0
   -8.8568   -1.6420    0.3367 H   0  0  0  0  0  0  0  0  0  0  0  0
   -8.9424   -0.8456    1.8821 H   0  0  0  0  0  0  0  0  0  0  0  0
  -11.4433   -0.6103    1.6349 H   0  0  0  0  0  0  0  0  0  0  0  0
  -11.3591   -1.3852    0.0581 H   0  0  0  0  0  0  0  0  0  0  0  0
  -10.9568   -2.2925    1.5078 H   0  0  0  0  0  0  0  0  0  0  0  0
   -7.2962   -0.8556   -1.1810 H   0  0  0  0  0  0  0  0  0  0  0  0
   -4.8863   -0.4688   -1.3041 H   0  0  0  0  0  0  0  0  0  0  0  0
   -2.9350   -0.6455    0.0556 H   0  0  0  0  0  0  0  0  0  0  0  0
  1  2  1  0  0  0  0
  2  3  1  0  0  0  0
  3  4  1  0  0  0  0
  4  5  1  0  0  0  0
  5  6  1  0  0  0  0
  6  7  1  0  0  0  0
  4  8  1  0  0  0  0
  8  9  2  0  0  0  0
  9 10  1  0  0  0  0
 10 11  1  0  0  0  0
 11 12  2  0  0  0  0
 12 13  1  0  0  0  0
 13 14  2  0  0  0  0
 14 15  1  0  0  0  0
 15 16  1  0  0  0  0
 15 17  1  0  0  0  0
 15 18  1  0  0  0  0
 18 19  1  0  0  0  0
 14 20  1  0  0  0  0
 20 21  2  0  0  0  0
 10 22  2  0  0  0  0
 22 23  1  0  0  0  0
 23 24  2  0  0  0  0
 24 25  1  0  0  0  0
 25 26  2  0  0  0  0
 26 27  1  0  0  0  0
 27 28  2  0  0  0  0
 28 29  1  0  0  0  0
 29 30  2  0  0  0  0
 30 31  1  0  0  0  0
 31 32  2  0  0  0  0
 32 33  1  0  0  0  0
 33 34  1  0  0  0  0
 33 35  1  0  0  0  0
 33 36  1  0  0  0  0
 36 37  1  0  0  0  0
 32 38  1  0  0  0  0
 38 39  2  0  0  0  0
 28 40  1  0  0  0  0
 40 41  2  0  0  0  0
 41  4  1  0  0  0  0
 24  8  1  0  0  0  0
 41 25  1  0  0  0  0
 21 11  1  0  0  0  0
 39 29  1  0  0  0  0
  1 42  1  0  0  0  0
  1 43  1  0  0  0  0
  1 44  1  0  0  0  0
  2 45  1  0  0  0  0
  2 46  1  0  0  0  0
  3 47  1  0  0  0  0
  3 48  1  0  0  0  0
  5 49  1  0  0  0  0
  5 50  1  0  0  0  0
  6 51  1  0  0  0  0
  6 52  1  0  0  0  0
  7 53  1  0  0  0  0
  7 54  1  0  0  0  0
  7 55  1  0  0  0  0
  9 56  1  0  0  0  0
 12 57  1  0  0  0  0
 13 58  1  0  0  0  0
 16 59  1  0  0  0  0
 16 60  1  0  0  0  0
 16 61  1  0  0  0  0
 17 62  1  0  0  0  0
 17 63  1  0  0  0  0
 17 64  1  0  0  0  0
 18 65  1  0  0  0  0
 18 66  1  0  0  0  0
 19 67  1  0  0  0  0
 19 68  1  0  0  0  0
 19 69  1  0  0  0  0
 20 70  1  0  0  0  0
 21 71  1  0  0  0  0
 22 72  1  0  0  0  0
 23 73  1  0  0  0  0
 26 74  1  0  0  0  0
 27 75  1  0  0  0  0
 30 76  1  0  0  0  0
 31 77  1  0  0  0  0
 34 78  1  0  0  0  0
 34 79  1  0  0  0  0
 34 80  1  0  0  0  0
 35 81  1  0  0  0  0
 35 82  1  0  0  0  0
 35 83  1  0  0  0  0
 36 84  1  0  0  0  0
 36 85  1  0  0  0  0
 37 86  1  0  0  0  0
 37 87  1  0  0  0  0
 37 88  1  0  0  0  0
 38 89  1  0  0  0  0
 39 90  1  0  0  0  0
 40 91  1  0  0  0  0
M  END
