
  xtb     03012221273D
 energy: -18.537016539254 gnorm: 0.000212089675 xtb: 6.4.1 (afa7bdf)
 92101  0     0  0            999 V2000
   -9.3025   -1.9932   -0.0381 C   0  0  0  0  0  0  0  0  0  0  0  0
   -8.8511   -0.7206   -0.4341 O   0  0  0  0  0  0  0  0  0  0  0  0
   -7.4754   -0.5430   -0.3717 C   0  0  0  0  0  0  0  0  0  0  0  0
   -6.9673    0.7064   -0.7691 C   0  0  0  0  0  0  0  0  0  0  0  0
   -5.6289    0.9605   -0.7431 C   0  0  0  0  0  0  0  0  0  0  0  0
   -4.7211   -0.0165   -0.3179 C   0  0  0  0  0  0  0  0  0  0  0  0
   -3.3048    0.2333   -0.2948 C   0  0  0  0  0  0  0  0  0  0  0  0
   -2.3898   -0.7759    0.1339 C   0  0  0  0  0  0  0  0  0  0  0  0
   -2.8549   -2.0598    0.5631 C   0  0  0  0  0  0  0  0  0  0  0  0
   -1.9718   -3.0544    0.9961 C   0  0  0  0  0  0  0  0  0  0  0  0
   -2.4253   -4.2700    1.4076 C   0  0  0  0  0  0  0  0  0  0  0  0
   -3.7997   -4.5624    1.4097 C   0  0  0  0  0  0  0  0  0  0  0  0
   -4.1805   -5.8239    1.8460 O   0  0  0  0  0  0  0  0  0  0  0  0
   -5.5668   -6.0666    1.8297 C   0  0  0  0  0  0  0  0  0  0  0  0
   -4.6833   -3.5715    0.9767 C   0  0  0  0  0  0  0  0  0  0  0  0
   -4.2500   -2.3220    0.5499 C   0  0  0  0  0  0  0  0  0  0  0  0
   -5.1969   -1.2868    0.0958 C   0  0  0  0  0  0  0  0  0  0  0  0
   -6.5673   -1.5149    0.0554 C   0  0  0  0  0  0  0  0  0  0  0  0
   -1.1520   -0.2307    0.0304 N   0  0  0  0  0  4  0  0  0  0  0  0
   -1.2097    1.0730   -0.4426 C   0  0  0  0  0  0  0  0  0  0  0  0
   -0.0891    1.9001   -0.6546 C   0  0  0  0  0  0  0  0  0  0  0  0
   -0.2249    3.2836   -1.1664 C   0  0  0  0  0  0  0  0  0  0  0  0
   -0.6136    3.5177   -2.5013 C   0  0  0  0  0  0  0  0  0  0  0  0
   -0.8968    2.3872   -3.4286 C   0  0  0  0  0  0  0  0  0  0  0  0
   -0.7414    4.8170   -2.9527 C   0  0  0  0  0  0  0  0  0  0  0  0
   -0.4718    5.9024   -2.1344 C   0  0  0  0  0  0  0  0  0  0  0  0
   -0.6315    7.2935   -2.6405 C   0  0  0  0  0  0  0  0  0  0  0  0
   -0.0898    5.6657   -0.8235 C   0  0  0  0  0  0  0  0  0  0  0  0
    0.0313    4.3839   -0.3229 C   0  0  0  0  0  0  0  0  0  0  0  0
    0.4379    4.1831    1.0958 C   0  0  0  0  0  0  0  0  0  0  0  0
    1.1688    1.3394   -0.3583 C   0  0  0  0  0  0  0  0  0  0  0  0
    2.4492    1.9108   -0.5067 C   0  0  0  0  0  0  0  0  0  0  0  0
    3.3847    0.9652   -0.1011 C   0  0  0  0  0  0  0  0  0  0  0  0
    4.8217    1.0206   -0.0577 C   0  0  0  0  0  0  0  0  0  0  0  0
    5.5245    2.1652   -0.4532 C   0  0  0  0  0  0  0  0  0  0  0  0
    6.8870    2.2053   -0.4119 C   0  0  0  0  0  0  0  0  0  0  0  0
    7.6242    1.0922    0.0310 C   0  0  0  0  0  0  0  0  0  0  0  0
    9.0095    1.0410    0.1058 O   0  0  0  0  0  0  0  0  0  0  0  0
    9.6660    2.2136   -0.3102 C   0  0  0  0  0  0  0  0  0  0  0  0
    6.9193   -0.0474    0.4255 C   0  0  0  0  0  0  0  0  0  0  0  0
    5.5331   -0.1187    0.3952 C   0  0  0  0  0  0  0  0  0  0  0  0
    4.8069   -1.3296    0.8155 C   0  0  0  0  0  0  0  0  0  0  0  0
    5.4713   -2.4614    1.2683 C   0  0  0  0  0  0  0  0  0  0  0  0
    4.8011   -3.6171    1.6739 C   0  0  0  0  0  0  0  0  0  0  0  0
    5.5780   -4.6823    2.1071 O   0  0  0  0  0  0  0  0  0  0  0  0
    4.8524   -5.8214    2.5020 C   0  0  0  0  0  0  0  0  0  0  0  0
    3.3964   -3.6225    1.6179 C   0  0  0  0  0  0  0  0  0  0  0  0
    2.7189   -2.5257    1.1777 C   0  0  0  0  0  0  0  0  0  0  0  0
    3.3893   -1.3678    0.7689 C   0  0  0  0  0  0  0  0  0  0  0  0
    2.6843   -0.2120    0.3042 C   0  0  0  0  0  0  0  0  0  0  0  0
    1.3659    0.0553    0.1300 N   0  0  0  0  0  0  0  0  0  0  0  0
    0.1868   -0.8969    0.3856 B   0  0  0  0  0  4  0  0  0  0  0  0
    0.3480   -2.0253   -0.4201 F   0  0  0  0  0  0  0  0  0  0  0  0
    0.1696   -1.2286    1.7412 F   0  0  0  0  0  0  0  0  0  0  0  0
   -2.5745    1.3648   -0.6416 C   0  0  0  0  0  0  0  0  0  0  0  0
  -10.3889   -2.0196   -0.1337 H   0  0  0  0  0  0  0  0  0  0  0  0
   -9.0359   -2.1760    1.0040 H   0  0  0  0  0  0  0  0  0  0  0  0
   -8.8731   -2.7593   -0.6856 H   0  0  0  0  0  0  0  0  0  0  0  0
   -7.6650    1.4565   -1.0966 H   0  0  0  0  0  0  0  0  0  0  0  0
   -5.2572    1.9213   -1.0532 H   0  0  0  0  0  0  0  0  0  0  0  0
   -0.9191   -2.8409    0.9999 H   0  0  0  0  0  0  0  0  0  0  0  0
   -1.7421   -5.0308    1.7405 H   0  0  0  0  0  0  0  0  0  0  0  0
   -5.9473   -5.9798    0.8116 H   0  0  0  0  0  0  0  0  0  0  0  0
   -5.7425   -7.0815    2.1872 H   0  0  0  0  0  0  0  0  0  0  0  0
   -6.0742   -5.3652    2.4927 H   0  0  0  0  0  0  0  0  0  0  0  0
   -5.7311   -3.7904    0.9797 H   0  0  0  0  0  0  0  0  0  0  0  0
   -6.9497   -2.4677    0.3586 H   0  0  0  0  0  0  0  0  0  0  0  0
   -0.5571    2.6152   -4.4393 H   0  0  0  0  0  0  0  0  0  0  0  0
   -1.9660    2.1783   -3.4713 H   0  0  0  0  0  0  0  0  0  0  0  0
   -0.3892    1.4764   -3.1097 H   0  0  0  0  0  0  0  0  0  0  0  0
   -1.0524    4.9908   -3.9675 H   0  0  0  0  0  0  0  0  0  0  0  0
   -0.4154    7.3509   -3.7077 H   0  0  0  0  0  0  0  0  0  0  0  0
   -1.6508    7.6475   -2.4835 H   0  0  0  0  0  0  0  0  0  0  0  0
    0.0454    7.9784   -2.1289 H   0  0  0  0  0  0  0  0  0  0  0  0
    0.1101    6.5018   -0.1773 H   0  0  0  0  0  0  0  0  0  0  0  0
    0.0667    3.2335    1.4824 H   0  0  0  0  0  0  0  0  0  0  0  0
    1.5238    4.1835    1.1924 H   0  0  0  0  0  0  0  0  0  0  0  0
    0.0423    4.9742    1.7333 H   0  0  0  0  0  0  0  0  0  0  0  0
    2.6567    2.8976   -0.8789 H   0  0  0  0  0  0  0  0  0  0  0  0
    4.9722    3.0231   -0.7947 H   0  0  0  0  0  0  0  0  0  0  0  0
    7.4011    3.0967   -0.7213 H   0  0  0  0  0  0  0  0  0  0  0  0
    9.4317    2.4207   -1.3554 H   0  0  0  0  0  0  0  0  0  0  0  0
    9.3702    3.0509    0.3237 H   0  0  0  0  0  0  0  0  0  0  0  0
   10.7417    2.0602   -0.2132 H   0  0  0  0  0  0  0  0  0  0  0  0
    7.5024   -0.8832    0.7587 H   0  0  0  0  0  0  0  0  0  0  0  0
    6.5418   -2.4816    1.3220 H   0  0  0  0  0  0  0  0  0  0  0  0
    5.5605   -6.5899    2.8130 H   0  0  0  0  0  0  0  0  0  0  0  0
    4.2672   -6.1978    1.6624 H   0  0  0  0  0  0  0  0  0  0  0  0
    4.2047   -5.5742    3.3437 H   0  0  0  0  0  0  0  0  0  0  0  0
    2.8507   -4.4955    1.9251 H   0  0  0  0  0  0  0  0  0  0  0  0
    1.6453   -2.5342    1.1418 H   0  0  0  0  0  0  0  0  0  0  0  0
   -2.9712    2.2985   -0.9968 H   0  0  0  0  0  0  0  0  0  0  0  0
  1  2  1  0  0  0  0
  2  3  1  0  0  0  0
  3  4  2  0  0  0  0
  4  5  1  0  0  0  0
  5  6  2  0  0  0  0
  6  7  1  0  0  0  0
  7  8  1  0  0  0  0
  8  9  1  0  0  0  0
  9 10  2  0  0  0  0
 10 11  1  0  0  0  0
 11 12  2  0  0  0  0
 12 13  1  0  0  0  0
 13 14  1  0  0  0  0
 12 15  1  0  0  0  0
 15 16  2  0  0  0  0
 16 17  1  0  0  0  0
 17 18  2  0  0  0  0
  8 19  2  0  0  0  0
 19 20  1  0  0  0  0
 20 21  2  0  0  0  0
 21 22  1  0  0  0  0
 22 23  2  0  0  0  0
 23 24  1  0  0  0  0
 23 25  1  0  0  0  0
 25 26  2  0  0  0  0
 26 27  1  0  0  0  0
 26 28  1  0  0  0  0
 28 29  2  0  0  0  0
 29 30  1  0  0  0  0
 21 31  1  0  0  0  0
 31 32  2  0  0  0  0
 32 33  1  0  0  0  0
 33 34  2  0  0  0  0
 34 35  1  0  0  0  0
 35 36  2  0  0  0  0
 36 37  1  0  0  0  0
 37 38  1  0  0  0  0
 38 39  1  0  0  0  0
 37 40  2  0  0  0  0
 40 41  1  0  0  0  0
 41 42  2  0  0  0  0
 42 43  1  0  0  0  0
 43 44  2  0  0  0  0
 44 45  1  0  0  0  0
 45 46  1  0  0  0  0
 44 47  1  0  0  0  0
 47 48  2  0  0  0  0
 48 49  1  0  0  0  0
 49 50  2  0  0  0  0
 50 51  1  0  0  0  0
 51 52  1  0  0  0  0
 52 53  1  0  0  0  0
 52 54  1  0  0  0  0
 20 55  1  0  0  0  0
 18  3  1  0  0  0  0
 52 19  1  0  0  0  0
 17  6  1  0  0  0  0
 29 22  1  0  0  0  0
 51 31  1  0  0  0  0
 55  7  2  0  0  0  0
 16  9  1  0  0  0  0
 50 33  1  0  0  0  0
 41 34  1  0  0  0  0
 49 42  1  0  0  0  0
  1 56  1  0  0  0  0
  1 57  1  0  0  0  0
  1 58  1  0  0  0  0
  4 59  1  0  0  0  0
  5 60  1  0  0  0  0
 10 61  1  0  0  0  0
 11 62  1  0  0  0  0
 14 63  1  0  0  0  0
 14 64  1  0  0  0  0
 14 65  1  0  0  0  0
 15 66  1  0  0  0  0
 18 67  1  0  0  0  0
 24 68  1  0  0  0  0
 24 69  1  0  0  0  0
 24 70  1  0  0  0  0
 25 71  1  0  0  0  0
 27 72  1  0  0  0  0
 27 73  1  0  0  0  0
 27 74  1  0  0  0  0
 28 75  1  0  0  0  0
 30 76  1  0  0  0  0
 30 77  1  0  0  0  0
 30 78  1  0  0  0  0
 32 79  1  0  0  0  0
 35 80  1  0  0  0  0
 36 81  1  0  0  0  0
 39 82  1  0  0  0  0
 39 83  1  0  0  0  0
 39 84  1  0  0  0  0
 40 85  1  0  0  0  0
 43 86  1  0  0  0  0
 46 87  1  0  0  0  0
 46 88  1  0  0  0  0
 46 89  1  0  0  0  0
 47 90  1  0  0  0  0
 48 91  1  0  0  0  0
 55 92  1  0  0  0  0
M  CHG  1  19   1
M  CHG  1  52  -1
M  END
