
  xtb     03012221263D
 energy: -9.390009914785 gnorm: 0.000139258452 xtb: 6.4.1 (afa7bdf)
 48 51  0     0  0            999 V2000
    4.8911   -1.1393   -1.0914 C   0  0  0  0  0  0  0  0  0  0  0  0
    5.3916    0.2698   -0.7814 C   0  0  0  0  0  0  0  0  0  0  0  0
    6.9167    0.3500   -0.8379 C   0  0  0  0  0  0  0  0  0  0  0  0
    4.8616    0.7385    0.5744 C   0  0  0  0  0  0  0  0  0  0  0  0
    3.4134    0.7384    0.6094 N   0  0  0  0  0  0  0  0  0  0  0  0
    2.7469    1.7612   -0.0771 C   0  0  0  0  0  0  0  0  0  0  0  0
    3.3631    2.6072   -0.7005 O   0  0  0  0  0  0  0  0  0  0  0  0
    1.2807    1.7695   -0.0264 C   0  0  0  0  0  0  0  0  0  0  0  0
    0.5668    2.7634   -0.6480 C   0  0  0  0  0  0  0  0  0  0  0  0
   -0.8252    2.7803   -0.6010 C   0  0  0  0  0  0  0  0  0  0  0  0
   -1.5049    1.8018    0.0654 C   0  0  0  0  0  0  0  0  0  0  0  0
   -0.8197    0.7560    0.7153 C   0  0  0  0  0  0  0  0  0  0  0  0
   -1.4952   -0.2841    1.4098 C   0  0  0  0  0  0  0  0  0  0  0  0
   -3.2623   -0.3348    1.4809 S   0  0  0  0  0  0  0  0  0  0  0  0
   -3.5506   -1.0872   -0.1036 C   0  0  0  0  0  0  0  0  0  0  0  0
   -4.9966   -1.0794   -0.4559 C   0  0  0  0  0  0  0  0  0  0  0  0
   -5.8319   -2.1057   -0.0363 C   0  0  0  0  0  0  0  0  0  0  0  0
   -7.1824   -2.0721   -0.3160 C   0  0  0  0  0  0  0  0  0  0  0  0
   -7.7167   -1.0089   -1.0127 C   0  0  0  0  0  0  0  0  0  0  0  0
   -6.9010    0.0232   -1.4260 C   0  0  0  0  0  0  0  0  0  0  0  0
   -5.5505   -0.0095   -1.1460 C   0  0  0  0  0  0  0  0  0  0  0  0
   -0.7730   -1.2735    2.0299 C   0  0  0  0  0  0  0  0  0  0  0  0
    0.6166   -1.2810    1.9850 C   0  0  0  0  0  0  0  0  0  0  0  0
    1.3072   -0.2967    1.3190 C   0  0  0  0  0  0  0  0  0  0  0  0
    0.5942    0.7428    0.6705 C   0  0  0  0  0  0  0  0  0  0  0  0
    2.7710   -0.3163    1.2724 C   0  0  0  0  0  0  0  0  0  0  0  0
    3.4085   -1.2228    1.7798 O   0  0  0  0  0  0  0  0  0  0  0  0
    5.2359   -1.4853   -2.0662 H   0  0  0  0  0  0  0  0  0  0  0  0
    3.8015   -1.1803   -1.0812 H   0  0  0  0  0  0  0  0  0  0  0  0
    5.2456   -1.8443   -0.3398 H   0  0  0  0  0  0  0  0  0  0  0  0
    4.9747    0.9572   -1.5396 H   0  0  0  0  0  0  0  0  0  0  0  0
    7.2967    0.0450   -1.8133 H   0  0  0  0  0  0  0  0  0  0  0  0
    7.3632   -0.3054   -0.0905 H   0  0  0  0  0  0  0  0  0  0  0  0
    7.2700    1.3627   -0.6416 H   0  0  0  0  0  0  0  0  0  0  0  0
    5.2233    0.0841    1.3726 H   0  0  0  0  0  0  0  0  0  0  0  0
    5.2065    1.7518    0.8012 H   0  0  0  0  0  0  0  0  0  0  0  0
    1.1080    3.5333   -1.1712 H   0  0  0  0  0  0  0  0  0  0  0  0
   -1.3654    3.5720   -1.0920 H   0  0  0  0  0  0  0  0  0  0  0  0
   -2.5799    1.8195    0.1065 H   0  0  0  0  0  0  0  0  0  0  0  0
   -3.1660   -2.1102   -0.0770 H   0  0  0  0  0  0  0  0  0  0  0  0
   -2.9700   -0.5524   -0.8598 H   0  0  0  0  0  0  0  0  0  0  0  0
   -5.4145   -2.9275    0.5202 H   0  0  0  0  0  0  0  0  0  0  0  0
   -7.8203   -2.8759    0.0132 H   0  0  0  0  0  0  0  0  0  0  0  0
   -8.7720   -0.9827   -1.2304 H   0  0  0  0  0  0  0  0  0  0  0  0
   -7.3191    0.8580   -1.9642 H   0  0  0  0  0  0  0  0  0  0  0  0
   -4.9139    0.8020   -1.4552 H   0  0  0  0  0  0  0  0  0  0  0  0
   -1.3010   -2.0523    2.5530 H   0  0  0  0  0  0  0  0  0  0  0  0
    1.1773   -2.0603    2.4725 H   0  0  0  0  0  0  0  0  0  0  0  0
  1  2  1  0  0  0  0
  2  3  1  0  0  0  0
  2  4  1  0  0  0  0
  4  5  1  0  0  0  0
  5  6  1  0  0  0  0
  6  7  2  0  0  0  0
  6  8  1  0  0  0  0
  8  9  1  0  0  0  0
  9 10  2  0  0  0  0
 10 11  1  0  0  0  0
 11 12  2  0  0  0  0
 12 13  1  0  0  0  0
 13 14  1  0  0  0  0
 14 15  1  0  0  0  0
 15 16  1  0  0  0  0
 16 17  2  0  0  0  0
 17 18  1  0  0  0  0
 18 19  2  0  0  0  0
 19 20  1  0  0  0  0
 20 21  2  0  0  0  0
 13 22  2  0  0  0  0
 22 23  1  0  0  0  0
 23 24  2  0  0  0  0
 24 25  1  0  0  0  0
 24 26  1  0  0  0  0
 26 27  2  0  0  0  0
 26  5  1  0  0  0  0
 25  8  2  0  0  0  0
 25 12  1  0  0  0  0
 21 16  1  0  0  0  0
  1 28  1  0  0  0  0
  1 29  1  0  0  0  0
  1 30  1  0  0  0  0
  2 31  1  0  0  0  0
  3 32  1  0  0  0  0
  3 33  1  0  0  0  0
  3 34  1  0  0  0  0
  4 35  1  0  0  0  0
  4 36  1  0  0  0  0
  9 37  1  0  0  0  0
 10 38  1  0  0  0  0
 11 39  1  0  0  0  0
 15 40  1  0  0  0  0
 15 41  1  0  0  0  0
 17 42  1  0  0  0  0
 18 43  1  0  0  0  0
 19 44  1  0  0  0  0
 20 45  1  0  0  0  0
 21 46  1  0  0  0  0
 22 47  1  0  0  0  0
 23 48  1  0  0  0  0
M  END
