
  xtb     03012221283D
 energy: -11.004616616884 gnorm: 0.000348119158 xtb: 6.4.1 (afa7bdf)
 56 59  0     0  0            999 V2000
   -2.2308    4.0964   -0.2342 C   0  0  0  0  0  0  0  0  0  0  0  0
   -3.0190    2.8331    0.0370 C   0  0  0  0  0  0  0  0  0  0  0  0
   -2.1878    1.7674    0.4243 O   0  0  0  0  0  0  0  0  0  0  0  0
   -1.4189    1.3549   -0.6303 C   0  0  0  0  0  0  0  0  0  0  0  0
   -1.5346    1.7972   -1.7585 O   0  0  0  0  0  0  0  0  0  0  0  0
   -0.4226    0.2911   -0.3382 C   0  0  0  0  0  0  0  0  0  0  0  0
   -0.6773   -0.9848    0.2376 C   0  0  0  0  0  0  0  0  0  0  0  0
   -1.9748   -1.5403    0.6111 C   0  0  0  0  0  0  0  0  0  0  0  0
   -3.1227   -1.0542    0.0830 C   0  0  0  0  0  0  0  0  0  0  0  0
   -4.3805   -1.6051    0.4225 C   0  0  0  0  0  0  0  0  0  0  0  0
   -5.5792   -1.1186   -0.1085 C   0  0  0  0  0  0  0  0  0  0  0  0
   -6.7767   -1.6832    0.2411 C   0  0  0  0  0  0  0  0  0  0  0  0
   -6.8114   -2.7489    1.1302 C   0  0  0  0  0  0  0  0  0  0  0  0
   -5.6493   -3.2414    1.6623 C   0  0  0  0  0  0  0  0  0  0  0  0
   -4.4141   -2.6842    1.3225 C   0  0  0  0  0  0  0  0  0  0  0  0
   -3.2626   -3.2088    1.8788 O   0  0  0  0  0  0  0  0  0  0  0  0
   -2.0391   -2.6650    1.5559 C   0  0  0  0  0  0  0  0  0  0  0  0
   -1.0046   -3.0936    2.0433 O   0  0  0  0  0  0  0  0  0  0  0  0
    0.4572   -1.6480    0.3625 N   0  0  0  0  0  0  0  0  0  0  0  0
    1.4263   -0.8707   -0.0926 N   0  0  0  0  0  0  0  0  0  0  0  0
    2.7749   -1.3695    0.0639 C   0  0  0  0  0  0  0  0  0  0  0  0
    2.9735   -2.4299    0.9338 C   0  0  0  0  0  0  0  0  0  0  0  0
    4.2201   -2.9730    1.1062 C   0  0  0  0  0  0  0  0  0  0  0  0
    5.3254   -2.4777    0.4061 C   0  0  0  0  0  0  0  0  0  0  0  0
    6.5610   -3.0876    0.6358 O   0  0  0  0  0  0  0  0  0  0  0  0
    7.6272   -2.5751   -0.1260 C   0  0  0  0  0  0  0  0  0  0  0  0
    5.1127   -1.4095   -0.4727 C   0  0  0  0  0  0  0  0  0  0  0  0
    3.8618   -0.8718   -0.6355 C   0  0  0  0  0  0  0  0  0  0  0  0
    0.9380    0.3541   -0.5538 C   0  0  0  0  0  0  0  0  0  0  0  0
    1.6784    1.5250   -1.0705 C   0  0  0  0  0  0  0  0  0  0  0  0
    2.6504    1.3790   -1.7878 O   0  0  0  0  0  0  0  0  0  0  0  0
    1.2177    2.7553   -0.6879 O   0  0  0  0  0  0  0  0  0  0  0  0
    1.9990    3.7556   -1.2915 C   0  0  0  0  0  0  0  0  0  0  0  0
    1.5793    5.1490   -0.8765 C   0  0  0  0  0  0  0  0  0  0  0  0
   -2.8703    4.9307   -0.5290 H   0  0  0  0  0  0  0  0  0  0  0  0
   -1.6637    4.3916    0.6496 H   0  0  0  0  0  0  0  0  0  0  0  0
   -1.5104    3.9168   -1.0349 H   0  0  0  0  0  0  0  0  0  0  0  0
   -3.7498    2.9794    0.8427 H   0  0  0  0  0  0  0  0  0  0  0  0
   -3.5743    2.5071   -0.8528 H   0  0  0  0  0  0  0  0  0  0  0  0
   -3.0857   -0.2421   -0.6182 H   0  0  0  0  0  0  0  0  0  0  0  0
   -5.5473   -0.2916   -0.7993 H   0  0  0  0  0  0  0  0  0  0  0  0
   -7.6944   -1.3002   -0.1751 H   0  0  0  0  0  0  0  0  0  0  0  0
   -7.7558   -3.1899    1.4014 H   0  0  0  0  0  0  0  0  0  0  0  0
   -5.6595   -4.0673    2.3523 H   0  0  0  0  0  0  0  0  0  0  0  0
    2.1194   -2.8218    1.4586 H   0  0  0  0  0  0  0  0  0  0  0  0
    4.3730   -3.7980    1.7820 H   0  0  0  0  0  0  0  0  0  0  0  0
    7.4115   -2.6910   -1.1881 H   0  0  0  0  0  0  0  0  0  0  0  0
    8.5258   -3.1415    0.1182 H   0  0  0  0  0  0  0  0  0  0  0  0
    7.7887   -1.5265    0.1239 H   0  0  0  0  0  0  0  0  0  0  0  0
    5.9392   -1.0007   -1.0277 H   0  0  0  0  0  0  0  0  0  0  0  0
    3.7085   -0.0497   -1.3065 H   0  0  0  0  0  0  0  0  0  0  0  0
    3.0448    3.5494   -1.0228 H   0  0  0  0  0  0  0  0  0  0  0  0
    1.9137    3.6088   -2.3779 H   0  0  0  0  0  0  0  0  0  0  0  0
    0.5467    5.3416   -1.1655 H   0  0  0  0  0  0  0  0  0  0  0  0
    1.6377    5.2589    0.2062 H   0  0  0  0  0  0  0  0  0  0  0  0
    2.2052    5.9185   -1.3304 H   0  0  0  0  0  0  0  0  0  0  0  0
  1  2  1  0  0  0  0
  2  3  1  0  0  0  0
  3  4  1  0  0  0  0
  4  5  2  0  0  0  0
  4  6  1  0  0  0  0
  6  7  1  0  0  0  0
  7  8  1  0  0  0  0
  8  9  2  0  0  0  0
  9 10  1  0  0  0  0
 10 11  2  0  0  0  0
 11 12  1  0  0  0  0
 12 13  2  0  0  0  0
 13 14  1  0  0  0  0
 14 15  2  0  0  0  0
 15 16  1  0  0  0  0
 16 17  1  0  0  0  0
 17 18  2  0  0  0  0
  7 19  2  0  0  0  0
 19 20  1  0  0  0  0
 20 21  1  0  0  0  0
 21 22  2  0  0  0  0
 22 23  1  0  0  0  0
 23 24  2  0  0  0  0
 24 25  1  0  0  0  0
 25 26  1  0  0  0  0
 24 27  1  0  0  0  0
 27 28  2  0  0  0  0
 20 29  1  0  0  0  0
 29 30  1  0  0  0  0
 30 31  2  0  0  0  0
 30 32  1  0  0  0  0
 32 33  1  0  0  0  0
 33 34  1  0  0  0  0
 29  6  2  0  0  0  0
 17  8  1  0  0  0  0
 28 21  1  0  0  0  0
 15 10  1  0  0  0  0
  1 35  1  0  0  0  0
  1 36  1  0  0  0  0
  1 37  1  0  0  0  0
  2 38  1  0  0  0  0
  2 39  1  0  0  0  0
  9 40  1  0  0  0  0
 11 41  1  0  0  0  0
 12 42  1  0  0  0  0
 13 43  1  0  0  0  0
 14 44  1  0  0  0  0
 22 45  1  0  0  0  0
 23 46  1  0  0  0  0
 26 47  1  0  0  0  0
 26 48  1  0  0  0  0
 26 49  1  0  0  0  0
 27 50  1  0  0  0  0
 28 51  1  0  0  0  0
 33 52  1  0  0  0  0
 33 53  1  0  0  0  0
 34 54  1  0  0  0  0
 34 55  1  0  0  0  0
 34 56  1  0  0  0  0
M  END
