
  xtb     03012221293D
 energy: -3.567984259919 gnorm: 0.000372514127 xtb: 6.4.1 (afa7bdf)
 17 18  0     0  0            999 V2000
    2.8203    0.6168    0.3717 N   0  0  0  0  0  0  0  0  0  0  0  0
    1.5001    0.1978    0.1876 C   0  0  0  0  0  0  0  0  0  0  0  0
    1.2229   -1.1578   -0.1249 C   0  0  0  0  0  0  0  0  0  0  0  0
   -0.0552   -1.6075   -0.3190 C   0  0  0  0  0  0  0  0  0  0  0  0
   -1.1049   -0.6921   -0.2000 C   0  0  0  0  0  0  0  0  0  0  0  0
   -2.4907   -0.7697   -0.3181 N   0  0  0  0  0  0  0  0  0  0  0  0
   -3.0868    0.4006   -0.1068 N   0  0  0  0  0  0  0  0  0  0  0  0
   -2.1373    1.2707    0.1518 C   0  0  0  0  0  0  0  0  0  0  0  0
   -0.8585    0.6480    0.1096 C   0  0  0  0  0  0  0  0  0  0  0  0
    0.4565    1.0993    0.3070 C   0  0  0  0  0  0  0  0  0  0  0  0
    3.5811    0.0552    0.0156 H   0  0  0  0  0  0  0  0  0  0  0  0
    3.0498    1.5989    0.3114 H   0  0  0  0  0  0  0  0  0  0  0  0
    2.0503   -1.8403   -0.2065 H   0  0  0  0  0  0  0  0  0  0  0  0
   -0.2639   -2.6354   -0.5560 H   0  0  0  0  0  0  0  0  0  0  0  0
   -3.0122   -1.6240   -0.5399 H   0  0  0  0  0  0  0  0  0  0  0  0
   -2.3193    2.3118    0.3672 H   0  0  0  0  0  0  0  0  0  0  0  0
    0.6476    2.1276    0.5492 H   0  0  0  0  0  0  0  0  0  0  0  0
  1  2  1  0  0  0  0
  2  3  2  0  0  0  0
  3  4  1  0  0  0  0
  4  5  2  0  0  0  0
  5  6  1  0  0  0  0
  6  7  1  0  0  0  0
  7  8  2  0  0  0  0
  8  9  1  0  0  0  0
  9 10  2  0  0  0  0
 10  2  1  0  0  0  0
  9  5  1  0  0  0  0
  1 11  1  0  0  0  0
  1 12  1  0  0  0  0
  3 13  1  0  0  0  0
  4 14  1  0  0  0  0
  6 15  1  0  0  0  0
  8 16  1  0  0  0  0
 10 17  1  0  0  0  0
M  END
