
  xtb     03012221273D
 energy: -4.695536959778 gnorm: 0.000348862252 xtb: 6.4.1 (afa7bdf)
 23 24  0     0  0            999 V2000
   -3.4755    0.0461   -1.5989 N   0  0  0  0  0  0  0  0  0  0  0  0
   -2.3108   -0.1934   -0.8722 C   0  0  0  0  0  0  0  0  0  0  0  0
   -2.0813   -1.4299   -0.2737 C   0  0  0  0  0  0  0  0  0  0  0  0
   -0.9288   -1.6559    0.4415 C   0  0  0  0  0  0  0  0  0  0  0  0
    0.0418   -0.6722    0.5792 C   0  0  0  0  0  0  0  0  0  0  0  0
   -0.1700    0.5841   -0.0280 C   0  0  0  0  0  0  0  0  0  0  0  0
   -1.3445    0.7984   -0.7320 C   0  0  0  0  0  0  0  0  0  0  0  0
    0.7501    1.6547    0.0929 N   0  0  0  0  0  0  0  0  0  0  0  0
    2.1311    1.6305    0.1248 C   0  0  0  0  0  0  0  0  0  0  0  0
    2.7725    2.6584    0.1911 O   0  0  0  0  0  0  0  0  0  0  0  0
    2.8287    0.3153    0.0546 C   0  0  0  0  0  0  0  0  0  0  0  0
    2.4887   -0.5578    1.2131 C   0  0  0  0  0  0  0  0  0  0  0  0
    3.3582   -0.9237    1.9777 O   0  0  0  0  0  0  0  0  0  0  0  0
    1.1778   -0.9473    1.3867 N   0  0  0  0  0  0  0  0  0  0  0  0
   -3.7593    0.9891   -1.8218 H   0  0  0  0  0  0  0  0  0  0  0  0
   -4.2767   -0.5614   -1.5041 H   0  0  0  0  0  0  0  0  0  0  0  0
   -2.8197   -2.2050   -0.3784 H   0  0  0  0  0  0  0  0  0  0  0  0
   -0.7624   -2.6118    0.9068 H   0  0  0  0  0  0  0  0  0  0  0  0
   -1.5079    1.7530   -1.1952 H   0  0  0  0  0  0  0  0  0  0  0  0
    0.3622    2.5913    0.0841 H   0  0  0  0  0  0  0  0  0  0  0  0
    3.9084    0.4918    0.0548 H   0  0  0  0  0  0  0  0  0  0  0  0
    2.5820   -0.1909   -0.8820 H   0  0  0  0  0  0  0  0  0  0  0  0
    1.0355   -1.5636    2.1785 H   0  0  0  0  0  0  0  0  0  0  0  0
  1  2  1  0  0  0  0
  2  3  2  0  0  0  0
  3  4  1  0  0  0  0
  4  5  2  0  0  0  0
  5  6  1  0  0  0  0
  6  7  2  0  0  0  0
  6  8  1  0  0  0  0
  8  9  1  0  0  0  0
  9 10  2  0  0  0  0
  9 11  1  0  0  0  0
 11 12  1  0  0  0  0
 12 13  2  0  0  0  0
 12 14  1  0  0  0  0
  7  2  1  0  0  0  0
 14  5  1  0  0  0  0
  1 15  1  0  0  0  0
  1 16  1  0  0  0  0
  3 17  1  0  0  0  0
  4 18  1  0  0  0  0
  7 19  1  0  0  0  0
  8 20  1  0  0  0  0
 11 21  1  0  0  0  0
 11 22  1  0  0  0  0
 14 23  1  0  0  0  0
M  END
