
  xtb     03012221273D
 energy: -12.238507393951 gnorm: 0.000165004709 xtb: 6.4.1 (afa7bdf)
 56 61  0     0  0            999 V2000
    6.5717    1.2224   -2.0620 O   0  0  0  0  0  0  0  0  0  0  0  0
    6.0866    0.5377   -1.1809 C   0  0  0  0  0  0  0  0  0  0  0  0
    6.9414   -0.2425   -0.2719 C   0  0  0  0  0  0  0  0  0  0  0  0
    8.3201   -0.1951   -0.4127 C   0  0  0  0  0  0  0  0  0  0  0  0
    9.1383   -0.9139    0.4277 C   0  0  0  0  0  0  0  0  0  0  0  0
    8.5877   -1.6951    1.4262 C   0  0  0  0  0  0  0  0  0  0  0  0
    7.2216   -1.7539    1.5794 C   0  0  0  0  0  0  0  0  0  0  0  0
    6.3830   -1.0353    0.7410 C   0  0  0  0  0  0  0  0  0  0  0  0
    4.9255   -1.1104    0.9235 C   0  0  0  0  0  0  0  0  0  0  0  0
    4.4357   -1.8000    1.7973 O   0  0  0  0  0  0  0  0  0  0  0  0
    4.0725   -0.3240    0.0193 C   0  0  0  0  0  0  0  0  0  0  0  0
    2.6991   -0.3638    0.1708 C   0  0  0  0  0  0  0  0  0  0  0  0
    1.8510    0.3667   -0.6547 C   0  0  0  0  0  0  0  0  0  0  0  0
    0.3888    0.3196   -0.4661 C   0  0  0  0  0  0  0  0  0  0  0  0
   -0.4823    0.4400   -1.5503 C   0  0  0  0  0  0  0  0  0  0  0  0
   -1.8419    0.4038   -1.3709 C   0  0  0  0  0  0  0  0  0  0  0  0
   -2.3938    0.2432   -0.1004 C   0  0  0  0  0  0  0  0  0  0  0  0
   -3.8107    0.2114    0.0868 N   0  0  0  0  0  0  0  0  0  0  0  0
   -4.6698    0.9864   -0.7635 C   0  0  0  0  0  0  0  0  0  0  0  0
   -4.2922    2.2574   -1.1906 C   0  0  0  0  0  0  0  0  0  0  0  0
   -5.1196    3.0016   -2.0003 C   0  0  0  0  0  0  0  0  0  0  0  0
   -6.3398    2.4918   -2.3985 C   0  0  0  0  0  0  0  0  0  0  0  0
   -6.7302    1.2341   -1.9825 C   0  0  0  0  0  0  0  0  0  0  0  0
   -5.9046    0.4881   -1.1725 C   0  0  0  0  0  0  0  0  0  0  0  0
   -4.3845   -0.5924    1.1290 C   0  0  0  0  0  0  0  0  0  0  0  0
   -5.4875   -0.1412    1.8504 C   0  0  0  0  0  0  0  0  0  0  0  0
   -6.0391   -0.9135    2.8471 C   0  0  0  0  0  0  0  0  0  0  0  0
   -5.5015   -2.1510    3.1419 C   0  0  0  0  0  0  0  0  0  0  0  0
   -4.4092   -2.6141    2.4348 C   0  0  0  0  0  0  0  0  0  0  0  0
   -3.8556   -1.8436    1.4378 C   0  0  0  0  0  0  0  0  0  0  0  0
   -1.5249    0.1180    0.9831 C   0  0  0  0  0  0  0  0  0  0  0  0
   -0.1652    0.1563    0.8050 C   0  0  0  0  0  0  0  0  0  0  0  0
    2.4276    1.1507   -1.6583 C   0  0  0  0  0  0  0  0  0  0  0  0
    3.7900    1.1970   -1.8213 C   0  0  0  0  0  0  0  0  0  0  0  0
    4.6313    0.4685   -0.9933 C   0  0  0  0  0  0  0  0  0  0  0  0
    8.7326    0.4190   -1.1954 H   0  0  0  0  0  0  0  0  0  0  0  0
   10.2080   -0.8674    0.3075 H   0  0  0  0  0  0  0  0  0  0  0  0
    9.2281   -2.2580    2.0851 H   0  0  0  0  0  0  0  0  0  0  0  0
    6.7770   -2.3572    2.3523 H   0  0  0  0  0  0  0  0  0  0  0  0
    2.2937   -0.9920    0.9434 H   0  0  0  0  0  0  0  0  0  0  0  0
   -0.0763    0.5426   -2.5410 H   0  0  0  0  0  0  0  0  0  0  0  0
   -2.5032    0.4823   -2.2168 H   0  0  0  0  0  0  0  0  0  0  0  0
   -3.3462    2.6546   -0.8664 H   0  0  0  0  0  0  0  0  0  0  0  0
   -4.8159    3.9840   -2.3223 H   0  0  0  0  0  0  0  0  0  0  0  0
   -6.9870    3.0752   -3.0323 H   0  0  0  0  0  0  0  0  0  0  0  0
   -7.6821    0.8359   -2.2929 H   0  0  0  0  0  0  0  0  0  0  0  0
   -6.1995   -0.4954   -0.8508 H   0  0  0  0  0  0  0  0  0  0  0  0
   -5.8959    0.8277    1.6220 H   0  0  0  0  0  0  0  0  0  0  0  0
   -6.8905   -0.5514    3.3993 H   0  0  0  0  0  0  0  0  0  0  0  0
   -5.9337   -2.7548    3.9225 H   0  0  0  0  0  0  0  0  0  0  0  0
   -3.9906   -3.5804    2.6629 H   0  0  0  0  0  0  0  0  0  0  0  0
   -3.0123   -2.2041    0.8752 H   0  0  0  0  0  0  0  0  0  0  0  0
   -1.9397    0.0091    1.9705 H   0  0  0  0  0  0  0  0  0  0  0  0
    0.4875    0.0817    1.6567 H   0  0  0  0  0  0  0  0  0  0  0  0
    1.7923    1.7401   -2.2959 H   0  0  0  0  0  0  0  0  0  0  0  0
    4.2341    1.8036   -2.5919 H   0  0  0  0  0  0  0  0  0  0  0  0
  1  2  2  0  0  0  0
  2  3  1  0  0  0  0
  3  4  2  0  0  0  0
  4  5  1  0  0  0  0
  5  6  2  0  0  0  0
  6  7  1  0  0  0  0
  7  8  2  0  0  0  0
  8  9  1  0  0  0  0
  9 10  2  0  0  0  0
  9 11  1  0  0  0  0
 11 12  2  0  0  0  0
 12 13  1  0  0  0  0
 13 14  1  0  0  0  0
 14 15  2  0  0  0  0
 15 16  1  0  0  0  0
 16 17  2  0  0  0  0
 17 18  1  0  0  0  0
 18 19  1  0  0  0  0
 19 20  2  0  0  0  0
 20 21  1  0  0  0  0
 21 22  2  0  0  0  0
 22 23  1  0  0  0  0
 23 24  2  0  0  0  0
 18 25  1  0  0  0  0
 25 26  2  0  0  0  0
 26 27  1  0  0  0  0
 27 28  2  0  0  0  0
 28 29  1  0  0  0  0
 29 30  2  0  0  0  0
 17 31  1  0  0  0  0
 31 32  2  0  0  0  0
 13 33  2  0  0  0  0
 33 34  1  0  0  0  0
 34 35  2  0  0  0  0
 35  2  1  0  0  0  0
  8  3  1  0  0  0  0
 35 11  1  0  0  0  0
 32 14  1  0  0  0  0
 24 19  1  0  0  0  0
 30 25  1  0  0  0  0
  4 36  1  0  0  0  0
  5 37  1  0  0  0  0
  6 38  1  0  0  0  0
  7 39  1  0  0  0  0
 12 40  1  0  0  0  0
 15 41  1  0  0  0  0
 16 42  1  0  0  0  0
 20 43  1  0  0  0  0
 21 44  1  0  0  0  0
 22 45  1  0  0  0  0
 23 46  1  0  0  0  0
 24 47  1  0  0  0  0
 26 48  1  0  0  0  0
 27 49  1  0  0  0  0
 28 50  1  0  0  0  0
 29 51  1  0  0  0  0
 30 52  1  0  0  0  0
 31 53  1  0  0  0  0
 32 54  1  0  0  0  0
 33 55  1  0  0  0  0
 34 56  1  0  0  0  0
M  END
