
  xtb     03012221233D
 energy: -13.922095008716 gnorm: 0.000183422389 xtb: 6.4.1 (afa7bdf)
 73 77  0     0  0            999 V2000
   -3.3754    2.3777    3.5341 C   0  0  0  0  0  0  0  0  0  0  0  0
   -3.3900    1.0979    2.6945 C   0  0  0  0  0  0  0  0  0  0  0  0
   -3.3597   -0.1616    3.5618 C   0  0  0  0  0  0  0  0  0  0  0  0
   -4.5537    1.0479    1.7296 C   0  0  0  0  0  0  0  0  0  0  0  0
   -5.8415    1.3670    2.1151 C   0  0  0  0  0  0  0  0  0  0  0  0
   -6.8918    1.2444    1.2284 C   0  0  0  0  0  0  0  0  0  0  0  0
   -6.6686    0.7902   -0.0555 C   0  0  0  0  0  0  0  0  0  0  0  0
   -5.3933    0.4629   -0.4747 C   0  0  0  0  0  0  0  0  0  0  0  0
   -5.1186   -0.1151   -1.8453 C   0  0  0  0  0  0  0  0  0  0  0  0
   -5.8815    0.6093   -2.9573 C   0  0  0  0  0  0  0  0  0  0  0  0
   -5.3815   -1.6218   -1.8513 C   0  0  0  0  0  0  0  0  0  0  0  0
   -4.3300    0.5814    0.4285 C   0  0  0  0  0  0  0  0  0  0  0  0
   -3.0107    0.1881    0.0287 N   0  0  0  0  0  0  0  0  0  0  0  0
   -2.1906    1.1425   -0.6088 C   0  0  0  0  0  0  0  0  0  0  0  0
   -2.5861    2.2768   -0.8080 O   0  0  0  0  0  0  0  0  0  0  0  0
   -0.8510    0.7272   -1.0293 C   0  0  0  0  0  0  0  0  0  0  0  0
   -0.0224    1.6105   -1.6790 C   0  0  0  0  0  0  0  0  0  0  0  0
    1.2430    1.2188   -2.0992 C   0  0  0  0  0  0  0  0  0  0  0  0
    1.6897   -0.0508   -1.8610 C   0  0  0  0  0  0  0  0  0  0  0  0
    0.8907   -0.9816   -1.1815 C   0  0  0  0  0  0  0  0  0  0  0  0
    1.3409   -2.3184   -0.9125 C   0  0  0  0  0  0  0  0  0  0  0  0
    2.6308   -2.7592   -1.2361 O   0  0  0  0  0  0  0  0  0  0  0  0
    3.7376   -1.9749   -0.8629 C   0  0  0  0  0  0  0  0  0  0  0  0
    4.9121   -2.0427   -1.6080 C   0  0  0  0  0  0  0  0  0  0  0  0
    6.0003   -1.2708   -1.2794 C   0  0  0  0  0  0  0  0  0  0  0  0
    5.9682   -0.4065   -0.1906 C   0  0  0  0  0  0  0  0  0  0  0  0
    7.2030    0.4489    0.1370 C   0  0  0  0  0  0  0  0  0  0  0  0
    8.4023   -0.4747    0.4179 C   0  0  0  0  0  0  0  0  0  0  0  0
    6.9723    1.3359    1.3756 C   0  0  0  0  0  0  0  0  0  0  0  0
    7.5202    1.3622   -1.0613 C   0  0  0  0  0  0  0  0  0  0  0  0
    4.8008   -0.3526    0.5643 C   0  0  0  0  0  0  0  0  0  0  0  0
    3.7093   -1.1219    0.2389 C   0  0  0  0  0  0  0  0  0  0  0  0
    0.4544   -3.2093   -0.3168 C   0  0  0  0  0  0  0  0  0  0  0  0
   -0.8145   -2.8236    0.0633 C   0  0  0  0  0  0  0  0  0  0  0  0
   -1.2581   -1.5339   -0.1438 C   0  0  0  0  0  0  0  0  0  0  0  0
   -0.4080   -0.5948   -0.7776 C   0  0  0  0  0  0  0  0  0  0  0  0
   -2.6007   -1.1411    0.2714 C   0  0  0  0  0  0  0  0  0  0  0  0
   -3.3490   -1.9375    0.8125 O   0  0  0  0  0  0  0  0  0  0  0  0
   -3.4186    3.2639    2.9000 H   0  0  0  0  0  0  0  0  0  0  0  0
   -4.2285    2.4121    4.2105 H   0  0  0  0  0  0  0  0  0  0  0  0
   -2.4744    2.4437    4.1450 H   0  0  0  0  0  0  0  0  0  0  0  0
   -2.4773    1.1022    2.0730 H   0  0  0  0  0  0  0  0  0  0  0  0
   -2.4839   -0.1835    4.2109 H   0  0  0  0  0  0  0  0  0  0  0  0
   -4.2451   -0.2126    4.1948 H   0  0  0  0  0  0  0  0  0  0  0  0
   -3.3481   -1.0602    2.9425 H   0  0  0  0  0  0  0  0  0  0  0  0
   -6.0268    1.6988    3.1214 H   0  0  0  0  0  0  0  0  0  0  0  0
   -7.8918    1.4933    1.5432 H   0  0  0  0  0  0  0  0  0  0  0  0
   -7.4960    0.6738   -0.7328 H   0  0  0  0  0  0  0  0  0  0  0  0
   -4.0416    0.0406   -2.0323 H   0  0  0  0  0  0  0  0  0  0  0  0
   -5.6990    1.6839   -2.9228 H   0  0  0  0  0  0  0  0  0  0  0  0
   -5.5860    0.2491   -3.9434 H   0  0  0  0  0  0  0  0  0  0  0  0
   -6.9551    0.4514   -2.8635 H   0  0  0  0  0  0  0  0  0  0  0  0
   -4.8102   -2.1200   -1.0661 H   0  0  0  0  0  0  0  0  0  0  0  0
   -5.1143   -2.0742   -2.8067 H   0  0  0  0  0  0  0  0  0  0  0  0
   -6.4357   -1.8273   -1.6684 H   0  0  0  0  0  0  0  0  0  0  0  0
   -0.3785    2.6085   -1.8641 H   0  0  0  0  0  0  0  0  0  0  0  0
    1.8737    1.9222   -2.6185 H   0  0  0  0  0  0  0  0  0  0  0  0
    2.6633   -0.3524   -2.2020 H   0  0  0  0  0  0  0  0  0  0  0  0
    4.9410   -2.7074   -2.4546 H   0  0  0  0  0  0  0  0  0  0  0  0
    6.8923   -1.3346   -1.8767 H   0  0  0  0  0  0  0  0  0  0  0  0
    8.1853   -1.1448    1.2490 H   0  0  0  0  0  0  0  0  0  0  0  0
    9.2889    0.1046    0.6738 H   0  0  0  0  0  0  0  0  0  0  0  0
    8.6439   -1.0860   -0.4503 H   0  0  0  0  0  0  0  0  0  0  0  0
    7.8559    1.9362    1.5906 H   0  0  0  0  0  0  0  0  0  0  0  0
    6.1399    2.0209    1.2182 H   0  0  0  0  0  0  0  0  0  0  0  0
    6.7626    0.7315    2.2574 H   0  0  0  0  0  0  0  0  0  0  0  0
    6.6725    2.0079   -1.2877 H   0  0  0  0  0  0  0  0  0  0  0  0
    8.3808    1.9964   -0.8511 H   0  0  0  0  0  0  0  0  0  0  0  0
    7.7457    0.7807   -1.9539 H   0  0  0  0  0  0  0  0  0  0  0  0
    4.7423    0.2993    1.4167 H   0  0  0  0  0  0  0  0  0  0  0  0
    2.8116   -1.0749    0.8317 H   0  0  0  0  0  0  0  0  0  0  0  0
    0.7931   -4.2157   -0.1387 H   0  0  0  0  0  0  0  0  0  0  0  0
   -1.4809   -3.5243    0.5341 H   0  0  0  0  0  0  0  0  0  0  0  0
  1  2  1  0  0  0  0
  2  3  1  0  0  0  0
  2  4  1  0  0  0  0
  4  5  2  0  0  0  0
  5  6  1  0  0  0  0
  6  7  2  0  0  0  0
  7  8  1  0  0  0  0
  8  9  1  0  0  0  0
  9 10  1  0  0  0  0
  9 11  1  0  0  0  0
  8 12  2  0  0  0  0
 12 13  1  0  0  0  0
 13 14  1  0  0  0  0
 14 15  2  0  0  0  0
 14 16  1  0  0  0  0
 16 17  2  0  0  0  0
 17 18  1  0  0  0  0
 18 19  2  0  0  0  0
 19 20  1  0  0  0  0
 20 21  2  0  0  0  0
 21 22  1  0  0  0  0
 22 23  1  0  0  0  0
 23 24  2  0  0  0  0
 24 25  1  0  0  0  0
 25 26  2  0  0  0  0
 26 27  1  0  0  0  0
 27 28  1  0  0  0  0
 27 29  1  0  0  0  0
 27 30  1  0  0  0  0
 26 31  1  0  0  0  0
 31 32  2  0  0  0  0
 21 33  1  0  0  0  0
 33 34  2  0  0  0  0
 34 35  1  0  0  0  0
 35 36  2  0  0  0  0
 35 37  1  0  0  0  0
 37 38  2  0  0  0  0
 12  4  1  0  0  0  0
 37 13  1  0  0  0  0
 36 16  1  0  0  0  0
 36 20  1  0  0  0  0
 32 23  1  0  0  0  0
  1 39  1  0  0  0  0
  1 40  1  0  0  0  0
  1 41  1  0  0  0  0
  2 42  1  0  0  0  0
  3 43  1  0  0  0  0
  3 44  1  0  0  0  0
  3 45  1  0  0  0  0
  5 46  1  0  0  0  0
  6 47  1  0  0  0  0
  7 48  1  0  0  0  0
  9 49  1  0  0  0  0
 10 50  1  0  0  0  0
 10 51  1  0  0  0  0
 10 52  1  0  0  0  0
 11 53  1  0  0  0  0
 11 54  1  0  0  0  0
 11 55  1  0  0  0  0
 17 56  1  0  0  0  0
 18 57  1  0  0  0  0
 19 58  1  0  0  0  0
 24 59  1  0  0  0  0
 25 60  1  0  0  0  0
 28 61  1  0  0  0  0
 28 62  1  0  0  0  0
 28 63  1  0  0  0  0
 29 64  1  0  0  0  0
 29 65  1  0  0  0  0
 29 66  1  0  0  0  0
 30 67  1  0  0  0  0
 30 68  1  0  0  0  0
 30 69  1  0  0  0  0
 31 70  1  0  0  0  0
 32 71  1  0  0  0  0
 33 72  1  0  0  0  0
 34 73  1  0  0  0  0
M  END
