
  xtb     03012221253D
 energy: -15.156661293269 gnorm: 0.000334023226 xtb: 6.4.1 (afa7bdf)
 76 83  0     0  0            999 V2000
   -5.2026    3.5864    0.5586 C   0  0  0  0  0  0  0  0  0  0  0  0
   -3.8900    3.8701   -0.1969 C   0  0  0  0  0  0  0  0  0  0  0  0
   -3.0470    4.8437    0.6470 C   0  0  0  0  0  0  0  0  0  0  0  0
   -4.2395    4.5225   -1.5471 C   0  0  0  0  0  0  0  0  0  0  0  0
   -3.0872    2.5843   -0.4470 C   0  0  0  0  0  0  0  0  0  0  0  0
   -1.8538    2.6666   -1.1194 C   0  0  0  0  0  0  0  0  0  0  0  0
   -1.0859    1.5609   -1.3842 C   0  0  0  0  0  0  0  0  0  0  0  0
   -1.5468    0.3142   -0.9712 C   0  0  0  0  0  0  0  0  0  0  0  0
   -2.7750    0.2053   -0.3008 C   0  0  0  0  0  0  0  0  0  0  0  0
   -3.5408    1.3431   -0.0396 C   0  0  0  0  0  0  0  0  0  0  0  0
   -2.9836   -1.1939   -0.0128 C   0  0  0  0  0  0  0  0  0  0  0  0
   -4.0127   -1.8768    0.6374 C   0  0  0  0  0  0  0  0  0  0  0  0
   -3.9452   -3.2498    0.7820 C   0  0  0  0  0  0  0  0  0  0  0  0
   -5.0805   -3.9839    1.5117 C   0  0  0  0  0  0  0  0  0  0  0  0
   -4.8563   -5.5080    1.5376 C   0  0  0  0  0  0  0  0  0  0  0  0
   -5.1577   -3.4794    2.9640 C   0  0  0  0  0  0  0  0  0  0  0  0
   -6.4143   -3.7047    0.7946 C   0  0  0  0  0  0  0  0  0  0  0  0
   -2.8252   -3.9301    0.2668 C   0  0  0  0  0  0  0  0  0  0  0  0
   -1.8032   -3.2767   -0.3752 C   0  0  0  0  0  0  0  0  0  0  0  0
   -1.8795   -1.8947   -0.5219 C   0  0  0  0  0  0  0  0  0  0  0  0
   -0.9924   -0.9732   -1.1126 N   0  0  0  0  0  0  0  0  0  0  0  0
    0.2733   -1.2869   -1.7229 C   0  0  0  0  0  0  0  0  0  0  0  0
    0.3350   -2.1841   -2.8032 C   0  0  0  0  0  0  0  0  0  0  0  0
    1.5210   -2.5040   -3.4056 C   0  0  0  0  0  0  0  0  0  0  0  0
    2.7029   -1.9247   -2.9332 C   0  0  0  0  0  0  0  0  0  0  0  0
    4.0098   -2.0848   -3.3641 O   0  0  0  0  0  0  0  0  0  0  0  0
    4.8112   -1.2941   -2.5608 C   0  0  0  0  0  0  0  0  0  0  0  0
    6.1369   -1.1632   -2.6402 N   0  0  0  0  0  0  0  0  0  0  0  0
    6.6678   -0.3376   -1.7369 C   0  0  0  0  0  0  0  0  0  0  0  0
    8.0064   -0.0232   -1.5921 O   0  0  0  0  0  0  0  0  0  0  0  0
    8.1179    0.8608   -0.5366 C   0  0  0  0  0  0  0  0  0  0  0  0
    9.2469    1.4718    0.0152 C   0  0  0  0  0  0  0  0  0  0  0  0
    9.0973    2.3237    1.0791 C   0  0  0  0  0  0  0  0  0  0  0  0
   10.3132    2.9842    1.7065 C   0  0  0  0  0  0  0  0  0  0  0  0
   11.3730    2.8346    0.8834 F   0  0  0  0  0  0  0  0  0  0  0  0
   10.5558    2.3889    2.8939 F   0  0  0  0  0  0  0  0  0  0  0  0
   10.0451    4.2950    1.8900 F   0  0  0  0  0  0  0  0  0  0  0  0
    7.8351    2.5818    1.6184 C   0  0  0  0  0  0  0  0  0  0  0  0
    6.7101    1.9971    1.0973 C   0  0  0  0  0  0  0  0  0  0  0  0
    6.8515    1.1320    0.0137 C   0  0  0  0  0  0  0  0  0  0  0  0
    5.9154    0.3673   -0.7514 C   0  0  0  0  0  0  0  0  0  0  0  0
    4.5444    0.2347   -0.6705 C   0  0  0  0  0  0  0  0  0  0  0  0
    3.9939   -0.6190   -1.6039 C   0  0  0  0  0  0  0  0  0  0  0  0
    2.6457   -1.0274   -1.8518 C   0  0  0  0  0  0  0  0  0  0  0  0
    1.4332   -0.7076   -1.2482 C   0  0  0  0  0  0  0  0  0  0  0  0
   -5.8459    2.9169   -0.0108 H   0  0  0  0  0  0  0  0  0  0  0  0
   -5.7567    4.5085    0.7293 H   0  0  0  0  0  0  0  0  0  0  0  0
   -5.0057    3.1358    1.5304 H   0  0  0  0  0  0  0  0  0  0  0  0
   -2.7719    4.3891    1.5977 H   0  0  0  0  0  0  0  0  0  0  0  0
   -3.6015    5.7572    0.8573 H   0  0  0  0  0  0  0  0  0  0  0  0
   -2.1294    5.1230    0.1323 H   0  0  0  0  0  0  0  0  0  0  0  0
   -4.8186    3.8384   -2.1658 H   0  0  0  0  0  0  0  0  0  0  0  0
   -3.3420    4.7947   -2.0998 H   0  0  0  0  0  0  0  0  0  0  0  0
   -4.8283    5.4272   -1.4019 H   0  0  0  0  0  0  0  0  0  0  0  0
   -1.5014    3.6324   -1.4401 H   0  0  0  0  0  0  0  0  0  0  0  0
   -0.1487    1.6382   -1.9045 H   0  0  0  0  0  0  0  0  0  0  0  0
   -4.4763    1.2292    0.4750 H   0  0  0  0  0  0  0  0  0  0  0  0
   -4.8469   -1.3218    1.0251 H   0  0  0  0  0  0  0  0  0  0  0  0
   -5.6773   -6.0100    2.0477 H   0  0  0  0  0  0  0  0  0  0  0  0
   -4.7995   -5.9128    0.5280 H   0  0  0  0  0  0  0  0  0  0  0  0
   -3.9383   -5.7612    2.0661 H   0  0  0  0  0  0  0  0  0  0  0  0
   -4.2150   -3.6525    3.4814 H   0  0  0  0  0  0  0  0  0  0  0  0
   -5.3678   -2.4118    3.0009 H   0  0  0  0  0  0  0  0  0  0  0  0
   -5.9446   -3.9936    3.5142 H   0  0  0  0  0  0  0  0  0  0  0  0
   -6.6532   -2.6427    0.7997 H   0  0  0  0  0  0  0  0  0  0  0  0
   -7.2349   -4.2318    1.2796 H   0  0  0  0  0  0  0  0  0  0  0  0
   -6.3688   -4.0328   -0.2430 H   0  0  0  0  0  0  0  0  0  0  0  0
   -2.7590   -4.9982    0.3788 H   0  0  0  0  0  0  0  0  0  0  0  0
   -0.9498   -3.8067   -0.7574 H   0  0  0  0  0  0  0  0  0  0  0  0
   -0.5856   -2.6160   -3.1593 H   0  0  0  0  0  0  0  0  0  0  0  0
    1.5673   -3.1882   -4.2330 H   0  0  0  0  0  0  0  0  0  0  0  0
   10.2216    1.2760   -0.3934 H   0  0  0  0  0  0  0  0  0  0  0  0
    7.7666    3.2550    2.4560 H   0  0  0  0  0  0  0  0  0  0  0  0
    5.7352    2.1915    1.5082 H   0  0  0  0  0  0  0  0  0  0  0  0
    3.9539    0.7522    0.0615 H   0  0  0  0  0  0  0  0  0  0  0  0
    1.3988   -0.0262   -0.4173 H   0  0  0  0  0  0  0  0  0  0  0  0
  1  2  1  0  0  0  0
  2  3  1  0  0  0  0
  2  4  1  0  0  0  0
  2  5  1  0  0  0  0
  5  6  2  0  0  0  0
  6  7  1  0  0  0  0
  7  8  2  0  0  0  0
  8  9  1  0  0  0  0
  9 10  2  0  0  0  0
  9 11  1  0  0  0  0
 11 12  2  0  0  0  0
 12 13  1  0  0  0  0
 13 14  1  0  0  0  0
 14 15  1  0  0  0  0
 14 16  1  0  0  0  0
 14 17  1  0  0  0  0
 13 18  2  0  0  0  0
 18 19  1  0  0  0  0
 19 20  2  0  0  0  0
 20 21  1  0  0  0  0
 21 22  1  0  0  0  0
 22 23  2  0  0  0  0
 23 24  1  0  0  0  0
 24 25  2  0  0  0  0
 25 26  1  0  0  0  0
 26 27  1  0  0  0  0
 27 28  2  0  0  0  0
 28 29  1  0  0  0  0
 29 30  1  0  0  0  0
 30 31  1  0  0  0  0
 31 32  2  0  0  0  0
 32 33  1  0  0  0  0
 33 34  1  0  0  0  0
 34 35  1  0  0  0  0
 34 36  1  0  0  0  0
 34 37  1  0  0  0  0
 33 38  2  0  0  0  0
 38 39  1  0  0  0  0
 39 40  2  0  0  0  0
 40 41  1  0  0  0  0
 41 42  1  0  0  0  0
 42 43  2  0  0  0  0
 43 44  1  0  0  0  0
 44 45  2  0  0  0  0
 10  5  1  0  0  0  0
 20 11  1  0  0  0  0
 45 22  1  0  0  0  0
 21  8  1  0  0  0  0
 44 25  1  0  0  0  0
 43 27  1  0  0  0  0
 41 29  2  0  0  0  0
 40 31  1  0  0  0  0
  1 46  1  0  0  0  0
  1 47  1  0  0  0  0
  1 48  1  0  0  0  0
  3 49  1  0  0  0  0
  3 50  1  0  0  0  0
  3 51  1  0  0  0  0
  4 52  1  0  0  0  0
  4 53  1  0  0  0  0
  4 54  1  0  0  0  0
  6 55  1  0  0  0  0
  7 56  1  0  0  0  0
 10 57  1  0  0  0  0
 12 58  1  0  0  0  0
 15 59  1  0  0  0  0
 15 60  1  0  0  0  0
 15 61  1  0  0  0  0
 16 62  1  0  0  0  0
 16 63  1  0  0  0  0
 16 64  1  0  0  0  0
 17 65  1  0  0  0  0
 17 66  1  0  0  0  0
 17 67  1  0  0  0  0
 18 68  1  0  0  0  0
 19 69  1  0  0  0  0
 23 70  1  0  0  0  0
 24 71  1  0  0  0  0
 32 72  1  0  0  0  0
 38 73  1  0  0  0  0
 39 74  1  0  0  0  0
 42 75  1  0  0  0  0
 45 76  1  0  0  0  0
M  END
