
  xtb     03012221313D
 energy: -9.272976517867 gnorm: 0.000176258929 xtb: 6.4.1 (afa7bdf)
 45 47  0     0  0            999 V2000
   -7.2045    1.2029   -1.6077 C   0  0  0  0  0  0  0  0  0  0  0  0
   -6.7619    0.4202   -0.4534 N   0  0  0  0  0  0  0  0  0  0  0  0
   -7.8051   -0.1176    0.4204 C   0  0  0  0  0  0  0  0  0  0  0  0
   -5.3993    0.1937   -0.1976 C   0  0  0  0  0  0  0  0  0  0  0  0
   -4.9876   -0.6190    0.8643 C   0  0  0  0  0  0  0  0  0  0  0  0
   -3.6574   -0.8395    1.1161 C   0  0  0  0  0  0  0  0  0  0  0  0
   -2.6668   -0.2582    0.3185 C   0  0  0  0  0  0  0  0  0  0  0  0
   -1.2534   -0.4679    0.5545 C   0  0  0  0  0  0  0  0  0  0  0  0
   -0.7176   -1.1875    1.5514 C   0  0  0  0  0  0  0  0  0  0  0  0
    0.7049   -1.3262    1.6848 C   0  0  0  0  0  0  0  0  0  0  0  0
    1.3874   -2.0389    2.6817 C   0  0  0  0  0  0  0  0  0  0  0  0
    2.6934   -1.9474    2.4872 N   0  0  0  0  0  0  0  0  0  0  0  0
    2.8469   -1.1945    1.3921 C   0  0  0  0  0  0  0  0  0  0  0  0
    4.1226   -0.8519    0.8339 C   0  0  0  0  0  0  0  0  0  0  0  0
    4.2234   -0.0948   -0.2692 C   0  0  0  0  0  0  0  0  0  0  0  0
    5.4565    0.3063   -0.9139 C   0  0  0  0  0  0  0  0  0  0  0  0
    6.7122   -0.0725   -0.4324 C   0  0  0  0  0  0  0  0  0  0  0  0
    7.8618    0.3267   -1.0710 C   0  0  0  0  0  0  0  0  0  0  0  0
    7.8036    1.1177   -2.2126 C   0  0  0  0  0  0  0  0  0  0  0  0
    8.9770    1.5232   -2.8619 C   0  0  0  0  0  0  0  0  0  0  0  0
    9.9499    1.8605   -3.4012 N   0  0  0  0  0  0  0  0  0  0  0  0
    6.5579    1.4985   -2.6975 C   0  0  0  0  0  0  0  0  0  0  0  0
    5.4068    1.1012   -2.0615 C   0  0  0  0  0  0  0  0  0  0  0  0
    1.6479   -0.7870    0.8616 O   0  0  0  0  0  0  0  0  0  0  0  0
   -3.0774    0.5525   -0.7441 C   0  0  0  0  0  0  0  0  0  0  0  0
   -4.4071    0.7732   -0.9958 C   0  0  0  0  0  0  0  0  0  0  0  0
   -6.8801    2.2360   -1.5030 H   0  0  0  0  0  0  0  0  0  0  0  0
   -8.2882    1.1918   -1.6975 H   0  0  0  0  0  0  0  0  0  0  0  0
   -6.7865    0.7878   -2.5222 H   0  0  0  0  0  0  0  0  0  0  0  0
   -8.7866    0.2523    0.1332 H   0  0  0  0  0  0  0  0  0  0  0  0
   -7.8169   -1.2037    0.3610 H   0  0  0  0  0  0  0  0  0  0  0  0
   -7.6208    0.1822    1.4497 H   0  0  0  0  0  0  0  0  0  0  0  0
   -5.7291   -1.0838    1.4891 H   0  0  0  0  0  0  0  0  0  0  0  0
   -3.3733   -1.4721    1.9376 H   0  0  0  0  0  0  0  0  0  0  0  0
   -0.5695   -0.0009   -0.1329 H   0  0  0  0  0  0  0  0  0  0  0  0
   -1.3425   -1.6744    2.2749 H   0  0  0  0  0  0  0  0  0  0  0  0
    0.9331   -2.5855    3.4939 H   0  0  0  0  0  0  0  0  0  0  0  0
    4.9973   -1.2243    1.3306 H   0  0  0  0  0  0  0  0  0  0  0  0
    3.3049    0.2444   -0.7158 H   0  0  0  0  0  0  0  0  0  0  0  0
    6.7832   -0.6844    0.4486 H   0  0  0  0  0  0  0  0  0  0  0  0
    8.8260    0.0307   -0.6941 H   0  0  0  0  0  0  0  0  0  0  0  0
    6.5097    2.1112   -3.5816 H   0  0  0  0  0  0  0  0  0  0  0  0
    4.4484    1.4029   -2.4475 H   0  0  0  0  0  0  0  0  0  0  0  0
   -2.3295    1.0091   -1.3694 H   0  0  0  0  0  0  0  0  0  0  0  0
   -4.6938    1.4066   -1.8160 H   0  0  0  0  0  0  0  0  0  0  0  0
  1  2  1  0  0  0  0
  2  3  1  0  0  0  0
  2  4  1  0  0  0  0
  4  5  2  0  0  0  0
  5  6  1  0  0  0  0
  6  7  2  0  0  0  0
  7  8  1  0  0  0  0
  8  9  2  0  0  0  0
  9 10  1  0  0  0  0
 10 11  2  0  0  0  0
 11 12  1  0  0  0  0
 12 13  2  0  0  0  0
 13 14  1  0  0  0  0
 14 15  2  0  0  0  0
 15 16  1  0  0  0  0
 16 17  2  0  0  0  0
 17 18  1  0  0  0  0
 18 19  2  0  0  0  0
 19 20  1  0  0  0  0
 20 21  3  0  0  0  0
 19 22  1  0  0  0  0
 22 23  2  0  0  0  0
 13 24  1  0  0  0  0
  7 25  1  0  0  0  0
 25 26  2  0  0  0  0
 26  4  1  0  0  0  0
 24 10  1  0  0  0  0
 23 16  1  0  0  0  0
  1 27  1  0  0  0  0
  1 28  1  0  0  0  0
  1 29  1  0  0  0  0
  3 30  1  0  0  0  0
  3 31  1  0  0  0  0
  3 32  1  0  0  0  0
  5 33  1  0  0  0  0
  6 34  1  0  0  0  0
  8 35  1  0  0  0  0
  9 36  1  0  0  0  0
 11 37  1  0  0  0  0
 14 38  1  0  0  0  0
 15 39  1  0  0  0  0
 17 40  1  0  0  0  0
 18 41  1  0  0  0  0
 22 42  1  0  0  0  0
 23 43  1  0  0  0  0
 25 44  1  0  0  0  0
 26 45  1  0  0  0  0
M  END
