
  xtb     03012221243D
 energy: -15.347815493208 gnorm: 0.000272861157 xtb: 6.4.1 (afa7bdf)
 77 84  0     0  0            999 V2000
   -2.1294   -3.9942   -0.0818 C   0  0  0  0  0  0  0  0  0  0  0  0
   -2.1535   -2.5273    0.0409 C   0  0  0  0  0  0  0  0  0  0  0  0
   -3.2515   -1.8081    0.2213 N   0  0  0  0  0  4  0  0  0  0  0  0
   -2.9948   -0.4203    0.3101 C   0  0  0  0  0  0  0  0  0  0  0  0
   -3.9975    0.5638    0.5188 C   0  0  0  0  0  0  0  0  0  0  0  0
   -3.6636    1.9954    0.5900 C   0  0  0  0  0  0  0  0  0  0  0  0
   -4.1953    2.8152    1.5899 C   0  0  0  0  0  0  0  0  0  0  0  0
   -3.8495    4.1420    1.6750 C   0  0  0  0  0  0  0  0  0  0  0  0
   -2.9593    4.6986    0.7625 C   0  0  0  0  0  0  0  0  0  0  0  0
   -2.5571    6.1002    0.8394 C   0  0  0  0  0  0  0  0  0  0  0  0
   -1.7474    6.6182    0.1198 O   0  0  0  0  0  0  0  0  0  0  0  0
   -2.4348    3.8957   -0.2398 C   0  0  0  0  0  0  0  0  0  0  0  0
   -2.7793    2.5698   -0.3279 C   0  0  0  0  0  0  0  0  0  0  0  0
   -5.3013    0.0868    0.6539 C   0  0  0  0  0  0  0  0  0  0  0  0
   -6.5369    0.7653    0.8260 C   0  0  0  0  0  0  0  0  0  0  0  0
   -7.5382   -0.1780    0.8717 C   0  0  0  0  0  0  0  0  0  0  0  0
   -6.9637   -1.4636    0.7279 C   0  0  0  0  0  0  0  0  0  0  0  0
   -7.6453   -2.7692    0.6782 C   0  0  0  0  0  0  0  0  0  0  0  0
   -5.6498   -1.2710    0.5931 N   0  0  0  0  0  0  0  0  0  0  0  0
   -4.6509   -2.4061    0.3618 B   0  0  0  0  0  4  0  0  0  0  0  0
   -4.9833   -3.0770   -0.8167 F   0  0  0  0  0  0  0  0  0  0  0  0
   -4.6740   -3.2672    1.4606 F   0  0  0  0  0  0  0  0  0  0  0  0
   -1.6266   -0.2928    0.1894 C   0  0  0  0  0  0  0  0  0  0  0  0
   -1.0657   -1.5877    0.0086 C   0  0  0  0  0  0  0  0  0  0  0  0
    0.3159   -1.8422   -0.1725 C   0  0  0  0  0  0  0  0  0  0  0  0
    1.3340   -0.8451   -0.1951 C   0  0  0  0  0  0  0  0  0  0  0  0
    2.5425   -1.4719   -0.4154 C   0  0  0  0  0  0  0  0  0  0  0  0
    2.2472   -2.8518   -0.5165 N   0  0  0  0  0  0  0  0  0  0  0  0
    0.9599   -3.1020   -0.3802 C   0  0  0  0  0  0  0  0  0  0  0  0
    3.3221   -3.9161   -0.7515 B   0  0  0  0  0  4  0  0  0  0  0  0
    3.0493   -4.5760   -1.9518 F   0  0  0  0  0  0  0  0  0  0  0  0
    3.3358   -4.7934    0.3352 F   0  0  0  0  0  0  0  0  0  0  0  0
    4.6891   -3.2297   -0.8577 N   0  0  0  0  0  4  0  0  0  0  0  0
    5.8352   -3.8654   -1.0788 C   0  0  0  0  0  0  0  0  0  0  0  0
    6.8453   -2.8824   -1.1259 C   0  0  0  0  0  0  0  0  0  0  0  0
    6.2703   -1.6473   -0.9275 C   0  0  0  0  0  0  0  0  0  0  0  0
    4.8751   -1.8425   -0.7482 C   0  0  0  0  0  0  0  0  0  0  0  0
    3.8475   -0.9286   -0.5269 C   0  0  0  0  0  0  0  0  0  0  0  0
    4.0855    0.5303   -0.4163 C   0  0  0  0  0  0  0  0  0  0  0  0
    3.6989    1.3937   -1.4590 C   0  0  0  0  0  0  0  0  0  0  0  0
    3.0686    0.8588   -2.6974 C   0  0  0  0  0  0  0  0  0  0  0  0
    3.8884    2.7550   -1.3167 C   0  0  0  0  0  0  0  0  0  0  0  0
    4.4644    3.2947   -0.1781 C   0  0  0  0  0  0  0  0  0  0  0  0
    4.6800    4.7633   -0.0627 C   0  0  0  0  0  0  0  0  0  0  0  0
    4.8644    2.4357    0.8332 C   0  0  0  0  0  0  0  0  0  0  0  0
    4.6745    1.0698    0.7427 C   0  0  0  0  0  0  0  0  0  0  0  0
    5.1035    0.1844    1.8603 C   0  0  0  0  0  0  0  0  0  0  0  0
   -3.1404   -4.3916    0.0162 H   0  0  0  0  0  0  0  0  0  0  0  0
   -1.5167   -4.4422    0.7003 H   0  0  0  0  0  0  0  0  0  0  0  0
   -1.7425   -4.2992   -1.0539 H   0  0  0  0  0  0  0  0  0  0  0  0
   -4.8594    2.3835    2.3180 H   0  0  0  0  0  0  0  0  0  0  0  0
   -4.2568    4.7602    2.4552 H   0  0  0  0  0  0  0  0  0  0  0  0
   -3.0082    6.7265    1.5955 H   0  0  0  0  0  0  0  0  0  0  0  0
   -1.7527    4.3378   -0.9448 H   0  0  0  0  0  0  0  0  0  0  0  0
   -2.3833    1.9616   -1.1223 H   0  0  0  0  0  0  0  0  0  0  0  0
   -6.6666    1.8329    0.8803 H   0  0  0  0  0  0  0  0  0  0  0  0
   -8.5908    0.0205    0.9848 H   0  0  0  0  0  0  0  0  0  0  0  0
   -6.9133   -3.5755    0.7387 H   0  0  0  0  0  0  0  0  0  0  0  0
   -8.1956   -2.8836   -0.2555 H   0  0  0  0  0  0  0  0  0  0  0  0
   -8.3434   -2.8791    1.5080 H   0  0  0  0  0  0  0  0  0  0  0  0
   -1.0743    0.6286    0.2459 H   0  0  0  0  0  0  0  0  0  0  0  0
    1.1941    0.2127   -0.0664 H   0  0  0  0  0  0  0  0  0  0  0  0
    0.5239   -4.0839   -0.4253 H   0  0  0  0  0  0  0  0  0  0  0  0
    5.9334   -4.9321   -1.2002 H   0  0  0  0  0  0  0  0  0  0  0  0
    7.8932   -3.0698   -1.2962 H   0  0  0  0  0  0  0  0  0  0  0  0
    6.7764   -0.6971   -0.9165 H   0  0  0  0  0  0  0  0  0  0  0  0
    3.3006    1.4849   -3.5592 H   0  0  0  0  0  0  0  0  0  0  0  0
    1.9842    0.8165   -2.5937 H   0  0  0  0  0  0  0  0  0  0  0  0
    3.4246   -0.1481   -2.9170 H   0  0  0  0  0  0  0  0  0  0  0  0
    3.5832    3.4131   -2.1104 H   0  0  0  0  0  0  0  0  0  0  0  0
    4.7365    5.0729    0.9811 H   0  0  0  0  0  0  0  0  0  0  0  0
    5.6084    5.0578   -0.5524 H   0  0  0  0  0  0  0  0  0  0  0  0
    3.8630    5.3164   -0.5270 H   0  0  0  0  0  0  0  0  0  0  0  0
    5.3264    2.8437    1.7143 H   0  0  0  0  0  0  0  0  0  0  0  0
    4.4454   -0.6802    1.9514 H   0  0  0  0  0  0  0  0  0  0  0  0
    5.0844    0.7140    2.8131 H   0  0  0  0  0  0  0  0  0  0  0  0
    6.1177   -0.1810    1.6984 H   0  0  0  0  0  0  0  0  0  0  0  0
  1  2  1  0  0  0  0
  2  3  2  0  0  0  0
  3  4  1  0  0  0  0
  4  5  2  0  0  0  0
  5  6  1  0  0  0  0
  6  7  2  0  0  0  0
  7  8  1  0  0  0  0
  8  9  2  0  0  0  0
  9 10  1  0  0  0  0
 10 11  2  0  0  0  0
  9 12  1  0  0  0  0
 12 13  2  0  0  0  0
  5 14  1  0  0  0  0
 14 15  2  0  0  0  0
 15 16  1  0  0  0  0
 16 17  2  0  0  0  0
 17 18  1  0  0  0  0
 17 19  1  0  0  0  0
 19 20  1  0  0  0  0
 20 21  1  0  0  0  0
 20 22  1  0  0  0  0
  4 23  1  0  0  0  0
 23 24  2  0  0  0  0
 24 25  1  0  0  0  0
 25 26  1  0  0  0  0
 26 27  2  0  0  0  0
 27 28  1  0  0  0  0
 28 29  1  0  0  0  0
 28 30  1  0  0  0  0
 30 31  1  0  0  0  0
 30 32  1  0  0  0  0
 30 33  1  0  0  0  0
 33 34  2  0  0  0  0
 34 35  1  0  0  0  0
 35 36  2  0  0  0  0
 36 37  1  0  0  0  0
 37 38  2  0  0  0  0
 38 39  1  0  0  0  0
 39 40  2  0  0  0  0
 40 41  1  0  0  0  0
 40 42  1  0  0  0  0
 42 43  2  0  0  0  0
 43 44  1  0  0  0  0
 43 45  1  0  0  0  0
 45 46  2  0  0  0  0
 46 47  1  0  0  0  0
 24  2  1  0  0  0  0
 29 25  2  0  0  0  0
 37 33  1  0  0  0  0
 46 39  1  0  0  0  0
 20  3  1  0  0  0  0
 38 27  1  0  0  0  0
 13  6  1  0  0  0  0
 19 14  1  0  0  0  0
  1 48  1  0  0  0  0
  1 49  1  0  0  0  0
  1 50  1  0  0  0  0
  7 51  1  0  0  0  0
  8 52  1  0  0  0  0
 10 53  1  0  0  0  0
 12 54  1  0  0  0  0
 13 55  1  0  0  0  0
 15 56  1  0  0  0  0
 16 57  1  0  0  0  0
 18 58  1  0  0  0  0
 18 59  1  0  0  0  0
 18 60  1  0  0  0  0
 23 61  1  0  0  0  0
 26 62  1  0  0  0  0
 29 63  1  0  0  0  0
 34 64  1  0  0  0  0
 35 65  1  0  0  0  0
 36 66  1  0  0  0  0
 41 67  1  0  0  0  0
 41 68  1  0  0  0  0
 41 69  1  0  0  0  0
 42 70  1  0  0  0  0
 44 71  1  0  0  0  0
 44 72  1  0  0  0  0
 44 73  1  0  0  0  0
 45 74  1  0  0  0  0
 47 75  1  0  0  0  0
 47 76  1  0  0  0  0
 47 77  1  0  0  0  0
M  CHG  1   3   1
M  CHG  1  20  -1
M  CHG  1  30  -1
M  CHG  1  33   1
M  END
