
  xtb     03012221313D
 energy: -7.127748870025 gnorm: 0.000195412309 xtb: 6.4.1 (afa7bdf)
 32 36  0     0  0            999 V2000
   -2.5855   -1.8457    1.9709 C   0  0  0  0  0  0  0  0  0  0  0  0
   -3.2526   -0.6799    1.7396 C   0  0  0  0  0  0  0  0  0  0  0  0
   -2.6445    0.3579    1.0041 C   0  0  0  0  0  0  0  0  0  0  0  0
   -3.3216    1.5695    0.7565 C   0  0  0  0  0  0  0  0  0  0  0  0
   -2.7205    2.5636    0.0437 C   0  0  0  0  0  0  0  0  0  0  0  0
   -1.4298    2.3972   -0.4501 C   0  0  0  0  0  0  0  0  0  0  0  0
   -0.7144    1.2309   -0.2398 C   0  0  0  0  0  0  0  0  0  0  0  0
    0.6446    1.0471   -0.7558 C   0  0  0  0  0  0  0  0  0  0  0  0
    1.2942    2.0287   -1.4844 C   0  0  0  0  0  0  0  0  0  0  0  0
    2.5854    1.8457   -1.9709 C   0  0  0  0  0  0  0  0  0  0  0  0
    3.2526    0.6799   -1.7396 C   0  0  0  0  0  0  0  0  0  0  0  0
    2.6445   -0.3579   -1.0040 C   0  0  0  0  0  0  0  0  0  0  0  0
    3.3216   -1.5695   -0.7565 C   0  0  0  0  0  0  0  0  0  0  0  0
    2.7206   -2.5637   -0.0437 C   0  0  0  0  0  0  0  0  0  0  0  0
    1.4299   -2.3973    0.4501 C   0  0  0  0  0  0  0  0  0  0  0  0
    0.7144   -1.2310    0.2399 C   0  0  0  0  0  0  0  0  0  0  0  0
   -0.6446   -1.0472    0.7559 C   0  0  0  0  0  0  0  0  0  0  0  0
   -1.2943   -2.0288    1.4845 C   0  0  0  0  0  0  0  0  0  0  0  0
   -1.3286    0.1796    0.5045 C   0  0  0  0  0  0  0  0  0  0  0  0
    1.3286   -0.1798   -0.5045 C   0  0  0  0  0  0  0  0  0  0  0  0
   -3.0598   -2.6326    2.5345 H   0  0  0  0  0  0  0  0  0  0  0  0
   -4.2511   -0.5390    2.1161 H   0  0  0  0  0  0  0  0  0  0  0  0
   -4.3197    1.6990    1.1379 H   0  0  0  0  0  0  0  0  0  0  0  0
   -3.2469    3.4861   -0.1400 H   0  0  0  0  0  0  0  0  0  0  0  0
   -0.9891    3.2032   -1.0074 H   0  0  0  0  0  0  0  0  0  0  0  0
    0.8009    2.9614   -1.6872 H   0  0  0  0  0  0  0  0  0  0  0  0
    3.0595    2.6327   -2.5344 H   0  0  0  0  0  0  0  0  0  0  0  0
    4.2510    0.5391   -2.1161 H   0  0  0  0  0  0  0  0  0  0  0  0
    4.3197   -1.6987   -1.1381 H   0  0  0  0  0  0  0  0  0  0  0  0
    3.2472   -3.4861    0.1399 H   0  0  0  0  0  0  0  0  0  0  0  0
    0.9893   -3.2033    1.0074 H   0  0  0  0  0  0  0  0  0  0  0  0
   -0.8006   -2.9612    1.6870 H   0  0  0  0  0  0  0  0  0  0  0  0
  1  2  2  0  0  0  0
  2  3  1  0  0  0  0
  3  4  2  0  0  0  0
  4  5  1  0  0  0  0
  5  6  2  0  0  0  0
  6  7  1  0  0  0  0
  7  8  1  0  0  0  0
  8  9  1  0  0  0  0
  9 10  2  0  0  0  0
 10 11  1  0  0  0  0
 11 12  2  0  0  0  0
 12 13  1  0  0  0  0
 13 14  2  0  0  0  0
 14 15  1  0  0  0  0
 15 16  2  0  0  0  0
 16 17  1  0  0  0  0
 17 18  2  0  0  0  0
 17 19  1  0  0  0  0
 16 20  1  0  0  0  0
 18  1  1  0  0  0  0
 19  3  1  0  0  0  0
 19  7  2  0  0  0  0
 20  8  2  0  0  0  0
 20 12  1  0  0  0  0
  1 21  1  0  0  0  0
  2 22  1  0  0  0  0
  4 23  1  0  0  0  0
  5 24  1  0  0  0  0
  6 25  1  0  0  0  0
  9 26  1  0  0  0  0
 10 27  1  0  0  0  0
 11 28  1  0  0  0  0
 13 29  1  0  0  0  0
 14 30  1  0  0  0  0
 15 31  1  0  0  0  0
 18 32  1  0  0  0  0
M  END
