
  xtb     03012221313D
 energy: -4.447622013159 gnorm: 0.000351153197 xtb: 6.4.1 (afa7bdf)
 25 25  0     0  0            999 V2000
   -2.9975   -2.3992   -0.8903 C   0  0  0  0  0  0  0  0  0  0  0  0
   -3.3191   -1.0887   -0.4916 O   0  0  0  0  0  0  0  0  0  0  0  0
   -2.2218   -0.2510   -0.2628 C   0  0  0  0  0  0  0  0  0  0  0  0
   -0.9004   -0.6273   -0.4323 C   0  0  0  0  0  0  0  0  0  0  0  0
    0.1583    0.2492   -0.1846 C   0  0  0  0  0  0  0  0  0  0  0  0
    1.5298   -0.2084   -0.3831 C   0  0  0  0  0  0  0  0  0  0  0  0
    2.6220    0.4404    0.0139 C   0  0  0  0  0  0  0  0  0  0  0  0
    3.9960   -0.0721   -0.2130 C   0  0  0  0  0  0  0  0  0  0  0  0
    4.9879    0.8017    0.2999 O   0  0  0  0  0  0  0  0  0  0  0  0
   -0.1406    1.5401    0.2381 C   0  0  0  0  0  0  0  0  0  0  0  0
   -1.4464    1.9414    0.4131 C   0  0  0  0  0  0  0  0  0  0  0  0
   -2.5014    1.0720    0.1726 C   0  0  0  0  0  0  0  0  0  0  0  0
   -3.8132    1.4593    0.3449 O   0  0  0  0  0  0  0  0  0  0  0  0
   -2.4620   -2.3769   -1.8404 H   0  0  0  0  0  0  0  0  0  0  0  0
   -2.3982   -2.8851   -0.1190 H   0  0  0  0  0  0  0  0  0  0  0  0
   -3.9274   -2.9547   -1.0200 H   0  0  0  0  0  0  0  0  0  0  0  0
   -0.6698   -1.6225   -0.7614 H   0  0  0  0  0  0  0  0  0  0  0  0
    1.6575   -1.1519   -0.8847 H   0  0  0  0  0  0  0  0  0  0  0  0
    2.5381    1.3743    0.5384 H   0  0  0  0  0  0  0  0  0  0  0  0
    4.1687   -0.2082   -1.2881 H   0  0  0  0  0  0  0  0  0  0  0  0
    4.1100   -1.0531    0.2657 H   0  0  0  0  0  0  0  0  0  0  0  0
    5.8919    0.4462    0.1417 H   0  0  0  0  0  0  0  0  0  0  0  0
    0.6554    2.2399    0.4187 H   0  0  0  0  0  0  0  0  0  0  0  0
   -1.6626    2.9433    0.7386 H   0  0  0  0  0  0  0  0  0  0  0  0
   -3.8548    2.3913    0.6536 H   0  0  0  0  0  0  0  0  0  0  0  0
  1  2  1  0  0  0  0
  2  3  1  0  0  0  0
  3  4  2  0  0  0  0
  4  5  1  0  0  0  0
  5  6  1  0  0  0  0
  6  7  2  0  0  0  0
  7  8  1  0  0  0  0
  8  9  1  0  0  0  0
  5 10  2  0  0  0  0
 10 11  1  0  0  0  0
 11 12  2  0  0  0  0
 12 13  1  0  0  0  0
 12  3  1  0  0  0  0
  1 14  1  0  0  0  0
  1 15  1  0  0  0  0
  1 16  1  0  0  0  0
  4 17  1  0  0  0  0
  6 18  1  0  0  0  0
  7 19  1  0  0  0  0
  8 20  1  0  0  0  0
  8 21  1  0  0  0  0
  9 22  1  0  0  0  0
 10 23  1  0  0  0  0
 11 24  1  0  0  0  0
 13 25  1  0  0  0  0
M  END
