
  xtb     03012221303D
 energy: -21.970841200756 gnorm: 0.000291160829 xtb: 6.4.1 (afa7bdf)
115124  0     0  0            999 V2000
    9.7028    2.2738   -1.1567 C   0  0  0  0  0  0  0  0  0  0  0  0
    9.1083    1.5439    0.0620 C   0  0  0  0  0  0  0  0  0  0  0  0
    9.5998    2.2137    1.3586 C   0  0  0  0  0  0  0  0  0  0  0  0
    9.6122    0.0872    0.0477 C   0  0  0  0  0  0  0  0  0  0  0  0
    7.5745    1.6200    0.0021 C   0  0  0  0  0  0  0  0  0  0  0  0
    6.9490    2.8661    0.0042 C   0  0  0  0  0  0  0  0  0  0  0  0
    5.5850    2.9756   -0.0398 C   0  0  0  0  0  0  0  0  0  0  0  0
    4.7792    1.8363   -0.0890 C   0  0  0  0  0  0  0  0  0  0  0  0
    3.3410    1.9278   -0.1229 C   0  0  0  0  0  0  0  0  0  0  0  0
    2.5386    0.7562   -0.1667 C   0  0  0  0  0  0  0  0  0  0  0  0
    3.1345   -0.5473   -0.1900 C   0  0  0  0  0  0  0  0  0  0  0  0
    2.3624   -1.7075   -0.2506 C   0  0  0  0  0  0  0  0  0  0  0  0
    2.9458   -2.9441   -0.2606 C   0  0  0  0  0  0  0  0  0  0  0  0
    4.3324   -3.0851   -0.2150 C   0  0  0  0  0  0  0  0  0  0  0  0
    4.9489   -4.4921   -0.2250 C   0  0  0  0  0  0  0  0  0  0  0  0
    4.5333   -5.2197   -1.5162 C   0  0  0  0  0  0  0  0  0  0  0  0
    6.4879   -4.4447   -0.1686 C   0  0  0  0  0  0  0  0  0  0  0  0
    4.4431   -5.2765    0.9990 C   0  0  0  0  0  0  0  0  0  0  0  0
    5.1023   -1.9387   -0.1635 C   0  0  0  0  0  0  0  0  0  0  0  0
    4.5464   -0.6537   -0.1500 C   0  0  0  0  0  0  0  0  0  0  0  0
    5.3801    0.5549   -0.0965 C   0  0  0  0  0  0  0  0  0  0  0  0
    6.7782    0.4917   -0.0492 C   0  0  0  0  0  0  0  0  0  0  0  0
    1.2456    1.1809   -0.1501 N   0  0  0  0  0  4  0  0  0  0  0  0
    1.1674    2.5716   -0.1103 C   0  0  0  0  0  0  0  0  0  0  0  0
   -0.0336    3.3019   -0.0416 C   0  0  0  0  0  0  0  0  0  0  0  0
   -0.0442    4.7750   -0.0050 C   0  0  0  0  0  0  0  0  0  0  0  0
   -0.8408    5.4692    0.9109 C   0  0  0  0  0  0  0  0  0  0  0  0
   -0.8456    6.8443    0.9430 C   0  0  0  0  0  0  0  0  0  0  0  0
   -0.0586    7.5618    0.0647 C   0  0  0  0  0  0  0  0  0  0  0  0
    0.7360    6.8974   -0.8478 C   0  0  0  0  0  0  0  0  0  0  0  0
    0.7457    5.5225   -0.8841 C   0  0  0  0  0  0  0  0  0  0  0  0
   -1.2207    2.5474    0.0028 C   0  0  0  0  0  0  0  0  0  0  0  0
   -2.5574    2.9874    0.0439 C   0  0  0  0  0  0  0  0  0  0  0  0
   -3.3804    1.8608    0.0586 C   0  0  0  0  0  0  0  0  0  0  0  0
   -4.8164    1.7420    0.1069 C   0  0  0  0  0  0  0  0  0  0  0  0
   -5.6444    2.8650    0.1658 C   0  0  0  0  0  0  0  0  0  0  0  0
   -7.0061    2.7306    0.2277 C   0  0  0  0  0  0  0  0  0  0  0  0
   -7.6056    1.4708    0.2343 C   0  0  0  0  0  0  0  0  0  0  0  0
   -9.1287    1.2835    0.3135 C   0  0  0  0  0  0  0  0  0  0  0  0
   -9.4765    0.4633    1.5700 C   0  0  0  0  0  0  0  0  0  0  0  0
   -9.6159    0.5383   -0.9430 C   0  0  0  0  0  0  0  0  0  0  0  0
   -9.8678    2.6331    0.3960 C   0  0  0  0  0  0  0  0  0  0  0  0
   -6.7873    0.3602    0.1699 C   0  0  0  0  0  0  0  0  0  0  0  0
   -5.3918    0.4493    0.1044 C   0  0  0  0  0  0  0  0  0  0  0  0
   -4.5365   -0.7430    0.0405 C   0  0  0  0  0  0  0  0  0  0  0  0
   -5.0699   -2.0372    0.0134 C   0  0  0  0  0  0  0  0  0  0  0  0
   -4.2798   -3.1693   -0.0436 C   0  0  0  0  0  0  0  0  0  0  0  0
   -4.8720   -4.5864   -0.0790 C   0  0  0  0  0  0  0  0  0  0  0  0
   -6.4114   -4.5666   -0.0176 C   0  0  0  0  0  0  0  0  0  0  0  0
   -4.3498   -5.3865    1.1279 C   0  0  0  0  0  0  0  0  0  0  0  0
   -4.4471   -5.2803   -1.3854 C   0  0  0  0  0  0  0  0  0  0  0  0
   -2.8955   -3.0036   -0.0750 C   0  0  0  0  0  0  0  0  0  0  0  0
   -2.3339   -1.7571   -0.0520 C   0  0  0  0  0  0  0  0  0  0  0  0
   -3.1268   -0.6105    0.0024 C   0  0  0  0  0  0  0  0  0  0  0  0
   -2.5561    0.7044    0.0149 C   0  0  0  0  0  0  0  0  0  0  0  0
   -1.2722    1.1550   -0.0202 N   0  0  0  0  0  0  0  0  0  0  0  0
   -0.0057    0.2942   -0.1126 B   0  0  0  0  0  4  0  0  0  0  0  0
   -0.0606   -0.4528   -1.2861 F   0  0  0  0  0  0  0  0  0  0  0  0
    0.0631   -0.5199    1.0149 F   0  0  0  0  0  0  0  0  0  0  0  0
    2.4958    3.0375   -0.0887 C   0  0  0  0  0  0  0  0  0  0  0  0
   10.7913    2.2212   -1.1499 H   0  0  0  0  0  0  0  0  0  0  0  0
    9.4209    3.3258   -1.1655 H   0  0  0  0  0  0  0  0  0  0  0  0
    9.3488    1.8246   -2.0842 H   0  0  0  0  0  0  0  0  0  0  0  0
    9.3164    3.2647    1.3940 H   0  0  0  0  0  0  0  0  0  0  0  0
    9.1713    1.7221    2.2316 H   0  0  0  0  0  0  0  0  0  0  0  0
   10.6852    2.1587    1.4390 H   0  0  0  0  0  0  0  0  0  0  0  0
    9.3024   -0.4268   -0.8618 H   0  0  0  0  0  0  0  0  0  0  0  0
   10.7007    0.0550    0.0888 H   0  0  0  0  0  0  0  0  0  0  0  0
    9.2346   -0.4676    0.9063 H   0  0  0  0  0  0  0  0  0  0  0  0
    7.5509    3.7582    0.0433 H   0  0  0  0  0  0  0  0  0  0  0  0
    5.1214    3.9458   -0.0353 H   0  0  0  0  0  0  0  0  0  0  0  0
    1.2945   -1.6105   -0.2966 H   0  0  0  0  0  0  0  0  0  0  0  0
    2.3250   -3.8227   -0.3052 H   0  0  0  0  0  0  0  0  0  0  0  0
    4.9713   -6.2164   -1.5603 H   0  0  0  0  0  0  0  0  0  0  0  0
    4.8655   -4.6654   -2.3934 H   0  0  0  0  0  0  0  0  0  0  0  0
    3.4516   -5.3284   -1.5792 H   0  0  0  0  0  0  0  0  0  0  0  0
    6.8963   -3.9138   -1.0280 H   0  0  0  0  0  0  0  0  0  0  0  0
    6.8325   -3.9523    0.7403 H   0  0  0  0  0  0  0  0  0  0  0  0
    6.9054   -5.4513   -0.1755 H   0  0  0  0  0  0  0  0  0  0  0  0
    4.7100   -4.7624    1.9218 H   0  0  0  0  0  0  0  0  0  0  0  0
    3.3599   -5.3869    0.9791 H   0  0  0  0  0  0  0  0  0  0  0  0
    4.8792   -6.2746    1.0301 H   0  0  0  0  0  0  0  0  0  0  0  0
    6.1688   -2.0388   -0.1326 H   0  0  0  0  0  0  0  0  0  0  0  0
    7.2511   -0.4700   -0.0499 H   0  0  0  0  0  0  0  0  0  0  0  0
   -1.4343    4.9108    1.6137 H   0  0  0  0  0  0  0  0  0  0  0  0
   -1.4627    7.3630    1.6589 H   0  0  0  0  0  0  0  0  0  0  0  0
   -0.0642    8.6402    0.0917 H   0  0  0  0  0  0  0  0  0  0  0  0
    1.3481    7.4575   -1.5363 H   0  0  0  0  0  0  0  0  0  0  0  0
    1.3473    5.0056   -1.6115 H   0  0  0  0  0  0  0  0  0  0  0  0
   -2.8865    4.0104    0.0387 H   0  0  0  0  0  0  0  0  0  0  0  0
   -5.1991    3.8438    0.1657 H   0  0  0  0  0  0  0  0  0  0  0  0
   -7.6168    3.6154    0.2742 H   0  0  0  0  0  0  0  0  0  0  0  0
   -9.1158    0.9641    2.4680 H   0  0  0  0  0  0  0  0  0  0  0  0
  -10.5544    0.3341    1.6653 H   0  0  0  0  0  0  0  0  0  0  0  0
   -9.0252   -0.5274    1.5357 H   0  0  0  0  0  0  0  0  0  0  0  0
  -10.6975    0.4067   -0.9234 H   0  0  0  0  0  0  0  0  0  0  0  0
   -9.3599    1.0954   -1.8439 H   0  0  0  0  0  0  0  0  0  0  0  0
   -9.1620   -0.4488   -1.0200 H   0  0  0  0  0  0  0  0  0  0  0  0
   -9.5660    3.1920    1.2814 H   0  0  0  0  0  0  0  0  0  0  0  0
   -9.6699    3.2437   -0.4845 H   0  0  0  0  0  0  0  0  0  0  0  0
  -10.9453    2.4804    0.4547 H   0  0  0  0  0  0  0  0  0  0  0  0
   -7.2502   -0.6074    0.1755 H   0  0  0  0  0  0  0  0  0  0  0  0
   -6.1348   -2.1553    0.0335 H   0  0  0  0  0  0  0  0  0  0  0  0
   -6.8316   -4.0300   -0.8677 H   0  0  0  0  0  0  0  0  0  0  0  0
   -6.8114   -5.5799   -0.0387 H   0  0  0  0  0  0  0  0  0  0  0  0
   -6.7614   -4.0938    0.8996 H   0  0  0  0  0  0  0  0  0  0  0  0
   -3.2652   -5.4802    1.1026 H   0  0  0  0  0  0  0  0  0  0  0  0
   -4.6215   -4.8947    2.0614 H   0  0  0  0  0  0  0  0  0  0  0  0
   -4.7703   -6.3916    1.1407 H   0  0  0  0  0  0  0  0  0  0  0  0
   -4.7905   -4.7139   -2.2505 H   0  0  0  0  0  0  0  0  0  0  0  0
   -3.3638   -5.3687   -1.4525 H   0  0  0  0  0  0  0  0  0  0  0  0
   -4.8682   -6.2832   -1.4493 H   0  0  0  0  0  0  0  0  0  0  0  0
   -2.2590   -3.8708   -0.1206 H   0  0  0  0  0  0  0  0  0  0  0  0
   -1.2672   -1.6423   -0.0760 H   0  0  0  0  0  0  0  0  0  0  0  0
    2.8036    4.0645   -0.0141 H   0  0  0  0  0  0  0  0  0  0  0  0
  1  2  1  0  0  0  0
  2  3  1  0  0  0  0
  2  4  1  0  0  0  0
  2  5  1  0  0  0  0
  5  6  2  0  0  0  0
  6  7  1  0  0  0  0
  7  8  2  0  0  0  0
  8  9  1  0  0  0  0
  9 10  1  0  0  0  0
 10 11  1  0  0  0  0
 11 12  2  0  0  0  0
 12 13  1  0  0  0  0
 13 14  2  0  0  0  0
 14 15  1  0  0  0  0
 15 16  1  0  0  0  0
 15 17  1  0  0  0  0
 15 18  1  0  0  0  0
 14 19  1  0  0  0  0
 19 20  2  0  0  0  0
 20 21  1  0  0  0  0
 21 22  2  0  0  0  0
 10 23  2  0  0  0  0
 23 24  1  0  0  0  0
 24 25  2  0  0  0  0
 25 26  1  0  0  0  0
 26 27  2  0  0  0  0
 27 28  1  0  0  0  0
 28 29  2  0  0  0  0
 29 30  1  0  0  0  0
 30 31  2  0  0  0  0
 25 32  1  0  0  0  0
 32 33  2  0  0  0  0
 33 34  1  0  0  0  0
 34 35  2  0  0  0  0
 35 36  1  0  0  0  0
 36 37  2  0  0  0  0
 37 38  1  0  0  0  0
 38 39  1  0  0  0  0
 39 40  1  0  0  0  0
 39 41  1  0  0  0  0
 39 42  1  0  0  0  0
 38 43  2  0  0  0  0
 43 44  1  0  0  0  0
 44 45  2  0  0  0  0
 45 46  1  0  0  0  0
 46 47  2  0  0  0  0
 47 48  1  0  0  0  0
 48 49  1  0  0  0  0
 48 50  1  0  0  0  0
 48 51  1  0  0  0  0
 47 52  1  0  0  0  0
 52 53  2  0  0  0  0
 53 54  1  0  0  0  0
 54 55  2  0  0  0  0
 55 56  1  0  0  0  0
 56 57  1  0  0  0  0
 57 58  1  0  0  0  0
 57 59  1  0  0  0  0
 24 60  1  0  0  0  0
 22  5  1  0  0  0  0
 57 23  1  0  0  0  0
 21  8  1  0  0  0  0
 31 26  1  0  0  0  0
 56 32  1  0  0  0  0
 60  9  2  0  0  0  0
 20 11  1  0  0  0  0
 55 34  1  0  0  0  0
 44 35  1  0  0  0  0
 54 45  1  0  0  0  0
  1 61  1  0  0  0  0
  1 62  1  0  0  0  0
  1 63  1  0  0  0  0
  3 64  1  0  0  0  0
  3 65  1  0  0  0  0
  3 66  1  0  0  0  0
  4 67  1  0  0  0  0
  4 68  1  0  0  0  0
  4 69  1  0  0  0  0
  6 70  1  0  0  0  0
  7 71  1  0  0  0  0
 12 72  1  0  0  0  0
 13 73  1  0  0  0  0
 16 74  1  0  0  0  0
 16 75  1  0  0  0  0
 16 76  1  0  0  0  0
 17 77  1  0  0  0  0
 17 78  1  0  0  0  0
 17 79  1  0  0  0  0
 18 80  1  0  0  0  0
 18 81  1  0  0  0  0
 18 82  1  0  0  0  0
 19 83  1  0  0  0  0
 22 84  1  0  0  0  0
 27 85  1  0  0  0  0
 28 86  1  0  0  0  0
 29 87  1  0  0  0  0
 30 88  1  0  0  0  0
 31 89  1  0  0  0  0
 33 90  1  0  0  0  0
 36 91  1  0  0  0  0
 37 92  1  0  0  0  0
 40 93  1  0  0  0  0
 40 94  1  0  0  0  0
 40 95  1  0  0  0  0
 41 96  1  0  0  0  0
 41 97  1  0  0  0  0
 41 98  1  0  0  0  0
 42 99  1  0  0  0  0
 42100  1  0  0  0  0
 42101  1  0  0  0  0
 43102  1  0  0  0  0
 46103  1  0  0  0  0
 49104  1  0  0  0  0
 49105  1  0  0  0  0
 49106  1  0  0  0  0
 50107  1  0  0  0  0
 50108  1  0  0  0  0
 50109  1  0  0  0  0
 51110  1  0  0  0  0
 51111  1  0  0  0  0
 51112  1  0  0  0  0
 52113  1  0  0  0  0
 53114  1  0  0  0  0
 60115  1  0  0  0  0
M  CHG  1  23   1
M  CHG  1  57  -1
M  END
