
  xtb     03012221243D
 energy: -7.059390960056 gnorm: 0.000195530281 xtb: 6.4.1 (afa7bdf)
 38 40  0     0  0            999 V2000
    3.0568   -2.7952    0.4997 C   0  0  0  0  0  0  0  0  0  0  0  0
    1.9160   -2.2957   -0.3216 C   0  0  0  0  0  0  0  0  0  0  0  0
    1.3831   -3.0412   -1.1129 O   0  0  0  0  0  0  0  0  0  0  0  0
    1.4453   -0.8994   -0.1488 C   0  0  0  0  0  0  0  0  0  0  0  0
    2.3239    0.1668   -0.0440 C   0  0  0  0  0  0  0  0  0  0  0  0
    1.8532    1.4855    0.1269 C   0  0  0  0  0  0  0  0  0  0  0  0
    0.5182    1.7571    0.2059 C   0  0  0  0  0  0  0  0  0  0  0  0
   -0.4179    0.7045    0.0947 C   0  0  0  0  0  0  0  0  0  0  0  0
   -1.8016    0.9472    0.1659 C   0  0  0  0  0  0  0  0  0  0  0  0
   -2.7286   -0.0697    0.0419 C   0  0  0  0  0  0  0  0  0  0  0  0
   -4.1086    0.1920    0.1192 N   0  0  0  0  0  0  0  0  0  0  0  0
   -5.0929   -0.8792    0.0370 C   0  0  0  0  0  0  0  0  0  0  0  0
   -4.6201    1.5467    0.2834 C   0  0  0  0  0  0  0  0  0  0  0  0
   -2.2498   -1.3844   -0.1714 C   0  0  0  0  0  0  0  0  0  0  0  0
   -0.9187   -1.6472   -0.2415 C   0  0  0  0  0  0  0  0  0  0  0  0
    0.0441   -0.6241   -0.1019 C   0  0  0  0  0  0  0  0  0  0  0  0
    2.9984    2.4625    0.1694 C   0  0  0  0  0  0  0  0  0  0  0  0
    4.2732    1.6497   -0.1466 C   0  0  0  0  0  0  0  0  0  0  0  0
    3.8286    0.1695   -0.1426 C   0  0  0  0  0  0  0  0  0  0  0  0
    2.9093   -3.8484    0.7355 H   0  0  0  0  0  0  0  0  0  0  0  0
    3.9957   -2.7059   -0.0453 H   0  0  0  0  0  0  0  0  0  0  0  0
    3.1393   -2.2488    1.4389 H   0  0  0  0  0  0  0  0  0  0  0  0
    0.1800    2.7687    0.3369 H   0  0  0  0  0  0  0  0  0  0  0  0
   -2.1361    1.9550    0.3244 H   0  0  0  0  0  0  0  0  0  0  0  0
   -4.8884   -1.6344    0.7950 H   0  0  0  0  0  0  0  0  0  0  0  0
   -6.1013   -0.5026    0.2013 H   0  0  0  0  0  0  0  0  0  0  0  0
   -5.0578   -1.3434   -0.9478 H   0  0  0  0  0  0  0  0  0  0  0  0
   -5.7082    1.5655    0.2442 H   0  0  0  0  0  0  0  0  0  0  0  0
   -4.2441    2.1879   -0.5129 H   0  0  0  0  0  0  0  0  0  0  0  0
   -4.3061    1.9505    1.2452 H   0  0  0  0  0  0  0  0  0  0  0  0
   -2.9563   -2.1859   -0.2918 H   0  0  0  0  0  0  0  0  0  0  0  0
   -0.5726   -2.6474   -0.4344 H   0  0  0  0  0  0  0  0  0  0  0  0
    2.8363    3.2722   -0.5511 H   0  0  0  0  0  0  0  0  0  0  0  0
    3.0506    2.9236    1.1622 H   0  0  0  0  0  0  0  0  0  0  0  0
    5.0719    1.8405    0.5813 H   0  0  0  0  0  0  0  0  0  0  0  0
    4.6767    1.9291   -1.1277 H   0  0  0  0  0  0  0  0  0  0  0  0
    4.1506   -0.3584   -1.0477 H   0  0  0  0  0  0  0  0  0  0  0  0
    4.2579   -0.3639    0.7124 H   0  0  0  0  0  0  0  0  0  0  0  0
  1  2  1  0  0  0  0
  2  3  2  0  0  0  0
  2  4  1  0  0  0  0
  4  5  2  0  0  0  0
  5  6  1  0  0  0  0
  6  7  2  0  0  0  0
  7  8  1  0  0  0  0
  8  9  2  0  0  0  0
  9 10  1  0  0  0  0
 10 11  1  0  0  0  0
 11 12  1  0  0  0  0
 11 13  1  0  0  0  0
 10 14  2  0  0  0  0
 14 15  1  0  0  0  0
 15 16  2  0  0  0  0
  6 17  1  0  0  0  0
 17 18  1  0  0  0  0
 18 19  1  0  0  0  0
 16  4  1  0  0  0  0
 19  5  1  0  0  0  0
 16  8  1  0  0  0  0
  1 20  1  0  0  0  0
  1 21  1  0  0  0  0
  1 22  1  0  0  0  0
  7 23  1  0  0  0  0
  9 24  1  0  0  0  0
 12 25  1  0  0  0  0
 12 26  1  0  0  0  0
 12 27  1  0  0  0  0
 13 28  1  0  0  0  0
 13 29  1  0  0  0  0
 13 30  1  0  0  0  0
 14 31  1  0  0  0  0
 15 32  1  0  0  0  0
 17 33  1  0  0  0  0
 17 34  1  0  0  0  0
 18 35  1  0  0  0  0
 18 36  1  0  0  0  0
 19 37  1  0  0  0  0
 19 38  1  0  0  0  0
M  END
