
  xtb     03012221263D
 energy: -11.301716376217 gnorm: 0.000195740790 xtb: 6.4.1 (afa7bdf)
 56 59  0     0  0            999 V2000
   -5.0532   -5.7155   -0.1469 C   0  0  0  0  0  0  0  0  0  0  0  0
   -4.3265   -4.4167   -0.1523 C   0  0  0  0  0  0  0  0  0  0  0  0
   -5.0061   -3.2243   -0.3550 C   0  0  0  0  0  0  0  0  0  0  0  0
   -4.3389   -2.0197   -0.3369 C   0  0  0  0  0  0  0  0  0  0  0  0
   -2.9638   -1.9639   -0.1077 C   0  0  0  0  0  0  0  0  0  0  0  0
   -2.2897   -0.6774   -0.0994 C   0  0  0  0  0  0  0  0  0  0  0  0
   -0.9842   -0.4776    0.1355 C   0  0  0  0  0  0  0  0  0  0  0  0
   -0.4044    0.8392    0.1359 C   0  0  0  0  0  0  0  0  0  0  0  0
   -1.1363    1.9700    0.0642 N   0  0  0  0  0  0  0  0  0  0  0  0
   -0.2856    2.9855    0.1815 C   0  0  0  0  0  0  0  0  0  0  0  0
   -0.6874    4.3869    0.1567 C   0  0  0  0  0  0  0  0  0  0  0  0
    0.2383    5.4172    0.2976 C   0  0  0  0  0  0  0  0  0  0  0  0
   -0.1666    6.7332    0.2701 C   0  0  0  0  0  0  0  0  0  0  0  0
   -1.5056    7.0630    0.1077 C   0  0  0  0  0  0  0  0  0  0  0  0
   -1.9382    8.4864    0.0516 C   0  0  0  0  0  0  0  0  0  0  0  0
   -2.4288    6.0371   -0.0415 C   0  0  0  0  0  0  0  0  0  0  0  0
   -2.0274    4.7204   -0.0143 C   0  0  0  0  0  0  0  0  0  0  0  0
    1.0114    2.5320    0.3307 N   0  0  0  0  0  0  0  0  0  0  0  0
    0.9691    1.1689    0.2849 C   0  0  0  0  0  0  0  0  0  0  0  0
    2.1262    0.3128    0.3552 C   0  0  0  0  0  0  0  0  0  0  0  0
    2.1906   -0.9336   -0.1473 C   0  0  0  0  0  0  0  0  0  0  0  0
    3.3440   -1.8131   -0.0808 C   0  0  0  0  0  0  0  0  0  0  0  0
    4.5147   -1.4689    0.5969 C   0  0  0  0  0  0  0  0  0  0  0  0
    5.5864   -2.3332    0.6383 C   0  0  0  0  0  0  0  0  0  0  0  0
    5.5306   -3.5705    0.0136 C   0  0  0  0  0  0  0  0  0  0  0  0
    6.7029   -4.4874    0.0515 C   0  0  0  0  0  0  0  0  0  0  0  0
    4.3706   -3.9179   -0.6643 C   0  0  0  0  0  0  0  0  0  0  0  0
    3.2959   -3.0582   -0.7096 C   0  0  0  0  0  0  0  0  0  0  0  0
   -2.2875   -3.1663    0.1039 C   0  0  0  0  0  0  0  0  0  0  0  0
   -2.9604   -4.3680    0.0845 C   0  0  0  0  0  0  0  0  0  0  0  0
   -5.4005   -5.9610    0.8581 H   0  0  0  0  0  0  0  0  0  0  0  0
   -4.4099   -6.5283   -0.4887 H   0  0  0  0  0  0  0  0  0  0  0  0
   -5.9229   -5.6833   -0.8053 H   0  0  0  0  0  0  0  0  0  0  0  0
   -6.0684   -3.2500   -0.5273 H   0  0  0  0  0  0  0  0  0  0  0  0
   -4.8794   -1.1028   -0.4993 H   0  0  0  0  0  0  0  0  0  0  0  0
   -2.8924    0.1901   -0.2998 H   0  0  0  0  0  0  0  0  0  0  0  0
   -0.3545   -1.3103    0.3800 H   0  0  0  0  0  0  0  0  0  0  0  0
    1.2786    5.1773    0.4283 H   0  0  0  0  0  0  0  0  0  0  0  0
    0.5583    7.5223    0.3740 H   0  0  0  0  0  0  0  0  0  0  0  0
   -2.9305    8.6129    0.4871 H   0  0  0  0  0  0  0  0  0  0  0  0
   -1.2509    9.1300    0.6026 H   0  0  0  0  0  0  0  0  0  0  0  0
   -1.9755    8.8393   -0.9800 H   0  0  0  0  0  0  0  0  0  0  0  0
   -3.4677    6.2822   -0.1806 H   0  0  0  0  0  0  0  0  0  0  0  0
   -2.7457    3.9265   -0.1267 H   0  0  0  0  0  0  0  0  0  0  0  0
    1.8563    3.0992    0.4150 H   0  0  0  0  0  0  0  0  0  0  0  0
    3.0040    0.7411    0.8026 H   0  0  0  0  0  0  0  0  0  0  0  0
    1.3412   -1.3076   -0.6882 H   0  0  0  0  0  0  0  0  0  0  0  0
    4.5826   -0.5201    1.0980 H   0  0  0  0  0  0  0  0  0  0  0  0
    6.4852   -2.0532    1.1610 H   0  0  0  0  0  0  0  0  0  0  0  0
    6.4327   -5.4925   -0.2765 H   0  0  0  0  0  0  0  0  0  0  0  0
    7.4994   -4.1252   -0.6005 H   0  0  0  0  0  0  0  0  0  0  0  0
    7.1047   -4.5656    1.0632 H   0  0  0  0  0  0  0  0  0  0  0  0
    4.3177   -4.8727   -1.1589 H   0  0  0  0  0  0  0  0  0  0  0  0
    2.4016   -3.3430   -1.2371 H   0  0  0  0  0  0  0  0  0  0  0  0
   -1.2272   -3.1579    0.2825 H   0  0  0  0  0  0  0  0  0  0  0  0
   -2.4265   -5.2872    0.2548 H   0  0  0  0  0  0  0  0  0  0  0  0
  1  2  1  0  0  0  0
  2  3  2  0  0  0  0
  3  4  1  0  0  0  0
  4  5  2  0  0  0  0
  5  6  1  0  0  0  0
  6  7  2  0  0  0  0
  7  8  1  0  0  0  0
  8  9  1  0  0  0  0
  9 10  2  0  0  0  0
 10 11  1  0  0  0  0
 11 12  2  0  0  0  0
 12 13  1  0  0  0  0
 13 14  2  0  0  0  0
 14 15  1  0  0  0  0
 14 16  1  0  0  0  0
 16 17  2  0  0  0  0
 10 18  1  0  0  0  0
 18 19  1  0  0  0  0
 19 20  1  0  0  0  0
 20 21  2  0  0  0  0
 21 22  1  0  0  0  0
 22 23  2  0  0  0  0
 23 24  1  0  0  0  0
 24 25  2  0  0  0  0
 25 26  1  0  0  0  0
 25 27  1  0  0  0  0
 27 28  2  0  0  0  0
  5 29  1  0  0  0  0
 29 30  2  0  0  0  0
 30  2  1  0  0  0  0
 19  8  2  0  0  0  0
 28 22  1  0  0  0  0
 17 11  1  0  0  0  0
  1 31  1  0  0  0  0
  1 32  1  0  0  0  0
  1 33  1  0  0  0  0
  3 34  1  0  0  0  0
  4 35  1  0  0  0  0
  6 36  1  0  0  0  0
  7 37  1  0  0  0  0
 12 38  1  0  0  0  0
 13 39  1  0  0  0  0
 15 40  1  0  0  0  0
 15 41  1  0  0  0  0
 15 42  1  0  0  0  0
 16 43  1  0  0  0  0
 17 44  1  0  0  0  0
 18 45  1  0  0  0  0
 20 46  1  0  0  0  0
 21 47  1  0  0  0  0
 23 48  1  0  0  0  0
 24 49  1  0  0  0  0
 26 50  1  0  0  0  0
 26 51  1  0  0  0  0
 26 52  1  0  0  0  0
 27 53  1  0  0  0  0
 28 54  1  0  0  0  0
 29 55  1  0  0  0  0
 30 56  1  0  0  0  0
M  END
