
  xtb     03012221283D
 energy: -14.331992139279 gnorm: 0.000306442663 xtb: 6.4.1 (afa7bdf)
 77 85  0     0  0            999 V2000
   -6.1925   -0.6500    2.4576 C   0  0  0  0  0  0  0  0  0  0  0  0
   -5.0375   -0.4953    1.6639 O   0  0  0  0  0  0  0  0  0  0  0  0
   -4.4094   -1.6677    1.3017 C   0  0  0  0  0  0  0  0  0  0  0  0
   -4.9068   -2.9378    1.6499 C   0  0  0  0  0  0  0  0  0  0  0  0
   -4.2238   -4.0823    1.3419 C   0  0  0  0  0  0  0  0  0  0  0  0
   -3.0094   -4.0112    0.6762 C   0  0  0  0  0  0  0  0  0  0  0  0
   -2.5055   -2.7921    0.3060 C   0  0  0  0  0  0  0  0  0  0  0  0
   -3.1790   -1.5988    0.5684 C   0  0  0  0  0  0  0  0  0  0  0  0
   -2.6124   -0.3343    0.1339 C   0  0  0  0  0  0  0  0  0  0  0  0
   -1.2906   -0.0139   -0.0040 N   0  0  0  0  0  4  0  0  0  0  0  0
   -1.0995    1.3292   -0.2828 C   0  0  0  0  0  0  0  0  0  0  0  0
    0.1273    1.9568   -0.3509 C   0  0  0  0  0  0  0  0  0  0  0  0
    1.2647    1.1978   -0.1667 C   0  0  0  0  0  0  0  0  0  0  0  0
    2.6385    1.5896   -0.2139 C   0  0  0  0  0  0  0  0  0  0  0  0
    3.4060    0.4680   -0.0717 C   0  0  0  0  0  0  0  0  0  0  0  0
    2.5490   -0.6811    0.0544 C   0  0  0  0  0  0  0  0  0  0  0  0
    2.9434   -2.0778    0.1023 C   0  0  0  0  0  0  0  0  0  0  0  0
    2.1350   -3.0092    0.7546 C   0  0  0  0  0  0  0  0  0  0  0  0
    2.4748   -4.3334    0.8450 C   0  0  0  0  0  0  0  0  0  0  0  0
    3.6528   -4.7842    0.2687 C   0  0  0  0  0  0  0  0  0  0  0  0
    4.4630   -3.9151   -0.4093 C   0  0  0  0  0  0  0  0  0  0  0  0
    4.1353   -2.5521   -0.5383 C   0  0  0  0  0  0  0  0  0  0  0  0
    4.8921   -1.6689   -1.2783 O   0  0  0  0  0  0  0  0  0  0  0  0
    5.9905   -2.2368   -1.9558 C   0  0  0  0  0  0  0  0  0  0  0  0
    1.2810   -0.1707    0.0453 N   0  0  0  0  0  0  0  0  0  0  0  0
   -0.0588   -0.9300    0.1735 B   0  0  0  0  0  4  0  0  0  0  0  0
   -0.0564   -1.8946   -0.8332 F   0  0  0  0  0  0  0  0  0  0  0  0
   -0.1576   -1.4716    1.4544 F   0  0  0  0  0  0  0  0  0  0  0  0
    4.8950    0.7460   -0.0024 C   0  0  0  0  0  0  0  0  0  0  0  0
    5.2846    1.4777   -1.3277 C   0  0  0  0  0  0  0  0  0  0  0  0
    4.3880    2.7532   -1.5197 C   0  0  0  0  0  0  0  0  0  0  0  0
    3.3951    2.8947   -0.3194 C   0  0  0  0  0  0  0  0  0  0  0  0
    4.2511    3.0293    0.9818 C   0  0  0  0  0  0  0  0  0  0  0  0
    5.1306    1.7427    1.1788 C   0  0  0  0  0  0  0  0  0  0  0  0
   -2.4123    1.8795   -0.4103 C   0  0  0  0  0  0  0  0  0  0  0  0
   -3.3164    0.8831   -0.1716 C   0  0  0  0  0  0  0  0  0  0  0  0
   -4.7601    1.3020   -0.3694 C   0  0  0  0  0  0  0  0  0  0  0  0
   -5.0276    2.4925    0.6078 C   0  0  0  0  0  0  0  0  0  0  0  0
   -3.9760    3.6336    0.3636 C   0  0  0  0  0  0  0  0  0  0  0  0
   -2.9979    3.2225   -0.7857 C   0  0  0  0  0  0  0  0  0  0  0  0
   -3.8573    2.9995   -2.0724 C   0  0  0  0  0  0  0  0  0  0  0  0
   -4.8937    1.8442   -1.8297 C   0  0  0  0  0  0  0  0  0  0  0  0
   -6.9600   -1.1873    1.8998 H   0  0  0  0  0  0  0  0  0  0  0  0
   -5.9427   -1.1796    3.3774 H   0  0  0  0  0  0  0  0  0  0  0  0
   -6.5742    0.3379    2.7160 H   0  0  0  0  0  0  0  0  0  0  0  0
   -5.8387   -3.0154    2.1783 H   0  0  0  0  0  0  0  0  0  0  0  0
   -4.6224   -5.0421    1.6266 H   0  0  0  0  0  0  0  0  0  0  0  0
   -2.4634   -4.9125    0.4520 H   0  0  0  0  0  0  0  0  0  0  0  0
   -1.5597   -2.7420   -0.1959 H   0  0  0  0  0  0  0  0  0  0  0  0
    0.1953    3.0103   -0.5439 H   0  0  0  0  0  0  0  0  0  0  0  0
    1.2162   -2.6685    1.1892 H   0  0  0  0  0  0  0  0  0  0  0  0
    1.8279   -5.0235    1.3608 H   0  0  0  0  0  0  0  0  0  0  0  0
    3.9223   -5.8247    0.3462 H   0  0  0  0  0  0  0  0  0  0  0  0
    5.3636   -4.2887   -0.8599 H   0  0  0  0  0  0  0  0  0  0  0  0
    5.6458   -3.0207   -2.6308 H   0  0  0  0  0  0  0  0  0  0  0  0
    6.4786   -1.4595   -2.5438 H   0  0  0  0  0  0  0  0  0  0  0  0
    6.7074   -2.6350   -1.2372 H   0  0  0  0  0  0  0  0  0  0  0  0
    5.4540   -0.1918    0.1344 H   0  0  0  0  0  0  0  0  0  0  0  0
    5.1588    0.7898   -2.1708 H   0  0  0  0  0  0  0  0  0  0  0  0
    6.3460    1.7470   -1.3074 H   0  0  0  0  0  0  0  0  0  0  0  0
    5.0073    3.6536   -1.5991 H   0  0  0  0  0  0  0  0  0  0  0  0
    3.8244    2.6885   -2.4572 H   0  0  0  0  0  0  0  0  0  0  0  0
    2.7001    3.7369   -0.4501 H   0  0  0  0  0  0  0  0  0  0  0  0
    4.8817    3.9231    0.9204 H   0  0  0  0  0  0  0  0  0  0  0  0
    3.5918    3.1810    1.8437 H   0  0  0  0  0  0  0  0  0  0  0  0
    6.1924    2.0049    1.2389 H   0  0  0  0  0  0  0  0  0  0  0  0
    4.8844    1.2517    2.1266 H   0  0  0  0  0  0  0  0  0  0  0  0
   -5.4347    0.4528   -0.1842 H   0  0  0  0  0  0  0  0  0  0  0  0
   -6.0478    2.8665    0.4705 H   0  0  0  0  0  0  0  0  0  0  0  0
   -4.9695    2.1320    1.6405 H   0  0  0  0  0  0  0  0  0  0  0  0
   -3.4060    3.8326    1.2781 H   0  0  0  0  0  0  0  0  0  0  0  0
   -4.4773    4.5736    0.1074 H   0  0  0  0  0  0  0  0  0  0  0  0
   -2.2006    3.9641   -0.9402 H   0  0  0  0  0  0  0  0  0  0  0  0
   -4.3710    3.9292   -2.3411 H   0  0  0  0  0  0  0  0  0  0  0  0
   -3.2025    2.7589   -2.9174 H   0  0  0  0  0  0  0  0  0  0  0  0
   -4.7286    1.0265   -2.5397 H   0  0  0  0  0  0  0  0  0  0  0  0
   -5.9157    2.1973   -2.0043 H   0  0  0  0  0  0  0  0  0  0  0  0
  1  2  1  0  0  0  0
  2  3  1  0  0  0  0
  3  4  2  0  0  0  0
  4  5  1  0  0  0  0
  5  6  2  0  0  0  0
  6  7  1  0  0  0  0
  7  8  2  0  0  0  0
  8  9  1  0  0  0  0
  9 10  2  0  0  0  0
 10 11  1  0  0  0  0
 11 12  2  0  0  0  0
 12 13  1  0  0  0  0
 13 14  2  0  0  0  0
 14 15  1  0  0  0  0
 15 16  2  0  0  0  0
 16 17  1  0  0  0  0
 17 18  2  0  0  0  0
 18 19  1  0  0  0  0
 19 20  2  0  0  0  0
 20 21  1  0  0  0  0
 21 22  2  0  0  0  0
 22 23  1  0  0  0  0
 23 24  1  0  0  0  0
 16 25  1  0  0  0  0
 25 26  1  0  0  0  0
 26 27  1  0  0  0  0
 26 28  1  0  0  0  0
 15 29  1  0  0  0  0
 29 30  1  0  0  0  0
 30 31  1  0  0  0  0
 31 32  1  0  0  0  0
 32 33  1  0  0  0  0
 33 34  1  0  0  0  0
 11 35  1  0  0  0  0
 35 36  2  0  0  0  0
 36 37  1  0  0  0  0
 37 38  1  0  0  0  0
 38 39  1  0  0  0  0
 39 40  1  0  0  0  0
 40 41  1  0  0  0  0
 41 42  1  0  0  0  0
  8  3  1  0  0  0  0
 36  9  1  0  0  0  0
 42 37  1  0  0  0  0
 26 10  1  0  0  0  0
 34 29  1  0  0  0  0
 40 35  1  0  0  0  0
 25 13  1  0  0  0  0
 32 14  1  0  0  0  0
 22 17  1  0  0  0  0
  1 43  1  0  0  0  0
  1 44  1  0  0  0  0
  1 45  1  0  0  0  0
  4 46  1  0  0  0  0
  5 47  1  0  0  0  0
  6 48  1  0  0  0  0
  7 49  1  0  0  0  0
 12 50  1  0  0  0  0
 18 51  1  0  0  0  0
 19 52  1  0  0  0  0
 20 53  1  0  0  0  0
 21 54  1  0  0  0  0
 24 55  1  0  0  0  0
 24 56  1  0  0  0  0
 24 57  1  0  0  0  0
 29 58  1  0  0  0  0
 30 59  1  0  0  0  0
 30 60  1  0  0  0  0
 31 61  1  0  0  0  0
 31 62  1  0  0  0  0
 32 63  1  0  0  0  0
 33 64  1  0  0  0  0
 33 65  1  0  0  0  0
 34 66  1  0  0  0  0
 34 67  1  0  0  0  0
 37 68  1  0  0  0  0
 38 69  1  0  0  0  0
 38 70  1  0  0  0  0
 39 71  1  0  0  0  0
 39 72  1  0  0  0  0
 40 73  1  0  0  0  0
 41 74  1  0  0  0  0
 41 75  1  0  0  0  0
 42 76  1  0  0  0  0
 42 77  1  0  0  0  0
M  CHG  1  10   1
M  CHG  1  26  -1
M  END
