
  xtb     03012221253D
 energy: -13.280805302254 gnorm: 0.000271694200 xtb: 6.4.1 (afa7bdf)
 62 67  0     0  0            999 V2000
    0.3187    2.7678    0.8601 C   0  0  0  0  0  0  0  0  0  0  0  0
   -0.2887    1.4130    0.7539 C   0  0  0  0  0  0  0  0  0  0  0  0
   -1.6443    1.2505    0.9575 C   0  0  0  0  0  0  0  0  0  0  0  0
   -2.2512    0.0038    0.8616 C   0  0  0  0  0  0  0  0  0  0  0  0
   -3.6655   -0.1339    1.0691 N   0  0  0  0  0  0  0  0  0  0  0  0
   -4.2981   -1.0657    1.9177 C   0  0  0  0  0  0  0  0  0  0  0  0
   -3.7674   -2.0409    2.7601 C   0  0  0  0  0  0  0  0  0  0  0  0
   -4.6272   -2.8125    3.5012 C   0  0  0  0  0  0  0  0  0  0  0  0
   -6.0096   -2.6295    3.4219 C   0  0  0  0  0  0  0  0  0  0  0  0
   -6.5498   -1.6687    2.6026 C   0  0  0  0  0  0  0  0  0  0  0  0
   -5.6882   -0.8765    1.8445 C   0  0  0  0  0  0  0  0  0  0  0  0
   -5.9246    0.2039    0.9182 C   0  0  0  0  0  0  0  0  0  0  0  0
   -7.0941    0.8029    0.4568 C   0  0  0  0  0  0  0  0  0  0  0  0
   -7.0070    1.8320   -0.4628 C   0  0  0  0  0  0  0  0  0  0  0  0
   -8.1731    2.4483   -0.9419 C   0  0  0  0  0  0  0  0  0  0  0  0
   -9.1389    2.9577   -1.3379 N   0  0  0  0  0  0  0  0  0  0  0  0
   -5.7456    2.2558   -0.9202 C   0  0  0  0  0  0  0  0  0  0  0  0
   -4.5875    1.6748   -0.4733 C   0  0  0  0  0  0  0  0  0  0  0  0
   -4.6708    0.6416    0.4594 C   0  0  0  0  0  0  0  0  0  0  0  0
   -1.4701   -1.1020    0.5522 C   0  0  0  0  0  0  0  0  0  0  0  0
   -0.1235   -0.9583    0.3346 C   0  0  0  0  0  0  0  0  0  0  0  0
    0.4904    0.2905    0.4219 C   0  0  0  0  0  0  0  0  0  0  0  0
    1.9461    0.4157    0.1561 C   0  0  0  0  0  0  0  0  0  0  0  0
    2.8597    0.1113    1.1641 C   0  0  0  0  0  0  0  0  0  0  0  0
    4.2124    0.2477    0.9513 C   0  0  0  0  0  0  0  0  0  0  0  0
    4.6702    0.6880   -0.2667 C   0  0  0  0  0  0  0  0  0  0  0  0
    6.4337    0.8728   -0.5400 S   0  0  0  0  0  6  0  0  0  0  0  0
    6.6279    2.0668   -1.4463 O   0  0  0  0  0  0  0  0  0  0  0  0
    7.1197    0.6597    0.7897 O   0  0  0  0  0  0  0  0  0  0  0  0
    6.6802   -0.6036   -1.5298 C   0  0  0  0  0  0  0  0  0  0  0  0
    6.8020   -0.4930   -2.8949 C   0  0  0  0  0  0  0  0  0  0  0  0
    6.9871   -1.6248   -3.6629 C   0  0  0  0  0  0  0  0  0  0  0  0
    7.0503   -2.8629   -3.0568 C   0  0  0  0  0  0  0  0  0  0  0  0
    6.9319   -2.9693   -1.6860 C   0  0  0  0  0  0  0  0  0  0  0  0
    6.7467   -1.8351   -0.9213 C   0  0  0  0  0  0  0  0  0  0  0  0
    3.7877    0.9904   -1.2765 C   0  0  0  0  0  0  0  0  0  0  0  0
    2.4219    0.8538   -1.0922 C   0  0  0  0  0  0  0  0  0  0  0  0
    1.4890    1.2053   -2.1961 C   0  0  0  0  0  0  0  0  0  0  0  0
    1.3920    2.7088    1.0421 H   0  0  0  0  0  0  0  0  0  0  0  0
    0.1638    3.3348   -0.0581 H   0  0  0  0  0  0  0  0  0  0  0  0
   -0.1240    3.3309    1.6821 H   0  0  0  0  0  0  0  0  0  0  0  0
   -2.2488    2.1025    1.2113 H   0  0  0  0  0  0  0  0  0  0  0  0
   -2.7020   -2.1681    2.8256 H   0  0  0  0  0  0  0  0  0  0  0  0
   -4.2306   -3.5701    4.1570 H   0  0  0  0  0  0  0  0  0  0  0  0
   -6.6610   -3.2496    4.0156 H   0  0  0  0  0  0  0  0  0  0  0  0
   -7.6126   -1.5180    2.5398 H   0  0  0  0  0  0  0  0  0  0  0  0
   -8.0527    0.4688    0.8082 H   0  0  0  0  0  0  0  0  0  0  0  0
   -5.7052    3.0549   -1.6401 H   0  0  0  0  0  0  0  0  0  0  0  0
   -3.6264    1.9929   -0.8347 H   0  0  0  0  0  0  0  0  0  0  0  0
   -1.9415   -2.0652    0.4636 H   0  0  0  0  0  0  0  0  0  0  0  0
    0.4802   -1.8145    0.0822 H   0  0  0  0  0  0  0  0  0  0  0  0
    2.4907   -0.2221    2.1186 H   0  0  0  0  0  0  0  0  0  0  0  0
    4.9233    0.0287    1.7308 H   0  0  0  0  0  0  0  0  0  0  0  0
    6.7623    0.4845   -3.3468 H   0  0  0  0  0  0  0  0  0  0  0  0
    7.0863   -1.5402   -4.7326 H   0  0  0  0  0  0  0  0  0  0  0  0
    7.1978   -3.7474   -3.6542 H   0  0  0  0  0  0  0  0  0  0  0  0
    6.9884   -3.9354   -1.2118 H   0  0  0  0  0  0  0  0  0  0  0  0
    6.6654   -1.8982    0.1512 H   0  0  0  0  0  0  0  0  0  0  0  0
    4.1684    1.3497   -2.2167 H   0  0  0  0  0  0  0  0  0  0  0  0
    1.8825    0.8772   -3.1584 H   0  0  0  0  0  0  0  0  0  0  0  0
    1.3373    2.2837   -2.2451 H   0  0  0  0  0  0  0  0  0  0  0  0
    0.5158    0.7338   -2.0595 H   0  0  0  0  0  0  0  0  0  0  0  0
  1  2  1  0  0  0  0
  2  3  2  0  0  0  0
  3  4  1  0  0  0  0
  4  5  1  0  0  0  0
  5  6  1  0  0  0  0
  6  7  2  0  0  0  0
  7  8  1  0  0  0  0
  8  9  2  0  0  0  0
  9 10  1  0  0  0  0
 10 11  2  0  0  0  0
 11 12  1  0  0  0  0
 12 13  2  0  0  0  0
 13 14  1  0  0  0  0
 14 15  1  0  0  0  0
 15 16  3  0  0  0  0
 14 17  2  0  0  0  0
 17 18  1  0  0  0  0
 18 19  2  0  0  0  0
  4 20  2  0  0  0  0
 20 21  1  0  0  0  0
 21 22  2  0  0  0  0
 22 23  1  0  0  0  0
 23 24  2  0  0  0  0
 24 25  1  0  0  0  0
 25 26  2  0  0  0  0
 26 27  1  0  0  0  0
 27 28  2  0  0  0  0
 27 29  2  0  0  0  0
 27 30  1  0  0  0  0
 30 31  2  0  0  0  0
 31 32  1  0  0  0  0
 32 33  2  0  0  0  0
 33 34  1  0  0  0  0
 34 35  2  0  0  0  0
 26 36  1  0  0  0  0
 36 37  2  0  0  0  0
 37 38  1  0  0  0  0
 22  2  1  0  0  0  0
 37 23  1  0  0  0  0
 19  5  1  0  0  0  0
 35 30  1  0  0  0  0
 11  6  1  0  0  0  0
 19 12  1  0  0  0  0
  1 39  1  0  0  0  0
  1 40  1  0  0  0  0
  1 41  1  0  0  0  0
  3 42  1  0  0  0  0
  7 43  1  0  0  0  0
  8 44  1  0  0  0  0
  9 45  1  0  0  0  0
 10 46  1  0  0  0  0
 13 47  1  0  0  0  0
 17 48  1  0  0  0  0
 18 49  1  0  0  0  0
 20 50  1  0  0  0  0
 21 51  1  0  0  0  0
 24 52  1  0  0  0  0
 25 53  1  0  0  0  0
 31 54  1  0  0  0  0
 32 55  1  0  0  0  0
 33 56  1  0  0  0  0
 34 57  1  0  0  0  0
 35 58  1  0  0  0  0
 36 59  1  0  0  0  0
 38 60  1  0  0  0  0
 38 61  1  0  0  0  0
 38 62  1  0  0  0  0
M  END
