
  xtb     03012221243D
 energy: -7.980077787640 gnorm: 0.000192145035 xtb: 6.4.1 (afa7bdf)
 40 43  0     0  0            999 V2000
   -2.1820   -1.7135   -1.2904 C   0  0  0  0  0  0  0  0  0  0  0  0
   -1.0617   -1.4725   -0.2959 C   0  0  0  0  0  0  0  0  0  0  0  0
   -1.3882   -0.3491    0.6765 C   0  0  0  0  0  0  0  0  0  0  0  0
   -1.6005    0.9236   -0.0202 N   0  0  0  0  0  0  0  0  0  0  0  0
   -0.5885    1.6775   -0.5856 C   0  0  0  0  0  0  0  0  0  0  0  0
    0.7567    1.4345   -0.4785 N   0  0  0  0  0  0  0  0  0  0  0  0
    1.1782    0.4701    0.1794 N   0  0  0  0  0  0  0  0  0  0  0  0
    2.5156    0.2282    0.2739 C   0  0  0  0  0  0  0  0  0  0  0  0
    3.0335   -0.7909    0.9020 N   0  0  0  0  0  0  0  0  0  0  0  0
    4.4124   -0.7843    0.8341 C   0  0  0  0  0  0  0  0  0  0  0  0
    5.2585   -1.7426    1.4092 C   0  0  0  0  0  0  0  0  0  0  0  0
    6.6170   -1.6162    1.2676 C   0  0  0  0  0  0  0  0  0  0  0  0
    7.1646   -0.5479    0.5602 C   0  0  0  0  0  0  0  0  0  0  0  0
    6.3512    0.4014   -0.0108 C   0  0  0  0  0  0  0  0  0  0  0  0
    4.9759    0.2842    0.1250 C   0  0  0  0  0  0  0  0  0  0  0  0
    3.7026    1.3017   -0.4703 S   0  0  0  0  0  0  0  0  0  0  0  0
   -1.1714    2.7046   -1.3115 C   0  0  0  0  0  0  0  0  0  0  0  0
   -2.5455    2.5726   -1.2041 C   0  0  0  0  0  0  0  0  0  0  0  0
   -2.8173    1.4741   -0.3980 C   0  0  0  0  0  0  0  0  0  0  0  0
   -4.1445    0.9685   -0.0746 C   0  0  0  0  0  0  0  0  0  0  0  0
   -4.5645    0.5113    1.1416 C   0  0  0  0  0  0  0  0  0  0  0  0
   -5.9169    0.0749    1.1522 C   0  0  0  0  0  0  0  0  0  0  0  0
   -6.5291    0.2002   -0.0453 C   0  0  0  0  0  0  0  0  0  0  0  0
   -5.4555    0.8680   -1.2245 S   0  0  0  0  0  0  0  0  0  0  0  0
   -3.1112   -1.9767   -0.7817 H   0  0  0  0  0  0  0  0  0  0  0  0
   -2.3825   -0.8163   -1.8787 H   0  0  0  0  0  0  0  0  0  0  0  0
   -1.9467   -2.5197   -1.9887 H   0  0  0  0  0  0  0  0  0  0  0  0
   -0.8358   -2.3952    0.2549 H   0  0  0  0  0  0  0  0  0  0  0  0
   -0.1378   -1.2174   -0.8309 H   0  0  0  0  0  0  0  0  0  0  0  0
   -0.5810   -0.2020    1.4015 H   0  0  0  0  0  0  0  0  0  0  0  0
   -2.2821   -0.5950    1.2524 H   0  0  0  0  0  0  0  0  0  0  0  0
    4.8258   -2.5627    1.9536 H   0  0  0  0  0  0  0  0  0  0  0  0
    7.2697   -2.3519    1.7086 H   0  0  0  0  0  0  0  0  0  0  0  0
    8.2342   -0.4658    0.4607 H   0  0  0  0  0  0  0  0  0  0  0  0
    6.7609    1.2319   -0.5591 H   0  0  0  0  0  0  0  0  0  0  0  0
   -0.6363    3.4522   -1.8722 H   0  0  0  0  0  0  0  0  0  0  0  0
   -3.2863    3.2040   -1.6664 H   0  0  0  0  0  0  0  0  0  0  0  0
   -3.9396    0.5201    2.0214 H   0  0  0  0  0  0  0  0  0  0  0  0
   -6.4048   -0.3150    2.0332 H   0  0  0  0  0  0  0  0  0  0  0  0
   -7.5473   -0.0691   -0.2556 H   0  0  0  0  0  0  0  0  0  0  0  0
  1  2  1  0  0  0  0
  2  3  1  0  0  0  0
  3  4  1  0  0  0  0
  4  5  1  0  0  0  0
  5  6  1  0  0  0  0
  6  7  2  0  0  0  0
  7  8  1  0  0  0  0
  8  9  2  0  0  0  0
  9 10  1  0  0  0  0
 10 11  2  0  0  0  0
 11 12  1  0  0  0  0
 12 13  2  0  0  0  0
 13 14  1  0  0  0  0
 14 15  2  0  0  0  0
 15 16  1  0  0  0  0
  5 17  2  0  0  0  0
 17 18  1  0  0  0  0
 18 19  2  0  0  0  0
 19 20  1  0  0  0  0
 20 21  2  0  0  0  0
 21 22  1  0  0  0  0
 22 23  2  0  0  0  0
 23 24  1  0  0  0  0
 19  4  1  0  0  0  0
 24 20  1  0  0  0  0
 16  8  1  0  0  0  0
 15 10  1  0  0  0  0
  1 25  1  0  0  0  0
  1 26  1  0  0  0  0
  1 27  1  0  0  0  0
  2 28  1  0  0  0  0
  2 29  1  0  0  0  0
  3 30  1  0  0  0  0
  3 31  1  0  0  0  0
 11 32  1  0  0  0  0
 12 33  1  0  0  0  0
 13 34  1  0  0  0  0
 14 35  1  0  0  0  0
 17 36  1  0  0  0  0
 18 37  1  0  0  0  0
 21 38  1  0  0  0  0
 22 39  1  0  0  0  0
 23 40  1  0  0  0  0
M  END
