
  xtb     03012221313D
 energy: -7.438407966337 gnorm: 0.000305431688 xtb: 6.4.1 (afa7bdf)
 36 39  0     0  0            999 V2000
   -6.4721    1.3636   -0.3670 C   0  0  0  0  0  0  0  0  0  0  0  0
   -5.2725    0.5126   -0.1529 C   0  0  0  0  0  0  0  0  0  0  0  0
   -5.4280   -0.8681    0.0989 C   0  0  0  0  0  0  0  0  0  0  0  0
   -4.3567   -1.6954    0.2825 C   0  0  0  0  0  0  0  0  0  0  0  0
   -3.0633   -1.1609    0.2144 C   0  0  0  0  0  0  0  0  0  0  0  0
   -1.8278   -1.7430    0.3558 O   0  0  0  0  0  0  0  0  0  0  0  0
   -0.8850   -0.7518    0.1909 C   0  0  0  0  0  0  0  0  0  0  0  0
    0.5649   -0.9446    0.2642 C   0  0  0  0  0  0  0  0  0  0  0  0
    1.4075    0.0972    0.0731 C   0  0  0  0  0  0  0  0  0  0  0  0
    2.8148   -0.0622    0.1385 C   0  0  0  0  0  0  0  0  0  0  0  0
    3.7005    1.0041   -0.0556 C   0  0  0  0  0  0  0  0  0  0  0  0
    5.0642    0.8248    0.0182 C   0  0  0  0  0  0  0  0  0  0  0  0
    5.9983    1.9600   -0.2108 C   0  0  0  0  0  0  0  0  0  0  0  0
    5.5589   -0.4554    0.2786 C   0  0  0  0  0  0  0  0  0  0  0  0
    4.7112   -1.5126    0.4713 C   0  0  0  0  0  0  0  0  0  0  0  0
    3.3256   -1.3420    0.4078 C   0  0  0  0  0  0  0  0  0  0  0  0
    2.4977   -2.4303    0.6086 O   0  0  0  0  0  0  0  0  0  0  0  0
    1.1271   -2.2734    0.5461 C   0  0  0  0  0  0  0  0  0  0  0  0
    0.3804   -3.2236    0.7220 O   0  0  0  0  0  0  0  0  0  0  0  0
   -1.5145    0.4568   -0.0557 C   0  0  0  0  0  0  0  0  0  0  0  0
   -2.8958    0.2158   -0.0439 C   0  0  0  0  0  0  0  0  0  0  0  0
   -4.0124    1.0496   -0.2308 C   0  0  0  0  0  0  0  0  0  0  0  0
   -6.8540    1.2461   -1.3829 H   0  0  0  0  0  0  0  0  0  0  0  0
   -7.2709    1.0958    0.3272 H   0  0  0  0  0  0  0  0  0  0  0  0
   -6.2417    2.4197   -0.2146 H   0  0  0  0  0  0  0  0  0  0  0  0
   -6.4250   -1.2711    0.1447 H   0  0  0  0  0  0  0  0  0  0  0  0
   -4.4779   -2.7458    0.4764 H   0  0  0  0  0  0  0  0  0  0  0  0
    1.0166    1.0752   -0.1346 H   0  0  0  0  0  0  0  0  0  0  0  0
    3.3050    1.9809   -0.2669 H   0  0  0  0  0  0  0  0  0  0  0  0
    5.5001    2.9182   -0.0617 H   0  0  0  0  0  0  0  0  0  0  0  0
    6.3896    1.9392   -1.2282 H   0  0  0  0  0  0  0  0  0  0  0  0
    6.8429    1.9156    0.4770 H   0  0  0  0  0  0  0  0  0  0  0  0
    6.6237   -0.6032    0.3259 H   0  0  0  0  0  0  0  0  0  0  0  0
    5.0915   -2.4981    0.6746 H   0  0  0  0  0  0  0  0  0  0  0  0
   -1.0516    1.4111   -0.2249 H   0  0  0  0  0  0  0  0  0  0  0  0
   -3.8713    2.0952   -0.4333 H   0  0  0  0  0  0  0  0  0  0  0  0
  1  2  1  0  0  0  0
  2  3  2  0  0  0  0
  3  4  1  0  0  0  0
  4  5  2  0  0  0  0
  5  6  1  0  0  0  0
  6  7  1  0  0  0  0
  7  8  1  0  0  0  0
  8  9  2  0  0  0  0
  9 10  1  0  0  0  0
 10 11  2  0  0  0  0
 11 12  1  0  0  0  0
 12 13  1  0  0  0  0
 12 14  2  0  0  0  0
 14 15  1  0  0  0  0
 15 16  2  0  0  0  0
 16 17  1  0  0  0  0
 17 18  1  0  0  0  0
 18 19  2  0  0  0  0
  7 20  2  0  0  0  0
 20 21  1  0  0  0  0
 21 22  2  0  0  0  0
 22  2  1  0  0  0  0
 21  5  1  0  0  0  0
 18  8  1  0  0  0  0
 16 10  1  0  0  0  0
  1 23  1  0  0  0  0
  1 24  1  0  0  0  0
  1 25  1  0  0  0  0
  3 26  1  0  0  0  0
  4 27  1  0  0  0  0
  9 28  1  0  0  0  0
 11 29  1  0  0  0  0
 13 30  1  0  0  0  0
 13 31  1  0  0  0  0
 13 32  1  0  0  0  0
 14 33  1  0  0  0  0
 15 34  1  0  0  0  0
 20 35  1  0  0  0  0
 22 36  1  0  0  0  0
M  END
