
  xtb     03012221303D
 energy: -10.100936403761 gnorm: 0.000258605822 xtb: 6.4.1 (afa7bdf)
 52 55  0     0  0            999 V2000
   -6.9723    3.6562    1.8689 C   0  0  0  0  0  0  0  0  0  0  0  0
   -7.0842    2.3541    2.0299 C   0  0  0  0  0  0  0  0  0  0  0  0
   -7.0737    1.3983    0.8942 C   0  0  0  0  0  0  0  0  0  0  0  0
   -7.0794    0.0177    1.3100 N   0  0  0  0  0  0  0  0  0  0  0  0
   -7.1841   -0.9802   -0.0910 S   0  0  0  0  0  6  0  0  0  0  0  0
   -7.2622   -2.4199    0.3122 O   0  0  0  0  0  0  0  0  0  0  0  0
   -8.0982   -0.3165   -1.0813 O   0  0  0  0  0  0  0  0  0  0  0  0
   -5.5191   -0.7307   -0.7210 C   0  0  0  0  0  0  0  0  0  0  0  0
   -5.3494   -0.0623   -1.9194 C   0  0  0  0  0  0  0  0  0  0  0  0
   -4.0873    0.1551   -2.4288 C   0  0  0  0  0  0  0  0  0  0  0  0
   -2.9914   -0.3012   -1.7203 C   0  0  0  0  0  0  0  0  0  0  0  0
   -3.1628   -0.9777   -0.5129 C   0  0  0  0  0  0  0  0  0  0  0  0
   -4.4398   -1.2008   -0.0155 C   0  0  0  0  0  0  0  0  0  0  0  0
   -1.9032   -1.3861    0.1354 C   0  0  0  0  0  0  0  0  0  0  0  0
   -1.8460   -1.9511    1.2120 O   0  0  0  0  0  0  0  0  0  0  0  0
   -0.7590   -1.0080   -0.6748 C   0  0  0  0  0  0  0  0  0  0  0  0
    0.5357   -1.2585   -0.3818 C   0  0  0  0  0  0  0  0  0  0  0  0
    1.0639   -2.1086    1.0486 S   0  0  0  0  0  0  0  0  0  0  0  0
    2.7660   -2.0128    0.6357 C   0  0  0  0  0  0  0  0  0  0  0  0
    3.8615   -2.4945    1.3284 C   0  0  0  0  0  0  0  0  0  0  0  0
    5.1227   -2.2941    0.8090 C   0  0  0  0  0  0  0  0  0  0  0  0
    5.2894   -1.6254   -0.3897 C   0  0  0  0  0  0  0  0  0  0  0  0
    6.9443   -1.3679   -1.0354 S   0  0  0  0  0  6  0  0  0  0  0  0
    6.8024   -1.1210   -2.5093 O   0  0  0  0  0  0  0  0  0  0  0  0
    7.7960   -2.4440   -0.4346 O   0  0  0  0  0  0  0  0  0  0  0  0
    7.2654    0.1320   -0.2496 N   0  0  0  0  0  0  0  0  0  0  0  0
    6.7967    1.2174   -1.0736 C   0  0  0  0  0  0  0  0  0  0  0  0
    7.1790    2.5516   -0.5414 C   0  0  0  0  0  0  0  0  0  0  0  0
    8.3817    2.7839   -0.0617 C   0  0  0  0  0  0  0  0  0  0  0  0
    4.2095   -1.1573   -1.0948 C   0  0  0  0  0  0  0  0  0  0  0  0
    2.9354   -1.3422   -0.5753 C   0  0  0  0  0  0  0  0  0  0  0  0
    1.6800   -0.8712   -1.1874 C   0  0  0  0  0  0  0  0  0  0  0  0
    1.6277   -0.2329   -2.2226 O   0  0  0  0  0  0  0  0  0  0  0  0
   -1.2867   -0.1662   -2.1100 S   0  0  0  0  0  0  0  0  0  0  0  0
   -6.8596    4.0829    0.8924 H   0  0  0  0  0  0  0  0  0  0  0  0
   -6.9933    4.3343    2.6993 H   0  0  0  0  0  0  0  0  0  0  0  0
   -7.2130    1.9408    3.0160 H   0  0  0  0  0  0  0  0  0  0  0  0
   -6.2044    1.5890    0.2497 H   0  0  0  0  0  0  0  0  0  0  0  0
   -7.9659    1.5544    0.2707 H   0  0  0  0  0  0  0  0  0  0  0  0
   -6.2589   -0.2275    1.8561 H   0  0  0  0  0  0  0  0  0  0  0  0
   -6.2236    0.2762   -2.4526 H   0  0  0  0  0  0  0  0  0  0  0  0
   -3.9425    0.6684   -3.3641 H   0  0  0  0  0  0  0  0  0  0  0  0
   -4.5665   -1.7503    0.9015 H   0  0  0  0  0  0  0  0  0  0  0  0
    3.7167   -3.0200    2.2570 H   0  0  0  0  0  0  0  0  0  0  0  0
    5.9937   -2.6722    1.3202 H   0  0  0  0  0  0  0  0  0  0  0  0
    6.8411    0.1450    0.6731 H   0  0  0  0  0  0  0  0  0  0  0  0
    7.2369    1.0788   -2.0717 H   0  0  0  0  0  0  0  0  0  0  0  0
    5.7079    1.1411   -1.2032 H   0  0  0  0  0  0  0  0  0  0  0  0
    6.4532    3.3478   -0.5741 H   0  0  0  0  0  0  0  0  0  0  0  0
    8.6700    3.7456    0.3151 H   0  0  0  0  0  0  0  0  0  0  0  0
    9.1145    2.0022   -0.0321 H   0  0  0  0  0  0  0  0  0  0  0  0
    4.3355   -0.6719   -2.0479 H   0  0  0  0  0  0  0  0  0  0  0  0
  1  2  2  0  0  0  0
  2  3  1  0  0  0  0
  3  4  1  0  0  0  0
  4  5  1  0  0  0  0
  5  6  2  0  0  0  0
  5  7  2  0  0  0  0
  5  8  1  0  0  0  0
  8  9  2  0  0  0  0
  9 10  1  0  0  0  0
 10 11  2  0  0  0  0
 11 12  1  0  0  0  0
 12 13  2  0  0  0  0
 12 14  1  0  0  0  0
 14 15  2  0  0  0  0
 14 16  1  0  0  0  0
 16 17  2  0  0  0  0
 17 18  1  0  0  0  0
 18 19  1  0  0  0  0
 19 20  2  0  0  0  0
 20 21  1  0  0  0  0
 21 22  2  0  0  0  0
 22 23  1  0  0  0  0
 23 24  2  0  0  0  0
 23 25  2  0  0  0  0
 23 26  1  0  0  0  0
 26 27  1  0  0  0  0
 27 28  1  0  0  0  0
 28 29  2  0  0  0  0
 22 30  1  0  0  0  0
 30 31  2  0  0  0  0
 31 32  1  0  0  0  0
 32 33  2  0  0  0  0
 16 34  1  0  0  0  0
 13  8  1  0  0  0  0
 32 17  1  0  0  0  0
 34 11  1  0  0  0  0
 31 19  1  0  0  0  0
  1 35  1  0  0  0  0
  1 36  1  0  0  0  0
  2 37  1  0  0  0  0
  3 38  1  0  0  0  0
  3 39  1  0  0  0  0
  4 40  1  0  0  0  0
  9 41  1  0  0  0  0
 10 42  1  0  0  0  0
 13 43  1  0  0  0  0
 20 44  1  0  0  0  0
 21 45  1  0  0  0  0
 26 46  1  0  0  0  0
 27 47  1  0  0  0  0
 27 48  1  0  0  0  0
 28 49  1  0  0  0  0
 29 50  1  0  0  0  0
 29 51  1  0  0  0  0
 30 52  1  0  0  0  0
M  END
