
  xtb     03012221203D
 energy: -18.260472333903 gnorm: 0.000235468607 xtb: 6.4.1 (afa7bdf)
 84 93  0     0  0            999 V2000
    5.5816    1.0088   -0.0789 C   0  0  0  0  0  0  0  0  0  0  0  0
    4.6212    0.0965    0.1624 C   0  0  0  0  0  0  0  0  0  0  0  0
    3.2157    0.3556    0.0923 C   0  0  0  0  0  0  0  0  0  0  0  0
    2.5979    1.5449   -0.2066 C   0  0  0  0  0  0  0  0  0  0  0  0
    1.1905    1.4758   -0.1941 C   0  0  0  0  0  0  0  0  0  0  0  0
    0.6965    0.2339    0.1123 C   0  0  0  0  0  0  0  0  0  0  0  0
   -0.6934   -0.1176    0.1909 C   0  0  0  0  0  0  0  0  0  0  0  0
   -1.1807   -1.3661    0.4803 C   0  0  0  0  0  0  0  0  0  0  0  0
   -2.5873   -1.4439    0.4913 C   0  0  0  0  0  0  0  0  0  0  0  0
   -3.2125   -0.2539    0.2118 C   0  0  0  0  0  0  0  0  0  0  0  0
   -4.6208   -0.0077    0.1476 C   0  0  0  0  0  0  0  0  0  0  0  0
   -5.5684   -0.9471    0.3283 C   0  0  0  0  0  0  0  0  0  0  0  0
   -6.9983   -0.7222    0.2701 C   0  0  0  0  0  0  0  0  0  0  0  0
   -7.5543    0.5484    0.0869 C   0  0  0  0  0  0  0  0  0  0  0  0
   -8.9160    0.7216    0.0383 C   0  0  0  0  0  0  0  0  0  0  0  0
   -9.7778   -0.3634    0.1684 C   0  0  0  0  0  0  0  0  0  0  0  0
  -11.2001   -0.1786    0.1164 N   0  0  0  0  0  0  0  0  0  0  0  0
  -11.9408    0.7890    0.8297 C   0  0  0  0  0  0  0  0  0  0  0  0
  -11.5354    1.7558    1.7492 C   0  0  0  0  0  0  0  0  0  0  0  0
  -12.4858    2.5698    2.3154 C   0  0  0  0  0  0  0  0  0  0  0  0
  -13.8373    2.4370    1.9857 C   0  0  0  0  0  0  0  0  0  0  0  0
  -14.2553    1.4836    1.0885 C   0  0  0  0  0  0  0  0  0  0  0  0
  -13.3010    0.6484    0.5062 C   0  0  0  0  0  0  0  0  0  0  0  0
  -13.4076   -0.4381   -0.4394 C   0  0  0  0  0  0  0  0  0  0  0  0
  -14.4983   -1.0023   -1.1023 C   0  0  0  0  0  0  0  0  0  0  0  0
  -14.2741   -2.0382   -1.9771 C   0  0  0  0  0  0  0  0  0  0  0  0
  -12.9818   -2.5186   -2.2057 C   0  0  0  0  0  0  0  0  0  0  0  0
  -11.8991   -1.9740   -1.5594 C   0  0  0  0  0  0  0  0  0  0  0  0
  -12.1095   -0.9286   -0.6608 C   0  0  0  0  0  0  0  0  0  0  0  0
   -9.2324   -1.6304    0.3513 C   0  0  0  0  0  0  0  0  0  0  0  0
   -7.8716   -1.8067    0.4030 C   0  0  0  0  0  0  0  0  0  0  0  0
   -2.0188    0.9873   -0.0702 S   0  0  0  0  0  0  0  0  0  0  0  0
    2.0152   -0.8732    0.3949 S   0  0  0  0  0  0  0  0  0  0  0  0
    7.0077    0.7644   -0.0063 C   0  0  0  0  0  0  0  0  0  0  0  0
    7.9011    1.7920   -0.3267 C   0  0  0  0  0  0  0  0  0  0  0  0
    9.2588    1.5952   -0.2642 C   0  0  0  0  0  0  0  0  0  0  0  0
    9.7810    0.3649    0.1234 C   0  0  0  0  0  0  0  0  0  0  0  0
   11.1995    0.1595    0.1968 N   0  0  0  0  0  0  0  0  0  0  0  0
   12.1452    0.4978   -0.7956 C   0  0  0  0  0  0  0  0  0  0  0  0
   11.9833    1.0740   -2.0551 C   0  0  0  0  0  0  0  0  0  0  0  0
   13.0938    1.2773   -2.8373 C   0  0  0  0  0  0  0  0  0  0  0  0
   14.3668    0.9129   -2.3903 C   0  0  0  0  0  0  0  0  0  0  0  0
   14.5435    0.3357   -1.1557 C   0  0  0  0  0  0  0  0  0  0  0  0
   13.4241    0.1222   -0.3503 C   0  0  0  0  0  0  0  0  0  0  0  0
   13.2680   -0.4640    0.9604 C   0  0  0  0  0  0  0  0  0  0  0  0
   14.1863   -0.9941    1.8675 C   0  0  0  0  0  0  0  0  0  0  0  0
   13.7236   -1.4755    3.0687 C   0  0  0  0  0  0  0  0  0  0  0  0
   12.3625   -1.4340    3.3830 C   0  0  0  0  0  0  0  0  0  0  0  0
   11.4473   -0.9161    2.4996 C   0  0  0  0  0  0  0  0  0  0  0  0
   11.8982   -0.4313    1.2722 C   0  0  0  0  0  0  0  0  0  0  0  0
    8.8991   -0.6628    0.4433 C   0  0  0  0  0  0  0  0  0  0  0  0
    7.5407   -0.4700    0.3802 C   0  0  0  0  0  0  0  0  0  0  0  0
    5.2796    2.0041   -0.3504 H   0  0  0  0  0  0  0  0  0  0  0  0
    4.9030   -0.9066    0.4251 H   0  0  0  0  0  0  0  0  0  0  0  0
    3.1373    2.4518   -0.4309 H   0  0  0  0  0  0  0  0  0  0  0  0
    0.5507    2.3171   -0.4081 H   0  0  0  0  0  0  0  0  0  0  0  0
   -0.5362   -2.2077    0.6786 H   0  0  0  0  0  0  0  0  0  0  0  0
   -3.1205   -2.3574    0.7029 H   0  0  0  0  0  0  0  0  0  0  0  0
   -4.9155    1.0027   -0.0689 H   0  0  0  0  0  0  0  0  0  0  0  0
   -5.2517   -1.9549    0.5274 H   0  0  0  0  0  0  0  0  0  0  0  0
   -6.9106    1.4032   -0.0147 H   0  0  0  0  0  0  0  0  0  0  0  0
   -9.3362    1.6994   -0.1190 H   0  0  0  0  0  0  0  0  0  0  0  0
  -10.4959    1.8440    2.0093 H   0  0  0  0  0  0  0  0  0  0  0  0
  -12.1858    3.3216    3.0270 H   0  0  0  0  0  0  0  0  0  0  0  0
  -14.5614    3.0894    2.4450 H   0  0  0  0  0  0  0  0  0  0  0  0
  -15.2943    1.3706    0.8333 H   0  0  0  0  0  0  0  0  0  0  0  0
  -15.4889   -0.6219   -0.9251 H   0  0  0  0  0  0  0  0  0  0  0  0
  -15.1052   -2.4842   -2.4980 H   0  0  0  0  0  0  0  0  0  0  0  0
  -12.8331   -3.3272   -2.9026 H   0  0  0  0  0  0  0  0  0  0  0  0
  -10.9011   -2.3298   -1.7418 H   0  0  0  0  0  0  0  0  0  0  0  0
   -9.8966   -2.4684    0.4695 H   0  0  0  0  0  0  0  0  0  0  0  0
   -7.4626   -2.7917    0.5478 H   0  0  0  0  0  0  0  0  0  0  0  0
    7.5101    2.7498   -0.6239 H   0  0  0  0  0  0  0  0  0  0  0  0
    9.9379    2.3968   -0.4957 H   0  0  0  0  0  0  0  0  0  0  0  0
   10.9999    1.3392   -2.3996 H   0  0  0  0  0  0  0  0  0  0  0  0
   12.9826    1.7222   -3.8127 H   0  0  0  0  0  0  0  0  0  0  0  0
   15.2204    1.0836   -3.0251 H   0  0  0  0  0  0  0  0  0  0  0  0
   15.5189    0.0462   -0.8062 H   0  0  0  0  0  0  0  0  0  0  0  0
   15.2329   -1.0172    1.6197 H   0  0  0  0  0  0  0  0  0  0  0  0
   14.4195   -1.8877    3.7806 H   0  0  0  0  0  0  0  0  0  0  0  0
   12.0272   -1.8124    4.3348 H   0  0  0  0  0  0  0  0  0  0  0  0
   10.4009   -0.8682    2.7419 H   0  0  0  0  0  0  0  0  0  0  0  0
    9.3013   -1.6198    0.7260 H   0  0  0  0  0  0  0  0  0  0  0  0
    6.8820   -1.2803    0.6343 H   0  0  0  0  0  0  0  0  0  0  0  0
  1  2  2  0  0  0  0
  2  3  1  0  0  0  0
  3  4  2  0  0  0  0
  4  5  1  0  0  0  0
  5  6  2  0  0  0  0
  6  7  1  0  0  0  0
  7  8  2  0  0  0  0
  8  9  1  0  0  0  0
  9 10  2  0  0  0  0
 10 11  1  0  0  0  0
 11 12  2  0  0  0  0
 12 13  1  0  0  0  0
 13 14  2  0  0  0  0
 14 15  1  0  0  0  0
 15 16  2  0  0  0  0
 16 17  1  0  0  0  0
 17 18  1  0  0  0  0
 18 19  2  0  0  0  0
 19 20  1  0  0  0  0
 20 21  2  0  0  0  0
 21 22  1  0  0  0  0
 22 23  2  0  0  0  0
 23 24  1  0  0  0  0
 24 25  2  0  0  0  0
 25 26  1  0  0  0  0
 26 27  2  0  0  0  0
 27 28  1  0  0  0  0
 28 29  2  0  0  0  0
 16 30  1  0  0  0  0
 30 31  2  0  0  0  0
 10 32  1  0  0  0  0
  6 33  1  0  0  0  0
  1 34  1  0  0  0  0
 34 35  2  0  0  0  0
 35 36  1  0  0  0  0
 36 37  2  0  0  0  0
 37 38  1  0  0  0  0
 38 39  1  0  0  0  0
 39 40  2  0  0  0  0
 40 41  1  0  0  0  0
 41 42  2  0  0  0  0
 42 43  1  0  0  0  0
 43 44  2  0  0  0  0
 44 45  1  0  0  0  0
 45 46  2  0  0  0  0
 46 47  1  0  0  0  0
 47 48  2  0  0  0  0
 48 49  1  0  0  0  0
 49 50  2  0  0  0  0
 37 51  1  0  0  0  0
 51 52  2  0  0  0  0
 33  3  1  0  0  0  0
 52 34  1  0  0  0  0
 32  7  1  0  0  0  0
 50 38  1  0  0  0  0
 31 13  1  0  0  0  0
 44 39  1  0  0  0  0
 50 45  1  0  0  0  0
 29 17  1  0  0  0  0
 23 18  1  0  0  0  0
 29 24  1  0  0  0  0
  1 53  1  0  0  0  0
  2 54  1  0  0  0  0
  4 55  1  0  0  0  0
  5 56  1  0  0  0  0
  8 57  1  0  0  0  0
  9 58  1  0  0  0  0
 11 59  1  0  0  0  0
 12 60  1  0  0  0  0
 14 61  1  0  0  0  0
 15 62  1  0  0  0  0
 19 63  1  0  0  0  0
 20 64  1  0  0  0  0
 21 65  1  0  0  0  0
 22 66  1  0  0  0  0
 25 67  1  0  0  0  0
 26 68  1  0  0  0  0
 27 69  1  0  0  0  0
 28 70  1  0  0  0  0
 30 71  1  0  0  0  0
 31 72  1  0  0  0  0
 35 73  1  0  0  0  0
 36 74  1  0  0  0  0
 40 75  1  0  0  0  0
 41 76  1  0  0  0  0
 42 77  1  0  0  0  0
 43 78  1  0  0  0  0
 46 79  1  0  0  0  0
 47 80  1  0  0  0  0
 48 81  1  0  0  0  0
 49 82  1  0  0  0  0
 51 83  1  0  0  0  0
 52 84  1  0  0  0  0
M  END
