
  xtb     03012221273D
 energy: -11.469070177196 gnorm: 0.000351751544 xtb: 6.4.1 (afa7bdf)
 59 61  0     0  0            999 V2000
   -0.0180    3.5637    3.8714 C   0  0  0  0  0  0  0  0  0  0  0  0
   -0.4282    2.8921    2.6037 C   0  0  0  0  0  0  0  0  0  0  0  0
   -1.5571    3.0582    2.1987 O   0  0  0  0  0  0  0  0  0  0  0  0
    0.5320    2.1359    2.0249 O   0  0  0  0  0  0  0  0  0  0  0  0
    0.3260    1.4298    0.7569 B   0  0  0  0  0  4  0  0  0  0  0  0
    0.2432    2.4033   -0.3397 O   0  0  0  0  0  0  0  0  0  0  0  0
    0.0186    2.1739   -1.6529 C   0  0  0  0  0  0  0  0  0  0  0  0
   -0.0875    3.4023   -2.4922 C   0  0  0  0  0  0  0  0  0  0  0  0
   -0.0950    1.0932   -2.1846 O   0  0  0  0  0  0  0  0  0  0  0  0
    1.4569    0.5186    0.5006 O   0  0  0  0  0  0  0  0  0  0  0  0
    1.2796   -0.6680   -0.1332 C   0  0  0  0  0  0  0  0  0  0  0  0
    2.4284   -1.3541   -0.6066 C   0  0  0  0  0  0  0  0  0  0  0  0
    3.6688   -0.8299   -0.4503 C   0  0  0  0  0  0  0  0  0  0  0  0
    4.8514   -1.4530   -0.9016 C   0  0  0  0  0  0  0  0  0  0  0  0
    6.0803   -0.9093   -0.7369 C   0  0  0  0  0  0  0  0  0  0  0  0
    7.3227   -1.4941   -1.1745 C   0  0  0  0  0  0  0  0  0  0  0  0
    8.5234   -0.8127   -0.9424 C   0  0  0  0  0  0  0  0  0  0  0  0
    9.7249   -1.3441   -1.3479 C   0  0  0  0  0  0  0  0  0  0  0  0
    9.7659   -2.5641   -1.9932 C   0  0  0  0  0  0  0  0  0  0  0  0
    8.5922   -3.2515   -2.2310 C   0  0  0  0  0  0  0  0  0  0  0  0
    7.3844   -2.7297   -1.8301 C   0  0  0  0  0  0  0  0  0  0  0  0
    0.0079   -1.1963   -0.3095 C   0  0  0  0  0  0  0  0  0  0  0  0
   -1.0909   -0.5136    0.1884 C   0  0  0  0  0  0  0  0  0  0  0  0
   -2.4186   -0.9969    0.0611 C   0  0  0  0  0  0  0  0  0  0  0  0
   -3.4447   -0.2569    0.5491 C   0  0  0  0  0  0  0  0  0  0  0  0
   -4.8037   -0.6257    0.4761 C   0  0  0  0  0  0  0  0  0  0  0  0
   -5.7991    0.1464    0.9718 C   0  0  0  0  0  0  0  0  0  0  0  0
   -7.2052   -0.1664    0.9325 C   0  0  0  0  0  0  0  0  0  0  0  0
   -7.6992   -1.3458    0.3623 C   0  0  0  0  0  0  0  0  0  0  0  0
   -9.0499   -1.6049    0.3464 C   0  0  0  0  0  0  0  0  0  0  0  0
   -9.9425   -0.7044    0.8934 C   0  0  0  0  0  0  0  0  0  0  0  0
   -9.4738    0.4642    1.4601 C   0  0  0  0  0  0  0  0  0  0  0  0
   -8.1258    0.7339    1.4819 C   0  0  0  0  0  0  0  0  0  0  0  0
   -0.9263    0.6649    0.8309 O   0  0  0  0  0  3  0  0  0  0  0  0
   -0.2132    4.6332    3.8130 H   0  0  0  0  0  0  0  0  0  0  0  0
    1.0450    3.4127    4.0534 H   0  0  0  0  0  0  0  0  0  0  0  0
   -0.5764    3.1579    4.7134 H   0  0  0  0  0  0  0  0  0  0  0  0
   -1.0283    3.4057   -3.0395 H   0  0  0  0  0  0  0  0  0  0  0  0
   -0.0463    4.2915   -1.8652 H   0  0  0  0  0  0  0  0  0  0  0  0
    0.7293    3.4436   -3.2104 H   0  0  0  0  0  0  0  0  0  0  0  0
    2.3048   -2.2977   -1.1055 H   0  0  0  0  0  0  0  0  0  0  0  0
    3.7462    0.1221    0.0441 H   0  0  0  0  0  0  0  0  0  0  0  0
    4.7526   -2.4020   -1.3990 H   0  0  0  0  0  0  0  0  0  0  0  0
    6.1419    0.0410   -0.2385 H   0  0  0  0  0  0  0  0  0  0  0  0
    8.4968    0.1381   -0.4403 H   0  0  0  0  0  0  0  0  0  0  0  0
   10.6410   -0.8056   -1.1616 H   0  0  0  0  0  0  0  0  0  0  0  0
   10.7088   -2.9774   -2.3095 H   0  0  0  0  0  0  0  0  0  0  0  0
    8.6242   -4.2049   -2.7351 H   0  0  0  0  0  0  0  0  0  0  0  0
    6.4815   -3.2784   -2.0229 H   0  0  0  0  0  0  0  0  0  0  0  0
   -0.1248   -2.1264   -0.8283 H   0  0  0  0  0  0  0  0  0  0  0  0
   -2.6030   -1.9337   -0.4309 H   0  0  0  0  0  0  0  0  0  0  0  0
   -3.1889    0.6797    1.0165 H   0  0  0  0  0  0  0  0  0  0  0  0
   -5.0403   -1.5618    0.0013 H   0  0  0  0  0  0  0  0  0  0  0  0
   -5.5230    1.0762    1.4355 H   0  0  0  0  0  0  0  0  0  0  0  0
   -7.0192   -2.0575   -0.0674 H   0  0  0  0  0  0  0  0  0  0  0  0
   -9.4161   -2.5181   -0.0964 H   0  0  0  0  0  0  0  0  0  0  0  0
  -10.9991   -0.9124    0.8780 H   0  0  0  0  0  0  0  0  0  0  0  0
  -10.1698    1.1691    1.8876 H   0  0  0  0  0  0  0  0  0  0  0  0
   -7.7654    1.6458    1.9241 H   0  0  0  0  0  0  0  0  0  0  0  0
  1  2  1  0  0  0  0
  2  3  2  0  0  0  0
  2  4  1  0  0  0  0
  4  5  1  0  0  0  0
  5  6  1  0  0  0  0
  6  7  1  0  0  0  0
  7  8  1  0  0  0  0
  7  9  2  0  0  0  0
  5 10  1  0  0  0  0
 10 11  1  0  0  0  0
 11 12  1  0  0  0  0
 12 13  2  0  0  0  0
 13 14  1  0  0  0  0
 14 15  2  0  0  0  0
 15 16  1  0  0  0  0
 16 17  2  0  0  0  0
 17 18  1  0  0  0  0
 18 19  2  0  0  0  0
 19 20  1  0  0  0  0
 20 21  2  0  0  0  0
 11 22  2  0  0  0  0
 22 23  1  0  0  0  0
 23 24  1  0  0  0  0
 24 25  2  0  0  0  0
 25 26  1  0  0  0  0
 26 27  2  0  0  0  0
 27 28  1  0  0  0  0
 28 29  2  0  0  0  0
 29 30  1  0  0  0  0
 30 31  2  0  0  0  0
 31 32  1  0  0  0  0
 32 33  2  0  0  0  0
 23 34  2  0  0  0  0
 34  5  1  0  0  0  0
 21 16  1  0  0  0  0
 33 28  1  0  0  0  0
  1 35  1  0  0  0  0
  1 36  1  0  0  0  0
  1 37  1  0  0  0  0
  8 38  1  0  0  0  0
  8 39  1  0  0  0  0
  8 40  1  0  0  0  0
 12 41  1  0  0  0  0
 13 42  1  0  0  0  0
 14 43  1  0  0  0  0
 15 44  1  0  0  0  0
 17 45  1  0  0  0  0
 18 46  1  0  0  0  0
 19 47  1  0  0  0  0
 20 48  1  0  0  0  0
 21 49  1  0  0  0  0
 22 50  1  0  0  0  0
 24 51  1  0  0  0  0
 25 52  1  0  0  0  0
 26 53  1  0  0  0  0
 27 54  1  0  0  0  0
 29 55  1  0  0  0  0
 30 56  1  0  0  0  0
 31 57  1  0  0  0  0
 32 58  1  0  0  0  0
 33 59  1  0  0  0  0
M  CHG  1   5  -1
M  CHG  1  34   1
M  END
