
  xtb     03012221213D
 energy: -19.088815162573 gnorm: 0.000168292072 xtb: 6.4.1 (afa7bdf)
 88 97  0     0  0            999 V2000
    5.2626    3.1927    1.2230 C   0  0  0  0  0  0  0  0  0  0  0  0
    5.5550    1.8334    0.5537 C   0  0  0  0  0  0  0  0  0  0  0  0
    7.0428    1.7454    0.1561 C   0  0  0  0  0  0  0  0  0  0  0  0
    4.7047    1.7244   -0.7195 C   0  0  0  0  0  0  0  0  0  0  0  0
    4.8503    2.6716   -1.7222 C   0  0  0  0  0  0  0  0  0  0  0  0
    4.1239    2.6020   -2.8937 C   0  0  0  0  0  0  0  0  0  0  0  0
    3.2329    1.5692   -3.0861 C   0  0  0  0  0  0  0  0  0  0  0  0
    3.0735    0.6194   -2.1061 C   0  0  0  0  0  0  0  0  0  0  0  0
    3.7932    0.6795   -0.9138 C   0  0  0  0  0  0  0  0  0  0  0  0
    3.6072   -0.3305    0.0702 N   0  0  0  0  0  0  0  0  0  0  0  0
    2.7112   -1.4319   -0.1969 C   0  0  0  0  0  0  0  0  0  0  0  0
    3.2150   -2.7099   -0.4640 C   0  0  0  0  0  0  0  0  0  0  0  0
    2.3650   -3.7458   -0.7252 C   0  0  0  0  0  0  0  0  0  0  0  0
    0.9802   -3.5590   -0.7352 C   0  0  0  0  0  0  0  0  0  0  0  0
    0.4506   -2.2792   -0.4690 C   0  0  0  0  0  0  0  0  0  0  0  0
    1.3380   -1.2391   -0.2007 C   0  0  0  0  0  0  0  0  0  0  0  0
   -0.9925   -2.0877   -0.4839 C   0  0  0  0  0  0  0  0  0  0  0  0
   -1.5833   -0.8504   -0.2361 C   0  0  0  0  0  0  0  0  0  0  0  0
   -2.9597   -0.6818   -0.2487 C   0  0  0  0  0  0  0  0  0  0  0  0
   -3.5458    0.6136    0.0080 N   0  0  0  0  0  0  0  0  0  0  0  0
   -4.1518    1.3294   -1.0610 C   0  0  0  0  0  0  0  0  0  0  0  0
   -4.0656    0.8277   -2.3585 C   0  0  0  0  0  0  0  0  0  0  0  0
   -4.6448    1.4835   -3.4181 C   0  0  0  0  0  0  0  0  0  0  0  0
   -5.3245    2.6615   -3.1991 C   0  0  0  0  0  0  0  0  0  0  0  0
   -5.4121    3.1758   -1.9213 C   0  0  0  0  0  0  0  0  0  0  0  0
   -4.8302    2.5336   -0.8383 C   0  0  0  0  0  0  0  0  0  0  0  0
   -4.9461    3.1516    0.5617 C   0  0  0  0  0  0  0  0  0  0  0  0
   -6.4389    3.2156    0.9437 C   0  0  0  0  0  0  0  0  0  0  0  0
   -4.3455    4.5726    0.5219 C   0  0  0  0  0  0  0  0  0  0  0  0
   -4.2053    2.3386    1.6325 C   0  0  0  0  0  0  0  0  0  0  0  0
   -4.1933    2.7871    2.9450 C   0  0  0  0  0  0  0  0  0  0  0  0
   -3.5608    2.0776    3.9458 C   0  0  0  0  0  0  0  0  0  0  0  0
   -2.9270    0.8914    3.6482 C   0  0  0  0  0  0  0  0  0  0  0  0
   -2.9284    0.4272    2.3548 C   0  0  0  0  0  0  0  0  0  0  0  0
   -3.5554    1.1355    1.3310 C   0  0  0  0  0  0  0  0  0  0  0  0
   -3.7735   -1.7870   -0.5218 C   0  0  0  0  0  0  0  0  0  0  0  0
   -3.2175   -3.0084   -0.7723 C   0  0  0  0  0  0  0  0  0  0  0  0
   -1.8317   -3.1870   -0.7604 C   0  0  0  0  0  0  0  0  0  0  0  0
   -1.2805   -4.4974   -1.0351 C   0  0  0  0  0  0  0  0  0  0  0  0
   -2.1272   -5.4930   -1.2986 N   0  0  0  0  0  0  0  0  0  0  0  0
   -1.5641   -6.6635   -1.5435 C   0  0  0  0  0  0  0  0  0  0  0  0
   -2.4122   -7.7463   -1.8296 C   0  0  0  0  0  0  0  0  0  0  0  0
   -3.1344   -8.6273   -2.0640 N   0  0  0  0  0  0  0  0  0  0  0  0
   -0.1686   -6.8493   -1.5262 C   0  0  0  0  0  0  0  0  0  0  0  0
    0.3733   -8.1179   -1.7923 C   0  0  0  0  0  0  0  0  0  0  0  0
    0.8453   -9.1584   -2.0095 N   0  0  0  0  0  0  0  0  0  0  0  0
    0.6751   -5.8654   -1.2666 N   0  0  0  0  0  0  0  0  0  0  0  0
    0.1123   -4.6820   -1.0214 C   0  0  0  0  0  0  0  0  0  0  0  0
    4.3207   -0.2894    1.2996 C   0  0  0  0  0  0  0  0  0  0  0  0
    4.0799   -1.2644    2.2661 C   0  0  0  0  0  0  0  0  0  0  0  0
    4.7517   -1.2633    3.4649 C   0  0  0  0  0  0  0  0  0  0  0  0
    5.6814   -0.2800    3.7227 C   0  0  0  0  0  0  0  0  0  0  0  0
    5.9255    0.6974    2.7793 C   0  0  0  0  0  0  0  0  0  0  0  0
    5.2563    0.7179    1.5645 C   0  0  0  0  0  0  0  0  0  0  0  0
    5.4805    4.0218    0.5522 H   0  0  0  0  0  0  0  0  0  0  0  0
    4.2129    3.2568    1.5066 H   0  0  0  0  0  0  0  0  0  0  0  0
    5.8621    3.3314    2.1210 H   0  0  0  0  0  0  0  0  0  0  0  0
    7.2517    0.7871   -0.3178 H   0  0  0  0  0  0  0  0  0  0  0  0
    7.3139    2.5328   -0.5450 H   0  0  0  0  0  0  0  0  0  0  0  0
    7.6922    1.8388    1.0249 H   0  0  0  0  0  0  0  0  0  0  0  0
    5.5503    3.4775   -1.5882 H   0  0  0  0  0  0  0  0  0  0  0  0
    4.2570    3.3500   -3.6579 H   0  0  0  0  0  0  0  0  0  0  0  0
    2.6669    1.5050   -4.0008 H   0  0  0  0  0  0  0  0  0  0  0  0
    2.3864   -0.1933   -2.2594 H   0  0  0  0  0  0  0  0  0  0  0  0
    4.2810   -2.8572   -0.4650 H   0  0  0  0  0  0  0  0  0  0  0  0
    2.7485   -4.7291   -0.9325 H   0  0  0  0  0  0  0  0  0  0  0  0
    0.9729   -0.2529    0.0135 H   0  0  0  0  0  0  0  0  0  0  0  0
   -0.9776    0.0118   -0.0328 H   0  0  0  0  0  0  0  0  0  0  0  0
   -3.5308   -0.0901   -2.5267 H   0  0  0  0  0  0  0  0  0  0  0  0
   -4.5695    1.0780   -4.4135 H   0  0  0  0  0  0  0  0  0  0  0  0
   -5.7854    3.1803   -4.0236 H   0  0  0  0  0  0  0  0  0  0  0  0
   -5.9467    4.0960   -1.7633 H   0  0  0  0  0  0  0  0  0  0  0  0
   -6.8654    2.2137    0.9728 H   0  0  0  0  0  0  0  0  0  0  0  0
   -7.0078    3.8019    0.2241 H   0  0  0  0  0  0  0  0  0  0  0  0
   -6.5787    3.6686    1.9238 H   0  0  0  0  0  0  0  0  0  0  0  0
   -4.4250    5.0660    1.4889 H   0  0  0  0  0  0  0  0  0  0  0  0
   -4.8543    5.1999   -0.2078 H   0  0  0  0  0  0  0  0  0  0  0  0
   -3.2912    4.5305    0.2517 H   0  0  0  0  0  0  0  0  0  0  0  0
   -4.6949    3.7061    3.1924 H   0  0  0  0  0  0  0  0  0  0  0  0
   -3.5673    2.4476    4.9579 H   0  0  0  0  0  0  0  0  0  0  0  0
   -2.4362    0.3293    4.4256 H   0  0  0  0  0  0  0  0  0  0  0  0
   -2.4435   -0.5040    2.1229 H   0  0  0  0  0  0  0  0  0  0  0  0
   -4.8416   -1.6553   -0.5280 H   0  0  0  0  0  0  0  0  0  0  0  0
   -3.8397   -3.8598   -0.9836 H   0  0  0  0  0  0  0  0  0  0  0  0
    3.3501   -2.0280    2.0641 H   0  0  0  0  0  0  0  0  0  0  0  0
    4.5536   -2.0276    4.1982 H   0  0  0  0  0  0  0  0  0  0  0  0
    6.2151   -0.2734    4.6588 H   0  0  0  0  0  0  0  0  0  0  0  0
    6.6533    1.4604    2.9928 H   0  0  0  0  0  0  0  0  0  0  0  0
  1  2  1  0  0  0  0
  2  3  1  0  0  0  0
  2  4  1  0  0  0  0
  4  5  2  0  0  0  0
  5  6  1  0  0  0  0
  6  7  2  0  0  0  0
  7  8  1  0  0  0  0
  8  9  2  0  0  0  0
  9 10  1  0  0  0  0
 10 11  1  0  0  0  0
 11 12  2  0  0  0  0
 12 13  1  0  0  0  0
 13 14  2  0  0  0  0
 14 15  1  0  0  0  0
 15 16  2  0  0  0  0
 15 17  1  0  0  0  0
 17 18  2  0  0  0  0
 18 19  1  0  0  0  0
 19 20  1  0  0  0  0
 20 21  1  0  0  0  0
 21 22  2  0  0  0  0
 22 23  1  0  0  0  0
 23 24  2  0  0  0  0
 24 25  1  0  0  0  0
 25 26  2  0  0  0  0
 26 27  1  0  0  0  0
 27 28  1  0  0  0  0
 27 29  1  0  0  0  0
 27 30  1  0  0  0  0
 30 31  2  0  0  0  0
 31 32  1  0  0  0  0
 32 33  2  0  0  0  0
 33 34  1  0  0  0  0
 34 35  2  0  0  0  0
 19 36  2  0  0  0  0
 36 37  1  0  0  0  0
 37 38  2  0  0  0  0
 38 39  1  0  0  0  0
 39 40  2  0  0  0  0
 40 41  1  0  0  0  0
 41 42  1  0  0  0  0
 42 43  3  0  0  0  0
 41 44  2  0  0  0  0
 44 45  1  0  0  0  0
 45 46  3  0  0  0  0
 44 47  1  0  0  0  0
 47 48  2  0  0  0  0
 10 49  1  0  0  0  0
 49 50  2  0  0  0  0
 50 51  1  0  0  0  0
 51 52  2  0  0  0  0
 52 53  1  0  0  0  0
 53 54  2  0  0  0  0
 54  2  1  0  0  0  0
  9  4  1  0  0  0  0
 16 11  1  0  0  0  0
 38 17  1  0  0  0  0
 48 39  1  0  0  0  0
 54 49  1  0  0  0  0
 48 14  1  0  0  0  0
 35 20  1  0  0  0  0
 26 21  1  0  0  0  0
 35 30  1  0  0  0  0
  1 55  1  0  0  0  0
  1 56  1  0  0  0  0
  1 57  1  0  0  0  0
  3 58  1  0  0  0  0
  3 59  1  0  0  0  0
  3 60  1  0  0  0  0
  5 61  1  0  0  0  0
  6 62  1  0  0  0  0
  7 63  1  0  0  0  0
  8 64  1  0  0  0  0
 12 65  1  0  0  0  0
 13 66  1  0  0  0  0
 16 67  1  0  0  0  0
 18 68  1  0  0  0  0
 22 69  1  0  0  0  0
 23 70  1  0  0  0  0
 24 71  1  0  0  0  0
 25 72  1  0  0  0  0
 28 73  1  0  0  0  0
 28 74  1  0  0  0  0
 28 75  1  0  0  0  0
 29 76  1  0  0  0  0
 29 77  1  0  0  0  0
 29 78  1  0  0  0  0
 31 79  1  0  0  0  0
 32 80  1  0  0  0  0
 33 81  1  0  0  0  0
 34 82  1  0  0  0  0
 36 83  1  0  0  0  0
 37 84  1  0  0  0  0
 50 85  1  0  0  0  0
 51 86  1  0  0  0  0
 52 87  1  0  0  0  0
 53 88  1  0  0  0  0
M  END
