
  xtb     03012221323D
 energy: -6.538879558936 gnorm: 0.000413594388 xtb: 6.4.1 (afa7bdf)
 32 33  0     0  0            999 V2000
    7.2412   -1.3886    2.1955 C   0  0  0  0  0  0  0  0  0  0  0  0
    6.0653   -1.2815    1.9150 C   0  0  0  0  0  0  0  0  0  0  0  0
    4.6989   -1.1536    1.5832 C   0  0  0  0  0  0  0  0  0  0  0  0
    3.8865   -2.2858    1.4473 C   0  0  0  0  0  0  0  0  0  0  0  0
    2.5639   -2.1682    1.1211 C   0  0  0  0  0  0  0  0  0  0  0  0
    1.9890   -0.9084    0.9140 C   0  0  0  0  0  0  0  0  0  0  0  0
    0.6272   -0.7435    0.5674 C   0  0  0  0  0  0  0  0  0  0  0  0
    0.1033    0.4908    0.3688 C   0  0  0  0  0  0  0  0  0  0  0  0
   -1.2723    0.7160    0.0005 C   0  0  0  0  0  0  0  0  0  0  0  0
   -2.1947   -0.2279   -0.2070 C   0  0  0  0  0  0  0  0  0  0  0  0
   -3.5591    0.1051   -0.5948 C   0  0  0  0  0  0  0  0  0  0  0  0
   -4.3669   -0.7835   -0.7942 O   0  0  0  0  0  0  0  0  0  0  0  0
   -3.8446    1.4364   -0.7198 O   0  0  0  0  0  0  0  0  0  0  0  0
   -5.1879    1.6204   -1.0968 C   0  0  0  0  0  0  0  0  0  0  0  0
   -5.4450    1.2146   -2.5320 C   0  0  0  0  0  0  0  0  0  0  0  0
    0.9629    1.6701    0.5225 C   0  0  0  0  0  0  0  0  0  0  0  0
    0.4603    2.7685    0.3405 O   0  0  0  0  0  0  0  0  0  0  0  0
    2.2883    1.5128    0.8588 O   0  0  0  0  0  0  0  0  0  0  0  0
    2.7892    0.2415    1.0482 C   0  0  0  0  0  0  0  0  0  0  0  0
    4.1398    0.0886    1.3837 C   0  0  0  0  0  0  0  0  0  0  0  0
    8.2741   -1.4789    2.4436 H   0  0  0  0  0  0  0  0  0  0  0  0
    4.3227   -3.2589    1.6037 H   0  0  0  0  0  0  0  0  0  0  0  0
    1.9503   -3.0463    1.0185 H   0  0  0  0  0  0  0  0  0  0  0  0
    0.0141   -1.6179    0.4607 H   0  0  0  0  0  0  0  0  0  0  0  0
   -1.5681    1.7462   -0.1233 H   0  0  0  0  0  0  0  0  0  0  0  0
   -1.9588   -1.2689   -0.1024 H   0  0  0  0  0  0  0  0  0  0  0  0
   -5.4212    2.6803   -0.9303 H   0  0  0  0  0  0  0  0  0  0  0  0
   -5.8014    1.0372   -0.3957 H   0  0  0  0  0  0  0  0  0  0  0  0
   -6.4833    1.3764   -2.8286 H   0  0  0  0  0  0  0  0  0  0  0  0
   -5.2144    0.1561   -2.6689 H   0  0  0  0  0  0  0  0  0  0  0  0
   -4.8029    1.7770   -3.2113 H   0  0  0  0  0  0  0  0  0  0  0  0
    4.7439    0.9735    1.4825 H   0  0  0  0  0  0  0  0  0  0  0  0
  1  2  3  0  0  0  0
  2  3  1  0  0  0  0
  3  4  2  0  0  0  0
  4  5  1  0  0  0  0
  5  6  2  0  0  0  0
  6  7  1  0  0  0  0
  7  8  2  0  0  0  0
  8  9  1  0  0  0  0
  9 10  2  0  0  0  0
 10 11  1  0  0  0  0
 11 12  2  0  0  0  0
 11 13  1  0  0  0  0
 13 14  1  0  0  0  0
 14 15  1  0  0  0  0
  8 16  1  0  0  0  0
 16 17  2  0  0  0  0
 16 18  1  0  0  0  0
 18 19  1  0  0  0  0
 19 20  2  0  0  0  0
 20  3  1  0  0  0  0
 19  6  1  0  0  0  0
  1 21  1  0  0  0  0
  4 22  1  0  0  0  0
  5 23  1  0  0  0  0
  7 24  1  0  0  0  0
  9 25  1  0  0  0  0
 10 26  1  0  0  0  0
 14 27  1  0  0  0  0
 14 28  1  0  0  0  0
 15 29  1  0  0  0  0
 15 30  1  0  0  0  0
 15 31  1  0  0  0  0
 20 32  1  0  0  0  0
M  END
