
  xtb     03012221223D
 energy: -7.773004782989 gnorm: 0.000269866625 xtb: 6.4.1 (afa7bdf)
 40 43  0     0  0            999 V2000
    3.5784    3.7665    1.2622 C   0  0  0  0  0  0  0  0  0  0  0  0
    3.0660    2.5283    0.8932 O   0  0  0  0  0  0  0  0  0  0  0  0
    4.0963    1.6549    0.6703 C   0  0  0  0  0  0  0  0  0  0  0  0
    5.2667    1.9633    0.7899 O   0  0  0  0  0  0  0  0  0  0  0  0
    3.7525    0.2718    0.2644 C   0  0  0  0  0  0  0  0  0  0  0  0
    4.7370   -0.6406    0.0322 C   0  0  0  0  0  0  0  0  0  0  0  0
    4.4435   -1.9856   -0.3608 C   0  0  0  0  0  0  0  0  0  0  0  0
    5.3421   -2.8009   -0.5675 O   0  0  0  0  0  0  0  0  0  0  0  0
    3.1055   -2.3569   -0.5060 N   0  0  0  0  0  0  0  0  0  0  0  0
    2.8133   -3.7186   -0.9042 C   0  0  0  0  0  0  0  0  0  0  0  0
    2.0813   -1.4256   -0.2707 C   0  0  0  0  0  0  0  0  0  0  0  0
    0.6766   -1.6432   -0.3775 C   0  0  0  0  0  0  0  0  0  0  0  0
   -0.0860   -0.5465   -0.0875 C   0  0  0  0  0  0  0  0  0  0  0  0
   -1.5345   -0.4558   -0.1074 C   0  0  0  0  0  0  0  0  0  0  0  0
   -2.3379   -1.5379   -0.4590 C   0  0  0  0  0  0  0  0  0  0  0  0
   -3.7093   -1.4297   -0.4633 C   0  0  0  0  0  0  0  0  0  0  0  0
   -4.3379   -0.2416   -0.1172 C   0  0  0  0  0  0  0  0  0  0  0  0
   -3.5391    0.8824    0.2159 C   0  0  0  0  0  0  0  0  0  0  0  0
   -2.1619    0.7443    0.2259 C   0  0  0  0  0  0  0  0  0  0  0  0
   -4.0998    2.1201    0.5223 O   0  0  0  0  0  0  0  0  0  0  0  0
   -5.4598    2.2105    0.1439 C   0  0  0  0  0  0  0  0  0  0  0  0
   -6.2238    0.9615    0.5666 C   0  0  0  0  0  0  0  0  0  0  0  0
   -5.7274   -0.1846   -0.0980 O   0  0  0  0  0  0  0  0  0  0  0  0
    0.9616    0.7864    0.3278 S   0  0  0  0  0  0  0  0  0  0  0  0
    2.4104   -0.1385    0.1073 C   0  0  0  0  0  0  0  0  0  0  0  0
    2.7521    4.4576    1.4399 H   0  0  0  0  0  0  0  0  0  0  0  0
    4.2160    4.1367    0.4558 H   0  0  0  0  0  0  0  0  0  0  0  0
    4.1721    3.6439    2.1713 H   0  0  0  0  0  0  0  0  0  0  0  0
    5.7648   -0.3488    0.1456 H   0  0  0  0  0  0  0  0  0  0  0  0
    3.7487   -4.2616   -1.0307 H   0  0  0  0  0  0  0  0  0  0  0  0
    2.2720   -3.7245   -1.8475 H   0  0  0  0  0  0  0  0  0  0  0  0
    2.2194   -4.2126   -0.1387 H   0  0  0  0  0  0  0  0  0  0  0  0
    0.2645   -2.5957   -0.6623 H   0  0  0  0  0  0  0  0  0  0  0  0
   -1.8783   -2.4740   -0.7270 H   0  0  0  0  0  0  0  0  0  0  0  0
   -4.3249   -2.2717   -0.7237 H   0  0  0  0  0  0  0  0  0  0  0  0
   -1.5664    1.6002    0.4883 H   0  0  0  0  0  0  0  0  0  0  0  0
   -5.8761    3.1264    0.5831 H   0  0  0  0  0  0  0  0  0  0  0  0
   -5.4795    2.3197   -0.9469 H   0  0  0  0  0  0  0  0  0  0  0  0
   -7.2988    1.0368    0.3585 H   0  0  0  0  0  0  0  0  0  0  0  0
   -6.0995    0.7837    1.6411 H   0  0  0  0  0  0  0  0  0  0  0  0
  1  2  1  0  0  0  0
  2  3  1  0  0  0  0
  3  4  2  0  0  0  0
  3  5  1  0  0  0  0
  5  6  2  0  0  0  0
  6  7  1  0  0  0  0
  7  8  2  0  0  0  0
  7  9  1  0  0  0  0
  9 10  1  0  0  0  0
  9 11  1  0  0  0  0
 11 12  1  0  0  0  0
 12 13  2  0  0  0  0
 13 14  1  0  0  0  0
 14 15  2  0  0  0  0
 15 16  1  0  0  0  0
 16 17  2  0  0  0  0
 17 18  1  0  0  0  0
 18 19  2  0  0  0  0
 18 20  1  0  0  0  0
 20 21  1  0  0  0  0
 21 22  1  0  0  0  0
 22 23  1  0  0  0  0
 13 24  1  0  0  0  0
 24 25  1  0  0  0  0
 25  5  1  0  0  0  0
 25 11  2  0  0  0  0
 19 14  1  0  0  0  0
 23 17  1  0  0  0  0
  1 26  1  0  0  0  0
  1 27  1  0  0  0  0
  1 28  1  0  0  0  0
  6 29  1  0  0  0  0
 10 30  1  0  0  0  0
 10 31  1  0  0  0  0
 10 32  1  0  0  0  0
 12 33  1  0  0  0  0
 15 34  1  0  0  0  0
 16 35  1  0  0  0  0
 19 36  1  0  0  0  0
 21 37  1  0  0  0  0
 21 38  1  0  0  0  0
 22 39  1  0  0  0  0
 22 40  1  0  0  0  0
M  END
