
  xtb     03012221283D
 energy: -16.290505125311 gnorm: 0.000178029946 xtb: 6.4.1 (afa7bdf)
 73 81  0     0  0            999 V2000
   -7.7573   -4.1569   -1.9992 C   0  0  0  0  0  0  0  0  0  0  0  0
   -6.3954   -4.3164   -1.8354 C   0  0  0  0  0  0  0  0  0  0  0  0
   -5.6301   -3.2716   -1.3668 C   0  0  0  0  0  0  0  0  0  0  0  0
   -6.2159   -2.0484   -1.0539 C   0  0  0  0  0  0  0  0  0  0  0  0
   -5.3997   -0.9314   -0.5569 C   0  0  0  0  0  0  0  0  0  0  0  0
   -6.0238    0.2033   -0.2863 N   0  0  0  0  0  0  0  0  0  0  0  0
   -5.2400    1.1753    0.1512 C   0  0  0  0  0  0  0  0  0  0  0  0
   -5.8758    2.4604    0.4755 C   0  0  0  0  0  0  0  0  0  0  0  0
   -7.2477    2.6337    0.3171 C   0  0  0  0  0  0  0  0  0  0  0  0
   -7.8429    3.8370    0.6244 C   0  0  0  0  0  0  0  0  0  0  0  0
   -7.0784    4.8863    1.0950 C   0  0  0  0  0  0  0  0  0  0  0  0
   -5.7160    4.7297    1.2574 C   0  0  0  0  0  0  0  0  0  0  0  0
   -5.1186    3.5273    0.9506 C   0  0  0  0  0  0  0  0  0  0  0  0
   -3.9316    1.0839    0.3210 N   0  0  0  0  0  0  0  0  0  0  0  0
   -3.4163   -0.0983    0.0232 C   0  0  0  0  0  0  0  0  0  0  0  0
   -1.9686   -0.2651    0.1926 C   0  0  0  0  0  0  0  0  0  0  0  0
   -1.3638   -1.4998   -0.0322 C   0  0  0  0  0  0  0  0  0  0  0  0
   -0.0085   -1.6559    0.1238 C   0  0  0  0  0  0  0  0  0  0  0  0
    0.7871   -0.5798    0.5047 C   0  0  0  0  0  0  0  0  0  0  0  0
    2.2052   -0.7317    0.6477 N   0  0  0  0  0  0  0  0  0  0  0  0
    2.8983   -1.7380    1.3538 C   0  0  0  0  0  0  0  0  0  0  0  0
    2.4296   -2.8189    2.1024 C   0  0  0  0  0  0  0  0  0  0  0  0
    3.3393   -3.6605    2.6922 C   0  0  0  0  0  0  0  0  0  0  0  0
    4.7167   -3.4492    2.5528 C   0  0  0  0  0  0  0  0  0  0  0  0
    5.2004   -2.3887    1.8275 C   0  0  0  0  0  0  0  0  0  0  0  0
    4.2865   -1.5192    1.2280 C   0  0  0  0  0  0  0  0  0  0  0  0
    4.4479   -0.3420    0.4233 C   0  0  0  0  0  0  0  0  0  0  0  0
    3.1846    0.1165    0.0779 C   0  0  0  0  0  0  0  0  0  0  0  0
    3.3497    1.2475   -0.7876 C   0  0  0  0  0  0  0  0  0  0  0  0
    2.4380    2.0731   -1.4503 C   0  0  0  0  0  0  0  0  0  0  0  0
    2.9239    3.0938   -2.2285 C   0  0  0  0  0  0  0  0  0  0  0  0
    4.3019    3.3080   -2.3593 C   0  0  0  0  0  0  0  0  0  0  0  0
    5.2108    2.5010   -1.7214 C   0  0  0  0  0  0  0  0  0  0  0  0
    4.7401    1.4507   -0.9307 C   0  0  0  0  0  0  0  0  0  0  0  0
    5.4310    0.4739   -0.1836 N   0  0  0  0  0  0  0  0  0  0  0  0
    6.8519    0.3064   -0.0609 C   0  0  0  0  0  0  0  0  0  0  0  0
    7.4366    0.1472    1.1904 C   0  0  0  0  0  0  0  0  0  0  0  0
    8.7975   -0.0259    1.3096 C   0  0  0  0  0  0  0  0  0  0  0  0
    9.5943   -0.0408    0.1816 C   0  0  0  0  0  0  0  0  0  0  0  0
    9.0256    0.1184   -1.0670 C   0  0  0  0  0  0  0  0  0  0  0  0
    7.6647    0.2911   -1.1887 C   0  0  0  0  0  0  0  0  0  0  0  0
    0.1859    0.6546    0.7307 C   0  0  0  0  0  0  0  0  0  0  0  0
   -1.1699    0.8089    0.5789 C   0  0  0  0  0  0  0  0  0  0  0  0
   -4.1014   -1.1414   -0.4175 N   0  0  0  0  0  0  0  0  0  0  0  0
   -7.5896   -1.9031   -1.2243 C   0  0  0  0  0  0  0  0  0  0  0  0
   -8.3529   -2.9492   -1.6930 C   0  0  0  0  0  0  0  0  0  0  0  0
   -8.3554   -4.9750   -2.3663 H   0  0  0  0  0  0  0  0  0  0  0  0
   -5.9309   -5.2587   -2.0749 H   0  0  0  0  0  0  0  0  0  0  0  0
   -4.5685   -3.3841   -1.2363 H   0  0  0  0  0  0  0  0  0  0  0  0
   -7.8333    1.8093   -0.0492 H   0  0  0  0  0  0  0  0  0  0  0  0
   -8.9060    3.9595    0.4981 H   0  0  0  0  0  0  0  0  0  0  0  0
   -7.5452    5.8276    1.3358 H   0  0  0  0  0  0  0  0  0  0  0  0
   -5.1199    5.5485    1.6252 H   0  0  0  0  0  0  0  0  0  0  0  0
   -4.0587    3.3935    1.0744 H   0  0  0  0  0  0  0  0  0  0  0  0
   -1.9797   -2.3284   -0.3334 H   0  0  0  0  0  0  0  0  0  0  0  0
    0.4583   -2.6061   -0.0658 H   0  0  0  0  0  0  0  0  0  0  0  0
    1.3704   -2.9723    2.2122 H   0  0  0  0  0  0  0  0  0  0  0  0
    2.9892   -4.4981    3.2720 H   0  0  0  0  0  0  0  0  0  0  0  0
    5.4065   -4.1295    3.0242 H   0  0  0  0  0  0  0  0  0  0  0  0
    6.2556   -2.2203    1.7115 H   0  0  0  0  0  0  0  0  0  0  0  0
    1.3828    1.8966   -1.3476 H   0  0  0  0  0  0  0  0  0  0  0  0
    2.2363    3.7410   -2.7469 H   0  0  0  0  0  0  0  0  0  0  0  0
    4.6534    4.1206   -2.9735 H   0  0  0  0  0  0  0  0  0  0  0  0
    6.2689    2.6654   -1.8153 H   0  0  0  0  0  0  0  0  0  0  0  0
    6.8082    0.1733    2.0634 H   0  0  0  0  0  0  0  0  0  0  0  0
    9.2412   -0.1477    2.2841 H   0  0  0  0  0  0  0  0  0  0  0  0
   10.6592   -0.1762    0.2755 H   0  0  0  0  0  0  0  0  0  0  0  0
    9.6471    0.1048   -1.9474 H   0  0  0  0  0  0  0  0  0  0  0  0
    7.2110    0.3999   -2.1580 H   0  0  0  0  0  0  0  0  0  0  0  0
    0.8006    1.4819    1.0382 H   0  0  0  0  0  0  0  0  0  0  0  0
   -1.6364    1.7617    0.7554 H   0  0  0  0  0  0  0  0  0  0  0  0
   -8.0425   -0.9578   -0.9834 H   0  0  0  0  0  0  0  0  0  0  0  0
   -9.4155   -2.8250   -1.8212 H   0  0  0  0  0  0  0  0  0  0  0  0
  1  2  2  0  0  0  0
  2  3  1  0  0  0  0
  3  4  2  0  0  0  0
  4  5  1  0  0  0  0
  5  6  2  0  0  0  0
  6  7  1  0  0  0  0
  7  8  1  0  0  0  0
  8  9  2  0  0  0  0
  9 10  1  0  0  0  0
 10 11  2  0  0  0  0
 11 12  1  0  0  0  0
 12 13  2  0  0  0  0
  7 14  2  0  0  0  0
 14 15  1  0  0  0  0
 15 16  1  0  0  0  0
 16 17  2  0  0  0  0
 17 18  1  0  0  0  0
 18 19  2  0  0  0  0
 19 20  1  0  0  0  0
 20 21  1  0  0  0  0
 21 22  2  0  0  0  0
 22 23  1  0  0  0  0
 23 24  2  0  0  0  0
 24 25  1  0  0  0  0
 25 26  2  0  0  0  0
 26 27  1  0  0  0  0
 27 28  2  0  0  0  0
 28 29  1  0  0  0  0
 29 30  2  0  0  0  0
 30 31  1  0  0  0  0
 31 32  2  0  0  0  0
 32 33  1  0  0  0  0
 33 34  2  0  0  0  0
 34 35  1  0  0  0  0
 35 36  1  0  0  0  0
 36 37  2  0  0  0  0
 37 38  1  0  0  0  0
 38 39  2  0  0  0  0
 39 40  1  0  0  0  0
 40 41  2  0  0  0  0
 19 42  1  0  0  0  0
 42 43  2  0  0  0  0
 15 44  2  0  0  0  0
  4 45  1  0  0  0  0
 45 46  2  0  0  0  0
 46  1  1  0  0  0  0
 44  5  1  0  0  0  0
 13  8  1  0  0  0  0
 43 16  1  0  0  0  0
 28 20  1  0  0  0  0
 34 29  1  0  0  0  0
 41 36  1  0  0  0  0
 26 21  1  0  0  0  0
 35 27  1  0  0  0  0
  1 47  1  0  0  0  0
  2 48  1  0  0  0  0
  3 49  1  0  0  0  0
  9 50  1  0  0  0  0
 10 51  1  0  0  0  0
 11 52  1  0  0  0  0
 12 53  1  0  0  0  0
 13 54  1  0  0  0  0
 17 55  1  0  0  0  0
 18 56  1  0  0  0  0
 22 57  1  0  0  0  0
 23 58  1  0  0  0  0
 24 59  1  0  0  0  0
 25 60  1  0  0  0  0
 30 61  1  0  0  0  0
 31 62  1  0  0  0  0
 32 63  1  0  0  0  0
 33 64  1  0  0  0  0
 37 65  1  0  0  0  0
 38 66  1  0  0  0  0
 39 67  1  0  0  0  0
 40 68  1  0  0  0  0
 41 69  1  0  0  0  0
 42 70  1  0  0  0  0
 43 71  1  0  0  0  0
 45 72  1  0  0  0  0
 46 73  1  0  0  0  0
M  END
