
  xtb     03012221243D
 energy: -7.864637535705 gnorm: 0.000235010976 xtb: 6.4.1 (afa7bdf)
 43 45  0     0  0            999 V2000
    7.8000    0.1372   -0.1329 C   0  0  0  0  0  0  0  0  0  0  0  0
    6.7473    1.0173    0.1900 O   0  0  0  0  0  0  0  0  0  0  0  0
    5.4623    0.4910    0.0274 C   0  0  0  0  0  0  0  0  0  0  0  0
    5.1856   -0.8116   -0.4020 C   0  0  0  0  0  0  0  0  0  0  0  0
    3.8924   -1.2403   -0.5332 C   0  0  0  0  0  0  0  0  0  0  0  0
    2.8110   -0.4009   -0.2459 C   0  0  0  0  0  0  0  0  0  0  0  0
    1.4769   -0.9246   -0.4142 C   0  0  0  0  0  0  0  0  0  0  0  0
    0.3308   -0.1825   -0.1698 C   0  0  0  0  0  0  0  0  0  0  0  0
   -0.9163   -0.7752   -0.2842 C   0  0  0  0  0  0  0  0  0  0  0  0
   -2.1519   -0.0952    0.0367 C   0  0  0  0  0  0  0  0  0  0  0  0
   -2.2103    1.2084    0.5348 C   0  0  0  0  0  0  0  0  0  0  0  0
   -3.4259    1.8147    0.8306 C   0  0  0  0  0  0  0  0  0  0  0  0
   -3.3828    3.1206    1.3291 O   0  0  0  0  0  0  0  0  0  0  0  0
   -4.6377    3.6867    1.6053 C   0  0  0  0  0  0  0  0  0  0  0  0
   -4.5977    1.0898    0.6147 C   0  0  0  0  0  0  0  0  0  0  0  0
   -4.5759   -0.2121    0.1163 C   0  0  0  0  0  0  0  0  0  0  0  0
   -5.8063   -0.8501   -0.0668 O   0  0  0  0  0  0  0  0  0  0  0  0
   -5.7228   -2.1421   -0.6113 C   0  0  0  0  0  0  0  0  0  0  0  0
   -3.3436   -0.7885   -0.1645 C   0  0  0  0  0  0  0  0  0  0  0  0
   -1.0175   -2.0699   -0.7065 O   0  0  0  0  0  3  0  0  0  0  0  0
    0.1107   -2.5815   -1.4826 B   0  0  0  0  0  4  0  0  0  0  0  0
    0.0899   -1.9622   -2.7195 F   0  0  0  0  0  0  0  0  0  0  0  0
    0.0132   -3.9506   -1.6255 F   0  0  0  0  0  0  0  0  0  0  0  0
    1.3661   -2.2231   -0.8234 O   0  0  0  0  0  0  0  0  0  0  0  0
    3.0898    0.9039    0.1844 C   0  0  0  0  0  0  0  0  0  0  0  0
    4.3825    1.3335    0.3163 C   0  0  0  0  0  0  0  0  0  0  0  0
    7.7633   -0.7346    0.5176 H   0  0  0  0  0  0  0  0  0  0  0  0
    8.7415    0.6597    0.0247 H   0  0  0  0  0  0  0  0  0  0  0  0
    7.7263   -0.1564   -1.1783 H   0  0  0  0  0  0  0  0  0  0  0  0
    5.9916   -1.4824   -0.6320 H   0  0  0  0  0  0  0  0  0  0  0  0
    3.6759   -2.2430   -0.8676 H   0  0  0  0  0  0  0  0  0  0  0  0
    0.4097    0.8383    0.1427 H   0  0  0  0  0  0  0  0  0  0  0  0
   -1.3152    1.7730    0.7063 H   0  0  0  0  0  0  0  0  0  0  0  0
   -5.1501    3.0978    2.3678 H   0  0  0  0  0  0  0  0  0  0  0  0
   -4.4811    4.6981    1.9835 H   0  0  0  0  0  0  0  0  0  0  0  0
   -5.2304    3.7371    0.6904 H   0  0  0  0  0  0  0  0  0  0  0  0
   -5.5550    1.5226    0.8289 H   0  0  0  0  0  0  0  0  0  0  0  0
   -5.1662   -2.7937    0.0646 H   0  0  0  0  0  0  0  0  0  0  0  0
   -6.7359   -2.5309   -0.7259 H   0  0  0  0  0  0  0  0  0  0  0  0
   -5.2448   -2.1005   -1.5916 H   0  0  0  0  0  0  0  0  0  0  0  0
   -3.2789   -1.7890   -0.5476 H   0  0  0  0  0  0  0  0  0  0  0  0
    2.2820    1.5772    0.4137 H   0  0  0  0  0  0  0  0  0  0  0  0
    4.5976    2.3341    0.6447 H   0  0  0  0  0  0  0  0  0  0  0  0
  1  2  1  0  0  0  0
  2  3  1  0  0  0  0
  3  4  2  0  0  0  0
  4  5  1  0  0  0  0
  5  6  2  0  0  0  0
  6  7  1  0  0  0  0
  7  8  2  0  0  0  0
  8  9  1  0  0  0  0
  9 10  1  0  0  0  0
 10 11  2  0  0  0  0
 11 12  1  0  0  0  0
 12 13  1  0  0  0  0
 13 14  1  0  0  0  0
 12 15  2  0  0  0  0
 15 16  1  0  0  0  0
 16 17  1  0  0  0  0
 17 18  1  0  0  0  0
 16 19  2  0  0  0  0
  9 20  2  0  0  0  0
 20 21  1  0  0  0  0
 21 22  1  0  0  0  0
 21 23  1  0  0  0  0
 21 24  1  0  0  0  0
  6 25  1  0  0  0  0
 25 26  2  0  0  0  0
 26  3  1  0  0  0  0
 24  7  1  0  0  0  0
 19 10  1  0  0  0  0
  1 27  1  0  0  0  0
  1 28  1  0  0  0  0
  1 29  1  0  0  0  0
  4 30  1  0  0  0  0
  5 31  1  0  0  0  0
  8 32  1  0  0  0  0
 11 33  1  0  0  0  0
 14 34  1  0  0  0  0
 14 35  1  0  0  0  0
 14 36  1  0  0  0  0
 15 37  1  0  0  0  0
 18 38  1  0  0  0  0
 18 39  1  0  0  0  0
 18 40  1  0  0  0  0
 19 41  1  0  0  0  0
 25 42  1  0  0  0  0
 26 43  1  0  0  0  0
M  CHG  1  20   1
M  CHG  1  21  -1
M  END
