
  xtb     03012221243D
 energy: -5.615668558000 gnorm: 0.000141559360 xtb: 6.4.1 (afa7bdf)
 26 28  0     0  0            999 V2000
    0.8169    3.0417    0.7053 O   0  0  0  0  0  0  0  0  0  0  0  0
   -0.1064    2.2599    0.8518 C   0  0  0  0  0  0  0  0  0  0  0  0
   -1.2232    2.6452    1.5204 O   0  0  0  0  0  0  0  0  0  0  0  0
   -0.0256    0.8788    0.3207 C   0  0  0  0  0  0  0  0  0  0  0  0
   -1.1745    0.0968    0.1004 C   0  0  0  0  0  0  0  0  0  0  0  0
   -2.4862    0.5670    0.3515 C   0  0  0  0  0  0  0  0  0  0  0  0
   -3.5795   -0.2023    0.1136 C   0  0  0  0  0  0  0  0  0  0  0  0
   -3.4305   -1.4983   -0.3913 C   0  0  0  0  0  0  0  0  0  0  0  0
   -2.1908   -1.9921   -0.6460 C   0  0  0  0  0  0  0  0  0  0  0  0
   -1.0262   -1.2230   -0.4149 C   0  0  0  0  0  0  0  0  0  0  0  0
    0.1605   -1.7804   -0.6968 N   0  0  0  0  0  0  0  0  0  0  0  0
    1.2564   -1.0377   -0.4848 C   0  0  0  0  0  0  0  0  0  0  0  0
    2.5166   -1.6135   -0.7703 C   0  0  0  0  0  0  0  0  0  0  0  0
    3.6723   -0.9249   -0.5790 C   0  0  0  0  0  0  0  0  0  0  0  0
    3.6365    0.3865   -0.0925 C   0  0  0  0  0  0  0  0  0  0  0  0
    2.4466    0.9752    0.1921 C   0  0  0  0  0  0  0  0  0  0  0  0
    1.2173    0.2953    0.0134 C   0  0  0  0  0  0  0  0  0  0  0  0
   -1.0703    3.5701    1.7976 H   0  0  0  0  0  0  0  0  0  0  0  0
   -2.6094    1.5565    0.7495 H   0  0  0  0  0  0  0  0  0  0  0  0
   -4.5656    0.1814    0.3168 H   0  0  0  0  0  0  0  0  0  0  0  0
   -4.3024   -2.1035   -0.5762 H   0  0  0  0  0  0  0  0  0  0  0  0
   -2.0675   -2.9878   -1.0347 H   0  0  0  0  0  0  0  0  0  0  0  0
    2.5361   -2.6216   -1.1458 H   0  0  0  0  0  0  0  0  0  0  0  0
    4.6199   -1.3857   -0.8036 H   0  0  0  0  0  0  0  0  0  0  0  0
    4.5563    0.9286    0.0515 H   0  0  0  0  0  0  0  0  0  0  0  0
    2.4225    1.9879    0.5512 H   0  0  0  0  0  0  0  0  0  0  0  0
  1  2  2  0  0  0  0
  2  3  1  0  0  0  0
  2  4  1  0  0  0  0
  4  5  2  0  0  0  0
  5  6  1  0  0  0  0
  6  7  2  0  0  0  0
  7  8  1  0  0  0  0
  8  9  2  0  0  0  0
  9 10  1  0  0  0  0
 10 11  2  0  0  0  0
 11 12  1  0  0  0  0
 12 13  2  0  0  0  0
 13 14  1  0  0  0  0
 14 15  2  0  0  0  0
 15 16  1  0  0  0  0
 16 17  2  0  0  0  0
 17  4  1  0  0  0  0
 10  5  1  0  0  0  0
 17 12  1  0  0  0  0
  3 18  1  0  0  0  0
  6 19  1  0  0  0  0
  7 20  1  0  0  0  0
  8 21  1  0  0  0  0
  9 22  1  0  0  0  0
 13 23  1  0  0  0  0
 14 24  1  0  0  0  0
 15 25  1  0  0  0  0
 16 26  1  0  0  0  0
M  END
