
  xtb     03012221293D
 energy: -5.566814702843 gnorm: 0.000413200138 xtb: 6.4.1 (afa7bdf)
 28 29  0     0  0            999 V2000
    4.6364    1.4803    1.2426 C   0  0  0  0  0  0  0  0  0  0  0  0
    3.7715    0.7184    0.2616 C   0  0  0  0  0  0  0  0  0  0  0  0
    2.4168    0.7373    0.6326 O   0  0  0  0  0  0  0  0  0  0  0  0
    1.6755    0.0652   -0.2983 C   0  0  0  0  0  0  0  0  0  0  0  0
    2.1501   -0.4596   -1.2908 O   0  0  0  0  0  0  0  0  0  0  0  0
    0.2319   -0.0053   -0.0528 C   0  0  0  0  0  0  0  0  0  0  0  0
   -0.4607    0.5340    1.0276 C   0  0  0  0  0  0  0  0  0  0  0  0
   -1.7995    0.2461    0.8791 C   0  0  0  0  0  0  0  0  0  0  0  0
   -2.8582    0.6411    1.8049 C   0  0  0  0  0  0  0  0  0  0  0  0
   -4.1386    0.2761    1.5012 N   0  0  0  0  0  0  0  0  0  0  0  0
   -2.5805    1.2774    2.8112 O   0  0  0  0  0  0  0  0  0  0  0  0
   -1.9646   -0.4837   -0.3031 N   0  0  0  0  0  0  0  0  0  0  0  0
   -3.1009   -0.9679   -0.8299 N   0  0  0  0  0  0  0  0  0  0  0  0
   -2.9480   -1.6127   -1.9487 C   0  0  0  0  0  0  0  0  0  0  0  0
   -1.7301   -1.8235   -2.6069 C   0  0  0  0  0  0  0  0  0  0  0  0
   -0.5835   -1.3348   -2.0744 C   0  0  0  0  0  0  0  0  0  0  0  0
   -0.7133   -0.6381   -0.8750 C   0  0  0  0  0  0  0  0  0  0  0  0
    4.5465    1.0540    2.2429 H   0  0  0  0  0  0  0  0  0  0  0  0
    5.6912    1.4669    0.9607 H   0  0  0  0  0  0  0  0  0  0  0  0
    4.3151    2.5208    1.3078 H   0  0  0  0  0  0  0  0  0  0  0  0
    4.0688   -0.3367    0.1880 H   0  0  0  0  0  0  0  0  0  0  0  0
    3.8333    1.1409   -0.7508 H   0  0  0  0  0  0  0  0  0  0  0  0
   -0.0270    1.0853    1.8456 H   0  0  0  0  0  0  0  0  0  0  0  0
   -4.9056    0.5183    2.1072 H   0  0  0  0  0  0  0  0  0  0  0  0
   -4.3574   -0.2565    0.6673 H   0  0  0  0  0  0  0  0  0  0  0  0
   -3.8487   -2.0107   -2.3896 H   0  0  0  0  0  0  0  0  0  0  0  0
   -1.7061   -2.3726   -3.5334 H   0  0  0  0  0  0  0  0  0  0  0  0
    0.3853   -1.4600   -2.5265 H   0  0  0  0  0  0  0  0  0  0  0  0
  1  2  1  0  0  0  0
  2  3  1  0  0  0  0
  3  4  1  0  0  0  0
  4  5  2  0  0  0  0
  4  6  1  0  0  0  0
  6  7  1  0  0  0  0
  7  8  2  0  0  0  0
  8  9  1  0  0  0  0
  9 10  1  0  0  0  0
  9 11  2  0  0  0  0
  8 12  1  0  0  0  0
 12 13  1  0  0  0  0
 13 14  2  0  0  0  0
 14 15  1  0  0  0  0
 15 16  2  0  0  0  0
 16 17  1  0  0  0  0
 17  6  2  0  0  0  0
 17 12  1  0  0  0  0
  1 18  1  0  0  0  0
  1 19  1  0  0  0  0
  1 20  1  0  0  0  0
  2 21  1  0  0  0  0
  2 22  1  0  0  0  0
  7 23  1  0  0  0  0
 10 24  1  0  0  0  0
 10 25  1  0  0  0  0
 14 26  1  0  0  0  0
 15 27  1  0  0  0  0
 16 28  1  0  0  0  0
M  END
