
  xtb     03012221323D
 energy: -16.103862166401 gnorm: 0.000238588634 xtb: 6.4.1 (afa7bdf)
 80 84  0     0  0            999 V2000
    6.9967   -3.2953   -2.3853 C   0  0  0  0  0  0  0  0  0  0  0  0
    5.6756   -2.6725   -2.6753 C   0  0  0  0  0  0  0  0  0  0  0  0
    5.4844   -1.9126   -3.8194 C   0  0  0  0  0  0  0  0  0  0  0  0
    4.2700   -1.3100   -4.0731 C   0  0  0  0  0  0  0  0  0  0  0  0
    3.2168   -1.4455   -3.1844 C   0  0  0  0  0  0  0  0  0  0  0  0
    1.9124   -0.7559   -3.4167 C   0  0  0  0  0  0  0  0  0  0  0  0
    1.6534    0.3283   -2.4572 N   0  0  0  0  0  0  0  0  0  0  0  0
    2.5408    1.5080   -2.5536 C   0  0  0  0  0  0  0  0  0  0  0  0
    3.4415    1.6668   -1.3693 C   0  0  0  0  0  0  0  0  0  0  0  0
    4.5361    0.8384   -1.2007 C   0  0  0  0  0  0  0  0  0  0  0  0
    5.3505    0.9553   -0.0952 C   0  0  0  0  0  0  0  0  0  0  0  0
    5.0879    1.9051    0.8794 C   0  0  0  0  0  0  0  0  0  0  0  0
    5.9764    2.0452    2.0663 C   0  0  0  0  0  0  0  0  0  0  0  0
    3.9974    2.7430    0.7067 C   0  0  0  0  0  0  0  0  0  0  0  0
    3.1847    2.6208   -0.3990 C   0  0  0  0  0  0  0  0  0  0  0  0
    0.8882    0.0302   -1.2941 C   0  0  0  0  0  0  0  0  0  0  0  0
    0.8623   -1.2388   -0.9002 N   0  0  0  0  0  0  0  0  0  0  0  0
    0.1851   -1.4836    0.2123 C   0  0  0  0  0  0  0  0  0  0  0  0
    0.1999   -2.7916    0.7123 C   0  0  0  0  0  0  0  0  0  0  0  0
    0.1791   -3.8706    1.1467 N   0  0  0  0  0  0  0  0  0  0  0  0
   -0.5046   -0.4778    0.9137 C   0  0  0  0  0  0  0  0  0  0  0  0
   -1.2909   -0.7912    2.0598 N   0  0  0  0  0  0  0  0  0  0  0  0
   -2.2530   -1.9160    2.0592 C   0  0  0  0  0  0  0  0  0  0  0  0
   -3.5278   -1.5883    1.3561 C   0  0  0  0  0  0  0  0  0  0  0  0
   -3.5040   -1.0480    0.0827 C   0  0  0  0  0  0  0  0  0  0  0  0
   -4.6720   -0.6935   -0.5568 C   0  0  0  0  0  0  0  0  0  0  0  0
   -5.8986   -0.8698    0.0636 C   0  0  0  0  0  0  0  0  0  0  0  0
   -7.1591   -0.4852   -0.6294 C   0  0  0  0  0  0  0  0  0  0  0  0
   -5.9242   -1.4353    1.3292 C   0  0  0  0  0  0  0  0  0  0  0  0
   -4.7543   -1.7905    1.9666 C   0  0  0  0  0  0  0  0  0  0  0  0
   -1.5568    0.2797    3.0337 C   0  0  0  0  0  0  0  0  0  0  0  0
   -2.8540    0.9865    2.8042 C   0  0  0  0  0  0  0  0  0  0  0  0
   -3.9044    0.8675    3.6987 C   0  0  0  0  0  0  0  0  0  0  0  0
   -5.1176    1.4714    3.4425 C   0  0  0  0  0  0  0  0  0  0  0  0
   -5.3110    2.2161    2.2889 C   0  0  0  0  0  0  0  0  0  0  0  0
   -6.6363    2.8248    1.9896 C   0  0  0  0  0  0  0  0  0  0  0  0
   -4.2585    2.3351    1.3952 C   0  0  0  0  0  0  0  0  0  0  0  0
   -3.0491    1.7297    1.6542 C   0  0  0  0  0  0  0  0  0  0  0  0
   -0.4857    0.7896    0.5163 N   0  0  0  0  0  0  0  0  0  0  0  0
    0.1952    1.0360   -0.5943 C   0  0  0  0  0  0  0  0  0  0  0  0
    0.1763    2.3484   -1.0825 C   0  0  0  0  0  0  0  0  0  0  0  0
    0.1993    3.4414   -1.4803 N   0  0  0  0  0  0  0  0  0  0  0  0
    3.4127   -2.1943   -2.0379 C   0  0  0  0  0  0  0  0  0  0  0  0
    4.6225   -2.8009   -1.7834 C   0  0  0  0  0  0  0  0  0  0  0  0
    7.5301   -3.5349   -3.3060 H   0  0  0  0  0  0  0  0  0  0  0  0
    7.6221   -2.6205   -1.7993 H   0  0  0  0  0  0  0  0  0  0  0  0
    6.8792   -4.2211   -1.8207 H   0  0  0  0  0  0  0  0  0  0  0  0
    6.2998   -1.7938   -4.5125 H   0  0  0  0  0  0  0  0  0  0  0  0
    4.1354   -0.7191   -4.9634 H   0  0  0  0  0  0  0  0  0  0  0  0
    1.8667   -0.3456   -4.4275 H   0  0  0  0  0  0  0  0  0  0  0  0
    1.0960   -1.4773   -3.3375 H   0  0  0  0  0  0  0  0  0  0  0  0
    1.9211    2.3966   -2.6863 H   0  0  0  0  0  0  0  0  0  0  0  0
    3.1425    1.4225   -3.4605 H   0  0  0  0  0  0  0  0  0  0  0  0
    4.7427    0.0877   -1.9421 H   0  0  0  0  0  0  0  0  0  0  0  0
    6.1982    0.3017    0.0213 H   0  0  0  0  0  0  0  0  0  0  0  0
    6.7809    2.7541    1.8665 H   0  0  0  0  0  0  0  0  0  0  0  0
    6.4282    1.0893    2.3346 H   0  0  0  0  0  0  0  0  0  0  0  0
    5.4200    2.4023    2.9338 H   0  0  0  0  0  0  0  0  0  0  0  0
    3.7848    3.4902    1.4522 H   0  0  0  0  0  0  0  0  0  0  0  0
    2.3284    3.2637   -0.5083 H   0  0  0  0  0  0  0  0  0  0  0  0
   -2.4477   -2.2020    3.0945 H   0  0  0  0  0  0  0  0  0  0  0  0
   -1.7989   -2.7825    1.5799 H   0  0  0  0  0  0  0  0  0  0  0  0
   -2.5545   -0.8786   -0.3954 H   0  0  0  0  0  0  0  0  0  0  0  0
   -4.6383   -0.2639   -1.5434 H   0  0  0  0  0  0  0  0  0  0  0  0
   -7.0339    0.4492   -1.1782 H   0  0  0  0  0  0  0  0  0  0  0  0
   -7.9746   -0.3445    0.0814 H   0  0  0  0  0  0  0  0  0  0  0  0
   -7.4613   -1.2559   -1.3397 H   0  0  0  0  0  0  0  0  0  0  0  0
   -6.8715   -1.5893    1.8172 H   0  0  0  0  0  0  0  0  0  0  0  0
   -4.7858   -2.2149    2.9559 H   0  0  0  0  0  0  0  0  0  0  0  0
   -0.7339    0.9959    2.9776 H   0  0  0  0  0  0  0  0  0  0  0  0
   -1.5263   -0.1504    4.0367 H   0  0  0  0  0  0  0  0  0  0  0  0
   -3.7712    0.2800    4.5914 H   0  0  0  0  0  0  0  0  0  0  0  0
   -5.9330    1.3583    4.1363 H   0  0  0  0  0  0  0  0  0  0  0  0
   -7.2744    2.1182    1.4574 H   0  0  0  0  0  0  0  0  0  0  0  0
   -7.1502    3.1190    2.9056 H   0  0  0  0  0  0  0  0  0  0  0  0
   -6.5295    3.7154    1.3691 H   0  0  0  0  0  0  0  0  0  0  0  0
   -4.3990    2.8929    0.4852 H   0  0  0  0  0  0  0  0  0  0  0  0
   -2.2478    1.7955    0.9406 H   0  0  0  0  0  0  0  0  0  0  0  0
    2.6109   -2.2676   -1.3255 H   0  0  0  0  0  0  0  0  0  0  0  0
    4.7615   -3.3706   -0.8805 H   0  0  0  0  0  0  0  0  0  0  0  0
  1  2  1  0  0  0  0
  2  3  2  0  0  0  0
  3  4  1  0  0  0  0
  4  5  2  0  0  0  0
  5  6  1  0  0  0  0
  6  7  1  0  0  0  0
  7  8  1  0  0  0  0
  8  9  1  0  0  0  0
  9 10  2  0  0  0  0
 10 11  1  0  0  0  0
 11 12  2  0  0  0  0
 12 13  1  0  0  0  0
 12 14  1  0  0  0  0
 14 15  2  0  0  0  0
  7 16  1  0  0  0  0
 16 17  2  0  0  0  0
 17 18  1  0  0  0  0
 18 19  1  0  0  0  0
 19 20  3  0  0  0  0
 18 21  2  0  0  0  0
 21 22  1  0  0  0  0
 22 23  1  0  0  0  0
 23 24  1  0  0  0  0
 24 25  2  0  0  0  0
 25 26  1  0  0  0  0
 26 27  2  0  0  0  0
 27 28  1  0  0  0  0
 27 29  1  0  0  0  0
 29 30  2  0  0  0  0
 22 31  1  0  0  0  0
 31 32  1  0  0  0  0
 32 33  2  0  0  0  0
 33 34  1  0  0  0  0
 34 35  2  0  0  0  0
 35 36  1  0  0  0  0
 35 37  1  0  0  0  0
 37 38  2  0  0  0  0
 21 39  1  0  0  0  0
 39 40  2  0  0  0  0
 40 41  1  0  0  0  0
 41 42  3  0  0  0  0
  5 43  1  0  0  0  0
 43 44  2  0  0  0  0
 44  2  1  0  0  0  0
 15  9  1  0  0  0  0
 40 16  1  0  0  0  0
 30 24  1  0  0  0  0
 38 32  1  0  0  0  0
  1 45  1  0  0  0  0
  1 46  1  0  0  0  0
  1 47  1  0  0  0  0
  3 48  1  0  0  0  0
  4 49  1  0  0  0  0
  6 50  1  0  0  0  0
  6 51  1  0  0  0  0
  8 52  1  0  0  0  0
  8 53  1  0  0  0  0
 10 54  1  0  0  0  0
 11 55  1  0  0  0  0
 13 56  1  0  0  0  0
 13 57  1  0  0  0  0
 13 58  1  0  0  0  0
 14 59  1  0  0  0  0
 15 60  1  0  0  0  0
 23 61  1  0  0  0  0
 23 62  1  0  0  0  0
 25 63  1  0  0  0  0
 26 64  1  0  0  0  0
 28 65  1  0  0  0  0
 28 66  1  0  0  0  0
 28 67  1  0  0  0  0
 29 68  1  0  0  0  0
 30 69  1  0  0  0  0
 31 70  1  0  0  0  0
 31 71  1  0  0  0  0
 33 72  1  0  0  0  0
 34 73  1  0  0  0  0
 36 74  1  0  0  0  0
 36 75  1  0  0  0  0
 36 76  1  0  0  0  0
 37 77  1  0  0  0  0
 38 78  1  0  0  0  0
 43 79  1  0  0  0  0
 44 80  1  0  0  0  0
M  END
