
  xtb     03012221293D
 energy: -1.928182251550 gnorm: 0.000328121893 xtb: 6.4.1 (afa7bdf)
  9  9  0     0  0            999 V2000
    1.1253   -0.5530   -0.6070 C   0  0  0  0  0  0  0  0  0  0  0  0
    0.0779   -1.3367   -0.6606 N   0  0  0  0  0  0  0  0  0  0  0  0
   -1.0525   -0.6937   -0.5098 C   0  0  0  0  0  0  0  0  0  0  0  0
   -1.2062    0.5928   -0.3213 N   0  0  0  0  0  0  0  0  0  0  0  0
   -0.0724    1.2468   -0.2905 C   0  0  0  0  0  0  0  0  0  0  0  0
    1.1288    0.7436   -0.4255 N   0  0  0  0  0  0  0  0  0  0  0  0
    2.0916   -1.0282   -0.7254 H   0  0  0  0  0  0  0  0  0  0  0  0
   -1.9568   -1.2889   -0.5447 H   0  0  0  0  0  0  0  0  0  0  0  0
   -0.1356    2.3172   -0.1372 H   0  0  0  0  0  0  0  0  0  0  0  0
  1  2  2  0  0  0  0
  2  3  1  0  0  0  0
  3  4  2  0  0  0  0
  4  5  1  0  0  0  0
  5  6  2  0  0  0  0
  6  1  1  0  0  0  0
  1  7  1  0  0  0  0
  3  8  1  0  0  0  0
  5  9  1  0  0  0  0
M  END
