
  xtb     03012221263D
 energy: -9.225184515051 gnorm: 0.000296791543 xtb: 6.4.1 (afa7bdf)
 43 46  0     0  0            999 V2000
    2.9554   -3.5770   -2.7247 N   0  0  0  0  0  0  0  0  0  0  0  0
    2.2611   -2.8032   -2.2024 C   0  0  0  0  0  0  0  0  0  0  0  0
    1.4543   -1.8845   -1.5234 C   0  0  0  0  0  0  0  0  0  0  0  0
    0.5605   -1.0891   -2.0800 N   0  0  0  0  0  0  0  0  0  0  0  0
    0.0331   -0.3387   -1.0730 C   0  0  0  0  0  0  0  0  0  0  0  0
   -0.9374    0.6876   -1.0745 C   0  0  0  0  0  0  0  0  0  0  0  0
   -1.5390    1.0388   -2.2672 O   0  0  0  0  0  0  0  0  0  0  0  0
   -2.5905    1.9648   -2.0650 C   0  0  0  0  0  0  0  0  0  0  0  0
   -3.7962    1.3472   -1.4248 C   0  0  0  0  0  0  0  0  0  0  0  0
   -4.7099    2.1204   -0.7288 C   0  0  0  0  0  0  0  0  0  0  0  0
   -5.8139    1.5364   -0.1459 C   0  0  0  0  0  0  0  0  0  0  0  0
   -6.0190    0.1780   -0.2540 C   0  0  0  0  0  0  0  0  0  0  0  0
   -5.1160   -0.5968   -0.9487 C   0  0  0  0  0  0  0  0  0  0  0  0
   -4.0123   -0.0141   -1.5326 C   0  0  0  0  0  0  0  0  0  0  0  0
   -1.2399    1.2737    0.0700 N   0  0  0  0  0  0  0  0  0  0  0  0
   -0.6015    0.8663    1.1947 C   0  0  0  0  0  0  0  0  0  0  0  0
   -0.9530    1.5285    2.3630 N   0  0  0  0  0  0  0  0  0  0  0  0
    0.3250   -0.0781    1.3048 N   0  0  0  0  0  0  0  0  0  0  0  0
    0.6121   -0.6791    0.1501 C   0  0  0  0  0  0  0  0  0  0  0  0
    1.5125   -1.6824   -0.1407 N   0  0  0  0  0  0  0  0  0  0  0  0
    2.4437   -2.2969    0.8062 C   0  0  0  0  0  0  0  0  0  0  0  0
    3.6381   -1.4341    1.0460 C   0  0  0  0  0  0  0  0  0  0  0  0
    3.4676   -0.1408    1.5073 C   0  0  0  0  0  0  0  0  0  0  0  0
    4.5527    0.6763    1.7273 C   0  0  0  0  0  0  0  0  0  0  0  0
    5.8258    0.2118    1.4841 C   0  0  0  0  0  0  0  0  0  0  0  0
    6.0073   -1.0708    1.0160 C   0  0  0  0  0  0  0  0  0  0  0  0
    4.9218   -1.8909    0.7958 C   0  0  0  0  0  0  0  0  0  0  0  0
   -2.8508    2.3781   -3.0456 H   0  0  0  0  0  0  0  0  0  0  0  0
   -2.1967    2.7830   -1.4513 H   0  0  0  0  0  0  0  0  0  0  0  0
   -4.5461    3.1801   -0.6426 H   0  0  0  0  0  0  0  0  0  0  0  0
   -6.5189    2.1453    0.3988 H   0  0  0  0  0  0  0  0  0  0  0  0
   -6.8811   -0.2769    0.2045 H   0  0  0  0  0  0  0  0  0  0  0  0
   -5.2698   -1.6615   -1.0329 H   0  0  0  0  0  0  0  0  0  0  0  0
   -3.2916   -0.6103   -2.0648 H   0  0  0  0  0  0  0  0  0  0  0  0
   -1.5240    2.3600    2.3419 H   0  0  0  0  0  0  0  0  0  0  0  0
   -0.4299    1.4042    3.2169 H   0  0  0  0  0  0  0  0  0  0  0  0
    2.7403   -3.2745    0.4165 H   0  0  0  0  0  0  0  0  0  0  0  0
    1.9107   -2.4720    1.7447 H   0  0  0  0  0  0  0  0  0  0  0  0
    2.4688    0.2239    1.6646 H   0  0  0  0  0  0  0  0  0  0  0  0
    4.4036    1.6844    2.0828 H   0  0  0  0  0  0  0  0  0  0  0  0
    6.6760    0.8512    1.6527 H   0  0  0  0  0  0  0  0  0  0  0  0
    7.0035   -1.4351    0.8162 H   0  0  0  0  0  0  0  0  0  0  0  0
    5.0636   -2.8882    0.4182 H   0  0  0  0  0  0  0  0  0  0  0  0
  1  2  3  0  0  0  0
  2  3  1  0  0  0  0
  3  4  2  0  0  0  0
  4  5  1  0  0  0  0
  5  6  2  0  0  0  0
  6  7  1  0  0  0  0
  7  8  1  0  0  0  0
  8  9  1  0  0  0  0
  9 10  2  0  0  0  0
 10 11  1  0  0  0  0
 11 12  2  0  0  0  0
 12 13  1  0  0  0  0
 13 14  2  0  0  0  0
  6 15  1  0  0  0  0
 15 16  2  0  0  0  0
 16 17  1  0  0  0  0
 16 18  1  0  0  0  0
 18 19  2  0  0  0  0
 19 20  1  0  0  0  0
 20 21  1  0  0  0  0
 21 22  1  0  0  0  0
 22 23  2  0  0  0  0
 23 24  1  0  0  0  0
 24 25  2  0  0  0  0
 25 26  1  0  0  0  0
 26 27  2  0  0  0  0
 20  3  1  0  0  0  0
 27 22  1  0  0  0  0
 19  5  1  0  0  0  0
 14  9  1  0  0  0  0
  8 28  1  0  0  0  0
  8 29  1  0  0  0  0
 10 30  1  0  0  0  0
 11 31  1  0  0  0  0
 12 32  1  0  0  0  0
 13 33  1  0  0  0  0
 14 34  1  0  0  0  0
 17 35  1  0  0  0  0
 17 36  1  0  0  0  0
 21 37  1  0  0  0  0
 21 38  1  0  0  0  0
 23 39  1  0  0  0  0
 24 40  1  0  0  0  0
 25 41  1  0  0  0  0
 26 42  1  0  0  0  0
 27 43  1  0  0  0  0
M  END
