
  xtb     03012221293D
 energy: -16.902801281484 gnorm: 0.000187383359 xtb: 6.4.1 (afa7bdf)
 86 92  0     0  0            999 V2000
   -1.0818    4.5380   -3.1755 C   0  0  0  0  0  0  0  0  0  0  0  0
   -0.3825    3.1901   -3.2200 C   0  0  0  0  0  0  0  0  0  0  0  0
    0.4744    2.9267   -1.9837 C   0  0  0  0  0  0  0  0  0  0  0  0
    1.1334    1.5532   -2.0125 C   0  0  0  0  0  0  0  0  0  0  0  0
    1.7203    1.1761   -0.7684 O   0  0  0  0  0  0  0  0  0  0  0  0
    0.8505    0.5785    0.1467 C   0  0  0  0  0  0  0  0  0  0  0  0
   -0.5280    0.6448    0.0420 C   0  0  0  0  0  0  0  0  0  0  0  0
   -1.3864    0.0996    0.9955 C   0  0  0  0  0  0  0  0  0  0  0  0
   -2.8082    0.1855    0.8501 C   0  0  0  0  0  0  0  0  0  0  0  0
   -3.5081    0.3501   -0.3246 C   0  0  0  0  0  0  0  0  0  0  0  0
   -3.0773    0.1128   -1.7055 C   0  0  0  0  0  0  0  0  0  0  0  0
   -1.9529   -0.5187   -2.2371 C   0  0  0  0  0  0  0  0  0  0  0  0
   -1.8174   -0.6192   -3.6032 C   0  0  0  0  0  0  0  0  0  0  0  0
   -2.7994   -0.1287   -4.4565 C   0  0  0  0  0  0  0  0  0  0  0  0
   -3.9454    0.4452   -3.9517 C   0  0  0  0  0  0  0  0  0  0  0  0
   -4.0915    0.5546   -2.5733 C   0  0  0  0  0  0  0  0  0  0  0  0
   -5.2146    1.0127   -1.7670 C   0  0  0  0  0  0  0  0  0  0  0  0
   -6.4602    1.5123   -2.1285 C   0  0  0  0  0  0  0  0  0  0  0  0
   -7.3520    1.8542   -1.1355 C   0  0  0  0  0  0  0  0  0  0  0  0
   -7.0162    1.7035    0.2067 C   0  0  0  0  0  0  0  0  0  0  0  0
   -5.7862    1.2080    0.5786 C   0  0  0  0  0  0  0  0  0  0  0  0
   -4.8765    0.8513   -0.4137 C   0  0  0  0  0  0  0  0  0  0  0  0
   -0.8315   -0.4608    2.1833 C   0  0  0  0  0  0  0  0  0  0  0  0
   -1.7255   -0.8907    3.1583 O   0  0  0  0  0  0  0  0  0  0  0  0
   -1.1219   -1.4137    4.3367 C   0  0  0  0  0  0  0  0  0  0  0  0
   -2.1613   -1.8080    5.3755 C   0  0  0  0  0  0  0  0  0  0  0  0
   -1.5565   -2.4167    6.6419 C   0  0  0  0  0  0  0  0  0  0  0  0
   -0.7034   -1.4371    7.4321 C   0  0  0  0  0  0  0  0  0  0  0  0
    0.5540   -0.5591    2.2781 C   0  0  0  0  0  0  0  0  0  0  0  0
    1.4061   -0.1175    1.2665 C   0  0  0  0  0  0  0  0  0  0  0  0
    2.8280   -0.3969    1.3479 C   0  0  0  0  0  0  0  0  0  0  0  0
    3.6220   -0.8397    0.3207 C   0  0  0  0  0  0  0  0  0  0  0  0
    3.0433   -1.2797   -0.9665 C   0  0  0  0  0  0  0  0  0  0  0  0
    1.9270   -2.1201   -0.9653 C   0  0  0  0  0  0  0  0  0  0  0  0
    1.3210   -2.5121   -2.1347 C   0  0  0  0  0  0  0  0  0  0  0  0
    1.8171   -2.0741   -3.3458 C   0  0  0  0  0  0  0  0  0  0  0  0
    2.9189   -1.2518   -3.3771 C   0  0  0  0  0  0  0  0  0  0  0  0
    3.5636   -0.8467   -2.2063 C   0  0  0  0  0  0  0  0  0  0  0  0
    4.6850    0.0744   -2.3189 C   0  0  0  0  0  0  0  0  0  0  0  0
    5.7512    0.1836   -1.5061 C   0  0  0  0  0  0  0  0  0  0  0  0
    6.0525   -0.5939   -0.3121 C   0  0  0  0  0  0  0  0  0  0  0  0
    7.3924   -0.8145    0.0133 C   0  0  0  0  0  0  0  0  0  0  0  0
    7.7542   -1.4979    1.1504 C   0  0  0  0  0  0  0  0  0  0  0  0
    6.7808   -1.9735    2.0059 C   0  0  0  0  0  0  0  0  0  0  0  0
    5.4535   -1.7589    1.7206 C   0  0  0  0  0  0  0  0  0  0  0  0
    5.0581   -1.0710    0.5708 C   0  0  0  0  0  0  0  0  0  0  0  0
   -1.6904    4.7141   -4.0650 H   0  0  0  0  0  0  0  0  0  0  0  0
   -0.3610    5.3542   -3.1028 H   0  0  0  0  0  0  0  0  0  0  0  0
   -1.7401    4.6113   -2.3080 H   0  0  0  0  0  0  0  0  0  0  0  0
    0.2442    3.1137   -4.1193 H   0  0  0  0  0  0  0  0  0  0  0  0
   -1.1245    2.3857   -3.3234 H   0  0  0  0  0  0  0  0  0  0  0  0
   -0.1373    3.0280   -1.0812 H   0  0  0  0  0  0  0  0  0  0  0  0
    1.2438    3.7004   -1.8808 H   0  0  0  0  0  0  0  0  0  0  0  0
    1.9327    1.5312   -2.7621 H   0  0  0  0  0  0  0  0  0  0  0  0
    0.4306    0.7695   -2.3124 H   0  0  0  0  0  0  0  0  0  0  0  0
   -0.9686    1.1671   -0.7827 H   0  0  0  0  0  0  0  0  0  0  0  0
   -3.3733    0.1625    1.7669 H   0  0  0  0  0  0  0  0  0  0  0  0
   -1.2176   -0.9515   -1.5833 H   0  0  0  0  0  0  0  0  0  0  0  0
   -0.9404   -1.0909   -4.0159 H   0  0  0  0  0  0  0  0  0  0  0  0
   -2.6720   -0.2185   -5.5232 H   0  0  0  0  0  0  0  0  0  0  0  0
   -4.7282    0.7944   -4.6025 H   0  0  0  0  0  0  0  0  0  0  0  0
   -6.7121    1.6237   -3.1689 H   0  0  0  0  0  0  0  0  0  0  0  0
   -8.3216    2.2434   -1.4010 H   0  0  0  0  0  0  0  0  0  0  0  0
   -7.7292    1.9806    0.9666 H   0  0  0  0  0  0  0  0  0  0  0  0
   -5.5224    1.0975    1.6153 H   0  0  0  0  0  0  0  0  0  0  0  0
   -0.5181   -2.2825    4.0529 H   0  0  0  0  0  0  0  0  0  0  0  0
   -0.4468   -0.6494    4.7355 H   0  0  0  0  0  0  0  0  0  0  0  0
   -2.7593   -0.9267    5.6332 H   0  0  0  0  0  0  0  0  0  0  0  0
   -2.8672   -2.5082    4.9123 H   0  0  0  0  0  0  0  0  0  0  0  0
   -2.3604   -2.8054    7.2841 H   0  0  0  0  0  0  0  0  0  0  0  0
   -0.9594   -3.2978    6.3688 H   0  0  0  0  0  0  0  0  0  0  0  0
   -0.3194   -1.8798    8.3537 H   0  0  0  0  0  0  0  0  0  0  0  0
   -1.2760   -0.5502    7.7086 H   0  0  0  0  0  0  0  0  0  0  0  0
    0.1573   -1.0977    6.8540 H   0  0  0  0  0  0  0  0  0  0  0  0
    0.9951   -1.0377    3.1311 H   0  0  0  0  0  0  0  0  0  0  0  0
    3.2914   -0.2823    2.3143 H   0  0  0  0  0  0  0  0  0  0  0  0
    1.5322   -2.4523   -0.0208 H   0  0  0  0  0  0  0  0  0  0  0  0
    0.4566   -3.1561   -2.1058 H   0  0  0  0  0  0  0  0  0  0  0  0
    1.3427   -2.3774   -4.2651 H   0  0  0  0  0  0  0  0  0  0  0  0
    3.3003   -0.9068   -4.3236 H   0  0  0  0  0  0  0  0  0  0  0  0
    4.6699    0.7001   -3.1980 H   0  0  0  0  0  0  0  0  0  0  0  0
    6.5173    0.8878   -1.7921 H   0  0  0  0  0  0  0  0  0  0  0  0
    8.1544   -0.4400   -0.6497 H   0  0  0  0  0  0  0  0  0  0  0  0
    8.7961   -1.6601    1.3752 H   0  0  0  0  0  0  0  0  0  0  0  0
    7.0618   -2.5107    2.8976 H   0  0  0  0  0  0  0  0  0  0  0  0
    4.6962   -2.1375    2.3853 H   0  0  0  0  0  0  0  0  0  0  0  0
  1  2  1  0  0  0  0
  2  3  1  0  0  0  0
  3  4  1  0  0  0  0
  4  5  1  0  0  0  0
  5  6  1  0  0  0  0
  6  7  2  0  0  0  0
  7  8  1  0  0  0  0
  8  9  1  0  0  0  0
  9 10  2  0  0  0  0
 10 11  1  0  0  0  0
 11 12  2  0  0  0  0
 12 13  1  0  0  0  0
 13 14  2  0  0  0  0
 14 15  1  0  0  0  0
 15 16  2  0  0  0  0
 16 17  1  0  0  0  0
 17 18  2  0  0  0  0
 18 19  1  0  0  0  0
 19 20  2  0  0  0  0
 20 21  1  0  0  0  0
 21 22  2  0  0  0  0
  8 23  2  0  0  0  0
 23 24  1  0  0  0  0
 24 25  1  0  0  0  0
 25 26  1  0  0  0  0
 26 27  1  0  0  0  0
 27 28  1  0  0  0  0
 23 29  1  0  0  0  0
 29 30  2  0  0  0  0
 30 31  1  0  0  0  0
 31 32  2  0  0  0  0
 32 33  1  0  0  0  0
 33 34  2  0  0  0  0
 34 35  1  0  0  0  0
 35 36  2  0  0  0  0
 36 37  1  0  0  0  0
 37 38  2  0  0  0  0
 38 39  1  0  0  0  0
 39 40  2  0  0  0  0
 40 41  1  0  0  0  0
 41 42  2  0  0  0  0
 42 43  1  0  0  0  0
 43 44  2  0  0  0  0
 44 45  1  0  0  0  0
 45 46  2  0  0  0  0
 30  6  1  0  0  0  0
 46 32  1  0  0  0  0
 22 10  1  0  0  0  0
 38 33  1  0  0  0  0
 46 41  1  0  0  0  0
 16 11  1  0  0  0  0
 22 17  1  0  0  0  0
  1 47  1  0  0  0  0
  1 48  1  0  0  0  0
  1 49  1  0  0  0  0
  2 50  1  0  0  0  0
  2 51  1  0  0  0  0
  3 52  1  0  0  0  0
  3 53  1  0  0  0  0
  4 54  1  0  0  0  0
  4 55  1  0  0  0  0
  7 56  1  0  0  0  0
  9 57  1  0  0  0  0
 12 58  1  0  0  0  0
 13 59  1  0  0  0  0
 14 60  1  0  0  0  0
 15 61  1  0  0  0  0
 18 62  1  0  0  0  0
 19 63  1  0  0  0  0
 20 64  1  0  0  0  0
 21 65  1  0  0  0  0
 25 66  1  0  0  0  0
 25 67  1  0  0  0  0
 26 68  1  0  0  0  0
 26 69  1  0  0  0  0
 27 70  1  0  0  0  0
 27 71  1  0  0  0  0
 28 72  1  0  0  0  0
 28 73  1  0  0  0  0
 28 74  1  0  0  0  0
 29 75  1  0  0  0  0
 31 76  1  0  0  0  0
 34 77  1  0  0  0  0
 35 78  1  0  0  0  0
 36 79  1  0  0  0  0
 37 80  1  0  0  0  0
 39 81  1  0  0  0  0
 40 82  1  0  0  0  0
 42 83  1  0  0  0  0
 43 84  1  0  0  0  0
 44 85  1  0  0  0  0
 45 86  1  0  0  0  0
M  END
