
  xtb     03012221223D
 energy: -18.852126979373 gnorm: 0.000223694785 xtb: 6.4.1 (afa7bdf)
 84 94  0     0  0            999 V2000
   -5.6562    2.0603    0.5512 O   0  0  0  0  0  0  0  0  0  0  0  0
   -5.0445    1.0254    0.3505 C   0  0  0  0  0  0  0  0  0  0  0  0
   -3.5873    1.0472    0.3895 C   0  0  0  0  0  0  0  0  0  0  0  0
   -2.9209    2.2249    0.6584 C   0  0  0  0  0  0  0  0  0  0  0  0
   -1.5508    2.2677    0.7068 C   0  0  0  0  0  0  0  0  0  0  0  0
   -0.7646    1.1355    0.4907 C   0  0  0  0  0  0  0  0  0  0  0  0
    0.6760    1.1825    0.5456 C   0  0  0  0  0  0  0  0  0  0  0  0
    1.3851    2.3865    0.8052 C   0  0  0  0  0  0  0  0  0  0  0  0
    0.7248    3.5947    1.0176 O   0  0  0  0  0  0  0  0  0  0  0  0
    1.3784    4.8034    0.7117 C   0  0  0  0  0  0  0  0  0  0  0  0
    1.2017    5.9050    1.5470 C   0  0  0  0  0  0  0  0  0  0  0  0
    1.8272    7.0978    1.2723 C   0  0  0  0  0  0  0  0  0  0  0  0
    2.6340    7.2198    0.1590 C   0  0  0  0  0  0  0  0  0  0  0  0
    2.8077    6.1411   -0.6843 C   0  0  0  0  0  0  0  0  0  0  0  0
    2.1846    4.9455   -0.4172 C   0  0  0  0  0  0  0  0  0  0  0  0
    2.7829    2.3592    0.8690 C   0  0  0  0  0  0  0  0  0  0  0  0
    3.5059    1.2168    0.6607 C   0  0  0  0  0  0  0  0  0  0  0  0
    2.8303    0.0115    0.3820 C   0  0  0  0  0  0  0  0  0  0  0  0
    3.5755   -1.1606    0.1677 C   0  0  0  0  0  0  0  0  0  0  0  0
    2.9093   -2.3386   -0.1006 C   0  0  0  0  0  0  0  0  0  0  0  0
    1.5396   -2.3791   -0.1610 C   0  0  0  0  0  0  0  0  0  0  0  0
    0.7532   -1.2449    0.0438 C   0  0  0  0  0  0  0  0  0  0  0  0
   -0.6873   -1.2901   -0.0197 C   0  0  0  0  0  0  0  0  0  0  0  0
   -1.3957   -2.4872   -0.3115 C   0  0  0  0  0  0  0  0  0  0  0  0
   -0.7321   -3.6868   -0.5563 O   0  0  0  0  0  0  0  0  0  0  0  0
   -1.3621   -4.6839   -1.3256 C   0  0  0  0  0  0  0  0  0  0  0  0
   -1.2341   -6.0195   -0.9485 C   0  0  0  0  0  0  0  0  0  0  0  0
   -1.8391   -7.0134   -1.6804 C   0  0  0  0  0  0  0  0  0  0  0  0
   -2.5763   -6.6990   -2.8043 C   0  0  0  0  0  0  0  0  0  0  0  0
   -2.7000   -5.3817   -3.1976 C   0  0  0  0  0  0  0  0  0  0  0  0
   -2.0969   -4.3823   -2.4719 C   0  0  0  0  0  0  0  0  0  0  0  0
   -2.7948   -2.4680   -0.3345 C   0  0  0  0  0  0  0  0  0  0  0  0
   -3.5182   -1.3278   -0.1147 C   0  0  0  0  0  0  0  0  0  0  0  0
   -2.8420   -0.1221    0.1607 C   0  0  0  0  0  0  0  0  0  0  0  0
   -1.4225   -0.0965    0.2104 C   0  0  0  0  0  0  0  0  0  0  0  0
   -4.9744   -1.3755   -0.1711 C   0  0  0  0  0  0  0  0  0  0  0  0
   -5.5167   -2.4343   -0.4351 O   0  0  0  0  0  0  0  0  0  0  0  0
   -5.7088   -0.1941    0.0804 N   0  0  0  0  0  0  0  0  0  0  0  0
   -7.1399   -0.2314    0.0625 C   0  0  0  0  0  0  0  0  0  0  0  0
   -7.8936    0.6886    0.7853 C   0  0  0  0  0  0  0  0  0  0  0  0
   -9.2647    0.6581    0.7784 C   0  0  0  0  0  0  0  0  0  0  0  0
   -9.9505   -0.3062    0.0369 C   0  0  0  0  0  0  0  0  0  0  0  0
  -11.3290   -0.3667    0.0053 O   0  0  0  0  0  0  0  0  0  0  0  0
   -9.1991   -1.2310   -0.6899 C   0  0  0  0  0  0  0  0  0  0  0  0
   -7.8288   -1.1906   -0.6731 C   0  0  0  0  0  0  0  0  0  0  0  0
    1.4110   -0.0130    0.3249 C   0  0  0  0  0  0  0  0  0  0  0  0
    5.0321   -1.1437    0.2307 C   0  0  0  0  0  0  0  0  0  0  0  0
    5.6440   -2.1788    0.0319 O   0  0  0  0  0  0  0  0  0  0  0  0
    5.6947    0.0718    0.5225 N   0  0  0  0  0  0  0  0  0  0  0  0
    7.1229    0.0992    0.6150 C   0  0  0  0  0  0  0  0  0  0  0  0
    7.7762    1.0586    1.3825 C   0  0  0  0  0  0  0  0  0  0  0  0
    9.1435    1.0876    1.4789 C   0  0  0  0  0  0  0  0  0  0  0  0
    9.9275    0.1501    0.8047 C   0  0  0  0  0  0  0  0  0  0  0  0
   11.3022    0.1988    0.9166 O   0  0  0  0  0  0  0  0  0  0  0  0
    9.2774   -0.8147    0.0320 C   0  0  0  0  0  0  0  0  0  0  0  0
    7.9088   -0.8336   -0.0549 C   0  0  0  0  0  0  0  0  0  0  0  0
    4.9615    1.2629    0.7264 C   0  0  0  0  0  0  0  0  0  0  0  0
    5.5059    2.3296    0.9515 O   0  0  0  0  0  0  0  0  0  0  0  0
   -3.5077    3.1140    0.8313 H   0  0  0  0  0  0  0  0  0  0  0  0
   -1.0710    3.2013    0.9200 H   0  0  0  0  0  0  0  0  0  0  0  0
    0.5740    5.7965    2.4128 H   0  0  0  0  0  0  0  0  0  0  0  0
    1.6884    7.9412    1.9302 H   0  0  0  0  0  0  0  0  0  0  0  0
    3.1252    8.1547   -0.0522 H   0  0  0  0  0  0  0  0  0  0  0  0
    3.4359    6.2359   -1.5560 H   0  0  0  0  0  0  0  0  0  0  0  0
    2.3057    4.1063   -1.0779 H   0  0  0  0  0  0  0  0  0  0  0  0
    3.3183    3.2627    1.1042 H   0  0  0  0  0  0  0  0  0  0  0  0
    3.4957   -3.2305   -0.2601 H   0  0  0  0  0  0  0  0  0  0  0  0
    1.0603   -3.3139   -0.3703 H   0  0  0  0  0  0  0  0  0  0  0  0
   -0.6604   -6.2512   -0.0696 H   0  0  0  0  0  0  0  0  0  0  0  0
   -1.7390   -8.0427   -1.3741 H   0  0  0  0  0  0  0  0  0  0  0  0
   -3.0521   -7.4794   -3.3738 H   0  0  0  0  0  0  0  0  0  0  0  0
   -3.2728   -5.1353   -4.0776 H   0  0  0  0  0  0  0  0  0  0  0  0
   -2.1781   -3.3561   -2.7813 H   0  0  0  0  0  0  0  0  0  0  0  0
   -3.3330   -3.3822   -0.5155 H   0  0  0  0  0  0  0  0  0  0  0  0
   -7.3739    1.4513    1.3372 H   0  0  0  0  0  0  0  0  0  0  0  0
   -9.8260    1.3838    1.3404 H   0  0  0  0  0  0  0  0  0  0  0  0
  -11.7099    0.3465    0.5610 H   0  0  0  0  0  0  0  0  0  0  0  0
   -9.7233   -1.9807   -1.2565 H   0  0  0  0  0  0  0  0  0  0  0  0
   -7.2600   -1.9253   -1.2141 H   0  0  0  0  0  0  0  0  0  0  0  0
    7.1827    1.8018    1.8844 H   0  0  0  0  0  0  0  0  0  0  0  0
    9.6404    1.8369    2.0701 H   0  0  0  0  0  0  0  0  0  0  0  0
   11.7084   -0.5234    0.3913 H   0  0  0  0  0  0  0  0  0  0  0  0
    9.8641   -1.5505   -0.4894 H   0  0  0  0  0  0  0  0  0  0  0  0
    7.4151   -1.5974   -0.6286 H   0  0  0  0  0  0  0  0  0  0  0  0
  1  2  2  0  0  0  0
  2  3  1  0  0  0  0
  3  4  2  0  0  0  0
  4  5  1  0  0  0  0
  5  6  2  0  0  0  0
  6  7  1  0  0  0  0
  7  8  2  0  0  0  0
  8  9  1  0  0  0  0
  9 10  1  0  0  0  0
 10 11  2  0  0  0  0
 11 12  1  0  0  0  0
 12 13  2  0  0  0  0
 13 14  1  0  0  0  0
 14 15  2  0  0  0  0
  8 16  1  0  0  0  0
 16 17  2  0  0  0  0
 17 18  1  0  0  0  0
 18 19  1  0  0  0  0
 19 20  2  0  0  0  0
 20 21  1  0  0  0  0
 21 22  2  0  0  0  0
 22 23  1  0  0  0  0
 23 24  2  0  0  0  0
 24 25  1  0  0  0  0
 25 26  1  0  0  0  0
 26 27  2  0  0  0  0
 27 28  1  0  0  0  0
 28 29  2  0  0  0  0
 29 30  1  0  0  0  0
 30 31  2  0  0  0  0
 24 32  1  0  0  0  0
 32 33  2  0  0  0  0
 33 34  1  0  0  0  0
 34 35  2  0  0  0  0
 33 36  1  0  0  0  0
 36 37  2  0  0  0  0
 36 38  1  0  0  0  0
 38 39  1  0  0  0  0
 39 40  2  0  0  0  0
 40 41  1  0  0  0  0
 41 42  2  0  0  0  0
 42 43  1  0  0  0  0
 42 44  1  0  0  0  0
 44 45  2  0  0  0  0
 22 46  1  0  0  0  0
 19 47  1  0  0  0  0
 47 48  2  0  0  0  0
 47 49  1  0  0  0  0
 49 50  1  0  0  0  0
 50 51  2  0  0  0  0
 51 52  1  0  0  0  0
 52 53  2  0  0  0  0
 53 54  1  0  0  0  0
 53 55  1  0  0  0  0
 55 56  2  0  0  0  0
 49 57  1  0  0  0  0
 57 58  2  0  0  0  0
 38  2  1  0  0  0  0
 45 39  1  0  0  0  0
 56 50  1  0  0  0  0
 34  3  1  0  0  0  0
 35  6  1  0  0  0  0
 46  7  1  0  0  0  0
 15 10  1  0  0  0  0
 57 17  1  0  0  0  0
 46 18  2  0  0  0  0
 35 23  1  0  0  0  0
 31 26  1  0  0  0  0
  4 59  1  0  0  0  0
  5 60  1  0  0  0  0
 11 61  1  0  0  0  0
 12 62  1  0  0  0  0
 13 63  1  0  0  0  0
 14 64  1  0  0  0  0
 15 65  1  0  0  0  0
 16 66  1  0  0  0  0
 20 67  1  0  0  0  0
 21 68  1  0  0  0  0
 27 69  1  0  0  0  0
 28 70  1  0  0  0  0
 29 71  1  0  0  0  0
 30 72  1  0  0  0  0
 31 73  1  0  0  0  0
 32 74  1  0  0  0  0
 40 75  1  0  0  0  0
 41 76  1  0  0  0  0
 43 77  1  0  0  0  0
 44 78  1  0  0  0  0
 45 79  1  0  0  0  0
 51 80  1  0  0  0  0
 52 81  1  0  0  0  0
 54 82  1  0  0  0  0
 55 83  1  0  0  0  0
 56 84  1  0  0  0  0
M  END
