
  xtb     03022211443D
 energy: -10.349061203709 gnorm: 0.000298973413 xtb: 6.4.1 (afa7bdf)
 47 53  0     0  0            999 V2000
    3.1531    0.8415    2.0587 C   0  0  0  0  0  0  0  0  0  0  0  0
    2.7062   -0.4756    2.0415 C   0  0  0  0  0  0  0  0  0  0  0  0
    1.4595   -0.7734    1.5650 C   0  0  0  0  0  0  0  0  0  0  0  0
    0.6122    0.2258    1.0569 C   0  0  0  0  0  0  0  0  0  0  0  0
    1.0392    1.5691    1.1555 C   0  0  0  0  0  0  0  0  0  0  0  0
    2.3306    1.8481    1.6353 C   0  0  0  0  0  0  0  0  0  0  0  0
    0.1319    2.6219    0.8266 C   0  0  0  0  0  0  0  0  0  0  0  0
   -1.1461    2.3568    0.4870 C   0  0  0  0  0  0  0  0  0  0  0  0
   -1.6174    1.0126    0.3617 C   0  0  0  0  0  0  0  0  0  0  0  0
   -2.9824    0.7529    0.1301 C   0  0  0  0  0  0  0  0  0  0  0  0
   -3.4542   -0.5301    0.0430 C   0  0  0  0  0  0  0  0  0  0  0  0
   -2.5491   -1.5848    0.0628 C   0  0  0  0  0  0  0  0  0  0  0  0
   -1.1734   -1.3684    0.1585 C   0  0  0  0  0  0  0  0  0  0  0  0
   -0.7014   -0.0621    0.5002 C   0  0  0  0  0  0  0  0  0  0  0  0
   -0.4913   -2.6696   -0.0707 C   0  0  0  0  0  0  0  0  0  0  0  0
   -1.4470   -3.6798    0.0502 C   0  0  0  0  0  0  0  0  0  0  0  0
   -1.0897   -5.0228    0.0801 C   0  0  0  0  0  0  0  0  0  0  0  0
    0.2337   -5.3612   -0.0231 C   0  0  0  0  0  0  0  0  0  0  0  0
    1.2168   -4.3859   -0.2810 C   0  0  0  0  0  0  0  0  0  0  0  0
    2.5898   -4.7596   -0.4223 C   0  0  0  0  0  0  0  0  0  0  0  0
    3.5260   -3.8604   -0.7881 C   0  0  0  0  0  0  0  0  0  0  0  0
    3.1661   -2.5210   -1.1291 C   0  0  0  0  0  0  0  0  0  0  0  0
    4.1187   -1.6216   -1.6381 C   0  0  0  0  0  0  0  0  0  0  0  0
    3.7473   -0.3794   -2.0718 C   0  0  0  0  0  0  0  0  0  0  0  0
    2.4094   -0.0006   -2.0348 C   0  0  0  0  0  0  0  0  0  0  0  0
    1.4666   -0.8526   -1.5295 C   0  0  0  0  0  0  0  0  0  0  0  0
    1.8190   -2.1108   -1.0127 C   0  0  0  0  0  0  0  0  0  0  0  0
    0.8472   -3.0241   -0.4297 C   0  0  0  0  0  0  0  0  0  0  0  0
   -2.8175   -3.0634    0.0646 C   0  0  0  0  0  0  0  0  0  0  0  0
    4.1405    1.0683    2.4261 H   0  0  0  0  0  0  0  0  0  0  0  0
    3.3471   -1.2640    2.4015 H   0  0  0  0  0  0  0  0  0  0  0  0
    1.1137   -1.7906    1.5808 H   0  0  0  0  0  0  0  0  0  0  0  0
    2.6596    2.8724    1.6818 H   0  0  0  0  0  0  0  0  0  0  0  0
    0.4719    3.6399    0.9093 H   0  0  0  0  0  0  0  0  0  0  0  0
   -1.8345    3.1628    0.2988 H   0  0  0  0  0  0  0  0  0  0  0  0
   -3.6656    1.5827    0.0708 H   0  0  0  0  0  0  0  0  0  0  0  0
   -4.5057   -0.7320   -0.0641 H   0  0  0  0  0  0  0  0  0  0  0  0
   -1.8495   -5.7738    0.2077 H   0  0  0  0  0  0  0  0  0  0  0  0
    0.5320   -6.3934    0.0442 H   0  0  0  0  0  0  0  0  0  0  0  0
    2.8680   -5.7805   -0.2245 H   0  0  0  0  0  0  0  0  0  0  0  0
    4.5566   -4.1572   -0.8824 H   0  0  0  0  0  0  0  0  0  0  0  0
    5.1480   -1.9318   -1.6997 H   0  0  0  0  0  0  0  0  0  0  0  0
    4.4866    0.3003   -2.4630 H   0  0  0  0  0  0  0  0  0  0  0  0
    2.1164    0.9694   -2.4023 H   0  0  0  0  0  0  0  0  0  0  0  0
    0.4326   -0.5607   -1.5294 H   0  0  0  0  0  0  0  0  0  0  0  0
   -3.3761   -3.3622    0.9584 H   0  0  0  0  0  0  0  0  0  0  0  0
   -3.3939   -3.3619   -0.8178 H   0  0  0  0  0  0  0  0  0  0  0  0
  1  2  2  0  0  0  0
  1 30  1  0  0  0  0
  2  3  1  0  0  0  0
  2 31  1  0  0  0  0
  3  4  2  0  0  0  0
  3 32  1  0  0  0  0
  4  5  1  0  0  0  0
  5  6  2  0  0  0  0
  5  7  1  0  0  0  0
  6  1  1  0  0  0  0
  6 33  1  0  0  0  0
  7  8  2  0  0  0  0
  7 34  1  0  0  0  0
  8  9  1  0  0  0  0
  8 35  1  0  0  0  0
  9 10  2  0  0  0  0
 10 11  1  0  0  0  0
 10 36  1  0  0  0  0
 11 12  2  0  0  0  0
 11 37  1  0  0  0  0
 12 13  1  0  0  0  0
 13 14  2  0  0  0  0
 13 15  1  0  0  0  0
 14  9  1  0  0  0  0
 14  4  1  0  0  0  0
 15 16  2  0  0  0  0
 16 17  1  0  0  0  0
 16 29  1  0  0  0  0
 17 18  2  0  0  0  0
 17 38  1  0  0  0  0
 18 19  1  0  0  0  0
 18 39  1  0  0  0  0
 19 20  2  0  0  0  0
 20 21  1  0  0  0  0
 20 40  1  0  0  0  0
 21 22  2  0  0  0  0
 21 41  1  0  0  0  0
 22 23  1  0  0  0  0
 23 24  2  0  0  0  0
 23 42  1  0  0  0  0
 24 25  1  0  0  0  0
 24 43  1  0  0  0  0
 25 26  2  0  0  0  0
 25 44  1  0  0  0  0
 26 27  1  0  0  0  0
 26 45  1  0  0  0  0
 27 28  2  0  0  0  0
 27 22  1  0  0  0  0
 28 15  1  0  0  0  0
 28 19  1  0  0  0  0
 29 12  1  0  0  0  0
 29 46  1  0  0  0  0
 29 47  1  0  0  0  0
M  END
