
  xtb     03012221263D
 energy: -15.470225929510 gnorm: 0.000285088040 xtb: 6.4.1 (afa7bdf)
 84 88  0     0  0            999 V2000
   -4.8391    2.4996    1.9165 C   0  0  0  0  0  0  0  0  0  0  0  0
   -6.2223    2.7930    1.3766 C   0  0  0  0  0  0  0  0  0  0  0  0
   -6.8473    1.6504    0.8398 O   0  0  0  0  0  0  0  0  0  0  0  0
   -7.1943    0.7890    1.8378 C   0  0  0  0  0  0  0  0  0  0  0  0
   -6.9922    0.9820    3.0172 O   0  0  0  0  0  0  0  0  0  0  0  0
   -7.8226   -0.5028    1.3971 C   0  0  0  0  0  0  0  0  0  0  0  0
   -6.7593   -1.4901    0.9229 C   0  0  0  0  0  0  0  0  0  0  0  0
   -6.0550   -1.0214   -0.3494 C   0  0  0  0  0  0  0  0  0  0  0  0
   -4.8227   -1.8477   -0.6991 C   0  0  0  0  0  0  0  0  0  0  0  0
   -4.1245   -1.3608   -1.9611 C   0  0  0  0  0  0  0  0  0  0  0  0
   -2.7798   -1.9411   -2.1080 N   0  0  0  0  0  0  0  0  0  0  0  0
   -2.5969   -3.1243   -2.8591 C   0  0  0  0  0  0  0  0  0  0  0  0
   -3.6745   -3.8556   -3.3726 C   0  0  0  0  0  0  0  0  0  0  0  0
   -3.4689   -4.9919   -4.1119 C   0  0  0  0  0  0  0  0  0  0  0  0
   -2.1792   -5.4423   -4.3632 C   0  0  0  0  0  0  0  0  0  0  0  0
   -1.9215   -6.8722   -5.2994 Cl  0  0  0  0  0  0  0  0  0  0  0  0
   -1.1045   -4.7479   -3.8586 C   0  0  0  0  0  0  0  0  0  0  0  0
   -1.2944   -3.5972   -3.1046 C   0  0  0  0  0  0  0  0  0  0  0  0
   -0.1364   -2.9024   -2.5645 C   0  0  0  0  0  0  0  0  0  0  0  0
    1.0015   -3.2926   -2.7872 O   0  0  0  0  0  0  0  0  0  0  0  0
   -0.3754   -1.7360   -1.7334 C   0  0  0  0  0  0  0  0  0  0  0  0
    0.7018   -1.0802   -1.1637 C   0  0  0  0  0  0  0  0  0  0  0  0
    0.5356    0.0231   -0.3354 C   0  0  0  0  0  0  0  0  0  0  0  0
   -0.7810    0.4515   -0.0699 C   0  0  0  0  0  0  0  0  0  0  0  0
   -1.8569   -0.1954   -0.6522 C   0  0  0  0  0  0  0  0  0  0  0  0
   -1.6898   -1.2855   -1.4977 C   0  0  0  0  0  0  0  0  0  0  0  0
   -1.0249    1.5687    0.8260 C   0  0  0  0  0  0  0  0  0  0  0  0
   -2.1613    1.9670    1.0412 O   0  0  0  0  0  0  0  0  0  0  0  0
    0.1263    2.1824    1.4693 C   0  0  0  0  0  0  0  0  0  0  0  0
   -0.0729    3.2110    2.3809 C   0  0  0  0  0  0  0  0  0  0  0  0
    0.9922    3.7966    3.0245 C   0  0  0  0  0  0  0  0  0  0  0  0
    0.7193    5.0732    4.1573 Cl  0  0  0  0  0  0  0  0  0  0  0  0
    2.2822    3.3521    2.7645 C   0  0  0  0  0  0  0  0  0  0  0  0
    2.4978    2.3409    1.8643 C   0  0  0  0  0  0  0  0  0  0  0  0
    1.4311    1.7375    1.1866 C   0  0  0  0  0  0  0  0  0  0  0  0
    1.6275    0.7073    0.2383 N   0  0  0  0  0  0  0  0  0  0  0  0
    2.9934    0.3649   -0.1912 C   0  0  0  0  0  0  0  0  0  0  0  0
    3.6035   -0.7318    0.6702 C   0  0  0  0  0  0  0  0  0  0  0  0
    4.9896   -1.2128    0.2123 C   0  0  0  0  0  0  0  0  0  0  0  0
    6.1666   -0.3816    0.7368 C   0  0  0  0  0  0  0  0  0  0  0  0
    6.3158    0.9966    0.1070 C   0  0  0  0  0  0  0  0  0  0  0  0
    7.5124    1.7156    0.6568 C   0  0  0  0  0  0  0  0  0  0  0  0
    7.4911    2.0953    1.8077 O   0  0  0  0  0  0  0  0  0  0  0  0
    8.5653    1.8775   -0.1933 O   0  0  0  0  0  0  0  0  0  0  0  0
    9.6044    2.5556    0.4694 C   0  0  0  0  0  0  0  0  0  0  0  0
   10.8049    2.7804   -0.4254 C   0  0  0  0  0  0  0  0  0  0  0  0
   -4.8938    1.7647    2.7206 H   0  0  0  0  0  0  0  0  0  0  0  0
   -4.2031    2.0766    1.1386 H   0  0  0  0  0  0  0  0  0  0  0  0
   -4.3449    3.3909    2.3055 H   0  0  0  0  0  0  0  0  0  0  0  0
   -6.8861    3.1850    2.1602 H   0  0  0  0  0  0  0  0  0  0  0  0
   -6.1891    3.5437    0.5757 H   0  0  0  0  0  0  0  0  0  0  0  0
   -8.3957   -0.9117    2.2354 H   0  0  0  0  0  0  0  0  0  0  0  0
   -8.5384   -0.2981    0.5961 H   0  0  0  0  0  0  0  0  0  0  0  0
   -7.1941   -2.4838    0.7596 H   0  0  0  0  0  0  0  0  0  0  0  0
   -6.0182   -1.6206    1.7203 H   0  0  0  0  0  0  0  0  0  0  0  0
   -5.7621    0.0301   -0.2329 H   0  0  0  0  0  0  0  0  0  0  0  0
   -6.7608   -1.0252   -1.1897 H   0  0  0  0  0  0  0  0  0  0  0  0
   -4.1153   -1.8177    0.1369 H   0  0  0  0  0  0  0  0  0  0  0  0
   -5.0907   -2.9044   -0.8028 H   0  0  0  0  0  0  0  0  0  0  0  0
   -4.0305   -0.2718   -1.9548 H   0  0  0  0  0  0  0  0  0  0  0  0
   -4.7200   -1.5719   -2.8523 H   0  0  0  0  0  0  0  0  0  0  0  0
   -4.6803   -3.5381   -3.1723 H   0  0  0  0  0  0  0  0  0  0  0  0
   -4.3003   -5.5529   -4.5065 H   0  0  0  0  0  0  0  0  0  0  0  0
   -0.1022   -5.0974   -4.0419 H   0  0  0  0  0  0  0  0  0  0  0  0
    1.6792   -1.4723   -1.3678 H   0  0  0  0  0  0  0  0  0  0  0  0
   -2.8374    0.1640   -0.4081 H   0  0  0  0  0  0  0  0  0  0  0  0
   -1.0754    3.5462    2.5865 H   0  0  0  0  0  0  0  0  0  0  0  0
    3.1057    3.8141    3.2846 H   0  0  0  0  0  0  0  0  0  0  0  0
    3.5013    1.9983    1.6977 H   0  0  0  0  0  0  0  0  0  0  0  0
    2.9695    0.0650   -1.2418 H   0  0  0  0  0  0  0  0  0  0  0  0
    3.5941    1.2738   -0.1865 H   0  0  0  0  0  0  0  0  0  0  0  0
    2.9030   -1.5758    0.6834 H   0  0  0  0  0  0  0  0  0  0  0  0
    3.6523   -0.3999    1.7125 H   0  0  0  0  0  0  0  0  0  0  0  0
    5.0213   -1.2491   -0.8838 H   0  0  0  0  0  0  0  0  0  0  0  0
    5.1278   -2.2562    0.5324 H   0  0  0  0  0  0  0  0  0  0  0  0
    6.0830   -0.2697    1.8243 H   0  0  0  0  0  0  0  0  0  0  0  0
    7.1056   -0.9291    0.5827 H   0  0  0  0  0  0  0  0  0  0  0  0
    6.4093    0.9175   -0.9799 H   0  0  0  0  0  0  0  0  0  0  0  0
    5.4388    1.6139    0.3043 H   0  0  0  0  0  0  0  0  0  0  0  0
    9.1866    3.5041    0.8353 H   0  0  0  0  0  0  0  0  0  0  0  0
    9.8633    1.9596    1.3557 H   0  0  0  0  0  0  0  0  0  0  0  0
   11.1981    1.8295   -0.7849 H   0  0  0  0  0  0  0  0  0  0  0  0
   11.6098    3.3073    0.0895 H   0  0  0  0  0  0  0  0  0  0  0  0
   10.5247    3.3641   -1.3023 H   0  0  0  0  0  0  0  0  0  0  0  0
  1  2  1  0  0  0  0
  2  3  1  0  0  0  0
  3  4  1  0  0  0  0
  4  5  2  0  0  0  0
  4  6  1  0  0  0  0
  6  7  1  0  0  0  0
  7  8  1  0  0  0  0
  8  9  1  0  0  0  0
  9 10  1  0  0  0  0
 10 11  1  0  0  0  0
 11 12  1  0  0  0  0
 12 13  2  0  0  0  0
 13 14  1  0  0  0  0
 14 15  2  0  0  0  0
 15 16  1  0  0  0  0
 15 17  1  0  0  0  0
 17 18  2  0  0  0  0
 18 19  1  0  0  0  0
 19 20  2  0  0  0  0
 19 21  1  0  0  0  0
 21 22  2  0  0  0  0
 22 23  1  0  0  0  0
 23 24  2  0  0  0  0
 24 25  1  0  0  0  0
 25 26  2  0  0  0  0
 24 27  1  0  0  0  0
 27 28  2  0  0  0  0
 27 29  1  0  0  0  0
 29 30  2  0  0  0  0
 30 31  1  0  0  0  0
 31 32  1  0  0  0  0
 31 33  2  0  0  0  0
 33 34  1  0  0  0  0
 34 35  2  0  0  0  0
 35 36  1  0  0  0  0
 36 37  1  0  0  0  0
 37 38  1  0  0  0  0
 38 39  1  0  0  0  0
 39 40  1  0  0  0  0
 40 41  1  0  0  0  0
 41 42  1  0  0  0  0
 42 43  2  0  0  0  0
 42 44  1  0  0  0  0
 44 45  1  0  0  0  0
 45 46  1  0  0  0  0
 26 11  1  0  0  0  0
 35 29  1  0  0  0  0
 18 12  1  0  0  0  0
 26 21  1  0  0  0  0
 36 23  1  0  0  0  0
  1 47  1  0  0  0  0
  1 48  1  0  0  0  0
  1 49  1  0  0  0  0
  2 50  1  0  0  0  0
  2 51  1  0  0  0  0
  6 52  1  0  0  0  0
  6 53  1  0  0  0  0
  7 54  1  0  0  0  0
  7 55  1  0  0  0  0
  8 56  1  0  0  0  0
  8 57  1  0  0  0  0
  9 58  1  0  0  0  0
  9 59  1  0  0  0  0
 10 60  1  0  0  0  0
 10 61  1  0  0  0  0
 13 62  1  0  0  0  0
 14 63  1  0  0  0  0
 17 64  1  0  0  0  0
 22 65  1  0  0  0  0
 25 66  1  0  0  0  0
 30 67  1  0  0  0  0
 33 68  1  0  0  0  0
 34 69  1  0  0  0  0
 37 70  1  0  0  0  0
 37 71  1  0  0  0  0
 38 72  1  0  0  0  0
 38 73  1  0  0  0  0
 39 74  1  0  0  0  0
 39 75  1  0  0  0  0
 40 76  1  0  0  0  0
 40 77  1  0  0  0  0
 41 78  1  0  0  0  0
 41 79  1  0  0  0  0
 45 80  1  0  0  0  0
 45 81  1  0  0  0  0
 46 82  1  0  0  0  0
 46 83  1  0  0  0  0
 46 84  1  0  0  0  0
M  END
