
  xtb     03012221243D
 energy: -8.287567203165 gnorm: 0.000451093934 xtb: 6.4.1 (afa7bdf)
 45 47  0     0  0            999 V2000
   -5.5024   -1.7873    0.5455 C   0  0  0  0  0  0  0  0  0  0  0  0
   -4.0042   -1.6340    0.3352 C   0  0  0  0  0  0  0  0  0  0  0  0
   -3.6412   -0.3796   -0.4611 C   0  0  0  0  0  0  0  0  0  0  0  0
   -2.1403   -0.2281   -0.7280 C   0  0  0  0  0  0  0  0  0  0  0  0
   -1.3191    0.0081    0.5301 C   0  0  0  0  0  0  0  0  0  0  0  0
    0.1061    0.2116    0.2305 N   0  0  0  0  0  0  0  0  0  0  0  0
    0.5782    1.5188   -0.0085 C   0  0  0  0  0  0  0  0  0  0  0  0
   -0.2771    2.6244   -0.0833 C   0  0  0  0  0  0  0  0  0  0  0  0
    0.2214    3.8838   -0.2997 C   0  0  0  0  0  0  0  0  0  0  0  0
    1.5777    4.0833   -0.4533 C   0  0  0  0  0  0  0  0  0  0  0  0
    2.1914    5.7360   -0.7228 S   0  0  0  0  0  6  0  0  0  0  0  0
    1.0264    6.5959   -1.1044 O   0  0  0  0  0  0  0  0  0  0  0  0
    3.5045    5.6395   -1.4333 O   0  0  0  0  0  0  0  0  0  0  0  0
    2.5409    5.9819    1.2599 Cl  0  0  0  0  0  0  0  0  0  0  0  0
    2.4382    3.0249   -0.4013 C   0  0  0  0  0  0  0  0  0  0  0  0
    1.9574    1.7378   -0.1824 C   0  0  0  0  0  0  0  0  0  0  0  0
    2.8924    0.6255   -0.1418 C   0  0  0  0  0  0  0  0  0  0  0  0
    4.0930    0.8085   -0.2462 O   0  0  0  0  0  0  0  0  0  0  0  0
    2.3484   -0.7131    0.0175 C   0  0  0  0  0  0  0  0  0  0  0  0
    3.2085   -1.8063   -0.0078 C   0  0  0  0  0  0  0  0  0  0  0  0
    2.7185   -3.0729    0.1309 C   0  0  0  0  0  0  0  0  0  0  0  0
    3.8173   -4.4774    0.1099 S   0  0  0  0  0  6  0  0  0  0  0  0
    2.9809   -5.7046   -0.0839 O   0  0  0  0  0  0  0  0  0  0  0  0
    5.0452   -4.1047   -0.6591 O   0  0  0  0  0  0  0  0  0  0  0  0
    4.1980   -4.2713    2.0912 Cl  0  0  0  0  0  0  0  0  0  0  0  0
    1.3638   -3.2802    0.2873 C   0  0  0  0  0  0  0  0  0  0  0  0
    0.4955   -2.2188    0.3146 C   0  0  0  0  0  0  0  0  0  0  0  0
    0.9651   -0.9060    0.1899 C   0  0  0  0  0  0  0  0  0  0  0  0
   -5.9138   -0.9333    1.0850 H   0  0  0  0  0  0  0  0  0  0  0  0
   -6.0299   -1.8515   -0.4068 H   0  0  0  0  0  0  0  0  0  0  0  0
   -5.7459   -2.6849    1.1167 H   0  0  0  0  0  0  0  0  0  0  0  0
   -3.4927   -1.6148    1.3053 H   0  0  0  0  0  0  0  0  0  0  0  0
   -3.6048   -2.5168   -0.1804 H   0  0  0  0  0  0  0  0  0  0  0  0
   -4.0100    0.5063    0.0689 H   0  0  0  0  0  0  0  0  0  0  0  0
   -4.1899   -0.3929   -1.4113 H   0  0  0  0  0  0  0  0  0  0  0  0
   -1.7643   -1.1171   -1.2464 H   0  0  0  0  0  0  0  0  0  0  0  0
   -1.9615    0.5991   -1.4258 H   0  0  0  0  0  0  0  0  0  0  0  0
   -1.4164   -0.8227    1.2339 H   0  0  0  0  0  0  0  0  0  0  0  0
   -1.6940    0.8715    1.0872 H   0  0  0  0  0  0  0  0  0  0  0  0
   -1.3387    2.4938    0.0091 H   0  0  0  0  0  0  0  0  0  0  0  0
   -0.4373    4.7377   -0.3629 H   0  0  0  0  0  0  0  0  0  0  0  0
    3.5000    3.1737   -0.5411 H   0  0  0  0  0  0  0  0  0  0  0  0
    4.2673   -1.6399   -0.1498 H   0  0  0  0  0  0  0  0  0  0  0  0
    1.0032   -4.2944    0.3781 H   0  0  0  0  0  0  0  0  0  0  0  0
   -0.5561   -2.4094    0.4150 H   0  0  0  0  0  0  0  0  0  0  0  0
  1  2  1  0  0  0  0
  2  3  1  0  0  0  0
  3  4  1  0  0  0  0
  4  5  1  0  0  0  0
  5  6  1  0  0  0  0
  6  7  1  0  0  0  0
  7  8  2  0  0  0  0
  8  9  1  0  0  0  0
  9 10  2  0  0  0  0
 10 11  1  0  0  0  0
 11 12  2  0  0  0  0
 11 13  2  0  0  0  0
 11 14  1  0  0  0  0
 10 15  1  0  0  0  0
 15 16  2  0  0  0  0
 16 17  1  0  0  0  0
 17 18  2  0  0  0  0
 17 19  1  0  0  0  0
 19 20  2  0  0  0  0
 20 21  1  0  0  0  0
 21 22  1  0  0  0  0
 22 23  2  0  0  0  0
 22 24  2  0  0  0  0
 22 25  1  0  0  0  0
 21 26  2  0  0  0  0
 26 27  1  0  0  0  0
 27 28  2  0  0  0  0
 28  6  1  0  0  0  0
 16  7  1  0  0  0  0
 28 19  1  0  0  0  0
  1 29  1  0  0  0  0
  1 30  1  0  0  0  0
  1 31  1  0  0  0  0
  2 32  1  0  0  0  0
  2 33  1  0  0  0  0
  3 34  1  0  0  0  0
  3 35  1  0  0  0  0
  4 36  1  0  0  0  0
  4 37  1  0  0  0  0
  5 38  1  0  0  0  0
  5 39  1  0  0  0  0
  8 40  1  0  0  0  0
  9 41  1  0  0  0  0
 15 42  1  0  0  0  0
 20 43  1  0  0  0  0
 26 44  1  0  0  0  0
 27 45  1  0  0  0  0
M  END
