
  xtb     03012221253D
 energy: -5.503980042969 gnorm: 0.000193050632 xtb: 6.4.1 (afa7bdf)
 26 28  0     0  0            999 V2000
   -2.3213    2.5219    0.3437 N   0  0  0  0  0  0  0  0  0  0  0  0
   -2.2619    1.1853    0.0327 C   0  0  0  0  0  0  0  0  0  0  0  0
   -3.4278    0.4938   -0.2536 C   0  0  0  0  0  0  0  0  0  0  0  0
   -3.4164   -0.8648   -0.5613 C   0  0  0  0  0  0  0  0  0  0  0  0
   -2.2449   -1.5634   -0.5918 C   0  0  0  0  0  0  0  0  0  0  0  0
   -1.0113   -0.9232   -0.3154 C   0  0  0  0  0  0  0  0  0  0  0  0
    0.1936   -1.6246   -0.3480 C   0  0  0  0  0  0  0  0  0  0  0  0
    1.4086   -0.9933   -0.0847 C   0  0  0  0  0  0  0  0  0  0  0  0
    2.6455   -1.6913   -0.1157 C   0  0  0  0  0  0  0  0  0  0  0  0
    3.8133   -1.0451    0.1420 C   0  0  0  0  0  0  0  0  0  0  0  0
    3.8191    0.3281    0.4444 C   0  0  0  0  0  0  0  0  0  0  0  0
    2.6568    1.0329    0.4844 C   0  0  0  0  0  0  0  0  0  0  0  0
    1.4155    0.3982    0.2222 C   0  0  0  0  0  0  0  0  0  0  0  0
    0.2057    1.0979    0.2555 C   0  0  0  0  0  0  0  0  0  0  0  0
   -1.0063    0.4727   -0.0010 C   0  0  0  0  0  0  0  0  0  0  0  0
   -3.1971    3.0125    0.4636 H   0  0  0  0  0  0  0  0  0  0  0  0
   -1.5432    3.0623    0.6948 H   0  0  0  0  0  0  0  0  0  0  0  0
   -4.3608    1.0289   -0.2318 H   0  0  0  0  0  0  0  0  0  0  0  0
   -4.3452   -1.3675   -0.7764 H   0  0  0  0  0  0  0  0  0  0  0  0
   -2.2443   -2.6131   -0.8297 H   0  0  0  0  0  0  0  0  0  0  0  0
    0.1862   -2.6734   -0.5833 H   0  0  0  0  0  0  0  0  0  0  0  0
    2.6434   -2.7424   -0.3476 H   0  0  0  0  0  0  0  0  0  0  0  0
    4.7446   -1.5860    0.1151 H   0  0  0  0  0  0  0  0  0  0  0  0
    4.7552    0.8227    0.6456 H   0  0  0  0  0  0  0  0  0  0  0  0
    2.6648    2.0841    0.7160 H   0  0  0  0  0  0  0  0  0  0  0  0
    0.2283    2.1467    0.4804 H   0  0  0  0  0  0  0  0  0  0  0  0
  1  2  1  0  0  0  0
  2  3  2  0  0  0  0
  3  4  1  0  0  0  0
  4  5  2  0  0  0  0
  5  6  1  0  0  0  0
  6  7  2  0  0  0  0
  7  8  1  0  0  0  0
  8  9  2  0  0  0  0
  9 10  1  0  0  0  0
 10 11  2  0  0  0  0
 11 12  1  0  0  0  0
 12 13  2  0  0  0  0
 13 14  1  0  0  0  0
 14 15  2  0  0  0  0
 15  2  1  0  0  0  0
 15  6  1  0  0  0  0
 13  8  1  0  0  0  0
  1 16  1  0  0  0  0
  1 17  1  0  0  0  0
  3 18  1  0  0  0  0
  4 19  1  0  0  0  0
  5 20  1  0  0  0  0
  7 21  1  0  0  0  0
  9 22  1  0  0  0  0
 10 23  1  0  0  0  0
 11 24  1  0  0  0  0
 12 25  1  0  0  0  0
 14 26  1  0  0  0  0
M  END
