
  xtb     03012221253D
 energy: -8.321597570190 gnorm: 0.000379778579 xtb: 6.4.1 (afa7bdf)
 42 44  0     0  0            999 V2000
    5.4101   -2.7864    0.1355 C   0  0  0  0  0  0  0  0  0  0  0  0
    5.1862   -1.4926    0.6394 O   0  0  0  0  0  0  0  0  0  0  0  0
    3.8845   -1.0031    0.4464 C   0  0  0  0  0  0  0  0  0  0  0  0
    3.5888    0.2608    0.9616 C   0  0  0  0  0  0  0  0  0  0  0  0
    2.3401    0.8140    0.8177 C   0  0  0  0  0  0  0  0  0  0  0  0
    1.3344    0.1262    0.1480 C   0  0  0  0  0  0  0  0  0  0  0  0
    0.0213    0.6958    0.0039 N   0  0  0  0  0  0  0  0  0  0  0  0
   -0.1383    2.0742   -0.3405 C   0  0  0  0  0  0  0  0  0  0  0  0
   -1.2540    2.7912    0.0855 C   0  0  0  0  0  0  0  0  0  0  0  0
   -1.4034    4.1185   -0.2451 C   0  0  0  0  0  0  0  0  0  0  0  0
   -0.4456    4.7570   -1.0066 C   0  0  0  0  0  0  0  0  0  0  0  0
    0.6653    4.0598   -1.4365 C   0  0  0  0  0  0  0  0  0  0  0  0
    0.8198    2.7327   -1.1081 C   0  0  0  0  0  0  0  0  0  0  0  0
   -1.1272   -0.1438    0.2158 C   0  0  0  0  0  0  0  0  0  0  0  0
   -1.1548   -1.0520    1.2682 C   0  0  0  0  0  0  0  0  0  0  0  0
   -2.2446   -1.8647    1.4626 C   0  0  0  0  0  0  0  0  0  0  0  0
   -3.3518   -1.8055    0.6136 C   0  0  0  0  0  0  0  0  0  0  0  0
   -4.4226   -2.6723    0.8847 O   0  0  0  0  0  0  0  0  0  0  0  0
   -5.4943   -2.5869   -0.0222 C   0  0  0  0  0  0  0  0  0  0  0  0
   -3.3164   -0.8920   -0.4426 C   0  0  0  0  0  0  0  0  0  0  0  0
   -2.2245   -0.0803   -0.6364 C   0  0  0  0  0  0  0  0  0  0  0  0
    1.6194   -1.1340   -0.3662 C   0  0  0  0  0  0  0  0  0  0  0  0
    2.8681   -1.6896   -0.2222 C   0  0  0  0  0  0  0  0  0  0  0  0
    5.2668   -2.7936   -0.9456 H   0  0  0  0  0  0  0  0  0  0  0  0
    4.7348   -3.4946    0.6167 H   0  0  0  0  0  0  0  0  0  0  0  0
    6.4389   -3.0718    0.3580 H   0  0  0  0  0  0  0  0  0  0  0  0
    4.3677    0.7923    1.4800 H   0  0  0  0  0  0  0  0  0  0  0  0
    2.1216    1.7838    1.2291 H   0  0  0  0  0  0  0  0  0  0  0  0
   -1.9926    2.2950    0.6900 H   0  0  0  0  0  0  0  0  0  0  0  0
   -2.2716    4.6618    0.0940 H   0  0  0  0  0  0  0  0  0  0  0  0
   -0.5644    5.7959   -1.2647 H   0  0  0  0  0  0  0  0  0  0  0  0
    1.4151    4.5565   -2.0325 H   0  0  0  0  0  0  0  0  0  0  0  0
    1.6790    2.1842   -1.4513 H   0  0  0  0  0  0  0  0  0  0  0  0
   -0.3085   -1.1051    1.9302 H   0  0  0  0  0  0  0  0  0  0  0  0
   -2.2668   -2.5666    2.2779 H   0  0  0  0  0  0  0  0  0  0  0  0
   -5.1494   -2.8259   -1.0290 H   0  0  0  0  0  0  0  0  0  0  0  0
   -5.9276   -1.5865    0.0079 H   0  0  0  0  0  0  0  0  0  0  0  0
   -6.2553   -3.3106    0.2721 H   0  0  0  0  0  0  0  0  0  0  0  0
   -4.1521   -0.8220   -1.1155 H   0  0  0  0  0  0  0  0  0  0  0  0
   -2.2009    0.6132   -1.4587 H   0  0  0  0  0  0  0  0  0  0  0  0
    0.8420   -1.6681   -0.8840 H   0  0  0  0  0  0  0  0  0  0  0  0
    3.0624   -2.6647   -0.6313 H   0  0  0  0  0  0  0  0  0  0  0  0
  1  2  1  0  0  0  0
  2  3  1  0  0  0  0
  3  4  2  0  0  0  0
  4  5  1  0  0  0  0
  5  6  2  0  0  0  0
  6  7  1  0  0  0  0
  7  8  1  0  0  0  0
  8  9  2  0  0  0  0
  9 10  1  0  0  0  0
 10 11  2  0  0  0  0
 11 12  1  0  0  0  0
 12 13  2  0  0  0  0
  7 14  1  0  0  0  0
 14 15  2  0  0  0  0
 15 16  1  0  0  0  0
 16 17  2  0  0  0  0
 17 18  1  0  0  0  0
 18 19  1  0  0  0  0
 17 20  1  0  0  0  0
 20 21  2  0  0  0  0
  6 22  1  0  0  0  0
 22 23  2  0  0  0  0
 23  3  1  0  0  0  0
 13  8  1  0  0  0  0
 21 14  1  0  0  0  0
  1 24  1  0  0  0  0
  1 25  1  0  0  0  0
  1 26  1  0  0  0  0
  4 27  1  0  0  0  0
  5 28  1  0  0  0  0
  9 29  1  0  0  0  0
 10 30  1  0  0  0  0
 11 31  1  0  0  0  0
 12 32  1  0  0  0  0
 13 33  1  0  0  0  0
 15 34  1  0  0  0  0
 16 35  1  0  0  0  0
 19 36  1  0  0  0  0
 19 37  1  0  0  0  0
 19 38  1  0  0  0  0
 20 39  1  0  0  0  0
 21 40  1  0  0  0  0
 22 41  1  0  0  0  0
 23 42  1  0  0  0  0
M  END
