
  xtb     03012221323D
 energy: -12.154743518083 gnorm: 0.000338184346 xtb: 6.4.1 (afa7bdf)
 58 63  0     0  0            999 V2000
   -2.4183    0.9023   -0.6833 O   0  0  0  0  0  0  0  0  0  0  0  0
   -2.0005   -0.0196   -0.0069 C   0  0  0  0  0  0  0  0  0  0  0  0
   -0.6310   -0.1838    0.4478 C   0  0  0  0  0  0  0  0  0  0  0  0
    0.3913    0.6641    0.1989 C   0  0  0  0  0  0  0  0  0  0  0  0
    0.2335    2.1370   -0.7281 S   0  0  0  0  0  0  0  0  0  0  0  0
    1.9224    2.5803   -0.5566 C   0  0  0  0  0  0  0  0  0  0  0  0
    2.5953    3.6858   -1.0449 C   0  0  0  0  0  0  0  0  0  0  0  0
    3.9431    3.8206   -0.7850 C   0  0  0  0  0  0  0  0  0  0  0  0
    4.6133    2.8649   -0.0440 C   0  0  0  0  0  0  0  0  0  0  0  0
    6.3706    3.0615    0.2644 S   0  0  0  0  0  6  0  0  0  0  0  0
    7.0516    2.5884   -0.9828 O   0  0  0  0  0  0  0  0  0  0  0  0
    6.5749    4.4437    0.8021 O   0  0  0  0  0  0  0  0  0  0  0  0
    6.4934    1.9818    1.5844 N   0  0  0  0  0  0  0  0  0  0  0  0
    6.9659    0.6763    1.4770 C   0  0  0  0  0  0  0  0  0  0  0  0
    7.2550    0.0722    0.2498 C   0  0  0  0  0  0  0  0  0  0  0  0
    7.6725   -1.2348    0.1842 C   0  0  0  0  0  0  0  0  0  0  0  0
    7.8139   -1.9750    1.3401 C   0  0  0  0  0  0  0  0  0  0  0  0
    7.5400   -1.3986    2.5639 C   0  0  0  0  0  0  0  0  0  0  0  0
    7.1232   -0.0904    2.6353 C   0  0  0  0  0  0  0  0  0  0  0  0
    3.9532    1.7695    0.4513 C   0  0  0  0  0  0  0  0  0  0  0  0
    2.5996    1.6203    0.1937 C   0  0  0  0  0  0  0  0  0  0  0  0
    1.7622    0.4979    0.6488 C   0  0  0  0  0  0  0  0  0  0  0  0
    2.1843   -0.4338    1.3090 O   0  0  0  0  0  0  0  0  0  0  0  0
   -0.4752   -1.6548    1.3782 S   0  0  0  0  0  0  0  0  0  0  0  0
   -2.1654   -2.0952    1.2097 C   0  0  0  0  0  0  0  0  0  0  0  0
   -2.8410   -3.1983    1.7002 C   0  0  0  0  0  0  0  0  0  0  0  0
   -4.1864   -3.3373    1.4296 C   0  0  0  0  0  0  0  0  0  0  0  0
   -4.8532   -2.3859    0.6802 C   0  0  0  0  0  0  0  0  0  0  0  0
   -6.6008   -2.6043    0.3324 S   0  0  0  0  0  6  0  0  0  0  0  0
   -6.6634   -3.6088   -0.7767 O   0  0  0  0  0  0  0  0  0  0  0  0
   -7.2912   -2.8277    1.6418 O   0  0  0  0  0  0  0  0  0  0  0  0
   -6.9390   -1.0025   -0.1600 N   0  0  0  0  0  0  0  0  0  0  0  0
   -6.9911   -0.5955   -1.4906 C   0  0  0  0  0  0  0  0  0  0  0  0
   -6.6366   -1.4311   -2.5541 C   0  0  0  0  0  0  0  0  0  0  0  0
   -6.6493   -0.9737   -3.8491 C   0  0  0  0  0  0  0  0  0  0  0  0
   -7.0173    0.3285   -4.1195 C   0  0  0  0  0  0  0  0  0  0  0  0
   -7.3784    1.1702   -3.0869 C   0  0  0  0  0  0  0  0  0  0  0  0
   -7.3684    0.7172   -1.7890 C   0  0  0  0  0  0  0  0  0  0  0  0
   -4.1937   -1.2851    0.1963 C   0  0  0  0  0  0  0  0  0  0  0  0
   -2.8409   -1.1359    0.4573 C   0  0  0  0  0  0  0  0  0  0  0  0
    2.0619    4.4228   -1.6204 H   0  0  0  0  0  0  0  0  0  0  0  0
    4.4906    4.6731   -1.1546 H   0  0  0  0  0  0  0  0  0  0  0  0
    6.7510    2.5175    2.3924 H   0  0  0  0  0  0  0  0  0  0  0  0
    7.1717    0.6592   -0.6462 H   0  0  0  0  0  0  0  0  0  0  0  0
    7.8937   -1.6814   -0.7713 H   0  0  0  0  0  0  0  0  0  0  0  0
    8.1388   -3.0013    1.2873 H   0  0  0  0  0  0  0  0  0  0  0  0
    7.6485   -1.9779    3.4661 H   0  0  0  0  0  0  0  0  0  0  0  0
    6.8942    0.3572    3.5860 H   0  0  0  0  0  0  0  0  0  0  0  0
    4.4630    1.0297    1.0420 H   0  0  0  0  0  0  0  0  0  0  0  0
   -2.3105   -3.9323    2.2821 H   0  0  0  0  0  0  0  0  0  0  0  0
   -4.7352   -4.1888    1.7996 H   0  0  0  0  0  0  0  0  0  0  0  0
   -7.6040   -0.6175    0.4847 H   0  0  0  0  0  0  0  0  0  0  0  0
   -6.3790   -2.4527   -2.3435 H   0  0  0  0  0  0  0  0  0  0  0  0
   -6.3750   -1.6342   -4.6553 H   0  0  0  0  0  0  0  0  0  0  0  0
   -7.0242    0.6873   -5.1356 H   0  0  0  0  0  0  0  0  0  0  0  0
   -7.6638    2.1876   -3.2987 H   0  0  0  0  0  0  0  0  0  0  0  0
   -7.6334    1.3750   -0.9806 H   0  0  0  0  0  0  0  0  0  0  0  0
   -4.7062   -0.5331   -0.3762 H   0  0  0  0  0  0  0  0  0  0  0  0
  1  2  2  0  0  0  0
  2  3  1  0  0  0  0
  3  4  2  0  0  0  0
  4  5  1  0  0  0  0
  5  6  1  0  0  0  0
  6  7  2  0  0  0  0
  7  8  1  0  0  0  0
  8  9  2  0  0  0  0
  9 10  1  0  0  0  0
 10 11  2  0  0  0  0
 10 12  2  0  0  0  0
 10 13  1  0  0  0  0
 13 14  1  0  0  0  0
 14 15  2  0  0  0  0
 15 16  1  0  0  0  0
 16 17  2  0  0  0  0
 17 18  1  0  0  0  0
 18 19  2  0  0  0  0
  9 20  1  0  0  0  0
 20 21  2  0  0  0  0
 21 22  1  0  0  0  0
 22 23  2  0  0  0  0
  3 24  1  0  0  0  0
 24 25  1  0  0  0  0
 25 26  2  0  0  0  0
 26 27  1  0  0  0  0
 27 28  2  0  0  0  0
 28 29  1  0  0  0  0
 29 30  2  0  0  0  0
 29 31  2  0  0  0  0
 29 32  1  0  0  0  0
 32 33  1  0  0  0  0
 33 34  2  0  0  0  0
 34 35  1  0  0  0  0
 35 36  2  0  0  0  0
 36 37  1  0  0  0  0
 37 38  2  0  0  0  0
 28 39  1  0  0  0  0
 39 40  2  0  0  0  0
 40  2  1  0  0  0  0
 22  4  1  0  0  0  0
 40 25  1  0  0  0  0
 21  6  1  0  0  0  0
 38 33  1  0  0  0  0
 19 14  1  0  0  0  0
  7 41  1  0  0  0  0
  8 42  1  0  0  0  0
 13 43  1  0  0  0  0
 15 44  1  0  0  0  0
 16 45  1  0  0  0  0
 17 46  1  0  0  0  0
 18 47  1  0  0  0  0
 19 48  1  0  0  0  0
 20 49  1  0  0  0  0
 26 50  1  0  0  0  0
 27 51  1  0  0  0  0
 32 52  1  0  0  0  0
 34 53  1  0  0  0  0
 35 54  1  0  0  0  0
 36 55  1  0  0  0  0
 37 56  1  0  0  0  0
 38 57  1  0  0  0  0
 39 58  1  0  0  0  0
M  END
