
  xtb     03012221233D
 energy: -15.955408246644 gnorm: 0.000187239865 xtb: 6.4.1 (afa7bdf)
 81 87  0     0  0            999 V2000
    8.0507    1.4482   -0.7163 C   0  0  0  0  0  0  0  0  0  0  0  0
    7.6812    1.0381   -2.0109 O   0  0  0  0  0  0  0  0  0  0  0  0
    6.3145    0.8004   -2.1802 C   0  0  0  0  0  0  0  0  0  0  0  0
    5.8796    0.3414   -3.4332 C   0  0  0  0  0  0  0  0  0  0  0  0
    4.5599    0.0803   -3.6713 C   0  0  0  0  0  0  0  0  0  0  0  0
    3.5888    0.2567   -2.6738 C   0  0  0  0  0  0  0  0  0  0  0  0
    4.0141    0.7157   -1.4056 C   0  0  0  0  0  0  0  0  0  0  0  0
    5.3575    0.9855   -1.1897 C   0  0  0  0  0  0  0  0  0  0  0  0
    3.0706    0.8827   -0.3783 N   0  0  0  0  0  0  0  0  0  0  0  0
    3.4583    1.2859    0.9525 C   0  0  0  0  0  0  0  0  0  0  0  0
    3.0626    2.5305    1.4348 C   0  0  0  0  0  0  0  0  0  0  0  0
    3.4355    2.9542    2.6872 C   0  0  0  0  0  0  0  0  0  0  0  0
    4.2163    2.1424    3.4874 C   0  0  0  0  0  0  0  0  0  0  0  0
    4.6183    0.9080    3.0316 C   0  0  0  0  0  0  0  0  0  0  0  0
    4.2508    0.4493    1.7691 C   0  0  0  0  0  0  0  0  0  0  0  0
    4.6873   -0.8826    1.3036 C   0  0  0  0  0  0  0  0  0  0  0  0
    5.9857   -1.3325    1.5432 C   0  0  0  0  0  0  0  0  0  0  0  0
    6.4034   -2.5616    1.0836 C   0  0  0  0  0  0  0  0  0  0  0  0
    5.5334   -3.3695    0.3780 C   0  0  0  0  0  0  0  0  0  0  0  0
    4.2420   -2.9449    0.1353 C   0  0  0  0  0  0  0  0  0  0  0  0
    3.8240   -1.7170    0.5951 C   0  0  0  0  0  0  0  0  0  0  0  0
    1.7281    0.6070   -0.6879 C   0  0  0  0  0  0  0  0  0  0  0  0
    0.7433    0.7257    0.2652 C   0  0  0  0  0  0  0  0  0  0  0  0
   -0.6039    0.4305   -0.0006 C   0  0  0  0  0  0  0  0  0  0  0  0
   -0.9530   -0.0087   -1.3147 C   0  0  0  0  0  0  0  0  0  0  0  0
    0.0376   -0.1347   -2.2676 C   0  0  0  0  0  0  0  0  0  0  0  0
    1.3897    0.1553   -1.9980 C   0  0  0  0  0  0  0  0  0  0  0  0
    2.2916   -0.0205   -2.9679 N   0  0  0  0  0  0  0  0  0  0  0  0
   -2.2562   -0.3075   -1.6388 O   0  0  0  0  0  0  0  0  0  0  0  0
   -3.1838   -0.1577   -0.6332 C   0  0  0  0  0  0  0  0  0  0  0  0
   -2.7898    0.2745    0.6569 C   0  0  0  0  0  0  0  0  0  0  0  0
   -3.7680    0.4081    1.6483 C   0  0  0  0  0  0  0  0  0  0  0  0
   -5.0974    0.1351    1.4087 C   0  0  0  0  0  0  0  0  0  0  0  0
   -6.1775    0.2786    2.4921 C   0  0  0  0  0  0  0  0  0  0  0  0
   -6.8592   -1.0849    2.7143 C   0  0  0  0  0  0  0  0  0  0  0  0
   -7.2224    1.3140    2.0346 C   0  0  0  0  0  0  0  0  0  0  0  0
   -5.5812    0.7489    3.8338 C   0  0  0  0  0  0  0  0  0  0  0  0
   -5.4581   -0.2856    0.1305 C   0  0  0  0  0  0  0  0  0  0  0  0
   -4.5383   -0.4375   -0.8901 C   0  0  0  0  0  0  0  0  0  0  0  0
   -4.9398   -0.9012   -2.2940 C   0  0  0  0  0  0  0  0  0  0  0  0
   -4.5513    0.1853   -3.3106 C   0  0  0  0  0  0  0  0  0  0  0  0
   -4.1970   -2.2071   -2.6210 C   0  0  0  0  0  0  0  0  0  0  0  0
   -6.4540   -1.1578   -2.4083 C   0  0  0  0  0  0  0  0  0  0  0  0
   -1.5030    0.5673    0.9734 N   0  0  0  0  0  0  0  0  0  0  0  0
    7.7721    0.6835    0.0094 H   0  0  0  0  0  0  0  0  0  0  0  0
    9.1323    1.5825   -0.6905 H   0  0  0  0  0  0  0  0  0  0  0  0
    7.5712    2.3975   -0.4757 H   0  0  0  0  0  0  0  0  0  0  0  0
    6.6162    0.1999   -4.2041 H   0  0  0  0  0  0  0  0  0  0  0  0
    4.2380   -0.2699   -4.6363 H   0  0  0  0  0  0  0  0  0  0  0  0
    5.6549    1.3394   -0.2231 H   0  0  0  0  0  0  0  0  0  0  0  0
    2.4657    3.1616    0.8003 H   0  0  0  0  0  0  0  0  0  0  0  0
    3.1207    3.9214    3.0448 H   0  0  0  0  0  0  0  0  0  0  0  0
    4.5080    2.4757    4.4704 H   0  0  0  0  0  0  0  0  0  0  0  0
    5.2134    0.2711    3.6639 H   0  0  0  0  0  0  0  0  0  0  0  0
    6.6700   -0.6955    2.0777 H   0  0  0  0  0  0  0  0  0  0  0  0
    7.4123   -2.8912    1.2698 H   0  0  0  0  0  0  0  0  0  0  0  0
    5.8628   -4.3293    0.0147 H   0  0  0  0  0  0  0  0  0  0  0  0
    3.5633   -3.5708   -0.4202 H   0  0  0  0  0  0  0  0  0  0  0  0
    2.8218   -1.3789    0.3967 H   0  0  0  0  0  0  0  0  0  0  0  0
    1.0007    1.0534    1.2523 H   0  0  0  0  0  0  0  0  0  0  0  0
   -0.2315   -0.4714   -3.2511 H   0  0  0  0  0  0  0  0  0  0  0  0
   -3.4431    0.7360    2.6178 H   0  0  0  0  0  0  0  0  0  0  0  0
   -6.1286   -1.8356    3.0134 H   0  0  0  0  0  0  0  0  0  0  0  0
   -7.3479   -1.4367    1.8071 H   0  0  0  0  0  0  0  0  0  0  0  0
   -7.6154   -1.0198    3.4958 H   0  0  0  0  0  0  0  0  0  0  0  0
   -7.7135    1.0018    1.1142 H   0  0  0  0  0  0  0  0  0  0  0  0
   -7.9926    1.4515    2.7927 H   0  0  0  0  0  0  0  0  0  0  0  0
   -6.7522    2.2796    1.8520 H   0  0  0  0  0  0  0  0  0  0  0  0
   -6.3596    0.8447    4.5901 H   0  0  0  0  0  0  0  0  0  0  0  0
   -5.1015    1.7215    3.7304 H   0  0  0  0  0  0  0  0  0  0  0  0
   -4.8456    0.0373    4.2068 H   0  0  0  0  0  0  0  0  0  0  0  0
   -6.4931   -0.4983   -0.0593 H   0  0  0  0  0  0  0  0  0  0  0  0
   -4.8150   -0.1130   -4.3248 H   0  0  0  0  0  0  0  0  0  0  0  0
   -3.4790    0.3744   -3.2825 H   0  0  0  0  0  0  0  0  0  0  0  0
   -5.0610    1.1220   -3.0874 H   0  0  0  0  0  0  0  0  0  0  0  0
   -4.4557   -2.9872   -1.9056 H   0  0  0  0  0  0  0  0  0  0  0  0
   -3.1188   -2.0589   -2.5773 H   0  0  0  0  0  0  0  0  0  0  0  0
   -4.4489   -2.5632   -3.6194 H   0  0  0  0  0  0  0  0  0  0  0  0
   -6.7733   -1.9384   -1.7183 H   0  0  0  0  0  0  0  0  0  0  0  0
   -7.0227   -0.2528   -2.1966 H   0  0  0  0  0  0  0  0  0  0  0  0
   -6.7151   -1.4823   -3.4154 H   0  0  0  0  0  0  0  0  0  0  0  0
  1  2  1  0  0  0  0
  2  3  1  0  0  0  0
  3  4  2  0  0  0  0
  4  5  1  0  0  0  0
  5  6  2  0  0  0  0
  6  7  1  0  0  0  0
  7  8  2  0  0  0  0
  7  9  1  0  0  0  0
  9 10  1  0  0  0  0
 10 11  2  0  0  0  0
 11 12  1  0  0  0  0
 12 13  2  0  0  0  0
 13 14  1  0  0  0  0
 14 15  2  0  0  0  0
 15 16  1  0  0  0  0
 16 17  2  0  0  0  0
 17 18  1  0  0  0  0
 18 19  2  0  0  0  0
 19 20  1  0  0  0  0
 20 21  2  0  0  0  0
  9 22  1  0  0  0  0
 22 23  2  0  0  0  0
 23 24  1  0  0  0  0
 24 25  1  0  0  0  0
 25 26  2  0  0  0  0
 26 27  1  0  0  0  0
 27 28  2  0  0  0  0
 25 29  1  0  0  0  0
 29 30  1  0  0  0  0
 30 31  2  0  0  0  0
 31 32  1  0  0  0  0
 32 33  2  0  0  0  0
 33 34  1  0  0  0  0
 34 35  1  0  0  0  0
 34 36  1  0  0  0  0
 34 37  1  0  0  0  0
 33 38  1  0  0  0  0
 38 39  2  0  0  0  0
 39 40  1  0  0  0  0
 40 41  1  0  0  0  0
 40 42  1  0  0  0  0
 40 43  1  0  0  0  0
 31 44  1  0  0  0  0
  8  3  1  0  0  0  0
 15 10  1  0  0  0  0
 21 16  1  0  0  0  0
 27 22  1  0  0  0  0
 39 30  1  0  0  0  0
 28  6  1  0  0  0  0
 44 24  2  0  0  0  0
  1 45  1  0  0  0  0
  1 46  1  0  0  0  0
  1 47  1  0  0  0  0
  4 48  1  0  0  0  0
  5 49  1  0  0  0  0
  8 50  1  0  0  0  0
 11 51  1  0  0  0  0
 12 52  1  0  0  0  0
 13 53  1  0  0  0  0
 14 54  1  0  0  0  0
 17 55  1  0  0  0  0
 18 56  1  0  0  0  0
 19 57  1  0  0  0  0
 20 58  1  0  0  0  0
 21 59  1  0  0  0  0
 23 60  1  0  0  0  0
 26 61  1  0  0  0  0
 32 62  1  0  0  0  0
 35 63  1  0  0  0  0
 35 64  1  0  0  0  0
 35 65  1  0  0  0  0
 36 66  1  0  0  0  0
 36 67  1  0  0  0  0
 36 68  1  0  0  0  0
 37 69  1  0  0  0  0
 37 70  1  0  0  0  0
 37 71  1  0  0  0  0
 38 72  1  0  0  0  0
 41 73  1  0  0  0  0
 41 74  1  0  0  0  0
 41 75  1  0  0  0  0
 42 76  1  0  0  0  0
 42 77  1  0  0  0  0
 42 78  1  0  0  0  0
 43 79  1  0  0  0  0
 43 80  1  0  0  0  0
 43 81  1  0  0  0  0
M  END
