
  xtb     03012221293D
 energy: -6.210131239252 gnorm: 0.000643621540 xtb: 6.4.1 (afa7bdf)
 31 33  0     0  0            999 V2000
   -1.5515   -1.0270    3.8847 N   0  0  0  0  0  0  0  0  0  0  0  0
   -0.9041   -0.7644    2.9558 C   0  0  0  0  0  0  0  0  0  0  0  0
   -0.1714   -0.4302    1.8072 C   0  0  0  0  0  0  0  0  0  0  0  0
    1.1235   -0.5996    1.6620 N   0  0  0  0  0  0  0  0  0  0  0  0
    1.3472   -0.1512    0.4347 N   0  0  0  0  0  0  0  0  0  0  0  0
    2.6732   -0.1296   -0.1428 C   0  0  0  0  0  0  0  0  0  0  0  0
    3.1125    0.9882   -0.8282 C   0  0  0  0  0  0  0  0  0  0  0  0
    4.3854    1.0234   -1.3619 C   0  0  0  0  0  0  0  0  0  0  0  0
    5.2281   -0.0608   -1.2156 C   0  0  0  0  0  0  0  0  0  0  0  0
    4.7973   -1.1845   -0.5401 C   0  0  0  0  0  0  0  0  0  0  0  0
    3.5235   -1.2259   -0.0073 C   0  0  0  0  0  0  0  0  0  0  0  0
    2.9695   -2.6555    0.7816 Cl  0  0  0  0  0  0  0  0  0  0  0  0
    0.2948    0.3185   -0.2461 N   0  0  0  0  0  0  0  0  0  0  0  0
   -0.6859    0.1493    0.6015 C   0  0  0  0  0  0  0  0  0  0  0  0
   -2.0487    0.4876    0.3515 N   0  0  0  0  0  0  0  0  0  0  0  0
   -2.4626    0.9052   -1.0072 C   0  0  0  0  0  0  0  0  0  0  0  0
   -3.9349    0.4884   -1.1821 C   0  0  0  0  0  0  0  0  0  0  0  0
   -4.4295    0.0919    0.2236 C   0  0  0  0  0  0  0  0  0  0  0  0
   -3.1610   -0.2191    1.0304 C   0  0  0  0  0  0  0  0  0  0  0  0
    2.4469    1.8267   -0.9333 H   0  0  0  0  0  0  0  0  0  0  0  0
    4.7221    1.8990   -1.8914 H   0  0  0  0  0  0  0  0  0  0  0  0
    6.2225   -0.0310   -1.6307 H   0  0  0  0  0  0  0  0  0  0  0  0
    5.4411   -2.0394   -0.4226 H   0  0  0  0  0  0  0  0  0  0  0  0
   -1.8010    0.4368   -1.7422 H   0  0  0  0  0  0  0  0  0  0  0  0
   -2.3295    1.9880   -1.0864 H   0  0  0  0  0  0  0  0  0  0  0  0
   -4.0107   -0.3649   -1.8661 H   0  0  0  0  0  0  0  0  0  0  0  0
   -4.5387    1.2926   -1.6196 H   0  0  0  0  0  0  0  0  0  0  0  0
   -5.1174   -0.7619    0.1959 H   0  0  0  0  0  0  0  0  0  0  0  0
   -4.9771    0.9221    0.6842 H   0  0  0  0  0  0  0  0  0  0  0  0
   -3.2263    0.1171    2.0701 H   0  0  0  0  0  0  0  0  0  0  0  0
   -2.9373   -1.2898    1.0404 H   0  0  0  0  0  0  0  0  0  0  0  0
  1  2  3  0  0  0  0
  2  3  1  0  0  0  0
  3  4  2  0  0  0  0
  4  5  1  0  0  0  0
  5  6  1  0  0  0  0
  6  7  2  0  0  0  0
  7  8  1  0  0  0  0
  8  9  2  0  0  0  0
  9 10  1  0  0  0  0
 10 11  2  0  0  0  0
 11 12  1  0  0  0  0
  5 13  1  0  0  0  0
 13 14  2  0  0  0  0
 14 15  1  0  0  0  0
 15 16  1  0  0  0  0
 16 17  1  0  0  0  0
 17 18  1  0  0  0  0
 18 19  1  0  0  0  0
 14  3  1  0  0  0  0
 19 15  1  0  0  0  0
 11  6  1  0  0  0  0
  7 20  1  0  0  0  0
  8 21  1  0  0  0  0
  9 22  1  0  0  0  0
 10 23  1  0  0  0  0
 16 24  1  0  0  0  0
 16 25  1  0  0  0  0
 17 26  1  0  0  0  0
 17 27  1  0  0  0  0
 18 28  1  0  0  0  0
 18 29  1  0  0  0  0
 19 30  1  0  0  0  0
 19 31  1  0  0  0  0
M  END
