
  xtb     03012221293D
 energy: -7.693894979776 gnorm: 0.000596484624 xtb: 6.4.1 (afa7bdf)
 37 39  0     0  0            999 V2000
   -6.4692   -1.0443    2.1997 C   0  0  0  0  0  0  0  0  0  0  0  0
   -5.8601    0.0947    1.6405 O   0  0  0  0  0  0  0  0  0  0  0  0
   -4.5110   -0.0525    1.3081 C   0  0  0  0  0  0  0  0  0  0  0  0
   -3.7714   -1.2053    1.5385 C   0  0  0  0  0  0  0  0  0  0  0  0
   -2.4417   -1.2825    1.1833 C   0  0  0  0  0  0  0  0  0  0  0  0
   -1.8035   -0.2073    0.5841 C   0  0  0  0  0  0  0  0  0  0  0  0
   -0.4479   -0.2844    0.2155 C   0  0  0  0  0  0  0  0  0  0  0  0
    0.7274   -0.3432   -0.1134 C   0  0  0  0  0  0  0  0  0  0  0  0
    2.0781   -0.4020   -0.5003 C   0  0  0  0  0  0  0  0  0  0  0  0
    2.6961    0.6973   -1.0897 C   0  0  0  0  0  0  0  0  0  0  0  0
    4.0151    0.6423   -1.4705 C   0  0  0  0  0  0  0  0  0  0  0  0
    4.7606   -0.5158   -1.2743 C   0  0  0  0  0  0  0  0  0  0  0  0
    6.1588   -0.5733   -1.6794 C   0  0  0  0  0  0  0  0  0  0  0  0
    6.9652   -1.6692   -1.5252 N   0  0  0  0  0  0  0  0  0  0  0  0
    8.1045   -1.3694   -1.9828 N   0  0  0  0  0  0  0  0  0  0  0  0
    8.0011   -0.1173   -2.4089 N   0  0  0  0  0  0  0  0  0  0  0  0
    6.8234    0.4216   -2.2463 N   0  0  0  0  0  0  0  0  0  0  0  0
    4.1457   -1.6164   -0.6853 C   0  0  0  0  0  0  0  0  0  0  0  0
    2.8265   -1.5595   -0.3051 C   0  0  0  0  0  0  0  0  0  0  0  0
   -2.5326    0.9546    0.3494 C   0  0  0  0  0  0  0  0  0  0  0  0
   -3.8697    1.0604    0.6958 C   0  0  0  0  0  0  0  0  0  0  0  0
   -4.6476    2.2044    0.4797 O   0  0  0  0  0  0  0  0  0  0  0  0
   -3.9635    3.2981   -0.0828 C   0  0  0  0  0  0  0  0  0  0  0  0
   -7.5178   -0.8112    2.3894 H   0  0  0  0  0  0  0  0  0  0  0  0
   -6.4118   -1.8773    1.4979 H   0  0  0  0  0  0  0  0  0  0  0  0
   -5.9853   -1.2978    3.1439 H   0  0  0  0  0  0  0  0  0  0  0  0
   -4.2398   -2.0536    2.0023 H   0  0  0  0  0  0  0  0  0  0  0  0
   -1.8818   -2.1831    1.3674 H   0  0  0  0  0  0  0  0  0  0  0  0
    2.1233    1.5964   -1.2445 H   0  0  0  0  0  0  0  0  0  0  0  0
    4.4913    1.4932   -1.9263 H   0  0  0  0  0  0  0  0  0  0  0  0
    8.7925    0.3893   -2.8364 H   0  0  0  0  0  0  0  0  0  0  0  0
    4.7224   -2.5124   -0.5337 H   0  0  0  0  0  0  0  0  0  0  0  0
    2.3550   -2.4145    0.1500 H   0  0  0  0  0  0  0  0  0  0  0  0
   -2.0308    1.7813   -0.1159 H   0  0  0  0  0  0  0  0  0  0  0  0
   -3.5894    3.0320   -1.0717 H   0  0  0  0  0  0  0  0  0  0  0  0
   -4.6658    4.1265   -0.1800 H   0  0  0  0  0  0  0  0  0  0  0  0
   -3.1462    3.6004    0.5726 H   0  0  0  0  0  0  0  0  0  0  0  0
  1  2  1  0  0  0  0
  2  3  1  0  0  0  0
  3  4  2  0  0  0  0
  4  5  1  0  0  0  0
  5  6  2  0  0  0  0
  6  7  1  0  0  0  0
  7  8  3  0  0  0  0
  8  9  1  0  0  0  0
  9 10  2  0  0  0  0
 10 11  1  0  0  0  0
 11 12  2  0  0  0  0
 12 13  1  0  0  0  0
 13 14  1  0  0  0  0
 14 15  2  0  0  0  0
 15 16  1  0  0  0  0
 16 17  1  0  0  0  0
 12 18  1  0  0  0  0
 18 19  2  0  0  0  0
  6 20  1  0  0  0  0
 20 21  2  0  0  0  0
 21 22  1  0  0  0  0
 22 23  1  0  0  0  0
 21  3  1  0  0  0  0
 19  9  1  0  0  0  0
 17 13  2  0  0  0  0
  1 24  1  0  0  0  0
  1 25  1  0  0  0  0
  1 26  1  0  0  0  0
  4 27  1  0  0  0  0
  5 28  1  0  0  0  0
 10 29  1  0  0  0  0
 11 30  1  0  0  0  0
 16 31  1  0  0  0  0
 18 32  1  0  0  0  0
 19 33  1  0  0  0  0
 20 34  1  0  0  0  0
 23 35  1  0  0  0  0
 23 36  1  0  0  0  0
 23 37  1  0  0  0  0
M  END
