
  xtb     03012221243D
 energy: -12.693511104175 gnorm: 0.000147089116 xtb: 6.4.1 (afa7bdf)
 59 66  0     0  0            999 V2000
   -5.3343   -0.9646    0.5194 C   0  0  0  0  0  0  0  0  0  0  0  0
   -4.4066    0.2056    0.1362 C   0  0  0  0  0  0  0  0  0  0  0  0
   -5.2407    1.4595   -0.1936 C   0  0  0  0  0  0  0  0  0  0  0  0
   -3.6124   -0.1938   -1.1146 C   0  0  0  0  0  0  0  0  0  0  0  0
   -4.2895   -0.5145   -2.2815 C   0  0  0  0  0  0  0  0  0  0  0  0
   -3.6184   -0.8936   -3.4265 C   0  0  0  0  0  0  0  0  0  0  0  0
   -2.2425   -0.9628   -3.4217 C   0  0  0  0  0  0  0  0  0  0  0  0
   -1.5507   -0.6482   -2.2771 C   0  0  0  0  0  0  0  0  0  0  0  0
   -2.2133   -0.2551   -1.1150 C   0  0  0  0  0  0  0  0  0  0  0  0
   -1.4638    0.0708    0.0459 N   0  0  0  0  0  0  0  0  0  0  0  0
   -0.0204    0.0035    0.0016 C   0  0  0  0  0  0  0  0  0  0  0  0
    0.6880    0.9985   -0.7021 C   0  0  0  0  0  0  0  0  0  0  0  0
    2.0776    0.9436   -0.7597 C   0  0  0  0  0  0  0  0  0  0  0  0
    3.2303    1.6459   -1.3104 C   0  0  0  0  0  0  0  0  0  0  0  0
    3.3290    2.7910   -2.0987 C   0  0  0  0  0  0  0  0  0  0  0  0
    4.5771    3.2236   -2.4810 C   0  0  0  0  0  0  0  0  0  0  0  0
    5.7303    2.5378   -2.0933 C   0  0  0  0  0  0  0  0  0  0  0  0
    5.6578    1.4057   -1.3158 C   0  0  0  0  0  0  0  0  0  0  0  0
    4.4068    0.9482   -0.9170 C   0  0  0  0  0  0  0  0  0  0  0  0
    4.0477   -0.1885   -0.1258 N   0  0  0  0  0  0  0  0  0  0  0  0
    4.3470   -1.3559    0.6452 C   0  0  0  0  0  0  0  0  0  0  0  0
    5.5718   -1.9304    0.9665 C   0  0  0  0  0  0  0  0  0  0  0  0
    5.5857   -3.0670    1.7408 C   0  0  0  0  0  0  0  0  0  0  0  0
    4.3994   -3.6425    2.2013 C   0  0  0  0  0  0  0  0  0  0  0  0
    3.1762   -3.0932    1.8964 C   0  0  0  0  0  0  0  0  0  0  0  0
    3.1369   -1.9413    1.1128 C   0  0  0  0  0  0  0  0  0  0  0  0
    2.0233   -1.1326    0.6323 C   0  0  0  0  0  0  0  0  0  0  0  0
    0.6339   -1.0558    0.6627 C   0  0  0  0  0  0  0  0  0  0  0  0
    2.6609   -0.1236   -0.0832 C   0  0  0  0  0  0  0  0  0  0  0  0
   -2.1080    0.4585    1.2502 C   0  0  0  0  0  0  0  0  0  0  0  0
   -1.3424    0.7844    2.3690 C   0  0  0  0  0  0  0  0  0  0  0  0
   -1.9313    1.1550    3.5537 C   0  0  0  0  0  0  0  0  0  0  0  0
   -3.3050    1.2113    3.6430 C   0  0  0  0  0  0  0  0  0  0  0  0
   -4.0766    0.9004    2.5417 C   0  0  0  0  0  0  0  0  0  0  0  0
   -3.5042    0.5246    1.3358 C   0  0  0  0  0  0  0  0  0  0  0  0
   -6.0119   -1.2179   -0.2946 H   0  0  0  0  0  0  0  0  0  0  0  0
   -4.7470   -1.8514    0.7557 H   0  0  0  0  0  0  0  0  0  0  0  0
   -5.9421   -0.7223    1.3898 H   0  0  0  0  0  0  0  0  0  0  0  0
   -5.8427    1.7719    0.6583 H   0  0  0  0  0  0  0  0  0  0  0  0
   -5.9181    1.2790   -1.0268 H   0  0  0  0  0  0  0  0  0  0  0  0
   -4.5872    2.2880   -0.4650 H   0  0  0  0  0  0  0  0  0  0  0  0
   -5.3648   -0.4688   -2.2959 H   0  0  0  0  0  0  0  0  0  0  0  0
   -4.1687   -1.1372   -4.3205 H   0  0  0  0  0  0  0  0  0  0  0  0
   -1.7115   -1.2615   -4.3112 H   0  0  0  0  0  0  0  0  0  0  0  0
   -0.4769   -0.7061   -2.2699 H   0  0  0  0  0  0  0  0  0  0  0  0
    0.1547    1.7918   -1.1912 H   0  0  0  0  0  0  0  0  0  0  0  0
    2.4373    3.3142   -2.3958 H   0  0  0  0  0  0  0  0  0  0  0  0
    4.6678    4.1071   -3.0916 H   0  0  0  0  0  0  0  0  0  0  0  0
    6.6936    2.9022   -2.4101 H   0  0  0  0  0  0  0  0  0  0  0  0
    6.5411    0.8710   -1.0143 H   0  0  0  0  0  0  0  0  0  0  0  0
    6.4809   -1.4803    0.6091 H   0  0  0  0  0  0  0  0  0  0  0  0
    6.5282   -3.5216    1.9978 H   0  0  0  0  0  0  0  0  0  0  0  0
    4.4444   -4.5327    2.8072 H   0  0  0  0  0  0  0  0  0  0  0  0
    2.2594   -3.5313    2.2496 H   0  0  0  0  0  0  0  0  0  0  0  0
    0.0600   -1.7964    1.1872 H   0  0  0  0  0  0  0  0  0  0  0  0
   -0.2703    0.7446    2.2958 H   0  0  0  0  0  0  0  0  0  0  0  0
   -1.3219    1.4000    4.4087 H   0  0  0  0  0  0  0  0  0  0  0  0
   -3.7750    1.4997    4.5689 H   0  0  0  0  0  0  0  0  0  0  0  0
   -5.1487    0.9533    2.6218 H   0  0  0  0  0  0  0  0  0  0  0  0
  1  2  1  0  0  0  0
  2  3  1  0  0  0  0
  2  4  1  0  0  0  0
  4  5  2  0  0  0  0
  5  6  1  0  0  0  0
  6  7  2  0  0  0  0
  7  8  1  0  0  0  0
  8  9  2  0  0  0  0
  9 10  1  0  0  0  0
 10 11  1  0  0  0  0
 11 12  2  0  0  0  0
 12 13  1  0  0  0  0
 13 14  1  0  0  0  0
 14 15  2  0  0  0  0
 15 16  1  0  0  0  0
 16 17  2  0  0  0  0
 17 18  1  0  0  0  0
 18 19  2  0  0  0  0
 19 20  1  0  0  0  0
 20 21  1  0  0  0  0
 21 22  2  0  0  0  0
 22 23  1  0  0  0  0
 23 24  2  0  0  0  0
 24 25  1  0  0  0  0
 25 26  2  0  0  0  0
 26 27  1  0  0  0  0
 27 28  2  0  0  0  0
 27 29  1  0  0  0  0
 10 30  1  0  0  0  0
 30 31  2  0  0  0  0
 31 32  1  0  0  0  0
 32 33  2  0  0  0  0
 33 34  1  0  0  0  0
 34 35  2  0  0  0  0
 35  2  1  0  0  0  0
  9  4  1  0  0  0  0
 28 11  1  0  0  0  0
 35 30  1  0  0  0  0
 29 13  2  0  0  0  0
 19 14  1  0  0  0  0
 29 20  1  0  0  0  0
 26 21  1  0  0  0  0
  1 36  1  0  0  0  0
  1 37  1  0  0  0  0
  1 38  1  0  0  0  0
  3 39  1  0  0  0  0
  3 40  1  0  0  0  0
  3 41  1  0  0  0  0
  5 42  1  0  0  0  0
  6 43  1  0  0  0  0
  7 44  1  0  0  0  0
  8 45  1  0  0  0  0
 12 46  1  0  0  0  0
 15 47  1  0  0  0  0
 16 48  1  0  0  0  0
 17 49  1  0  0  0  0
 18 50  1  0  0  0  0
 22 51  1  0  0  0  0
 23 52  1  0  0  0  0
 24 53  1  0  0  0  0
 25 54  1  0  0  0  0
 28 55  1  0  0  0  0
 31 56  1  0  0  0  0
 32 57  1  0  0  0  0
 33 58  1  0  0  0  0
 34 59  1  0  0  0  0
M  END
