
  xtb     03012221303D
 energy: -7.021902586498 gnorm: 0.000294689263 xtb: 6.4.1 (afa7bdf)
 38 40  0     0  0            999 V2000
   -2.5802   -1.5249    0.6784 C   0  0  0  0  0  0  0  0  0  0  0  0
   -2.1261   -1.5375   -0.7646 C   0  0  0  0  0  0  0  0  0  0  0  0
   -0.7024   -1.8877   -0.9064 N   0  0  0  0  0  0  0  0  0  0  0  0
   -0.3752   -3.2788   -1.2554 C   0  0  0  0  0  0  0  0  0  0  0  0
    0.0528   -4.0846   -0.0495 C   0  0  0  0  0  0  0  0  0  0  0  0
    0.3046   -0.9698   -0.6753 C   0  0  0  0  0  0  0  0  0  0  0  0
    2.0042   -1.2975   -0.8515 S   0  0  0  0  0  0  0  0  0  0  0  0
    2.4689    0.3271   -0.3752 C   0  0  0  0  0  0  0  0  0  0  0  0
    3.8275    0.7955   -0.2890 C   0  0  0  0  0  0  0  0  0  0  0  0
    4.2251    2.0508    0.0790 C   0  0  0  0  0  0  0  0  0  0  0  0
    5.6343    2.2305    0.0748 C   0  0  0  0  0  0  0  0  0  0  0  0
    6.3151    1.1239   -0.2928 C   0  0  0  0  0  0  0  0  0  0  0  0
    5.2337   -0.1778   -0.6461 S   0  0  0  0  0  0  0  0  0  0  0  0
    1.3529    1.0588   -0.1035 C   0  0  0  0  0  0  0  0  0  0  0  0
    0.1310    0.3488   -0.2675 C   0  0  0  0  0  0  0  0  0  0  0  0
   -1.0923    0.9190   -0.0114 N   0  0  0  0  0  0  0  0  0  0  0  0
   -1.1905    2.0854    0.4052 N   0  0  0  0  0  0  0  0  0  0  0  0
   -2.4308    2.5761    0.6770 C   0  0  0  0  0  0  0  0  0  0  0  0
   -3.5254    1.8740    0.5551 N   0  0  0  0  0  0  0  0  0  0  0  0
   -4.6280    2.6032    0.8925 C   0  0  0  0  0  0  0  0  0  0  0  0
   -4.4052    3.8785    1.2807 C   0  0  0  0  0  0  0  0  0  0  0  0
   -2.7217    4.2200    1.2324 S   0  0  0  0  0  0  0  0  0  0  0  0
   -1.9845   -0.8229    1.2644 H   0  0  0  0  0  0  0  0  0  0  0  0
   -3.6266   -1.2269    0.7758 H   0  0  0  0  0  0  0  0  0  0  0  0
   -2.4673   -2.5077    1.1379 H   0  0  0  0  0  0  0  0  0  0  0  0
   -2.2720   -0.5541   -1.2253 H   0  0  0  0  0  0  0  0  0  0  0  0
   -2.7258   -2.2348   -1.3581 H   0  0  0  0  0  0  0  0  0  0  0  0
    0.4184   -3.2536   -2.0099 H   0  0  0  0  0  0  0  0  0  0  0  0
   -1.2394   -3.7371   -1.7470 H   0  0  0  0  0  0  0  0  0  0  0  0
    0.9137   -3.6252    0.4392 H   0  0  0  0  0  0  0  0  0  0  0  0
   -0.7456   -4.1367    0.6921 H   0  0  0  0  0  0  0  0  0  0  0  0
    0.3272   -5.1082   -0.3144 H   0  0  0  0  0  0  0  0  0  0  0  0
    3.5326    2.8337    0.3479 H   0  0  0  0  0  0  0  0  0  0  0  0
    6.1108    3.1629    0.3394 H   0  0  0  0  0  0  0  0  0  0  0  0
    7.3838    1.0438   -0.3624 H   0  0  0  0  0  0  0  0  0  0  0  0
    1.3719    2.0873    0.2136 H   0  0  0  0  0  0  0  0  0  0  0  0
   -5.6143    2.1603    0.8416 H   0  0  0  0  0  0  0  0  0  0  0  0
   -5.1554    4.5861    1.5781 H   0  0  0  0  0  0  0  0  0  0  0  0
  1  2  1  0  0  0  0
  2  3  1  0  0  0  0
  3  4  1  0  0  0  0
  4  5  1  0  0  0  0
  3  6  1  0  0  0  0
  6  7  1  0  0  0  0
  7  8  1  0  0  0  0
  8  9  1  0  0  0  0
  9 10  2  0  0  0  0
 10 11  1  0  0  0  0
 11 12  2  0  0  0  0
 12 13  1  0  0  0  0
  8 14  2  0  0  0  0
 14 15  1  0  0  0  0
 15 16  1  0  0  0  0
 16 17  2  0  0  0  0
 17 18  1  0  0  0  0
 18 19  2  0  0  0  0
 19 20  1  0  0  0  0
 20 21  2  0  0  0  0
 21 22  1  0  0  0  0
 15  6  2  0  0  0  0
 22 18  1  0  0  0  0
 13  9  1  0  0  0  0
  1 23  1  0  0  0  0
  1 24  1  0  0  0  0
  1 25  1  0  0  0  0
  2 26  1  0  0  0  0
  2 27  1  0  0  0  0
  4 28  1  0  0  0  0
  4 29  1  0  0  0  0
  5 30  1  0  0  0  0
  5 31  1  0  0  0  0
  5 32  1  0  0  0  0
 10 33  1  0  0  0  0
 11 34  1  0  0  0  0
 12 35  1  0  0  0  0
 14 36  1  0  0  0  0
 20 37  1  0  0  0  0
 21 38  1  0  0  0  0
M  END
