
  xtb     03012221323D
 energy: -9.485901388062 gnorm: 0.000326123818 xtb: 6.4.1 (afa7bdf)
 50 53  0     0  0            999 V2000
   -5.6903    1.3091   -2.4825 C   0  0  0  0  0  0  0  0  0  0  0  0
   -4.7474    0.9484   -1.3490 C   0  0  0  0  0  0  0  0  0  0  0  0
   -5.0288   -0.4379   -0.7687 C   0  0  0  0  0  0  0  0  0  0  0  0
   -4.0466   -0.8484    0.3300 C   0  0  0  0  0  0  0  0  0  0  0  0
   -4.1607   -0.0130    1.6023 C   0  0  0  0  0  0  0  0  0  0  0  0
   -3.1163   -0.4073    2.6310 C   0  0  0  0  0  0  0  0  0  0  0  0
   -1.7777   -0.2451    2.0994 N   0  0  0  0  0  0  0  0  0  0  0  0
   -1.2940    1.0585    1.9337 C   0  0  0  0  0  0  0  0  0  0  0  0
   -1.9797    2.0261    2.2122 O   0  0  0  0  0  0  0  0  0  0  0  0
    0.0633    1.2182    1.3984 C   0  0  0  0  0  0  0  0  0  0  0  0
    0.6063    2.4701    1.2619 C   0  0  0  0  0  0  0  0  0  0  0  0
    1.8908    2.6347    0.7558 C   0  0  0  0  0  0  0  0  0  0  0  0
    2.6289    1.5501    0.3851 C   0  0  0  0  0  0  0  0  0  0  0  0
    2.1251    0.2373    0.4988 C   0  0  0  0  0  0  0  0  0  0  0  0
    2.8759   -0.9253    0.1120 C   0  0  0  0  0  0  0  0  0  0  0  0
    4.2245   -0.8240   -0.4274 C   0  0  0  0  0  0  0  0  0  0  0  0
    5.0326   -1.8513   -0.8306 C   0  0  0  0  0  0  0  0  0  0  0  0
    6.3054   -1.4417   -1.3135 C   0  0  0  0  0  0  0  0  0  0  0  0
    6.5088   -0.0999   -1.2955 C   0  0  0  0  0  0  0  0  0  0  0  0
    7.7343    0.5952   -1.7349 C   0  0  0  0  0  0  0  0  0  0  0  0
    5.0859    0.6784   -0.6658 S   0  0  0  0  0  0  0  0  0  0  0  0
    2.2845   -2.1675    0.2644 C   0  0  0  0  0  0  0  0  0  0  0  0
    1.0038   -2.3127    0.7752 C   0  0  0  0  0  0  0  0  0  0  0  0
    0.2647   -1.2203    1.1544 C   0  0  0  0  0  0  0  0  0  0  0  0
    0.8167    0.0769    1.0189 C   0  0  0  0  0  0  0  0  0  0  0  0
   -1.0867   -1.3942    1.6933 C   0  0  0  0  0  0  0  0  0  0  0  0
   -1.5986   -2.4976    1.7724 O   0  0  0  0  0  0  0  0  0  0  0  0
   -5.4799    2.3005   -2.8929 H   0  0  0  0  0  0  0  0  0  0  0  0
   -6.7305    1.3063   -2.1478 H   0  0  0  0  0  0  0  0  0  0  0  0
   -5.6151    0.5919   -3.3035 H   0  0  0  0  0  0  0  0  0  0  0  0
   -3.7068    0.9911   -1.6954 H   0  0  0  0  0  0  0  0  0  0  0  0
   -4.8131    1.7030   -0.5557 H   0  0  0  0  0  0  0  0  0  0  0  0
   -5.0080   -1.1741   -1.5820 H   0  0  0  0  0  0  0  0  0  0  0  0
   -6.0521   -0.4710   -0.3775 H   0  0  0  0  0  0  0  0  0  0  0  0
   -3.0215   -0.7786   -0.0525 H   0  0  0  0  0  0  0  0  0  0  0  0
   -4.1785   -1.9071    0.5867 H   0  0  0  0  0  0  0  0  0  0  0  0
   -4.0229    1.0472    1.3622 H   0  0  0  0  0  0  0  0  0  0  0  0
   -5.1713   -0.0980    2.0195 H   0  0  0  0  0  0  0  0  0  0  0  0
   -3.1938    0.2015    3.5384 H   0  0  0  0  0  0  0  0  0  0  0  0
   -3.2358   -1.4542    2.9295 H   0  0  0  0  0  0  0  0  0  0  0  0
    0.0177    3.3218    1.5569 H   0  0  0  0  0  0  0  0  0  0  0  0
    2.3021    3.6260    0.6584 H   0  0  0  0  0  0  0  0  0  0  0  0
    3.6262    1.7022   -0.0056 H   0  0  0  0  0  0  0  0  0  0  0  0
    4.7393   -2.8881   -0.7917 H   0  0  0  0  0  0  0  0  0  0  0  0
    7.0533   -2.1378   -1.6663 H   0  0  0  0  0  0  0  0  0  0  0  0
    8.5926    0.2890   -1.1350 H   0  0  0  0  0  0  0  0  0  0  0  0
    7.9551    0.3742   -2.7803 H   0  0  0  0  0  0  0  0  0  0  0  0
    7.6238    1.6760   -1.6359 H   0  0  0  0  0  0  0  0  0  0  0  0
    2.8301   -3.0492   -0.0187 H   0  0  0  0  0  0  0  0  0  0  0  0
    0.5650   -3.2895    0.8864 H   0  0  0  0  0  0  0  0  0  0  0  0
  1  2  1  0  0  0  0
  2  3  1  0  0  0  0
  3  4  1  0  0  0  0
  4  5  1  0  0  0  0
  5  6  1  0  0  0  0
  6  7  1  0  0  0  0
  7  8  1  0  0  0  0
  8  9  2  0  0  0  0
  8 10  1  0  0  0  0
 10 11  1  0  0  0  0
 11 12  2  0  0  0  0
 12 13  1  0  0  0  0
 13 14  2  0  0  0  0
 14 15  1  0  0  0  0
 15 16  1  0  0  0  0
 16 17  2  0  0  0  0
 17 18  1  0  0  0  0
 18 19  2  0  0  0  0
 19 20  1  0  0  0  0
 19 21  1  0  0  0  0
 15 22  2  0  0  0  0
 22 23  1  0  0  0  0
 23 24  2  0  0  0  0
 24 25  1  0  0  0  0
 24 26  1  0  0  0  0
 26 27  2  0  0  0  0
 26  7  1  0  0  0  0
 25 10  2  0  0  0  0
 25 14  1  0  0  0  0
 21 16  1  0  0  0  0
  1 28  1  0  0  0  0
  1 29  1  0  0  0  0
  1 30  1  0  0  0  0
  2 31  1  0  0  0  0
  2 32  1  0  0  0  0
  3 33  1  0  0  0  0
  3 34  1  0  0  0  0
  4 35  1  0  0  0  0
  4 36  1  0  0  0  0
  5 37  1  0  0  0  0
  5 38  1  0  0  0  0
  6 39  1  0  0  0  0
  6 40  1  0  0  0  0
 11 41  1  0  0  0  0
 12 42  1  0  0  0  0
 13 43  1  0  0  0  0
 17 44  1  0  0  0  0
 18 45  1  0  0  0  0
 20 46  1  0  0  0  0
 20 47  1  0  0  0  0
 20 48  1  0  0  0  0
 22 49  1  0  0  0  0
 23 50  1  0  0  0  0
M  END
