
  xtb     03012221223D
 energy: -6.039442763984 gnorm: 0.000162054867 xtb: 6.4.1 (afa7bdf)
 31 33  0     0  0            999 V2000
   -7.3416    0.8352    0.1097 C   0  0  0  0  0  0  0  0  0  0  0  0
   -6.0286    0.0853    0.0520 C   0  0  0  0  0  0  0  0  0  0  0  0
   -4.9178    0.9582    0.2248 O   0  0  0  0  0  0  0  0  0  0  0  0
   -3.6914    0.3238    0.1661 C   0  0  0  0  0  0  0  0  0  0  0  0
   -3.4135   -1.0075   -0.0201 C   0  0  0  0  0  0  0  0  0  0  0  0
   -2.0351   -1.3160   -0.0304 C   0  0  0  0  0  0  0  0  0  0  0  0
   -1.2209   -0.2350    0.1462 C   0  0  0  0  0  0  0  0  0  0  0  0
    0.2133   -0.2610    0.1732 C   0  0  0  0  0  0  0  0  0  0  0  0
    1.0295    0.8243    0.3452 C   0  0  0  0  0  0  0  0  0  0  0  0
    2.4067    0.5139    0.3234 C   0  0  0  0  0  0  0  0  0  0  0  0
    2.6679   -0.8093    0.1376 C   0  0  0  0  0  0  0  0  0  0  0  0
    3.9094   -1.3363    0.0795 N   0  0  0  0  0  0  0  0  0  0  0  0
    5.0490   -1.7535    0.0300 N   0  0  0  0  0  0  0  0  0  0  0  0
    6.0724   -0.8539    0.0589 C   0  0  0  0  0  0  0  0  0  0  0  0
    5.8893    0.4358    0.1364 N   0  0  0  0  0  0  0  0  0  0  0  0
    7.0745    1.1113    0.1458 C   0  0  0  0  0  0  0  0  0  0  0  0
    8.1928    0.3557    0.0774 C   0  0  0  0  0  0  0  0  0  0  0  0
    7.7701   -1.3062   -0.0042 S   0  0  0  0  0  0  0  0  0  0  0  0
    1.1816   -1.7008   -0.0139 S   0  0  0  0  0  0  0  0  0  0  0  0
   -2.1970    1.2067    0.3351 S   0  0  0  0  0  0  0  0  0  0  0  0
   -8.2010    0.1755   -0.0220 H   0  0  0  0  0  0  0  0  0  0  0  0
   -7.4500    1.3452    1.0673 H   0  0  0  0  0  0  0  0  0  0  0  0
   -7.3804    1.6004   -0.6660 H   0  0  0  0  0  0  0  0  0  0  0  0
   -5.9065   -0.4210   -0.9134 H   0  0  0  0  0  0  0  0  0  0  0  0
   -5.9759   -0.6789    0.8371 H   0  0  0  0  0  0  0  0  0  0  0  0
   -4.1775   -1.7572   -0.1481 H   0  0  0  0  0  0  0  0  0  0  0  0
   -1.6506   -2.3143   -0.1677 H   0  0  0  0  0  0  0  0  0  0  0  0
    0.6471    1.8233    0.4811 H   0  0  0  0  0  0  0  0  0  0  0  0
    3.1960    1.2400    0.4365 H   0  0  0  0  0  0  0  0  0  0  0  0
    7.0878    2.1923    0.2042 H   0  0  0  0  0  0  0  0  0  0  0  0
    9.2008    0.7236    0.0734 H   0  0  0  0  0  0  0  0  0  0  0  0
  1  2  1  0  0  0  0
  2  3  1  0  0  0  0
  3  4  1  0  0  0  0
  4  5  2  0  0  0  0
  5  6  1  0  0  0  0
  6  7  2  0  0  0  0
  7  8  1  0  0  0  0
  8  9  2  0  0  0  0
  9 10  1  0  0  0  0
 10 11  2  0  0  0  0
 11 12  1  0  0  0  0
 12 13  2  0  0  0  0
 13 14  1  0  0  0  0
 14 15  2  0  0  0  0
 15 16  1  0  0  0  0
 16 17  2  0  0  0  0
 17 18  1  0  0  0  0
 11 19  1  0  0  0  0
  7 20  1  0  0  0  0
 20  4  1  0  0  0  0
 19  8  1  0  0  0  0
 18 14  1  0  0  0  0
  1 21  1  0  0  0  0
  1 22  1  0  0  0  0
  1 23  1  0  0  0  0
  2 24  1  0  0  0  0
  2 25  1  0  0  0  0
  5 26  1  0  0  0  0
  6 27  1  0  0  0  0
  9 28  1  0  0  0  0
 10 29  1  0  0  0  0
 16 30  1  0  0  0  0
 17 31  1  0  0  0  0
M  END
