
  xtb     03012221293D
 energy: -10.459297970957 gnorm: 0.000523055565 xtb: 6.4.1 (afa7bdf)
 50 53  0     0  0            999 V2000
   -7.9089   -1.0473   -1.3601 C   0  0  0  0  0  0  0  0  0  0  0  0
   -6.6602   -0.6124   -0.7630 N   0  0  0  0  0  0  0  0  0  0  0  0
   -5.4909   -1.1757   -1.2890 C   0  0  0  0  0  0  0  0  0  0  0  0
   -5.5608   -1.9886   -2.2035 O   0  0  0  0  0  0  0  0  0  0  0  0
   -4.2162   -0.7806   -0.7341 C   0  0  0  0  0  0  0  0  0  0  0  0
   -3.0877   -1.3415   -1.2624 N   0  0  0  0  0  0  0  0  0  0  0  0
   -1.9172   -1.1754   -0.9538 N   0  0  0  0  0  0  0  0  0  0  0  0
   -0.5874   -1.0857   -0.7125 C   0  0  0  0  0  0  0  0  0  0  0  0
    0.0395   -2.0042    0.1219 C   0  0  0  0  0  0  0  0  0  0  0  0
    1.3830   -1.9020    0.3839 C   0  0  0  0  0  0  0  0  0  0  0  0
    2.1385   -0.8762   -0.1807 C   0  0  0  0  0  0  0  0  0  0  0  0
    3.4895   -0.7685    0.0852 N   0  0  0  0  0  0  0  0  0  0  0  0
    4.1569    0.1535   -0.3983 N   0  0  0  0  0  0  0  0  0  0  0  0
    5.5079    0.2665   -0.1246 C   0  0  0  0  0  0  0  0  0  0  0  0
    6.2527    1.3106   -0.6654 C   0  0  0  0  0  0  0  0  0  0  0  0
    7.5971    1.4187   -0.3883 C   0  0  0  0  0  0  0  0  0  0  0  0
    8.2079    0.4915    0.4250 C   0  0  0  0  0  0  0  0  0  0  0  0
    9.9597    0.6352    0.7804 S   0  0  0  0  0  6  0  0  0  0  0  0
   10.1117    0.2008    2.2024 O   0  0  0  0  0  0  0  0  0  0  0  0
   10.3575    2.0218    0.3875 O   0  0  0  0  0  0  0  0  0  0  0  0
   10.6476   -0.3789   -0.2328 O   0  0  0  0  0  0  0  0  0  0  0  0
    7.4856   -0.5457    0.9694 C   0  0  0  0  0  0  0  0  0  0  0  0
    6.1407   -0.6597    0.6969 C   0  0  0  0  0  0  0  0  0  0  0  0
    1.5063    0.0404   -1.0159 C   0  0  0  0  0  0  0  0  0  0  0  0
    0.1630   -0.0615   -1.2786 C   0  0  0  0  0  0  0  0  0  0  0  0
   -4.1715    0.1442    0.3065 C   0  0  0  0  0  0  0  0  0  0  0  0
   -2.9966    0.5375    0.8503 O   0  0  0  0  0  0  0  0  0  0  0  0
   -5.3962    0.7031    0.8250 C   0  0  0  0  0  0  0  0  0  0  0  0
   -5.3586    1.6285    1.8655 C   0  0  0  0  0  0  0  0  0  0  0  0
   -6.5153    2.1668    2.3654 C   0  0  0  0  0  0  0  0  0  0  0  0
   -7.7406    1.7907    1.8346 C   0  0  0  0  0  0  0  0  0  0  0  0
   -7.8011    0.8819    0.8109 C   0  0  0  0  0  0  0  0  0  0  0  0
   -6.6351    0.3187    0.2835 C   0  0  0  0  0  0  0  0  0  0  0  0
   -8.4343   -0.1996   -1.7942 H   0  0  0  0  0  0  0  0  0  0  0  0
   -7.6956   -1.7664   -2.1500 H   0  0  0  0  0  0  0  0  0  0  0  0
   -8.5364   -1.5278   -0.6127 H   0  0  0  0  0  0  0  0  0  0  0  0
   -0.5479   -2.7954    0.5529 H   0  0  0  0  0  0  0  0  0  0  0  0
    1.8731   -2.6113    1.0283 H   0  0  0  0  0  0  0  0  0  0  0  0
    5.7604    2.0278   -1.2988 H   0  0  0  0  0  0  0  0  0  0  0  0
    8.1839    2.2267   -0.7937 H   0  0  0  0  0  0  0  0  0  0  0  0
   11.5506   -0.0773   -0.4274 H   0  0  0  0  0  0  0  0  0  0  0  0
    7.9829   -1.2531    1.6125 H   0  0  0  0  0  0  0  0  0  0  0  0
    5.5581   -1.4621    1.1142 H   0  0  0  0  0  0  0  0  0  0  0  0
    2.0946    0.8299   -1.4502 H   0  0  0  0  0  0  0  0  0  0  0  0
   -0.3274    0.6429   -1.9268 H   0  0  0  0  0  0  0  0  0  0  0  0
   -2.2860    0.0551    0.3718 H   0  0  0  0  0  0  0  0  0  0  0  0
   -4.3998    1.9096    2.2658 H   0  0  0  0  0  0  0  0  0  0  0  0
   -6.4739    2.8823    3.1703 H   0  0  0  0  0  0  0  0  0  0  0  0
   -8.6478    2.2164    2.2301 H   0  0  0  0  0  0  0  0  0  0  0  0
   -8.7551    0.5958    0.4054 H   0  0  0  0  0  0  0  0  0  0  0  0
  1  2  1  0  0  0  0
  2  3  1  0  0  0  0
  3  4  2  0  0  0  0
  3  5  1  0  0  0  0
  5  6  1  0  0  0  0
  6  7  2  0  0  0  0
  7  8  1  0  0  0  0
  8  9  2  0  0  0  0
  9 10  1  0  0  0  0
 10 11  2  0  0  0  0
 11 12  1  0  0  0  0
 12 13  2  0  0  0  0
 13 14  1  0  0  0  0
 14 15  2  0  0  0  0
 15 16  1  0  0  0  0
 16 17  2  0  0  0  0
 17 18  1  0  0  0  0
 18 19  2  0  0  0  0
 18 20  2  0  0  0  0
 18 21  1  0  0  0  0
 17 22  1  0  0  0  0
 22 23  2  0  0  0  0
 11 24  1  0  0  0  0
 24 25  2  0  0  0  0
  5 26  2  0  0  0  0
 26 27  1  0  0  0  0
 26 28  1  0  0  0  0
 28 29  2  0  0  0  0
 29 30  1  0  0  0  0
 30 31  2  0  0  0  0
 31 32  1  0  0  0  0
 32 33  2  0  0  0  0
 33  2  1  0  0  0  0
 25  8  1  0  0  0  0
 33 28  1  0  0  0  0
 23 14  1  0  0  0  0
  1 34  1  0  0  0  0
  1 35  1  0  0  0  0
  1 36  1  0  0  0  0
  9 37  1  0  0  0  0
 10 38  1  0  0  0  0
 15 39  1  0  0  0  0
 16 40  1  0  0  0  0
 21 41  1  0  0  0  0
 22 42  1  0  0  0  0
 23 43  1  0  0  0  0
 24 44  1  0  0  0  0
 25 45  1  0  0  0  0
 27 46  1  0  0  0  0
 29 47  1  0  0  0  0
 30 48  1  0  0  0  0
 31 49  1  0  0  0  0
 32 50  1  0  0  0  0
M  END
