
  xtb     03012221333D
 energy: -15.366257645653 gnorm: 0.000088163659 xtb: 6.4.1 (afa7bdf)
 90 93  0     0  0            999 V2000
   12.6267    1.0920    1.7917 C   0  0  0  0  0  0  0  0  0  0  0  0
   12.3994   -0.4033    1.5183 C   0  0  0  0  0  0  0  0  0  0  0  0
   12.7568   -1.2062    2.7835 C   0  0  0  0  0  0  0  0  0  0  0  0
   13.3392   -0.8553    0.3843 C   0  0  0  0  0  0  0  0  0  0  0  0
   10.9074   -0.6814    1.1157 C   0  0  0  0  0  0  0  0  0  0  0  0
   10.4788    0.0091   -0.2063 C   0  0  0  0  0  0  0  0  0  0  0  0
    9.0504   -0.3994   -0.6194 C   0  0  0  0  0  0  0  0  0  0  0  0
    8.0771   -0.1568    0.4997 C   0  0  0  0  0  0  0  0  0  0  0  0
    6.9653    0.5583    0.3406 C   0  0  0  0  0  0  0  0  0  0  0  0
    6.4935    1.3069   -1.1832 S   0  0  0  0  0  0  0  0  0  0  0  0
    4.7724    1.0024   -1.1024 C   0  0  0  0  0  0  0  0  0  0  0  0
    3.9604    1.3424   -2.1053 C   0  0  0  0  0  0  0  0  0  0  0  0
    2.5192    1.1322   -2.1458 C   0  0  0  0  0  0  0  0  0  0  0  0
    1.7957    0.6588   -1.0494 C   0  0  0  0  0  0  0  0  0  0  0  0
    0.4349    0.4727   -1.1262 C   0  0  0  0  0  0  0  0  0  0  0  0
   -0.2653    0.7503   -2.3014 C   0  0  0  0  0  0  0  0  0  0  0  0
   -1.7267    0.5443   -2.3932 C   0  0  0  0  0  0  0  0  0  0  0  0
   -2.5208    1.3872   -3.1721 C   0  0  0  0  0  0  0  0  0  0  0  0
   -3.8748    1.1799   -3.2898 C   0  0  0  0  0  0  0  0  0  0  0  0
   -4.4991    0.1186   -2.6319 C   0  0  0  0  0  0  0  0  0  0  0  0
   -5.9243   -0.1512   -2.7622 C   0  0  0  0  0  0  0  0  0  0  0  0
   -6.7560    0.4669   -3.6040 C   0  0  0  0  0  0  0  0  0  0  0  0
   -8.4649    0.1078   -3.7824 S   0  0  0  0  0  0  0  0  0  0  0  0
   -8.6524   -1.1959   -2.6103 C   0  0  0  0  0  0  0  0  0  0  0  0
   -8.8695   -0.9974   -1.3129 C   0  0  0  0  0  0  0  0  0  0  0  0
   -8.9860    0.3886   -0.7184 C   0  0  0  0  0  0  0  0  0  0  0  0
   -8.5707    0.4086    0.7703 C   0  0  0  0  0  0  0  0  0  0  0  0
   -9.3937   -0.5933    1.6571 C   0  0  0  0  0  0  0  0  0  0  0  0
  -10.4871    0.1119    2.5364 C   0  0  0  0  0  0  0  0  0  0  0  0
  -11.2929   -0.9479    3.3111 C   0  0  0  0  0  0  0  0  0  0  0  0
  -11.4508    0.9389    1.6694 C   0  0  0  0  0  0  0  0  0  0  0  0
   -9.8087    1.0390    3.5637 C   0  0  0  0  0  0  0  0  0  0  0  0
   -9.9646   -1.7754    0.8086 C   0  0  0  0  0  0  0  0  0  0  0  0
   -9.0293   -2.1572   -0.3556 C   0  0  0  0  0  0  0  0  0  0  0  0
   -3.7077   -0.7135   -1.8378 C   0  0  0  0  0  0  0  0  0  0  0  0
   -2.3531   -0.5071   -1.7223 C   0  0  0  0  0  0  0  0  0  0  0  0
    0.4585    1.2245   -3.3963 C   0  0  0  0  0  0  0  0  0  0  0  0
    1.8176    1.4126   -3.3194 C   0  0  0  0  0  0  0  0  0  0  0  0
    8.4507   -0.7464    1.8324 C   0  0  0  0  0  0  0  0  0  0  0  0
    9.8844   -0.3407    2.2323 C   0  0  0  0  0  0  0  0  0  0  0  0
   11.9987    1.4466    2.6080 H   0  0  0  0  0  0  0  0  0  0  0  0
   13.6639    1.2785    2.0705 H   0  0  0  0  0  0  0  0  0  0  0  0
   12.4103    1.6944    0.9103 H   0  0  0  0  0  0  0  0  0  0  0  0
   12.2026   -0.8534    3.6521 H   0  0  0  0  0  0  0  0  0  0  0  0
   12.5409   -2.2659    2.6482 H   0  0  0  0  0  0  0  0  0  0  0  0
   13.8173   -1.1092    3.0162 H   0  0  0  0  0  0  0  0  0  0  0  0
   13.2137   -0.2439   -0.5082 H   0  0  0  0  0  0  0  0  0  0  0  0
   14.3822   -0.7699    0.6894 H   0  0  0  0  0  0  0  0  0  0  0  0
   13.1550   -1.8951    0.1144 H   0  0  0  0  0  0  0  0  0  0  0  0
   10.8339   -1.7663    0.9421 H   0  0  0  0  0  0  0  0  0  0  0  0
   10.5153    1.0949   -0.0686 H   0  0  0  0  0  0  0  0  0  0  0  0
   11.1882   -0.2130   -1.0120 H   0  0  0  0  0  0  0  0  0  0  0  0
    9.0258   -1.4613   -0.8916 H   0  0  0  0  0  0  0  0  0  0  0  0
    8.7327    0.1455   -1.5169 H   0  0  0  0  0  0  0  0  0  0  0  0
    6.3050    0.7113    1.1726 H   0  0  0  0  0  0  0  0  0  0  0  0
    4.3960    0.5218   -0.2218 H   0  0  0  0  0  0  0  0  0  0  0  0
    4.4065    1.8056   -2.9692 H   0  0  0  0  0  0  0  0  0  0  0  0
    2.3082    0.4453   -0.1282 H   0  0  0  0  0  0  0  0  0  0  0  0
   -0.1073    0.1231   -0.2647 H   0  0  0  0  0  0  0  0  0  0  0  0
   -2.0613    2.2186   -3.6780 H   0  0  0  0  0  0  0  0  0  0  0  0
   -4.4605    1.8492   -3.8945 H   0  0  0  0  0  0  0  0  0  0  0  0
   -6.3206   -0.9309   -2.1372 H   0  0  0  0  0  0  0  0  0  0  0  0
   -6.3931    1.2407   -4.2512 H   0  0  0  0  0  0  0  0  0  0  0  0
   -8.5827   -2.1954   -2.9958 H   0  0  0  0  0  0  0  0  0  0  0  0
  -10.0199    0.7334   -0.8296 H   0  0  0  0  0  0  0  0  0  0  0  0
   -8.3748    1.0894   -1.3002 H   0  0  0  0  0  0  0  0  0  0  0  0
   -8.6512    1.4251    1.1684 H   0  0  0  0  0  0  0  0  0  0  0  0
   -7.5036    0.1626    0.8356 H   0  0  0  0  0  0  0  0  0  0  0  0
   -8.6903   -1.0419    2.3768 H   0  0  0  0  0  0  0  0  0  0  0  0
  -12.0072   -0.4754    3.9855 H   0  0  0  0  0  0  0  0  0  0  0  0
  -11.8573   -1.5908    2.6366 H   0  0  0  0  0  0  0  0  0  0  0  0
  -10.6352   -1.5780    3.9096 H   0  0  0  0  0  0  0  0  0  0  0  0
  -11.9624    0.3183    0.9352 H   0  0  0  0  0  0  0  0  0  0  0  0
  -10.9258    1.7301    1.1360 H   0  0  0  0  0  0  0  0  0  0  0  0
  -12.2137    1.4120    2.2877 H   0  0  0  0  0  0  0  0  0  0  0  0
   -9.2708    1.8542    3.0828 H   0  0  0  0  0  0  0  0  0  0  0  0
   -9.1000    0.4859    4.1800 H   0  0  0  0  0  0  0  0  0  0  0  0
  -10.5487    1.4852    4.2282 H   0  0  0  0  0  0  0  0  0  0  0  0
  -10.1633   -2.6476    1.4444 H   0  0  0  0  0  0  0  0  0  0  0  0
  -10.9366   -1.4843    0.3991 H   0  0  0  0  0  0  0  0  0  0  0  0
   -8.0430   -2.4363    0.0328 H   0  0  0  0  0  0  0  0  0  0  0  0
   -9.4054   -3.0374   -0.8918 H   0  0  0  0  0  0  0  0  0  0  0  0
   -4.1720   -1.5368   -1.3217 H   0  0  0  0  0  0  0  0  0  0  0  0
   -1.7577   -1.1773   -1.1269 H   0  0  0  0  0  0  0  0  0  0  0  0
   -0.0581    1.4260   -4.3186 H   0  0  0  0  0  0  0  0  0  0  0  0
    2.3590    1.7759   -4.1764 H   0  0  0  0  0  0  0  0  0  0  0  0
    8.3708   -1.8385    1.7758 H   0  0  0  0  0  0  0  0  0  0  0  0
    7.7282   -0.4335    2.5968 H   0  0  0  0  0  0  0  0  0  0  0  0
    9.9117    0.7376    2.4219 H   0  0  0  0  0  0  0  0  0  0  0  0
   10.1664   -0.8164    3.1789 H   0  0  0  0  0  0  0  0  0  0  0  0
  1  2  1  0  0  0  0
  2  3  1  0  0  0  0
  2  4  1  0  0  0  0
  2  5  1  0  0  0  0
  5  6  1  0  0  0  0
  6  7  1  0  0  0  0
  7  8  1  0  0  0  0
  8  9  2  0  0  0  0
  9 10  1  0  0  0  0
 10 11  1  0  0  0  0
 11 12  2  0  0  0  0
 12 13  1  0  0  0  0
 13 14  2  0  0  0  0
 14 15  1  0  0  0  0
 15 16  2  0  0  0  0
 16 17  1  0  0  0  0
 17 18  2  0  0  0  0
 18 19  1  0  0  0  0
 19 20  2  0  0  0  0
 20 21  1  0  0  0  0
 21 22  2  0  0  0  0
 22 23  1  0  0  0  0
 23 24  1  0  0  0  0
 24 25  2  0  0  0  0
 25 26  1  0  0  0  0
 26 27  1  0  0  0  0
 27 28  1  0  0  0  0
 28 29  1  0  0  0  0
 29 30  1  0  0  0  0
 29 31  1  0  0  0  0
 29 32  1  0  0  0  0
 28 33  1  0  0  0  0
 33 34  1  0  0  0  0
 20 35  1  0  0  0  0
 35 36  2  0  0  0  0
 16 37  1  0  0  0  0
 37 38  2  0  0  0  0
  8 39  1  0  0  0  0
 39 40  1  0  0  0  0
 40  5  1  0  0  0  0
 38 13  1  0  0  0  0
 36 17  1  0  0  0  0
 34 25  1  0  0  0  0
  1 41  1  0  0  0  0
  1 42  1  0  0  0  0
  1 43  1  0  0  0  0
  3 44  1  0  0  0  0
  3 45  1  0  0  0  0
  3 46  1  0  0  0  0
  4 47  1  0  0  0  0
  4 48  1  0  0  0  0
  4 49  1  0  0  0  0
  5 50  1  0  0  0  0
  6 51  1  0  0  0  0
  6 52  1  0  0  0  0
  7 53  1  0  0  0  0
  7 54  1  0  0  0  0
  9 55  1  0  0  0  0
 11 56  1  0  0  0  0
 12 57  1  0  0  0  0
 14 58  1  0  0  0  0
 15 59  1  0  0  0  0
 18 60  1  0  0  0  0
 19 61  1  0  0  0  0
 21 62  1  0  0  0  0
 22 63  1  0  0  0  0
 24 64  1  0  0  0  0
 26 65  1  0  0  0  0
 26 66  1  0  0  0  0
 27 67  1  0  0  0  0
 27 68  1  0  0  0  0
 28 69  1  0  0  0  0
 30 70  1  0  0  0  0
 30 71  1  0  0  0  0
 30 72  1  0  0  0  0
 31 73  1  0  0  0  0
 31 74  1  0  0  0  0
 31 75  1  0  0  0  0
 32 76  1  0  0  0  0
 32 77  1  0  0  0  0
 32 78  1  0  0  0  0
 33 79  1  0  0  0  0
 33 80  1  0  0  0  0
 34 81  1  0  0  0  0
 34 82  1  0  0  0  0
 35 83  1  0  0  0  0
 36 84  1  0  0  0  0
 37 85  1  0  0  0  0
 38 86  1  0  0  0  0
 39 87  1  0  0  0  0
 39 88  1  0  0  0  0
 40 89  1  0  0  0  0
 40 90  1  0  0  0  0
M  END
