
  xtb     03012221243D
 energy: -18.328941604740 gnorm: 0.000091921393 xtb: 6.4.1 (afa7bdf)
 88 96  0     0  0            999 V2000
   -5.8537    7.3063    0.3095 C   0  0  0  0  0  0  0  0  0  0  0  0
   -4.9420    6.1288    0.3041 C   0  0  0  0  0  0  0  0  0  0  0  0
   -5.0282    5.1588    1.2941 C   0  0  0  0  0  0  0  0  0  0  0  0
   -4.2051    4.0562    1.2768 C   0  0  0  0  0  0  0  0  0  0  0  0
   -3.2651    3.8794    0.2590 C   0  0  0  0  0  0  0  0  0  0  0  0
   -2.3816    2.6924    0.2306 C   0  0  0  0  0  0  0  0  0  0  0  0
   -2.9485    1.3884    0.2707 C   0  0  0  0  0  0  0  0  0  0  0  0
   -2.2577    0.2271    0.2538 N   0  0  0  0  0  0  0  0  0  0  0  0
   -3.1666   -0.7726    0.2734 C   0  0  0  0  0  0  0  0  0  0  0  0
   -2.8741   -2.1641    0.2289 C   0  0  0  0  0  0  0  0  0  0  0  0
   -3.9766   -3.1471    0.3212 C   0  0  0  0  0  0  0  0  0  0  0  0
   -4.8787   -3.1130    1.3872 C   0  0  0  0  0  0  0  0  0  0  0  0
   -5.8995   -4.0309    1.4787 C   0  0  0  0  0  0  0  0  0  0  0  0
   -6.0572   -5.0197    0.5167 C   0  0  0  0  0  0  0  0  0  0  0  0
   -7.1771   -5.9971    0.6073 C   0  0  0  0  0  0  0  0  0  0  0  0
   -5.1713   -5.0513   -0.5522 C   0  0  0  0  0  0  0  0  0  0  0  0
   -4.1483   -4.1361   -0.6499 C   0  0  0  0  0  0  0  0  0  0  0  0
   -1.5420   -2.6090    0.0879 C   0  0  0  0  0  0  0  0  0  0  0  0
   -1.0936   -3.9318    0.0179 C   0  0  0  0  0  0  0  0  0  0  0  0
    0.2794   -4.0687   -0.1332 C   0  0  0  0  0  0  0  0  0  0  0  0
    0.9844   -2.8613   -0.1671 C   0  0  0  0  0  0  0  0  0  0  0  0
   -0.1608   -1.5665   -0.0221 S   0  0  0  0  0  0  0  0  0  0  0  0
    2.3793   -2.6915   -0.3009 C   0  0  0  0  0  0  0  0  0  0  0  0
    3.2598   -3.8746   -0.4269 C   0  0  0  0  0  0  0  0  0  0  0  0
    3.2290   -4.9041    0.5164 C   0  0  0  0  0  0  0  0  0  0  0  0
    4.0453   -6.0044    0.3873 C   0  0  0  0  0  0  0  0  0  0  0  0
    4.9176   -6.1234   -0.6866 C   0  0  0  0  0  0  0  0  0  0  0  0
    5.8163   -7.3044   -0.8112 C   0  0  0  0  0  0  0  0  0  0  0  0
    4.9620   -5.0972   -1.6209 C   0  0  0  0  0  0  0  0  0  0  0  0
    4.1484   -3.9945   -1.4979 C   0  0  0  0  0  0  0  0  0  0  0  0
    2.9484   -1.3879   -0.3064 C   0  0  0  0  0  0  0  0  0  0  0  0
    2.2613   -0.2259   -0.2513 N   0  0  0  0  0  0  0  0  0  0  0  0
    3.1737    0.7708   -0.2373 C   0  0  0  0  0  0  0  0  0  0  0  0
    2.8829    2.1605   -0.1534 C   0  0  0  0  0  0  0  0  0  0  0  0
    3.9888    3.1441   -0.1471 C   0  0  0  0  0  0  0  0  0  0  0  0
    4.9451    3.1623   -1.1649 C   0  0  0  0  0  0  0  0  0  0  0  0
    5.9752    4.0746   -1.1496 C   0  0  0  0  0  0  0  0  0  0  0  0
    6.0951    4.9978   -0.1192 C   0  0  0  0  0  0  0  0  0  0  0  0
    7.1978    5.9988   -0.1173 C   0  0  0  0  0  0  0  0  0  0  0  0
    5.1410    4.9923    0.8896 C   0  0  0  0  0  0  0  0  0  0  0  0
    4.1087    4.0827    0.8804 C   0  0  0  0  0  0  0  0  0  0  0  0
    1.5471    2.6043   -0.0490 C   0  0  0  0  0  0  0  0  0  0  0  0
    1.0997    3.9279    0.0099 C   0  0  0  0  0  0  0  0  0  0  0  0
   -0.2770    4.0670    0.1182 C   0  0  0  0  0  0  0  0  0  0  0  0
   -0.9832    2.8602    0.1367 C   0  0  0  0  0  0  0  0  0  0  0  0
    0.1623    1.5629    0.0254 S   0  0  0  0  0  0  0  0  0  0  0  0
    4.4987    0.2178   -0.2717 C   0  0  0  0  0  0  0  0  0  0  0  0
    4.3592   -1.1191   -0.3174 C   0  0  0  0  0  0  0  0  0  0  0  0
   -4.4934   -0.2232    0.2924 C   0  0  0  0  0  0  0  0  0  0  0  0
   -4.3584    1.1149    0.2879 C   0  0  0  0  0  0  0  0  0  0  0  0
   -3.1890    4.8546   -0.7381 C   0  0  0  0  0  0  0  0  0  0  0  0
   -4.0148    5.9549   -0.7148 C   0  0  0  0  0  0  0  0  0  0  0  0
   -6.7657    7.0922   -0.2488 H   0  0  0  0  0  0  0  0  0  0  0  0
   -5.3768    8.1753   -0.1455 H   0  0  0  0  0  0  0  0  0  0  0  0
   -6.1378    7.5798    1.3264 H   0  0  0  0  0  0  0  0  0  0  0  0
   -5.7516    5.2789    2.0825 H   0  0  0  0  0  0  0  0  0  0  0  0
   -4.2685    3.3195    2.0590 H   0  0  0  0  0  0  0  0  0  0  0  0
   -4.7545   -2.3621    2.1483 H   0  0  0  0  0  0  0  0  0  0  0  0
   -6.5884   -3.9903    2.3052 H   0  0  0  0  0  0  0  0  0  0  0  0
   -6.9085   -6.9475    0.1445 H   0  0  0  0  0  0  0  0  0  0  0  0
   -8.0655   -5.6159    0.1026 H   0  0  0  0  0  0  0  0  0  0  0  0
   -7.4405   -6.1985    1.6464 H   0  0  0  0  0  0  0  0  0  0  0  0
   -5.2955   -5.8038   -1.3123 H   0  0  0  0  0  0  0  0  0  0  0  0
   -3.4768   -4.1613   -1.4907 H   0  0  0  0  0  0  0  0  0  0  0  0
   -1.7629   -4.7751    0.0815 H   0  0  0  0  0  0  0  0  0  0  0  0
    0.7661   -5.0269   -0.2226 H   0  0  0  0  0  0  0  0  0  0  0  0
    2.5675   -4.8158    1.3608 H   0  0  0  0  0  0  0  0  0  0  0  0
    4.0157   -6.7868    1.1263 H   0  0  0  0  0  0  0  0  0  0  0  0
    6.0266   -7.5300   -1.8573 H   0  0  0  0  0  0  0  0  0  0  0  0
    5.3644   -8.1917   -0.3662 H   0  0  0  0  0  0  0  0  0  0  0  0
    6.7668   -7.1223   -0.3084 H   0  0  0  0  0  0  0  0  0  0  0  0
    5.6435   -5.1743   -2.4509 H   0  0  0  0  0  0  0  0  0  0  0  0
    4.1778   -3.2134   -2.2378 H   0  0  0  0  0  0  0  0  0  0  0  0
    4.8557    2.4585   -1.9742 H   0  0  0  0  0  0  0  0  0  0  0  0
    6.7011    4.0812   -1.9448 H   0  0  0  0  0  0  0  0  0  0  0  0
    7.4809    6.2701    0.9005 H   0  0  0  0  0  0  0  0  0  0  0  0
    6.8954    6.9090   -0.6365 H   0  0  0  0  0  0  0  0  0  0  0  0
    8.0862    5.6070   -0.6139 H   0  0  0  0  0  0  0  0  0  0  0  0
    5.2189    5.7111    1.6874 H   0  0  0  0  0  0  0  0  0  0  0  0
    3.3872    4.0736    1.6790 H   0  0  0  0  0  0  0  0  0  0  0  0
    1.7728    4.7695   -0.0338 H   0  0  0  0  0  0  0  0  0  0  0  0
   -0.7660    5.0257    0.1903 H   0  0  0  0  0  0  0  0  0  0  0  0
    5.4234    0.7686   -0.2396 H   0  0  0  0  0  0  0  0  0  0  0  0
    5.1495   -1.8505   -0.3281 H   0  0  0  0  0  0  0  0  0  0  0  0
   -5.4158   -0.7788    0.2802 H   0  0  0  0  0  0  0  0  0  0  0  0
   -5.1520    1.8426    0.2722 H   0  0  0  0  0  0  0  0  0  0  0  0
   -2.4845    4.7226   -1.5411 H   0  0  0  0  0  0  0  0  0  0  0  0
   -3.9509    6.6933   -1.4958 H   0  0  0  0  0  0  0  0  0  0  0  0
  1  2  1  0  0  0  0
  2  3  2  0  0  0  0
  3  4  1  0  0  0  0
  4  5  2  0  0  0  0
  5  6  1  0  0  0  0
  6  7  1  0  0  0  0
  7  8  2  0  0  0  0
  8  9  1  0  0  0  0
  9 10  2  0  0  0  0
 10 11  1  0  0  0  0
 11 12  2  0  0  0  0
 12 13  1  0  0  0  0
 13 14  2  0  0  0  0
 14 15  1  0  0  0  0
 14 16  1  0  0  0  0
 16 17  2  0  0  0  0
 10 18  1  0  0  0  0
 18 19  2  0  0  0  0
 19 20  1  0  0  0  0
 20 21  2  0  0  0  0
 21 22  1  0  0  0  0
 21 23  1  0  0  0  0
 23 24  1  0  0  0  0
 24 25  2  0  0  0  0
 25 26  1  0  0  0  0
 26 27  2  0  0  0  0
 27 28  1  0  0  0  0
 27 29  1  0  0  0  0
 29 30  2  0  0  0  0
 23 31  2  0  0  0  0
 31 32  1  0  0  0  0
 32 33  2  0  0  0  0
 33 34  1  0  0  0  0
 34 35  1  0  0  0  0
 35 36  2  0  0  0  0
 36 37  1  0  0  0  0
 37 38  2  0  0  0  0
 38 39  1  0  0  0  0
 38 40  1  0  0  0  0
 40 41  2  0  0  0  0
 34 42  2  0  0  0  0
 42 43  1  0  0  0  0
 43 44  2  0  0  0  0
 44 45  1  0  0  0  0
 45 46  1  0  0  0  0
 33 47  1  0  0  0  0
 47 48  2  0  0  0  0
  9 49  1  0  0  0  0
 49 50  2  0  0  0  0
  5 51  1  0  0  0  0
 51 52  2  0  0  0  0
 52  2  1  0  0  0  0
 45  6  2  0  0  0  0
 50  7  1  0  0  0  0
 17 11  1  0  0  0  0
 22 18  1  0  0  0  0
 30 24  1  0  0  0  0
 48 31  1  0  0  0  0
 41 35  1  0  0  0  0
 46 42  1  0  0  0  0
  1 53  1  0  0  0  0
  1 54  1  0  0  0  0
  1 55  1  0  0  0  0
  3 56  1  0  0  0  0
  4 57  1  0  0  0  0
 12 58  1  0  0  0  0
 13 59  1  0  0  0  0
 15 60  1  0  0  0  0
 15 61  1  0  0  0  0
 15 62  1  0  0  0  0
 16 63  1  0  0  0  0
 17 64  1  0  0  0  0
 19 65  1  0  0  0  0
 20 66  1  0  0  0  0
 25 67  1  0  0  0  0
 26 68  1  0  0  0  0
 28 69  1  0  0  0  0
 28 70  1  0  0  0  0
 28 71  1  0  0  0  0
 29 72  1  0  0  0  0
 30 73  1  0  0  0  0
 36 74  1  0  0  0  0
 37 75  1  0  0  0  0
 39 76  1  0  0  0  0
 39 77  1  0  0  0  0
 39 78  1  0  0  0  0
 40 79  1  0  0  0  0
 41 80  1  0  0  0  0
 43 81  1  0  0  0  0
 44 82  1  0  0  0  0
 47 83  1  0  0  0  0
 48 84  1  0  0  0  0
 49 85  1  0  0  0  0
 50 86  1  0  0  0  0
 51 87  1  0  0  0  0
 52 88  1  0  0  0  0
M  END
