
  xtb     03012221223D
 energy: -13.896923439378 gnorm: 0.000372744243 xtb: 6.4.1 (afa7bdf)
 66 71  0     0  0            999 V2000
    6.6976   -5.6009    2.2711 C   0  0  0  0  0  0  0  0  0  0  0  0
    5.7315   -4.8252    3.0478 N   0  0  0  0  0  0  0  0  0  0  0  0
    5.2319   -5.4329    4.2806 C   0  0  0  0  0  0  0  0  0  0  0  0
    5.3074   -3.5513    2.6319 C   0  0  0  0  0  0  0  0  0  0  0  0
    5.7874   -2.9802    1.4483 C   0  0  0  0  0  0  0  0  0  0  0  0
    5.3743   -1.7339    1.0445 C   0  0  0  0  0  0  0  0  0  0  0  0
    4.4633   -1.0003    1.8024 C   0  0  0  0  0  0  0  0  0  0  0  0
    4.0422    0.2737    1.3882 C   0  0  0  0  0  0  0  0  0  0  0  0
    3.6705    1.3824    1.0253 C   0  0  0  0  0  0  0  0  0  0  0  0
    3.2265    2.6422    0.6008 C   0  0  0  0  0  0  0  0  0  0  0  0
    4.0834    3.7386    0.6793 C   0  0  0  0  0  0  0  0  0  0  0  0
    3.6923    4.9916    0.2715 C   0  0  0  0  0  0  0  0  0  0  0  0
    2.4093    5.2103   -0.2409 C   0  0  0  0  0  0  0  0  0  0  0  0
    1.9753    6.4971   -0.6738 C   0  0  0  0  0  0  0  0  0  0  0  0
    0.7284    6.6874   -1.1668 C   0  0  0  0  0  0  0  0  0  0  0  0
   -0.1968    5.6081   -1.2709 C   0  0  0  0  0  0  0  0  0  0  0  0
   -1.4893    5.7825   -1.7764 C   0  0  0  0  0  0  0  0  0  0  0  0
   -2.3595    4.7223   -1.8651 C   0  0  0  0  0  0  0  0  0  0  0  0
   -1.9952    3.4397   -1.4593 C   0  0  0  0  0  0  0  0  0  0  0  0
   -2.9155    2.3884   -1.5700 C   0  0  0  0  0  0  0  0  0  0  0  0
   -3.7027    1.4550   -1.6596 C   0  0  0  0  0  0  0  0  0  0  0  0
   -4.5987    0.3788   -1.7654 C   0  0  0  0  0  0  0  0  0  0  0  0
   -5.8496    0.4244   -1.1523 C   0  0  0  0  0  0  0  0  0  0  0  0
   -6.7274   -0.6268   -1.2588 C   0  0  0  0  0  0  0  0  0  0  0  0
   -6.3935   -1.7751   -1.9851 C   0  0  0  0  0  0  0  0  0  0  0  0
   -7.2923   -2.8498   -2.0984 N   0  0  0  0  0  0  0  0  0  0  0  0
   -8.6319   -2.7916   -1.5145 C   0  0  0  0  0  0  0  0  0  0  0  0
   -6.9332   -4.0764   -2.8090 C   0  0  0  0  0  0  0  0  0  0  0  0
   -5.1349   -1.8176   -2.5947 C   0  0  0  0  0  0  0  0  0  0  0  0
   -4.2601   -0.7638   -2.4881 C   0  0  0  0  0  0  0  0  0  0  0  0
   -0.6969    3.2250   -0.9431 C   0  0  0  0  0  0  0  0  0  0  0  0
   -0.2557    1.9403   -0.5098 C   0  0  0  0  0  0  0  0  0  0  0  0
    0.9913    1.7499   -0.0180 C   0  0  0  0  0  0  0  0  0  0  0  0
    1.9213    2.8252    0.0898 C   0  0  0  0  0  0  0  0  0  0  0  0
    1.5151    4.1162   -0.3318 C   0  0  0  0  0  0  0  0  0  0  0  0
    0.2029    4.3165   -0.8500 C   0  0  0  0  0  0  0  0  0  0  0  0
    3.9807   -1.5651    2.9817 C   0  0  0  0  0  0  0  0  0  0  0  0
    4.3922   -2.8111    3.3882 C   0  0  0  0  0  0  0  0  0  0  0  0
    6.3025   -5.8008    1.2766 H   0  0  0  0  0  0  0  0  0  0  0  0
    7.6317   -5.0495    2.1795 H   0  0  0  0  0  0  0  0  0  0  0  0
    6.9130   -6.5549    2.7483 H   0  0  0  0  0  0  0  0  0  0  0  0
    4.1493   -5.5367    4.2335 H   0  0  0  0  0  0  0  0  0  0  0  0
    5.4937   -4.8119    5.1355 H   0  0  0  0  0  0  0  0  0  0  0  0
    5.6603   -6.4212    4.4352 H   0  0  0  0  0  0  0  0  0  0  0  0
    6.4911   -3.5265    0.8463 H   0  0  0  0  0  0  0  0  0  0  0  0
    5.7519   -1.3061    0.1314 H   0  0  0  0  0  0  0  0  0  0  0  0
    5.0753    3.5871    1.0709 H   0  0  0  0  0  0  0  0  0  0  0  0
    4.3743    5.8210    0.3426 H   0  0  0  0  0  0  0  0  0  0  0  0
    2.6618    7.3230   -0.6022 H   0  0  0  0  0  0  0  0  0  0  0  0
    0.4167    7.6657   -1.4898 H   0  0  0  0  0  0  0  0  0  0  0  0
   -1.7963    6.7627   -2.0974 H   0  0  0  0  0  0  0  0  0  0  0  0
   -3.3512    4.8736   -2.2573 H   0  0  0  0  0  0  0  0  0  0  0  0
   -6.1193    1.3021   -0.5899 H   0  0  0  0  0  0  0  0  0  0  0  0
   -7.6854   -0.5694   -0.7740 H   0  0  0  0  0  0  0  0  0  0  0  0
   -9.1663   -1.9217   -1.8922 H   0  0  0  0  0  0  0  0  0  0  0  0
   -9.2108   -3.6780   -1.7664 H   0  0  0  0  0  0  0  0  0  0  0  0
   -8.5637   -2.7253   -0.4301 H   0  0  0  0  0  0  0  0  0  0  0  0
   -6.0246   -4.5018   -2.3864 H   0  0  0  0  0  0  0  0  0  0  0  0
   -7.7217   -4.8224   -2.7311 H   0  0  0  0  0  0  0  0  0  0  0  0
   -6.7691   -3.8616   -3.8636 H   0  0  0  0  0  0  0  0  0  0  0  0
   -4.8519   -2.6864   -3.1614 H   0  0  0  0  0  0  0  0  0  0  0  0
   -3.2967   -0.8071   -2.9671 H   0  0  0  0  0  0  0  0  0  0  0  0
   -0.9392    1.1128   -0.5812 H   0  0  0  0  0  0  0  0  0  0  0  0
    1.3006    0.7707    0.3026 H   0  0  0  0  0  0  0  0  0  0  0  0
    3.2759   -1.0061    3.5735 H   0  0  0  0  0  0  0  0  0  0  0  0
    4.0065   -3.2250    4.3025 H   0  0  0  0  0  0  0  0  0  0  0  0
  1  2  1  0  0  0  0
  2  3  1  0  0  0  0
  2  4  1  0  0  0  0
  4  5  2  0  0  0  0
  5  6  1  0  0  0  0
  6  7  2  0  0  0  0
  7  8  1  0  0  0  0
  8  9  3  0  0  0  0
  9 10  1  0  0  0  0
 10 11  2  0  0  0  0
 11 12  1  0  0  0  0
 12 13  2  0  0  0  0
 13 14  1  0  0  0  0
 14 15  2  0  0  0  0
 15 16  1  0  0  0  0
 16 17  2  0  0  0  0
 17 18  1  0  0  0  0
 18 19  2  0  0  0  0
 19 20  1  0  0  0  0
 20 21  3  0  0  0  0
 21 22  1  0  0  0  0
 22 23  2  0  0  0  0
 23 24  1  0  0  0  0
 24 25  2  0  0  0  0
 25 26  1  0  0  0  0
 26 27  1  0  0  0  0
 26 28  1  0  0  0  0
 25 29  1  0  0  0  0
 29 30  2  0  0  0  0
 19 31  1  0  0  0  0
 31 32  2  0  0  0  0
 32 33  1  0  0  0  0
 33 34  2  0  0  0  0
 34 35  1  0  0  0  0
 35 36  2  0  0  0  0
  7 37  1  0  0  0  0
 37 38  2  0  0  0  0
 38  4  1  0  0  0  0
 34 10  1  0  0  0  0
 35 13  1  0  0  0  0
 36 16  1  0  0  0  0
 30 22  1  0  0  0  0
 36 31  1  0  0  0  0
  1 39  1  0  0  0  0
  1 40  1  0  0  0  0
  1 41  1  0  0  0  0
  3 42  1  0  0  0  0
  3 43  1  0  0  0  0
  3 44  1  0  0  0  0
  5 45  1  0  0  0  0
  6 46  1  0  0  0  0
 11 47  1  0  0  0  0
 12 48  1  0  0  0  0
 14 49  1  0  0  0  0
 15 50  1  0  0  0  0
 17 51  1  0  0  0  0
 18 52  1  0  0  0  0
 23 53  1  0  0  0  0
 24 54  1  0  0  0  0
 27 55  1  0  0  0  0
 27 56  1  0  0  0  0
 27 57  1  0  0  0  0
 28 58  1  0  0  0  0
 28 59  1  0  0  0  0
 28 60  1  0  0  0  0
 29 61  1  0  0  0  0
 30 62  1  0  0  0  0
 32 63  1  0  0  0  0
 33 64  1  0  0  0  0
 37 65  1  0  0  0  0
 38 66  1  0  0  0  0
M  END
