
  xtb     03012221253D
 energy: -11.750302960231 gnorm: 0.000095186916 xtb: 6.4.1 (afa7bdf)
 54 59  0     0  0            999 V2000
   -5.8888   -1.0513    3.4451 C   0  0  0  0  0  0  0  0  0  0  0  0
   -5.9887   -1.4656    2.1324 C   0  0  0  0  0  0  0  0  0  0  0  0
   -4.9705   -1.1980    1.2453 C   0  0  0  0  0  0  0  0  0  0  0  0
   -3.8372   -0.4998    1.6558 C   0  0  0  0  0  0  0  0  0  0  0  0
   -2.7267   -0.2134    0.7359 C   0  0  0  0  0  0  0  0  0  0  0  0
   -1.4376   -0.2785    1.1004 N   0  0  0  0  0  0  0  0  0  0  0  0
   -0.7308   -0.0123    0.0110 C   0  0  0  0  0  0  0  0  0  0  0  0
    0.7303    0.0110   -0.0113 C   0  0  0  0  0  0  0  0  0  0  0  0
    1.4360    0.3732   -1.0733 N   0  0  0  0  0  0  0  0  0  0  0  0
    2.7255    0.2644   -0.7211 C   0  0  0  0  0  0  0  0  0  0  0  0
    3.8366    0.5274   -1.6473 C   0  0  0  0  0  0  0  0  0  0  0  0
    4.9865   -0.2588   -1.6579 C   0  0  0  0  0  0  0  0  0  0  0  0
    6.0049    0.0003   -2.5473 C   0  0  0  0  0  0  0  0  0  0  0  0
    5.8890    1.0402   -3.4472 C   0  0  0  0  0  0  0  0  0  0  0  0
    4.7484    1.8168   -3.4624 C   0  0  0  0  0  0  0  0  0  0  0  0
    3.7284    1.5594   -2.5741 C   0  0  0  0  0  0  0  0  0  0  0  0
    2.7950   -0.1640    0.6264 C   0  0  0  0  0  0  0  0  0  0  0  0
    3.9775   -0.3829    1.4636 C   0  0  0  0  0  0  0  0  0  0  0  0
    5.1402    0.3700    1.3174 C   0  0  0  0  0  0  0  0  0  0  0  0
    6.2248    0.1493    2.1358 C   0  0  0  0  0  0  0  0  0  0  0  0
    6.1638   -0.8173    3.1191 C   0  0  0  0  0  0  0  0  0  0  0  0
    5.0118   -1.5583    3.2892 C   0  0  0  0  0  0  0  0  0  0  0  0
    3.9257   -1.3390    2.4720 C   0  0  0  0  0  0  0  0  0  0  0  0
    1.5150   -0.3355    1.0540 O   0  0  0  0  0  0  0  0  0  0  0  0
   -1.5145    0.2370   -1.0819 O   0  0  0  0  0  0  0  0  0  0  0  0
   -2.7952    0.1304   -0.6357 C   0  0  0  0  0  0  0  0  0  0  0  0
   -3.9775    0.3606   -1.4701 C   0  0  0  0  0  0  0  0  0  0  0  0
   -5.1562    0.8961   -0.9563 C   0  0  0  0  0  0  0  0  0  0  0  0
   -6.2403    1.1171   -1.7752 C   0  0  0  0  0  0  0  0  0  0  0  0
   -6.1630    0.8182   -3.1205 C   0  0  0  0  0  0  0  0  0  0  0  0
   -4.9955    0.3054   -3.6485 C   0  0  0  0  0  0  0  0  0  0  0  0
   -3.9099    0.0837   -2.8312 C   0  0  0  0  0  0  0  0  0  0  0  0
   -3.7446   -0.1067    2.9872 C   0  0  0  0  0  0  0  0  0  0  0  0
   -4.7641   -0.3754    3.8725 C   0  0  0  0  0  0  0  0  0  0  0  0
   -6.6873   -1.2617    4.1391 H   0  0  0  0  0  0  0  0  0  0  0  0
   -6.8627   -2.0018    1.8024 H   0  0  0  0  0  0  0  0  0  0  0  0
   -5.0364   -1.5349    0.2254 H   0  0  0  0  0  0  0  0  0  0  0  0
    5.0650   -1.0799   -0.9666 H   0  0  0  0  0  0  0  0  0  0  0  0
    6.8915   -0.6114   -2.5430 H   0  0  0  0  0  0  0  0  0  0  0  0
    6.6877    1.2420   -4.1435 H   0  0  0  0  0  0  0  0  0  0  0  0
    4.6544    2.6225   -4.1711 H   0  0  0  0  0  0  0  0  0  0  0  0
    2.8297    2.1517   -2.5840 H   0  0  0  0  0  0  0  0  0  0  0  0
    5.1767    1.1374    0.5643 H   0  0  0  0  0  0  0  0  0  0  0  0
    7.1206    0.7343    2.0111 H   0  0  0  0  0  0  0  0  0  0  0  0
    7.0144   -0.9891    3.7597 H   0  0  0  0  0  0  0  0  0  0  0  0
    4.9611   -2.3059    4.0630 H   0  0  0  0  0  0  0  0  0  0  0  0
    3.0170   -1.9016    2.6017 H   0  0  0  0  0  0  0  0  0  0  0  0
   -5.2057    1.1485    0.0884 H   0  0  0  0  0  0  0  0  0  0  0  0
   -7.1485    1.5273   -1.3664 H   0  0  0  0  0  0  0  0  0  0  0  0
   -7.0133    0.9920   -3.7610 H   0  0  0  0  0  0  0  0  0  0  0  0
   -4.9322    0.0815   -4.7001 H   0  0  0  0  0  0  0  0  0  0  0  0
   -2.9893   -0.3045   -3.2323 H   0  0  0  0  0  0  0  0  0  0  0  0
   -2.8581    0.4104    3.3118 H   0  0  0  0  0  0  0  0  0  0  0  0
   -4.6824   -0.0604    4.8993 H   0  0  0  0  0  0  0  0  0  0  0  0
  1  2  2  0  0  0  0
  2  3  1  0  0  0  0
  3  4  2  0  0  0  0
  4  5  1  0  0  0  0
  5  6  1  0  0  0  0
  6  7  2  0  0  0  0
  7  8  1  0  0  0  0
  8  9  2  0  0  0  0
  9 10  1  0  0  0  0
 10 11  1  0  0  0  0
 11 12  2  0  0  0  0
 12 13  1  0  0  0  0
 13 14  2  0  0  0  0
 14 15  1  0  0  0  0
 15 16  2  0  0  0  0
 10 17  2  0  0  0  0
 17 18  1  0  0  0  0
 18 19  2  0  0  0  0
 19 20  1  0  0  0  0
 20 21  2  0  0  0  0
 21 22  1  0  0  0  0
 22 23  2  0  0  0  0
 17 24  1  0  0  0  0
  7 25  1  0  0  0  0
 25 26  1  0  0  0  0
 26 27  1  0  0  0  0
 27 28  2  0  0  0  0
 28 29  1  0  0  0  0
 29 30  2  0  0  0  0
 30 31  1  0  0  0  0
 31 32  2  0  0  0  0
  4 33  1  0  0  0  0
 33 34  2  0  0  0  0
 34  1  1  0  0  0  0
 26  5  2  0  0  0  0
 32 27  1  0  0  0  0
 24  8  1  0  0  0  0
 16 11  1  0  0  0  0
 23 18  1  0  0  0  0
  1 35  1  0  0  0  0
  2 36  1  0  0  0  0
  3 37  1  0  0  0  0
 12 38  1  0  0  0  0
 13 39  1  0  0  0  0
 14 40  1  0  0  0  0
 15 41  1  0  0  0  0
 16 42  1  0  0  0  0
 19 43  1  0  0  0  0
 20 44  1  0  0  0  0
 21 45  1  0  0  0  0
 22 46  1  0  0  0  0
 23 47  1  0  0  0  0
 28 48  1  0  0  0  0
 29 49  1  0  0  0  0
 30 50  1  0  0  0  0
 31 51  1  0  0  0  0
 32 52  1  0  0  0  0
 33 53  1  0  0  0  0
 34 54  1  0  0  0  0
M  END
