
  xtb     03012221203D
 energy: -3.133031514738 gnorm: 0.000303314474 xtb: 6.4.1 (afa7bdf)
 16 16  0     0  0            999 V2000
    2.8246   -0.1895   -0.0596 C   0  0  0  0  0  0  0  0  0  0  0  0
    1.7951    0.6049   -0.3170 C   0  0  0  0  0  0  0  0  0  0  0  0
    0.3851    0.2594   -0.1179 C   0  0  0  0  0  0  0  0  0  0  0  0
   -0.6026    1.1930   -0.4305 C   0  0  0  0  0  0  0  0  0  0  0  0
   -1.9380    0.9000   -0.2551 C   0  0  0  0  0  0  0  0  0  0  0  0
   -2.3172   -0.3321    0.2365 C   0  0  0  0  0  0  0  0  0  0  0  0
   -1.3557   -1.2703    0.5522 C   0  0  0  0  0  0  0  0  0  0  0  0
   -0.0190   -0.9798    0.3777 C   0  0  0  0  0  0  0  0  0  0  0  0
    3.8354    0.1277   -0.2291 H   0  0  0  0  0  0  0  0  0  0  0  0
    2.6932   -1.1792    0.3274 H   0  0  0  0  0  0  0  0  0  0  0  0
    1.9888    1.5912   -0.7056 H   0  0  0  0  0  0  0  0  0  0  0  0
   -0.3095    2.1553   -0.8144 H   0  0  0  0  0  0  0  0  0  0  0  0
   -2.6873    1.6345   -0.5024 H   0  0  0  0  0  0  0  0  0  0  0  0
   -3.3615   -0.5612    0.3737 H   0  0  0  0  0  0  0  0  0  0  0  0
   -1.6510   -2.2333    0.9364 H   0  0  0  0  0  0  0  0  0  0  0  0
    0.7194   -1.7206    0.6279 H   0  0  0  0  0  0  0  0  0  0  0  0
  1  2  2  0  0  0  0
  2  3  1  0  0  0  0
  3  4  2  0  0  0  0
  4  5  1  0  0  0  0
  5  6  2  0  0  0  0
  6  7  1  0  0  0  0
  7  8  2  0  0  0  0
  8  3  1  0  0  0  0
  1  9  1  0  0  0  0
  1 10  1  0  0  0  0
  2 11  1  0  0  0  0
  4 12  1  0  0  0  0
  5 13  1  0  0  0  0
  6 14  1  0  0  0  0
  7 15  1  0  0  0  0
  8 16  1  0  0  0  0
M  END
