
  xtb     03012221253D
 energy: -12.962462791723 gnorm: 0.000199941504 xtb: 6.4.1 (afa7bdf)
 61 68  0     0  0            999 V2000
    6.9626    0.8525    1.8191 C   0  0  0  0  0  0  0  0  0  0  0  0
    6.1460   -0.3133    1.2313 C   0  0  0  0  0  0  0  0  0  0  0  0
    5.0658   -0.7150    2.2545 C   0  0  0  0  0  0  0  0  0  0  0  0
    7.0657   -1.5257    0.9952 C   0  0  0  0  0  0  0  0  0  0  0  0
    5.5282    0.1249   -0.1057 C   0  0  0  0  0  0  0  0  0  0  0  0
    6.3746    0.5175   -1.1587 C   0  0  0  0  0  0  0  0  0  0  0  0
    5.8919    0.9293   -2.3742 C   0  0  0  0  0  0  0  0  0  0  0  0
    4.5127    0.9645   -2.5833 C   0  0  0  0  0  0  0  0  0  0  0  0
    3.7810    1.3427   -3.6955 O   0  0  0  0  0  0  0  0  0  0  0  0
    2.4395    1.2012   -3.3804 C   0  0  0  0  0  0  0  0  0  0  0  0
    1.4014    1.4705   -4.1754 N   0  0  0  0  0  0  0  0  0  0  0  0
    0.2067    1.2511   -3.6211 C   0  0  0  0  0  0  0  0  0  0  0  0
   -1.0265    1.4583   -4.2153 O   0  0  0  0  0  0  0  0  0  0  0  0
   -1.9978    1.1119   -3.2927 C   0  0  0  0  0  0  0  0  0  0  0  0
   -3.3923    1.1465   -3.3883 C   0  0  0  0  0  0  0  0  0  0  0  0
   -4.1455    0.7486   -2.3166 C   0  0  0  0  0  0  0  0  0  0  0  0
   -3.5494    0.3011   -1.1247 C   0  0  0  0  0  0  0  0  0  0  0  0
   -4.3739   -0.1156   -0.0200 N   0  0  0  0  0  0  0  0  0  0  0  0
   -5.1453    0.7286    0.8001 C   0  0  0  0  0  0  0  0  0  0  0  0
   -5.3176    2.1118    0.7794 C   0  0  0  0  0  0  0  0  0  0  0  0
   -6.1370    2.6865    1.7189 C   0  0  0  0  0  0  0  0  0  0  0  0
   -6.7893    1.9076    2.6803 C   0  0  0  0  0  0  0  0  0  0  0  0
   -6.6291    0.5433    2.7138 C   0  0  0  0  0  0  0  0  0  0  0  0
   -5.7983   -0.0566    1.7656 C   0  0  0  0  0  0  0  0  0  0  0  0
   -5.4194   -1.4295    1.5296 C   0  0  0  0  0  0  0  0  0  0  0  0
   -5.7623   -2.6253    2.1635 C   0  0  0  0  0  0  0  0  0  0  0  0
   -5.2285   -3.7991    1.6888 C   0  0  0  0  0  0  0  0  0  0  0  0
   -4.3583   -3.8044    0.5937 C   0  0  0  0  0  0  0  0  0  0  0  0
   -4.0106   -2.6372   -0.0397 C   0  0  0  0  0  0  0  0  0  0  0  0
   -4.5436   -1.4379    0.4305 C   0  0  0  0  0  0  0  0  0  0  0  0
   -2.1742    0.2606   -1.0143 C   0  0  0  0  0  0  0  0  0  0  0  0
   -1.3998    0.6694   -2.0963 C   0  0  0  0  0  0  0  0  0  0  0  0
    0.0141    0.7610   -2.2982 C   0  0  0  0  0  0  0  0  0  0  0  0
    1.0876    0.4832   -1.4760 C   0  0  0  0  0  0  0  0  0  0  0  0
    2.3244    0.7166   -2.0445 C   0  0  0  0  0  0  0  0  0  0  0  0
    3.6569    0.5713   -1.5406 C   0  0  0  0  0  0  0  0  0  0  0  0
    4.1626    0.1547   -0.3096 C   0  0  0  0  0  0  0  0  0  0  0  0
    7.7756    1.1411    1.1550 H   0  0  0  0  0  0  0  0  0  0  0  0
    6.3299    1.7258    1.9723 H   0  0  0  0  0  0  0  0  0  0  0  0
    7.3980    0.5783    2.7791 H   0  0  0  0  0  0  0  0  0  0  0  0
    4.4677   -1.5476    1.8864 H   0  0  0  0  0  0  0  0  0  0  0  0
    5.5208   -1.0261    3.1941 H   0  0  0  0  0  0  0  0  0  0  0  0
    4.4014    0.1204    2.4715 H   0  0  0  0  0  0  0  0  0  0  0  0
    7.8814   -1.2789    0.3178 H   0  0  0  0  0  0  0  0  0  0  0  0
    6.5068   -2.3526    0.5590 H   0  0  0  0  0  0  0  0  0  0  0  0
    7.5034   -1.8705    1.9312 H   0  0  0  0  0  0  0  0  0  0  0  0
    7.4388    0.4961   -1.0027 H   0  0  0  0  0  0  0  0  0  0  0  0
    6.5491    1.2288   -3.1704 H   0  0  0  0  0  0  0  0  0  0  0  0
   -3.8461    1.4862   -4.3016 H   0  0  0  0  0  0  0  0  0  0  0  0
   -5.2197    0.7673   -2.3720 H   0  0  0  0  0  0  0  0  0  0  0  0
   -4.8092    2.7012    0.0368 H   0  0  0  0  0  0  0  0  0  0  0  0
   -6.2798    3.7550    1.7169 H   0  0  0  0  0  0  0  0  0  0  0  0
   -7.4261    2.3860    3.4056 H   0  0  0  0  0  0  0  0  0  0  0  0
   -7.1266   -0.0626    3.4508 H   0  0  0  0  0  0  0  0  0  0  0  0
   -6.4338   -2.6131    3.0041 H   0  0  0  0  0  0  0  0  0  0  0  0
   -5.4845   -4.7305    2.1656 H   0  0  0  0  0  0  0  0  0  0  0  0
   -3.9564   -4.7403    0.2410 H   0  0  0  0  0  0  0  0  0  0  0  0
   -3.3449   -2.6297   -0.8847 H   0  0  0  0  0  0  0  0  0  0  0  0
   -1.7125   -0.0762   -0.1055 H   0  0  0  0  0  0  0  0  0  0  0  0
    0.9702    0.1196   -0.4725 H   0  0  0  0  0  0  0  0  0  0  0  0
    3.4739   -0.1331    0.4619 H   0  0  0  0  0  0  0  0  0  0  0  0
  1  2  1  0  0  0  0
  2  3  1  0  0  0  0
  2  4  1  0  0  0  0
  2  5  1  0  0  0  0
  5  6  2  0  0  0  0
  6  7  1  0  0  0  0
  7  8  2  0  0  0  0
  8  9  1  0  0  0  0
  9 10  1  0  0  0  0
 10 11  2  0  0  0  0
 11 12  1  0  0  0  0
 12 13  1  0  0  0  0
 13 14  1  0  0  0  0
 14 15  2  0  0  0  0
 15 16  1  0  0  0  0
 16 17  2  0  0  0  0
 17 18  1  0  0  0  0
 18 19  1  0  0  0  0
 19 20  2  0  0  0  0
 20 21  1  0  0  0  0
 21 22  2  0  0  0  0
 22 23  1  0  0  0  0
 23 24  2  0  0  0  0
 24 25  1  0  0  0  0
 25 26  2  0  0  0  0
 26 27  1  0  0  0  0
 27 28  2  0  0  0  0
 28 29  1  0  0  0  0
 29 30  2  0  0  0  0
 17 31  1  0  0  0  0
 31 32  2  0  0  0  0
 32 33  1  0  0  0  0
 33 34  1  0  0  0  0
 34 35  2  0  0  0  0
 35 36  1  0  0  0  0
 36 37  2  0  0  0  0
 37  5  1  0  0  0  0
 36  8  1  0  0  0  0
 35 10  1  0  0  0  0
 33 12  2  0  0  0  0
 32 14  1  0  0  0  0
 30 18  1  0  0  0  0
 24 19  1  0  0  0  0
 30 25  1  0  0  0  0
  1 38  1  0  0  0  0
  1 39  1  0  0  0  0
  1 40  1  0  0  0  0
  3 41  1  0  0  0  0
  3 42  1  0  0  0  0
  3 43  1  0  0  0  0
  4 44  1  0  0  0  0
  4 45  1  0  0  0  0
  4 46  1  0  0  0  0
  6 47  1  0  0  0  0
  7 48  1  0  0  0  0
 15 49  1  0  0  0  0
 16 50  1  0  0  0  0
 20 51  1  0  0  0  0
 21 52  1  0  0  0  0
 22 53  1  0  0  0  0
 23 54  1  0  0  0  0
 26 55  1  0  0  0  0
 27 56  1  0  0  0  0
 28 57  1  0  0  0  0
 29 58  1  0  0  0  0
 31 59  1  0  0  0  0
 34 60  1  0  0  0  0
 37 61  1  0  0  0  0
M  END
