
  xtb     03012221263D
 energy: -9.810169115682 gnorm: 0.000390208080 xtb: 6.4.1 (afa7bdf)
 49 53  0     0  0            999 V2000
   -1.8792   -3.7247   -1.4336 C   0  0  0  0  0  0  0  0  0  0  0  0
   -1.9655   -2.4686   -0.6979 N   0  0  0  0  0  0  0  0  0  0  0  0
   -1.2664   -1.3168   -0.9738 C   0  0  0  0  0  0  0  0  0  0  0  0
   -1.6229   -0.3313   -0.0712 C   0  0  0  0  0  0  0  0  0  0  0  0
   -1.1533    1.0624   -0.0068 C   0  0  0  0  0  0  0  0  0  0  0  0
   -2.0561    1.9813    0.2598 N   0  0  0  0  0  0  0  0  0  0  0  0
   -1.6058    3.2532    0.2620 C   0  0  0  0  0  0  0  0  0  0  0  0
   -2.5098    4.3031    0.5140 C   0  0  0  0  0  0  0  0  0  0  0  0
   -2.1015    5.6055    0.5070 C   0  0  0  0  0  0  0  0  0  0  0  0
   -0.7684    5.9206    0.2475 C   0  0  0  0  0  0  0  0  0  0  0  0
    0.1348    4.9281    0.0016 C   0  0  0  0  0  0  0  0  0  0  0  0
   -0.2507    3.5721    0.0015 C   0  0  0  0  0  0  0  0  0  0  0  0
    0.6774    2.6216   -0.2214 N   0  0  0  0  0  0  0  0  0  0  0  0
    0.2305    1.3787   -0.2042 C   0  0  0  0  0  0  0  0  0  0  0  0
    1.1936    0.3204   -0.3378 C   0  0  0  0  0  0  0  0  0  0  0  0
    2.5070    0.5429   -0.5468 C   0  0  0  0  0  0  0  0  0  0  0  0
    3.4475   -0.4590   -0.6504 N   0  0  0  0  0  0  0  0  0  0  0  0
    4.8933   -0.2167   -0.8647 C   0  0  0  0  0  0  0  0  0  0  0  0
    5.6057   -1.5457   -0.5677 C   0  0  0  0  0  0  0  0  0  0  0  0
    4.5233   -2.6362   -0.7072 C   0  0  0  0  0  0  0  0  0  0  0  0
    3.1747   -1.9134   -0.5367 C   0  0  0  0  0  0  0  0  0  0  0  0
   -2.6224   -0.8990    0.7832 C   0  0  0  0  0  0  0  0  0  0  0  0
   -3.3566   -0.3674    1.8515 C   0  0  0  0  0  0  0  0  0  0  0  0
   -4.2520   -1.1754    2.4994 C   0  0  0  0  0  0  0  0  0  0  0  0
   -4.4387   -2.5093    2.1049 C   0  0  0  0  0  0  0  0  0  0  0  0
   -3.7337   -3.0445    1.0587 C   0  0  0  0  0  0  0  0  0  0  0  0
   -2.8132   -2.2327    0.3863 C   0  0  0  0  0  0  0  0  0  0  0  0
   -1.0935   -3.6691   -2.1849 H   0  0  0  0  0  0  0  0  0  0  0  0
   -2.8257   -3.9298   -1.9302 H   0  0  0  0  0  0  0  0  0  0  0  0
   -1.6533   -4.5418   -0.7510 H   0  0  0  0  0  0  0  0  0  0  0  0
   -0.5830   -1.2050   -1.7974 H   0  0  0  0  0  0  0  0  0  0  0  0
   -3.5373    4.0519    0.7089 H   0  0  0  0  0  0  0  0  0  0  0  0
   -2.8101    6.3942    0.7006 H   0  0  0  0  0  0  0  0  0  0  0  0
   -0.4527    6.9510    0.2428 H   0  0  0  0  0  0  0  0  0  0  0  0
    1.1664    5.1621   -0.1950 H   0  0  0  0  0  0  0  0  0  0  0  0
    0.8619   -0.6930   -0.2249 H   0  0  0  0  0  0  0  0  0  0  0  0
    2.8513    1.5556   -0.6360 H   0  0  0  0  0  0  0  0  0  0  0  0
    5.0413    0.1022   -1.9009 H   0  0  0  0  0  0  0  0  0  0  0  0
    5.2309    0.5967   -0.2147 H   0  0  0  0  0  0  0  0  0  0  0  0
    6.4544   -1.7158   -1.2419 H   0  0  0  0  0  0  0  0  0  0  0  0
    6.0114   -1.5396    0.4509 H   0  0  0  0  0  0  0  0  0  0  0  0
    4.5819   -3.1051   -1.6967 H   0  0  0  0  0  0  0  0  0  0  0  0
    4.6519   -3.4417    0.0264 H   0  0  0  0  0  0  0  0  0  0  0  0
    2.7339   -2.1067    0.4461 H   0  0  0  0  0  0  0  0  0  0  0  0
    2.4419   -2.2091   -1.2941 H   0  0  0  0  0  0  0  0  0  0  0  0
   -3.2119    0.6604    2.1312 H   0  0  0  0  0  0  0  0  0  0  0  0
   -4.8255   -0.7817    3.3227 H   0  0  0  0  0  0  0  0  0  0  0  0
   -5.1514   -3.1206    2.6332 H   0  0  0  0  0  0  0  0  0  0  0  0
   -3.8745   -4.0645    0.7480 H   0  0  0  0  0  0  0  0  0  0  0  0
  1  2  1  0  0  0  0
  2  3  1  0  0  0  0
  3  4  2  0  0  0  0
  4  5  1  0  0  0  0
  5  6  2  0  0  0  0
  6  7  1  0  0  0  0
  7  8  2  0  0  0  0
  8  9  1  0  0  0  0
  9 10  2  0  0  0  0
 10 11  1  0  0  0  0
 11 12  2  0  0  0  0
 12 13  1  0  0  0  0
 13 14  2  0  0  0  0
 14 15  1  0  0  0  0
 15 16  2  0  0  0  0
 16 17  1  0  0  0  0
 17 18  1  0  0  0  0
 18 19  1  0  0  0  0
 19 20  1  0  0  0  0
 20 21  1  0  0  0  0
  4 22  1  0  0  0  0
 22 23  2  0  0  0  0
 23 24  1  0  0  0  0
 24 25  2  0  0  0  0
 25 26  1  0  0  0  0
 26 27  2  0  0  0  0
 27  2  1  0  0  0  0
 14  5  1  0  0  0  0
 21 17  1  0  0  0  0
 27 22  1  0  0  0  0
 12  7  1  0  0  0  0
  1 28  1  0  0  0  0
  1 29  1  0  0  0  0
  1 30  1  0  0  0  0
  3 31  1  0  0  0  0
  8 32  1  0  0  0  0
  9 33  1  0  0  0  0
 10 34  1  0  0  0  0
 11 35  1  0  0  0  0
 15 36  1  0  0  0  0
 16 37  1  0  0  0  0
 18 38  1  0  0  0  0
 18 39  1  0  0  0  0
 19 40  1  0  0  0  0
 19 41  1  0  0  0  0
 20 42  1  0  0  0  0
 20 43  1  0  0  0  0
 21 44  1  0  0  0  0
 21 45  1  0  0  0  0
 23 46  1  0  0  0  0
 24 47  1  0  0  0  0
 25 48  1  0  0  0  0
 26 49  1  0  0  0  0
M  END
