
  xtb     03012221263D
 energy: -8.234877028874 gnorm: 0.000468856062 xtb: 6.4.1 (afa7bdf)
 42 44  0     0  0            999 V2000
    5.0762    0.4118    0.3102 C   0  0  0  0  0  0  0  0  0  0  0  0
    4.5444    1.0450   -0.9595 C   0  0  0  0  0  0  0  0  0  0  0  0
    3.1986    0.7025   -1.1640 O   0  0  0  0  0  0  0  0  0  0  0  0
    2.4069    1.3276   -0.2368 C   0  0  0  0  0  0  0  0  0  0  0  0
    2.8019    2.2235    0.4864 O   0  0  0  0  0  0  0  0  0  0  0  0
    1.0219    0.8331   -0.1264 C   0  0  0  0  0  0  0  0  0  0  0  0
    0.6079   -0.4877   -0.1869 C   0  0  0  0  0  0  0  0  0  0  0  0
    1.5104   -1.6592   -0.3563 C   0  0  0  0  0  0  0  0  0  0  0  0
    2.5153   -1.7643    0.3221 O   0  0  0  0  0  0  0  0  0  0  0  0
    1.1532   -2.5714   -1.3092 O   0  0  0  0  0  0  0  0  0  0  0  0
    2.0792   -3.6071   -1.3316 C   0  0  0  0  0  0  0  0  0  0  0  0
   -0.7944   -0.5140   -0.0335 C   0  0  0  0  0  0  0  0  0  0  0  0
   -1.6069   -1.7498    0.0436 C   0  0  0  0  0  0  0  0  0  0  0  0
   -2.7629   -1.7654   -0.3345 O   0  0  0  0  0  0  0  0  0  0  0  0
   -0.9946   -2.8506    0.5781 O   0  0  0  0  0  0  0  0  0  0  0  0
   -1.8616   -3.9376    0.5433 C   0  0  0  0  0  0  0  0  0  0  0  0
   -1.2192    0.8145    0.1065 C   0  0  0  0  0  0  0  0  0  0  0  0
   -2.4917    1.4403    0.3145 C   0  0  0  0  0  0  0  0  0  0  0  0
   -3.7192    0.7741    0.3678 C   0  0  0  0  0  0  0  0  0  0  0  0
   -4.8813    1.4629    0.5837 C   0  0  0  0  0  0  0  0  0  0  0  0
   -4.8533    2.8408    0.7499 C   0  0  0  0  0  0  0  0  0  0  0  0
   -3.6676    3.5198    0.6926 C   0  0  0  0  0  0  0  0  0  0  0  0
   -2.4636    2.8366    0.4706 C   0  0  0  0  0  0  0  0  0  0  0  0
   -1.2153    3.5224    0.3931 C   0  0  0  0  0  0  0  0  0  0  0  0
   -0.0690    2.9721    0.1890 N   0  0  0  0  0  0  0  0  0  0  0  0
   -0.0974    1.6214    0.0646 N   0  0  0  0  0  0  0  0  0  0  0  0
    6.1413    0.6008    0.4582 H   0  0  0  0  0  0  0  0  0  0  0  0
    4.5337    0.7982    1.1761 H   0  0  0  0  0  0  0  0  0  0  0  0
    4.9075   -0.6672    0.2906 H   0  0  0  0  0  0  0  0  0  0  0  0
    4.6022    2.1422   -0.9273 H   0  0  0  0  0  0  0  0  0  0  0  0
    5.0988    0.7075   -1.8449 H   0  0  0  0  0  0  0  0  0  0  0  0
    3.0600   -3.1944   -1.5727 H   0  0  0  0  0  0  0  0  0  0  0  0
    2.1064   -4.0701   -0.3438 H   0  0  0  0  0  0  0  0  0  0  0  0
    1.7789   -4.3367   -2.0841 H   0  0  0  0  0  0  0  0  0  0  0  0
   -1.3595   -4.8063    0.9685 H   0  0  0  0  0  0  0  0  0  0  0  0
   -2.7539   -3.6952    1.1210 H   0  0  0  0  0  0  0  0  0  0  0  0
   -2.1360   -4.1294   -0.4946 H   0  0  0  0  0  0  0  0  0  0  0  0
   -3.7375   -0.2869    0.2112 H   0  0  0  0  0  0  0  0  0  0  0  0
   -5.8204    0.9370    0.6195 H   0  0  0  0  0  0  0  0  0  0  0  0
   -5.7735    3.3780    0.9204 H   0  0  0  0  0  0  0  0  0  0  0  0
   -3.6481    4.5881    0.8164 H   0  0  0  0  0  0  0  0  0  0  0  0
   -1.2176    4.5925    0.5080 H   0  0  0  0  0  0  0  0  0  0  0  0
  1  2  1  0  0  0  0
  2  3  1  0  0  0  0
  3  4  1  0  0  0  0
  4  5  2  0  0  0  0
  4  6  1  0  0  0  0
  6  7  2  0  0  0  0
  7  8  1  0  0  0  0
  8  9  2  0  0  0  0
  8 10  1  0  0  0  0
 10 11  1  0  0  0  0
  7 12  1  0  0  0  0
 12 13  1  0  0  0  0
 13 14  2  0  0  0  0
 13 15  1  0  0  0  0
 15 16  1  0  0  0  0
 12 17  2  0  0  0  0
 17 18  1  0  0  0  0
 18 19  2  0  0  0  0
 19 20  1  0  0  0  0
 20 21  2  0  0  0  0
 21 22  1  0  0  0  0
 22 23  2  0  0  0  0
 23 24  1  0  0  0  0
 24 25  2  0  0  0  0
 25 26  1  0  0  0  0
 26  6  1  0  0  0  0
 26 17  1  0  0  0  0
 23 18  1  0  0  0  0
  1 27  1  0  0  0  0
  1 28  1  0  0  0  0
  1 29  1  0  0  0  0
  2 30  1  0  0  0  0
  2 31  1  0  0  0  0
 11 32  1  0  0  0  0
 11 33  1  0  0  0  0
 11 34  1  0  0  0  0
 16 35  1  0  0  0  0
 16 36  1  0  0  0  0
 16 37  1  0  0  0  0
 19 38  1  0  0  0  0
 20 39  1  0  0  0  0
 21 40  1  0  0  0  0
 22 41  1  0  0  0  0
 24 42  1  0  0  0  0
M  END
