
  xtb     03012221263D
 energy: -12.812449600999 gnorm: 0.000275700787 xtb: 6.4.1 (afa7bdf)
 58 64  0     0  0            999 V2000
    5.6954    0.8753   -2.1935 O   0  0  0  0  0  0  0  0  0  0  0  0
    5.2935    0.3415   -1.1760 C   0  0  0  0  0  0  0  0  0  0  0  0
    6.2514   -0.0231   -0.1054 C   0  0  0  0  0  0  0  0  0  0  0  0
    7.5399   -0.4074   -0.4511 C   0  0  0  0  0  0  0  0  0  0  0  0
    8.4605   -0.7333    0.5204 C   0  0  0  0  0  0  0  0  0  0  0  0
    8.1088   -0.6715    1.8538 C   0  0  0  0  0  0  0  0  0  0  0  0
    6.8361   -0.2747    2.2125 C   0  0  0  0  0  0  0  0  0  0  0  0
    5.9145    0.0525    1.2427 C   0  0  0  0  0  0  0  0  0  0  0  0
    3.8515    0.0597   -1.0099 C   0  0  0  0  0  0  0  0  0  0  0  0
    2.9290    0.8261   -1.7124 C   0  0  0  0  0  0  0  0  0  0  0  0
    1.5818    0.5930   -1.5874 C   0  0  0  0  0  0  0  0  0  0  0  0
    1.1137   -0.4220   -0.7583 C   0  0  0  0  0  0  0  0  0  0  0  0
   -0.2934   -0.6420   -0.6067 N   0  0  0  0  0  0  0  0  0  0  0  0
   -0.9883   -1.8695   -0.6486 C   0  0  0  0  0  0  0  0  0  0  0  0
   -0.5308   -3.1714   -0.8566 C   0  0  0  0  0  0  0  0  0  0  0  0
   -1.4371   -4.2021   -0.8458 C   0  0  0  0  0  0  0  0  0  0  0  0
   -2.8005   -3.9652   -0.6318 C   0  0  0  0  0  0  0  0  0  0  0  0
   -3.2746   -2.6921   -0.4349 C   0  0  0  0  0  0  0  0  0  0  0  0
   -2.3650   -1.6322   -0.4511 C   0  0  0  0  0  0  0  0  0  0  0  0
   -2.5193   -0.2160   -0.2873 C   0  0  0  0  0  0  0  0  0  0  0  0
   -1.2619    0.3642   -0.3760 C   0  0  0  0  0  0  0  0  0  0  0  0
   -1.4091    1.7706   -0.1392 C   0  0  0  0  0  0  0  0  0  0  0  0
   -0.4915    2.8227   -0.0785 C   0  0  0  0  0  0  0  0  0  0  0  0
   -0.9599    4.0876    0.1736 C   0  0  0  0  0  0  0  0  0  0  0  0
   -2.3264    4.3252    0.3675 C   0  0  0  0  0  0  0  0  0  0  0  0
   -3.2397    3.3017    0.3208 C   0  0  0  0  0  0  0  0  0  0  0  0
   -2.7855    2.0046    0.0738 C   0  0  0  0  0  0  0  0  0  0  0  0
   -3.4835    0.7825   -0.0166 N   0  0  0  0  0  0  0  0  0  0  0  0
   -4.8952    0.5662    0.1330 C   0  0  0  0  0  0  0  0  0  0  0  0
   -5.5955   -0.1805   -0.8074 C   0  0  0  0  0  0  0  0  0  0  0  0
   -6.9473   -0.3987   -0.6616 C   0  0  0  0  0  0  0  0  0  0  0  0
   -7.6194    0.1270    0.4243 C   0  0  0  0  0  0  0  0  0  0  0  0
   -6.9351    0.8721    1.3645 C   0  0  0  0  0  0  0  0  0  0  0  0
   -5.5830    1.0911    1.2211 C   0  0  0  0  0  0  0  0  0  0  0  0
    2.0363   -1.2064   -0.0725 C   0  0  0  0  0  0  0  0  0  0  0  0
    3.3834   -0.9719   -0.1982 C   0  0  0  0  0  0  0  0  0  0  0  0
    7.8052   -0.4358   -1.4941 H   0  0  0  0  0  0  0  0  0  0  0  0
    9.4571   -1.0327    0.2388 H   0  0  0  0  0  0  0  0  0  0  0  0
    8.8288   -0.9261    2.6137 H   0  0  0  0  0  0  0  0  0  0  0  0
    6.5642   -0.2160    3.2539 H   0  0  0  0  0  0  0  0  0  0  0  0
    4.9294    0.3847    1.5209 H   0  0  0  0  0  0  0  0  0  0  0  0
    3.2966    1.6023   -2.3617 H   0  0  0  0  0  0  0  0  0  0  0  0
    0.8706    1.1803   -2.1408 H   0  0  0  0  0  0  0  0  0  0  0  0
    0.5157   -3.3479   -1.0314 H   0  0  0  0  0  0  0  0  0  0  0  0
   -1.0952   -5.2110   -1.0050 H   0  0  0  0  0  0  0  0  0  0  0  0
   -3.4869   -4.7955   -0.6244 H   0  0  0  0  0  0  0  0  0  0  0  0
   -4.3187   -2.4999   -0.2674 H   0  0  0  0  0  0  0  0  0  0  0  0
    0.5560    2.6298   -0.2222 H   0  0  0  0  0  0  0  0  0  0  0  0
   -0.2676    4.9114    0.2221 H   0  0  0  0  0  0  0  0  0  0  0  0
   -2.6650    5.3302    0.5580 H   0  0  0  0  0  0  0  0  0  0  0  0
   -4.2897    3.4812    0.4641 H   0  0  0  0  0  0  0  0  0  0  0  0
   -5.0645   -0.5741   -1.6562 H   0  0  0  0  0  0  0  0  0  0  0  0
   -7.4813   -0.9778   -1.3970 H   0  0  0  0  0  0  0  0  0  0  0  0
   -8.6773   -0.0438    0.5376 H   0  0  0  0  0  0  0  0  0  0  0  0
   -7.4593    1.2805    2.2128 H   0  0  0  0  0  0  0  0  0  0  0  0
   -5.0389    1.6567    1.9568 H   0  0  0  0  0  0  0  0  0  0  0  0
    1.6761   -1.9869    0.5738 H   0  0  0  0  0  0  0  0  0  0  0  0
    4.0905   -1.5931    0.3231 H   0  0  0  0  0  0  0  0  0  0  0  0
  1  2  2  0  0  0  0
  2  3  1  0  0  0  0
  3  4  2  0  0  0  0
  4  5  1  0  0  0  0
  5  6  2  0  0  0  0
  6  7  1  0  0  0  0
  7  8  2  0  0  0  0
  2  9  1  0  0  0  0
  9 10  2  0  0  0  0
 10 11  1  0  0  0  0
 11 12  2  0  0  0  0
 12 13  1  0  0  0  0
 13 14  1  0  0  0  0
 14 15  2  0  0  0  0
 15 16  1  0  0  0  0
 16 17  2  0  0  0  0
 17 18  1  0  0  0  0
 18 19  2  0  0  0  0
 19 20  1  0  0  0  0
 20 21  2  0  0  0  0
 21 22  1  0  0  0  0
 22 23  2  0  0  0  0
 23 24  1  0  0  0  0
 24 25  2  0  0  0  0
 25 26  1  0  0  0  0
 26 27  2  0  0  0  0
 27 28  1  0  0  0  0
 28 29  1  0  0  0  0
 29 30  2  0  0  0  0
 30 31  1  0  0  0  0
 31 32  2  0  0  0  0
 32 33  1  0  0  0  0
 33 34  2  0  0  0  0
 12 35  1  0  0  0  0
 35 36  2  0  0  0  0
  8  3  1  0  0  0  0
 36  9  1  0  0  0  0
 21 13  1  0  0  0  0
 27 22  1  0  0  0  0
 34 29  1  0  0  0  0
 19 14  1  0  0  0  0
 28 20  1  0  0  0  0
  4 37  1  0  0  0  0
  5 38  1  0  0  0  0
  6 39  1  0  0  0  0
  7 40  1  0  0  0  0
  8 41  1  0  0  0  0
 10 42  1  0  0  0  0
 11 43  1  0  0  0  0
 15 44  1  0  0  0  0
 16 45  1  0  0  0  0
 17 46  1  0  0  0  0
 18 47  1  0  0  0  0
 23 48  1  0  0  0  0
 24 49  1  0  0  0  0
 25 50  1  0  0  0  0
 26 51  1  0  0  0  0
 30 52  1  0  0  0  0
 31 53  1  0  0  0  0
 32 54  1  0  0  0  0
 33 55  1  0  0  0  0
 34 56  1  0  0  0  0
 35 57  1  0  0  0  0
 36 58  1  0  0  0  0
M  END
