
  xtb     03012221313D
 energy: -4.541208525994 gnorm: 0.000078333051 xtb: 6.4.1 (afa7bdf)
 22 23  0     0  0            999 V2000
    3.5142    0.1058   -0.2643 C   0  0  0  0  0  0  0  0  0  0  0  0
    2.8945   -1.0040    0.2737 C   0  0  0  0  0  0  0  0  0  0  0  0
    1.5208   -1.0467    0.3775 C   0  0  0  0  0  0  0  0  0  0  0  0
    0.7387    0.0227   -0.0550 C   0  0  0  0  0  0  0  0  0  0  0  0
   -0.7387   -0.0218    0.0559 C   0  0  0  0  0  0  0  0  0  0  0  0
   -1.3551   -0.5430    1.1920 C   0  0  0  0  0  0  0  0  0  0  0  0
   -2.7291   -0.5847    1.2933 C   0  0  0  0  0  0  0  0  0  0  0  0
   -3.5142   -0.1065    0.2637 C   0  0  0  0  0  0  0  0  0  0  0  0
   -2.9214    0.4138   -0.8690 C   0  0  0  0  0  0  0  0  0  0  0  0
   -1.5478    0.4560   -0.9734 C   0  0  0  0  0  0  0  0  0  0  0  0
    1.3821    1.1348   -0.5950 C   0  0  0  0  0  0  0  0  0  0  0  0
    2.7560    1.1744   -0.6984 C   0  0  0  0  0  0  0  0  0  0  0  0
    4.5885    0.1380   -0.3454 H   0  0  0  0  0  0  0  0  0  0  0  0
    3.4859   -1.8393    0.6121 H   0  0  0  0  0  0  0  0  0  0  0  0
    1.0376   -1.9175    0.7860 H   0  0  0  0  0  0  0  0  0  0  0  0
   -0.7434   -0.9050    2.0003 H   0  0  0  0  0  0  0  0  0  0  0  0
   -3.1912   -0.9903    2.1786 H   0  0  0  0  0  0  0  0  0  0  0  0
   -4.5886   -0.1394    0.3441 H   0  0  0  0  0  0  0  0  0  0  0  0
   -3.5339    0.7865   -1.6739 H   0  0  0  0  0  0  0  0  0  0  0  0
   -1.0862    0.8508   -1.8622 H   0  0  0  0  0  0  0  0  0  0  0  0
    0.7922    1.9734   -0.9228 H   0  0  0  0  0  0  0  0  0  0  0  0
    3.2392    2.0418   -1.1178 H   0  0  0  0  0  0  0  0  0  0  0  0
  1  2  2  0  0  0  0
  2  3  1  0  0  0  0
  3  4  2  0  0  0  0
  4  5  1  0  0  0  0
  5  6  2  0  0  0  0
  6  7  1  0  0  0  0
  7  8  2  0  0  0  0
  8  9  1  0  0  0  0
  9 10  2  0  0  0  0
  4 11  1  0  0  0  0
 11 12  2  0  0  0  0
 12  1  1  0  0  0  0
 10  5  1  0  0  0  0
  1 13  1  0  0  0  0
  2 14  1  0  0  0  0
  3 15  1  0  0  0  0
  6 16  1  0  0  0  0
  7 17  1  0  0  0  0
  8 18  1  0  0  0  0
  9 19  1  0  0  0  0
 10 20  1  0  0  0  0
 11 21  1  0  0  0  0
 12 22  1  0  0  0  0
M  END
