
  xtb     03012221273D
 energy: -9.743801968706 gnorm: 0.000296540378 xtb: 6.4.1 (afa7bdf)
 48 52  0     0  0            999 V2000
   -0.8089   -1.8657    0.2176 C   0  0  0  0  0  0  0  0  0  0  0  0
   -1.9788   -0.9918    0.2401 N   0  0  0  0  0  0  0  0  0  0  0  0
   -1.9228    0.3901    0.1168 C   0  0  0  0  0  0  0  0  0  0  0  0
   -0.7619    1.0801   -0.0461 C   0  0  0  0  0  0  0  0  0  0  0  0
   -0.6076    2.4774   -0.1791 C   0  0  0  0  0  0  0  0  0  0  0  0
    0.5943    3.0896   -0.3504 C   0  0  0  0  0  0  0  0  0  0  0  0
    1.8375    2.4132   -0.4199 C   0  0  0  0  0  0  0  0  0  0  0  0
    1.9854    1.1179   -0.3226 N   0  0  0  0  0  0  0  0  0  0  0  0
    3.2986    0.7179   -0.4280 C   0  0  0  0  0  0  0  0  0  0  0  0
    3.6693   -0.5556   -0.3589 N   0  0  0  0  0  0  0  0  0  0  0  0
    4.9930   -0.7393   -0.4888 C   0  0  0  0  0  0  0  0  0  0  0  0
    5.5052   -2.0549   -0.4324 C   0  0  0  0  0  0  0  0  0  0  0  0
    6.8381   -2.3033   -0.5603 C   0  0  0  0  0  0  0  0  0  0  0  0
    7.7350   -1.2499   -0.7515 C   0  0  0  0  0  0  0  0  0  0  0  0
    7.2830    0.0340   -0.8111 C   0  0  0  0  0  0  0  0  0  0  0  0
    5.9106    0.3357   -0.6834 C   0  0  0  0  0  0  0  0  0  0  0  0
    5.5176    1.6235   -0.7503 N   0  0  0  0  0  0  0  0  0  0  0  0
    4.2220    1.7723   -0.6198 C   0  0  0  0  0  0  0  0  0  0  0  0
    3.3528    3.2838   -0.6534 S   0  0  0  0  0  0  0  0  0  0  0  0
   -3.3647    0.9130    0.1917 C   0  0  0  0  0  0  0  0  0  0  0  0
   -3.7696    1.6120   -1.1140 C   0  0  0  0  0  0  0  0  0  0  0  0
   -3.5616    1.8250    1.4111 C   0  0  0  0  0  0  0  0  0  0  0  0
   -4.1796   -0.3699    0.3670 C   0  0  0  0  0  0  0  0  0  0  0  0
   -5.5400   -0.5565    0.4960 C   0  0  0  0  0  0  0  0  0  0  0  0
   -6.0295   -1.8421    0.6463 C   0  0  0  0  0  0  0  0  0  0  0  0
   -5.1674   -2.9281    0.6680 C   0  0  0  0  0  0  0  0  0  0  0  0
   -3.8058   -2.7499    0.5401 C   0  0  0  0  0  0  0  0  0  0  0  0
   -3.3091   -1.4613    0.3884 C   0  0  0  0  0  0  0  0  0  0  0  0
   -0.1357   -1.6065    1.0322 H   0  0  0  0  0  0  0  0  0  0  0  0
   -0.2798   -1.7546   -0.7267 H   0  0  0  0  0  0  0  0  0  0  0  0
   -1.0987   -2.9071    0.3289 H   0  0  0  0  0  0  0  0  0  0  0  0
    0.1345    0.4925   -0.0790 H   0  0  0  0  0  0  0  0  0  0  0  0
   -1.4900    3.0904   -0.1433 H   0  0  0  0  0  0  0  0  0  0  0  0
    0.6249    4.1619   -0.4444 H   0  0  0  0  0  0  0  0  0  0  0  0
    4.8091   -2.8619   -0.2852 H   0  0  0  0  0  0  0  0  0  0  0  0
    7.2050   -3.3154   -0.5143 H   0  0  0  0  0  0  0  0  0  0  0  0
    8.7879   -1.4561   -0.8520 H   0  0  0  0  0  0  0  0  0  0  0  0
    7.9682    0.8504   -0.9583 H   0  0  0  0  0  0  0  0  0  0  0  0
   -3.6249    0.9441   -1.9624 H   0  0  0  0  0  0  0  0  0  0  0  0
   -3.1802    2.5094   -1.2897 H   0  0  0  0  0  0  0  0  0  0  0  0
   -4.8196    1.9006   -1.0887 H   0  0  0  0  0  0  0  0  0  0  0  0
   -2.9656    2.7318    1.3362 H   0  0  0  0  0  0  0  0  0  0  0  0
   -3.2702    1.3064    2.3236 H   0  0  0  0  0  0  0  0  0  0  0  0
   -4.6059    2.1181    1.5100 H   0  0  0  0  0  0  0  0  0  0  0  0
   -6.2026    0.2916    0.4784 H   0  0  0  0  0  0  0  0  0  0  0  0
   -7.0905   -1.9998    0.7471 H   0  0  0  0  0  0  0  0  0  0  0  0
   -5.5656   -3.9223    0.7860 H   0  0  0  0  0  0  0  0  0  0  0  0
   -3.1357   -3.5909    0.5573 H   0  0  0  0  0  0  0  0  0  0  0  0
  1  2  1  0  0  0  0
  2  3  1  0  0  0  0
  3  4  2  0  0  0  0
  4  5  1  0  0  0  0
  5  6  2  0  0  0  0
  6  7  1  0  0  0  0
  7  8  2  0  0  0  0
  8  9  1  0  0  0  0
  9 10  2  0  0  0  0
 10 11  1  0  0  0  0
 11 12  2  0  0  0  0
 12 13  1  0  0  0  0
 13 14  2  0  0  0  0
 14 15  1  0  0  0  0
 15 16  2  0  0  0  0
 16 17  1  0  0  0  0
 17 18  2  0  0  0  0
 18 19  1  0  0  0  0
  3 20  1  0  0  0  0
 20 21  1  0  0  0  0
 20 22  1  0  0  0  0
 20 23  1  0  0  0  0
 23 24  2  0  0  0  0
 24 25  1  0  0  0  0
 25 26  2  0  0  0  0
 26 27  1  0  0  0  0
 27 28  2  0  0  0  0
 28  2  1  0  0  0  0
 19  7  1  0  0  0  0
 28 23  1  0  0  0  0
 18  9  1  0  0  0  0
 16 11  1  0  0  0  0
  1 29  1  0  0  0  0
  1 30  1  0  0  0  0
  1 31  1  0  0  0  0
  4 32  1  0  0  0  0
  5 33  1  0  0  0  0
  6 34  1  0  0  0  0
 12 35  1  0  0  0  0
 13 36  1  0  0  0  0
 14 37  1  0  0  0  0
 15 38  1  0  0  0  0
 21 39  1  0  0  0  0
 21 40  1  0  0  0  0
 21 41  1  0  0  0  0
 22 42  1  0  0  0  0
 22 43  1  0  0  0  0
 22 44  1  0  0  0  0
 24 45  1  0  0  0  0
 25 46  1  0  0  0  0
 26 47  1  0  0  0  0
 27 48  1  0  0  0  0
M  END
