
  xtb     03012221223D
 energy: -18.710541669775 gnorm: 0.000259628589 xtb: 6.4.1 (afa7bdf)
 86 94  0     0  0            999 V2000
    8.6660    2.9509    0.0689 N   0  0  0  0  0  0  0  0  0  0  0  0
    7.3674    2.5106    0.0755 C   0  0  0  0  0  0  0  0  0  0  0  0
    6.4006    3.1062   -0.7500 C   0  0  0  0  0  0  0  0  0  0  0  0
    5.1074    2.6673   -0.7415 C   0  0  0  0  0  0  0  0  0  0  0  0
    4.6969    1.6074    0.0911 C   0  0  0  0  0  0  0  0  0  0  0  0
    3.3077    1.1312    0.0962 C   0  0  0  0  0  0  0  0  0  0  0  0
    2.2326    2.0744    0.1376 C   0  0  0  0  0  0  0  0  0  0  0  0
    0.9154    1.8275   -0.0374 N   0  0  0  0  0  0  0  0  0  0  0  0
    0.2990    3.0303   -0.0161 C   0  0  0  0  0  0  0  0  0  0  0  0
   -1.0746    3.3052   -0.3062 C   0  0  0  0  0  0  0  0  0  0  0  0
   -1.5365    4.7027   -0.4014 C   0  0  0  0  0  0  0  0  0  0  0  0
   -2.2112    5.1729   -1.5456 C   0  0  0  0  0  0  0  0  0  0  0  0
   -2.6450    6.4647   -1.6343 C   0  0  0  0  0  0  0  0  0  0  0  0
   -2.4329    7.3684   -0.5810 C   0  0  0  0  0  0  0  0  0  0  0  0
   -2.8696    8.6653   -0.6683 N   0  0  0  0  0  0  0  0  0  0  0  0
   -1.7634    6.9092    0.5646 C   0  0  0  0  0  0  0  0  0  0  0  0
   -1.3297    5.6172    0.6506 C   0  0  0  0  0  0  0  0  0  0  0  0
   -2.0077    2.2499   -0.5017 C   0  0  0  0  0  0  0  0  0  0  0  0
   -3.3708    2.4272   -0.8245 C   0  0  0  0  0  0  0  0  0  0  0  0
   -3.9802    1.2072   -0.7942 C   0  0  0  0  0  0  0  0  0  0  0  0
   -3.0199    0.2417   -0.4205 C   0  0  0  0  0  0  0  0  0  0  0  0
   -1.8145    0.9002   -0.2866 N   0  0  0  0  0  0  0  0  0  0  0  0
   -3.2938   -1.1310   -0.1711 C   0  0  0  0  0  0  0  0  0  0  0  0
   -4.6811   -1.6109   -0.1864 C   0  0  0  0  0  0  0  0  0  0  0  0
   -5.7159   -0.8942    0.4462 C   0  0  0  0  0  0  0  0  0  0  0  0
   -7.0053   -1.3441    0.4322 C   0  0  0  0  0  0  0  0  0  0  0  0
   -7.3417   -2.5428   -0.2166 C   0  0  0  0  0  0  0  0  0  0  0  0
   -8.6362   -2.9949   -0.2328 N   0  0  0  0  0  0  0  0  0  0  0  0
   -6.3174   -3.2672   -0.8467 C   0  0  0  0  0  0  0  0  0  0  0  0
   -5.0288   -2.8151   -0.8297 C   0  0  0  0  0  0  0  0  0  0  0  0
   -2.2368   -2.0449    0.1389 C   0  0  0  0  0  0  0  0  0  0  0  0
   -0.9077   -1.8387    0.0125 N   0  0  0  0  0  0  0  0  0  0  0  0
   -0.3121   -3.0011    0.3590 C   0  0  0  0  0  0  0  0  0  0  0  0
    1.0849   -3.3082    0.3072 C   0  0  0  0  0  0  0  0  0  0  0  0
    1.5302   -4.6980    0.4486 C   0  0  0  0  0  0  0  0  0  0  0  0
    0.8611   -5.7512   -0.2053 C   0  0  0  0  0  0  0  0  0  0  0  0
    1.2756   -7.0462   -0.0778 C   0  0  0  0  0  0  0  0  0  0  0  0
    2.3875   -7.3705    0.7155 C   0  0  0  0  0  0  0  0  0  0  0  0
    2.8040   -8.6704    0.8462 N   0  0  0  0  0  0  0  0  0  0  0  0
    3.0610   -6.3285    1.3725 C   0  0  0  0  0  0  0  0  0  0  0  0
    2.6449   -5.0344    1.2414 C   0  0  0  0  0  0  0  0  0  0  0  0
    2.0472   -2.2762    0.1302 C   0  0  0  0  0  0  0  0  0  0  0  0
    3.4227   -2.4799   -0.1151 C   0  0  0  0  0  0  0  0  0  0  0  0
    4.0320   -1.2608   -0.1672 C   0  0  0  0  0  0  0  0  0  0  0  0
    3.0518   -0.2665    0.0445 C   0  0  0  0  0  0  0  0  0  0  0  0
    1.8414   -0.9129    0.1876 N   0  0  0  0  0  0  0  0  0  0  0  0
   -1.2888   -3.9499    0.7842 C   0  0  0  0  0  0  0  0  0  0  0  0
   -2.4878   -3.3547    0.6460 C   0  0  0  0  0  0  0  0  0  0  0  0
    1.2502    4.0675    0.2164 C   0  0  0  0  0  0  0  0  0  0  0  0
    2.4510    3.4708    0.3300 C   0  0  0  0  0  0  0  0  0  0  0  0
    5.6761    1.0142    0.9121 C   0  0  0  0  0  0  0  0  0  0  0  0
    6.9698    1.4515    0.9068 C   0  0  0  0  0  0  0  0  0  0  0  0
    8.9974    3.7120   -0.5085 H   0  0  0  0  0  0  0  0  0  0  0  0
    9.3949    2.5568    0.6485 H   0  0  0  0  0  0  0  0  0  0  0  0
    6.6983    3.9127   -1.3962 H   0  0  0  0  0  0  0  0  0  0  0  0
    4.3848    3.1113   -1.4058 H   0  0  0  0  0  0  0  0  0  0  0  0
   -2.3550    4.4977   -2.3727 H   0  0  0  0  0  0  0  0  0  0  0  0
   -3.1531    6.8097   -2.5172 H   0  0  0  0  0  0  0  0  0  0  0  0
   -3.3352    9.0469   -1.4807 H   0  0  0  0  0  0  0  0  0  0  0  0
   -2.7224    9.3562    0.0553 H   0  0  0  0  0  0  0  0  0  0  0  0
   -1.6032    7.5934    1.3788 H   0  0  0  0  0  0  0  0  0  0  0  0
   -0.8461    5.2695    1.5484 H   0  0  0  0  0  0  0  0  0  0  0  0
   -3.8578    3.3668   -1.0235 H   0  0  0  0  0  0  0  0  0  0  0  0
   -5.0181    1.0175   -1.0114 H   0  0  0  0  0  0  0  0  0  0  0  0
   -0.9209    0.4596   -0.0343 H   0  0  0  0  0  0  0  0  0  0  0  0
   -5.4680    0.0073    0.9812 H   0  0  0  0  0  0  0  0  0  0  0  0
   -7.7823   -0.7875    0.9253 H   0  0  0  0  0  0  0  0  0  0  0  0
   -9.4061   -2.5070    0.2052 H   0  0  0  0  0  0  0  0  0  0  0  0
   -8.9261   -3.8497   -0.6885 H   0  0  0  0  0  0  0  0  0  0  0  0
   -6.5667   -4.1851   -1.3486 H   0  0  0  0  0  0  0  0  0  0  0  0
   -4.2577   -3.3681   -1.3399 H   0  0  0  0  0  0  0  0  0  0  0  0
    0.0251   -5.5150   -0.8424 H   0  0  0  0  0  0  0  0  0  0  0  0
    0.7571   -7.8375   -0.5894 H   0  0  0  0  0  0  0  0  0  0  0  0
    3.5902   -8.9528    1.4159 H   0  0  0  0  0  0  0  0  0  0  0  0
    2.3438   -9.4540    0.4026 H   0  0  0  0  0  0  0  0  0  0  0  0
    3.9102   -6.5685    1.9873 H   0  0  0  0  0  0  0  0  0  0  0  0
    3.1519   -4.2506    1.7790 H   0  0  0  0  0  0  0  0  0  0  0  0
    3.9033   -3.4320   -0.2678 H   0  0  0  0  0  0  0  0  0  0  0  0
    5.0761   -1.0863   -0.3673 H   0  0  0  0  0  0  0  0  0  0  0  0
    0.9280   -0.4519    0.2870 H   0  0  0  0  0  0  0  0  0  0  0  0
   -1.1029   -4.9391    1.1698 H   0  0  0  0  0  0  0  0  0  0  0  0
   -3.4472   -3.7762    0.8981 H   0  0  0  0  0  0  0  0  0  0  0  0
    1.0577    5.1266    0.2594 H   0  0  0  0  0  0  0  0  0  0  0  0
    3.3924    3.9575    0.5257 H   0  0  0  0  0  0  0  0  0  0  0  0
    5.3799    0.2195    1.5764 H   0  0  0  0  0  0  0  0  0  0  0  0
    7.7033    0.9919    1.5452 H   0  0  0  0  0  0  0  0  0  0  0  0
  1  2  1  0  0  0  0
  2  3  2  0  0  0  0
  3  4  1  0  0  0  0
  4  5  2  0  0  0  0
  5  6  1  0  0  0  0
  6  7  1  0  0  0  0
  7  8  2  0  0  0  0
  8  9  1  0  0  0  0
  9 10  2  0  0  0  0
 10 11  1  0  0  0  0
 11 12  2  0  0  0  0
 12 13  1  0  0  0  0
 13 14  2  0  0  0  0
 14 15  1  0  0  0  0
 14 16  1  0  0  0  0
 16 17  2  0  0  0  0
 10 18  1  0  0  0  0
 18 19  2  0  0  0  0
 19 20  1  0  0  0  0
 20 21  2  0  0  0  0
 21 22  1  0  0  0  0
 21 23  1  0  0  0  0
 23 24  1  0  0  0  0
 24 25  2  0  0  0  0
 25 26  1  0  0  0  0
 26 27  2  0  0  0  0
 27 28  1  0  0  0  0
 27 29  1  0  0  0  0
 29 30  2  0  0  0  0
 23 31  2  0  0  0  0
 31 32  1  0  0  0  0
 32 33  2  0  0  0  0
 33 34  1  0  0  0  0
 34 35  1  0  0  0  0
 35 36  2  0  0  0  0
 36 37  1  0  0  0  0
 37 38  2  0  0  0  0
 38 39  1  0  0  0  0
 38 40  1  0  0  0  0
 40 41  2  0  0  0  0
 34 42  2  0  0  0  0
 42 43  1  0  0  0  0
 43 44  2  0  0  0  0
 44 45  1  0  0  0  0
 45 46  1  0  0  0  0
 33 47  1  0  0  0  0
 47 48  2  0  0  0  0
  9 49  1  0  0  0  0
 49 50  2  0  0  0  0
  5 51  1  0  0  0  0
 51 52  2  0  0  0  0
 52  2  1  0  0  0  0
 45  6  2  0  0  0  0
 50  7  1  0  0  0  0
 17 11  1  0  0  0  0
 22 18  1  0  0  0  0
 30 24  1  0  0  0  0
 48 31  1  0  0  0  0
 41 35  1  0  0  0  0
 46 42  1  0  0  0  0
  1 53  1  0  0  0  0
  1 54  1  0  0  0  0
  3 55  1  0  0  0  0
  4 56  1  0  0  0  0
 12 57  1  0  0  0  0
 13 58  1  0  0  0  0
 15 59  1  0  0  0  0
 15 60  1  0  0  0  0
 16 61  1  0  0  0  0
 17 62  1  0  0  0  0
 19 63  1  0  0  0  0
 20 64  1  0  0  0  0
 22 65  1  0  0  0  0
 25 66  1  0  0  0  0
 26 67  1  0  0  0  0
 28 68  1  0  0  0  0
 28 69  1  0  0  0  0
 29 70  1  0  0  0  0
 30 71  1  0  0  0  0
 36 72  1  0  0  0  0
 37 73  1  0  0  0  0
 39 74  1  0  0  0  0
 39 75  1  0  0  0  0
 40 76  1  0  0  0  0
 41 77  1  0  0  0  0
 43 78  1  0  0  0  0
 44 79  1  0  0  0  0
 46 80  1  0  0  0  0
 47 81  1  0  0  0  0
 48 82  1  0  0  0  0
 49 83  1  0  0  0  0
 50 84  1  0  0  0  0
 51 85  1  0  0  0  0
 52 86  1  0  0  0  0
M  END
