
  xtb     03012221293D
 energy: -7.400801038016 gnorm: 0.000423730318 xtb: 6.4.1 (afa7bdf)
 37 39  0     0  0            999 V2000
    6.7871   -0.0039    0.0485 C   0  0  0  0  0  0  0  0  0  0  0  0
    5.4517   -0.6992    0.2086 C   0  0  0  0  0  0  0  0  0  0  0  0
    4.3665    0.1709   -0.0038 O   0  0  0  0  0  0  0  0  0  0  0  0
    3.1915   -0.5162    0.1427 C   0  0  0  0  0  0  0  0  0  0  0  0
    3.1275   -1.7042    0.4144 O   0  0  0  0  0  0  0  0  0  0  0  0
    1.9610    0.2589   -0.0459 C   0  0  0  0  0  0  0  0  0  0  0  0
    1.8603    1.6247   -0.3529 C   0  0  0  0  0  0  0  0  0  0  0  0
    0.5343    1.9601   -0.4386 C   0  0  0  0  0  0  0  0  0  0  0  0
   -0.0381    3.2845   -0.7408 C   0  0  0  0  0  0  0  0  0  0  0  0
   -0.2183    0.8141   -0.1869 N   0  0  0  0  0  0  0  0  0  0  0  0
   -1.5599    0.7083   -0.1688 N   0  0  0  0  0  0  0  0  0  0  0  0
   -2.0372   -0.4935    0.0896 C   0  0  0  0  0  0  0  0  0  0  0  0
   -3.5007   -0.6422    0.1094 C   0  0  0  0  0  0  0  0  0  0  0  0
   -4.1370   -1.8777   -0.0116 C   0  0  0  0  0  0  0  0  0  0  0  0
   -5.5102   -1.9689    0.0074 C   0  0  0  0  0  0  0  0  0  0  0  0
   -6.2773   -0.8296    0.1431 C   0  0  0  0  0  0  0  0  0  0  0  0
   -5.6691    0.4040    0.2544 C   0  0  0  0  0  0  0  0  0  0  0  0
   -4.2965    0.4935    0.2347 C   0  0  0  0  0  0  0  0  0  0  0  0
   -1.2036   -1.6107    0.3624 C   0  0  0  0  0  0  0  0  0  0  0  0
    0.1430   -1.4972    0.3467 C   0  0  0  0  0  0  0  0  0  0  0  0
    0.6563   -0.2318    0.0539 C   0  0  0  0  0  0  0  0  0  0  0  0
    6.8832    0.4156   -0.9529 H   0  0  0  0  0  0  0  0  0  0  0  0
    7.6265   -0.6811    0.2140 H   0  0  0  0  0  0  0  0  0  0  0  0
    6.8757    0.8230    0.7531 H   0  0  0  0  0  0  0  0  0  0  0  0
    5.3393   -1.5315   -0.5001 H   0  0  0  0  0  0  0  0  0  0  0  0
    5.3315   -1.1219    1.2158 H   0  0  0  0  0  0  0  0  0  0  0  0
    2.6936    2.2911   -0.4941 H   0  0  0  0  0  0  0  0  0  0  0  0
    0.2692    4.0197    0.0028 H   0  0  0  0  0  0  0  0  0  0  0  0
    0.2854    3.6333   -1.7215 H   0  0  0  0  0  0  0  0  0  0  0  0
   -1.1270    3.2364   -0.7408 H   0  0  0  0  0  0  0  0  0  0  0  0
   -3.5490   -2.7695   -0.1455 H   0  0  0  0  0  0  0  0  0  0  0  0
   -5.9869   -2.9298   -0.0877 H   0  0  0  0  0  0  0  0  0  0  0  0
   -7.3532   -0.9027    0.1578 H   0  0  0  0  0  0  0  0  0  0  0  0
   -6.2668    1.2940    0.3553 H   0  0  0  0  0  0  0  0  0  0  0  0
   -3.8121    1.4524    0.3172 H   0  0  0  0  0  0  0  0  0  0  0  0
   -1.6511   -2.5565    0.6087 H   0  0  0  0  0  0  0  0  0  0  0  0
    0.8105   -2.3162    0.5508 H   0  0  0  0  0  0  0  0  0  0  0  0
  1  2  1  0  0  0  0
  2  3  1  0  0  0  0
  3  4  1  0  0  0  0
  4  5  2  0  0  0  0
  4  6  1  0  0  0  0
  6  7  1  0  0  0  0
  7  8  2  0  0  0  0
  8  9  1  0  0  0  0
  8 10  1  0  0  0  0
 10 11  1  0  0  0  0
 11 12  2  0  0  0  0
 12 13  1  0  0  0  0
 13 14  2  0  0  0  0
 14 15  1  0  0  0  0
 15 16  2  0  0  0  0
 16 17  1  0  0  0  0
 17 18  2  0  0  0  0
 12 19  1  0  0  0  0
 19 20  2  0  0  0  0
 20 21  1  0  0  0  0
 21  6  2  0  0  0  0
 21 10  1  0  0  0  0
 18 13  1  0  0  0  0
  1 22  1  0  0  0  0
  1 23  1  0  0  0  0
  1 24  1  0  0  0  0
  2 25  1  0  0  0  0
  2 26  1  0  0  0  0
  7 27  1  0  0  0  0
  9 28  1  0  0  0  0
  9 29  1  0  0  0  0
  9 30  1  0  0  0  0
 14 31  1  0  0  0  0
 15 32  1  0  0  0  0
 16 33  1  0  0  0  0
 17 34  1  0  0  0  0
 18 35  1  0  0  0  0
 19 36  1  0  0  0  0
 20 37  1  0  0  0  0
M  END
