
  xtb     03012221263D
 energy: -5.899515252924 gnorm: 0.000134689406 xtb: 6.4.1 (afa7bdf)
 28 31  0     0  0            999 V2000
   -0.2769    2.9497    0.2799 C   0  0  0  0  0  0  0  0  0  0  0  0
   -0.8816    1.6093    0.0657 C   0  0  0  0  0  0  0  0  0  0  0  0
   -2.2392    1.4698   -0.1099 C   0  0  0  0  0  0  0  0  0  0  0  0
   -2.8234    0.2077   -0.3139 C   0  0  0  0  0  0  0  0  0  0  0  0
   -4.5076   -0.1997   -0.5570 S   0  0  0  0  0  0  0  0  0  0  0  0
   -4.1515   -1.8978   -0.6962 C   0  0  0  0  0  0  0  0  0  0  0  0
   -2.8344   -2.1437   -0.5663 C   0  0  0  0  0  0  0  0  0  0  0  0
   -2.0585   -0.9529   -0.3471 C   0  0  0  0  0  0  0  0  0  0  0  0
   -0.6534   -0.8327   -0.1675 C   0  0  0  0  0  0  0  0  0  0  0  0
    0.3417   -1.7952   -0.1516 N   0  0  0  0  0  0  0  0  0  0  0  0
    1.5643   -1.1690    0.0612 C   0  0  0  0  0  0  0  0  0  0  0  0
    2.8543   -1.6966    0.1590 C   0  0  0  0  0  0  0  0  0  0  0  0
    3.9008   -0.8380    0.3762 C   0  0  0  0  0  0  0  0  0  0  0  0
    3.6887    0.5401    0.4986 C   0  0  0  0  0  0  0  0  0  0  0  0
    2.4284    1.0756    0.4051 C   0  0  0  0  0  0  0  0  0  0  0  0
    1.3433    0.2192    0.1832 C   0  0  0  0  0  0  0  0  0  0  0  0
   -0.0781    0.4352    0.0362 C   0  0  0  0  0  0  0  0  0  0  0  0
    0.2294    2.9977    1.2447 H   0  0  0  0  0  0  0  0  0  0  0  0
   -1.0350    3.7339    0.2663 H   0  0  0  0  0  0  0  0  0  0  0  0
    0.4474    3.1788   -0.5025 H   0  0  0  0  0  0  0  0  0  0  0  0
   -2.8750    2.3363   -0.0928 H   0  0  0  0  0  0  0  0  0  0  0  0
   -4.9054   -2.6430   -0.8652 H   0  0  0  0  0  0  0  0  0  0  0  0
   -2.3928   -3.1262   -0.6189 H   0  0  0  0  0  0  0  0  0  0  0  0
    0.2038   -2.7985   -0.2750 H   0  0  0  0  0  0  0  0  0  0  0  0
    3.0056   -2.7571    0.0635 H   0  0  0  0  0  0  0  0  0  0  0  0
    4.9022   -1.2284    0.4542 H   0  0  0  0  0  0  0  0  0  0  0  0
    4.5308    1.1904    0.6693 H   0  0  0  0  0  0  0  0  0  0  0  0
    2.2721    2.1346    0.5005 H   0  0  0  0  0  0  0  0  0  0  0  0
  1  2  1  0  0  0  0
  2  3  2  0  0  0  0
  3  4  1  0  0  0  0
  4  5  1  0  0  0  0
  5  6  1  0  0  0  0
  6  7  2  0  0  0  0
  7  8  1  0  0  0  0
  8  9  1  0  0  0  0
  9 10  1  0  0  0  0
 10 11  1  0  0  0  0
 11 12  2  0  0  0  0
 12 13  1  0  0  0  0
 13 14  2  0  0  0  0
 14 15  1  0  0  0  0
 15 16  2  0  0  0  0
 16 17  1  0  0  0  0
 17  2  1  0  0  0  0
  8  4  2  0  0  0  0
 17  9  2  0  0  0  0
 16 11  1  0  0  0  0
  1 18  1  0  0  0  0
  1 19  1  0  0  0  0
  1 20  1  0  0  0  0
  3 21  1  0  0  0  0
  6 22  1  0  0  0  0
  7 23  1  0  0  0  0
 10 24  1  0  0  0  0
 12 25  1  0  0  0  0
 13 26  1  0  0  0  0
 14 27  1  0  0  0  0
 15 28  1  0  0  0  0
M  END
