
  xtb     03012221273D
 energy: -12.472646689398 gnorm: 0.000079780297 xtb: 6.4.1 (afa7bdf)
 64 67  0     0  0            999 V2000
   -6.5503    2.9003    4.4058 C   0  0  0  0  0  0  0  0  0  0  0  0
   -5.7762    2.8168    3.2543 O   0  0  0  0  0  0  0  0  0  0  0  0
   -5.4965    1.5112    2.9919 C   0  0  0  0  0  0  0  0  0  0  0  0
   -5.8511    0.5751    3.6723 O   0  0  0  0  0  0  0  0  0  0  0  0
   -4.6597    1.2436    1.7587 C   0  0  0  0  0  0  0  0  0  0  0  0
   -5.3566    0.3162    0.8867 N   0  0  0  0  0  0  0  0  0  0  0  0
   -5.0971    0.2619   -0.4698 C   0  0  0  0  0  0  0  0  0  0  0  0
   -4.3274    1.0602   -0.9771 O   0  0  0  0  0  0  0  0  0  0  0  0
   -5.7474   -0.7303   -1.1520 O   0  0  0  0  0  0  0  0  0  0  0  0
   -5.4573   -0.7657   -2.5737 C   0  0  0  0  0  0  0  0  0  0  0  0
   -5.8862    0.5569   -3.2241 C   0  0  0  0  0  0  0  0  0  0  0  0
   -6.2729   -1.9218   -3.1727 C   0  0  0  0  0  0  0  0  0  0  0  0
   -3.9600   -1.0253   -2.7915 C   0  0  0  0  0  0  0  0  0  0  0  0
   -3.2744    0.7556    2.0885 C   0  0  0  0  0  0  0  0  0  0  0  0
   -2.9807    0.2185    3.3573 C   0  0  0  0  0  0  0  0  0  0  0  0
   -1.7310   -0.2230    3.6817 C   0  0  0  0  0  0  0  0  0  0  0  0
   -0.7124   -0.1442    2.7214 C   0  0  0  0  0  0  0  0  0  0  0  0
    0.6121   -0.4697    2.7205 O   0  0  0  0  0  0  0  0  0  0  0  0
    1.0635   -0.1395    1.4598 C   0  0  0  0  0  0  0  0  0  0  0  0
    2.4411   -0.2980    1.0079 C   0  0  0  0  0  0  0  0  0  0  0  0
    2.7892    0.0977   -0.2776 C   0  0  0  0  0  0  0  0  0  0  0  0
    4.0781   -0.0181   -0.7328 C   0  0  0  0  0  0  0  0  0  0  0  0
    5.0869   -0.5374    0.0796 C   0  0  0  0  0  0  0  0  0  0  0  0
    6.4235   -0.6772   -0.2976 O   0  0  0  0  0  0  0  0  0  0  0  0
    6.8187   -0.2895   -1.5575 C   0  0  0  0  0  0  0  0  0  0  0  0
    6.0953    0.1552   -2.4232 O   0  0  0  0  0  0  0  0  0  0  0  0
    8.2657   -0.4431   -1.8371 C   0  0  0  0  0  0  0  0  0  0  0  0
    8.7771   -0.0823   -3.0729 C   0  0  0  0  0  0  0  0  0  0  0  0
   10.1218   -0.2179   -3.3346 C   0  0  0  0  0  0  0  0  0  0  0  0
   10.9692   -0.7146   -2.3659 C   0  0  0  0  0  0  0  0  0  0  0  0
   10.4665   -1.0759   -1.1331 C   0  0  0  0  0  0  0  0  0  0  0  0
    9.1222   -0.9414   -0.8684 C   0  0  0  0  0  0  0  0  0  0  0  0
    4.7433   -0.9411    1.3627 C   0  0  0  0  0  0  0  0  0  0  0  0
    3.4463   -0.8338    1.8498 C   0  0  0  0  0  0  0  0  0  0  0  0
    3.1709   -1.2453    3.1319 O   0  0  0  0  0  0  0  0  0  0  0  0
    0.1173    0.3548    0.6802 N   0  0  0  0  0  0  0  0  0  0  0  0
   -1.0038    0.3684    1.4330 C   0  0  0  0  0  0  0  0  0  0  0  0
   -2.2986    0.8033    1.1238 C   0  0  0  0  0  0  0  0  0  0  0  0
   -5.9891    2.4781    5.2432 H   0  0  0  0  0  0  0  0  0  0  0  0
   -7.4696    2.3283    4.2556 H   0  0  0  0  0  0  0  0  0  0  0  0
   -6.7873    3.9482    4.6027 H   0  0  0  0  0  0  0  0  0  0  0  0
   -4.5730    2.1893    1.2027 H   0  0  0  0  0  0  0  0  0  0  0  0
   -5.9158   -0.3961    1.3513 H   0  0  0  0  0  0  0  0  0  0  0  0
   -5.7135    0.5434   -4.2987 H   0  0  0  0  0  0  0  0  0  0  0  0
   -5.3262    1.3857   -2.7944 H   0  0  0  0  0  0  0  0  0  0  0  0
   -6.9434    0.7409   -3.0436 H   0  0  0  0  0  0  0  0  0  0  0  0
   -5.9967   -2.8619   -2.6992 H   0  0  0  0  0  0  0  0  0  0  0  0
   -7.3351   -1.7624   -2.9982 H   0  0  0  0  0  0  0  0  0  0  0  0
   -6.1064   -2.0106   -4.2448 H   0  0  0  0  0  0  0  0  0  0  0  0
   -3.6618   -1.9502   -2.3018 H   0  0  0  0  0  0  0  0  0  0  0  0
   -3.7222   -1.1000   -3.8511 H   0  0  0  0  0  0  0  0  0  0  0  0
   -3.3715   -0.2165   -2.3624 H   0  0  0  0  0  0  0  0  0  0  0  0
   -3.7788    0.1477    4.0738 H   0  0  0  0  0  0  0  0  0  0  0  0
   -1.5086   -0.6296    4.6540 H   0  0  0  0  0  0  0  0  0  0  0  0
    2.0222    0.5057   -0.9126 H   0  0  0  0  0  0  0  0  0  0  0  0
    4.3342    0.2952   -1.7269 H   0  0  0  0  0  0  0  0  0  0  0  0
    8.1020    0.3048   -3.8160 H   0  0  0  0  0  0  0  0  0  0  0  0
   10.5132    0.0658   -4.2990 H   0  0  0  0  0  0  0  0  0  0  0  0
   12.0211   -0.8196   -2.5714 H   0  0  0  0  0  0  0  0  0  0  0  0
   11.1277   -1.4638   -0.3741 H   0  0  0  0  0  0  0  0  0  0  0  0
    8.7163   -1.2175    0.0887 H   0  0  0  0  0  0  0  0  0  0  0  0
    5.5044   -1.3438    2.0024 H   0  0  0  0  0  0  0  0  0  0  0  0
    2.2182   -1.0756    3.2848 H   0  0  0  0  0  0  0  0  0  0  0  0
   -2.5291    1.1351    0.1286 H   0  0  0  0  0  0  0  0  0  0  0  0
  1  2  1  0  0  0  0
  2  3  1  0  0  0  0
  3  4  2  0  0  0  0
  3  5  1  0  0  0  0
  5  6  1  0  0  0  0
  6  7  1  0  0  0  0
  7  8  2  0  0  0  0
  7  9  1  0  0  0  0
  9 10  1  0  0  0  0
 10 11  1  0  0  0  0
 10 12  1  0  0  0  0
 10 13  1  0  0  0  0
  5 14  1  0  0  0  0
 14 15  2  0  0  0  0
 15 16  1  0  0  0  0
 16 17  2  0  0  0  0
 17 18  1  0  0  0  0
 18 19  1  0  0  0  0
 19 20  1  0  0  0  0
 20 21  2  0  0  0  0
 21 22  1  0  0  0  0
 22 23  2  0  0  0  0
 23 24  1  0  0  0  0
 24 25  1  0  0  0  0
 25 26  2  0  0  0  0
 25 27  1  0  0  0  0
 27 28  2  0  0  0  0
 28 29  1  0  0  0  0
 29 30  2  0  0  0  0
 30 31  1  0  0  0  0
 31 32  2  0  0  0  0
 23 33  1  0  0  0  0
 33 34  2  0  0  0  0
 34 35  1  0  0  0  0
 19 36  2  0  0  0  0
 36 37  1  0  0  0  0
 37 38  2  0  0  0  0
 38 14  1  0  0  0  0
 37 17  1  0  0  0  0
 34 20  1  0  0  0  0
 32 27  1  0  0  0  0
  1 39  1  0  0  0  0
  1 40  1  0  0  0  0
  1 41  1  0  0  0  0
  5 42  1  0  0  0  0
  6 43  1  0  0  0  0
 11 44  1  0  0  0  0
 11 45  1  0  0  0  0
 11 46  1  0  0  0  0
 12 47  1  0  0  0  0
 12 48  1  0  0  0  0
 12 49  1  0  0  0  0
 13 50  1  0  0  0  0
 13 51  1  0  0  0  0
 13 52  1  0  0  0  0
 15 53  1  0  0  0  0
 16 54  1  0  0  0  0
 21 55  1  0  0  0  0
 22 56  1  0  0  0  0
 28 57  1  0  0  0  0
 29 58  1  0  0  0  0
 30 59  1  0  0  0  0
 31 60  1  0  0  0  0
 32 61  1  0  0  0  0
 33 62  1  0  0  0  0
 35 63  1  0  0  0  0
 38 64  1  0  0  0  0
M  END
