
  xtb     03012221243D
 energy: -22.110225533856 gnorm: 0.000253494327 xtb: 6.4.1 (afa7bdf)
103114  0     0  0            999 V2000
   -4.7526    4.7153    1.3044 C   0  0  0  0  0  0  0  0  0  0  0  0
   -4.3432    4.1067   -0.0495 C   0  0  0  0  0  0  0  0  0  0  0  0
   -3.0117    4.7434   -0.4850 C   0  0  0  0  0  0  0  0  0  0  0  0
   -5.4376    4.4369   -1.0796 C   0  0  0  0  0  0  0  0  0  0  0  0
   -4.1701    2.5834    0.0388 C   0  0  0  0  0  0  0  0  0  0  0  0
   -4.3525    1.8780    1.2228 C   0  0  0  0  0  0  0  0  0  0  0  0
   -4.1782    0.5126    1.2717 C   0  0  0  0  0  0  0  0  0  0  0  0
   -3.8146   -0.1908    0.1334 C   0  0  0  0  0  0  0  0  0  0  0  0
   -3.6145   -1.6200    0.1810 N   0  0  0  0  0  0  0  0  0  0  0  0
   -2.3934   -2.3146    0.2419 C   0  0  0  0  0  0  0  0  0  0  0  0
   -1.0678   -1.7113    0.3367 C   0  0  0  0  0  0  0  0  0  0  0  0
   -0.8730   -0.3880    0.7310 C   0  0  0  0  0  0  0  0  0  0  0  0
    0.3880    0.1483    0.8062 C   0  0  0  0  0  0  0  0  0  0  0  0
    1.5099   -0.6150    0.4811 C   0  0  0  0  0  0  0  0  0  0  0  0
    2.8667   -0.0208    0.5219 C   0  0  0  0  0  0  0  0  0  0  0  0
    3.3212    0.5711    1.7033 C   0  0  0  0  0  0  0  0  0  0  0  0
    4.5849    1.1366    1.8274 C   0  0  0  0  0  0  0  0  0  0  0  0
    5.0336    1.7167    3.1155 C   0  0  0  0  0  0  0  0  0  0  0  0
    6.1163    1.1700    3.8040 C   0  0  0  0  0  0  0  0  0  0  0  0
    6.5378    1.7151    4.9968 C   0  0  0  0  0  0  0  0  0  0  0  0
    5.8843    2.8090    5.5276 C   0  0  0  0  0  0  0  0  0  0  0  0
    4.8047    3.3565    4.8637 C   0  0  0  0  0  0  0  0  0  0  0  0
    4.3799    2.8165    3.6695 C   0  0  0  0  0  0  0  0  0  0  0  0
    5.4106    1.1267    0.6898 C   0  0  0  0  0  0  0  0  0  0  0  0
    4.9700    0.5415   -0.5174 C   0  0  0  0  0  0  0  0  0  0  0  0
    3.7014   -0.0497   -0.6204 C   0  0  0  0  0  0  0  0  0  0  0  0
    3.2413   -0.6536   -1.8938 C   0  0  0  0  0  0  0  0  0  0  0  0
    3.8511   -1.8009   -2.4007 C   0  0  0  0  0  0  0  0  0  0  0  0
    3.4117   -2.3674   -3.5767 C   0  0  0  0  0  0  0  0  0  0  0  0
    2.3544   -1.8054   -4.2644 C   0  0  0  0  0  0  0  0  0  0  0  0
    1.7354   -0.6733   -3.7728 C   0  0  0  0  0  0  0  0  0  0  0  0
    2.1728   -0.1008   -2.5991 C   0  0  0  0  0  0  0  0  0  0  0  0
    6.0173    0.7301   -1.5291 C   0  0  0  0  0  0  0  0  0  0  0  0
    6.1741    0.4266   -2.8653 C   0  0  0  0  0  0  0  0  0  0  0  0
    7.3564    0.8085   -3.5198 C   0  0  0  0  0  0  0  0  0  0  0  0
    8.3656    1.4855   -2.8741 C   0  0  0  0  0  0  0  0  0  0  0  0
    8.2411    1.8266   -1.5065 C   0  0  0  0  0  0  0  0  0  0  0  0
    9.1579    2.5381   -0.6971 C   0  0  0  0  0  0  0  0  0  0  0  0
    8.8629    2.8098    0.6195 C   0  0  0  0  0  0  0  0  0  0  0  0
    7.6603    2.4000    1.2165 C   0  0  0  0  0  0  0  0  0  0  0  0
    6.7436    1.6936    0.4659 C   0  0  0  0  0  0  0  0  0  0  0  0
    7.0578    1.4254   -0.8819 C   0  0  0  0  0  0  0  0  0  0  0  0
    1.3161   -1.9437    0.0999 C   0  0  0  0  0  0  0  0  0  0  0  0
    0.0543   -2.4800    0.0338 C   0  0  0  0  0  0  0  0  0  0  0  0
   -2.5781   -3.6260    0.1668 N   0  0  0  0  0  0  0  0  0  0  0  0
   -3.9122   -3.8186    0.0682 C   0  0  0  0  0  0  0  0  0  0  0  0
   -4.6308   -5.0621   -0.0403 C   0  0  0  0  0  0  0  0  0  0  0  0
   -3.9513   -6.2823   -0.0295 C   0  0  0  0  0  0  0  0  0  0  0  0
   -4.6386   -7.4623   -0.1324 C   0  0  0  0  0  0  0  0  0  0  0  0
   -6.0210   -7.4478   -0.2484 C   0  0  0  0  0  0  0  0  0  0  0  0
   -6.7069   -6.2590   -0.2612 C   0  0  0  0  0  0  0  0  0  0  0  0
   -6.0391   -5.0306   -0.1586 C   0  0  0  0  0  0  0  0  0  0  0  0
   -6.7458   -3.7440   -0.1758 C   0  0  0  0  0  0  0  0  0  0  0  0
   -8.1393   -3.6610   -0.3047 C   0  0  0  0  0  0  0  0  0  0  0  0
   -8.7843   -2.4503   -0.3281 C   0  0  0  0  0  0  0  0  0  0  0  0
   -8.0641   -1.2696   -0.2244 C   0  0  0  0  0  0  0  0  0  0  0  0
   -6.7024   -1.3115   -0.0956 C   0  0  0  0  0  0  0  0  0  0  0  0
   -6.0201   -2.5323   -0.0664 C   0  0  0  0  0  0  0  0  0  0  0  0
   -4.5882   -2.5971    0.0647 C   0  0  0  0  0  0  0  0  0  0  0  0
   -3.6336    0.5027   -1.0528 C   0  0  0  0  0  0  0  0  0  0  0  0
   -3.8088    1.8675   -1.0957 C   0  0  0  0  0  0  0  0  0  0  0  0
   -3.9952    4.5262    2.0652 H   0  0  0  0  0  0  0  0  0  0  0  0
   -5.7013    4.3036    1.6490 H   0  0  0  0  0  0  0  0  0  0  0  0
   -4.8732    5.7956    1.2220 H   0  0  0  0  0  0  0  0  0  0  0  0
   -2.7058    4.3890   -1.4689 H   0  0  0  0  0  0  0  0  0  0  0  0
   -3.0954    5.8292   -0.5334 H   0  0  0  0  0  0  0  0  0  0  0  0
   -2.2183    4.4968    0.2207 H   0  0  0  0  0  0  0  0  0  0  0  0
   -5.1718    4.0733   -2.0717 H   0  0  0  0  0  0  0  0  0  0  0  0
   -6.3842    3.9761   -0.7968 H   0  0  0  0  0  0  0  0  0  0  0  0
   -5.5942    5.5133   -1.1509 H   0  0  0  0  0  0  0  0  0  0  0  0
   -4.6330    2.3992    2.1204 H   0  0  0  0  0  0  0  0  0  0  0  0
   -4.3185   -0.0281    2.1915 H   0  0  0  0  0  0  0  0  0  0  0  0
   -1.7240    0.2157    0.9816 H   0  0  0  0  0  0  0  0  0  0  0  0
    0.5243    1.1747    1.1005 H   0  0  0  0  0  0  0  0  0  0  0  0
    2.6735    0.5697    2.5611 H   0  0  0  0  0  0  0  0  0  0  0  0
    6.6207    0.3157    3.3869 H   0  0  0  0  0  0  0  0  0  0  0  0
    7.3788    1.2857    5.5170 H   0  0  0  0  0  0  0  0  0  0  0  0
    6.2151    3.2337    6.4615 H   0  0  0  0  0  0  0  0  0  0  0  0
    4.2931    4.2090    5.2805 H   0  0  0  0  0  0  0  0  0  0  0  0
    3.5418    3.2429    3.1461 H   0  0  0  0  0  0  0  0  0  0  0  0
    4.6704   -2.2379   -1.8569 H   0  0  0  0  0  0  0  0  0  0  0  0
    3.8921   -3.2532   -3.9593 H   0  0  0  0  0  0  0  0  0  0  0  0
    2.0100   -2.2524   -5.1828 H   0  0  0  0  0  0  0  0  0  0  0  0
    0.9064   -0.2384   -4.3069 H   0  0  0  0  0  0  0  0  0  0  0  0
    1.6908    0.7783   -2.2082 H   0  0  0  0  0  0  0  0  0  0  0  0
    5.3943   -0.0909   -3.3926 H   0  0  0  0  0  0  0  0  0  0  0  0
    7.4727    0.5645   -4.5628 H   0  0  0  0  0  0  0  0  0  0  0  0
    9.2589    1.7700   -3.4020 H   0  0  0  0  0  0  0  0  0  0  0  0
   10.0857    2.8692   -1.1298 H   0  0  0  0  0  0  0  0  0  0  0  0
    9.5752    3.3580    1.2137 H   0  0  0  0  0  0  0  0  0  0  0  0
    7.4461    2.6338    2.2429 H   0  0  0  0  0  0  0  0  0  0  0  0
    2.1739   -2.5443   -0.1479 H   0  0  0  0  0  0  0  0  0  0  0  0
   -0.0890   -3.5041   -0.2627 H   0  0  0  0  0  0  0  0  0  0  0  0
   -2.8792   -6.2755    0.0616 H   0  0  0  0  0  0  0  0  0  0  0  0
   -4.1080   -8.4002   -0.1234 H   0  0  0  0  0  0  0  0  0  0  0  0
   -6.5587   -8.3789   -0.3294 H   0  0  0  0  0  0  0  0  0  0  0  0
   -7.7774   -6.2783   -0.3522 H   0  0  0  0  0  0  0  0  0  0  0  0
   -8.7212   -4.5602   -0.3892 H   0  0  0  0  0  0  0  0  0  0  0  0
   -9.8571   -2.4141   -0.4292 H   0  0  0  0  0  0  0  0  0  0  0  0
   -8.5768   -0.3220   -0.2455 H   0  0  0  0  0  0  0  0  0  0  0  0
   -6.1426   -0.3987   -0.0172 H   0  0  0  0  0  0  0  0  0  0  0  0
   -3.3486   -0.0447   -1.9342 H   0  0  0  0  0  0  0  0  0  0  0  0
   -3.6591    2.3898   -2.0244 H   0  0  0  0  0  0  0  0  0  0  0  0
  1  2  1  0  0  0  0
  2  3  1  0  0  0  0
  2  4  1  0  0  0  0
  2  5  1  0  0  0  0
  5  6  2  0  0  0  0
  6  7  1  0  0  0  0
  7  8  2  0  0  0  0
  8  9  1  0  0  0  0
  9 10  1  0  0  0  0
 10 11  1  0  0  0  0
 11 12  2  0  0  0  0
 12 13  1  0  0  0  0
 13 14  2  0  0  0  0
 14 15  1  0  0  0  0
 15 16  2  0  0  0  0
 16 17  1  0  0  0  0
 17 18  1  0  0  0  0
 18 19  2  0  0  0  0
 19 20  1  0  0  0  0
 20 21  2  0  0  0  0
 21 22  1  0  0  0  0
 22 23  2  0  0  0  0
 17 24  2  0  0  0  0
 24 25  1  0  0  0  0
 25 26  2  0  0  0  0
 26 27  1  0  0  0  0
 27 28  2  0  0  0  0
 28 29  1  0  0  0  0
 29 30  2  0  0  0  0
 30 31  1  0  0  0  0
 31 32  2  0  0  0  0
 25 33  1  0  0  0  0
 33 34  2  0  0  0  0
 34 35  1  0  0  0  0
 35 36  2  0  0  0  0
 36 37  1  0  0  0  0
 37 38  1  0  0  0  0
 38 39  2  0  0  0  0
 39 40  1  0  0  0  0
 40 41  2  0  0  0  0
 41 42  1  0  0  0  0
 14 43  1  0  0  0  0
 43 44  2  0  0  0  0
 10 45  2  0  0  0  0
 45 46  1  0  0  0  0
 46 47  2  0  0  0  0
 47 48  1  0  0  0  0
 48 49  2  0  0  0  0
 49 50  1  0  0  0  0
 50 51  2  0  0  0  0
 51 52  1  0  0  0  0
 52 53  2  0  0  0  0
 53 54  1  0  0  0  0
 54 55  2  0  0  0  0
 55 56  1  0  0  0  0
 56 57  2  0  0  0  0
 57 58  1  0  0  0  0
 58 59  2  0  0  0  0
  8 60  1  0  0  0  0
 60 61  2  0  0  0  0
 61  5  1  0  0  0  0
 59  9  1  0  0  0  0
 44 11  1  0  0  0  0
 59 46  1  0  0  0  0
 26 15  1  0  0  0  0
 32 27  1  0  0  0  0
 42 33  1  0  0  0  0
 52 47  1  0  0  0  0
 58 53  1  0  0  0  0
 23 18  1  0  0  0  0
 41 24  1  0  0  0  0
 42 37  2  0  0  0  0
  1 62  1  0  0  0  0
  1 63  1  0  0  0  0
  1 64  1  0  0  0  0
  3 65  1  0  0  0  0
  3 66  1  0  0  0  0
  3 67  1  0  0  0  0
  4 68  1  0  0  0  0
  4 69  1  0  0  0  0
  4 70  1  0  0  0  0
  6 71  1  0  0  0  0
  7 72  1  0  0  0  0
 12 73  1  0  0  0  0
 13 74  1  0  0  0  0
 16 75  1  0  0  0  0
 19 76  1  0  0  0  0
 20 77  1  0  0  0  0
 21 78  1  0  0  0  0
 22 79  1  0  0  0  0
 23 80  1  0  0  0  0
 28 81  1  0  0  0  0
 29 82  1  0  0  0  0
 30 83  1  0  0  0  0
 31 84  1  0  0  0  0
 32 85  1  0  0  0  0
 34 86  1  0  0  0  0
 35 87  1  0  0  0  0
 36 88  1  0  0  0  0
 38 89  1  0  0  0  0
 39 90  1  0  0  0  0
 40 91  1  0  0  0  0
 43 92  1  0  0  0  0
 44 93  1  0  0  0  0
 48 94  1  0  0  0  0
 49 95  1  0  0  0  0
 50 96  1  0  0  0  0
 51 97  1  0  0  0  0
 54 98  1  0  0  0  0
 55 99  1  0  0  0  0
 56100  1  0  0  0  0
 57101  1  0  0  0  0
 60102  1  0  0  0  0
 61103  1  0  0  0  0
M  END
