
  xtb     03012221313D
 energy: -9.361616305506 gnorm: 0.000330032071 xtb: 6.4.1 (afa7bdf)
 50 52  0     0  0            999 V2000
    6.8909   -1.4957    0.5525 C   0  0  0  0  0  0  0  0  0  0  0  0
    6.6817   -0.6971   -0.7167 C   0  0  0  0  0  0  0  0  0  0  0  0
    6.1164    0.5714   -0.4769 O   0  0  0  0  0  0  0  0  0  0  0  0
    4.8012    0.4511   -0.1321 C   0  0  0  0  0  0  0  0  0  0  0  0
    4.2083   -0.6028   -0.0442 O   0  0  0  0  0  0  0  0  0  0  0  0
    4.0949    1.7550    0.1342 C   0  0  0  0  0  0  0  0  0  0  0  0
    2.6760    1.5674    0.6678 C   0  0  0  0  0  0  0  0  0  0  0  0
    1.7514    0.8860   -0.3373 C   0  0  0  0  0  0  0  0  0  0  0  0
    0.3500    0.6333    0.2099 C   0  0  0  0  0  0  0  0  0  0  0  0
   -0.5500   -0.0903   -0.7792 C   0  0  0  0  0  0  0  0  0  0  0  0
   -1.8893   -0.3494   -0.2248 N   0  0  0  0  0  0  0  0  0  0  0  0
   -2.1247   -1.5481    0.4785 C   0  0  0  0  0  0  0  0  0  0  0  0
   -1.0984   -2.4498    0.7852 C   0  0  0  0  0  0  0  0  0  0  0  0
   -1.3596   -3.6189    1.4545 C   0  0  0  0  0  0  0  0  0  0  0  0
   -2.6515   -3.9321    1.8458 C   0  0  0  0  0  0  0  0  0  0  0  0
   -3.6737   -3.0605    1.5678 C   0  0  0  0  0  0  0  0  0  0  0  0
   -3.4306   -1.8682    0.8938 C   0  0  0  0  0  0  0  0  0  0  0  0
   -4.5337   -0.9582    0.6318 C   0  0  0  0  0  0  0  0  0  0  0  0
   -5.6795   -1.2337    0.9622 O   0  0  0  0  0  0  0  0  0  0  0  0
   -4.2283    0.3037   -0.0238 C   0  0  0  0  0  0  0  0  0  0  0  0
   -5.2503    1.2158   -0.2393 C   0  0  0  0  0  0  0  0  0  0  0  0
   -5.0110    2.4447   -0.8366 C   0  0  0  0  0  0  0  0  0  0  0  0
   -6.0480    3.3508   -1.0433 N   0  0  0  0  0  0  0  0  0  0  0  0
   -3.6973    2.7467   -1.2179 C   0  0  0  0  0  0  0  0  0  0  0  0
   -2.6788    1.8515   -1.0146 C   0  0  0  0  0  0  0  0  0  0  0  0
   -2.9153    0.6041   -0.4244 C   0  0  0  0  0  0  0  0  0  0  0  0
    7.3367   -2.4723    0.3573 H   0  0  0  0  0  0  0  0  0  0  0  0
    7.5387   -0.9577    1.2446 H   0  0  0  0  0  0  0  0  0  0  0  0
    5.9375   -1.6544    1.0576 H   0  0  0  0  0  0  0  0  0  0  0  0
    7.6302   -0.5287   -1.2439 H   0  0  0  0  0  0  0  0  0  0  0  0
    6.0155   -1.2205   -1.4164 H   0  0  0  0  0  0  0  0  0  0  0  0
    4.7002    2.3356    0.8377 H   0  0  0  0  0  0  0  0  0  0  0  0
    4.0720    2.3335   -0.7938 H   0  0  0  0  0  0  0  0  0  0  0  0
    2.7161    0.9662    1.5841 H   0  0  0  0  0  0  0  0  0  0  0  0
    2.2456    2.5320    0.9656 H   0  0  0  0  0  0  0  0  0  0  0  0
    1.6916    1.4863   -1.2534 H   0  0  0  0  0  0  0  0  0  0  0  0
    2.2002   -0.0660   -0.6480 H   0  0  0  0  0  0  0  0  0  0  0  0
    0.4139    0.0526    1.1362 H   0  0  0  0  0  0  0  0  0  0  0  0
   -0.1129    1.5812    0.5040 H   0  0  0  0  0  0  0  0  0  0  0  0
   -0.1037   -1.0376   -1.0926 H   0  0  0  0  0  0  0  0  0  0  0  0
   -0.6476    0.4772   -1.7081 H   0  0  0  0  0  0  0  0  0  0  0  0
   -0.0855   -2.2213    0.5115 H   0  0  0  0  0  0  0  0  0  0  0  0
   -0.5542   -4.3001    1.6804 H   0  0  0  0  0  0  0  0  0  0  0  0
   -2.8507   -4.8518    2.3691 H   0  0  0  0  0  0  0  0  0  0  0  0
   -4.6845   -3.2798    1.8681 H   0  0  0  0  0  0  0  0  0  0  0  0
   -6.2459    0.9553    0.0699 H   0  0  0  0  0  0  0  0  0  0  0  0
   -6.9283    3.2449   -0.5599 H   0  0  0  0  0  0  0  0  0  0  0  0
   -5.8545    4.3226   -1.2390 H   0  0  0  0  0  0  0  0  0  0  0  0
   -3.5006    3.6999   -1.6762 H   0  0  0  0  0  0  0  0  0  0  0  0
   -1.6803    2.1263   -1.2988 H   0  0  0  0  0  0  0  0  0  0  0  0
  1  2  1  0  0  0  0
  2  3  1  0  0  0  0
  3  4  1  0  0  0  0
  4  5  2  0  0  0  0
  4  6  1  0  0  0  0
  6  7  1  0  0  0  0
  7  8  1  0  0  0  0
  8  9  1  0  0  0  0
  9 10  1  0  0  0  0
 10 11  1  0  0  0  0
 11 12  1  0  0  0  0
 12 13  2  0  0  0  0
 13 14  1  0  0  0  0
 14 15  2  0  0  0  0
 15 16  1  0  0  0  0
 16 17  2  0  0  0  0
 17 18  1  0  0  0  0
 18 19  2  0  0  0  0
 18 20  1  0  0  0  0
 20 21  2  0  0  0  0
 21 22  1  0  0  0  0
 22 23  1  0  0  0  0
 22 24  2  0  0  0  0
 24 25  1  0  0  0  0
 25 26  2  0  0  0  0
 26 11  1  0  0  0  0
 17 12  1  0  0  0  0
 26 20  1  0  0  0  0
  1 27  1  0  0  0  0
  1 28  1  0  0  0  0
  1 29  1  0  0  0  0
  2 30  1  0  0  0  0
  2 31  1  0  0  0  0
  6 32  1  0  0  0  0
  6 33  1  0  0  0  0
  7 34  1  0  0  0  0
  7 35  1  0  0  0  0
  8 36  1  0  0  0  0
  8 37  1  0  0  0  0
  9 38  1  0  0  0  0
  9 39  1  0  0  0  0
 10 40  1  0  0  0  0
 10 41  1  0  0  0  0
 13 42  1  0  0  0  0
 14 43  1  0  0  0  0
 15 44  1  0  0  0  0
 16 45  1  0  0  0  0
 21 46  1  0  0  0  0
 23 47  1  0  0  0  0
 23 48  1  0  0  0  0
 24 49  1  0  0  0  0
 25 50  1  0  0  0  0
M  END
