
  xtb     03012221203D
 energy: -13.708519307353 gnorm: 0.000347849129 xtb: 6.4.1 (afa7bdf)
 63 69  0     0  0            999 V2000
    8.5190   -2.9228    0.2874 C   0  0  0  0  0  0  0  0  0  0  0  0
    8.3916   -1.6741    0.8628 C   0  0  0  0  0  0  0  0  0  0  0  0
    7.1930   -0.9998    0.7918 C   0  0  0  0  0  0  0  0  0  0  0  0
    6.0991   -1.5601    0.1330 C   0  0  0  0  0  0  0  0  0  0  0  0
    4.8021   -0.8756    0.0581 C   0  0  0  0  0  0  0  0  0  0  0  0
    3.6270   -1.5363    0.0388 N   0  0  0  0  0  0  0  0  0  0  0  0
    2.6710   -0.6112    0.0292 C   0  0  0  0  0  0  0  0  0  0  0  0
    1.2571   -0.8882   -0.0030 C   0  0  0  0  0  0  0  0  0  0  0  0
    0.6950   -2.1338   -0.0127 C   0  0  0  0  0  0  0  0  0  0  0  0
   -0.7163   -2.1198   -0.0508 C   0  0  0  0  0  0  0  0  0  0  0  0
   -1.2545   -0.8622   -0.0718 C   0  0  0  0  0  0  0  0  0  0  0  0
   -2.6606   -0.5430   -0.1182 C   0  0  0  0  0  0  0  0  0  0  0  0
   -3.1501    0.6931   -0.1421 N   0  0  0  0  0  0  0  0  0  0  0  0
   -4.4924    0.5790   -0.1893 C   0  0  0  0  0  0  0  0  0  0  0  0
   -5.3860    1.7399   -0.2871 C   0  0  0  0  0  0  0  0  0  0  0  0
   -6.6017    1.6815   -0.9677 C   0  0  0  0  0  0  0  0  0  0  0  0
   -7.4089    2.7933   -1.0611 C   0  0  0  0  0  0  0  0  0  0  0  0
   -7.0149    3.9855   -0.4867 C   0  0  0  0  0  0  0  0  0  0  0  0
   -5.8061    4.0655    0.1761 C   0  0  0  0  0  0  0  0  0  0  0  0
   -4.9966    2.9552    0.2707 C   0  0  0  0  0  0  0  0  0  0  0  0
   -4.8532   -0.7893   -0.1722 C   0  0  0  0  0  0  0  0  0  0  0  0
   -6.1825   -1.4026   -0.1172 C   0  0  0  0  0  0  0  0  0  0  0  0
   -7.2115   -0.8449    0.6431 C   0  0  0  0  0  0  0  0  0  0  0  0
   -8.4499   -1.4444    0.6975 C   0  0  0  0  0  0  0  0  0  0  0  0
   -8.6839   -2.6148    0.0029 C   0  0  0  0  0  0  0  0  0  0  0  0
   -7.6733   -3.1880   -0.7436 C   0  0  0  0  0  0  0  0  0  0  0  0
   -6.4332   -2.5917   -0.8009 C   0  0  0  0  0  0  0  0  0  0  0  0
   -3.6774   -1.4792   -0.1450 N   0  0  0  0  0  0  0  0  0  0  0  0
    0.0143    0.3322   -0.0375 S   0  0  0  0  0  0  0  0  0  0  0  0
    3.2078    0.6603    0.0392 N   0  0  0  0  0  0  0  0  0  0  0  0
    4.5642    0.5202    0.0384 C   0  0  0  0  0  0  0  0  0  0  0  0
    5.5170    1.6290   -0.0496 C   0  0  0  0  0  0  0  0  0  0  0  0
    6.6710    1.5381   -0.8293 C   0  0  0  0  0  0  0  0  0  0  0  0
    7.5465    2.5972   -0.9159 C   0  0  0  0  0  0  0  0  0  0  0  0
    7.2844    3.7696   -0.2348 C   0  0  0  0  0  0  0  0  0  0  0  0
    6.1403    3.8822    0.5303 C   0  0  0  0  0  0  0  0  0  0  0  0
    5.2619    2.8252    0.6197 C   0  0  0  0  0  0  0  0  0  0  0  0
    6.2408   -2.8278   -0.4261 C   0  0  0  0  0  0  0  0  0  0  0  0
    7.4408   -3.4999   -0.3538 C   0  0  0  0  0  0  0  0  0  0  0  0
    9.4577   -3.4494    0.3441 H   0  0  0  0  0  0  0  0  0  0  0  0
    9.2304   -1.2277    1.3711 H   0  0  0  0  0  0  0  0  0  0  0  0
    7.0869   -0.0355    1.2568 H   0  0  0  0  0  0  0  0  0  0  0  0
    1.2862   -3.0357    0.0057 H   0  0  0  0  0  0  0  0  0  0  0  0
   -1.3165   -3.0153   -0.0652 H   0  0  0  0  0  0  0  0  0  0  0  0
   -6.8982    0.7576   -1.4324 H   0  0  0  0  0  0  0  0  0  0  0  0
   -8.3478    2.7335   -1.5867 H   0  0  0  0  0  0  0  0  0  0  0  0
   -7.6475    4.8549   -0.5613 H   0  0  0  0  0  0  0  0  0  0  0  0
   -5.4942    4.9981    0.6167 H   0  0  0  0  0  0  0  0  0  0  0  0
   -4.0478    3.0105    0.7758 H   0  0  0  0  0  0  0  0  0  0  0  0
   -7.0220    0.0594    1.1948 H   0  0  0  0  0  0  0  0  0  0  0  0
   -9.2369   -1.0008    1.2849 H   0  0  0  0  0  0  0  0  0  0  0  0
   -9.6537   -3.0829    0.0465 H   0  0  0  0  0  0  0  0  0  0  0  0
   -7.8552   -4.1037   -1.2818 H   0  0  0  0  0  0  0  0  0  0  0  0
   -5.6438   -3.0335   -1.3837 H   0  0  0  0  0  0  0  0  0  0  0  0
   -3.5729   -2.4932   -0.0871 H   0  0  0  0  0  0  0  0  0  0  0  0
    2.6791    1.5318   -0.0165 H   0  0  0  0  0  0  0  0  0  0  0  0
    6.8649    0.6287   -1.3710 H   0  0  0  0  0  0  0  0  0  0  0  0
    8.4360    2.5119   -1.5181 H   0  0  0  0  0  0  0  0  0  0  0  0
    7.9704    4.5979   -0.3039 H   0  0  0  0  0  0  0  0  0  0  0  0
    5.9340    4.7991    1.0576 H   0  0  0  0  0  0  0  0  0  0  0  0
    4.3702    2.9080    1.2164 H   0  0  0  0  0  0  0  0  0  0  0  0
    5.3923   -3.2736   -0.9156 H   0  0  0  0  0  0  0  0  0  0  0  0
    7.5372   -4.4781   -0.7953 H   0  0  0  0  0  0  0  0  0  0  0  0
  1  2  2  0  0  0  0
  2  3  1  0  0  0  0
  3  4  2  0  0  0  0
  4  5  1  0  0  0  0
  5  6  1  0  0  0  0
  6  7  2  0  0  0  0
  7  8  1  0  0  0  0
  8  9  2  0  0  0  0
  9 10  1  0  0  0  0
 10 11  2  0  0  0  0
 11 12  1  0  0  0  0
 12 13  2  0  0  0  0
 13 14  1  0  0  0  0
 14 15  1  0  0  0  0
 15 16  2  0  0  0  0
 16 17  1  0  0  0  0
 17 18  2  0  0  0  0
 18 19  1  0  0  0  0
 19 20  2  0  0  0  0
 14 21  2  0  0  0  0
 21 22  1  0  0  0  0
 22 23  2  0  0  0  0
 23 24  1  0  0  0  0
 24 25  2  0  0  0  0
 25 26  1  0  0  0  0
 26 27  2  0  0  0  0
 21 28  1  0  0  0  0
 11 29  1  0  0  0  0
  7 30  1  0  0  0  0
 30 31  1  0  0  0  0
 31 32  1  0  0  0  0
 32 33  2  0  0  0  0
 33 34  1  0  0  0  0
 34 35  2  0  0  0  0
 35 36  1  0  0  0  0
 36 37  2  0  0  0  0
  4 38  1  0  0  0  0
 38 39  2  0  0  0  0
 39  1  1  0  0  0  0
 31  5  2  0  0  0  0
 37 32  1  0  0  0  0
 29  8  1  0  0  0  0
 28 12  1  0  0  0  0
 20 15  1  0  0  0  0
 27 22  1  0  0  0  0
  1 40  1  0  0  0  0
  2 41  1  0  0  0  0
  3 42  1  0  0  0  0
  9 43  1  0  0  0  0
 10 44  1  0  0  0  0
 16 45  1  0  0  0  0
 17 46  1  0  0  0  0
 18 47  1  0  0  0  0
 19 48  1  0  0  0  0
 20 49  1  0  0  0  0
 23 50  1  0  0  0  0
 24 51  1  0  0  0  0
 25 52  1  0  0  0  0
 26 53  1  0  0  0  0
 27 54  1  0  0  0  0
 28 55  1  0  0  0  0
 30 56  1  0  0  0  0
 33 57  1  0  0  0  0
 34 58  1  0  0  0  0
 35 59  1  0  0  0  0
 36 60  1  0  0  0  0
 37 61  1  0  0  0  0
 38 62  1  0  0  0  0
 39 63  1  0  0  0  0
M  END
