
  xtb     03012221223D
 energy: -8.429672751158 gnorm: 0.000324134983 xtb: 6.4.1 (afa7bdf)
 42 45  0     0  0            999 V2000
   -2.2350   -3.0067   -0.7063 C   0  0  0  0  0  0  0  0  0  0  0  0
   -2.4923   -1.6815   -1.3889 C   0  0  0  0  0  0  0  0  0  0  0  0
   -2.5203   -0.5725   -0.4247 N   0  0  0  0  0  0  0  0  0  0  0  0
   -3.6523   -0.1197    0.2682 C   0  0  0  0  0  0  0  0  0  0  0  0
   -4.9960   -0.4957    0.1925 C   0  0  0  0  0  0  0  0  0  0  0  0
   -5.9023    0.1309    1.0107 C   0  0  0  0  0  0  0  0  0  0  0  0
   -5.4993    1.1265    1.9080 C   0  0  0  0  0  0  0  0  0  0  0  0
   -4.1831    1.5064    1.9993 C   0  0  0  0  0  0  0  0  0  0  0  0
   -3.2454    0.8795    1.1732 C   0  0  0  0  0  0  0  0  0  0  0  0
   -1.8181    1.0276    1.0350 C   0  0  0  0  0  0  0  0  0  0  0  0
   -0.8861    1.8466    1.6783 C   0  0  0  0  0  0  0  0  0  0  0  0
    0.4357    1.7405    1.3328 C   0  0  0  0  0  0  0  0  0  0  0  0
    0.8802    0.8263    0.3481 C   0  0  0  0  0  0  0  0  0  0  0  0
    2.3139    0.7351    0.0003 C   0  0  0  0  0  0  0  0  0  0  0  0
    3.1230    1.8721   -0.0285 C   0  0  0  0  0  0  0  0  0  0  0  0
    4.4520    1.7833   -0.3577 C   0  0  0  0  0  0  0  0  0  0  0  0
    5.0418    0.5557   -0.6739 C   0  0  0  0  0  0  0  0  0  0  0  0
    6.4010    0.5562   -0.9969 O   0  0  0  0  0  0  0  0  0  0  0  0
    6.9352   -0.7093   -1.3030 C   0  0  0  0  0  0  0  0  0  0  0  0
    4.2299   -0.5826   -0.6440 C   0  0  0  0  0  0  0  0  0  0  0  0
    2.8999   -0.4923   -0.3156 C   0  0  0  0  0  0  0  0  0  0  0  0
   -0.0478    0.0144   -0.2871 C   0  0  0  0  0  0  0  0  0  0  0  0
   -1.3952    0.1146    0.0512 C   0  0  0  0  0  0  0  0  0  0  0  0
   -3.0091   -3.2204    0.0323 H   0  0  0  0  0  0  0  0  0  0  0  0
   -1.2822   -2.9922   -0.1748 H   0  0  0  0  0  0  0  0  0  0  0  0
   -2.2099   -3.8379   -1.4141 H   0  0  0  0  0  0  0  0  0  0  0  0
   -1.7239   -1.4644   -2.1371 H   0  0  0  0  0  0  0  0  0  0  0  0
   -3.4439   -1.6910   -1.9289 H   0  0  0  0  0  0  0  0  0  0  0  0
   -5.3013   -1.2628   -0.4964 H   0  0  0  0  0  0  0  0  0  0  0  0
   -6.9424   -0.1476    0.9630 H   0  0  0  0  0  0  0  0  0  0  0  0
   -6.2347    1.6001    2.5377 H   0  0  0  0  0  0  0  0  0  0  0  0
   -3.8654    2.2680    2.6893 H   0  0  0  0  0  0  0  0  0  0  0  0
   -1.2146    2.5394    2.4328 H   0  0  0  0  0  0  0  0  0  0  0  0
    1.1651    2.3531    1.8329 H   0  0  0  0  0  0  0  0  0  0  0  0
    2.6882    2.8309    0.1934 H   0  0  0  0  0  0  0  0  0  0  0  0
    5.0708    2.6630   -0.3820 H   0  0  0  0  0  0  0  0  0  0  0  0
    7.9929   -0.5914   -1.5402 H   0  0  0  0  0  0  0  0  0  0  0  0
    6.8377   -1.3718   -0.4422 H   0  0  0  0  0  0  0  0  0  0  0  0
    6.4238   -1.1289   -2.1699 H   0  0  0  0  0  0  0  0  0  0  0  0
    4.6514   -1.5430   -0.8790 H   0  0  0  0  0  0  0  0  0  0  0  0
    2.2957   -1.3821   -0.2829 H   0  0  0  0  0  0  0  0  0  0  0  0
    0.2624   -0.6764   -1.0477 H   0  0  0  0  0  0  0  0  0  0  0  0
  1  2  1  0  0  0  0
  2  3  1  0  0  0  0
  3  4  1  0  0  0  0
  4  5  2  0  0  0  0
  5  6  1  0  0  0  0
  6  7  2  0  0  0  0
  7  8  1  0  0  0  0
  8  9  2  0  0  0  0
  9 10  1  0  0  0  0
 10 11  2  0  0  0  0
 11 12  1  0  0  0  0
 12 13  2  0  0  0  0
 13 14  1  0  0  0  0
 14 15  2  0  0  0  0
 15 16  1  0  0  0  0
 16 17  2  0  0  0  0
 17 18  1  0  0  0  0
 18 19  1  0  0  0  0
 17 20  1  0  0  0  0
 20 21  2  0  0  0  0
 13 22  1  0  0  0  0
 22 23  2  0  0  0  0
 23  3  1  0  0  0  0
  9  4  1  0  0  0  0
 23 10  1  0  0  0  0
 21 14  1  0  0  0  0
  1 24  1  0  0  0  0
  1 25  1  0  0  0  0
  1 26  1  0  0  0  0
  2 27  1  0  0  0  0
  2 28  1  0  0  0  0
  5 29  1  0  0  0  0
  6 30  1  0  0  0  0
  7 31  1  0  0  0  0
  8 32  1  0  0  0  0
 11 33  1  0  0  0  0
 12 34  1  0  0  0  0
 15 35  1  0  0  0  0
 16 36  1  0  0  0  0
 19 37  1  0  0  0  0
 19 38  1  0  0  0  0
 19 39  1  0  0  0  0
 20 40  1  0  0  0  0
 21 41  1  0  0  0  0
 22 42  1  0  0  0  0
M  END
