
  xtb     03012221313D
 energy: -10.736036285234 gnorm: 0.000284943981 xtb: 6.4.1 (afa7bdf)
 53 57  0     0  0            999 V2000
   -0.4787    2.8871    2.6216 C   0  0  0  0  0  0  0  0  0  0  0  0
   -0.2879    3.3215    1.2313 C   0  0  0  0  0  0  0  0  0  0  0  0
   -0.2506    4.4536    0.8545 O   0  0  0  0  0  0  0  0  0  0  0  0
   -0.1232    2.0788    0.2118 B   0  0  0  0  0  4  0  0  0  0  0  0
    0.0318    2.5058   -1.3410 C   0  0  0  0  0  0  0  0  0  0  0  0
    0.3340    3.8782   -1.7753 C   0  0  0  0  0  0  0  0  0  0  0  0
   -0.1212    1.5869   -2.0858 O   0  0  0  0  0  0  0  0  0  0  0  0
   -1.3408    1.2487    0.3281 O   0  0  0  0  0  0  0  0  0  0  0  0
   -1.2353   -0.0647    0.0288 C   0  0  0  0  0  0  0  0  0  0  0  0
   -2.4689   -0.7797   -0.2465 C   0  0  0  0  0  0  0  0  0  0  0  0
   -2.5304   -2.1780   -0.4603 C   0  0  0  0  0  0  0  0  0  0  0  0
   -3.7139   -2.7960   -0.7233 C   0  0  0  0  0  0  0  0  0  0  0  0
   -4.9197   -2.0591   -0.7925 C   0  0  0  0  0  0  0  0  0  0  0  0
   -6.1576   -2.6683   -1.0654 C   0  0  0  0  0  0  0  0  0  0  0  0
   -7.3025   -1.9203   -1.1271 C   0  0  0  0  0  0  0  0  0  0  0  0
   -7.2611   -0.5390   -0.9202 C   0  0  0  0  0  0  0  0  0  0  0  0
   -6.0771    0.0818   -0.6528 C   0  0  0  0  0  0  0  0  0  0  0  0
   -4.8763   -0.6573   -0.5803 C   0  0  0  0  0  0  0  0  0  0  0  0
   -3.6418   -0.0494   -0.3088 C   0  0  0  0  0  0  0  0  0  0  0  0
    0.0094   -0.6750   -0.0064 C   0  0  0  0  0  0  0  0  0  0  0  0
    1.1666    0.0279    0.2937 C   0  0  0  0  0  0  0  0  0  0  0  0
    2.4786   -0.5940    0.3182 C   0  0  0  0  0  0  0  0  0  0  0  0
    2.6905   -1.9771    0.1006 C   0  0  0  0  0  0  0  0  0  0  0  0
    3.9430   -2.5083    0.1288 C   0  0  0  0  0  0  0  0  0  0  0  0
    5.0731   -1.6938    0.3758 C   0  0  0  0  0  0  0  0  0  0  0  0
    6.3800   -2.2124    0.4076 C   0  0  0  0  0  0  0  0  0  0  0  0
    7.4487   -1.3913    0.6477 C   0  0  0  0  0  0  0  0  0  0  0  0
    7.2595   -0.0241    0.8655 C   0  0  0  0  0  0  0  0  0  0  0  0
    6.0052    0.5098    0.8417 C   0  0  0  0  0  0  0  0  0  0  0  0
    4.8792   -0.3063    0.5972 C   0  0  0  0  0  0  0  0  0  0  0  0
    3.5760    0.2114    0.5638 C   0  0  0  0  0  0  0  0  0  0  0  0
    1.1071    1.3473    0.5828 O   0  0  0  0  0  3  0  0  0  0  0  0
    0.3210    3.2721    3.2531 H   0  0  0  0  0  0  0  0  0  0  0  0
   -1.4288    3.2546    3.0071 H   0  0  0  0  0  0  0  0  0  0  0  0
   -0.4768    1.7989    2.6846 H   0  0  0  0  0  0  0  0  0  0  0  0
    0.6689    4.4909   -0.9393 H   0  0  0  0  0  0  0  0  0  0  0  0
    1.1171    3.8699   -2.5321 H   0  0  0  0  0  0  0  0  0  0  0  0
   -0.5528    4.3416   -2.2056 H   0  0  0  0  0  0  0  0  0  0  0  0
   -1.6304   -2.7625   -0.4078 H   0  0  0  0  0  0  0  0  0  0  0  0
   -3.7471   -3.8588   -0.8837 H   0  0  0  0  0  0  0  0  0  0  0  0
   -6.1920   -3.7315   -1.2265 H   0  0  0  0  0  0  0  0  0  0  0  0
   -8.2446   -2.3981   -1.3379 H   0  0  0  0  0  0  0  0  0  0  0  0
   -8.1701    0.0368   -0.9736 H   0  0  0  0  0  0  0  0  0  0  0  0
   -6.0429    1.1474   -0.4949 H   0  0  0  0  0  0  0  0  0  0  0  0
   -3.5926    1.0131   -0.1552 H   0  0  0  0  0  0  0  0  0  0  0  0
    0.0774   -1.7097   -0.2720 H   0  0  0  0  0  0  0  0  0  0  0  0
    1.8501   -2.6198   -0.0862 H   0  0  0  0  0  0  0  0  0  0  0  0
    4.0899   -3.5604   -0.0383 H   0  0  0  0  0  0  0  0  0  0  0  0
    6.5284   -3.2647    0.2393 H   0  0  0  0  0  0  0  0  0  0  0  0
    8.4450   -1.8001    0.6688 H   0  0  0  0  0  0  0  0  0  0  0  0
    8.1104    0.6097    1.0522 H   0  0  0  0  0  0  0  0  0  0  0  0
    5.8580    1.5644    1.0082 H   0  0  0  0  0  0  0  0  0  0  0  0
    3.4160    1.2616    0.7259 H   0  0  0  0  0  0  0  0  0  0  0  0
  1  2  1  0  0  0  0
  2  3  2  0  0  0  0
  2  4  1  0  0  0  0
  4  5  1  0  0  0  0
  5  6  1  0  0  0  0
  5  7  2  0  0  0  0
  4  8  1  0  0  0  0
  8  9  1  0  0  0  0
  9 10  1  0  0  0  0
 10 11  2  0  0  0  0
 11 12  1  0  0  0  0
 12 13  2  0  0  0  0
 13 14  1  0  0  0  0
 14 15  2  0  0  0  0
 15 16  1  0  0  0  0
 16 17  2  0  0  0  0
 17 18  1  0  0  0  0
 18 19  2  0  0  0  0
  9 20  2  0  0  0  0
 20 21  1  0  0  0  0
 21 22  1  0  0  0  0
 22 23  2  0  0  0  0
 23 24  1  0  0  0  0
 24 25  2  0  0  0  0
 25 26  1  0  0  0  0
 26 27  2  0  0  0  0
 27 28  1  0  0  0  0
 28 29  2  0  0  0  0
 29 30  1  0  0  0  0
 30 31  2  0  0  0  0
 21 32  2  0  0  0  0
 32  4  1  0  0  0  0
 19 10  1  0  0  0  0
 31 22  1  0  0  0  0
 18 13  1  0  0  0  0
 30 25  1  0  0  0  0
  1 33  1  0  0  0  0
  1 34  1  0  0  0  0
  1 35  1  0  0  0  0
  6 36  1  0  0  0  0
  6 37  1  0  0  0  0
  6 38  1  0  0  0  0
 11 39  1  0  0  0  0
 12 40  1  0  0  0  0
 14 41  1  0  0  0  0
 15 42  1  0  0  0  0
 16 43  1  0  0  0  0
 17 44  1  0  0  0  0
 19 45  1  0  0  0  0
 20 46  1  0  0  0  0
 23 47  1  0  0  0  0
 24 48  1  0  0  0  0
 26 49  1  0  0  0  0
 27 50  1  0  0  0  0
 28 51  1  0  0  0  0
 29 52  1  0  0  0  0
 31 53  1  0  0  0  0
M  CHG  1   4  -1
M  CHG  1  32   1
M  END
