
  xtb     03012221293D
 energy: -10.416760076383 gnorm: 0.000214709826 xtb: 6.4.1 (afa7bdf)
 58 61  0     0  0            999 V2000
   -6.6325    2.3859    2.0930 C   0  0  0  0  0  0  0  0  0  0  0  0
   -5.2337    1.8713    2.3949 C   0  0  0  0  0  0  0  0  0  0  0  0
   -4.4982    1.3534    1.1548 C   0  0  0  0  0  0  0  0  0  0  0  0
   -5.1483    0.1150    0.5369 C   0  0  0  0  0  0  0  0  0  0  0  0
   -4.3559   -0.4803   -0.6388 C   0  0  0  0  0  0  0  0  0  0  0  0
   -4.9249   -1.8314   -1.1004 C   0  0  0  0  0  0  0  0  0  0  0  0
   -4.7192   -2.9587   -0.1014 C   0  0  0  0  0  0  0  0  0  0  0  0
   -4.2979    0.4826   -1.8298 C   0  0  0  0  0  0  0  0  0  0  0  0
   -3.5814   -0.0563   -2.9345 O   0  0  0  0  0  0  0  0  0  0  0  0
   -2.2061   -0.2277   -2.7338 C   0  0  0  0  0  0  0  0  0  0  0  0
   -1.5252   -1.0655   -3.6423 C   0  0  0  0  0  0  0  0  0  0  0  0
   -0.1861   -1.3196   -3.5274 C   0  0  0  0  0  0  0  0  0  0  0  0
    0.5414   -0.7311   -2.4832 C   0  0  0  0  0  0  0  0  0  0  0  0
    1.8917   -0.9061   -2.2442 N   0  0  0  0  0  0  0  0  0  0  0  0
    2.2962   -0.2332   -1.2035 C   0  0  0  0  0  0  0  0  0  0  0  0
    3.6518   -0.2467   -0.7414 C   0  0  0  0  0  0  0  0  0  0  0  0
    4.6672   -0.9538   -1.3222 C   0  0  0  0  0  0  0  0  0  0  0  0
    5.9168   -0.8040   -0.6771 C   0  0  0  0  0  0  0  0  0  0  0  0
    5.8878    0.0212    0.4117 C   0  0  0  0  0  0  0  0  0  0  0  0
    7.0219    0.3609    1.2650 C   0  0  0  0  0  0  0  0  0  0  0  0
    8.3792    0.4711    0.9002 C   0  0  0  0  0  0  0  0  0  0  0  0
    8.9611    0.2655   -0.4425 C   0  0  0  0  0  0  0  0  0  0  0  0
    9.0899    0.7961    1.9654 N   0  0  0  0  0  0  0  0  0  0  0  0
    8.2704    0.9210    3.0255 O   0  0  0  0  0  0  0  0  0  0  0  0
    6.9951    0.6583    2.6200 C   0  0  0  0  0  0  0  0  0  0  0  0
    5.8066    0.6918    3.4934 C   0  0  0  0  0  0  0  0  0  0  0  0
    4.2659    0.6246    0.6392 S   0  0  0  0  0  0  0  0  0  0  0  0
    1.0145    0.6980   -0.4122 S   0  0  0  0  0  0  0  0  0  0  0  0
   -0.1235    0.1128   -1.5861 C   0  0  0  0  0  0  0  0  0  0  0  0
   -1.4763    0.3683   -1.7085 C   0  0  0  0  0  0  0  0  0  0  0  0
   -7.2773    1.5943    1.7079 H   0  0  0  0  0  0  0  0  0  0  0  0
   -7.1189    2.7944    2.9817 H   0  0  0  0  0  0  0  0  0  0  0  0
   -6.6078    3.1765    1.3409 H   0  0  0  0  0  0  0  0  0  0  0  0
   -4.6437    2.6690    2.8671 H   0  0  0  0  0  0  0  0  0  0  0  0
   -5.2837    1.0719    3.1455 H   0  0  0  0  0  0  0  0  0  0  0  0
   -4.4413    2.1543    0.4095 H   0  0  0  0  0  0  0  0  0  0  0  0
   -3.4561    1.1199    1.4074 H   0  0  0  0  0  0  0  0  0  0  0  0
   -6.1616    0.3512    0.1949 H   0  0  0  0  0  0  0  0  0  0  0  0
   -5.2771   -0.6438    1.3167 H   0  0  0  0  0  0  0  0  0  0  0  0
   -3.3258   -0.6600   -0.2965 H   0  0  0  0  0  0  0  0  0  0  0  0
   -5.9906   -1.7078   -1.3293 H   0  0  0  0  0  0  0  0  0  0  0  0
   -4.4563   -2.0952   -2.0582 H   0  0  0  0  0  0  0  0  0  0  0  0
   -5.0866   -3.9134   -0.4836 H   0  0  0  0  0  0  0  0  0  0  0  0
   -3.6614   -3.0866    0.1343 H   0  0  0  0  0  0  0  0  0  0  0  0
   -5.2386   -2.7663    0.8379 H   0  0  0  0  0  0  0  0  0  0  0  0
   -3.8665    1.4535   -1.5718 H   0  0  0  0  0  0  0  0  0  0  0  0
   -5.3129    0.6837   -2.1870 H   0  0  0  0  0  0  0  0  0  0  0  0
   -2.0969   -1.5116   -4.4363 H   0  0  0  0  0  0  0  0  0  0  0  0
    0.3229   -1.9637   -4.2217 H   0  0  0  0  0  0  0  0  0  0  0  0
    4.5142   -1.5709   -2.1950 H   0  0  0  0  0  0  0  0  0  0  0  0
    6.8085   -1.3149   -1.0028 H   0  0  0  0  0  0  0  0  0  0  0  0
    9.1095   -0.7959   -0.6442 H   0  0  0  0  0  0  0  0  0  0  0  0
    9.9310    0.7587   -0.5165 H   0  0  0  0  0  0  0  0  0  0  0  0
    8.3150    0.6793   -1.2177 H   0  0  0  0  0  0  0  0  0  0  0  0
    6.1070    0.7872    4.5369 H   0  0  0  0  0  0  0  0  0  0  0  0
    5.2208   -0.2220    3.3892 H   0  0  0  0  0  0  0  0  0  0  0  0
    5.1676    1.5396    3.2448 H   0  0  0  0  0  0  0  0  0  0  0  0
   -1.9420    1.0356   -1.0093 H   0  0  0  0  0  0  0  0  0  0  0  0
  1  2  1  0  0  0  0
  2  3  1  0  0  0  0
  3  4  1  0  0  0  0
  4  5  1  0  0  0  0
  5  6  1  0  0  0  0
  6  7  1  0  0  0  0
  5  8  1  0  0  0  0
  8  9  1  0  0  0  0
  9 10  1  0  0  0  0
 10 11  2  0  0  0  0
 11 12  1  0  0  0  0
 12 13  2  0  0  0  0
 13 14  1  0  0  0  0
 14 15  2  0  0  0  0
 15 16  1  0  0  0  0
 16 17  2  0  0  0  0
 17 18  1  0  0  0  0
 18 19  2  0  0  0  0
 19 20  1  0  0  0  0
 20 21  1  0  0  0  0
 21 22  1  0  0  0  0
 21 23  2  0  0  0  0
 23 24  1  0  0  0  0
 24 25  1  0  0  0  0
 25 26  1  0  0  0  0
 19 27  1  0  0  0  0
 15 28  1  0  0  0  0
 28 29  1  0  0  0  0
 29 30  2  0  0  0  0
 30 10  1  0  0  0  0
 29 13  1  0  0  0  0
 27 16  1  0  0  0  0
 25 20  2  0  0  0  0
  1 31  1  0  0  0  0
  1 32  1  0  0  0  0
  1 33  1  0  0  0  0
  2 34  1  0  0  0  0
  2 35  1  0  0  0  0
  3 36  1  0  0  0  0
  3 37  1  0  0  0  0
  4 38  1  0  0  0  0
  4 39  1  0  0  0  0
  5 40  1  0  0  0  0
  6 41  1  0  0  0  0
  6 42  1  0  0  0  0
  7 43  1  0  0  0  0
  7 44  1  0  0  0  0
  7 45  1  0  0  0  0
  8 46  1  0  0  0  0
  8 47  1  0  0  0  0
 11 48  1  0  0  0  0
 12 49  1  0  0  0  0
 17 50  1  0  0  0  0
 18 51  1  0  0  0  0
 22 52  1  0  0  0  0
 22 53  1  0  0  0  0
 22 54  1  0  0  0  0
 26 55  1  0  0  0  0
 26 56  1  0  0  0  0
 26 57  1  0  0  0  0
 30 58  1  0  0  0  0
M  END
