
  xtb     03012221293D
 energy: -10.564498211296 gnorm: 0.000221606048 xtb: 6.4.1 (afa7bdf)
 49 52  0     0  0            999 V2000
    6.8185   -1.0696    1.9754 C   0  0  0  0  0  0  0  0  0  0  0  0
    5.5907   -0.2921    2.1384 N   0  0  0  0  0  0  0  0  0  0  0  0
    5.4932    0.5448    3.3341 C   0  0  0  0  0  0  0  0  0  0  0  0
    4.5704   -0.3199    1.1788 C   0  0  0  0  0  0  0  0  0  0  0  0
    4.7042   -1.0730   -0.0056 C   0  0  0  0  0  0  0  0  0  0  0  0
    3.7145   -1.0943   -0.9431 C   0  0  0  0  0  0  0  0  0  0  0  0
    2.5305   -0.3638   -0.7538 C   0  0  0  0  0  0  0  0  0  0  0  0
    1.4890   -0.3553   -1.6990 C   0  0  0  0  0  0  0  0  0  0  0  0
    0.3558    0.3807   -1.5207 C   0  0  0  0  0  0  0  0  0  0  0  0
   -0.7012    0.3754   -2.5501 C   0  0  0  0  0  0  0  0  0  0  0  0
   -2.1000    0.2582   -2.2106 C   0  0  0  0  0  0  0  0  0  0  0  0
   -2.6136    0.1291   -0.9753 C   0  0  0  0  0  0  0  0  0  0  0  0
   -4.0155    0.0130   -0.6943 C   0  0  0  0  0  0  0  0  0  0  0  0
   -5.0557   -0.1319   -1.6001 C   0  0  0  0  0  0  0  0  0  0  0  0
   -6.2358   -0.2056   -0.9226 N   0  0  0  0  0  0  0  0  0  0  0  0
   -5.9957   -0.0985    0.4410 C   0  0  0  0  0  0  0  0  0  0  0  0
   -6.8527   -0.0941    1.5435 C   0  0  0  0  0  0  0  0  0  0  0  0
   -6.3056    0.0541    2.7919 C   0  0  0  0  0  0  0  0  0  0  0  0
   -4.9223    0.2027    2.9687 C   0  0  0  0  0  0  0  0  0  0  0  0
   -4.0722    0.1997    1.8969 C   0  0  0  0  0  0  0  0  0  0  0  0
   -4.6085    0.0414    0.6121 C   0  0  0  0  0  0  0  0  0  0  0  0
   -0.3806    0.4248   -3.8971 C   0  0  0  0  0  0  0  0  0  0  0  0
    0.9210    0.5236   -4.3605 C   0  0  0  0  0  0  0  0  0  0  0  0
    2.0293    0.5744   -4.7170 N   0  0  0  0  0  0  0  0  0  0  0  0
   -1.3931    0.3648   -4.8406 C   0  0  0  0  0  0  0  0  0  0  0  0
   -2.3002    0.2984   -5.5690 N   0  0  0  0  0  0  0  0  0  0  0  0
    0.2402    1.1918   -0.2976 C   0  0  0  0  0  0  0  0  0  0  0  0
   -0.7493    1.8900   -0.1396 O   0  0  0  0  0  0  0  0  0  0  0  0
    1.2346    1.1435    0.6576 O   0  0  0  0  0  0  0  0  0  0  0  0
    2.3741    0.3979    0.4210 C   0  0  0  0  0  0  0  0  0  0  0  0
    3.3964    0.4015    1.3634 C   0  0  0  0  0  0  0  0  0  0  0  0
    6.5783   -2.1220    1.8410 H   0  0  0  0  0  0  0  0  0  0  0  0
    7.4595   -0.9792    2.8492 H   0  0  0  0  0  0  0  0  0  0  0  0
    7.3705   -0.7145    1.1079 H   0  0  0  0  0  0  0  0  0  0  0  0
    6.4029    0.4904    3.9275 H   0  0  0  0  0  0  0  0  0  0  0  0
    4.6613    0.2147    3.9524 H   0  0  0  0  0  0  0  0  0  0  0  0
    5.3372    1.5831    3.0491 H   0  0  0  0  0  0  0  0  0  0  0  0
    5.6074   -1.6324   -0.1746 H   0  0  0  0  0  0  0  0  0  0  0  0
    3.8344   -1.6644   -1.8481 H   0  0  0  0  0  0  0  0  0  0  0  0
    1.6012   -0.9451   -2.5907 H   0  0  0  0  0  0  0  0  0  0  0  0
   -2.7918    0.2642   -3.0341 H   0  0  0  0  0  0  0  0  0  0  0  0
   -1.9467    0.1636   -0.1344 H   0  0  0  0  0  0  0  0  0  0  0  0
   -4.9614   -0.1828   -2.6722 H   0  0  0  0  0  0  0  0  0  0  0  0
   -7.1676   -0.2975   -1.3319 H   0  0  0  0  0  0  0  0  0  0  0  0
   -7.9123   -0.2009    1.3992 H   0  0  0  0  0  0  0  0  0  0  0  0
   -6.9506    0.0625    3.6557 H   0  0  0  0  0  0  0  0  0  0  0  0
   -4.5257    0.3266    3.9620 H   0  0  0  0  0  0  0  0  0  0  0  0
   -3.0104    0.3328    2.0215 H   0  0  0  0  0  0  0  0  0  0  0  0
    3.2530    0.9898    2.2500 H   0  0  0  0  0  0  0  0  0  0  0  0
  1  2  1  0  0  0  0
  2  3  1  0  0  0  0
  2  4  1  0  0  0  0
  4  5  2  0  0  0  0
  5  6  1  0  0  0  0
  6  7  2  0  0  0  0
  7  8  1  0  0  0  0
  8  9  2  0  0  0  0
  9 10  1  0  0  0  0
 10 11  1  0  0  0  0
 11 12  2  0  0  0  0
 12 13  1  0  0  0  0
 13 14  2  0  0  0  0
 14 15  1  0  0  0  0
 15 16  1  0  0  0  0
 16 17  2  0  0  0  0
 17 18  1  0  0  0  0
 18 19  2  0  0  0  0
 19 20  1  0  0  0  0
 20 21  2  0  0  0  0
 10 22  2  0  0  0  0
 22 23  1  0  0  0  0
 23 24  3  0  0  0  0
 22 25  1  0  0  0  0
 25 26  3  0  0  0  0
  9 27  1  0  0  0  0
 27 28  2  0  0  0  0
 27 29  1  0  0  0  0
 29 30  1  0  0  0  0
 30 31  2  0  0  0  0
 31  4  1  0  0  0  0
 30  7  1  0  0  0  0
 21 13  1  0  0  0  0
 21 16  1  0  0  0  0
  1 32  1  0  0  0  0
  1 33  1  0  0  0  0
  1 34  1  0  0  0  0
  3 35  1  0  0  0  0
  3 36  1  0  0  0  0
  3 37  1  0  0  0  0
  5 38  1  0  0  0  0
  6 39  1  0  0  0  0
  8 40  1  0  0  0  0
 11 41  1  0  0  0  0
 12 42  1  0  0  0  0
 14 43  1  0  0  0  0
 15 44  1  0  0  0  0
 17 45  1  0  0  0  0
 18 46  1  0  0  0  0
 19 47  1  0  0  0  0
 20 48  1  0  0  0  0
 31 49  1  0  0  0  0
M  END
