
  xtb     03012221323D
 energy: -6.283734186550 gnorm: 0.000320912543 xtb: 6.4.1 (afa7bdf)
 32 33  0     0  0            999 V2000
   -5.0302    0.6404    1.0149 C   0  0  0  0  0  0  0  0  0  0  0  0
   -4.1489   -0.2203    0.2253 N   0  0  0  0  0  0  0  0  0  0  0  0
   -4.7920   -1.2474   -0.5946 C   0  0  0  0  0  0  0  0  0  0  0  0
   -2.7522   -0.0710    0.2572 C   0  0  0  0  0  0  0  0  0  0  0  0
   -2.1535    0.9825    0.9568 C   0  0  0  0  0  0  0  0  0  0  0  0
   -0.7901    1.1290    0.9854 C   0  0  0  0  0  0  0  0  0  0  0  0
    0.0479    0.2305    0.3171 C   0  0  0  0  0  0  0  0  0  0  0  0
    1.4818    0.4167    0.3698 C   0  0  0  0  0  0  0  0  0  0  0  0
    2.4012   -0.3581   -0.2291 C   0  0  0  0  0  0  0  0  0  0  0  0
    3.8185   -0.1011   -0.1230 C   0  0  0  0  0  0  0  0  0  0  0  0
    4.1933    0.9572    0.6048 N   0  0  0  0  0  0  0  0  0  0  0  0
    5.4871    1.1605    0.6817 C   0  0  0  0  0  0  0  0  0  0  0  0
    6.4003    0.3513    0.0637 C   0  0  0  0  0  0  0  0  0  0  0  0
    5.9105   -0.7035   -0.6560 C   0  0  0  0  0  0  0  0  0  0  0  0
    4.6272   -0.9521   -0.7657 N   0  0  0  0  0  0  0  0  0  0  0  0
   -0.5492   -0.8241   -0.3817 C   0  0  0  0  0  0  0  0  0  0  0  0
   -1.9130   -0.9700   -0.4103 C   0  0  0  0  0  0  0  0  0  0  0  0
   -5.0113    1.6545    0.6210 H   0  0  0  0  0  0  0  0  0  0  0  0
   -4.7065    0.6544    2.0536 H   0  0  0  0  0  0  0  0  0  0  0  0
   -6.0562    0.2796    0.9884 H   0  0  0  0  0  0  0  0  0  0  0  0
   -4.5786   -2.2345   -0.1901 H   0  0  0  0  0  0  0  0  0  0  0  0
   -4.4249   -1.1933   -1.6172 H   0  0  0  0  0  0  0  0  0  0  0  0
   -5.8707   -1.1106   -0.6182 H   0  0  0  0  0  0  0  0  0  0  0  0
   -2.7743    1.6929    1.4723 H   0  0  0  0  0  0  0  0  0  0  0  0
   -0.3488    1.9475    1.5277 H   0  0  0  0  0  0  0  0  0  0  0  0
    1.8429    1.2529    0.9415 H   0  0  0  0  0  0  0  0  0  0  0  0
    2.1026   -1.2062   -0.8144 H   0  0  0  0  0  0  0  0  0  0  0  0
    5.8190    2.0073    1.2627 H   0  0  0  0  0  0  0  0  0  0  0  0
    7.4590    0.5365    0.1407 H   0  0  0  0  0  0  0  0  0  0  0  0
    6.5870   -1.3739   -1.1638 H   0  0  0  0  0  0  0  0  0  0  0  0
    0.0689   -1.5332   -0.9023 H   0  0  0  0  0  0  0  0  0  0  0  0
   -2.3467   -1.7945   -0.9471 H   0  0  0  0  0  0  0  0  0  0  0  0
  1  2  1  0  0  0  0
  2  3  1  0  0  0  0
  2  4  1  0  0  0  0
  4  5  2  0  0  0  0
  5  6  1  0  0  0  0
  6  7  2  0  0  0  0
  7  8  1  0  0  0  0
  8  9  2  0  0  0  0
  9 10  1  0  0  0  0
 10 11  2  0  0  0  0
 11 12  1  0  0  0  0
 12 13  2  0  0  0  0
 13 14  1  0  0  0  0
 14 15  2  0  0  0  0
  7 16  1  0  0  0  0
 16 17  2  0  0  0  0
 17  4  1  0  0  0  0
 15 10  1  0  0  0  0
  1 18  1  0  0  0  0
  1 19  1  0  0  0  0
  1 20  1  0  0  0  0
  3 21  1  0  0  0  0
  3 22  1  0  0  0  0
  3 23  1  0  0  0  0
  5 24  1  0  0  0  0
  6 25  1  0  0  0  0
  8 26  1  0  0  0  0
  9 27  1  0  0  0  0
 12 28  1  0  0  0  0
 13 29  1  0  0  0  0
 14 30  1  0  0  0  0
 16 31  1  0  0  0  0
 17 32  1  0  0  0  0
M  END
