
  xtb     03012221313D
 energy: -7.424455576293 gnorm: 0.000286948164 xtb: 6.4.1 (afa7bdf)
 36 39  0     0  0            999 V2000
    6.9490   -1.1885    2.0895 O   0  0  0  0  0  0  0  0  0  0  0  0
    6.4842   -1.3329    0.9528 N   0  0  0  0  0  4  0  0  0  0  0  0
    7.1574   -1.7293   -0.0055 O   0  0  0  0  0  1  0  0  0  0  0  0
    5.0756   -1.0239    0.7336 C   0  0  0  0  0  0  0  0  0  0  0  0
    4.5147   -1.1861   -0.5188 C   0  0  0  0  0  0  0  0  0  0  0  0
    3.1862   -0.9032   -0.7183 C   0  0  0  0  0  0  0  0  0  0  0  0
    2.3901   -0.4517    0.3283 C   0  0  0  0  0  0  0  0  0  0  0  0
    1.0124   -0.1725    0.1051 N   0  0  0  0  0  4  0  0  0  0  0  0
    0.0658   -0.4018    0.9818 C   0  0  0  0  0  0  0  0  0  0  0  0
   -1.3027   -0.1272    0.7164 C   0  0  0  0  0  0  0  0  0  0  0  0
   -2.3200   -0.4598    1.6343 C   0  0  0  0  0  0  0  0  0  0  0  0
   -3.6235   -0.1616    1.3815 C   0  0  0  0  0  0  0  0  0  0  0  0
   -4.0001    0.4994    0.1870 C   0  0  0  0  0  0  0  0  0  0  0  0
   -5.3384    0.8229   -0.1071 C   0  0  0  0  0  0  0  0  0  0  0  0
   -5.6602    1.4591   -1.2704 C   0  0  0  0  0  0  0  0  0  0  0  0
   -4.6665    1.8002   -2.1896 C   0  0  0  0  0  0  0  0  0  0  0  0
   -3.3608    1.5003   -1.9334 C   0  0  0  0  0  0  0  0  0  0  0  0
   -2.9997    0.8477   -0.7469 C   0  0  0  0  0  0  0  0  0  0  0  0
   -1.6343    0.5254   -0.4782 C   0  0  0  0  0  0  0  0  0  0  0  0
   -0.6819    0.8721   -1.3780 O   0  0  0  0  0  0  0  0  0  0  0  0
    0.6434    0.2445   -1.3254 B   0  0  0  0  0  4  0  0  0  0  0  0
    0.6396   -0.9164   -2.0849 F   0  0  0  0  0  0  0  0  0  0  0  0
    1.6146    1.1260   -1.7789 F   0  0  0  0  0  0  0  0  0  0  0  0
    2.9682   -0.2816    1.5827 C   0  0  0  0  0  0  0  0  0  0  0  0
    4.2974   -0.5667    1.7800 C   0  0  0  0  0  0  0  0  0  0  0  0
    5.1379   -1.5331   -1.3264 H   0  0  0  0  0  0  0  0  0  0  0  0
    2.7361   -1.0195   -1.6898 H   0  0  0  0  0  0  0  0  0  0  0  0
    0.3365   -0.8346    1.9267 H   0  0  0  0  0  0  0  0  0  0  0  0
   -2.0479   -0.9582    2.5479 H   0  0  0  0  0  0  0  0  0  0  0  0
   -4.3876   -0.4245    2.0915 H   0  0  0  0  0  0  0  0  0  0  0  0
   -6.1065    0.5599    0.5993 H   0  0  0  0  0  0  0  0  0  0  0  0
   -6.6881    1.7004   -1.4845 H   0  0  0  0  0  0  0  0  0  0  0  0
   -4.9338    2.3011   -3.1056 H   0  0  0  0  0  0  0  0  0  0  0  0
   -2.5827    1.7531   -2.6335 H   0  0  0  0  0  0  0  0  0  0  0  0
    2.3685    0.0965    2.3917 H   0  0  0  0  0  0  0  0  0  0  0  0
    4.7569   -0.4357    2.7455 H   0  0  0  0  0  0  0  0  0  0  0  0
  1  2  2  0  0  0  0
  2  3  1  0  0  0  0
  2  4  1  0  0  0  0
  4  5  2  0  0  0  0
  5  6  1  0  0  0  0
  6  7  2  0  0  0  0
  7  8  1  0  0  0  0
  8  9  2  0  0  0  0
  9 10  1  0  0  0  0
 10 11  2  0  0  0  0
 11 12  1  0  0  0  0
 12 13  2  0  0  0  0
 13 14  1  0  0  0  0
 14 15  2  0  0  0  0
 15 16  1  0  0  0  0
 16 17  2  0  0  0  0
 17 18  1  0  0  0  0
 18 19  2  0  0  0  0
 19 20  1  0  0  0  0
 20 21  1  0  0  0  0
 21 22  1  0  0  0  0
 21 23  1  0  0  0  0
  7 24  1  0  0  0  0
 24 25  2  0  0  0  0
 25  4  1  0  0  0  0
 21  8  1  0  0  0  0
 19 10  1  0  0  0  0
 18 13  1  0  0  0  0
  5 26  1  0  0  0  0
  6 27  1  0  0  0  0
  9 28  1  0  0  0  0
 11 29  1  0  0  0  0
 12 30  1  0  0  0  0
 14 31  1  0  0  0  0
 15 32  1  0  0  0  0
 16 33  1  0  0  0  0
 17 34  1  0  0  0  0
 24 35  1  0  0  0  0
 25 36  1  0  0  0  0
M  CHG  1   2   1
M  CHG  1   3  -1
M  CHG  1   8   1
M  CHG  1  21  -1
M  END
