
  xtb     03012221243D
 energy: -8.135168646338 gnorm: 0.000322858546 xtb: 6.4.1 (afa7bdf)
 42 45  0     0  0            999 V2000
    6.5371   -1.5724   -0.4518 C   0  0  0  0  0  0  0  0  0  0  0  0
    5.9564   -0.2909   -0.0450 N   0  0  0  0  0  0  0  0  0  0  0  0
    6.8893    0.7790    0.3162 C   0  0  0  0  0  0  0  0  0  0  0  0
    4.5637   -0.0923   -0.0142 C   0  0  0  0  0  0  0  0  0  0  0  0
    4.0173    1.1216    0.4184 C   0  0  0  0  0  0  0  0  0  0  0  0
    2.6607    1.3145    0.4475 C   0  0  0  0  0  0  0  0  0  0  0  0
    1.7905    0.3034    0.0454 C   0  0  0  0  0  0  0  0  0  0  0  0
    0.3480    0.4953    0.0734 C   0  0  0  0  0  0  0  0  0  0  0  0
   -0.1216    1.6393    0.4828 N   0  0  0  0  0  0  0  0  0  0  0  0
   -1.4712    1.7331    0.4422 C   0  0  0  0  0  0  0  0  0  0  0  0
   -2.3454    3.2238    0.7526 S   0  0  0  0  0  0  0  0  0  0  0  0
   -3.8697    2.4589    0.4843 C   0  0  0  0  0  0  0  0  0  0  0  0
   -3.7221    1.1400    0.1859 C   0  0  0  0  0  0  0  0  0  0  0  0
   -4.8568    0.2386   -0.0879 C   0  0  0  0  0  0  0  0  0  0  0  0
   -6.0023    0.7136   -0.7217 C   0  0  0  0  0  0  0  0  0  0  0  0
   -7.0753   -0.1167   -0.9566 C   0  0  0  0  0  0  0  0  0  0  0  0
   -7.0282   -1.4379   -0.5630 C   0  0  0  0  0  0  0  0  0  0  0  0
   -5.9016   -1.9272    0.0639 C   0  0  0  0  0  0  0  0  0  0  0  0
   -4.8301   -1.0971    0.2991 C   0  0  0  0  0  0  0  0  0  0  0  0
   -2.3636    0.7847    0.1757 N   0  0  0  0  0  4  0  0  0  0  0  0
   -1.8363   -0.6312   -0.0668 B   0  0  0  0  0  4  0  0  0  0  0  0
   -2.5185   -1.1826   -1.1409 F   0  0  0  0  0  0  0  0  0  0  0  0
   -2.0478   -1.3624    1.0942 F   0  0  0  0  0  0  0  0  0  0  0  0
   -0.4059   -0.5563   -0.3521 O   0  0  0  0  0  0  0  0  0  0  0  0
    2.3259   -0.9073   -0.3854 C   0  0  0  0  0  0  0  0  0  0  0  0
    3.6821   -1.1025   -0.4154 C   0  0  0  0  0  0  0  0  0  0  0  0
    7.6189   -1.5637   -0.3463 H   0  0  0  0  0  0  0  0  0  0  0  0
    6.1434   -2.3730    0.1696 H   0  0  0  0  0  0  0  0  0  0  0  0
    6.2961   -1.7752   -1.4924 H   0  0  0  0  0  0  0  0  0  0  0  0
    6.7582    1.0490    1.3613 H   0  0  0  0  0  0  0  0  0  0  0  0
    7.9200    0.4658    0.1708 H   0  0  0  0  0  0  0  0  0  0  0  0
    6.7107    1.6535   -0.3048 H   0  0  0  0  0  0  0  0  0  0  0  0
    4.6717    1.9129    0.7365 H   0  0  0  0  0  0  0  0  0  0  0  0
    2.2443    2.2487    0.7823 H   0  0  0  0  0  0  0  0  0  0  0  0
   -4.8101    2.9680    0.5616 H   0  0  0  0  0  0  0  0  0  0  0  0
   -6.0367    1.7408   -1.0410 H   0  0  0  0  0  0  0  0  0  0  0  0
   -7.9523    0.2657   -1.4523 H   0  0  0  0  0  0  0  0  0  0  0  0
   -7.8667   -2.0876   -0.7510 H   0  0  0  0  0  0  0  0  0  0  0  0
   -5.8555   -2.9620    0.3612 H   0  0  0  0  0  0  0  0  0  0  0  0
   -3.9379   -1.4830    0.7573 H   0  0  0  0  0  0  0  0  0  0  0  0
    1.6469   -1.6849   -0.6923 H   0  0  0  0  0  0  0  0  0  0  0  0
    4.0744   -2.0440   -0.7550 H   0  0  0  0  0  0  0  0  0  0  0  0
  1  2  1  0  0  0  0
  2  3  1  0  0  0  0
  2  4  1  0  0  0  0
  4  5  2  0  0  0  0
  5  6  1  0  0  0  0
  6  7  2  0  0  0  0
  7  8  1  0  0  0  0
  8  9  2  0  0  0  0
  9 10  1  0  0  0  0
 10 11  1  0  0  0  0
 11 12  1  0  0  0  0
 12 13  2  0  0  0  0
 13 14  1  0  0  0  0
 14 15  2  0  0  0  0
 15 16  1  0  0  0  0
 16 17  2  0  0  0  0
 17 18  1  0  0  0  0
 18 19  2  0  0  0  0
 13 20  1  0  0  0  0
 20 21  1  0  0  0  0
 21 22  1  0  0  0  0
 21 23  1  0  0  0  0
 21 24  1  0  0  0  0
  7 25  1  0  0  0  0
 25 26  2  0  0  0  0
 26  4  1  0  0  0  0
 24  8  1  0  0  0  0
 20 10  2  0  0  0  0
 19 14  1  0  0  0  0
  1 27  1  0  0  0  0
  1 28  1  0  0  0  0
  1 29  1  0  0  0  0
  3 30  1  0  0  0  0
  3 31  1  0  0  0  0
  3 32  1  0  0  0  0
  5 33  1  0  0  0  0
  6 34  1  0  0  0  0
 12 35  1  0  0  0  0
 15 36  1  0  0  0  0
 16 37  1  0  0  0  0
 17 38  1  0  0  0  0
 18 39  1  0  0  0  0
 19 40  1  0  0  0  0
 25 41  1  0  0  0  0
 26 42  1  0  0  0  0
M  CHG  1  20   1
M  CHG  1  21  -1
M  END
