
  xtb     03012221263D
 energy: -8.299751271435 gnorm: 0.000092110063 xtb: 6.4.1 (afa7bdf)
 38 42  0     0  0            999 V2000
    2.4426   -0.0992    1.6035 O   0  0  0  0  0  0  0  0  0  0  0  0
    2.7988   -0.1145    0.4447 C   0  0  0  0  0  0  0  0  0  0  0  0
    1.9453    0.0076   -0.7231 C   0  0  0  0  0  0  0  0  0  0  0  0
    0.6261    0.1188   -0.9242 C   0  0  0  0  0  0  0  0  0  0  0  0
   -0.4862    0.1590    0.0155 C   0  0  0  0  0  0  0  0  0  0  0  0
   -0.3215    0.1921    1.4175 C   0  0  0  0  0  0  0  0  0  0  0  0
   -1.3769    0.2389    2.2815 C   0  0  0  0  0  0  0  0  0  0  0  0
   -2.6798    0.2500    1.7705 C   0  0  0  0  0  0  0  0  0  0  0  0
   -3.8983    0.2866    2.4174 O   0  0  0  0  0  0  0  0  0  0  0  0
   -4.8736    0.2717    1.4356 C   0  0  0  0  0  0  0  0  0  0  0  0
   -6.2687    0.2897    1.5363 C   0  0  0  0  0  0  0  0  0  0  0  0
   -7.0219    0.2635    0.3926 C   0  0  0  0  0  0  0  0  0  0  0  0
   -6.4216    0.2199   -0.8696 C   0  0  0  0  0  0  0  0  0  0  0  0
   -5.0569    0.2025   -1.0006 C   0  0  0  0  0  0  0  0  0  0  0  0
   -4.2769    0.2287    0.1553 C   0  0  0  0  0  0  0  0  0  0  0  0
   -2.8624    0.2158    0.3710 C   0  0  0  0  0  0  0  0  0  0  0  0
   -1.7759    0.1736   -0.4956 C   0  0  0  0  0  0  0  0  0  0  0  0
    3.0009   -0.0135   -2.1565 S   0  0  0  0  0  6  0  0  0  0  0  0
    2.9930    1.3612   -2.7835 O   0  0  0  0  0  0  0  0  0  0  0  0
    2.6926   -1.2566   -2.9582 O   0  0  0  0  0  0  0  0  0  0  0  0
    4.5199   -0.2465   -1.2590 C   0  0  0  0  0  0  0  0  0  0  0  0
    5.8019   -0.3860   -1.7265 C   0  0  0  0  0  0  0  0  0  0  0  0
    6.8271   -0.5586   -0.8165 C   0  0  0  0  0  0  0  0  0  0  0  0
    6.5575   -0.5884    0.5404 C   0  0  0  0  0  0  0  0  0  0  0  0
    5.2652   -0.4466    1.0014 C   0  0  0  0  0  0  0  0  0  0  0  0
    4.2349   -0.2739    0.0890 C   0  0  0  0  0  0  0  0  0  0  0  0
    0.3322    0.1814   -1.9611 H   0  0  0  0  0  0  0  0  0  0  0  0
    0.6753    0.1703    1.8111 H   0  0  0  0  0  0  0  0  0  0  0  0
   -1.2322    0.2619    3.3468 H   0  0  0  0  0  0  0  0  0  0  0  0
   -6.7229    0.3223    2.5101 H   0  0  0  0  0  0  0  0  0  0  0  0
   -8.0970    0.2758    0.4654 H   0  0  0  0  0  0  0  0  0  0  0  0
   -7.0417    0.1989   -1.7501 H   0  0  0  0  0  0  0  0  0  0  0  0
   -4.5847    0.1679   -1.9664 H   0  0  0  0  0  0  0  0  0  0  0  0
   -1.9419    0.1484   -1.5566 H   0  0  0  0  0  0  0  0  0  0  0  0
    5.9902   -0.3601   -2.7867 H   0  0  0  0  0  0  0  0  0  0  0  0
    7.8403   -0.6706   -1.1662 H   0  0  0  0  0  0  0  0  0  0  0  0
    7.3629   -0.7241    1.2428 H   0  0  0  0  0  0  0  0  0  0  0  0
    5.0344   -0.4676    2.0520 H   0  0  0  0  0  0  0  0  0  0  0  0
  1  2  2  0  0  0  0
  2  3  1  0  0  0  0
  3  4  2  0  0  0  0
  4  5  1  0  0  0  0
  5  6  2  0  0  0  0
  6  7  1  0  0  0  0
  7  8  2  0  0  0  0
  8  9  1  0  0  0  0
  9 10  1  0  0  0  0
 10 11  2  0  0  0  0
 11 12  1  0  0  0  0
 12 13  2  0  0  0  0
 13 14  1  0  0  0  0
 14 15  2  0  0  0  0
 15 16  1  0  0  0  0
 16 17  2  0  0  0  0
  3 18  1  0  0  0  0
 18 19  2  0  0  0  0
 18 20  2  0  0  0  0
 18 21  1  0  0  0  0
 21 22  2  0  0  0  0
 22 23  1  0  0  0  0
 23 24  2  0  0  0  0
 24 25  1  0  0  0  0
 25 26  2  0  0  0  0
 26  2  1  0  0  0  0
 17  5  1  0  0  0  0
 26 21  1  0  0  0  0
 16  8  1  0  0  0  0
 15 10  1  0  0  0  0
  4 27  1  0  0  0  0
  6 28  1  0  0  0  0
  7 29  1  0  0  0  0
 11 30  1  0  0  0  0
 12 31  1  0  0  0  0
 13 32  1  0  0  0  0
 14 33  1  0  0  0  0
 17 34  1  0  0  0  0
 22 35  1  0  0  0  0
 23 36  1  0  0  0  0
 24 37  1  0  0  0  0
 25 38  1  0  0  0  0
M  END
