
  xtb     03012221323D
 energy: -10.345194522057 gnorm: 0.000278532713 xtb: 6.4.1 (afa7bdf)
 53 57  0     0  0            999 V2000
   -2.3632    3.5647    1.6199 C   0  0  0  0  0  0  0  0  0  0  0  0
   -3.0692    3.3625    0.2955 C   0  0  0  0  0  0  0  0  0  0  0  0
   -2.3690    2.4922   -0.5660 O   0  0  0  0  0  0  0  0  0  0  0  0
   -2.4487    1.2155   -0.1038 C   0  0  0  0  0  0  0  0  0  0  0  0
   -3.0497    0.8508    0.8819 O   0  0  0  0  0  0  0  0  0  0  0  0
   -1.6670    0.2220   -0.9584 C   0  0  0  0  0  0  0  0  0  0  0  0
   -1.9744    0.4560   -2.3332 O   0  0  0  0  0  0  0  0  0  0  0  0
   -0.1792    0.3487   -0.6785 C   0  0  0  0  0  0  0  0  0  0  0  0
    0.6459    1.4375   -0.8272 C   0  0  0  0  0  0  0  0  0  0  0  0
    2.0010    1.3302   -0.4900 C   0  0  0  0  0  0  0  0  0  0  0  0
    2.9043    2.4281   -0.6259 C   0  0  0  0  0  0  0  0  0  0  0  0
    4.2083    2.3089   -0.2938 C   0  0  0  0  0  0  0  0  0  0  0  0
    4.7387    1.0804    0.2090 C   0  0  0  0  0  0  0  0  0  0  0  0
    6.0806    0.9377    0.5587 C   0  0  0  0  0  0  0  0  0  0  0  0
    6.5574   -0.2627    1.0431 C   0  0  0  0  0  0  0  0  0  0  0  0
    5.7191   -1.3476    1.1931 C   0  0  0  0  0  0  0  0  0  0  0  0
    4.3685   -1.2562    0.8576 C   0  0  0  0  0  0  0  0  0  0  0  0
    3.4718   -2.3598    1.0034 C   0  0  0  0  0  0  0  0  0  0  0  0
    2.1672   -2.2438    0.6717 C   0  0  0  0  0  0  0  0  0  0  0  0
    1.6428   -1.0215    0.1651 C   0  0  0  0  0  0  0  0  0  0  0  0
    0.2973   -0.8649   -0.1876 C   0  0  0  0  0  0  0  0  0  0  0  0
   -0.7960   -1.8433   -0.1049 C   0  0  0  0  0  0  0  0  0  0  0  0
   -0.7164   -2.9904    0.2970 O   0  0  0  0  0  0  0  0  0  0  0  0
   -1.9308   -1.1958   -0.5703 N   0  0  0  0  0  0  0  0  0  0  0  0
   -3.2514   -1.8906   -0.6035 C   0  0  0  0  0  0  0  0  0  0  0  0
   -3.0905   -3.1889   -1.3982 C   0  0  0  0  0  0  0  0  0  0  0  0
   -3.6489   -2.1862    0.8446 C   0  0  0  0  0  0  0  0  0  0  0  0
   -4.3026   -0.9993   -1.2723 C   0  0  0  0  0  0  0  0  0  0  0  0
    2.4992    0.0951    0.0072 C   0  0  0  0  0  0  0  0  0  0  0  0
    3.8731   -0.0274    0.3584 C   0  0  0  0  0  0  0  0  0  0  0  0
   -2.9044    4.2471    2.2767 H   0  0  0  0  0  0  0  0  0  0  0  0
   -1.3606    3.9630    1.4656 H   0  0  0  0  0  0  0  0  0  0  0  0
   -2.2560    2.6107    2.1371 H   0  0  0  0  0  0  0  0  0  0  0  0
   -3.1934    4.3126   -0.2408 H   0  0  0  0  0  0  0  0  0  0  0  0
   -4.0741    2.9407    0.4350 H   0  0  0  0  0  0  0  0  0  0  0  0
   -1.9312    1.4272   -2.4807 H   0  0  0  0  0  0  0  0  0  0  0  0
    0.2441    2.3667   -1.1869 H   0  0  0  0  0  0  0  0  0  0  0  0
    2.5246    3.3613   -1.0017 H   0  0  0  0  0  0  0  0  0  0  0  0
    4.8741    3.1479   -0.4039 H   0  0  0  0  0  0  0  0  0  0  0  0
    6.7426    1.7788    0.4462 H   0  0  0  0  0  0  0  0  0  0  0  0
    7.5987   -0.3538    1.3083 H   0  0  0  0  0  0  0  0  0  0  0  0
    6.1009   -2.2795    1.5727 H   0  0  0  0  0  0  0  0  0  0  0  0
    3.8541   -3.2894    1.3847 H   0  0  0  0  0  0  0  0  0  0  0  0
    1.4887   -3.0722    0.7828 H   0  0  0  0  0  0  0  0  0  0  0  0
   -2.7725   -2.9721   -2.4166 H   0  0  0  0  0  0  0  0  0  0  0  0
   -2.3297   -3.8188   -0.9394 H   0  0  0  0  0  0  0  0  0  0  0  0
   -4.0243   -3.7475   -1.4374 H   0  0  0  0  0  0  0  0  0  0  0  0
   -2.8960   -2.8147    1.3182 H   0  0  0  0  0  0  0  0  0  0  0  0
   -4.6116   -2.6918    0.8986 H   0  0  0  0  0  0  0  0  0  0  0  0
   -3.7078   -1.2555    1.4082 H   0  0  0  0  0  0  0  0  0  0  0  0
   -4.4504   -0.0882   -0.6954 H   0  0  0  0  0  0  0  0  0  0  0  0
   -3.9739   -0.7133   -2.2700 H   0  0  0  0  0  0  0  0  0  0  0  0
   -5.2603   -1.5109   -1.3544 H   0  0  0  0  0  0  0  0  0  0  0  0
  1  2  1  0  0  0  0
  2  3  1  0  0  0  0
  3  4  1  0  0  0  0
  4  5  2  0  0  0  0
  4  6  1  0  0  0  0
  6  7  1  0  0  0  0
  6  8  1  0  0  0  0
  8  9  2  0  0  0  0
  9 10  1  0  0  0  0
 10 11  2  0  0  0  0
 11 12  1  0  0  0  0
 12 13  2  0  0  0  0
 13 14  1  0  0  0  0
 14 15  2  0  0  0  0
 15 16  1  0  0  0  0
 16 17  2  0  0  0  0
 17 18  1  0  0  0  0
 18 19  2  0  0  0  0
 19 20  1  0  0  0  0
 20 21  2  0  0  0  0
 21 22  1  0  0  0  0
 22 23  2  0  0  0  0
 22 24  1  0  0  0  0
 24 25  1  0  0  0  0
 25 26  1  0  0  0  0
 25 27  1  0  0  0  0
 25 28  1  0  0  0  0
 20 29  1  0  0  0  0
 29 30  2  0  0  0  0
 24  6  1  0  0  0  0
 21  8  1  0  0  0  0
 29 10  1  0  0  0  0
 30 13  1  0  0  0  0
 30 17  1  0  0  0  0
  1 31  1  0  0  0  0
  1 32  1  0  0  0  0
  1 33  1  0  0  0  0
  2 34  1  0  0  0  0
  2 35  1  0  0  0  0
  7 36  1  0  0  0  0
  9 37  1  0  0  0  0
 11 38  1  0  0  0  0
 12 39  1  0  0  0  0
 14 40  1  0  0  0  0
 15 41  1  0  0  0  0
 16 42  1  0  0  0  0
 18 43  1  0  0  0  0
 19 44  1  0  0  0  0
 26 45  1  0  0  0  0
 26 46  1  0  0  0  0
 26 47  1  0  0  0  0
 27 48  1  0  0  0  0
 27 49  1  0  0  0  0
 27 50  1  0  0  0  0
 28 51  1  0  0  0  0
 28 52  1  0  0  0  0
 28 53  1  0  0  0  0
M  END
