
  xtb     03012221263D
 energy: -11.873806696706 gnorm: 0.000444941753 xtb: 6.4.1 (afa7bdf)
 57 61  0     0  0            999 V2000
    8.0665    1.3652   -0.5239 C   0  0  0  0  0  0  0  0  0  0  0  0
    6.7487    1.5471   -1.2462 C   0  0  0  0  0  0  0  0  0  0  0  0
    5.6513    1.1496   -0.4614 O   0  0  0  0  0  0  0  0  0  0  0  0
    4.4941    1.3405   -1.1637 C   0  0  0  0  0  0  0  0  0  0  0  0
    4.4534    1.7832   -2.2960 O   0  0  0  0  0  0  0  0  0  0  0  0
    3.2344    0.9725   -0.4716 C   0  0  0  0  0  0  0  0  0  0  0  0
    2.0160    1.1512   -1.1050 C   0  0  0  0  0  0  0  0  0  0  0  0
    0.8459    0.8016   -0.4699 C   0  0  0  0  0  0  0  0  0  0  0  0
    0.8670    0.2719    0.8091 C   0  0  0  0  0  0  0  0  0  0  0  0
   -0.4222   -0.1311    1.4686 C   0  0  0  0  0  0  0  0  0  0  0  0
   -0.9818   -1.4484    0.9197 C   0  0  0  0  0  0  0  0  0  0  0  0
   -2.2309   -1.0403    0.1831 C   0  0  0  0  0  0  0  0  0  0  0  0
   -3.0651   -1.8430   -0.6765 C   0  0  0  0  0  0  0  0  0  0  0  0
   -4.0835   -1.1645   -1.3320 C   0  0  0  0  0  0  0  0  0  0  0  0
   -4.9464   -1.7892   -2.2210 C   0  0  0  0  0  0  0  0  0  0  0  0
   -4.8133   -3.1203   -2.4826 C   0  0  0  0  0  0  0  0  0  0  0  0
   -3.8094   -3.8810   -1.8491 C   0  0  0  0  0  0  0  0  0  0  0  0
   -3.6838   -5.2610   -2.1225 C   0  0  0  0  0  0  0  0  0  0  0  0
   -2.7309   -6.0116   -1.5062 C   0  0  0  0  0  0  0  0  0  0  0  0
   -1.8675   -5.4182   -0.5871 C   0  0  0  0  0  0  0  0  0  0  0  0
   -1.9616   -4.0863   -0.3038 C   0  0  0  0  0  0  0  0  0  0  0  0
   -2.9228   -3.2611   -0.9260 C   0  0  0  0  0  0  0  0  0  0  0  0
   -2.4760    0.2353    0.3545 N   0  0  0  0  0  0  0  0  0  0  0  0
   -1.5267    0.7931    1.1221 N   0  0  0  0  0  0  0  0  0  0  0  0
   -1.5744    2.1441    1.5466 C   0  0  0  0  0  0  0  0  0  0  0  0
   -2.6907    2.9083    1.2316 C   0  0  0  0  0  0  0  0  0  0  0  0
   -2.7778    4.2203    1.6319 C   0  0  0  0  0  0  0  0  0  0  0  0
   -1.7476    4.8077    2.3592 C   0  0  0  0  0  0  0  0  0  0  0  0
   -1.8372    6.1447    2.7724 C   0  0  0  0  0  0  0  0  0  0  0  0
   -1.9164    7.2525    3.1138 N   0  0  0  0  0  0  0  0  0  0  0  0
   -0.6271    4.0431    2.6686 C   0  0  0  0  0  0  0  0  0  0  0  0
   -0.5399    2.7311    2.2686 C   0  0  0  0  0  0  0  0  0  0  0  0
    2.0871    0.0906    1.4417 C   0  0  0  0  0  0  0  0  0  0  0  0
    3.2588    0.4406    0.8075 C   0  0  0  0  0  0  0  0  0  0  0  0
    8.9168    1.6746   -1.1338 H   0  0  0  0  0  0  0  0  0  0  0  0
    8.0816    1.9470    0.3979 H   0  0  0  0  0  0  0  0  0  0  0  0
    8.2107    0.3207   -0.2469 H   0  0  0  0  0  0  0  0  0  0  0  0
    6.5794    2.5963   -1.5262 H   0  0  0  0  0  0  0  0  0  0  0  0
    6.7088    0.9602   -2.1745 H   0  0  0  0  0  0  0  0  0  0  0  0
    2.0067    1.5648   -2.0988 H   0  0  0  0  0  0  0  0  0  0  0  0
   -0.1032    0.9373   -0.9574 H   0  0  0  0  0  0  0  0  0  0  0  0
   -0.3103   -0.1537    2.5608 H   0  0  0  0  0  0  0  0  0  0  0  0
   -1.2176   -2.1491    1.7282 H   0  0  0  0  0  0  0  0  0  0  0  0
   -0.2604   -1.9119    0.2390 H   0  0  0  0  0  0  0  0  0  0  0  0
   -4.1904   -0.1107   -1.1434 H   0  0  0  0  0  0  0  0  0  0  0  0
   -5.7189   -1.2181   -2.7087 H   0  0  0  0  0  0  0  0  0  0  0  0
   -5.4787   -3.6065   -3.1755 H   0  0  0  0  0  0  0  0  0  0  0  0
   -4.3577   -5.7151   -2.8289 H   0  0  0  0  0  0  0  0  0  0  0  0
   -2.6448   -7.0635   -1.7224 H   0  0  0  0  0  0  0  0  0  0  0  0
   -1.1214   -6.0211   -0.0948 H   0  0  0  0  0  0  0  0  0  0  0  0
   -1.2922   -3.6753    0.4238 H   0  0  0  0  0  0  0  0  0  0  0  0
   -3.4844    2.4493    0.6704 H   0  0  0  0  0  0  0  0  0  0  0  0
   -3.6452    4.8096    1.3888 H   0  0  0  0  0  0  0  0  0  0  0  0
    0.1738    4.4980    3.2259 H   0  0  0  0  0  0  0  0  0  0  0  0
    0.3370    2.1543    2.4982 H   0  0  0  0  0  0  0  0  0  0  0  0
    2.1108   -0.3295    2.4320 H   0  0  0  0  0  0  0  0  0  0  0  0
    4.2099    0.3043    1.2922 H   0  0  0  0  0  0  0  0  0  0  0  0
  1  2  1  0  0  0  0
  2  3  1  0  0  0  0
  3  4  1  0  0  0  0
  4  5  2  0  0  0  0
  4  6  1  0  0  0  0
  6  7  2  0  0  0  0
  7  8  1  0  0  0  0
  8  9  2  0  0  0  0
  9 10  1  0  0  0  0
 10 11  1  0  0  0  0
 11 12  1  0  0  0  0
 12 13  1  0  0  0  0
 13 14  2  0  0  0  0
 14 15  1  0  0  0  0
 15 16  2  0  0  0  0
 16 17  1  0  0  0  0
 17 18  2  0  0  0  0
 18 19  1  0  0  0  0
 19 20  2  0  0  0  0
 20 21  1  0  0  0  0
 21 22  2  0  0  0  0
 12 23  2  0  0  0  0
 23 24  1  0  0  0  0
 24 25  1  0  0  0  0
 25 26  2  0  0  0  0
 26 27  1  0  0  0  0
 27 28  2  0  0  0  0
 28 29  1  0  0  0  0
 29 30  3  0  0  0  0
 28 31  1  0  0  0  0
 31 32  2  0  0  0  0
  9 33  1  0  0  0  0
 33 34  2  0  0  0  0
 34  6  1  0  0  0  0
 24 10  1  0  0  0  0
 32 25  1  0  0  0  0
 22 13  1  0  0  0  0
 22 17  1  0  0  0  0
  1 35  1  0  0  0  0
  1 36  1  0  0  0  0
  1 37  1  0  0  0  0
  2 38  1  0  0  0  0
  2 39  1  0  0  0  0
  7 40  1  0  0  0  0
  8 41  1  0  0  0  0
 10 42  1  0  0  0  0
 11 43  1  0  0  0  0
 11 44  1  0  0  0  0
 14 45  1  0  0  0  0
 15 46  1  0  0  0  0
 16 47  1  0  0  0  0
 18 48  1  0  0  0  0
 19 49  1  0  0  0  0
 20 50  1  0  0  0  0
 21 51  1  0  0  0  0
 26 52  1  0  0  0  0
 27 53  1  0  0  0  0
 31 54  1  0  0  0  0
 32 55  1  0  0  0  0
 33 56  1  0  0  0  0
 34 57  1  0  0  0  0
M  END
