
  xtb     03012221223D
 energy: -12.280366269687 gnorm: 0.000203666560 xtb: 6.4.1 (afa7bdf)
 63 68  0     0  0            999 V2000
   -6.0842    0.8494   -2.1641 C   0  0  0  0  0  0  0  0  0  0  0  0
   -5.8704    1.2235   -0.7130 C   0  0  0  0  0  0  0  0  0  0  0  0
   -5.2202    0.1459    0.0577 N   0  0  0  0  0  0  0  0  0  0  0  0
   -6.1304   -0.8027    0.7285 C   0  0  0  0  0  0  0  0  0  0  0  0
   -6.2016   -2.1375    0.0166 C   0  0  0  0  0  0  0  0  0  0  0  0
   -3.8235   -0.0138    0.0836 C   0  0  0  0  0  0  0  0  0  0  0  0
   -2.9871    0.7807   -0.7104 C   0  0  0  0  0  0  0  0  0  0  0  0
   -1.6243    0.6317   -0.6764 C   0  0  0  0  0  0  0  0  0  0  0  0
   -1.0240   -0.3079    0.1666 C   0  0  0  0  0  0  0  0  0  0  0  0
    0.4399   -0.4946    0.2080 C   0  0  0  0  0  0  0  0  0  0  0  0
    0.8667   -1.7653    0.2433 N   0  0  0  0  0  0  0  0  0  0  0  0
    2.1600   -1.9852    0.0610 C   0  0  0  0  0  0  0  0  0  0  0  0
    3.0926   -0.9748   -0.2192 C   0  0  0  0  0  0  0  0  0  0  0  0
    2.6843    0.3533   -0.0508 C   0  0  0  0  0  0  0  0  0  0  0  0
    1.3352    0.6031    0.2008 C   0  0  0  0  0  0  0  0  0  0  0  0
    0.9076    1.9991    0.4710 C   0  0  0  0  0  0  0  0  0  0  0  0
   -0.2072    2.2988    1.2538 C   0  0  0  0  0  0  0  0  0  0  0  0
   -0.5872    3.6010    1.4874 C   0  0  0  0  0  0  0  0  0  0  0  0
    0.1538    4.6397    0.9646 C   0  0  0  0  0  0  0  0  0  0  0  0
    1.2902    4.3708    0.2299 C   0  0  0  0  0  0  0  0  0  0  0  0
    1.6843    3.0654   -0.0110 C   0  0  0  0  0  0  0  0  0  0  0  0
    2.9872    2.7583   -0.6905 C   0  0  0  0  0  0  0  0  0  0  0  0
    3.6326    1.5245   -0.0345 C   0  0  0  0  0  0  0  0  0  0  0  0
    4.4675   -1.3796   -0.6025 C   0  0  0  0  0  0  0  0  0  0  0  0
    5.2217   -0.6814   -1.5462 C   0  0  0  0  0  0  0  0  0  0  0  0
    6.4945   -1.0899   -1.8782 C   0  0  0  0  0  0  0  0  0  0  0  0
    7.0300   -2.2235   -1.3029 C   0  0  0  0  0  0  0  0  0  0  0  0
    6.2726   -2.9706   -0.4242 C   0  0  0  0  0  0  0  0  0  0  0  0
    4.9901   -2.5747   -0.0831 C   0  0  0  0  0  0  0  0  0  0  0  0
    4.0905   -3.4558    0.7357 C   0  0  0  0  0  0  0  0  0  0  0  0
    2.6480   -3.4017    0.1930 C   0  0  0  0  0  0  0  0  0  0  0  0
   -1.8547   -1.1212    0.9380 C   0  0  0  0  0  0  0  0  0  0  0  0
   -3.2181   -0.9743    0.9036 C   0  0  0  0  0  0  0  0  0  0  0  0
   -5.1449    0.5630   -2.6407 H   0  0  0  0  0  0  0  0  0  0  0  0
   -6.5133    1.6715   -2.7424 H   0  0  0  0  0  0  0  0  0  0  0  0
   -6.7592   -0.0034   -2.2547 H   0  0  0  0  0  0  0  0  0  0  0  0
   -6.8225    1.4731   -0.2332 H   0  0  0  0  0  0  0  0  0  0  0  0
   -5.2634    2.1296   -0.6192 H   0  0  0  0  0  0  0  0  0  0  0  0
   -5.8036   -0.9191    1.7666 H   0  0  0  0  0  0  0  0  0  0  0  0
   -7.1257   -0.3511    0.7918 H   0  0  0  0  0  0  0  0  0  0  0  0
   -6.5730   -2.0196   -1.0028 H   0  0  0  0  0  0  0  0  0  0  0  0
   -5.2164   -2.6009   -0.0588 H   0  0  0  0  0  0  0  0  0  0  0  0
   -6.8612   -2.8423    0.5289 H   0  0  0  0  0  0  0  0  0  0  0  0
   -3.4179    1.5143   -1.3668 H   0  0  0  0  0  0  0  0  0  0  0  0
   -0.9966    1.2430   -1.3018 H   0  0  0  0  0  0  0  0  0  0  0  0
   -0.7759    1.4946    1.6860 H   0  0  0  0  0  0  0  0  0  0  0  0
   -1.4628    3.8085    2.0803 H   0  0  0  0  0  0  0  0  0  0  0  0
   -0.1430    5.6600    1.1462 H   0  0  0  0  0  0  0  0  0  0  0  0
    1.8914    5.1793   -0.1489 H   0  0  0  0  0  0  0  0  0  0  0  0
    2.8022    2.5654   -1.7532 H   0  0  0  0  0  0  0  0  0  0  0  0
    3.6544    3.6276   -0.6457 H   0  0  0  0  0  0  0  0  0  0  0  0
    4.5968    1.2857   -0.4907 H   0  0  0  0  0  0  0  0  0  0  0  0
    3.8672    1.7548    1.0124 H   0  0  0  0  0  0  0  0  0  0  0  0
    4.7788    0.1507   -2.0657 H   0  0  0  0  0  0  0  0  0  0  0  0
    7.0688   -0.5298   -2.5986 H   0  0  0  0  0  0  0  0  0  0  0  0
    8.0262   -2.5422   -1.5628 H   0  0  0  0  0  0  0  0  0  0  0  0
    6.6678   -3.8837   -0.0121 H   0  0  0  0  0  0  0  0  0  0  0  0
    4.1129   -3.1220    1.7793 H   0  0  0  0  0  0  0  0  0  0  0  0
    4.4713   -4.4844    0.7348 H   0  0  0  0  0  0  0  0  0  0  0  0
    1.9602   -3.9552    0.8439 H   0  0  0  0  0  0  0  0  0  0  0  0
    2.5953   -3.8870   -0.7881 H   0  0  0  0  0  0  0  0  0  0  0  0
   -1.4013   -1.8674    1.5674 H   0  0  0  0  0  0  0  0  0  0  0  0
   -3.8296   -1.6034    1.5241 H   0  0  0  0  0  0  0  0  0  0  0  0
  1  2  1  0  0  0  0
  2  3  1  0  0  0  0
  3  4  1  0  0  0  0
  4  5  1  0  0  0  0
  3  6  1  0  0  0  0
  6  7  2  0  0  0  0
  7  8  1  0  0  0  0
  8  9  2  0  0  0  0
  9 10  1  0  0  0  0
 10 11  2  0  0  0  0
 11 12  1  0  0  0  0
 12 13  2  0  0  0  0
 13 14  1  0  0  0  0
 14 15  2  0  0  0  0
 15 16  1  0  0  0  0
 16 17  2  0  0  0  0
 17 18  1  0  0  0  0
 18 19  2  0  0  0  0
 19 20  1  0  0  0  0
 20 21  2  0  0  0  0
 21 22  1  0  0  0  0
 22 23  1  0  0  0  0
 13 24  1  0  0  0  0
 24 25  2  0  0  0  0
 25 26  1  0  0  0  0
 26 27  2  0  0  0  0
 27 28  1  0  0  0  0
 28 29  2  0  0  0  0
 29 30  1  0  0  0  0
 30 31  1  0  0  0  0
  9 32  1  0  0  0  0
 32 33  2  0  0  0  0
 33  6  1  0  0  0  0
 15 10  1  0  0  0  0
 21 16  1  0  0  0  0
 29 24  1  0  0  0  0
 31 12  1  0  0  0  0
 23 14  1  0  0  0  0
  1 34  1  0  0  0  0
  1 35  1  0  0  0  0
  1 36  1  0  0  0  0
  2 37  1  0  0  0  0
  2 38  1  0  0  0  0
  4 39  1  0  0  0  0
  4 40  1  0  0  0  0
  5 41  1  0  0  0  0
  5 42  1  0  0  0  0
  5 43  1  0  0  0  0
  7 44  1  0  0  0  0
  8 45  1  0  0  0  0
 17 46  1  0  0  0  0
 18 47  1  0  0  0  0
 19 48  1  0  0  0  0
 20 49  1  0  0  0  0
 22 50  1  0  0  0  0
 22 51  1  0  0  0  0
 23 52  1  0  0  0  0
 23 53  1  0  0  0  0
 25 54  1  0  0  0  0
 26 55  1  0  0  0  0
 27 56  1  0  0  0  0
 28 57  1  0  0  0  0
 30 58  1  0  0  0  0
 30 59  1  0  0  0  0
 31 60  1  0  0  0  0
 31 61  1  0  0  0  0
 32 62  1  0  0  0  0
 33 63  1  0  0  0  0
M  END
