
  xtb     03012221263D
 energy: -10.226815933762 gnorm: 0.000356276147 xtb: 6.4.1 (afa7bdf)
 48 54  0     0  0            999 V2000
    0.3282    4.8868   -2.5819 F   0  0  0  0  0  0  0  0  0  0  0  0
   -0.3894    4.7684   -1.4488 C   0  0  0  0  0  0  0  0  0  0  0  0
   -1.6664    5.1364   -1.6679 F   0  0  0  0  0  0  0  0  0  0  0  0
    0.1485    5.5202   -0.4699 F   0  0  0  0  0  0  0  0  0  0  0  0
   -0.3720    3.3161   -1.0121 C   0  0  0  0  0  0  0  0  0  0  0  0
   -1.4985    2.5300   -0.8778 C   0  0  0  0  0  0  0  0  0  0  0  0
   -1.0274    1.2697   -0.4629 C   0  0  0  0  0  0  0  0  0  0  0  0
    0.3375    1.4420   -0.3933 N   0  0  0  0  0  0  0  0  0  0  0  0
    0.7633    2.6360   -0.7111 N   0  0  0  0  0  0  0  0  0  0  0  0
    0.9267    0.0912    0.0548 B   0  0  0  0  0  4  0  0  0  0  0  0
    1.6745    0.2126    1.4352 C   0  0  0  0  0  0  0  0  0  0  0  0
    1.3104    1.1446    2.3697 C   0  0  0  0  0  0  0  0  0  0  0  0
    1.9122    1.1481    3.6105 C   0  0  0  0  0  0  0  0  0  0  0  0
    2.8759    0.2055    3.9089 C   0  0  0  0  0  0  0  0  0  0  0  0
    3.2451   -0.7275    2.9685 C   0  0  0  0  0  0  0  0  0  0  0  0
    2.6595   -0.7364    1.7019 C   0  0  0  0  0  0  0  0  0  0  0  0
    3.0860   -1.6735    0.7546 O   0  0  0  0  0  0  0  0  0  0  0  0
    2.8532   -1.4125   -0.6000 C   0  0  0  0  0  0  0  0  0  0  0  0
    3.6261   -2.0590   -1.5656 C   0  0  0  0  0  0  0  0  0  0  0  0
    3.4501   -1.7926   -2.9032 C   0  0  0  0  0  0  0  0  0  0  0  0
    2.4974   -0.8797   -3.3097 C   0  0  0  0  0  0  0  0  0  0  0  0
    1.7120   -0.2440   -2.3711 C   0  0  0  0  0  0  0  0  0  0  0  0
    1.8837   -0.5135   -1.0398 C   0  0  0  0  0  0  0  0  0  0  0  0
   -0.3332   -0.7921    0.2079 N   0  0  0  0  0  4  0  0  0  0  0  0
   -0.4224   -2.0935    0.5866 C   0  0  0  0  0  0  0  0  0  0  0  0
   -1.6354   -2.6995    0.6624 C   0  0  0  0  0  0  0  0  0  0  0  0
   -2.8210   -1.9850    0.3484 C   0  0  0  0  0  0  0  0  0  0  0  0
   -4.0912   -2.5848    0.4172 C   0  0  0  0  0  0  0  0  0  0  0  0
   -5.2164   -1.8748    0.1102 C   0  0  0  0  0  0  0  0  0  0  0  0
   -5.1213   -0.5409   -0.2769 C   0  0  0  0  0  0  0  0  0  0  0  0
   -3.9041    0.0744   -0.3550 C   0  0  0  0  0  0  0  0  0  0  0  0
   -2.7310   -0.6294   -0.0462 C   0  0  0  0  0  0  0  0  0  0  0  0
   -1.4310   -0.0506   -0.1069 C   0  0  0  0  0  0  0  0  0  0  0  0
   -2.5116    2.8423   -1.0598 H   0  0  0  0  0  0  0  0  0  0  0  0
    0.5571    1.8697    2.1164 H   0  0  0  0  0  0  0  0  0  0  0  0
    1.6289    1.8850    4.3453 H   0  0  0  0  0  0  0  0  0  0  0  0
    3.3453    0.2056    4.8782 H   0  0  0  0  0  0  0  0  0  0  0  0
    4.0049   -1.4592    3.1839 H   0  0  0  0  0  0  0  0  0  0  0  0
    4.3748   -2.7583   -1.2348 H   0  0  0  0  0  0  0  0  0  0  0  0
    4.0623   -2.2916   -3.6352 H   0  0  0  0  0  0  0  0  0  0  0  0
    2.3658   -0.6640   -4.3583 H   0  0  0  0  0  0  0  0  0  0  0  0
    0.9640    0.4707   -2.6658 H   0  0  0  0  0  0  0  0  0  0  0  0
    0.4900   -2.6126    0.8190 H   0  0  0  0  0  0  0  0  0  0  0  0
   -1.7102   -3.7307    0.9622 H   0  0  0  0  0  0  0  0  0  0  0  0
   -4.1647   -3.6174    0.7167 H   0  0  0  0  0  0  0  0  0  0  0  0
   -6.1827   -2.3464    0.1670 H   0  0  0  0  0  0  0  0  0  0  0  0
   -6.0174    0.0105   -0.5169 H   0  0  0  0  0  0  0  0  0  0  0  0
   -3.8359    1.1038   -0.6543 H   0  0  0  0  0  0  0  0  0  0  0  0
  1  2  1  0  0  0  0
  2  3  1  0  0  0  0
  2  4  1  0  0  0  0
  2  5  1  0  0  0  0
  5  6  1  0  0  0  0
  6  7  2  0  0  0  0
  7  8  1  0  0  0  0
  8  9  1  0  0  0  0
  8 10  1  0  0  0  0
 10 11  1  0  0  0  0
 11 12  2  0  0  0  0
 12 13  1  0  0  0  0
 13 14  2  0  0  0  0
 14 15  1  0  0  0  0
 15 16  2  0  0  0  0
 16 17  1  0  0  0  0
 17 18  1  0  0  0  0
 18 19  2  0  0  0  0
 19 20  1  0  0  0  0
 20 21  2  0  0  0  0
 21 22  1  0  0  0  0
 22 23  2  0  0  0  0
 10 24  1  0  0  0  0
 24 25  2  0  0  0  0
 25 26  1  0  0  0  0
 26 27  2  0  0  0  0
 27 28  1  0  0  0  0
 28 29  2  0  0  0  0
 29 30  1  0  0  0  0
 30 31  2  0  0  0  0
 31 32  1  0  0  0  0
 32 33  2  0  0  0  0
  9  5  2  0  0  0  0
 23 10  1  0  0  0  0
 33 24  1  0  0  0  0
 33  7  1  0  0  0  0
 16 11  1  0  0  0  0
 23 18  1  0  0  0  0
 32 27  1  0  0  0  0
  6 34  1  0  0  0  0
 12 35  1  0  0  0  0
 13 36  1  0  0  0  0
 14 37  1  0  0  0  0
 15 38  1  0  0  0  0
 19 39  1  0  0  0  0
 20 40  1  0  0  0  0
 21 41  1  0  0  0  0
 22 42  1  0  0  0  0
 25 43  1  0  0  0  0
 26 44  1  0  0  0  0
 28 45  1  0  0  0  0
 29 46  1  0  0  0  0
 30 47  1  0  0  0  0
 31 48  1  0  0  0  0
M  CHG  1  10  -1
M  CHG  1  24   1
M  END
