
  xtb     03012221323D
 energy: -10.351506740030 gnorm: 0.000134639741 xtb: 6.4.1 (afa7bdf)
 46 52  0     0  0            999 V2000
    5.3692    2.1532   -0.5907 C   0  0  0  0  0  0  0  0  0  0  0  0
    5.6248    0.8529   -0.2067 C   0  0  0  0  0  0  0  0  0  0  0  0
    4.5788   -0.0435    0.0222 C   0  0  0  0  0  0  0  0  0  0  0  0
    4.8046   -1.3989    0.4138 C   0  0  0  0  0  0  0  0  0  0  0  0
    3.7730   -2.2503    0.6199 C   0  0  0  0  0  0  0  0  0  0  0  0
    2.4199   -1.8275    0.4582 C   0  0  0  0  0  0  0  0  0  0  0  0
    1.3370   -2.6935    0.6530 C   0  0  0  0  0  0  0  0  0  0  0  0
    0.0468   -2.2543    0.4917 C   0  0  0  0  0  0  0  0  0  0  0  0
   -0.2363   -0.9345    0.1384 C   0  0  0  0  0  0  0  0  0  0  0  0
   -1.5997   -0.5073    0.0018 N   0  0  0  0  0  0  0  0  0  0  0  0
   -2.2409    0.5183    0.7346 C   0  0  0  0  0  0  0  0  0  0  0  0
   -1.7623    1.3492    1.7457 C   0  0  0  0  0  0  0  0  0  0  0  0
   -2.6167    2.2675    2.3060 C   0  0  0  0  0  0  0  0  0  0  0  0
   -3.9430    2.3699    1.8794 C   0  0  0  0  0  0  0  0  0  0  0  0
   -4.4329    1.5516    0.8888 C   0  0  0  0  0  0  0  0  0  0  0  0
   -3.5766    0.6145    0.3113 C   0  0  0  0  0  0  0  0  0  0  0  0
   -3.7758   -0.3859   -0.7130 C   0  0  0  0  0  0  0  0  0  0  0  0
   -4.8850   -0.7358   -1.4826 C   0  0  0  0  0  0  0  0  0  0  0  0
   -4.7556   -1.7498   -2.4023 C   0  0  0  0  0  0  0  0  0  0  0  0
   -3.5406   -2.4193   -2.5684 C   0  0  0  0  0  0  0  0  0  0  0  0
   -2.4403   -2.0857   -1.8163 C   0  0  0  0  0  0  0  0  0  0  0  0
   -2.5566   -1.0635   -0.8771 C   0  0  0  0  0  0  0  0  0  0  0  0
    0.8300   -0.0347   -0.0829 C   0  0  0  0  0  0  0  0  0  0  0  0
    0.6088    1.3098   -0.4972 C   0  0  0  0  0  0  0  0  0  0  0  0
    1.6375    2.1623   -0.7139 C   0  0  0  0  0  0  0  0  0  0  0  0
    2.9915    1.7422   -0.5412 C   0  0  0  0  0  0  0  0  0  0  0  0
    4.0741    2.5977   -0.7581 C   0  0  0  0  0  0  0  0  0  0  0  0
    3.2464    0.4069   -0.1444 C   0  0  0  0  0  0  0  0  0  0  0  0
    2.1607   -0.4876    0.0811 C   0  0  0  0  0  0  0  0  0  0  0  0
    6.1907    2.8288   -0.7638 H   0  0  0  0  0  0  0  0  0  0  0  0
    6.6392    0.5150   -0.0814 H   0  0  0  0  0  0  0  0  0  0  0  0
    5.8191   -1.7355    0.5401 H   0  0  0  0  0  0  0  0  0  0  0  0
    3.9616   -3.2692    0.9113 H   0  0  0  0  0  0  0  0  0  0  0  0
    1.5296   -3.7141    0.9350 H   0  0  0  0  0  0  0  0  0  0  0  0
   -0.7782   -2.9257    0.6543 H   0  0  0  0  0  0  0  0  0  0  0  0
   -0.7411    1.2586    2.0710 H   0  0  0  0  0  0  0  0  0  0  0  0
   -2.2596    2.9177    3.0877 H   0  0  0  0  0  0  0  0  0  0  0  0
   -4.5921    3.0985    2.3367 H   0  0  0  0  0  0  0  0  0  0  0  0
   -5.4546    1.6195    0.5590 H   0  0  0  0  0  0  0  0  0  0  0  0
   -5.8159   -0.2130   -1.3508 H   0  0  0  0  0  0  0  0  0  0  0  0
   -5.6025   -2.0315   -3.0061 H   0  0  0  0  0  0  0  0  0  0  0  0
   -3.4655   -3.2077   -3.2993 H   0  0  0  0  0  0  0  0  0  0  0  0
   -1.4986   -2.5898   -1.9419 H   0  0  0  0  0  0  0  0  0  0  0  0
   -0.4048    1.6364   -0.6447 H   0  0  0  0  0  0  0  0  0  0  0  0
    1.4473    3.1745   -1.0257 H   0  0  0  0  0  0  0  0  0  0  0  0
    3.8850    3.6132   -1.0612 H   0  0  0  0  0  0  0  0  0  0  0  0
  1  2  2  0  0  0  0
  2  3  1  0  0  0  0
  3  4  2  0  0  0  0
  4  5  1  0  0  0  0
  5  6  2  0  0  0  0
  6  7  1  0  0  0  0
  7  8  2  0  0  0  0
  8  9  1  0  0  0  0
  9 10  1  0  0  0  0
 10 11  1  0  0  0  0
 11 12  2  0  0  0  0
 12 13  1  0  0  0  0
 13 14  2  0  0  0  0
 14 15  1  0  0  0  0
 15 16  2  0  0  0  0
 16 17  1  0  0  0  0
 17 18  2  0  0  0  0
 18 19  1  0  0  0  0
 19 20  2  0  0  0  0
 20 21  1  0  0  0  0
 21 22  2  0  0  0  0
  9 23  2  0  0  0  0
 23 24  1  0  0  0  0
 24 25  2  0  0  0  0
 25 26  1  0  0  0  0
 26 27  2  0  0  0  0
 26 28  1  0  0  0  0
 28 29  2  0  0  0  0
 27  1  1  0  0  0  0
 28  3  1  0  0  0  0
 29  6  1  0  0  0  0
 22 10  1  0  0  0  0
 29 23  1  0  0  0  0
 16 11  1  0  0  0  0
 22 17  1  0  0  0  0
  1 30  1  0  0  0  0
  2 31  1  0  0  0  0
  4 32  1  0  0  0  0
  5 33  1  0  0  0  0
  7 34  1  0  0  0  0
  8 35  1  0  0  0  0
 12 36  1  0  0  0  0
 13 37  1  0  0  0  0
 14 38  1  0  0  0  0
 15 39  1  0  0  0  0
 18 40  1  0  0  0  0
 19 41  1  0  0  0  0
 20 42  1  0  0  0  0
 21 43  1  0  0  0  0
 24 44  1  0  0  0  0
 25 45  1  0  0  0  0
 27 46  1  0  0  0  0
M  END
