
  xtb     03012221223D
 energy: -10.934719829774 gnorm: 0.000232586753 xtb: 6.4.1 (afa7bdf)
 53 56  0     0  0            999 V2000
   10.5891    0.4896    0.0513 C   0  0  0  0  0  0  0  0  0  0  0  0
    9.7466   -0.3987    0.9038 C   0  0  0  0  0  0  0  0  0  0  0  0
   10.2671   -1.1331    1.7126 O   0  0  0  0  0  0  0  0  0  0  0  0
    8.2782   -0.3751    0.7540 C   0  0  0  0  0  0  0  0  0  0  0  0
    7.6271    0.4552   -0.1541 C   0  0  0  0  0  0  0  0  0  0  0  0
    6.2547    0.4407   -0.2560 C   0  0  0  0  0  0  0  0  0  0  0  0
    5.4869   -0.4010    0.5432 C   0  0  0  0  0  0  0  0  0  0  0  0
    4.0820   -0.4128    0.4345 C   0  0  0  0  0  0  0  0  0  0  0  0
    2.8645   -0.4158    0.3325 C   0  0  0  0  0  0  0  0  0  0  0  0
    1.4611   -0.4135    0.2039 C   0  0  0  0  0  0  0  0  0  0  0  0
    0.8518   -0.9561   -0.9220 C   0  0  0  0  0  0  0  0  0  0  0  0
   -0.5187   -0.9494   -1.0533 C   0  0  0  0  0  0  0  0  0  0  0  0
   -1.3305   -0.3989   -0.0624 C   0  0  0  0  0  0  0  0  0  0  0  0
   -2.8033   -0.3816   -0.2061 C   0  0  0  0  0  0  0  0  0  0  0  0
   -3.5423    0.7383    0.2038 C   0  0  0  0  0  0  0  0  0  0  0  0
   -4.9175    0.8164    0.0695 C   0  0  0  0  0  0  0  0  0  0  0  0
   -5.5902    2.0142    0.4084 N   0  0  0  0  0  0  0  0  0  0  0  0
   -6.5905    2.6218   -0.4771 C   0  0  0  0  0  0  0  0  0  0  0  0
   -5.0300    2.9380    1.3933 C   0  0  0  0  0  0  0  0  0  0  0  0
   -5.6190   -0.3259   -0.4522 C   0  0  0  0  0  0  0  0  0  0  0  0
   -7.0237   -0.3945   -0.5020 C   0  0  0  0  0  0  0  0  0  0  0  0
   -7.6603   -1.4917   -1.0085 C   0  0  0  0  0  0  0  0  0  0  0  0
   -6.9252   -2.5823   -1.4785 C   0  0  0  0  0  0  0  0  0  0  0  0
   -5.5642   -2.5697   -1.4144 C   0  0  0  0  0  0  0  0  0  0  0  0
   -4.8762   -1.4529   -0.8868 C   0  0  0  0  0  0  0  0  0  0  0  0
   -3.4744   -1.4524   -0.7581 C   0  0  0  0  0  0  0  0  0  0  0  0
   -0.7150    0.1423    1.0656 C   0  0  0  0  0  0  0  0  0  0  0  0
    0.6556    0.1345    1.1959 C   0  0  0  0  0  0  0  0  0  0  0  0
    6.1402   -1.2298    1.4499 C   0  0  0  0  0  0  0  0  0  0  0  0
    7.5124   -1.2148    1.5513 C   0  0  0  0  0  0  0  0  0  0  0  0
   10.3550    1.5395    0.2264 H   0  0  0  0  0  0  0  0  0  0  0  0
   11.6415    0.3365    0.2876 H   0  0  0  0  0  0  0  0  0  0  0  0
   10.4469    0.2694   -1.0065 H   0  0  0  0  0  0  0  0  0  0  0  0
    8.2031    1.1130   -0.7807 H   0  0  0  0  0  0  0  0  0  0  0  0
    5.7562    1.0848   -0.9601 H   0  0  0  0  0  0  0  0  0  0  0  0
    1.4696   -1.3800   -1.6942 H   0  0  0  0  0  0  0  0  0  0  0  0
   -0.9761   -1.3577   -1.9377 H   0  0  0  0  0  0  0  0  0  0  0  0
   -3.0088    1.5884    0.5849 H   0  0  0  0  0  0  0  0  0  0  0  0
   -7.5560    2.6734    0.0220 H   0  0  0  0  0  0  0  0  0  0  0  0
   -6.2865    3.6314   -0.7465 H   0  0  0  0  0  0  0  0  0  0  0  0
   -6.6898    2.0465   -1.3952 H   0  0  0  0  0  0  0  0  0  0  0  0
   -4.2789    3.5745    0.9299 H   0  0  0  0  0  0  0  0  0  0  0  0
   -5.8148    3.5681    1.8070 H   0  0  0  0  0  0  0  0  0  0  0  0
   -4.5722    2.3835    2.2100 H   0  0  0  0  0  0  0  0  0  0  0  0
   -7.6020    0.4164   -0.0994 H   0  0  0  0  0  0  0  0  0  0  0  0
   -8.7373   -1.5227   -1.0393 H   0  0  0  0  0  0  0  0  0  0  0  0
   -7.4389   -3.4407   -1.8788 H   0  0  0  0  0  0  0  0  0  0  0  0
   -4.9956   -3.4168   -1.7577 H   0  0  0  0  0  0  0  0  0  0  0  0
   -2.9214   -2.3195   -1.0699 H   0  0  0  0  0  0  0  0  0  0  0  0
   -1.3272    0.5579    1.8469 H   0  0  0  0  0  0  0  0  0  0  0  0
    1.1211    0.5538    2.0707 H   0  0  0  0  0  0  0  0  0  0  0  0
    5.5560   -1.8854    2.0727 H   0  0  0  0  0  0  0  0  0  0  0  0
    8.0201   -1.8552    2.2522 H   0  0  0  0  0  0  0  0  0  0  0  0
  1  2  1  0  0  0  0
  2  3  2  0  0  0  0
  2  4  1  0  0  0  0
  4  5  2  0  0  0  0
  5  6  1  0  0  0  0
  6  7  2  0  0  0  0
  7  8  1  0  0  0  0
  8  9  3  0  0  0  0
  9 10  1  0  0  0  0
 10 11  2  0  0  0  0
 11 12  1  0  0  0  0
 12 13  2  0  0  0  0
 13 14  1  0  0  0  0
 14 15  2  0  0  0  0
 15 16  1  0  0  0  0
 16 17  1  0  0  0  0
 17 18  1  0  0  0  0
 17 19  1  0  0  0  0
 16 20  2  0  0  0  0
 20 21  1  0  0  0  0
 21 22  2  0  0  0  0
 22 23  1  0  0  0  0
 23 24  2  0  0  0  0
 24 25  1  0  0  0  0
 25 26  2  0  0  0  0
 13 27  1  0  0  0  0
 27 28  2  0  0  0  0
  7 29  1  0  0  0  0
 29 30  2  0  0  0  0
 30  4  1  0  0  0  0
 28 10  1  0  0  0  0
 26 14  1  0  0  0  0
 25 20  1  0  0  0  0
  1 31  1  0  0  0  0
  1 32  1  0  0  0  0
  1 33  1  0  0  0  0
  5 34  1  0  0  0  0
  6 35  1  0  0  0  0
 11 36  1  0  0  0  0
 12 37  1  0  0  0  0
 15 38  1  0  0  0  0
 18 39  1  0  0  0  0
 18 40  1  0  0  0  0
 18 41  1  0  0  0  0
 19 42  1  0  0  0  0
 19 43  1  0  0  0  0
 19 44  1  0  0  0  0
 21 45  1  0  0  0  0
 22 46  1  0  0  0  0
 23 47  1  0  0  0  0
 24 48  1  0  0  0  0
 26 49  1  0  0  0  0
 27 50  1  0  0  0  0
 28 51  1  0  0  0  0
 29 52  1  0  0  0  0
 30 53  1  0  0  0  0
M  END
