
  xtb     03012221213D
 energy: -8.289119117310 gnorm: 0.000231866628 xtb: 6.4.1 (afa7bdf)
 42 44  0     0  0            999 V2000
   -3.9219   -2.3278    0.6721 C   0  0  0  0  0  0  0  0  0  0  0  0
   -2.8839   -3.0272   -0.1795 C   0  0  0  0  0  0  0  0  0  0  0  0
   -1.6373   -2.3703   -0.1620 O   0  0  0  0  0  0  0  0  0  0  0  0
   -1.6991   -1.2075   -0.8895 C   0  0  0  0  0  0  0  0  0  0  0  0
   -2.6997   -0.8231   -1.4750 O   0  0  0  0  0  0  0  0  0  0  0  0
   -0.4705   -0.4126   -0.9361 C   0  0  0  0  0  0  0  0  0  0  0  0
    0.6451   -0.8645   -0.3357 C   0  0  0  0  0  0  0  0  0  0  0  0
    1.8593   -0.1834   -0.3934 N   0  0  0  0  0  0  0  0  0  0  0  0
    3.0161   -0.6722    0.3036 C   0  0  0  0  0  0  0  0  0  0  0  0
    3.9270    0.2142    0.8718 C   0  0  0  0  0  0  0  0  0  0  0  0
    5.0374   -0.2510    1.5391 C   0  0  0  0  0  0  0  0  0  0  0  0
    5.2598   -1.6084    1.6509 C   0  0  0  0  0  0  0  0  0  0  0  0
    4.3670   -2.5005    1.0925 C   0  0  0  0  0  0  0  0  0  0  0  0
    3.2551   -2.0386    0.4253 C   0  0  0  0  0  0  0  0  0  0  0  0
    1.9619    0.9469   -1.2389 C   0  0  0  0  0  0  0  0  0  0  0  0
    0.9018    1.4642   -1.8513 C   0  0  0  0  0  0  0  0  0  0  0  0
   -0.4875    0.9384   -1.6086 C   0  0  0  0  0  0  0  0  0  0  0  0
   -1.3134    1.9200   -0.8009 C   0  0  0  0  0  0  0  0  0  0  0  0
   -0.7940    2.4872    0.3514 C   0  0  0  0  0  0  0  0  0  0  0  0
   -1.5483    3.3562    1.1111 C   0  0  0  0  0  0  0  0  0  0  0  0
   -2.8386    3.6605    0.7320 C   0  0  0  0  0  0  0  0  0  0  0  0
   -3.3743    3.0882   -0.4025 C   0  0  0  0  0  0  0  0  0  0  0  0
   -2.6179    2.2202   -1.1619 C   0  0  0  0  0  0  0  0  0  0  0  0
   -3.5870   -2.2558    1.7070 H   0  0  0  0  0  0  0  0  0  0  0  0
   -4.0799   -1.3106    0.3117 H   0  0  0  0  0  0  0  0  0  0  0  0
   -4.8831   -2.8443    0.6594 H   0  0  0  0  0  0  0  0  0  0  0  0
   -3.2005   -3.0900   -1.2297 H   0  0  0  0  0  0  0  0  0  0  0  0
   -2.7098   -4.0549    0.1649 H   0  0  0  0  0  0  0  0  0  0  0  0
    0.6024   -1.7923    0.2027 H   0  0  0  0  0  0  0  0  0  0  0  0
    3.7427    1.2714    0.7974 H   0  0  0  0  0  0  0  0  0  0  0  0
    5.7334    0.4458    1.9766 H   0  0  0  0  0  0  0  0  0  0  0  0
    6.1308   -1.9718    2.1732 H   0  0  0  0  0  0  0  0  0  0  0  0
    4.5424   -3.5605    1.1760 H   0  0  0  0  0  0  0  0  0  0  0  0
    2.5719   -2.7335   -0.0296 H   0  0  0  0  0  0  0  0  0  0  0  0
    2.9433    1.3532   -1.4049 H   0  0  0  0  0  0  0  0  0  0  0  0
    1.0177    2.3187   -2.4969 H   0  0  0  0  0  0  0  0  0  0  0  0
   -0.9802    0.8021   -2.5845 H   0  0  0  0  0  0  0  0  0  0  0  0
    0.2062    2.2289    0.6515 H   0  0  0  0  0  0  0  0  0  0  0  0
   -1.1308    3.7929    2.0036 H   0  0  0  0  0  0  0  0  0  0  0  0
   -3.4302    4.3378    1.3257 H   0  0  0  0  0  0  0  0  0  0  0  0
   -4.3879    3.3125   -0.6922 H   0  0  0  0  0  0  0  0  0  0  0  0
   -3.0451    1.7417   -2.0262 H   0  0  0  0  0  0  0  0  0  0  0  0
  1  2  1  0  0  0  0
  2  3  1  0  0  0  0
  3  4  1  0  0  0  0
  4  5  2  0  0  0  0
  4  6  1  0  0  0  0
  6  7  2  0  0  0  0
  7  8  1  0  0  0  0
  8  9  1  0  0  0  0
  9 10  2  0  0  0  0
 10 11  1  0  0  0  0
 11 12  2  0  0  0  0
 12 13  1  0  0  0  0
 13 14  2  0  0  0  0
  8 15  1  0  0  0  0
 15 16  2  0  0  0  0
 16 17  1  0  0  0  0
 17 18  1  0  0  0  0
 18 19  2  0  0  0  0
 19 20  1  0  0  0  0
 20 21  2  0  0  0  0
 21 22  1  0  0  0  0
 22 23  2  0  0  0  0
 17  6  1  0  0  0  0
 23 18  1  0  0  0  0
 14  9  1  0  0  0  0
  1 24  1  0  0  0  0
  1 25  1  0  0  0  0
  1 26  1  0  0  0  0
  2 27  1  0  0  0  0
  2 28  1  0  0  0  0
  7 29  1  0  0  0  0
 10 30  1  0  0  0  0
 11 31  1  0  0  0  0
 12 32  1  0  0  0  0
 13 33  1  0  0  0  0
 14 34  1  0  0  0  0
 15 35  1  0  0  0  0
 16 36  1  0  0  0  0
 17 37  1  0  0  0  0
 19 38  1  0  0  0  0
 20 39  1  0  0  0  0
 21 40  1  0  0  0  0
 22 41  1  0  0  0  0
 23 42  1  0  0  0  0
M  END
