
  xtb     03012221253D
 energy: -12.983225878101 gnorm: 0.000316308057 xtb: 6.4.1 (afa7bdf)
 61 67  0     0  0            999 V2000
   -0.2281   -2.2751    1.2326 F   0  0  0  0  0  0  0  0  0  0  0  0
   -0.2455   -1.5406    0.0497 B   0  0  0  0  0  4  0  0  0  0  0  0
   -0.5051   -2.3359   -1.0652 F   0  0  0  0  0  0  0  0  0  0  0  0
    1.1418   -0.8987   -0.1504 N   0  0  0  0  0  0  0  0  0  0  0  0
    2.3686   -1.5068   -0.1209 C   0  0  0  0  0  0  0  0  0  0  0  0
    2.6761   -2.9017    0.1624 C   0  0  0  0  0  0  0  0  0  0  0  0
    3.9664   -3.2936    0.5290 C   0  0  0  0  0  0  0  0  0  0  0  0
    4.2542   -4.6126    0.7970 C   0  0  0  0  0  0  0  0  0  0  0  0
    3.2660   -5.5726    0.7039 C   0  0  0  0  0  0  0  0  0  0  0  0
    1.9860   -5.2074    0.3385 C   0  0  0  0  0  0  0  0  0  0  0  0
    1.6976   -3.8904    0.0693 C   0  0  0  0  0  0  0  0  0  0  0  0
    3.3080   -0.4983   -0.4106 C   0  0  0  0  0  0  0  0  0  0  0  0
    2.6484    0.7043   -0.6383 C   0  0  0  0  0  0  0  0  0  0  0  0
    3.2791    1.9740   -0.9983 C   0  0  0  0  0  0  0  0  0  0  0  0
    2.6156    2.9202   -1.7852 C   0  0  0  0  0  0  0  0  0  0  0  0
    3.2195    4.1099   -2.1191 C   0  0  0  0  0  0  0  0  0  0  0  0
    4.4999    4.3838   -1.6823 C   0  0  0  0  0  0  0  0  0  0  0  0
    5.1791    3.4585   -0.9154 C   0  0  0  0  0  0  0  0  0  0  0  0
    4.5805    2.2664   -0.5798 C   0  0  0  0  0  0  0  0  0  0  0  0
    1.2424    0.4475   -0.4399 C   0  0  0  0  0  0  0  0  0  0  0  0
    0.1756    1.3240   -0.4034 C   0  0  0  0  0  0  0  0  0  0  0  0
   -1.0772    0.8482   -0.0697 C   0  0  0  0  0  0  0  0  0  0  0  0
   -2.3234    1.5540    0.1018 C   0  0  0  0  0  0  0  0  0  0  0  0
   -2.5562    2.9961    0.0096 C   0  0  0  0  0  0  0  0  0  0  0  0
   -1.5743    3.9208    0.3778 C   0  0  0  0  0  0  0  0  0  0  0  0
   -1.8103    5.2732    0.2924 C   0  0  0  0  0  0  0  0  0  0  0  0
   -3.0306    5.7372   -0.1556 C   0  0  0  0  0  0  0  0  0  0  0  0
   -4.0197    4.8424   -0.5112 C   0  0  0  0  0  0  0  0  0  0  0  0
   -3.7897    3.4889   -0.4265 C   0  0  0  0  0  0  0  0  0  0  0  0
   -3.2848    0.5957    0.4004 C   0  0  0  0  0  0  0  0  0  0  0  0
   -2.6887   -0.6795    0.4431 C   0  0  0  0  0  0  0  0  0  0  0  0
   -3.3718   -1.9243    0.7670 C   0  0  0  0  0  0  0  0  0  0  0  0
   -4.6431   -1.9153    1.3481 C   0  0  0  0  0  0  0  0  0  0  0  0
   -5.2875   -3.0912    1.6579 C   0  0  0  0  0  0  0  0  0  0  0  0
   -4.6837   -4.3049    1.3959 C   0  0  0  0  0  0  0  0  0  0  0  0
   -3.4301   -4.3371    0.8195 C   0  0  0  0  0  0  0  0  0  0  0  0
   -2.7862   -3.1629    0.5083 C   0  0  0  0  0  0  0  0  0  0  0  0
   -1.3637   -0.4842    0.1543 N   0  0  0  0  0  4  0  0  0  0  0  0
    4.7374   -2.5490    0.6166 H   0  0  0  0  0  0  0  0  0  0  0  0
    5.2533   -4.8972    1.0836 H   0  0  0  0  0  0  0  0  0  0  0  0
    3.4933   -6.6043    0.9164 H   0  0  0  0  0  0  0  0  0  0  0  0
    1.2122   -5.9538    0.2643 H   0  0  0  0  0  0  0  0  0  0  0  0
    0.7066   -3.6020   -0.2255 H   0  0  0  0  0  0  0  0  0  0  0  0
    4.3699   -0.6435   -0.4959 H   0  0  0  0  0  0  0  0  0  0  0  0
    1.6374    2.6914   -2.1688 H   0  0  0  0  0  0  0  0  0  0  0  0
    2.6948    4.8268   -2.7290 H   0  0  0  0  0  0  0  0  0  0  0  0
    4.9716    5.3179   -1.9450 H   0  0  0  0  0  0  0  0  0  0  0  0
    6.1800    3.6715   -0.5781 H   0  0  0  0  0  0  0  0  0  0  0  0
    5.1077    1.5510    0.0268 H   0  0  0  0  0  0  0  0  0  0  0  0
    0.3264    2.3682   -0.5888 H   0  0  0  0  0  0  0  0  0  0  0  0
   -0.6410    3.5662    0.7766 H   0  0  0  0  0  0  0  0  0  0  0  0
   -1.0435    5.9722    0.5832 H   0  0  0  0  0  0  0  0  0  0  0  0
   -3.2134    6.7984   -0.2218 H   0  0  0  0  0  0  0  0  0  0  0  0
   -4.9737    5.2053   -0.8566 H   0  0  0  0  0  0  0  0  0  0  0  0
   -4.5583    2.7928   -0.7138 H   0  0  0  0  0  0  0  0  0  0  0  0
   -4.3219    0.8066    0.5896 H   0  0  0  0  0  0  0  0  0  0  0  0
   -5.1153   -0.9746    1.5681 H   0  0  0  0  0  0  0  0  0  0  0  0
   -6.2657   -3.0651    2.1096 H   0  0  0  0  0  0  0  0  0  0  0  0
   -5.1896   -5.2243    1.6409 H   0  0  0  0  0  0  0  0  0  0  0  0
   -2.9558   -5.2823    0.6120 H   0  0  0  0  0  0  0  0  0  0  0  0
   -1.8170   -3.1850    0.0491 H   0  0  0  0  0  0  0  0  0  0  0  0
  1  2  1  0  0  0  0
  2  3  1  0  0  0  0
  2  4  1  0  0  0  0
  4  5  1  0  0  0  0
  5  6  1  0  0  0  0
  6  7  2  0  0  0  0
  7  8  1  0  0  0  0
  8  9  2  0  0  0  0
  9 10  1  0  0  0  0
 10 11  2  0  0  0  0
  5 12  2  0  0  0  0
 12 13  1  0  0  0  0
 13 14  1  0  0  0  0
 14 15  2  0  0  0  0
 15 16  1  0  0  0  0
 16 17  2  0  0  0  0
 17 18  1  0  0  0  0
 18 19  2  0  0  0  0
 13 20  2  0  0  0  0
 20 21  1  0  0  0  0
 21 22  2  0  0  0  0
 22 23  1  0  0  0  0
 23 24  1  0  0  0  0
 24 25  2  0  0  0  0
 25 26  1  0  0  0  0
 26 27  2  0  0  0  0
 27 28  1  0  0  0  0
 28 29  2  0  0  0  0
 23 30  2  0  0  0  0
 30 31  1  0  0  0  0
 31 32  1  0  0  0  0
 32 33  2  0  0  0  0
 33 34  1  0  0  0  0
 34 35  2  0  0  0  0
 35 36  1  0  0  0  0
 36 37  2  0  0  0  0
 31 38  2  0  0  0  0
 38  2  1  0  0  0  0
 20  4  1  0  0  0  0
 38 22  1  0  0  0  0
 11  6  1  0  0  0  0
 19 14  1  0  0  0  0
 29 24  1  0  0  0  0
 37 32  1  0  0  0  0
  7 39  1  0  0  0  0
  8 40  1  0  0  0  0
  9 41  1  0  0  0  0
 10 42  1  0  0  0  0
 11 43  1  0  0  0  0
 12 44  1  0  0  0  0
 15 45  1  0  0  0  0
 16 46  1  0  0  0  0
 17 47  1  0  0  0  0
 18 48  1  0  0  0  0
 19 49  1  0  0  0  0
 21 50  1  0  0  0  0
 25 51  1  0  0  0  0
 26 52  1  0  0  0  0
 27 53  1  0  0  0  0
 28 54  1  0  0  0  0
 29 55  1  0  0  0  0
 30 56  1  0  0  0  0
 33 57  1  0  0  0  0
 34 58  1  0  0  0  0
 35 59  1  0  0  0  0
 36 60  1  0  0  0  0
 37 61  1  0  0  0  0
M  CHG  1   2  -1
M  CHG  1  38   1
M  END
