
  xtb     03012221243D
 energy: -9.395076530246 gnorm: 0.000284069145 xtb: 6.4.1 (afa7bdf)
 46 49  0     0  0            999 V2000
   -0.2876    6.0941   -0.7862 C   0  0  0  0  0  0  0  0  0  0  0  0
    0.5263    4.8303   -0.9593 C   0  0  0  0  0  0  0  0  0  0  0  0
   -0.1946    3.6803   -0.5961 O   0  0  0  0  0  0  0  0  0  0  0  0
    0.5741    2.5656   -0.8182 C   0  0  0  0  0  0  0  0  0  0  0  0
    1.7176    2.6285   -1.2531 O   0  0  0  0  0  0  0  0  0  0  0  0
   -0.0125    1.2833   -0.5138 C   0  0  0  0  0  0  0  0  0  0  0  0
   -1.3160    1.1166   -0.0549 C   0  0  0  0  0  0  0  0  0  0  0  0
   -2.2183    2.0774    0.2484 N   0  0  0  0  0  0  0  0  0  0  0  0
   -1.6297   -0.2389   -0.0225 N   0  0  0  0  0  0  0  0  0  0  0  0
   -2.8670   -0.8338    0.1992 C   0  0  0  0  0  0  0  0  0  0  0  0
   -3.8257   -0.1900    0.5914 O   0  0  0  0  0  0  0  0  0  0  0  0
   -2.9601   -2.2624   -0.1021 C   0  0  0  0  0  0  0  0  0  0  0  0
   -4.1490   -2.9389    0.1311 C   0  0  0  0  0  0  0  0  0  0  0  0
   -4.2685   -4.2719   -0.1775 C   0  0  0  0  0  0  0  0  0  0  0  0
   -3.2007   -4.9538   -0.7320 C   0  0  0  0  0  0  0  0  0  0  0  0
   -2.0167   -4.2990   -0.9723 C   0  0  0  0  0  0  0  0  0  0  0  0
   -1.8734   -2.9541   -0.6625 C   0  0  0  0  0  0  0  0  0  0  0  0
   -0.5957   -2.2849   -0.9135 C   0  0  0  0  0  0  0  0  0  0  0  0
    0.3254   -2.8582   -1.4779 O   0  0  0  0  0  0  0  0  0  0  0  0
   -0.4682   -0.9858   -0.4506 N   0  0  0  0  0  0  0  0  0  0  0  0
    0.6504   -0.0740   -0.7454 C   0  0  0  0  0  0  0  0  0  0  0  0
    1.8557   -0.3652    0.1227 C   0  0  0  0  0  0  0  0  0  0  0  0
    2.6967    0.6394    0.5764 C   0  0  0  0  0  0  0  0  0  0  0  0
    3.7736    0.3537    1.3835 C   0  0  0  0  0  0  0  0  0  0  0  0
    4.0449   -0.9498    1.7410 C   0  0  0  0  0  0  0  0  0  0  0  0
    5.1878   -1.2553    2.6028 N   0  0  0  0  0  4  0  0  0  0  0  0
    5.4249   -2.4425    2.8678 O   0  0  0  0  0  0  0  0  0  0  0  0
    5.8696   -0.3137    3.0324 O   0  0  0  0  0  1  0  0  0  0  0  0
    3.2428   -1.9649    1.2651 C   0  0  0  0  0  0  0  0  0  0  0  0
    2.1666   -1.6729    0.4598 C   0  0  0  0  0  0  0  0  0  0  0  0
   -1.1924    6.0529   -1.3939 H   0  0  0  0  0  0  0  0  0  0  0  0
    0.2722    6.9867   -1.0716 H   0  0  0  0  0  0  0  0  0  0  0  0
   -0.6018    6.2086    0.2519 H   0  0  0  0  0  0  0  0  0  0  0  0
    1.4377    4.8453   -0.3457 H   0  0  0  0  0  0  0  0  0  0  0  0
    0.8456    4.6911   -2.0019 H   0  0  0  0  0  0  0  0  0  0  0  0
   -3.1697    1.8280    0.5000 H   0  0  0  0  0  0  0  0  0  0  0  0
   -2.0382    3.0699    0.1311 H   0  0  0  0  0  0  0  0  0  0  0  0
   -4.9746   -2.3908    0.5528 H   0  0  0  0  0  0  0  0  0  0  0  0
   -5.1982   -4.7867    0.0092 H   0  0  0  0  0  0  0  0  0  0  0  0
   -3.2975   -5.9991   -0.9764 H   0  0  0  0  0  0  0  0  0  0  0  0
   -1.1770   -4.8157   -1.4060 H   0  0  0  0  0  0  0  0  0  0  0  0
    0.9204   -0.1852   -1.8040 H   0  0  0  0  0  0  0  0  0  0  0  0
    2.5246    1.6492    0.2543 H   0  0  0  0  0  0  0  0  0  0  0  0
    4.4251    1.1347    1.7390 H   0  0  0  0  0  0  0  0  0  0  0  0
    3.4815   -2.9820    1.5281 H   0  0  0  0  0  0  0  0  0  0  0  0
    1.5693   -2.4663    0.0497 H   0  0  0  0  0  0  0  0  0  0  0  0
  1  2  1  0  0  0  0
  2  3  1  0  0  0  0
  3  4  1  0  0  0  0
  4  5  2  0  0  0  0
  4  6  1  0  0  0  0
  6  7  2  0  0  0  0
  7  8  1  0  0  0  0
  7  9  1  0  0  0  0
  9 10  1  0  0  0  0
 10 11  2  0  0  0  0
 10 12  1  0  0  0  0
 12 13  2  0  0  0  0
 13 14  1  0  0  0  0
 14 15  2  0  0  0  0
 15 16  1  0  0  0  0
 16 17  2  0  0  0  0
 17 18  1  0  0  0  0
 18 19  2  0  0  0  0
 18 20  1  0  0  0  0
 20 21  1  0  0  0  0
 21 22  1  0  0  0  0
 22 23  2  0  0  0  0
 23 24  1  0  0  0  0
 24 25  2  0  0  0  0
 25 26  1  0  0  0  0
 26 27  2  0  0  0  0
 26 28  1  0  0  0  0
 25 29  1  0  0  0  0
 29 30  2  0  0  0  0
 21  6  1  0  0  0  0
 30 22  1  0  0  0  0
 20  9  1  0  0  0  0
 17 12  1  0  0  0  0
  1 31  1  0  0  0  0
  1 32  1  0  0  0  0
  1 33  1  0  0  0  0
  2 34  1  0  0  0  0
  2 35  1  0  0  0  0
  8 36  1  0  0  0  0
  8 37  1  0  0  0  0
 13 38  1  0  0  0  0
 14 39  1  0  0  0  0
 15 40  1  0  0  0  0
 16 41  1  0  0  0  0
 21 42  1  0  0  0  0
 23 43  1  0  0  0  0
 24 44  1  0  0  0  0
 29 45  1  0  0  0  0
 30 46  1  0  0  0  0
M  CHG  1  26   1
M  CHG  1  28  -1
M  END
