
  xtb     03012221313D
 energy: -8.539400970946 gnorm: 0.000356450824 xtb: 6.4.1 (afa7bdf)
 42 46  0     0  0            999 V2000
    2.5195   -1.5779    2.7994 F   0  0  0  0  0  0  0  0  0  0  0  0
    2.4717   -2.3056    1.6164 B   0  0  0  0  0  4  0  0  0  0  0  0
    2.6081   -3.6600    1.8742 F   0  0  0  0  0  0  0  0  0  0  0  0
    1.1797   -2.0352    0.9777 O   0  0  0  0  0  0  0  0  0  0  0  0
    1.0244   -0.8074    0.4166 C   0  0  0  0  0  0  0  0  0  0  0  0
   -0.3298   -0.3417    0.2179 C   0  0  0  0  0  0  0  0  0  0  0  0
   -0.6465    0.8872   -0.3970 C   0  0  0  0  0  0  0  0  0  0  0  0
   -1.9484    1.2875   -0.5618 C   0  0  0  0  0  0  0  0  0  0  0  0
   -2.9758    0.4596   -0.1103 C   0  0  0  0  0  0  0  0  0  0  0  0
   -2.6766   -0.7681    0.5036 C   0  0  0  0  0  0  0  0  0  0  0  0
   -1.3740   -1.1647    0.6656 C   0  0  0  0  0  0  0  0  0  0  0  0
   -3.9627   -1.4445    0.8918 C   0  0  0  0  0  0  0  0  0  0  0  0
   -5.0331   -0.4869    0.4422 C   0  0  0  0  0  0  0  0  0  0  0  0
   -6.4056   -0.5693    0.5296 C   0  0  0  0  0  0  0  0  0  0  0  0
   -7.1697    0.4692    0.0256 C   0  0  0  0  0  0  0  0  0  0  0  0
   -6.5701    1.5764   -0.5590 C   0  0  0  0  0  0  0  0  0  0  0  0
   -5.1987    1.6707   -0.6523 C   0  0  0  0  0  0  0  0  0  0  0  0
   -4.4227    0.6318   -0.1480 C   0  0  0  0  0  0  0  0  0  0  0  0
    2.1431   -0.0703    0.0487 C   0  0  0  0  0  0  0  0  0  0  0  0
    3.4104   -0.6134    0.1867 C   0  0  0  0  0  0  0  0  0  0  0  0
    4.6136    0.0593   -0.2693 C   0  0  0  0  0  0  0  0  0  0  0  0
    5.8405   -0.5730   -0.0606 C   0  0  0  0  0  0  0  0  0  0  0  0
    7.0168    0.0114   -0.4645 C   0  0  0  0  0  0  0  0  0  0  0  0
    6.9957    1.2439   -1.0884 C   0  0  0  0  0  0  0  0  0  0  0  0
    5.7919    1.8875   -1.3055 C   0  0  0  0  0  0  0  0  0  0  0  0
    4.6120    1.3076   -0.9030 C   0  0  0  0  0  0  0  0  0  0  0  0
    3.5641   -1.8364    0.7569 O   0  0  0  0  0  3  0  0  0  0  0  0
    0.1446    1.5244   -0.7468 H   0  0  0  0  0  0  0  0  0  0  0  0
   -2.1864    2.2257   -1.0303 H   0  0  0  0  0  0  0  0  0  0  0  0
   -1.1393   -2.1017    1.1371 H   0  0  0  0  0  0  0  0  0  0  0  0
   -4.0096   -1.6089    1.9732 H   0  0  0  0  0  0  0  0  0  0  0  0
   -4.0645   -2.4129    0.3912 H   0  0  0  0  0  0  0  0  0  0  0  0
   -6.8639   -1.4297    0.9829 H   0  0  0  0  0  0  0  0  0  0  0  0
   -8.2451    0.4176    0.0875 H   0  0  0  0  0  0  0  0  0  0  0  0
   -7.1866    2.3727   -0.9450 H   0  0  0  0  0  0  0  0  0  0  0  0
   -4.7267    2.5242   -1.1038 H   0  0  0  0  0  0  0  0  0  0  0  0
    2.0241    0.9020   -0.3831 H   0  0  0  0  0  0  0  0  0  0  0  0
    5.8406   -1.5320    0.4297 H   0  0  0  0  0  0  0  0  0  0  0  0
    7.9543   -0.4909   -0.2935 H   0  0  0  0  0  0  0  0  0  0  0  0
    7.9177    1.7034   -1.4047 H   0  0  0  0  0  0  0  0  0  0  0  0
    5.7793    2.8488   -1.7917 H   0  0  0  0  0  0  0  0  0  0  0  0
    3.6836    1.8195   -1.0786 H   0  0  0  0  0  0  0  0  0  0  0  0
  1  2  1  0  0  0  0
  2  3  1  0  0  0  0
  2  4  1  0  0  0  0
  4  5  1  0  0  0  0
  5  6  1  0  0  0  0
  6  7  2  0  0  0  0
  7  8  1  0  0  0  0
  8  9  2  0  0  0  0
  9 10  1  0  0  0  0
 10 11  2  0  0  0  0
 10 12  1  0  0  0  0
 12 13  1  0  0  0  0
 13 14  2  0  0  0  0
 14 15  1  0  0  0  0
 15 16  2  0  0  0  0
 16 17  1  0  0  0  0
 17 18  2  0  0  0  0
  5 19  2  0  0  0  0
 19 20  1  0  0  0  0
 20 21  1  0  0  0  0
 21 22  2  0  0  0  0
 22 23  1  0  0  0  0
 23 24  2  0  0  0  0
 24 25  1  0  0  0  0
 25 26  2  0  0  0  0
 20 27  2  0  0  0  0
 27  2  1  0  0  0  0
 11  6  1  0  0  0  0
 18 13  1  0  0  0  0
 26 21  1  0  0  0  0
 18  9  1  0  0  0  0
  7 28  1  0  0  0  0
  8 29  1  0  0  0  0
 11 30  1  0  0  0  0
 12 31  1  0  0  0  0
 12 32  1  0  0  0  0
 14 33  1  0  0  0  0
 15 34  1  0  0  0  0
 16 35  1  0  0  0  0
 17 36  1  0  0  0  0
 19 37  1  0  0  0  0
 22 38  1  0  0  0  0
 23 39  1  0  0  0  0
 24 40  1  0  0  0  0
 25 41  1  0  0  0  0
 26 42  1  0  0  0  0
M  CHG  1   2  -1
M  CHG  1  27   1
M  END
