
  xtb     03012221283D
 energy: -7.770939138656 gnorm: 0.000246724686 xtb: 6.4.1 (afa7bdf)
 36 39  0     0  0            999 V2000
    1.8622   -2.6132   -0.7069 O   0  0  0  0  0  0  0  0  0  0  0  0
    2.8004   -1.6788   -0.3208 C   0  0  0  0  0  0  0  0  0  0  0  0
    4.1536   -2.0099   -0.2495 C   0  0  0  0  0  0  0  0  0  0  0  0
    5.0938   -1.0749    0.1188 C   0  0  0  0  0  0  0  0  0  0  0  0
    4.7074    0.2136    0.4309 C   0  0  0  0  0  0  0  0  0  0  0  0
    3.3777    0.5661    0.3714 C   0  0  0  0  0  0  0  0  0  0  0  0
    2.4054   -0.3558   -0.0037 C   0  0  0  0  0  0  0  0  0  0  0  0
    0.9968    0.0266   -0.0460 C   0  0  0  0  0  0  0  0  0  0  0  0
   -0.0043   -0.7556    0.3371 N   0  0  0  0  0  0  0  0  0  0  0  0
   -1.1485   -0.0679    0.1774 C   0  0  0  0  0  0  0  0  0  0  0  0
   -2.4616   -0.6402    0.4785 C   0  0  0  0  0  0  0  0  0  0  0  0
   -3.6320   -0.2033   -0.1433 C   0  0  0  0  0  0  0  0  0  0  0  0
   -4.8432   -0.7839    0.1574 C   0  0  0  0  0  0  0  0  0  0  0  0
   -4.9142   -1.8126    1.0749 C   0  0  0  0  0  0  0  0  0  0  0  0
   -3.7635   -2.2687    1.6850 C   0  0  0  0  0  0  0  0  0  0  0  0
   -2.5493   -1.6942    1.3865 C   0  0  0  0  0  0  0  0  0  0  0  0
   -0.8491    1.2302   -0.3074 C   0  0  0  0  0  0  0  0  0  0  0  0
   -1.6414    2.3616   -0.5836 C   0  0  0  0  0  0  0  0  0  0  0  0
   -1.0336    3.4784   -1.0664 C   0  0  0  0  0  0  0  0  0  0  0  0
    0.3581    3.4993   -1.2856 C   0  0  0  0  0  0  0  0  0  0  0  0
    1.1170    2.4171   -0.9899 C   0  0  0  0  0  0  0  0  0  0  0  0
    0.5228    1.2779   -0.4666 N   0  0  0  0  0  0  0  0  0  0  0  0
    2.2989   -3.4752   -0.8865 H   0  0  0  0  0  0  0  0  0  0  0  0
    4.4571   -3.0123   -0.4922 H   0  0  0  0  0  0  0  0  0  0  0  0
    6.1349   -1.3498    0.1664 H   0  0  0  0  0  0  0  0  0  0  0  0
    5.4453    0.9407    0.7266 H   0  0  0  0  0  0  0  0  0  0  0  0
    3.0722    1.5592    0.6501 H   0  0  0  0  0  0  0  0  0  0  0  0
   -3.5774    0.5615   -0.8956 H   0  0  0  0  0  0  0  0  0  0  0  0
   -5.7401   -0.4391   -0.3328 H   0  0  0  0  0  0  0  0  0  0  0  0
   -5.8640   -2.2647    1.3069 H   0  0  0  0  0  0  0  0  0  0  0  0
   -3.8148   -3.0798    2.3942 H   0  0  0  0  0  0  0  0  0  0  0  0
   -1.6458   -2.0526    1.8475 H   0  0  0  0  0  0  0  0  0  0  0  0
   -2.6970    2.3490   -0.3840 H   0  0  0  0  0  0  0  0  0  0  0  0
   -1.6179    4.3564   -1.2852 H   0  0  0  0  0  0  0  0  0  0  0  0
    0.8187    4.3853   -1.6901 H   0  0  0  0  0  0  0  0  0  0  0  0
    2.1754    2.4098   -1.1735 H   0  0  0  0  0  0  0  0  0  0  0  0
  1  2  1  0  0  0  0
  2  3  2  0  0  0  0
  3  4  1  0  0  0  0
  4  5  2  0  0  0  0
  5  6  1  0  0  0  0
  6  7  2  0  0  0  0
  7  8  1  0  0  0  0
  8  9  2  0  0  0  0
  9 10  1  0  0  0  0
 10 11  1  0  0  0  0
 11 12  2  0  0  0  0
 12 13  1  0  0  0  0
 13 14  2  0  0  0  0
 14 15  1  0  0  0  0
 15 16  2  0  0  0  0
 10 17  2  0  0  0  0
 17 18  1  0  0  0  0
 18 19  2  0  0  0  0
 19 20  1  0  0  0  0
 20 21  2  0  0  0  0
 21 22  1  0  0  0  0
  7  2  1  0  0  0  0
 22  8  1  0  0  0  0
 16 11  1  0  0  0  0
 22 17  1  0  0  0  0
  1 23  1  0  0  0  0
  3 24  1  0  0  0  0
  4 25  1  0  0  0  0
  5 26  1  0  0  0  0
  6 27  1  0  0  0  0
 12 28  1  0  0  0  0
 13 29  1  0  0  0  0
 14 30  1  0  0  0  0
 15 31  1  0  0  0  0
 16 32  1  0  0  0  0
 18 33  1  0  0  0  0
 19 34  1  0  0  0  0
 20 35  1  0  0  0  0
 21 36  1  0  0  0  0
M  END
