
  xtb     03012221283D
 energy: -7.566470283987 gnorm: 0.000327887468 xtb: 6.4.1 (afa7bdf)
 37 40  0     0  0            999 V2000
   -4.5070   -2.1276   -1.8353 C   0  0  0  0  0  0  0  0  0  0  0  0
   -3.8712   -1.1840   -1.0106 O   0  0  0  0  0  0  0  0  0  0  0  0
   -2.5247   -1.2288   -1.0816 C   0  0  0  0  0  0  0  0  0  0  0  0
   -1.6663   -2.0760   -1.8624 C   0  0  0  0  0  0  0  0  0  0  0  0
   -0.3718   -1.7629   -1.5898 C   0  0  0  0  0  0  0  0  0  0  0  0
   -0.3543   -0.7029   -0.6220 C   0  0  0  0  0  0  0  0  0  0  0  0
   -1.6686   -0.4211   -0.3687 N   0  0  0  0  0  0  0  0  0  0  0  0
   -2.1197    0.6120    0.6596 B   0  0  0  0  0  4  0  0  0  0  0  0
   -3.0645    1.4774    0.1237 F   0  0  0  0  0  0  0  0  0  0  0  0
   -2.6023   -0.0523    1.7807 F   0  0  0  0  0  0  0  0  0  0  0  0
   -0.8970    1.4275    1.0757 N   0  0  0  0  0  4  0  0  0  0  0  0
   -0.9711    2.5128    1.8631 C   0  0  0  0  0  0  0  0  0  0  0  0
   -2.4730    3.2517    2.3718 S   0  0  0  0  0  0  0  0  0  0  0  0
   -1.9257    4.3141    3.5857 C   0  0  0  0  0  0  0  0  0  0  0  0
   -1.4860    5.0235    4.3884 N   0  0  0  0  0  0  0  0  0  0  0  0
    0.3637    2.8792    2.1440 C   0  0  0  0  0  0  0  0  0  0  0  0
    1.2063    2.0034    1.4997 C   0  0  0  0  0  0  0  0  0  0  0  0
    0.4043    1.0675    0.7887 C   0  0  0  0  0  0  0  0  0  0  0  0
    0.7337   -0.0131   -0.0525 C   0  0  0  0  0  0  0  0  0  0  0  0
    2.1298   -0.3763   -0.3486 C   0  0  0  0  0  0  0  0  0  0  0  0
    2.5475   -1.7088   -0.3094 C   0  0  0  0  0  0  0  0  0  0  0  0
    3.8522   -2.0461   -0.5827 C   0  0  0  0  0  0  0  0  0  0  0  0
    4.7695   -1.0668   -0.9036 C   0  0  0  0  0  0  0  0  0  0  0  0
    4.3770    0.2550   -0.9499 C   0  0  0  0  0  0  0  0  0  0  0  0
    3.0744    0.5996   -0.6755 C   0  0  0  0  0  0  0  0  0  0  0  0
   -4.2463   -1.9396   -2.8778 H   0  0  0  0  0  0  0  0  0  0  0  0
   -5.5850   -2.0184   -1.7070 H   0  0  0  0  0  0  0  0  0  0  0  0
   -4.2087   -3.1346   -1.5397 H   0  0  0  0  0  0  0  0  0  0  0  0
   -1.9957   -2.8318   -2.5534 H   0  0  0  0  0  0  0  0  0  0  0  0
    0.4963   -2.2134   -2.0386 H   0  0  0  0  0  0  0  0  0  0  0  0
    0.6554    3.7029    2.7741 H   0  0  0  0  0  0  0  0  0  0  0  0
    2.2817    2.0129    1.5383 H   0  0  0  0  0  0  0  0  0  0  0  0
    1.8376   -2.4696   -0.0375 H   0  0  0  0  0  0  0  0  0  0  0  0
    4.1606   -3.0780   -0.5425 H   0  0  0  0  0  0  0  0  0  0  0  0
    5.7921   -1.3341   -1.1183 H   0  0  0  0  0  0  0  0  0  0  0  0
    5.0930    1.0190   -1.2050 H   0  0  0  0  0  0  0  0  0  0  0  0
    2.7636    1.6274   -0.7351 H   0  0  0  0  0  0  0  0  0  0  0  0
  1  2  1  0  0  0  0
  2  3  1  0  0  0  0
  3  4  2  0  0  0  0
  4  5  1  0  0  0  0
  5  6  2  0  0  0  0
  6  7  1  0  0  0  0
  7  8  1  0  0  0  0
  8  9  1  0  0  0  0
  8 10  1  0  0  0  0
  8 11  1  0  0  0  0
 11 12  2  0  0  0  0
 12 13  1  0  0  0  0
 13 14  1  0  0  0  0
 14 15  3  0  0  0  0
 12 16  1  0  0  0  0
 16 17  2  0  0  0  0
 17 18  1  0  0  0  0
 18 19  2  0  0  0  0
 19 20  1  0  0  0  0
 20 21  2  0  0  0  0
 21 22  1  0  0  0  0
 22 23  2  0  0  0  0
 23 24  1  0  0  0  0
 24 25  2  0  0  0  0
  7  3  1  0  0  0  0
 18 11  1  0  0  0  0
 25 20  1  0  0  0  0
 19  6  1  0  0  0  0
  1 26  1  0  0  0  0
  1 27  1  0  0  0  0
  1 28  1  0  0  0  0
  4 29  1  0  0  0  0
  5 30  1  0  0  0  0
 16 31  1  0  0  0  0
 17 32  1  0  0  0  0
 21 33  1  0  0  0  0
 22 34  1  0  0  0  0
 23 35  1  0  0  0  0
 24 36  1  0  0  0  0
 25 37  1  0  0  0  0
M  CHG  1   8  -1
M  CHG  1  11   1
M  END
