
  xtb     03012221303D
 energy: -21.826748051931 gnorm: 0.000442265787 xtb: 6.4.1 (afa7bdf)
 94106  0     0  0            999 V2000
    3.7146    2.6781    0.4728 N   0  0  0  0  0  0  0  0  0  0  0  0
    2.9215    1.8291    0.4372 C   0  0  0  0  0  0  0  0  0  0  0  0
    1.9683    0.8099    0.3980 C   0  0  0  0  0  0  0  0  0  0  0  0
    2.3058   -0.4849    0.8169 C   0  0  0  0  0  0  0  0  0  0  0  0
    3.6394   -0.7656    1.2784 N   0  0  0  0  0  0  0  0  0  0  0  0
    4.8225   -0.6422    0.5255 C   0  0  0  0  0  0  0  0  0  0  0  0
    5.0203   -0.2455   -0.7954 C   0  0  0  0  0  0  0  0  0  0  0  0
    6.2998   -0.2123   -1.2892 C   0  0  0  0  0  0  0  0  0  0  0  0
    7.3887   -0.5724   -0.4915 C   0  0  0  0  0  0  0  0  0  0  0  0
    7.2115   -0.9694    0.8109 C   0  0  0  0  0  0  0  0  0  0  0  0
    5.9163   -1.0062    1.3278 C   0  0  0  0  0  0  0  0  0  0  0  0
    5.3942   -1.3655    2.6220 C   0  0  0  0  0  0  0  0  0  0  0  0
    6.0070   -1.7944    3.7996 C   0  0  0  0  0  0  0  0  0  0  0  0
    5.2188   -2.0588    4.8923 C   0  0  0  0  0  0  0  0  0  0  0  0
    3.8317   -1.9020    4.8349 C   0  0  0  0  0  0  0  0  0  0  0  0
    3.2153   -1.4784    3.6848 C   0  0  0  0  0  0  0  0  0  0  0  0
    3.9995   -1.2101    2.5648 C   0  0  0  0  0  0  0  0  0  0  0  0
    1.3461   -1.5067    0.7848 C   0  0  0  0  0  0  0  0  0  0  0  0
    1.6824   -2.7961    1.2009 C   0  0  0  0  0  0  0  0  0  0  0  0
    1.9639   -3.8704    1.5436 N   0  0  0  0  0  0  0  0  0  0  0  0
    0.0500   -1.2338    0.3319 C   0  0  0  0  0  0  0  0  0  0  0  0
   -0.9450   -2.2701    0.2902 N   0  0  0  0  0  0  0  0  0  0  0  0
   -0.9084   -3.4203   -0.5240 C   0  0  0  0  0  0  0  0  0  0  0  0
    0.1048   -3.9254   -1.3377 C   0  0  0  0  0  0  0  0  0  0  0  0
   -0.1444   -5.0506   -2.0822 C   0  0  0  0  0  0  0  0  0  0  0  0
   -1.3900   -5.6820   -2.0353 C   0  0  0  0  0  0  0  0  0  0  0  0
   -2.4010   -5.1976   -1.2421 C   0  0  0  0  0  0  0  0  0  0  0  0
   -2.1603   -4.0562   -0.4768 C   0  0  0  0  0  0  0  0  0  0  0  0
   -2.9941   -3.2898    0.4142 C   0  0  0  0  0  0  0  0  0  0  0  0
   -4.3225   -3.4312    0.8170 C   0  0  0  0  0  0  0  0  0  0  0  0
   -4.8497   -2.5027    1.6808 C   0  0  0  0  0  0  0  0  0  0  0  0
   -4.0776   -1.4397    2.1564 C   0  0  0  0  0  0  0  0  0  0  0  0
   -2.7700   -1.2905    1.7696 C   0  0  0  0  0  0  0  0  0  0  0  0
   -2.2220   -2.2136    0.8812 C   0  0  0  0  0  0  0  0  0  0  0  0
   -0.2837    0.0589   -0.0928 C   0  0  0  0  0  0  0  0  0  0  0  0
   -1.6095    0.3346   -0.5707 N   0  0  0  0  0  0  0  0  0  0  0  0
   -2.5191    1.2556   -0.0161 C   0  0  0  0  0  0  0  0  0  0  0  0
   -2.4089    2.0958    1.0896 C   0  0  0  0  0  0  0  0  0  0  0  0
   -3.4678    2.9051    1.4121 C   0  0  0  0  0  0  0  0  0  0  0  0
   -4.6442    2.8878    0.6599 C   0  0  0  0  0  0  0  0  0  0  0  0
   -4.7743    2.0565   -0.4238 C   0  0  0  0  0  0  0  0  0  0  0  0
   -3.7046    1.2288   -0.7679 C   0  0  0  0  0  0  0  0  0  0  0  0
   -3.5248    0.2591   -1.8176 C   0  0  0  0  0  0  0  0  0  0  0  0
   -4.3577   -0.1793   -2.8480 C   0  0  0  0  0  0  0  0  0  0  0  0
   -3.8879   -1.1309   -3.7176 C   0  0  0  0  0  0  0  0  0  0  0  0
   -2.5985   -1.6499   -3.5831 C   0  0  0  0  0  0  0  0  0  0  0  0
   -1.7662   -1.2273   -2.5787 C   0  0  0  0  0  0  0  0  0  0  0  0
   -2.2328   -0.2721   -1.6783 C   0  0  0  0  0  0  0  0  0  0  0  0
    0.6735    1.0813   -0.0591 C   0  0  0  0  0  0  0  0  0  0  0  0
    0.3117    2.4041   -0.4889 N   0  0  0  0  0  0  0  0  0  0  0  0
    0.2595    3.5521    0.3272 C   0  0  0  0  0  0  0  0  0  0  0  0
    0.6635    3.7467    1.6473 C   0  0  0  0  0  0  0  0  0  0  0  0
    0.4442    4.9682    2.2323 C   0  0  0  0  0  0  0  0  0  0  0  0
   -0.1766    6.0019    1.5262 C   0  0  0  0  0  0  0  0  0  0  0  0
   -0.5846    5.8279    0.2265 C   0  0  0  0  0  0  0  0  0  0  0  0
   -0.3649    4.5917   -0.3820 C   0  0  0  0  0  0  0  0  0  0  0  0
   -0.6932    4.0790   -1.6881 C   0  0  0  0  0  0  0  0  0  0  0  0
   -1.3413    4.6442   -2.7870 C   0  0  0  0  0  0  0  0  0  0  0  0
   -1.5293    3.8727   -3.9075 C   0  0  0  0  0  0  0  0  0  0  0  0
   -1.0791    2.5510   -3.9574 C   0  0  0  0  0  0  0  0  0  0  0  0
   -0.4397    1.9839   -2.8844 C   0  0  0  0  0  0  0  0  0  0  0  0
   -0.2541    2.7456   -1.7325 C   0  0  0  0  0  0  0  0  0  0  0  0
    4.1759    0.0409   -1.3965 H   0  0  0  0  0  0  0  0  0  0  0  0
    6.4684    0.1010   -2.3061 H   0  0  0  0  0  0  0  0  0  0  0  0
    8.3840   -0.5353   -0.9058 H   0  0  0  0  0  0  0  0  0  0  0  0
    8.0447   -1.2471    1.4314 H   0  0  0  0  0  0  0  0  0  0  0  0
    7.0753   -1.9120    3.8364 H   0  0  0  0  0  0  0  0  0  0  0  0
    5.6764   -2.3946    5.8097 H   0  0  0  0  0  0  0  0  0  0  0  0
    3.2371   -2.1220    5.7059 H   0  0  0  0  0  0  0  0  0  0  0  0
    2.1477   -1.3647    3.6256 H   0  0  0  0  0  0  0  0  0  0  0  0
    1.0628   -3.4368   -1.3591 H   0  0  0  0  0  0  0  0  0  0  0  0
    0.6321   -5.4562   -2.7085 H   0  0  0  0  0  0  0  0  0  0  0  0
   -1.5583   -6.5652   -2.6311 H   0  0  0  0  0  0  0  0  0  0  0  0
   -3.3632   -5.6756   -1.2044 H   0  0  0  0  0  0  0  0  0  0  0  0
   -4.9107   -4.2515    0.4472 H   0  0  0  0  0  0  0  0  0  0  0  0
   -5.8760   -2.5954    1.9995 H   0  0  0  0  0  0  0  0  0  0  0  0
   -4.5163   -0.7256    2.8327 H   0  0  0  0  0  0  0  0  0  0  0  0
   -2.1657   -0.4751    2.1251 H   0  0  0  0  0  0  0  0  0  0  0  0
   -1.4985    2.1051    1.6611 H   0  0  0  0  0  0  0  0  0  0  0  0
   -3.3886    3.5686    2.2591 H   0  0  0  0  0  0  0  0  0  0  0  0
   -5.4595    3.5346    0.9360 H   0  0  0  0  0  0  0  0  0  0  0  0
   -5.6783    2.0324   -1.0084 H   0  0  0  0  0  0  0  0  0  0  0  0
   -5.3487    0.2307   -2.9454 H   0  0  0  0  0  0  0  0  0  0  0  0
   -4.5198   -1.4818   -4.5157 H   0  0  0  0  0  0  0  0  0  0  0  0
   -2.2518   -2.3983   -4.2786 H   0  0  0  0  0  0  0  0  0  0  0  0
   -0.7730   -1.6228   -2.4665 H   0  0  0  0  0  0  0  0  0  0  0  0
    1.1489    2.9469    2.1781 H   0  0  0  0  0  0  0  0  0  0  0  0
    0.7589    5.1345    3.2487 H   0  0  0  0  0  0  0  0  0  0  0  0
   -0.3361    6.9523    2.0107 H   0  0  0  0  0  0  0  0  0  0  0  0
   -1.0671    6.6172   -0.3210 H   0  0  0  0  0  0  0  0  0  0  0  0
   -1.6847    5.6619   -2.7420 H   0  0  0  0  0  0  0  0  0  0  0  0
   -2.0316    4.2932   -4.7644 H   0  0  0  0  0  0  0  0  0  0  0  0
   -1.2404    1.9682   -4.8485 H   0  0  0  0  0  0  0  0  0  0  0  0
   -0.0919    0.9666   -2.9075 H   0  0  0  0  0  0  0  0  0  0  0  0
  1  2  3  0  0  0  0
  2  3  1  0  0  0  0
  3  4  2  0  0  0  0
  4  5  1  0  0  0  0
  5  6  1  0  0  0  0
  6  7  2  0  0  0  0
  7  8  1  0  0  0  0
  8  9  2  0  0  0  0
  9 10  1  0  0  0  0
 10 11  2  0  0  0  0
 11 12  1  0  0  0  0
 12 13  2  0  0  0  0
 13 14  1  0  0  0  0
 14 15  2  0  0  0  0
 15 16  1  0  0  0  0
 16 17  2  0  0  0  0
  4 18  1  0  0  0  0
 18 19  1  0  0  0  0
 19 20  3  0  0  0  0
 18 21  2  0  0  0  0
 21 22  1  0  0  0  0
 22 23  1  0  0  0  0
 23 24  2  0  0  0  0
 24 25  1  0  0  0  0
 25 26  2  0  0  0  0
 26 27  1  0  0  0  0
 27 28  2  0  0  0  0
 28 29  1  0  0  0  0
 29 30  2  0  0  0  0
 30 31  1  0  0  0  0
 31 32  2  0  0  0  0
 32 33  1  0  0  0  0
 33 34  2  0  0  0  0
 21 35  1  0  0  0  0
 35 36  1  0  0  0  0
 36 37  1  0  0  0  0
 37 38  2  0  0  0  0
 38 39  1  0  0  0  0
 39 40  2  0  0  0  0
 40 41  1  0  0  0  0
 41 42  2  0  0  0  0
 42 43  1  0  0  0  0
 43 44  2  0  0  0  0
 44 45  1  0  0  0  0
 45 46  2  0  0  0  0
 46 47  1  0  0  0  0
 47 48  2  0  0  0  0
 35 49  2  0  0  0  0
 49 50  1  0  0  0  0
 50 51  1  0  0  0  0
 51 52  2  0  0  0  0
 52 53  1  0  0  0  0
 53 54  2  0  0  0  0
 54 55  1  0  0  0  0
 55 56  2  0  0  0  0
 56 57  1  0  0  0  0
 57 58  2  0  0  0  0
 58 59  1  0  0  0  0
 59 60  2  0  0  0  0
 60 61  1  0  0  0  0
 61 62  2  0  0  0  0
 49  3  1  0  0  0  0
 62 50  1  0  0  0  0
 17  5  1  0  0  0  0
 34 22  1  0  0  0  0
 48 36  1  0  0  0  0
 56 51  1  0  0  0  0
 62 57  1  0  0  0  0
 11  6  1  0  0  0  0
 17 12  1  0  0  0  0
 28 23  1  0  0  0  0
 34 29  1  0  0  0  0
 42 37  1  0  0  0  0
 48 43  1  0  0  0  0
  7 63  1  0  0  0  0
  8 64  1  0  0  0  0
  9 65  1  0  0  0  0
 10 66  1  0  0  0  0
 13 67  1  0  0  0  0
 14 68  1  0  0  0  0
 15 69  1  0  0  0  0
 16 70  1  0  0  0  0
 24 71  1  0  0  0  0
 25 72  1  0  0  0  0
 26 73  1  0  0  0  0
 27 74  1  0  0  0  0
 30 75  1  0  0  0  0
 31 76  1  0  0  0  0
 32 77  1  0  0  0  0
 33 78  1  0  0  0  0
 38 79  1  0  0  0  0
 39 80  1  0  0  0  0
 40 81  1  0  0  0  0
 41 82  1  0  0  0  0
 44 83  1  0  0  0  0
 45 84  1  0  0  0  0
 46 85  1  0  0  0  0
 47 86  1  0  0  0  0
 52 87  1  0  0  0  0
 53 88  1  0  0  0  0
 54 89  1  0  0  0  0
 55 90  1  0  0  0  0
 58 91  1  0  0  0  0
 59 92  1  0  0  0  0
 60 93  1  0  0  0  0
 61 94  1  0  0  0  0
M  END
