
  xtb     03012221233D
 energy: -6.557955501642 gnorm: 0.000193069706 xtb: 6.4.1 (afa7bdf)
 31 33  0     0  0            999 V2000
    0.0017    3.4588    0.3355 O   0  0  0  0  0  0  0  0  0  0  0  0
   -1.0183    2.5526    0.2322 C   0  0  0  0  0  0  0  0  0  0  0  0
   -2.3560    3.0029    0.1849 C   0  0  0  0  0  0  0  0  0  0  0  0
   -3.3882    2.1301    0.0788 C   0  0  0  0  0  0  0  0  0  0  0  0
   -3.1546    0.7347    0.0130 C   0  0  0  0  0  0  0  0  0  0  0  0
   -4.2181   -0.1841   -0.0888 C   0  0  0  0  0  0  0  0  0  0  0  0
   -3.9797   -1.5262   -0.1428 C   0  0  0  0  0  0  0  0  0  0  0  0
   -2.6710   -2.0089   -0.0981 C   0  0  0  0  0  0  0  0  0  0  0  0
   -1.6235   -1.1419   -0.0015 C   0  0  0  0  0  0  0  0  0  0  0  0
   -1.8233    0.2498    0.0564 C   0  0  0  0  0  0  0  0  0  0  0  0
   -0.7424    1.1762    0.1687 C   0  0  0  0  0  0  0  0  0  0  0  0
    0.5732    0.7884    0.2328 N   0  0  0  0  0  0  0  0  0  0  0  0
    0.9729   -0.3632   -0.0093 N   0  0  0  0  0  0  0  0  0  0  0  0
    2.3120   -0.6882    0.0998 C   0  0  0  0  0  0  0  0  0  0  0  0
    2.7571   -1.9685   -0.2179 C   0  0  0  0  0  0  0  0  0  0  0  0
    4.0908   -2.2908   -0.1072 C   0  0  0  0  0  0  0  0  0  0  0  0
    4.9985   -1.3431    0.3219 C   0  0  0  0  0  0  0  0  0  0  0  0
    4.5704   -0.0700    0.6409 C   0  0  0  0  0  0  0  0  0  0  0  0
    3.2374    0.2556    0.5309 C   0  0  0  0  0  0  0  0  0  0  0  0
    0.8570    2.9704    0.3415 H   0  0  0  0  0  0  0  0  0  0  0  0
   -2.5321    4.0623    0.2353 H   0  0  0  0  0  0  0  0  0  0  0  0
   -4.4019    2.4897    0.0454 H   0  0  0  0  0  0  0  0  0  0  0  0
   -5.2271    0.1891   -0.1215 H   0  0  0  0  0  0  0  0  0  0  0  0
   -4.8024   -2.2181   -0.2196 H   0  0  0  0  0  0  0  0  0  0  0  0
   -2.4911   -3.0705   -0.1414 H   0  0  0  0  0  0  0  0  0  0  0  0
   -0.6210   -1.5192    0.0302 H   0  0  0  0  0  0  0  0  0  0  0  0
    2.0407   -2.6981   -0.5521 H   0  0  0  0  0  0  0  0  0  0  0  0
    4.4267   -3.2835   -0.3560 H   0  0  0  0  0  0  0  0  0  0  0  0
    6.0430   -1.5976    0.4080 H   0  0  0  0  0  0  0  0  0  0  0  0
    5.2791    0.6685    0.9763 H   0  0  0  0  0  0  0  0  0  0  0  0
    2.8902    1.2426    0.7788 H   0  0  0  0  0  0  0  0  0  0  0  0
  1  2  1  0  0  0  0
  2  3  2  0  0  0  0
  3  4  1  0  0  0  0
  4  5  2  0  0  0  0
  5  6  1  0  0  0  0
  6  7  2  0  0  0  0
  7  8  1  0  0  0  0
  8  9  2  0  0  0  0
  9 10  1  0  0  0  0
 10 11  2  0  0  0  0
 11 12  1  0  0  0  0
 12 13  2  0  0  0  0
 13 14  1  0  0  0  0
 14 15  2  0  0  0  0
 15 16  1  0  0  0  0
 16 17  2  0  0  0  0
 17 18  1  0  0  0  0
 18 19  2  0  0  0  0
 11  2  1  0  0  0  0
 19 14  1  0  0  0  0
 10  5  1  0  0  0  0
  1 20  1  0  0  0  0
  3 21  1  0  0  0  0
  4 22  1  0  0  0  0
  6 23  1  0  0  0  0
  7 24  1  0  0  0  0
  8 25  1  0  0  0  0
  9 26  1  0  0  0  0
 15 27  1  0  0  0  0
 16 28  1  0  0  0  0
 17 29  1  0  0  0  0
 18 30  1  0  0  0  0
 19 31  1  0  0  0  0
M  END
