
  xtb     03012221283D
 energy: -11.144142645076 gnorm: 0.000167007743 xtb: 6.4.1 (afa7bdf)
 57 60  0     0  0            999 V2000
    0.5115   -2.7504   -1.5763 C   0  0  0  0  0  0  0  0  0  0  0  0
    1.7528   -2.0147   -1.2496 N   0  0  0  0  0  0  0  0  0  0  0  0
    2.6930   -2.7908   -0.4410 C   0  0  0  0  0  0  0  0  0  0  0  0
    1.5679   -0.6426   -0.7309 C   0  0  0  0  0  0  0  0  0  0  0  0
    0.9761   -0.5772    0.6656 C   0  0  0  0  0  0  0  0  0  0  0  0
    0.4999    0.7841    0.9860 N   0  0  0  0  0  0  0  0  0  0  0  0
   -0.9109    1.1391    0.6993 C   0  0  0  0  0  0  0  0  0  0  0  0
   -1.7266    0.0499    0.0719 C   0  0  0  0  0  0  0  0  0  0  0  0
   -1.9694    0.0269   -1.3152 C   0  0  0  0  0  0  0  0  0  0  0  0
   -1.4802    1.0232   -2.2100 C   0  0  0  0  0  0  0  0  0  0  0  0
   -1.7167    0.9595   -3.5429 C   0  0  0  0  0  0  0  0  0  0  0  0
   -2.4670   -0.0969   -4.0864 C   0  0  0  0  0  0  0  0  0  0  0  0
   -2.9634   -1.0679   -3.2820 C   0  0  0  0  0  0  0  0  0  0  0  0
   -2.7323   -1.0411   -1.8793 C   0  0  0  0  0  0  0  0  0  0  0  0
   -3.2316   -2.0435   -1.0574 C   0  0  0  0  0  0  0  0  0  0  0  0
   -2.9908   -2.0392    0.3100 C   0  0  0  0  0  0  0  0  0  0  0  0
   -3.4875   -3.0737    1.1492 C   0  0  0  0  0  0  0  0  0  0  0  0
   -3.2239   -3.0747    2.4790 C   0  0  0  0  0  0  0  0  0  0  0  0
   -2.4456   -2.0531    3.0521 C   0  0  0  0  0  0  0  0  0  0  0  0
   -1.9582   -1.0473    2.2848 C   0  0  0  0  0  0  0  0  0  0  0  0
   -2.2203   -0.9859    0.8856 C   0  0  0  0  0  0  0  0  0  0  0  0
    1.4516    1.8065    1.2567 C   0  0  0  0  0  0  0  0  0  0  0  0
    2.2891    1.7321    2.3763 C   0  0  0  0  0  0  0  0  0  0  0  0
    3.1925    2.7281    2.6393 C   0  0  0  0  0  0  0  0  0  0  0  0
    3.3022    3.8211    1.7932 C   0  0  0  0  0  0  0  0  0  0  0  0
    4.2715    4.8698    2.0802 N   0  0  0  0  0  4  0  0  0  0  0  0
    4.9785    4.7596    3.0917 O   0  0  0  0  0  0  0  0  0  0  0  0
    4.3520    5.8297    1.3014 O   0  0  0  0  0  1  0  0  0  0  0  0
    2.5057    3.8998    0.6694 C   0  0  0  0  0  0  0  0  0  0  0  0
    1.5940    2.9059    0.3920 C   0  0  0  0  0  0  0  0  0  0  0  0
    0.8705    2.9101   -0.8757 N   0  0  0  0  0  4  0  0  0  0  0  0
    1.2416    2.1333   -1.7685 O   0  0  0  0  0  0  0  0  0  0  0  0
   -0.1063    3.6618   -1.0050 O   0  0  0  0  0  1  0  0  0  0  0  0
    0.7530   -3.6775   -2.0933 H   0  0  0  0  0  0  0  0  0  0  0  0
   -0.1168   -2.1472   -2.2295 H   0  0  0  0  0  0  0  0  0  0  0  0
   -0.0471   -2.9894   -0.6731 H   0  0  0  0  0  0  0  0  0  0  0  0
    2.2616   -3.0271    0.5306 H   0  0  0  0  0  0  0  0  0  0  0  0
    2.9384   -3.7229   -0.9480 H   0  0  0  0  0  0  0  0  0  0  0  0
    3.6145   -2.2296   -0.2922 H   0  0  0  0  0  0  0  0  0  0  0  0
    2.5264   -0.1150   -0.7677 H   0  0  0  0  0  0  0  0  0  0  0  0
    0.9202   -0.1062   -1.4315 H   0  0  0  0  0  0  0  0  0  0  0  0
    0.1497   -1.2812    0.7613 H   0  0  0  0  0  0  0  0  0  0  0  0
    1.7135   -0.8748    1.4145 H   0  0  0  0  0  0  0  0  0  0  0  0
   -1.3729    1.4511    1.6389 H   0  0  0  0  0  0  0  0  0  0  0  0
   -0.9264    2.0378    0.0841 H   0  0  0  0  0  0  0  0  0  0  0  0
   -0.8997    1.8471   -1.8342 H   0  0  0  0  0  0  0  0  0  0  0  0
   -1.3252    1.7239   -4.1934 H   0  0  0  0  0  0  0  0  0  0  0  0
   -2.6473   -0.1295   -5.1483 H   0  0  0  0  0  0  0  0  0  0  0  0
   -3.5393   -1.8757   -3.6978 H   0  0  0  0  0  0  0  0  0  0  0  0
   -3.8070   -2.8416   -1.4887 H   0  0  0  0  0  0  0  0  0  0  0  0
   -4.0769   -3.8597    0.7111 H   0  0  0  0  0  0  0  0  0  0  0  0
   -3.6065   -3.8646    3.1042 H   0  0  0  0  0  0  0  0  0  0  0  0
   -2.2334   -2.0773    4.1077 H   0  0  0  0  0  0  0  0  0  0  0  0
   -1.3379   -0.2931    2.7365 H   0  0  0  0  0  0  0  0  0  0  0  0
    2.1947    0.8926    3.0414 H   0  0  0  0  0  0  0  0  0  0  0  0
    3.8306    2.6836    3.5057 H   0  0  0  0  0  0  0  0  0  0  0  0
    2.6144    4.7352   -0.0012 H   0  0  0  0  0  0  0  0  0  0  0  0
  1  2  1  0  0  0  0
  2  3  1  0  0  0  0
  2  4  1  0  0  0  0
  4  5  1  0  0  0  0
  5  6  1  0  0  0  0
  6  7  1  0  0  0  0
  7  8  1  0  0  0  0
  8  9  1  0  0  0  0
  9 10  2  0  0  0  0
 10 11  1  0  0  0  0
 11 12  2  0  0  0  0
 12 13  1  0  0  0  0
 13 14  2  0  0  0  0
 14 15  1  0  0  0  0
 15 16  2  0  0  0  0
 16 17  1  0  0  0  0
 17 18  2  0  0  0  0
 18 19  1  0  0  0  0
 19 20  2  0  0  0  0
 20 21  1  0  0  0  0
  6 22  1  0  0  0  0
 22 23  2  0  0  0  0
 23 24  1  0  0  0  0
 24 25  2  0  0  0  0
 25 26  1  0  0  0  0
 26 27  2  0  0  0  0
 26 28  1  0  0  0  0
 25 29  1  0  0  0  0
 29 30  2  0  0  0  0
 30 31  1  0  0  0  0
 31 32  2  0  0  0  0
 31 33  1  0  0  0  0
 21  8  2  0  0  0  0
 30 22  1  0  0  0  0
 14  9  1  0  0  0  0
 21 16  1  0  0  0  0
  1 34  1  0  0  0  0
  1 35  1  0  0  0  0
  1 36  1  0  0  0  0
  3 37  1  0  0  0  0
  3 38  1  0  0  0  0
  3 39  1  0  0  0  0
  4 40  1  0  0  0  0
  4 41  1  0  0  0  0
  5 42  1  0  0  0  0
  5 43  1  0  0  0  0
  7 44  1  0  0  0  0
  7 45  1  0  0  0  0
 10 46  1  0  0  0  0
 11 47  1  0  0  0  0
 12 48  1  0  0  0  0
 13 49  1  0  0  0  0
 15 50  1  0  0  0  0
 17 51  1  0  0  0  0
 18 52  1  0  0  0  0
 19 53  1  0  0  0  0
 20 54  1  0  0  0  0
 23 55  1  0  0  0  0
 24 56  1  0  0  0  0
 29 57  1  0  0  0  0
M  CHG  1  26   1
M  CHG  1  28  -1
M  CHG  1  31   1
M  CHG  1  33  -1
M  END
