
  xtb     03012221213D
 energy: -17.091588255702 gnorm: 0.000080565690 xtb: 6.4.1 (afa7bdf)
 82 89  0     0  0            999 V2000
   -3.3687    2.4897   -1.0839 C   0  0  0  0  0  0  0  0  0  0  0  0
   -4.2426    2.2250    0.0910 C   0  0  0  0  0  0  0  0  0  0  0  0
   -4.6531    3.2752    0.8951 C   0  0  0  0  0  0  0  0  0  0  0  0
   -5.4735    3.0622    1.9854 C   0  0  0  0  0  0  0  0  0  0  0  0
   -5.8973    1.7848    2.2892 C   0  0  0  0  0  0  0  0  0  0  0  0
   -5.4934    0.7264    1.5095 C   0  0  0  0  0  0  0  0  0  0  0  0
   -4.6562    0.9215    0.4130 C   0  0  0  0  0  0  0  0  0  0  0  0
   -4.2304   -0.2192   -0.3549 N   0  0  0  0  0  0  0  0  0  0  0  0
   -5.1840   -1.2625   -0.6425 C   0  0  0  0  0  0  0  0  0  0  0  0
   -4.8603   -2.5802   -0.3281 C   0  0  0  0  0  0  0  0  0  0  0  0
   -5.7522   -3.6019   -0.5566 C   0  0  0  0  0  0  0  0  0  0  0  0
   -6.9871   -3.3249   -1.1065 C   0  0  0  0  0  0  0  0  0  0  0  0
   -7.3197   -2.0251   -1.4347 C   0  0  0  0  0  0  0  0  0  0  0  0
   -6.4319   -0.9834   -1.2226 C   0  0  0  0  0  0  0  0  0  0  0  0
   -6.8046    0.4053   -1.6040 C   0  0  0  0  0  0  0  0  0  0  0  0
   -2.8678   -0.4187   -0.7481 C   0  0  0  0  0  0  0  0  0  0  0  0
   -2.6050   -0.9088   -2.0302 C   0  0  0  0  0  0  0  0  0  0  0  0
   -1.3257   -1.0838   -2.4893 C   0  0  0  0  0  0  0  0  0  0  0  0
   -0.2253   -0.7863   -1.6750 C   0  0  0  0  0  0  0  0  0  0  0  0
    1.1120   -0.9573   -2.1236 C   0  0  0  0  0  0  0  0  0  0  0  0
    2.1633   -0.6802   -1.3141 C   0  0  0  0  0  0  0  0  0  0  0  0
    1.9796   -0.2091    0.0134 C   0  0  0  0  0  0  0  0  0  0  0  0
    3.0702    0.0629    0.8807 C   0  0  0  0  0  0  0  0  0  0  0  0
    4.4290   -0.0485    0.4494 N   0  0  0  0  0  0  0  0  0  0  0  0
    4.8812    0.4416   -0.8282 C   0  0  0  0  0  0  0  0  0  0  0  0
    5.7131   -0.3631   -1.6036 C   0  0  0  0  0  0  0  0  0  0  0  0
    6.1408    0.0500   -2.8437 C   0  0  0  0  0  0  0  0  0  0  0  0
    5.7496    1.2806   -3.3303 C   0  0  0  0  0  0  0  0  0  0  0  0
    4.9405    2.0987   -2.5662 C   0  0  0  0  0  0  0  0  0  0  0  0
    4.5068    1.7063   -1.3108 C   0  0  0  0  0  0  0  0  0  0  0  0
    3.6573    2.6175   -0.4976 C   0  0  0  0  0  0  0  0  0  0  0  0
    5.4255   -0.5561    1.3598 C   0  0  0  0  0  0  0  0  0  0  0  0
    6.5692    0.1956    1.6164 C   0  0  0  0  0  0  0  0  0  0  0  0
    7.5261   -0.2545    2.4963 C   0  0  0  0  0  0  0  0  0  0  0  0
    7.3578   -1.4670    3.1339 C   0  0  0  0  0  0  0  0  0  0  0  0
    6.2350   -2.2305    2.8798 C   0  0  0  0  0  0  0  0  0  0  0  0
    5.2654   -1.8005    1.9897 C   0  0  0  0  0  0  0  0  0  0  0  0
    4.0746   -2.6473    1.7091 C   0  0  0  0  0  0  0  0  0  0  0  0
    2.8074    0.4452    2.1988 C   0  0  0  0  0  0  0  0  0  0  0  0
    1.5281    0.5999    2.6651 C   0  0  0  0  0  0  0  0  0  0  0  0
    0.4280    0.3670    1.8297 C   0  0  0  0  0  0  0  0  0  0  0  0
   -0.9093    0.5141    2.2861 C   0  0  0  0  0  0  0  0  0  0  0  0
   -1.9604    0.2690    1.4662 C   0  0  0  0  0  0  0  0  0  0  0  0
   -1.7773   -0.1424    0.1187 C   0  0  0  0  0  0  0  0  0  0  0  0
   -0.4536   -0.3196   -0.3576 C   0  0  0  0  0  0  0  0  0  0  0  0
    0.6561   -0.0471    0.4949 C   0  0  0  0  0  0  0  0  0  0  0  0
   -2.3158    2.4192   -0.8080 H   0  0  0  0  0  0  0  0  0  0  0  0
   -3.5441    3.4867   -1.4902 H   0  0  0  0  0  0  0  0  0  0  0  0
   -3.5565    1.7719   -1.8828 H   0  0  0  0  0  0  0  0  0  0  0  0
   -4.3256    4.2730    0.6575 H   0  0  0  0  0  0  0  0  0  0  0  0
   -5.7846    3.8935    2.5966 H   0  0  0  0  0  0  0  0  0  0  0  0
   -6.5407    1.6164    3.1373 H   0  0  0  0  0  0  0  0  0  0  0  0
   -5.8111   -0.2747    1.7436 H   0  0  0  0  0  0  0  0  0  0  0  0
   -3.8988   -2.7830    0.1107 H   0  0  0  0  0  0  0  0  0  0  0  0
   -5.4888   -4.6157   -0.3026 H   0  0  0  0  0  0  0  0  0  0  0  0
   -7.6903   -4.1224   -1.2822 H   0  0  0  0  0  0  0  0  0  0  0  0
   -8.2820   -1.8113   -1.8678 H   0  0  0  0  0  0  0  0  0  0  0  0
   -7.2221    0.9438   -0.7524 H   0  0  0  0  0  0  0  0  0  0  0  0
   -7.5472    0.4111   -2.4031 H   0  0  0  0  0  0  0  0  0  0  0  0
   -5.9343    0.9577   -1.9591 H   0  0  0  0  0  0  0  0  0  0  0  0
   -3.4414   -1.1314   -2.6694 H   0  0  0  0  0  0  0  0  0  0  0  0
   -1.1530   -1.4519   -3.4859 H   0  0  0  0  0  0  0  0  0  0  0  0
    1.2786   -1.3161   -3.1246 H   0  0  0  0  0  0  0  0  0  0  0  0
    3.1641   -0.8269   -1.6739 H   0  0  0  0  0  0  0  0  0  0  0  0
    6.0056   -1.3241   -1.2175 H   0  0  0  0  0  0  0  0  0  0  0  0
    6.7777   -0.5872   -3.4353 H   0  0  0  0  0  0  0  0  0  0  0  0
    6.0797    1.6056   -4.3033 H   0  0  0  0  0  0  0  0  0  0  0  0
    4.6425    3.0619   -2.9442 H   0  0  0  0  0  0  0  0  0  0  0  0
    3.8148    3.6603   -0.7762 H   0  0  0  0  0  0  0  0  0  0  0  0
    2.5997    2.3889   -0.6348 H   0  0  0  0  0  0  0  0  0  0  0  0
    3.8896    2.5218    0.5636 H   0  0  0  0  0  0  0  0  0  0  0  0
    6.6860    1.1428    1.1191 H   0  0  0  0  0  0  0  0  0  0  0  0
    8.4040    0.3400    2.6896 H   0  0  0  0  0  0  0  0  0  0  0  0
    8.1040   -1.8200    3.8267 H   0  0  0  0  0  0  0  0  0  0  0  0
    6.1078   -3.1792    3.3729 H   0  0  0  0  0  0  0  0  0  0  0  0
    3.7307   -2.5071    0.6836 H   0  0  0  0  0  0  0  0  0  0  0  0
    4.3021   -3.7062    1.8390 H   0  0  0  0  0  0  0  0  0  0  0  0
    3.2510   -2.3942    2.3777 H   0  0  0  0  0  0  0  0  0  0  0  0
    3.6431    0.6349    2.8492 H   0  0  0  0  0  0  0  0  0  0  0  0
    1.3552    0.9035    3.6832 H   0  0  0  0  0  0  0  0  0  0  0  0
   -1.0762    0.8228    3.3036 H   0  0  0  0  0  0  0  0  0  0  0  0
   -2.9609    0.3754    1.8402 H   0  0  0  0  0  0  0  0  0  0  0  0
  1  2  1  0  0  0  0
  2  3  2  0  0  0  0
  3  4  1  0  0  0  0
  4  5  2  0  0  0  0
  5  6  1  0  0  0  0
  6  7  2  0  0  0  0
  7  8  1  0  0  0  0
  8  9  1  0  0  0  0
  9 10  2  0  0  0  0
 10 11  1  0  0  0  0
 11 12  2  0  0  0  0
 12 13  1  0  0  0  0
 13 14  2  0  0  0  0
 14 15  1  0  0  0  0
  8 16  1  0  0  0  0
 16 17  2  0  0  0  0
 17 18  1  0  0  0  0
 18 19  2  0  0  0  0
 19 20  1  0  0  0  0
 20 21  2  0  0  0  0
 21 22  1  0  0  0  0
 22 23  2  0  0  0  0
 23 24  1  0  0  0  0
 24 25  1  0  0  0  0
 25 26  2  0  0  0  0
 26 27  1  0  0  0  0
 27 28  2  0  0  0  0
 28 29  1  0  0  0  0
 29 30  2  0  0  0  0
 30 31  1  0  0  0  0
 24 32  1  0  0  0  0
 32 33  2  0  0  0  0
 33 34  1  0  0  0  0
 34 35  2  0  0  0  0
 35 36  1  0  0  0  0
 36 37  2  0  0  0  0
 37 38  1  0  0  0  0
 23 39  1  0  0  0  0
 39 40  2  0  0  0  0
 40 41  1  0  0  0  0
 41 42  2  0  0  0  0
 42 43  1  0  0  0  0
 43 44  2  0  0  0  0
 44 45  1  0  0  0  0
 45 46  2  0  0  0  0
  7  2  1  0  0  0  0
 14  9  1  0  0  0  0
 44 16  1  0  0  0  0
 45 19  1  0  0  0  0
 46 22  1  0  0  0  0
 30 25  1  0  0  0  0
 37 32  1  0  0  0  0
 46 41  1  0  0  0  0
  1 47  1  0  0  0  0
  1 48  1  0  0  0  0
  1 49  1  0  0  0  0
  3 50  1  0  0  0  0
  4 51  1  0  0  0  0
  5 52  1  0  0  0  0
  6 53  1  0  0  0  0
 10 54  1  0  0  0  0
 11 55  1  0  0  0  0
 12 56  1  0  0  0  0
 13 57  1  0  0  0  0
 15 58  1  0  0  0  0
 15 59  1  0  0  0  0
 15 60  1  0  0  0  0
 17 61  1  0  0  0  0
 18 62  1  0  0  0  0
 20 63  1  0  0  0  0
 21 64  1  0  0  0  0
 26 65  1  0  0  0  0
 27 66  1  0  0  0  0
 28 67  1  0  0  0  0
 29 68  1  0  0  0  0
 31 69  1  0  0  0  0
 31 70  1  0  0  0  0
 31 71  1  0  0  0  0
 33 72  1  0  0  0  0
 34 73  1  0  0  0  0
 35 74  1  0  0  0  0
 36 75  1  0  0  0  0
 38 76  1  0  0  0  0
 38 77  1  0  0  0  0
 38 78  1  0  0  0  0
 39 79  1  0  0  0  0
 40 80  1  0  0  0  0
 42 81  1  0  0  0  0
 43 82  1  0  0  0  0
M  END
