
  xtb     03012221263D
 energy: -8.401217594611 gnorm: 0.000361180277 xtb: 6.4.1 (afa7bdf)
 39 42  0     0  0            999 V2000
    5.9990   -0.4314   -0.4974 C   0  0  0  0  0  0  0  0  0  0  0  0
    5.3619    0.7726   -0.7231 C   0  0  0  0  0  0  0  0  0  0  0  0
    3.9918    0.8575   -0.6154 C   0  0  0  0  0  0  0  0  0  0  0  0
    3.2333   -0.2611   -0.2795 C   0  0  0  0  0  0  0  0  0  0  0  0
    1.7834   -0.1470   -0.1721 C   0  0  0  0  0  0  0  0  0  0  0  0
    1.1141    0.9826   -0.3767 N   0  0  0  0  0  0  0  0  0  0  0  0
   -0.1908    0.7007   -0.1879 C   0  0  0  0  0  0  0  0  0  0  0  0
   -1.2577    1.6912   -0.3844 C   0  0  0  0  0  0  0  0  0  0  0  0
   -2.5363    1.3266   -0.8038 C   0  0  0  0  0  0  0  0  0  0  0  0
   -3.5105    2.2802   -0.9987 C   0  0  0  0  0  0  0  0  0  0  0  0
   -3.2255    3.6146   -0.7878 C   0  0  0  0  0  0  0  0  0  0  0  0
   -1.9599    3.9947   -0.3876 C   0  0  0  0  0  0  0  0  0  0  0  0
   -0.9837    3.0428   -0.1923 C   0  0  0  0  0  0  0  0  0  0  0  0
   -0.3337   -0.6592    0.1731 C   0  0  0  0  0  0  0  0  0  0  0  0
   -1.5382   -1.3947    0.5738 C   0  0  0  0  0  0  0  0  0  0  0  0
   -1.7222   -2.7142    0.1648 C   0  0  0  0  0  0  0  0  0  0  0  0
   -2.8412   -3.4194    0.5491 C   0  0  0  0  0  0  0  0  0  0  0  0
   -3.7919   -2.8245    1.3548 C   0  0  0  0  0  0  0  0  0  0  0  0
   -3.6195   -1.5222    1.7800 C   0  0  0  0  0  0  0  0  0  0  0  0
   -2.5025   -0.8136    1.3977 C   0  0  0  0  0  0  0  0  0  0  0  0
    0.9259   -1.1794    0.1588 N   0  0  0  0  0  0  0  0  0  0  0  0
    3.8910   -1.4689   -0.0549 C   0  0  0  0  0  0  0  0  0  0  0  0
    5.2618   -1.5504   -0.1636 C   0  0  0  0  0  0  0  0  0  0  0  0
    7.0716   -0.4980   -0.5820 H   0  0  0  0  0  0  0  0  0  0  0  0
    5.9367    1.6461   -0.9839 H   0  0  0  0  0  0  0  0  0  0  0  0
    3.4851    1.7906   -0.7898 H   0  0  0  0  0  0  0  0  0  0  0  0
   -2.7518    0.2886   -0.9864 H   0  0  0  0  0  0  0  0  0  0  0  0
   -4.4959    1.9845   -1.3192 H   0  0  0  0  0  0  0  0  0  0  0  0
   -3.9889    4.3600   -0.9408 H   0  0  0  0  0  0  0  0  0  0  0  0
   -1.7350    5.0367   -0.2301 H   0  0  0  0  0  0  0  0  0  0  0  0
    0.0080    3.3303    0.1111 H   0  0  0  0  0  0  0  0  0  0  0  0
   -0.9794   -3.1728   -0.4645 H   0  0  0  0  0  0  0  0  0  0  0  0
   -2.9745   -4.4372    0.2212 H   0  0  0  0  0  0  0  0  0  0  0  0
   -4.6668   -3.3780    1.6549 H   0  0  0  0  0  0  0  0  0  0  0  0
   -4.3587   -1.0604    2.4137 H   0  0  0  0  0  0  0  0  0  0  0  0
   -2.3584    0.1974    1.7374 H   0  0  0  0  0  0  0  0  0  0  0  0
    1.1800   -2.1345    0.4153 H   0  0  0  0  0  0  0  0  0  0  0  0
    3.3188   -2.3414    0.2041 H   0  0  0  0  0  0  0  0  0  0  0  0
    5.7603   -2.4896    0.0119 H   0  0  0  0  0  0  0  0  0  0  0  0
  1  2  2  0  0  0  0
  2  3  1  0  0  0  0
  3  4  2  0  0  0  0
  4  5  1  0  0  0  0
  5  6  2  0  0  0  0
  6  7  1  0  0  0  0
  7  8  1  0  0  0  0
  8  9  2  0  0  0  0
  9 10  1  0  0  0  0
 10 11  2  0  0  0  0
 11 12  1  0  0  0  0
 12 13  2  0  0  0  0
  7 14  2  0  0  0  0
 14 15  1  0  0  0  0
 15 16  2  0  0  0  0
 16 17  1  0  0  0  0
 17 18  2  0  0  0  0
 18 19  1  0  0  0  0
 19 20  2  0  0  0  0
 14 21  1  0  0  0  0
  4 22  1  0  0  0  0
 22 23  2  0  0  0  0
 23  1  1  0  0  0  0
 21  5  1  0  0  0  0
 13  8  1  0  0  0  0
 20 15  1  0  0  0  0
  1 24  1  0  0  0  0
  2 25  1  0  0  0  0
  3 26  1  0  0  0  0
  9 27  1  0  0  0  0
 10 28  1  0  0  0  0
 11 29  1  0  0  0  0
 12 30  1  0  0  0  0
 13 31  1  0  0  0  0
 16 32  1  0  0  0  0
 17 33  1  0  0  0  0
 18 34  1  0  0  0  0
 19 35  1  0  0  0  0
 20 36  1  0  0  0  0
 21 37  1  0  0  0  0
 22 38  1  0  0  0  0
 23 39  1  0  0  0  0
M  END
