
  xtb     03012221263D
 energy: -11.818978767085 gnorm: 0.000279789324 xtb: 6.4.1 (afa7bdf)
 54 60  0     0  0            999 V2000
    1.8415    2.6182   -1.1329 O   0  0  0  0  0  0  0  0  0  0  0  0
    1.6111    1.4382   -0.9257 C   0  0  0  0  0  0  0  0  0  0  0  0
    0.2406    1.0099   -0.5860 C   0  0  0  0  0  0  0  0  0  0  0  0
   -0.0256   -0.1583    0.1294 C   0  0  0  0  0  0  0  0  0  0  0  0
   -1.3126   -0.5025    0.4525 C   0  0  0  0  0  0  0  0  0  0  0  0
   -2.3858    0.3124    0.0815 C   0  0  0  0  0  0  0  0  0  0  0  0
   -3.7370   -0.0385    0.4346 N   0  0  0  0  0  0  0  0  0  0  0  0
   -4.5009    0.7947    1.2986 C   0  0  0  0  0  0  0  0  0  0  0  0
   -3.9525    1.9300    1.8759 C   0  0  0  0  0  0  0  0  0  0  0  0
   -4.6935    2.7306    2.7208 C   0  0  0  0  0  0  0  0  0  0  0  0
   -6.0012    2.4016    3.0063 C   0  0  0  0  0  0  0  0  0  0  0  0
   -6.5635    1.2696    2.4546 C   0  0  0  0  0  0  0  0  0  0  0  0
   -5.8317    0.4485    1.6047 C   0  0  0  0  0  0  0  0  0  0  0  0
   -6.4355   -0.6954    1.0924 O   0  0  0  0  0  0  0  0  0  0  0  0
   -5.6800   -1.5174    0.2621 C   0  0  0  0  0  0  0  0  0  0  0  0
   -6.2655   -2.6677   -0.2537 C   0  0  0  0  0  0  0  0  0  0  0  0
   -5.5642   -3.5045   -1.0963 C   0  0  0  0  0  0  0  0  0  0  0  0
   -4.2645   -3.2026   -1.4419 C   0  0  0  0  0  0  0  0  0  0  0  0
   -3.6652   -2.0666   -0.9375 C   0  0  0  0  0  0  0  0  0  0  0  0
   -4.3460   -1.2176   -0.0782 C   0  0  0  0  0  0  0  0  0  0  0  0
   -2.1143    1.4891   -0.6218 C   0  0  0  0  0  0  0  0  0  0  0  0
   -0.8261    1.8295   -0.9431 C   0  0  0  0  0  0  0  0  0  0  0  0
    2.7119    0.4543   -1.0092 C   0  0  0  0  0  0  0  0  0  0  0  0
    2.5077   -0.8597   -1.4596 C   0  0  0  0  0  0  0  0  0  0  0  0
    3.5513   -1.7474   -1.5496 C   0  0  0  0  0  0  0  0  0  0  0  0
    4.8293   -1.3350   -1.2018 C   0  0  0  0  0  0  0  0  0  0  0  0
    6.3229   -2.2571   -1.2273 S   0  0  0  0  0  0  0  0  0  0  0  0
    7.2723   -0.8899   -0.6617 C   0  0  0  0  0  0  0  0  0  0  0  0
    8.6350   -0.8288   -0.4182 C   0  0  0  0  0  0  0  0  0  0  0  0
    9.1872    0.3504    0.0263 C   0  0  0  0  0  0  0  0  0  0  0  0
    8.3903    1.4714    0.2306 C   0  0  0  0  0  0  0  0  0  0  0  0
    7.0377    1.4225   -0.0075 C   0  0  0  0  0  0  0  0  0  0  0  0
    6.4642    0.2304   -0.4594 C   0  0  0  0  0  0  0  0  0  0  0  0
    5.0588   -0.0266   -0.7684 C   0  0  0  0  0  0  0  0  0  0  0  0
    3.9915    0.8665   -0.6819 C   0  0  0  0  0  0  0  0  0  0  0  0
    0.7934   -0.7765    0.4520 H   0  0  0  0  0  0  0  0  0  0  0  0
   -1.5144   -1.3962    1.0168 H   0  0  0  0  0  0  0  0  0  0  0  0
   -2.9274    2.1797    1.6657 H   0  0  0  0  0  0  0  0  0  0  0  0
   -4.2499    3.6097    3.1573 H   0  0  0  0  0  0  0  0  0  0  0  0
   -6.5829    3.0254    3.6647 H   0  0  0  0  0  0  0  0  0  0  0  0
   -7.5794    0.9962    2.6763 H   0  0  0  0  0  0  0  0  0  0  0  0
   -7.2827   -2.8864    0.0167 H   0  0  0  0  0  0  0  0  0  0  0  0
   -6.0347   -4.3910   -1.4882 H   0  0  0  0  0  0  0  0  0  0  0  0
   -3.7178   -3.8510   -2.1060 H   0  0  0  0  0  0  0  0  0  0  0  0
   -2.6559   -1.8243   -1.2198 H   0  0  0  0  0  0  0  0  0  0  0  0
   -2.9361    2.1203   -0.9114 H   0  0  0  0  0  0  0  0  0  0  0  0
   -0.6131    2.7420   -1.4732 H   0  0  0  0  0  0  0  0  0  0  0  0
    1.5192   -1.1617   -1.7583 H   0  0  0  0  0  0  0  0  0  0  0  0
    3.3965   -2.7556   -1.8937 H   0  0  0  0  0  0  0  0  0  0  0  0
    9.2418   -1.7027   -0.5804 H   0  0  0  0  0  0  0  0  0  0  0  0
   10.2468    0.4061    0.2177 H   0  0  0  0  0  0  0  0  0  0  0  0
    8.8385    2.3874    0.5789 H   0  0  0  0  0  0  0  0  0  0  0  0
    6.4182    2.2876    0.1486 H   0  0  0  0  0  0  0  0  0  0  0  0
    4.1524    1.8828   -0.3728 H   0  0  0  0  0  0  0  0  0  0  0  0
  1  2  2  0  0  0  0
  2  3  1  0  0  0  0
  3  4  2  0  0  0  0
  4  5  1  0  0  0  0
  5  6  2  0  0  0  0
  6  7  1  0  0  0  0
  7  8  1  0  0  0  0
  8  9  2  0  0  0  0
  9 10  1  0  0  0  0
 10 11  2  0  0  0  0
 11 12  1  0  0  0  0
 12 13  2  0  0  0  0
 13 14  1  0  0  0  0
 14 15  1  0  0  0  0
 15 16  2  0  0  0  0
 16 17  1  0  0  0  0
 17 18  2  0  0  0  0
 18 19  1  0  0  0  0
 19 20  2  0  0  0  0
  6 21  1  0  0  0  0
 21 22  2  0  0  0  0
  2 23  1  0  0  0  0
 23 24  2  0  0  0  0
 24 25  1  0  0  0  0
 25 26  2  0  0  0  0
 26 27  1  0  0  0  0
 27 28  1  0  0  0  0
 28 29  2  0  0  0  0
 29 30  1  0  0  0  0
 30 31  2  0  0  0  0
 31 32  1  0  0  0  0
 32 33  2  0  0  0  0
 33 34  1  0  0  0  0
 34 35  2  0  0  0  0
 22  3  1  0  0  0  0
 35 23  1  0  0  0  0
 20  7  1  0  0  0  0
 34 26  1  0  0  0  0
 13  8  1  0  0  0  0
 20 15  1  0  0  0  0
 33 28  1  0  0  0  0
  4 36  1  0  0  0  0
  5 37  1  0  0  0  0
  9 38  1  0  0  0  0
 10 39  1  0  0  0  0
 11 40  1  0  0  0  0
 12 41  1  0  0  0  0
 16 42  1  0  0  0  0
 17 43  1  0  0  0  0
 18 44  1  0  0  0  0
 19 45  1  0  0  0  0
 21 46  1  0  0  0  0
 22 47  1  0  0  0  0
 24 48  1  0  0  0  0
 25 49  1  0  0  0  0
 29 50  1  0  0  0  0
 30 51  1  0  0  0  0
 31 52  1  0  0  0  0
 32 53  1  0  0  0  0
 35 54  1  0  0  0  0
M  END
