
  xtb     03012221223D
 energy: -4.827330141788 gnorm: 0.000499914500 xtb: 6.4.1 (afa7bdf)
 23 24  0     0  0            999 V2000
   -3.8031    0.2570   -1.1696 C   0  0  0  0  0  0  0  0  0  0  0  0
   -3.3621    0.7848    0.0547 O   0  0  0  0  0  0  0  0  0  0  0  0
   -1.9926    0.6253    0.3089 C   0  0  0  0  0  0  0  0  0  0  0  0
   -1.5121    1.0983    1.5374 C   0  0  0  0  0  0  0  0  0  0  0  0
   -0.1904    0.9860    1.8749 C   0  0  0  0  0  0  0  0  0  0  0  0
    0.7234    0.3955    1.0024 C   0  0  0  0  0  0  0  0  0  0  0  0
    2.0539    0.2952    1.3777 O   0  0  0  0  0  0  0  0  0  0  0  0
    2.9546   -0.2986    0.5051 C   0  0  0  0  0  0  0  0  0  0  0  0
    4.1941   -0.4073    0.8366 N   0  0  0  0  0  0  0  0  0  0  0  0
    2.5035   -0.7973   -0.7802 C   0  0  0  0  0  0  0  0  0  0  0  0
    3.4129   -1.3897   -1.6559 C   0  0  0  0  0  0  0  0  0  0  0  0
    4.1875   -1.8797   -2.3707 N   0  0  0  0  0  0  0  0  0  0  0  0
    1.2005   -0.6845   -1.1219 C   0  0  0  0  0  0  0  0  0  0  0  0
    0.2612   -0.0844   -0.2394 C   0  0  0  0  0  0  0  0  0  0  0  0
   -1.0895    0.0371   -0.5652 C   0  0  0  0  0  0  0  0  0  0  0  0
   -3.3073    0.7714   -1.9943 H   0  0  0  0  0  0  0  0  0  0  0  0
   -4.8796    0.4208   -1.2433 H   0  0  0  0  0  0  0  0  0  0  0  0
   -3.6035   -0.8152   -1.2031 H   0  0  0  0  0  0  0  0  0  0  0  0
   -2.2149    1.5540    2.2124 H   0  0  0  0  0  0  0  0  0  0  0  0
    0.1726    1.3494    2.8202 H   0  0  0  0  0  0  0  0  0  0  0  0
    4.8456   -0.8271    0.2263 H   0  0  0  0  0  0  0  0  0  0  0  0
    0.8693   -1.0554   -2.0753 H   0  0  0  0  0  0  0  0  0  0  0  0
   -1.4240   -0.3357   -1.5143 H   0  0  0  0  0  0  0  0  0  0  0  0
  1  2  1  0  0  0  0
  2  3  1  0  0  0  0
  3  4  2  0  0  0  0
  4  5  1  0  0  0  0
  5  6  2  0  0  0  0
  6  7  1  0  0  0  0
  7  8  1  0  0  0  0
  8  9  2  0  0  0  0
  8 10  1  0  0  0  0
 10 11  1  0  0  0  0
 11 12  3  0  0  0  0
 10 13  2  0  0  0  0
 13 14  1  0  0  0  0
 14 15  2  0  0  0  0
 15  3  1  0  0  0  0
 14  6  1  0  0  0  0
  1 16  1  0  0  0  0
  1 17  1  0  0  0  0
  1 18  1  0  0  0  0
  4 19  1  0  0  0  0
  5 20  1  0  0  0  0
  9 21  1  0  0  0  0
 13 22  1  0  0  0  0
 15 23  1  0  0  0  0
M  END
