
  xtb     03012221243D
 energy: -7.155310556225 gnorm: 0.000233563356 xtb: 6.4.1 (afa7bdf)
 36 38  0     0  0            999 V2000
   -3.3924   -1.3134   -1.0542 C   0  0  0  0  0  0  0  0  0  0  0  0
   -2.3079   -1.4113   -0.0705 N   0  0  0  0  0  0  0  0  0  0  0  0
   -2.0806   -2.7655    0.4301 C   0  0  0  0  0  0  0  0  0  0  0  0
   -1.3017   -0.4197    0.0336 C   0  0  0  0  0  0  0  0  0  0  0  0
    0.0308   -0.7909    0.0675 C   0  0  0  0  0  0  0  0  0  0  0  0
    1.0774    0.1440    0.0775 C   0  0  0  0  0  0  0  0  0  0  0  0
    2.4868   -0.3108    0.0905 C   0  0  0  0  0  0  0  0  0  0  0  0
    3.4550    0.3325   -0.6799 C   0  0  0  0  0  0  0  0  0  0  0  0
    4.7650   -0.0958   -0.6689 C   0  0  0  0  0  0  0  0  0  0  0  0
    5.1343   -1.1735    0.1108 C   0  0  0  0  0  0  0  0  0  0  0  0
    4.1902   -1.8235    0.8801 C   0  0  0  0  0  0  0  0  0  0  0  0
    2.8793   -1.3980    0.8706 C   0  0  0  0  0  0  0  0  0  0  0  0
    0.7664    1.4876    0.0608 C   0  0  0  0  0  0  0  0  0  0  0  0
   -0.5698    1.9320    0.0629 C   0  0  0  0  0  0  0  0  0  0  0  0
   -0.8859    3.3101    0.0861 C   0  0  0  0  0  0  0  0  0  0  0  0
   -2.1826    3.7262    0.1441 C   0  0  0  0  0  0  0  0  0  0  0  0
   -3.2190    2.7909    0.1953 C   0  0  0  0  0  0  0  0  0  0  0  0
   -2.9454    1.4528    0.1664 C   0  0  0  0  0  0  0  0  0  0  0  0
   -1.6224    0.9817    0.0709 C   0  0  0  0  0  0  0  0  0  0  0  0
   -3.2814   -0.4155   -1.6594 H   0  0  0  0  0  0  0  0  0  0  0  0
   -3.3696   -2.1724   -1.7225 H   0  0  0  0  0  0  0  0  0  0  0  0
   -4.3582   -1.2913   -0.5525 H   0  0  0  0  0  0  0  0  0  0  0  0
   -1.5269   -3.3514   -0.3014 H   0  0  0  0  0  0  0  0  0  0  0  0
   -1.5157   -2.7322    1.3601 H   0  0  0  0  0  0  0  0  0  0  0  0
   -3.0311   -3.2588    0.6260 H   0  0  0  0  0  0  0  0  0  0  0  0
    0.2800   -1.8347    0.0312 H   0  0  0  0  0  0  0  0  0  0  0  0
    3.1647    1.1640   -1.2989 H   0  0  0  0  0  0  0  0  0  0  0  0
    5.5016    0.4098   -1.2711 H   0  0  0  0  0  0  0  0  0  0  0  0
    6.1595   -1.5074    0.1189 H   0  0  0  0  0  0  0  0  0  0  0  0
    4.4790   -2.6636    1.4899 H   0  0  0  0  0  0  0  0  0  0  0  0
    2.1458   -1.8972    1.4802 H   0  0  0  0  0  0  0  0  0  0  0  0
    1.5584    2.2141    0.0755 H   0  0  0  0  0  0  0  0  0  0  0  0
   -0.0846    4.0286    0.0659 H   0  0  0  0  0  0  0  0  0  0  0  0
   -2.4115    4.7791    0.1643 H   0  0  0  0  0  0  0  0  0  0  0  0
   -4.2397    3.1303    0.2662 H   0  0  0  0  0  0  0  0  0  0  0  0
   -3.7478    0.7435    0.2540 H   0  0  0  0  0  0  0  0  0  0  0  0
  1  2  1  0  0  0  0
  2  3  1  0  0  0  0
  2  4  1  0  0  0  0
  4  5  2  0  0  0  0
  5  6  1  0  0  0  0
  6  7  1  0  0  0  0
  7  8  2  0  0  0  0
  8  9  1  0  0  0  0
  9 10  2  0  0  0  0
 10 11  1  0  0  0  0
 11 12  2  0  0  0  0
  6 13  2  0  0  0  0
 13 14  1  0  0  0  0
 14 15  2  0  0  0  0
 15 16  1  0  0  0  0
 16 17  2  0  0  0  0
 17 18  1  0  0  0  0
 18 19  2  0  0  0  0
 19  4  1  0  0  0  0
 12  7  1  0  0  0  0
 19 14  1  0  0  0  0
  1 20  1  0  0  0  0
  1 21  1  0  0  0  0
  1 22  1  0  0  0  0
  3 23  1  0  0  0  0
  3 24  1  0  0  0  0
  3 25  1  0  0  0  0
  5 26  1  0  0  0  0
  8 27  1  0  0  0  0
  9 28  1  0  0  0  0
 10 29  1  0  0  0  0
 11 30  1  0  0  0  0
 12 31  1  0  0  0  0
 13 32  1  0  0  0  0
 15 33  1  0  0  0  0
 16 34  1  0  0  0  0
 17 35  1  0  0  0  0
 18 36  1  0  0  0  0
M  END
