
  xtb     03012221283D
 energy: -5.124645882393 gnorm: 0.000126555680 xtb: 6.4.1 (afa7bdf)
 25 27  0     0  0            999 V2000
   -0.2153    2.7779    0.0026 O   0  0  0  0  0  0  0  0  0  0  0  0
   -0.0957    1.3799    0.0067 B   0  0  0  0  0  0  0  0  0  0  0  0
    1.2645    0.6585    0.0635 C   0  0  0  0  0  0  0  0  0  0  0  0
    2.4767    1.3280    0.1455 C   0  0  0  0  0  0  0  0  0  0  0  0
    3.6540    0.6266    0.1916 C   0  0  0  0  0  0  0  0  0  0  0  0
    3.6393   -0.7643    0.1555 C   0  0  0  0  0  0  0  0  0  0  0  0
    2.4510   -1.4390    0.0758 C   0  0  0  0  0  0  0  0  0  0  0  0
    1.2350   -0.7418    0.0299 C   0  0  0  0  0  0  0  0  0  0  0  0
    0.0312   -1.4256   -0.0410 N   0  0  0  0  0  0  0  0  0  0  0  0
   -1.2308   -0.8569   -0.0771 C   0  0  0  0  0  0  0  0  0  0  0  0
   -2.3905   -1.6429   -0.1360 C   0  0  0  0  0  0  0  0  0  0  0  0
   -3.6275   -1.0547   -0.1670 C   0  0  0  0  0  0  0  0  0  0  0  0
   -3.7490    0.3326   -0.1412 C   0  0  0  0  0  0  0  0  0  0  0  0
   -2.6261    1.1177   -0.0850 C   0  0  0  0  0  0  0  0  0  0  0  0
   -1.3720    0.5321   -0.0526 C   0  0  0  0  0  0  0  0  0  0  0  0
    0.6191    3.2859    0.0147 H   0  0  0  0  0  0  0  0  0  0  0  0
    2.4896    2.4028    0.1757 H   0  0  0  0  0  0  0  0  0  0  0  0
    4.5928    1.1515    0.2565 H   0  0  0  0  0  0  0  0  0  0  0  0
    4.5675   -1.3105    0.1917 H   0  0  0  0  0  0  0  0  0  0  0  0
    2.4357   -2.5144    0.0493 H   0  0  0  0  0  0  0  0  0  0  0  0
    0.0784   -2.4411   -0.0614 H   0  0  0  0  0  0  0  0  0  0  0  0
   -2.2940   -2.7142   -0.1555 H   0  0  0  0  0  0  0  0  0  0  0  0
   -4.5128   -1.6674   -0.2112 H   0  0  0  0  0  0  0  0  0  0  0  0
   -4.7252    0.7878   -0.1655 H   0  0  0  0  0  0  0  0  0  0  0  0
   -2.6963    2.1915   -0.0653 H   0  0  0  0  0  0  0  0  0  0  0  0
  1  2  1  0  0  0  0
  2  3  1  0  0  0  0
  3  4  2  0  0  0  0
  4  5  1  0  0  0  0
  5  6  2  0  0  0  0
  6  7  1  0  0  0  0
  7  8  2  0  0  0  0
  8  9  1  0  0  0  0
  9 10  1  0  0  0  0
 10 11  2  0  0  0  0
 11 12  1  0  0  0  0
 12 13  2  0  0  0  0
 13 14  1  0  0  0  0
 14 15  2  0  0  0  0
 15  2  1  0  0  0  0
  8  3  1  0  0  0  0
 15 10  1  0  0  0  0
  1 16  1  0  0  0  0
  4 17  1  0  0  0  0
  5 18  1  0  0  0  0
  6 19  1  0  0  0  0
  7 20  1  0  0  0  0
  9 21  1  0  0  0  0
 11 22  1  0  0  0  0
 12 23  1  0  0  0  0
 13 24  1  0  0  0  0
 14 25  1  0  0  0  0
M  END
