
  xtb     03012221293D
 energy: -17.692545746674 gnorm: 0.000332432875 xtb: 6.4.1 (afa7bdf)
 84 93  0     0  0            999 V2000
    0.2904    9.4728    0.1389 C   0  0  0  0  0  0  0  0  0  0  0  0
    0.2204    7.9857    0.1159 C   0  0  0  0  0  0  0  0  0  0  0  0
   -0.2138    7.3155   -1.0167 C   0  0  0  0  0  0  0  0  0  0  0  0
   -0.2546    5.9351   -1.0727 C   0  0  0  0  0  0  0  0  0  0  0  0
   -0.7332    5.2527   -2.3067 C   0  0  0  0  0  0  0  0  0  0  0  0
    0.1412    5.1869    0.0519 C   0  0  0  0  0  0  0  0  0  0  0  0
    0.0938    3.7040    0.0165 C   0  0  0  0  0  0  0  0  0  0  0  0
   -1.1199    3.0078    0.1001 C   0  0  0  0  0  0  0  0  0  0  0  0
   -2.4306    3.5158    0.3074 C   0  0  0  0  0  0  0  0  0  0  0  0
   -3.2851    2.4508    0.4019 C   0  0  0  0  0  0  0  0  0  0  0  0
   -2.5449    1.2445    0.2439 C   0  0  0  0  0  0  0  0  0  0  0  0
   -3.0831   -0.1004    0.3067 C   0  0  0  0  0  0  0  0  0  0  0  0
   -4.3446   -0.3538    0.8804 C   0  0  0  0  0  0  0  0  0  0  0  0
   -4.8535   -1.6183    0.9455 C   0  0  0  0  0  0  0  0  0  0  0  0
   -4.1463   -2.7206    0.4297 C   0  0  0  0  0  0  0  0  0  0  0  0
   -2.8885   -2.4793   -0.1682 C   0  0  0  0  0  0  0  0  0  0  0  0
   -2.1523   -3.5602   -0.7380 C   0  0  0  0  0  0  0  0  0  0  0  0
   -2.6222   -4.8226   -0.6922 C   0  0  0  0  0  0  0  0  0  0  0  0
   -3.8755   -5.1211   -0.0774 C   0  0  0  0  0  0  0  0  0  0  0  0
   -4.3558   -6.4399   -0.0272 C   0  0  0  0  0  0  0  0  0  0  0  0
   -5.5589   -6.7258    0.5568 C   0  0  0  0  0  0  0  0  0  0  0  0
   -6.3237   -5.7045    1.1102 C   0  0  0  0  0  0  0  0  0  0  0  0
   -5.8813   -4.4095    1.0756 C   0  0  0  0  0  0  0  0  0  0  0  0
   -4.6496   -4.0780    0.4835 C   0  0  0  0  0  0  0  0  0  0  0  0
   -2.3832   -1.1791   -0.2039 C   0  0  0  0  0  0  0  0  0  0  0  0
   -1.2480    1.6314    0.0582 N   0  0  0  0  0  4  0  0  0  0  0  0
   -0.0036    0.7361   -0.0855 B   0  0  0  0  0  4  0  0  0  0  0  0
   -0.0037   -0.1382    0.9982 F   0  0  0  0  0  0  0  0  0  0  0  0
   -0.0619    0.0775   -1.3112 F   0  0  0  0  0  0  0  0  0  0  0  0
    1.3058    1.5482   -0.0783 N   0  0  0  0  0  0  0  0  0  0  0  0
    1.2612    2.9319   -0.0684 C   0  0  0  0  0  0  0  0  0  0  0  0
    2.6099    3.3663   -0.1587 C   0  0  0  0  0  0  0  0  0  0  0  0
    3.4070    2.2562   -0.2195 C   0  0  0  0  0  0  0  0  0  0  0  0
    2.5903    1.0899   -0.1746 C   0  0  0  0  0  0  0  0  0  0  0  0
    3.0650   -0.2779   -0.2249 C   0  0  0  0  0  0  0  0  0  0  0  0
    4.4428   -0.5662   -0.2959 C   0  0  0  0  0  0  0  0  0  0  0  0
    4.9015   -1.8509   -0.3303 C   0  0  0  0  0  0  0  0  0  0  0  0
    4.0186   -2.9456   -0.2885 C   0  0  0  0  0  0  0  0  0  0  0  0
    2.6338   -2.6748   -0.2133 C   0  0  0  0  0  0  0  0  0  0  0  0
    1.7017   -3.7524   -0.1455 C   0  0  0  0  0  0  0  0  0  0  0  0
    2.1167   -5.0344   -0.1681 C   0  0  0  0  0  0  0  0  0  0  0  0
    3.5038   -5.3595   -0.2573 C   0  0  0  0  0  0  0  0  0  0  0  0
    3.9295   -6.6976   -0.2828 C   0  0  0  0  0  0  0  0  0  0  0  0
    5.2587   -7.0087   -0.3632 C   0  0  0  0  0  0  0  0  0  0  0  0
    6.2085   -5.9944   -0.4205 C   0  0  0  0  0  0  0  0  0  0  0  0
    5.8231   -4.6810   -0.3975 C   0  0  0  0  0  0  0  0  0  0  0  0
    4.4655   -4.3233   -0.3156 C   0  0  0  0  0  0  0  0  0  0  0  0
    2.1914   -1.3508   -0.1959 C   0  0  0  0  0  0  0  0  0  0  0  0
    0.5811    5.8591    1.2078 C   0  0  0  0  0  0  0  0  0  0  0  0
    1.0162    5.0989    2.4120 C   0  0  0  0  0  0  0  0  0  0  0  0
    0.6253    7.2406    1.2119 C   0  0  0  0  0  0  0  0  0  0  0  0
   -0.4860    9.9129   -0.4880 H   0  0  0  0  0  0  0  0  0  0  0  0
    0.1560    9.8577    1.1505 H   0  0  0  0  0  0  0  0  0  0  0  0
    1.2567    9.8205   -0.2280 H   0  0  0  0  0  0  0  0  0  0  0  0
   -0.5216    7.8851   -1.8757 H   0  0  0  0  0  0  0  0  0  0  0  0
   -0.5828    5.8770   -3.1882 H   0  0  0  0  0  0  0  0  0  0  0  0
   -0.1975    4.3167   -2.4701 H   0  0  0  0  0  0  0  0  0  0  0  0
   -1.7965    5.0218   -2.2345 H   0  0  0  0  0  0  0  0  0  0  0  0
   -2.6896    4.5568    0.3979 H   0  0  0  0  0  0  0  0  0  0  0  0
   -4.3486    2.5153    0.5579 H   0  0  0  0  0  0  0  0  0  0  0  0
   -4.9032    0.4691    1.2912 H   0  0  0  0  0  0  0  0  0  0  0  0
   -5.8154   -1.7708    1.3996 H   0  0  0  0  0  0  0  0  0  0  0  0
   -1.2199   -3.3437   -1.2291 H   0  0  0  0  0  0  0  0  0  0  0  0
   -2.0554   -5.6285   -1.1279 H   0  0  0  0  0  0  0  0  0  0  0  0
   -3.7615   -7.2284   -0.4569 H   0  0  0  0  0  0  0  0  0  0  0  0
   -5.9160   -7.7421    0.5890 H   0  0  0  0  0  0  0  0  0  0  0  0
   -7.2712   -5.9372    1.5693 H   0  0  0  0  0  0  0  0  0  0  0  0
   -6.4875   -3.6370    1.5118 H   0  0  0  0  0  0  0  0  0  0  0  0
   -1.4232   -1.0089   -0.6475 H   0  0  0  0  0  0  0  0  0  0  0  0
    2.9353    4.3923   -0.1806 H   0  0  0  0  0  0  0  0  0  0  0  0
    4.4808    2.2693   -0.2960 H   0  0  0  0  0  0  0  0  0  0  0  0
    5.1459    0.2474   -0.3223 H   0  0  0  0  0  0  0  0  0  0  0  0
    5.9604   -2.0256   -0.3852 H   0  0  0  0  0  0  0  0  0  0  0  0
    0.6551   -3.5210   -0.0597 H   0  0  0  0  0  0  0  0  0  0  0  0
    1.4001   -5.8371   -0.1143 H   0  0  0  0  0  0  0  0  0  0  0  0
    3.1916   -7.4807   -0.2374 H   0  0  0  0  0  0  0  0  0  0  0  0
    5.5723   -8.0396   -0.3817 H   0  0  0  0  0  0  0  0  0  0  0  0
    7.2549   -6.2467   -0.4833 H   0  0  0  0  0  0  0  0  0  0  0  0
    6.5743   -3.9141   -0.4436 H   0  0  0  0  0  0  0  0  0  0  0  0
    1.1371   -1.1651   -0.1623 H   0  0  0  0  0  0  0  0  0  0  0  0
    0.4705    4.1589    2.5026 H   0  0  0  0  0  0  0  0  0  0  0  0
    0.8405    5.6704    3.3242 H   0  0  0  0  0  0  0  0  0  0  0  0
    2.0801    4.8654    2.3604 H   0  0  0  0  0  0  0  0  0  0  0  0
    0.9786    7.7514    2.0902 H   0  0  0  0  0  0  0  0  0  0  0  0
  1  2  1  0  0  0  0
  2  3  2  0  0  0  0
  3  4  1  0  0  0  0
  4  5  1  0  0  0  0
  4  6  2  0  0  0  0
  6  7  1  0  0  0  0
  7  8  2  0  0  0  0
  8  9  1  0  0  0  0
  9 10  2  0  0  0  0
 10 11  1  0  0  0  0
 11 12  1  0  0  0  0
 12 13  2  0  0  0  0
 13 14  1  0  0  0  0
 14 15  2  0  0  0  0
 15 16  1  0  0  0  0
 16 17  1  0  0  0  0
 17 18  2  0  0  0  0
 18 19  1  0  0  0  0
 19 20  2  0  0  0  0
 20 21  1  0  0  0  0
 21 22  2  0  0  0  0
 22 23  1  0  0  0  0
 23 24  2  0  0  0  0
 16 25  2  0  0  0  0
 11 26  2  0  0  0  0
 26 27  1  0  0  0  0
 27 28  1  0  0  0  0
 27 29  1  0  0  0  0
 27 30  1  0  0  0  0
 30 31  1  0  0  0  0
 31 32  2  0  0  0  0
 32 33  1  0  0  0  0
 33 34  2  0  0  0  0
 34 35  1  0  0  0  0
 35 36  2  0  0  0  0
 36 37  1  0  0  0  0
 37 38  2  0  0  0  0
 38 39  1  0  0  0  0
 39 40  1  0  0  0  0
 40 41  2  0  0  0  0
 41 42  1  0  0  0  0
 42 43  2  0  0  0  0
 43 44  1  0  0  0  0
 44 45  2  0  0  0  0
 45 46  1  0  0  0  0
 46 47  2  0  0  0  0
 39 48  2  0  0  0  0
  6 49  1  0  0  0  0
 49 50  1  0  0  0  0
 49 51  2  0  0  0  0
 51  2  1  0  0  0  0
 31  7  1  0  0  0  0
 48 35  1  0  0  0  0
 26  8  1  0  0  0  0
 34 30  1  0  0  0  0
 47 38  1  0  0  0  0
 25 12  1  0  0  0  0
 47 42  1  0  0  0  0
 24 15  1  0  0  0  0
 24 19  1  0  0  0  0
  1 52  1  0  0  0  0
  1 53  1  0  0  0  0
  1 54  1  0  0  0  0
  3 55  1  0  0  0  0
  5 56  1  0  0  0  0
  5 57  1  0  0  0  0
  5 58  1  0  0  0  0
  9 59  1  0  0  0  0
 10 60  1  0  0  0  0
 13 61  1  0  0  0  0
 14 62  1  0  0  0  0
 17 63  1  0  0  0  0
 18 64  1  0  0  0  0
 20 65  1  0  0  0  0
 21 66  1  0  0  0  0
 22 67  1  0  0  0  0
 23 68  1  0  0  0  0
 25 69  1  0  0  0  0
 32 70  1  0  0  0  0
 33 71  1  0  0  0  0
 36 72  1  0  0  0  0
 37 73  1  0  0  0  0
 40 74  1  0  0  0  0
 41 75  1  0  0  0  0
 43 76  1  0  0  0  0
 44 77  1  0  0  0  0
 45 78  1  0  0  0  0
 46 79  1  0  0  0  0
 48 80  1  0  0  0  0
 50 81  1  0  0  0  0
 50 82  1  0  0  0  0
 50 83  1  0  0  0  0
 51 84  1  0  0  0  0
M  CHG  1  26   1
M  CHG  1  27  -1
M  END
