
  xtb     03012221323D
 energy: -6.934760165754 gnorm: 0.000240579247 xtb: 6.4.1 (afa7bdf)
 36 37  0     0  0            999 V2000
    5.6436   -0.7168   -0.6305 C   0  0  0  0  0  0  0  0  0  0  0  0
    5.2226    0.6971   -0.2950 C   0  0  0  0  0  0  0  0  0  0  0  0
    3.8254    0.8390   -0.3560 O   0  0  0  0  0  0  0  0  0  0  0  0
    3.4276    1.9304    0.3536 C   0  0  0  0  0  0  0  0  0  0  0  0
    4.2322    2.7061    0.8327 O   0  0  0  0  0  0  0  0  0  0  0  0
    2.0746    2.1394    0.4817 N   0  0  0  0  0  0  0  0  0  0  0  0
    1.0873    1.2606    0.4670 C   0  0  0  0  0  0  0  0  0  0  0  0
   -0.1698    1.7631    0.1925 O   0  0  0  0  0  0  0  0  0  0  0  0
   -1.2407    0.8985    0.0823 C   0  0  0  0  0  0  0  0  0  0  0  0
   -2.4931    1.4011   -0.2415 C   0  0  0  0  0  0  0  0  0  0  0  0
   -3.6011    0.5684   -0.3645 C   0  0  0  0  0  0  0  0  0  0  0  0
   -4.8835    1.0043   -0.6883 O   0  0  0  0  0  0  0  0  0  0  0  0
   -5.0089    2.3932   -0.8897 C   0  0  0  0  0  0  0  0  0  0  0  0
   -3.4343   -0.8051   -0.1509 C   0  0  0  0  0  0  0  0  0  0  0  0
   -2.2069   -1.3566    0.1785 C   0  0  0  0  0  0  0  0  0  0  0  0
   -1.9781   -2.7083    0.4106 O   0  0  0  0  0  0  0  0  0  0  0  0
   -3.1152   -3.5309    0.3118 C   0  0  0  0  0  0  0  0  0  0  0  0
   -1.0877   -0.4857    0.2929 C   0  0  0  0  0  0  0  0  0  0  0  0
    0.1791   -0.9720    0.6421 C   0  0  0  0  0  0  0  0  0  0  0  0
    1.2563   -0.1476    0.7439 C   0  0  0  0  0  0  0  0  0  0  0  0
    2.4369   -0.7396    1.2003 C   0  0  0  0  0  0  0  0  0  0  0  0
    3.3896   -1.2842    1.5842 N   0  0  0  0  0  0  0  0  0  0  0  0
    5.3184   -0.9837   -1.6361 H   0  0  0  0  0  0  0  0  0  0  0  0
    6.7245   -0.8535   -0.5704 H   0  0  0  0  0  0  0  0  0  0  0  0
    5.1692   -1.4188    0.0574 H   0  0  0  0  0  0  0  0  0  0  0  0
    5.5298    0.9749    0.7246 H   0  0  0  0  0  0  0  0  0  0  0  0
    5.6539    1.4386   -0.9810 H   0  0  0  0  0  0  0  0  0  0  0  0
   -2.5793    2.4588   -0.3957 H   0  0  0  0  0  0  0  0  0  0  0  0
   -4.7372    2.9230    0.0225 H   0  0  0  0  0  0  0  0  0  0  0  0
   -6.0487    2.6092   -1.1314 H   0  0  0  0  0  0  0  0  0  0  0  0
   -4.3774    2.7026   -1.7216 H   0  0  0  0  0  0  0  0  0  0  0  0
   -4.3027   -1.4278   -0.2505 H   0  0  0  0  0  0  0  0  0  0  0  0
   -3.5173   -3.4831   -0.7000 H   0  0  0  0  0  0  0  0  0  0  0  0
   -3.8610   -3.2173    1.0421 H   0  0  0  0  0  0  0  0  0  0  0  0
   -2.8132   -4.5554    0.5281 H   0  0  0  0  0  0  0  0  0  0  0  0
    0.2855   -2.0217    0.8544 H   0  0  0  0  0  0  0  0  0  0  0  0
  1  2  1  0  0  0  0
  2  3  1  0  0  0  0
  3  4  1  0  0  0  0
  4  5  2  0  0  0  0
  4  6  1  0  0  0  0
  6  7  2  0  0  0  0
  7  8  1  0  0  0  0
  8  9  1  0  0  0  0
  9 10  2  0  0  0  0
 10 11  1  0  0  0  0
 11 12  1  0  0  0  0
 12 13  1  0  0  0  0
 11 14  2  0  0  0  0
 14 15  1  0  0  0  0
 15 16  1  0  0  0  0
 16 17  1  0  0  0  0
 15 18  2  0  0  0  0
 18 19  1  0  0  0  0
 19 20  2  0  0  0  0
 20 21  1  0  0  0  0
 21 22  3  0  0  0  0
 20  7  1  0  0  0  0
 18  9  1  0  0  0  0
  1 23  1  0  0  0  0
  1 24  1  0  0  0  0
  1 25  1  0  0  0  0
  2 26  1  0  0  0  0
  2 27  1  0  0  0  0
 10 28  1  0  0  0  0
 13 29  1  0  0  0  0
 13 30  1  0  0  0  0
 13 31  1  0  0  0  0
 14 32  1  0  0  0  0
 17 33  1  0  0  0  0
 17 34  1  0  0  0  0
 17 35  1  0  0  0  0
 19 36  1  0  0  0  0
M  END
