
  xtb     03012221253D
 energy: -13.095792580333 gnorm: 0.000347330197 xtb: 6.4.1 (afa7bdf)
 65 72  0     0  0            999 V2000
   -2.7318   -4.1675   -0.9290 C   0  0  0  0  0  0  0  0  0  0  0  0
   -2.4279   -2.7451   -0.6954 C   0  0  0  0  0  0  0  0  0  0  0  0
   -1.1858   -2.2120   -0.6002 N   0  0  0  0  0  4  0  0  0  0  0  0
   -1.1837   -0.8464   -0.3550 C   0  0  0  0  0  0  0  0  0  0  0  0
    0.0025   -0.1401   -0.0423 C   0  0  0  0  0  0  0  0  0  0  0  0
   -0.0256    1.2800    0.3587 C   0  0  0  0  0  0  0  0  0  0  0  0
   -0.7640    1.6971    1.4712 C   0  0  0  0  0  0  0  0  0  0  0  0
   -0.7847    3.0220    1.8434 C   0  0  0  0  0  0  0  0  0  0  0  0
   -0.0749    3.9562    1.1167 C   0  0  0  0  0  0  0  0  0  0  0  0
    0.6587    3.5665    0.0147 C   0  0  0  0  0  0  0  0  0  0  0  0
    0.6867    2.2434   -0.3633 C   0  0  0  0  0  0  0  0  0  0  0  0
    1.2175   -0.8606   -0.1331 C   0  0  0  0  0  0  0  0  0  0  0  0
    2.5992   -0.5219    0.1103 C   0  0  0  0  0  0  0  0  0  0  0  0
    3.3818   -1.5887   -0.3903 C   0  0  0  0  0  0  0  0  0  0  0  0
    2.5364   -2.6070   -0.8258 C   0  0  0  0  0  0  0  0  0  0  0  0
    2.8968   -3.9291   -1.3662 C   0  0  0  0  0  0  0  0  0  0  0  0
    1.2740   -2.1504   -0.6409 N   0  0  0  0  0  0  0  0  0  0  0  0
    0.0617   -3.0469   -0.8663 B   0  0  0  0  0  4  0  0  0  0  0  0
    0.1087   -4.1161    0.0271 F   0  0  0  0  0  0  0  0  0  0  0  0
    0.0453   -3.4880   -2.1884 F   0  0  0  0  0  0  0  0  0  0  0  0
    4.8764   -1.5600   -0.3873 C   0  0  0  0  0  0  0  0  0  0  0  0
    5.4065   -0.1089   -0.3497 C   0  0  0  0  0  0  0  0  0  0  0  0
    4.6369    0.7822    0.5936 C   0  0  0  0  0  0  0  0  0  0  0  0
    5.2840    1.7971    1.2738 C   0  0  0  0  0  0  0  0  0  0  0  0
    4.6088    2.5904    2.1796 C   0  0  0  0  0  0  0  0  0  0  0  0
    3.2723    2.3623    2.4326 C   0  0  0  0  0  0  0  0  0  0  0  0
    2.6097    1.3615    1.7651 C   0  0  0  0  0  0  0  0  0  0  0  0
    3.2565    0.5777    0.8061 C   0  0  0  0  0  0  0  0  0  0  0  0
   -2.5798   -0.4833   -0.3983 C   0  0  0  0  0  0  0  0  0  0  0  0
   -3.3159   -1.6829   -0.5394 C   0  0  0  0  0  0  0  0  0  0  0  0
   -4.8105   -1.7145   -0.5376 C   0  0  0  0  0  0  0  0  0  0  0  0
   -5.3935   -0.4815    0.1889 C   0  0  0  0  0  0  0  0  0  0  0  0
   -4.6701    0.8011   -0.1396 C   0  0  0  0  0  0  0  0  0  0  0  0
   -5.3632    1.9963   -0.1901 C   0  0  0  0  0  0  0  0  0  0  0  0
   -4.7300    3.1723   -0.5391 C   0  0  0  0  0  0  0  0  0  0  0  0
   -3.3896    3.1626   -0.8639 C   0  0  0  0  0  0  0  0  0  0  0  0
   -2.6816    1.9867   -0.8165 C   0  0  0  0  0  0  0  0  0  0  0  0
   -3.2862    0.7918   -0.4175 C   0  0  0  0  0  0  0  0  0  0  0  0
   -3.2196   -4.6099   -0.0602 H   0  0  0  0  0  0  0  0  0  0  0  0
   -3.3845   -4.2906   -1.7936 H   0  0  0  0  0  0  0  0  0  0  0  0
   -1.8105   -4.7203   -1.1178 H   0  0  0  0  0  0  0  0  0  0  0  0
   -1.3187    0.9645    2.0309 H   0  0  0  0  0  0  0  0  0  0  0  0
   -1.3586    3.3307    2.7008 H   0  0  0  0  0  0  0  0  0  0  0  0
   -0.0934    4.9941    1.4112 H   0  0  0  0  0  0  0  0  0  0  0  0
    1.2136    4.2982   -0.5479 H   0  0  0  0  0  0  0  0  0  0  0  0
    1.2602    1.9325   -1.2189 H   0  0  0  0  0  0  0  0  0  0  0  0
    3.4130   -3.8328   -2.3213 H   0  0  0  0  0  0  0  0  0  0  0  0
    1.9974   -4.5252   -1.5260 H   0  0  0  0  0  0  0  0  0  0  0  0
    3.5434   -4.4703   -0.6755 H   0  0  0  0  0  0  0  0  0  0  0  0
    5.2522   -2.0905   -1.2700 H   0  0  0  0  0  0  0  0  0  0  0  0
    5.2416   -2.1179    0.4818 H   0  0  0  0  0  0  0  0  0  0  0  0
    5.3606    0.3273   -1.3541 H   0  0  0  0  0  0  0  0  0  0  0  0
    6.4671   -0.0995   -0.0707 H   0  0  0  0  0  0  0  0  0  0  0  0
    6.3329    1.9608    1.0954 H   0  0  0  0  0  0  0  0  0  0  0  0
    5.1300    3.3776    2.7015 H   0  0  0  0  0  0  0  0  0  0  0  0
    2.7490    2.9657    3.1560 H   0  0  0  0  0  0  0  0  0  0  0  0
    1.5818    1.1569    1.9974 H   0  0  0  0  0  0  0  0  0  0  0  0
   -5.1540   -2.6435   -0.0678 H   0  0  0  0  0  0  0  0  0  0  0  0
   -5.1674   -1.7465   -1.5727 H   0  0  0  0  0  0  0  0  0  0  0  0
   -5.3497   -0.6366    1.2730 H   0  0  0  0  0  0  0  0  0  0  0  0
   -6.4576   -0.3676   -0.0513 H   0  0  0  0  0  0  0  0  0  0  0  0
   -6.4149    2.0015    0.0398 H   0  0  0  0  0  0  0  0  0  0  0  0
   -5.2869    4.0955   -0.5736 H   0  0  0  0  0  0  0  0  0  0  0  0
   -2.8988    4.0754   -1.1591 H   0  0  0  0  0  0  0  0  0  0  0  0
   -1.6502    1.9741   -1.1139 H   0  0  0  0  0  0  0  0  0  0  0  0
  1  2  1  0  0  0  0
  2  3  2  0  0  0  0
  3  4  1  0  0  0  0
  4  5  2  0  0  0  0
  5  6  1  0  0  0  0
  6  7  2  0  0  0  0
  7  8  1  0  0  0  0
  8  9  2  0  0  0  0
  9 10  1  0  0  0  0
 10 11  2  0  0  0  0
  5 12  1  0  0  0  0
 12 13  2  0  0  0  0
 13 14  1  0  0  0  0
 14 15  2  0  0  0  0
 15 16  1  0  0  0  0
 15 17  1  0  0  0  0
 17 18  1  0  0  0  0
 18 19  1  0  0  0  0
 18 20  1  0  0  0  0
 14 21  1  0  0  0  0
 21 22  1  0  0  0  0
 22 23  1  0  0  0  0
 23 24  2  0  0  0  0
 24 25  1  0  0  0  0
 25 26  2  0  0  0  0
 26 27  1  0  0  0  0
 27 28  2  0  0  0  0
  4 29  1  0  0  0  0
 29 30  2  0  0  0  0
 30 31  1  0  0  0  0
 31 32  1  0  0  0  0
 32 33  1  0  0  0  0
 33 34  2  0  0  0  0
 34 35  1  0  0  0  0
 35 36  2  0  0  0  0
 36 37  1  0  0  0  0
 37 38  2  0  0  0  0
 30  2  1  0  0  0  0
 38 33  1  0  0  0  0
 18  3  1  0  0  0  0
 28 23  1  0  0  0  0
 38 29  1  0  0  0  0
 11  6  1  0  0  0  0
 17 12  1  0  0  0  0
 28 13  1  0  0  0  0
  1 39  1  0  0  0  0
  1 40  1  0  0  0  0
  1 41  1  0  0  0  0
  7 42  1  0  0  0  0
  8 43  1  0  0  0  0
  9 44  1  0  0  0  0
 10 45  1  0  0  0  0
 11 46  1  0  0  0  0
 16 47  1  0  0  0  0
 16 48  1  0  0  0  0
 16 49  1  0  0  0  0
 21 50  1  0  0  0  0
 21 51  1  0  0  0  0
 22 52  1  0  0  0  0
 22 53  1  0  0  0  0
 24 54  1  0  0  0  0
 25 55  1  0  0  0  0
 26 56  1  0  0  0  0
 27 57  1  0  0  0  0
 31 58  1  0  0  0  0
 31 59  1  0  0  0  0
 32 60  1  0  0  0  0
 32 61  1  0  0  0  0
 34 62  1  0  0  0  0
 35 63  1  0  0  0  0
 36 64  1  0  0  0  0
 37 65  1  0  0  0  0
M  CHG  1   3   1
M  CHG  1  18  -1
M  END
