
  xtb     03012221213D
 energy: -5.548848443730 gnorm: 0.000320243435 xtb: 6.4.1 (afa7bdf)
 27 28  0     0  0            999 V2000
   -5.3623   -0.0210    0.3012 N   0  0  0  0  0  0  0  0  0  0  0  0
   -4.0012   -0.0547    0.0746 C   0  0  0  0  0  0  0  0  0  0  0  0
   -3.4848   -0.5600   -1.1237 C   0  0  0  0  0  0  0  0  0  0  0  0
   -2.1323   -0.5926   -1.3460 C   0  0  0  0  0  0  0  0  0  0  0  0
   -1.2276   -0.1247   -0.3847 C   0  0  0  0  0  0  0  0  0  0  0  0
    0.1947   -0.1783   -0.6594 C   0  0  0  0  0  0  0  0  0  0  0  0
    1.1678    0.2144    0.1804 C   0  0  0  0  0  0  0  0  0  0  0  0
    2.5925    0.1585   -0.1011 C   0  0  0  0  0  0  0  0  0  0  0  0
    3.1133   -0.2858   -1.3096 C   0  0  0  0  0  0  0  0  0  0  0  0
    4.4740   -0.2974   -1.4710 C   0  0  0  0  0  0  0  0  0  0  0  0
    5.2717    0.1295   -0.4348 C   0  0  0  0  0  0  0  0  0  0  0  0
    4.8200    0.5605    0.7309 N   0  0  0  0  0  0  0  0  0  0  0  0
    3.5081    0.5645    0.8667 C   0  0  0  0  0  0  0  0  0  0  0  0
   -1.7483    0.3800    0.8137 C   0  0  0  0  0  0  0  0  0  0  0  0
   -3.1009    0.4140    1.0381 C   0  0  0  0  0  0  0  0  0  0  0  0
   -6.0419   -0.2251   -0.4189 H   0  0  0  0  0  0  0  0  0  0  0  0
   -5.7728    0.4589    1.0906 H   0  0  0  0  0  0  0  0  0  0  0  0
   -4.1689   -0.9258   -1.8689 H   0  0  0  0  0  0  0  0  0  0  0  0
   -1.7509   -0.9849   -2.2730 H   0  0  0  0  0  0  0  0  0  0  0  0
    0.4748   -0.5718   -1.6190 H   0  0  0  0  0  0  0  0  0  0  0  0
    0.8927    0.6008    1.1441 H   0  0  0  0  0  0  0  0  0  0  0  0
    2.4665   -0.6123   -2.1052 H   0  0  0  0  0  0  0  0  0  0  0  0
    4.9124   -0.6352   -2.3952 H   0  0  0  0  0  0  0  0  0  0  0  0
    6.3445    0.1221   -0.5570 H   0  0  0  0  0  0  0  0  0  0  0  0
    3.1299    0.9147    1.8142 H   0  0  0  0  0  0  0  0  0  0  0  0
   -1.0810    0.7493    1.5712 H   0  0  0  0  0  0  0  0  0  0  0  0
   -3.4899    0.8026    1.9627 H   0  0  0  0  0  0  0  0  0  0  0  0
  1  2  1  0  0  0  0
  2  3  2  0  0  0  0
  3  4  1  0  0  0  0
  4  5  2  0  0  0  0
  5  6  1  0  0  0  0
  6  7  2  0  0  0  0
  7  8  1  0  0  0  0
  8  9  2  0  0  0  0
  9 10  1  0  0  0  0
 10 11  2  0  0  0  0
 11 12  1  0  0  0  0
 12 13  2  0  0  0  0
  5 14  1  0  0  0  0
 14 15  2  0  0  0  0
 15  2  1  0  0  0  0
 13  8  1  0  0  0  0
  1 16  1  0  0  0  0
  1 17  1  0  0  0  0
  3 18  1  0  0  0  0
  4 19  1  0  0  0  0
  6 20  1  0  0  0  0
  7 21  1  0  0  0  0
  9 22  1  0  0  0  0
 10 23  1  0  0  0  0
 11 24  1  0  0  0  0
 13 25  1  0  0  0  0
 14 26  1  0  0  0  0
 15 27  1  0  0  0  0
M  END
