
  xtb     03012221283D
 energy: -7.357618055814 gnorm: 0.000269337444 xtb: 6.4.1 (afa7bdf)
 37 40  0     0  0            999 V2000
   -0.9860   -3.5448    1.3112 F   0  0  0  0  0  0  0  0  0  0  0  0
   -0.7710   -2.6928    0.2292 B   0  0  0  0  0  4  0  0  0  0  0  0
   -0.8812   -3.3868   -0.9755 F   0  0  0  0  0  0  0  0  0  0  0  0
    0.5507   -2.0628    0.3226 O   0  0  0  0  0  0  0  0  0  0  0  0
    0.7516   -0.7510    0.0271 C   0  0  0  0  0  0  0  0  0  0  0  0
    2.1515   -0.3210   -0.0770 C   0  0  0  0  0  0  0  0  0  0  0  0
    2.5367    0.9606   -0.4628 C   0  0  0  0  0  0  0  0  0  0  0  0
    3.8686    1.2946   -0.5354 C   0  0  0  0  0  0  0  0  0  0  0  0
    4.8418    0.3659   -0.2295 C   0  0  0  0  0  0  0  0  0  0  0  0
    6.3128    0.7335   -0.3012 C   0  0  0  0  0  0  0  0  0  0  0  0
    6.8438    0.6133    0.9333 F   0  0  0  0  0  0  0  0  0  0  0  0
    6.4328    2.0045   -0.7382 F   0  0  0  0  0  0  0  0  0  0  0  0
    6.9254   -0.1128   -1.1548 F   0  0  0  0  0  0  0  0  0  0  0  0
    4.4736   -0.9079    0.1486 C   0  0  0  0  0  0  0  0  0  0  0  0
    3.1434   -1.2469    0.2222 C   0  0  0  0  0  0  0  0  0  0  0  0
   -0.2990    0.1040   -0.1409 C   0  0  0  0  0  0  0  0  0  0  0  0
   -1.6407   -0.3283    0.0087 C   0  0  0  0  0  0  0  0  0  0  0  0
   -2.7551    0.5693   -0.0585 C   0  0  0  0  0  0  0  0  0  0  0  0
   -2.6221    1.9537   -0.2937 C   0  0  0  0  0  0  0  0  0  0  0  0
   -3.7165    2.7664   -0.3434 C   0  0  0  0  0  0  0  0  0  0  0  0
   -4.9960    2.2431   -0.1611 C   0  0  0  0  0  0  0  0  0  0  0  0
   -5.1666    0.9117    0.0684 C   0  0  0  0  0  0  0  0  0  0  0  0
   -4.0570    0.0440    0.1254 C   0  0  0  0  0  0  0  0  0  0  0  0
   -4.2171   -1.3377    0.3616 C   0  0  0  0  0  0  0  0  0  0  0  0
   -3.1274   -2.1432    0.4065 C   0  0  0  0  0  0  0  0  0  0  0  0
   -1.8820   -1.6378    0.2376 N   0  0  0  0  0  4  0  0  0  0  0  0
    1.7947    1.6960   -0.7139 H   0  0  0  0  0  0  0  0  0  0  0  0
    4.1762    2.2838   -0.8330 H   0  0  0  0  0  0  0  0  0  0  0  0
    5.2439   -1.6250    0.3821 H   0  0  0  0  0  0  0  0  0  0  0  0
    2.8433   -2.2399    0.5123 H   0  0  0  0  0  0  0  0  0  0  0  0
   -0.1045    1.1350   -0.3548 H   0  0  0  0  0  0  0  0  0  0  0  0
   -1.6465    2.3798   -0.4366 H   0  0  0  0  0  0  0  0  0  0  0  0
   -3.5949    3.8214   -0.5245 H   0  0  0  0  0  0  0  0  0  0  0  0
   -5.8514    2.8975   -0.2024 H   0  0  0  0  0  0  0  0  0  0  0  0
   -6.1536    0.5074    0.2094 H   0  0  0  0  0  0  0  0  0  0  0  0
   -5.2046   -1.7424    0.5005 H   0  0  0  0  0  0  0  0  0  0  0  0
   -3.2172   -3.2039    0.5766 H   0  0  0  0  0  0  0  0  0  0  0  0
  1  2  1  0  0  0  0
  2  3  1  0  0  0  0
  2  4  1  0  0  0  0
  4  5  1  0  0  0  0
  5  6  1  0  0  0  0
  6  7  2  0  0  0  0
  7  8  1  0  0  0  0
  8  9  2  0  0  0  0
  9 10  1  0  0  0  0
 10 11  1  0  0  0  0
 10 12  1  0  0  0  0
 10 13  1  0  0  0  0
  9 14  1  0  0  0  0
 14 15  2  0  0  0  0
  5 16  2  0  0  0  0
 16 17  1  0  0  0  0
 17 18  2  0  0  0  0
 18 19  1  0  0  0  0
 19 20  2  0  0  0  0
 20 21  1  0  0  0  0
 21 22  2  0  0  0  0
 22 23  1  0  0  0  0
 23 24  2  0  0  0  0
 24 25  1  0  0  0  0
 25 26  2  0  0  0  0
 26  2  1  0  0  0  0
 15  6  1  0  0  0  0
 26 17  1  0  0  0  0
 23 18  1  0  0  0  0
  7 27  1  0  0  0  0
  8 28  1  0  0  0  0
 14 29  1  0  0  0  0
 15 30  1  0  0  0  0
 16 31  1  0  0  0  0
 19 32  1  0  0  0  0
 20 33  1  0  0  0  0
 21 34  1  0  0  0  0
 22 35  1  0  0  0  0
 24 36  1  0  0  0  0
 25 37  1  0  0  0  0
M  CHG  1   2  -1
M  CHG  1  26   1
M  END
