
  xtb     03012221293D
 energy: -4.898837411751 gnorm: 0.000279888646 xtb: 6.4.1 (afa7bdf)
 24 26  0     0  0            999 V2000
    5.5446    0.2084   -0.0890 C   0  0  0  0  0  0  0  0  0  0  0  0
    5.4172   -1.1314   -0.2056 C   0  0  0  0  0  0  0  0  0  0  0  0
    3.7534   -1.5910   -0.2196 S   0  0  0  0  0  0  0  0  0  0  0  0
    3.2157    0.0636   -0.0639 C   0  0  0  0  0  0  0  0  0  0  0  0
    1.8334    0.4641   -0.0048 C   0  0  0  0  0  0  0  0  0  0  0  0
    1.3628    1.7448    0.1168 C   0  0  0  0  0  0  0  0  0  0  0  0
   -0.0436    1.8395    0.1526 C   0  0  0  0  0  0  0  0  0  0  0  0
   -0.6767    0.6319    0.0580 C   0  0  0  0  0  0  0  0  0  0  0  0
   -2.0271    0.4412    0.0686 N   0  0  0  0  0  0  0  0  0  0  0  0
   -2.4959   -0.7053   -0.0347 N   0  0  0  0  0  0  0  0  0  0  0  0
   -3.8448   -0.8989   -0.0187 C   0  0  0  0  0  0  0  0  0  0  0  0
   -4.4330   -2.0627   -0.1249 N   0  0  0  0  0  0  0  0  0  0  0  0
   -5.7899   -1.9473   -0.0756 C   0  0  0  0  0  0  0  0  0  0  0  0
   -6.2771   -0.6952    0.0692 C   0  0  0  0  0  0  0  0  0  0  0  0
   -4.9805    0.4270    0.1519 S   0  0  0  0  0  0  0  0  0  0  0  0
    0.4919   -0.6466   -0.0794 S   0  0  0  0  0  0  0  0  0  0  0  0
    4.3019    0.8907   -0.0085 C   0  0  0  0  0  0  0  0  0  0  0  0
    6.4986    0.7150   -0.0592 H   0  0  0  0  0  0  0  0  0  0  0  0
    6.2283   -1.8310   -0.2802 H   0  0  0  0  0  0  0  0  0  0  0  0
    2.0102    2.6048    0.1817 H   0  0  0  0  0  0  0  0  0  0  0  0
   -0.5821    2.7695    0.2458 H   0  0  0  0  0  0  0  0  0  0  0  0
   -6.4159   -2.8270   -0.1550 H   0  0  0  0  0  0  0  0  0  0  0  0
   -7.3144   -0.4262    0.1238 H   0  0  0  0  0  0  0  0  0  0  0  0
    4.2231    1.9620    0.0874 H   0  0  0  0  0  0  0  0  0  0  0  0
  1  2  2  0  0  0  0
  2  3  1  0  0  0  0
  3  4  1  0  0  0  0
  4  5  1  0  0  0  0
  5  6  2  0  0  0  0
  6  7  1  0  0  0  0
  7  8  2  0  0  0  0
  8  9  1  0  0  0  0
  9 10  2  0  0  0  0
 10 11  1  0  0  0  0
 11 12  2  0  0  0  0
 12 13  1  0  0  0  0
 13 14  2  0  0  0  0
 14 15  1  0  0  0  0
  8 16  1  0  0  0  0
  4 17  2  0  0  0  0
 17  1  1  0  0  0  0
 16  5  1  0  0  0  0
 15 11  1  0  0  0  0
  1 18  1  0  0  0  0
  2 19  1  0  0  0  0
  6 20  1  0  0  0  0
  7 21  1  0  0  0  0
 13 22  1  0  0  0  0
 14 23  1  0  0  0  0
 17 24  1  0  0  0  0
M  END
