
  xtb     03012221263D
 energy: -7.605146811598 gnorm: 0.000344681876 xtb: 6.4.1 (afa7bdf)
 36 39  0     0  0            999 V2000
    6.0590    1.7125    0.1322 C   0  0  0  0  0  0  0  0  0  0  0  0
    5.8015    0.3343    0.0388 O   0  0  0  0  0  0  0  0  0  0  0  0
    4.4505   -0.0073    0.0190 C   0  0  0  0  0  0  0  0  0  0  0  0
    3.3937    0.9067    0.0798 C   0  0  0  0  0  0  0  0  0  0  0  0
    2.0924    0.4762    0.0576 C   0  0  0  0  0  0  0  0  0  0  0  0
    1.7715   -0.8792   -0.0259 C   0  0  0  0  0  0  0  0  0  0  0  0
    0.3634   -1.2731   -0.0410 C   0  0  0  0  0  0  0  0  0  0  0  0
   -0.5163   -0.3084    0.0354 N   0  0  0  0  0  0  0  0  0  0  0  0
   -1.8299   -0.6520    0.0262 C   0  0  0  0  0  0  0  0  0  0  0  0
   -2.2495   -1.9813   -0.0617 C   0  0  0  0  0  0  0  0  0  0  0  0
   -3.6317   -2.2850   -0.0674 C   0  0  0  0  0  0  0  0  0  0  0  0
   -4.5692   -1.3108    0.0089 C   0  0  0  0  0  0  0  0  0  0  0  0
   -4.1913    0.0533    0.0983 C   0  0  0  0  0  0  0  0  0  0  0  0
   -5.1410    1.0886    0.1785 C   0  0  0  0  0  0  0  0  0  0  0  0
   -4.7444    2.3919    0.2640 C   0  0  0  0  0  0  0  0  0  0  0  0
   -3.3882    2.7169    0.2730 C   0  0  0  0  0  0  0  0  0  0  0  0
   -2.4444    1.7337    0.1964 C   0  0  0  0  0  0  0  0  0  0  0  0
   -2.8185    0.3839    0.1075 C   0  0  0  0  0  0  0  0  0  0  0  0
   -1.3536   -3.0087   -0.1448 O   0  0  0  0  0  0  0  0  0  0  0  0
   -0.0249   -2.6813   -0.1357 C   0  0  0  0  0  0  0  0  0  0  0  0
    0.8420   -3.5428   -0.2040 O   0  0  0  0  0  0  0  0  0  0  0  0
    2.8285   -1.7884   -0.0887 C   0  0  0  0  0  0  0  0  0  0  0  0
    4.1311   -1.3657   -0.0675 C   0  0  0  0  0  0  0  0  0  0  0  0
    7.1400    1.8595    0.1435 H   0  0  0  0  0  0  0  0  0  0  0  0
    5.6379    2.1070    1.0582 H   0  0  0  0  0  0  0  0  0  0  0  0
    5.6399    2.2276   -0.7336 H   0  0  0  0  0  0  0  0  0  0  0  0
    3.6015    1.9589    0.1443 H   0  0  0  0  0  0  0  0  0  0  0  0
    1.2867    1.1869    0.1058 H   0  0  0  0  0  0  0  0  0  0  0  0
   -3.9149   -3.3198   -0.1354 H   0  0  0  0  0  0  0  0  0  0  0  0
   -5.6158   -1.5618    0.0024 H   0  0  0  0  0  0  0  0  0  0  0  0
   -6.1876    0.8385    0.1717 H   0  0  0  0  0  0  0  0  0  0  0  0
   -5.4815    3.1764    0.3247 H   0  0  0  0  0  0  0  0  0  0  0  0
   -3.0866    3.7490    0.3407 H   0  0  0  0  0  0  0  0  0  0  0  0
   -1.3969    1.9758    0.2028 H   0  0  0  0  0  0  0  0  0  0  0  0
    2.6072   -2.8379   -0.1551 H   0  0  0  0  0  0  0  0  0  0  0  0
    4.9393   -2.0739   -0.1159 H   0  0  0  0  0  0  0  0  0  0  0  0
  1  2  1  0  0  0  0
  2  3  1  0  0  0  0
  3  4  2  0  0  0  0
  4  5  1  0  0  0  0
  5  6  2  0  0  0  0
  6  7  1  0  0  0  0
  7  8  2  0  0  0  0
  8  9  1  0  0  0  0
  9 10  2  0  0  0  0
 10 11  1  0  0  0  0
 11 12  2  0  0  0  0
 12 13  1  0  0  0  0
 13 14  2  0  0  0  0
 14 15  1  0  0  0  0
 15 16  2  0  0  0  0
 16 17  1  0  0  0  0
 17 18  2  0  0  0  0
 10 19  1  0  0  0  0
 19 20  1  0  0  0  0
 20 21  2  0  0  0  0
  6 22  1  0  0  0  0
 22 23  2  0  0  0  0
 23  3  1  0  0  0  0
 20  7  1  0  0  0  0
 18  9  1  0  0  0  0
 18 13  1  0  0  0  0
  1 24  1  0  0  0  0
  1 25  1  0  0  0  0
  1 26  1  0  0  0  0
  4 27  1  0  0  0  0
  5 28  1  0  0  0  0
 11 29  1  0  0  0  0
 12 30  1  0  0  0  0
 14 31  1  0  0  0  0
 15 32  1  0  0  0  0
 16 33  1  0  0  0  0
 17 34  1  0  0  0  0
 22 35  1  0  0  0  0
 23 36  1  0  0  0  0
M  END
