
  xtb     02282218183D
 energy: -39.530635041832 gnorm: 0.000128580557 xtb: 6.4.1 (afa7bdf)
 21 23  0     0  0            999 V2000
   -0.2481   -1.6474   -1.9463 F   0  0  0  0  0  0  0  0  0  0  0  0
   -0.0241   -1.3845   -0.6138 B   0  0  0  0  0  4  0  0  0  0  0  0
    0.1741   -2.5579    0.0775 F   0  0  0  0  0  0  0  0  0  0  0  0
   -1.2332   -0.6190   -0.0178 N   0  0  0  0  0  0  0  0  0  0  0  0
   -2.4873   -1.0440    0.0570 C   0  0  0  0  0  0  0  0  0  0  0  0
   -3.2942   -0.0675    0.6589 C   0  0  0  0  0  0  0  0  0  0  0  0
   -2.4756    0.9968    0.9586 C   0  0  0  0  0  0  0  0  0  0  0  0
   -1.1720    0.6460    0.5297 C   0  0  0  0  0  0  0  0  0  0  0  0
    0.0223    1.3453    0.5903 C   0  0  0  0  0  0  0  0  0  0  0  0
    1.1959    0.7943    0.1024 C   0  0  0  0  0  0  0  0  0  0  0  0
    2.5147    1.3092    0.0580 C   0  0  0  0  0  0  0  0  0  0  0  0
    3.2998    0.3452   -0.5311 C   0  0  0  0  0  0  0  0  0  0  0  0
    2.4581   -0.7345   -0.8355 C   0  0  0  0  0  0  0  0  0  0  0  0
    1.2150   -0.4657   -0.4596 N   0  0  0  0  0  4  0  0  0  0  0  0
   -2.7628   -2.0126   -0.3143 H   0  0  0  0  0  0  0  0  0  0  0  0
   -4.3469   -0.1534    0.8419 H   0  0  0  0  0  0  0  0  0  0  0  0
   -2.7450    1.9236    1.4259 H   0  0  0  0  0  0  0  0  0  0  0  0
    0.0388    2.3336    1.0247 H   0  0  0  0  0  0  0  0  0  0  0  0
    2.8159    2.2718    0.4221 H   0  0  0  0  0  0  0  0  0  0  0  0
    4.3525    0.3911   -0.7282 H   0  0  0  0  0  0  0  0  0  0  0  0
    2.7019   -1.6706   -1.3004 H   0  0  0  0  0  0  0  0  0  0  0  0
  1  2  1  0  0  0  0
  2  3  1  0  0  0  0
  2  4  1  0  0  0  0
  4  5  1  0  0  0  0
  5  6  2  0  0  0  0
  6  7  1  0  0  0  0
  7  8  2  0  0  0  0
  8  9  1  0  0  0  0
  9 10  2  0  0  0  0
 10 11  1  0  0  0  0
 11 12  2  0  0  0  0
 12 13  1  0  0  0  0
 13 14  2  0  0  0  0
 14  2  1  0  0  0  0
  8  4  1  0  0  0  0
 14 10  1  0  0  0  0
  5 15  1  0  0  0  0
  6 16  1  0  0  0  0
  7 17  1  0  0  0  0
  9 18  1  0  0  0  0
 11 19  1  0  0  0  0
 12 20  1  0  0  0  0
 13 21  1  0  0  0  0
M  CHG  1   2  -1
M  CHG  1  14   1
M  END
