
  xtb     02282218183D
 energy: -41.952685587592 gnorm: 0.000184174129 xtb: 6.4.1 (afa7bdf)
 28 30  0     0  0            999 V2000
   -2.4259    2.4453    1.3287 C   0  0  0  0  0  0  0  0  0  0  0  0
   -1.5306    1.4097    0.7560 C   0  0  0  0  0  0  0  0  0  0  0  0
   -0.2242    1.3991    0.8507 N   0  0  0  0  0  0  0  0  0  0  0  0
    0.2376    0.3077    0.1888 C   0  0  0  0  0  0  0  0  0  0  0  0
    1.6607    0.0328    0.1116 C   0  0  0  0  0  0  0  0  0  0  0  0
    2.2229   -0.6957   -0.9359 C   0  0  0  0  0  0  0  0  0  0  0  0
    3.5834   -0.9375   -0.9682 C   0  0  0  0  0  0  0  0  0  0  0  0
    4.4053   -0.4517    0.0349 C   0  0  0  0  0  0  0  0  0  0  0  0
    3.8589    0.2932    1.0681 C   0  0  0  0  0  0  0  0  0  0  0  0
    2.5006    0.5355    1.1066 C   0  0  0  0  0  0  0  0  0  0  0  0
   -0.8484   -0.4041   -0.3262 C   0  0  0  0  0  0  0  0  0  0  0  0
   -1.0463   -1.6147   -1.0142 C   0  0  0  0  0  0  0  0  0  0  0  0
   -2.3099   -2.0121   -1.3337 C   0  0  0  0  0  0  0  0  0  0  0  0
   -3.4232   -1.2107   -0.9701 C   0  0  0  0  0  0  0  0  0  0  0  0
   -3.2401   -0.0598   -0.2807 C   0  0  0  0  0  0  0  0  0  0  0  0
   -1.9781    0.3352    0.0504 N   0  0  0  0  0  0  0  0  0  0  0  0
   -3.1211    2.0051    2.0444 H   0  0  0  0  0  0  0  0  0  0  0  0
   -1.8158    3.1853    1.8368 H   0  0  0  0  0  0  0  0  0  0  0  0
   -3.0016    2.9377    0.5444 H   0  0  0  0  0  0  0  0  0  0  0  0
    1.5987   -1.0484   -1.7430 H   0  0  0  0  0  0  0  0  0  0  0  0
    4.0074   -1.5031   -1.7860 H   0  0  0  0  0  0  0  0  0  0  0  0
    5.4678   -0.6450    0.0063 H   0  0  0  0  0  0  0  0  0  0  0  0
    4.4978    0.6845    1.8469 H   0  0  0  0  0  0  0  0  0  0  0  0
    2.0616    1.1165    1.9027 H   0  0  0  0  0  0  0  0  0  0  0  0
   -0.1902   -2.2198   -1.2634 H   0  0  0  0  0  0  0  0  0  0  0  0
   -2.4794   -2.9384   -1.8591 H   0  0  0  0  0  0  0  0  0  0  0  0
   -4.4194   -1.5264   -1.2340 H   0  0  0  0  0  0  0  0  0  0  0  0
   -4.0484    0.5799    0.0374 H   0  0  0  0  0  0  0  0  0  0  0  0
  1  2  1  0  0  0  0
  2  3  2  0  0  0  0
  3  4  1  0  0  0  0
  4  5  1  0  0  0  0
  5  6  2  0  0  0  0
  6  7  1  0  0  0  0
  7  8  2  0  0  0  0
  8  9  1  0  0  0  0
  9 10  2  0  0  0  0
  4 11  2  0  0  0  0
 11 12  1  0  0  0  0
 12 13  2  0  0  0  0
 13 14  1  0  0  0  0
 14 15  2  0  0  0  0
 15 16  1  0  0  0  0
 16  2  1  0  0  0  0
 10  5  1  0  0  0  0
 16 11  1  0  0  0  0
  1 17  1  0  0  0  0
  1 18  1  0  0  0  0
  1 19  1  0  0  0  0
  6 20  1  0  0  0  0
  7 21  1  0  0  0  0
  8 22  1  0  0  0  0
  9 23  1  0  0  0  0
 10 24  1  0  0  0  0
 12 25  1  0  0  0  0
 13 26  1  0  0  0  0
 14 27  1  0  0  0  0
 15 28  1  0  0  0  0
M  END
