
  xtb     02282218183D
 energy: -60.639827593047 gnorm: 0.000092993465 xtb: 6.4.1 (afa7bdf)
 38 40  0     0  0            999 V2000
   -2.8215   -2.3160   -0.5242 C   0  0  0  0  0  0  0  0  0  0  0  0
   -2.3463   -0.9593   -0.2997 N   0  0  0  0  0  0  0  0  0  0  0  0
   -3.3161    0.0557   -0.2138 C   0  0  0  0  0  0  0  0  0  0  0  0
   -4.6748   -0.2628   -0.3071 C   0  0  0  0  0  0  0  0  0  0  0  0
   -5.6382    0.7256   -0.2261 C   0  0  0  0  0  0  0  0  0  0  0  0
   -5.2810    2.0504   -0.0514 C   0  0  0  0  0  0  0  0  0  0  0  0
   -3.9383    2.3736    0.0416 C   0  0  0  0  0  0  0  0  0  0  0  0
   -2.9663    1.3953   -0.0387 C   0  0  0  0  0  0  0  0  0  0  0  0
   -1.0190   -0.8170   -0.1938 C   0  0  0  0  0  0  0  0  0  0  0  0
    0.0265   -1.8313   -0.2703 C   0  0  0  0  0  0  0  0  0  0  0  0
    0.0439   -3.0458   -0.4468 O   0  0  0  0  0  1  0  0  0  0  0  0
    1.0428   -0.8081   -0.0516 C   0  0  0  0  0  0  0  0  0  0  0  0
    2.3735   -0.9384    0.0222 N   0  0  0  0  0  4  0  0  0  0  0  0
    2.8868   -2.2904   -0.1371 C   0  0  0  0  0  0  0  0  0  0  0  0
    3.3141    0.0857    0.2336 C   0  0  0  0  0  0  0  0  0  0  0  0
    2.9273    1.4130    0.4235 C   0  0  0  0  0  0  0  0  0  0  0  0
    3.8712    2.4004    0.6298 C   0  0  0  0  0  0  0  0  0  0  0  0
    5.2218    2.0981    0.6545 C   0  0  0  0  0  0  0  0  0  0  0  0
    5.6155    0.7854    0.4680 C   0  0  0  0  0  0  0  0  0  0  0  0
    4.6805   -0.2116    0.2601 C   0  0  0  0  0  0  0  0  0  0  0  0
   -0.0027    0.2162    0.0239 C   0  0  0  0  0  0  0  0  0  0  0  0
   -0.0198    1.4250    0.1951 O   0  0  0  0  0  0  0  0  0  0  0  0
   -3.4585   -2.6351    0.3022 H   0  0  0  0  0  0  0  0  0  0  0  0
   -3.3819   -2.3685   -1.4587 H   0  0  0  0  0  0  0  0  0  0  0  0
   -1.9741   -2.9942   -0.5886 H   0  0  0  0  0  0  0  0  0  0  0  0
   -5.0096   -1.2771   -0.4414 H   0  0  0  0  0  0  0  0  0  0  0  0
   -6.6799    0.4499   -0.3011 H   0  0  0  0  0  0  0  0  0  0  0  0
   -6.0377    2.8174    0.0115 H   0  0  0  0  0  0  0  0  0  0  0  0
   -3.6363    3.4010    0.1784 H   0  0  0  0  0  0  0  0  0  0  0  0
   -1.9344    1.6888    0.0397 H   0  0  0  0  0  0  0  0  0  0  0  0
    2.0593   -2.9810   -0.2808 H   0  0  0  0  0  0  0  0  0  0  0  0
    3.5401   -2.3462   -1.0091 H   0  0  0  0  0  0  0  0  0  0  0  0
    3.4403   -2.5904    0.7538 H   0  0  0  0  0  0  0  0  0  0  0  0
    1.8882    1.6906    0.4104 H   0  0  0  0  0  0  0  0  0  0  0  0
    3.5407    3.4181    0.7729 H   0  0  0  0  0  0  0  0  0  0  0  0
    5.9564    2.8721    0.8162 H   0  0  0  0  0  0  0  0  0  0  0  0
    6.6640    0.5262    0.4830 H   0  0  0  0  0  0  0  0  0  0  0  0
    5.0434   -1.2154    0.1195 H   0  0  0  0  0  0  0  0  0  0  0  0
  1  2  1  0  0  0  0
  2  3  1  0  0  0  0
  3  4  2  0  0  0  0
  4  5  1  0  0  0  0
  5  6  2  0  0  0  0
  6  7  1  0  0  0  0
  7  8  2  0  0  0  0
  2  9  1  0  0  0  0
  9 10  2  0  0  0  0
 10 11  1  0  0  0  0
 10 12  1  0  0  0  0
 12 13  2  0  0  0  0
 13 14  1  0  0  0  0
 13 15  1  0  0  0  0
 15 16  2  0  0  0  0
 16 17  1  0  0  0  0
 17 18  2  0  0  0  0
 18 19  1  0  0  0  0
 19 20  2  0  0  0  0
 12 21  1  0  0  0  0
 21 22  2  0  0  0  0
  8  3  1  0  0  0  0
 21  9  1  0  0  0  0
 20 15  1  0  0  0  0
  1 23  1  0  0  0  0
  1 24  1  0  0  0  0
  1 25  1  0  0  0  0
  4 26  1  0  0  0  0
  5 27  1  0  0  0  0
  6 28  1  0  0  0  0
  7 29  1  0  0  0  0
  8 30  1  0  0  0  0
 14 31  1  0  0  0  0
 14 32  1  0  0  0  0
 14 33  1  0  0  0  0
 16 34  1  0  0  0  0
 17 35  1  0  0  0  0
 18 36  1  0  0  0  0
 19 37  1  0  0  0  0
 20 38  1  0  0  0  0
M  CHG  1  11  -1
M  CHG  1  13   1
M  END
