
  xtb     02282218183D
 energy: -70.625319370603 gnorm: 0.000198055491 xtb: 6.4.1 (afa7bdf)
 47 50  0     0  0            999 V2000
    1.3736   -3.1972    0.2730 O   0  0  0  0  0  1  0  0  0  0  0  0
    0.4348   -2.3481    0.1642 N   0  0  0  0  0  4  0  0  0  0  0  0
    0.6843   -1.0044    0.0799 C   0  0  0  0  0  0  0  0  0  0  0  0
    2.0601   -0.5882    0.1084 C   0  0  0  0  0  0  0  0  0  0  0  0
    2.4548    0.6866   -0.0449 C   0  0  0  0  0  0  0  0  0  0  0  0
    3.8150    1.1773   -0.0147 C   0  0  0  0  0  0  0  0  0  0  0  0
    4.0389    2.5490   -0.1753 C   0  0  0  0  0  0  0  0  0  0  0  0
    5.3173    3.0695   -0.1492 C   0  0  0  0  0  0  0  0  0  0  0  0
    6.4048    2.2313    0.0369 C   0  0  0  0  0  0  0  0  0  0  0  0
    6.2008    0.8693    0.1961 C   0  0  0  0  0  0  0  0  0  0  0  0
    4.9238    0.3456    0.1715 C   0  0  0  0  0  0  0  0  0  0  0  0
   -0.2886   -0.1183   -0.0078 N   0  0  0  0  0  0  0  0  0  0  0  0
   -1.5563   -0.4969   -0.0437 C   0  0  0  0  0  0  0  0  0  0  0  0
   -2.5431    0.4449   -0.1112 N   0  0  0  0  0  0  0  0  0  0  0  0
   -2.4731    1.8325   -0.1224 C   0  0  0  0  0  0  0  0  0  0  0  0
   -3.6538    2.5313   -0.3816 C   0  0  0  0  0  0  0  0  0  0  0  0
   -3.6633    3.9118   -0.3978 C   0  0  0  0  0  0  0  0  0  0  0  0
   -2.4984    4.6201   -0.1535 C   0  0  0  0  0  0  0  0  0  0  0  0
   -1.3280    3.9305    0.1145 C   0  0  0  0  0  0  0  0  0  0  0  0
   -1.3069    2.5486    0.1346 C   0  0  0  0  0  0  0  0  0  0  0  0
   -1.8966   -1.8741   -0.0122 C   0  0  0  0  0  0  0  0  0  0  0  0
   -0.8635   -2.7724    0.1231 C   0  0  0  0  0  0  0  0  0  0  0  0
   -1.0533   -4.2489    0.2411 C   0  0  0  0  0  0  0  0  0  0  0  0
   -2.4965   -4.6085    0.5616 C   0  0  0  0  0  0  0  0  0  0  0  0
   -3.4219   -3.8449   -0.3767 C   0  0  0  0  0  0  0  0  0  0  0  0
   -3.3236   -2.3458   -0.1036 C   0  0  0  0  0  0  0  0  0  0  0  0
    2.7549   -1.4015    0.2577 H   0  0  0  0  0  0  0  0  0  0  0  0
    1.6909    1.4346   -0.2111 H   0  0  0  0  0  0  0  0  0  0  0  0
    3.1935    3.2066   -0.3213 H   0  0  0  0  0  0  0  0  0  0  0  0
    5.4695    4.1319   -0.2741 H   0  0  0  0  0  0  0  0  0  0  0  0
    7.4058    2.6364    0.0573 H   0  0  0  0  0  0  0  0  0  0  0  0
    7.0465    0.2126    0.3406 H   0  0  0  0  0  0  0  0  0  0  0  0
    4.7835   -0.7165    0.2963 H   0  0  0  0  0  0  0  0  0  0  0  0
   -3.4793    0.0800   -0.2072 H   0  0  0  0  0  0  0  0  0  0  0  0
   -4.5678    1.9840   -0.5717 H   0  0  0  0  0  0  0  0  0  0  0  0
   -4.5850    4.4365   -0.6023 H   0  0  0  0  0  0  0  0  0  0  0  0
   -2.5057    5.6993   -0.1686 H   0  0  0  0  0  0  0  0  0  0  0  0
   -0.4172    4.4755    0.3153 H   0  0  0  0  0  0  0  0  0  0  0  0
   -0.4016    2.0099    0.3507 H   0  0  0  0  0  0  0  0  0  0  0  0
   -0.7387   -4.7133   -0.6992 H   0  0  0  0  0  0  0  0  0  0  0  0
   -0.3619   -4.6145    1.0056 H   0  0  0  0  0  0  0  0  0  0  0  0
   -2.6423   -5.6835    0.4515 H   0  0  0  0  0  0  0  0  0  0  0  0
   -2.7249   -4.3405    1.5953 H   0  0  0  0  0  0  0  0  0  0  0  0
   -4.4557   -4.1696   -0.2470 H   0  0  0  0  0  0  0  0  0  0  0  0
   -3.1319   -4.0474   -1.4098 H   0  0  0  0  0  0  0  0  0  0  0  0
   -3.8391   -1.8077   -0.9055 H   0  0  0  0  0  0  0  0  0  0  0  0
   -3.8347   -2.1139    0.8378 H   0  0  0  0  0  0  0  0  0  0  0  0
  1  2  1  0  0  0  0
  2  3  2  0  0  0  0
  3  4  1  0  0  0  0
  4  5  2  0  0  0  0
  5  6  1  0  0  0  0
  6  7  2  0  0  0  0
  7  8  1  0  0  0  0
  8  9  2  0  0  0  0
  9 10  1  0  0  0  0
 10 11  2  0  0  0  0
  3 12  1  0  0  0  0
 12 13  2  0  0  0  0
 13 14  1  0  0  0  0
 14 15  1  0  0  0  0
 15 16  2  0  0  0  0
 16 17  1  0  0  0  0
 17 18  2  0  0  0  0
 18 19  1  0  0  0  0
 19 20  2  0  0  0  0
 13 21  1  0  0  0  0
 21 22  2  0  0  0  0
 22 23  1  0  0  0  0
 23 24  1  0  0  0  0
 24 25  1  0  0  0  0
 25 26  1  0  0  0  0
 22  2  1  0  0  0  0
 11  6  1  0  0  0  0
 20 15  1  0  0  0  0
 26 21  1  0  0  0  0
  4 27  1  0  0  0  0
  5 28  1  0  0  0  0
  7 29  1  0  0  0  0
  8 30  1  0  0  0  0
  9 31  1  0  0  0  0
 10 32  1  0  0  0  0
 11 33  1  0  0  0  0
 14 34  1  0  0  0  0
 16 35  1  0  0  0  0
 17 36  1  0  0  0  0
 18 37  1  0  0  0  0
 19 38  1  0  0  0  0
 20 39  1  0  0  0  0
 23 40  1  0  0  0  0
 23 41  1  0  0  0  0
 24 42  1  0  0  0  0
 24 43  1  0  0  0  0
 25 44  1  0  0  0  0
 25 45  1  0  0  0  0
 26 46  1  0  0  0  0
 26 47  1  0  0  0  0
M  CHG  1   1  -1
M  CHG  1   2   1
M  END
