
  xtb     02282218183D
 energy: -40.069100483408 gnorm: 0.000248539928 xtb: 6.4.1 (afa7bdf)
 24 25  0     0  0            999 V2000
   -2.1316   -3.5315   -0.4325 N   0  0  0  0  0  0  0  0  0  0  0  0
   -1.5757   -2.5526   -0.6320 C   0  0  0  0  0  0  0  0  0  0  0  0
   -0.8946   -1.3068   -0.8516 C   0  0  0  0  0  0  0  0  0  0  0  0
    0.6207   -1.4682   -1.0529 C   0  0  0  0  0  0  0  0  0  0  0  0
    1.2149   -0.1220   -0.6260 C   0  0  0  0  0  0  0  0  0  0  0  0
    2.5105   -0.2779    0.1993 C   0  0  0  0  0  0  0  0  0  0  0  0
    2.9119    0.8949    0.7205 N   0  0  0  0  0  0  0  0  0  0  0  0
    3.0923   -1.3276    0.3332 O   0  0  0  0  0  0  0  0  0  0  0  0
    0.1861    0.5136    0.1756 N   0  0  0  0  0  0  0  0  0  0  0  0
    0.1769    1.8282    0.2780 N   0  0  0  0  0  0  0  0  0  0  0  0
   -0.9091    2.4354    0.6072 C   0  0  0  0  0  0  0  0  0  0  0  0
   -2.1782    1.7538    0.6727 C   0  0  0  0  0  0  0  0  0  0  0  0
   -2.2242    0.4298    0.5017 C   0  0  0  0  0  0  0  0  0  0  0  0
   -0.9612   -0.3681    0.3809 C   0  0  0  0  0  0  0  0  0  0  0  0
   -1.3471   -0.8048   -1.7159 H   0  0  0  0  0  0  0  0  0  0  0  0
    1.0143   -2.2518   -0.4012 H   0  0  0  0  0  0  0  0  0  0  0  0
    0.8755   -1.7189   -2.0803 H   0  0  0  0  0  0  0  0  0  0  0  0
    1.4563    0.5158   -1.4870 H   0  0  0  0  0  0  0  0  0  0  0  0
    3.7090    0.9134    1.3349 H   0  0  0  0  0  0  0  0  0  0  0  0
    2.3052    1.7003    0.6660 H   0  0  0  0  0  0  0  0  0  0  0  0
   -0.8382    3.5014    0.7446 H   0  0  0  0  0  0  0  0  0  0  0  0
   -3.0755    2.3425    0.7766 H   0  0  0  0  0  0  0  0  0  0  0  0
   -3.1495   -0.1228    0.4362 H   0  0  0  0  0  0  0  0  0  0  0  0
   -0.7887   -0.9763    1.2884 H   0  0  0  0  0  0  0  0  0  0  0  0
  1  2  3  0  0  0  0
  2  3  1  0  0  0  0
  3  4  1  0  0  0  0
  4  5  1  0  0  0  0
  5  6  1  0  0  0  0
  6  7  1  0  0  0  0
  6  8  2  0  0  0  0
  5  9  1  0  0  0  0
  9 10  1  0  0  0  0
 10 11  2  0  0  0  0
 11 12  1  0  0  0  0
 12 13  2  0  0  0  0
 13 14  1  0  0  0  0
 14  3  1  0  0  0  0
 14  9  1  0  0  0  0
  3 15  1  0  0  0  0
  4 16  1  0  0  0  0
  4 17  1  0  0  0  0
  5 18  1  0  0  0  0
  7 19  1  0  0  0  0
  7 20  1  0  0  0  0
 11 21  1  0  0  0  0
 12 22  1  0  0  0  0
 13 23  1  0  0  0  0
 14 24  1  0  0  0  0
M  END
