
  xtb     02282218183D
 energy: -67.868679698642 gnorm: 0.000310544760 xtb: 6.4.1 (afa7bdf)
 34 35  0     0  0            999 V2000
   -5.3115    2.6179    1.3257 C   0  0  0  0  0  0  0  0  0  0  0  0
   -4.6501    1.5788    0.6211 O   0  0  0  0  0  0  0  0  0  0  0  0
   -5.4377    0.7691   -0.1147 C   0  0  0  0  0  0  0  0  0  0  0  0
   -6.6331    0.8965   -0.1902 O   0  0  0  0  0  0  0  0  0  0  0  0
   -4.6476   -0.2695   -0.7962 C   0  0  0  0  0  0  0  0  0  0  0  0
   -5.3599   -1.1808   -1.5974 C   0  0  0  0  0  0  0  0  0  0  0  0
   -5.9216   -1.9344   -2.2558 N   0  0  0  0  0  0  0  0  0  0  0  0
   -3.2826   -0.3898   -0.6893 C   0  0  0  0  0  0  0  0  0  0  0  0
   -2.4856   -1.3864   -1.3327 C   0  0  0  0  0  0  0  0  0  0  0  0
   -1.1626   -1.2872   -1.0621 C   0  0  0  0  0  0  0  0  0  0  0  0
   -0.8354   -0.2104   -0.1936 C   0  0  0  0  0  0  0  0  0  0  0  0
    0.4176    0.1299    0.2507 C   0  0  0  0  0  0  0  0  0  0  0  0
    0.7462    1.2076    1.1169 C   0  0  0  0  0  0  0  0  0  0  0  0
    2.0710    1.2991    1.3850 C   0  0  0  0  0  0  0  0  0  0  0  0
    2.8492    0.2938    0.7402 C   0  0  0  0  0  0  0  0  0  0  0  0
    4.2124    0.1195    0.8135 C   0  0  0  0  0  0  0  0  0  0  0  0
    5.0334    0.9604    1.5758 C   0  0  0  0  0  0  0  0  0  0  0  0
    5.6972    1.6553    2.2044 N   0  0  0  0  0  0  0  0  0  0  0  0
    4.7892   -0.9917    0.0558 C   0  0  0  0  0  0  0  0  0  0  0  0
    4.0966   -1.7370   -0.6128 O   0  0  0  0  0  0  0  0  0  0  0  0
    6.1090   -1.0956    0.1730 O   0  0  0  0  0  0  0  0  0  0  0  0
    6.7190   -2.1584   -0.5451 C   0  0  0  0  0  0  0  0  0  0  0  0
    1.8615   -0.7688   -0.2146 S   0  0  0  0  0  0  0  0  0  0  0  0
   -2.2850    0.6712    0.2655 S   0  0  0  0  0  0  0  0  0  0  0  0
   -6.0323    2.1971    2.0297 H   0  0  0  0  0  0  0  0  0  0  0  0
   -4.5357    3.1673    1.8522 H   0  0  0  0  0  0  0  0  0  0  0  0
   -5.8409    3.2698    0.6279 H   0  0  0  0  0  0  0  0  0  0  0  0
   -2.9384   -2.1291   -1.9655 H   0  0  0  0  0  0  0  0  0  0  0  0
   -0.3997   -1.9404   -1.4477 H   0  0  0  0  0  0  0  0  0  0  0  0
   -0.0104    1.8680    1.5033 H   0  0  0  0  0  0  0  0  0  0  0  0
    2.5344    2.0382    2.0145 H   0  0  0  0  0  0  0  0  0  0  0  0
    7.7833   -2.0884   -0.3375 H   0  0  0  0  0  0  0  0  0  0  0  0
    6.3233   -3.1192   -0.2095 H   0  0  0  0  0  0  0  0  0  0  0  0
    6.5271   -2.0525   -1.6149 H   0  0  0  0  0  0  0  0  0  0  0  0
  1  2  1  0  0  0  0
  2  3  1  0  0  0  0
  3  4  2  0  0  0  0
  3  5  1  0  0  0  0
  5  6  1  0  0  0  0
  6  7  3  0  0  0  0
  5  8  2  0  0  0  0
  8  9  1  0  0  0  0
  9 10  2  0  0  0  0
 10 11  1  0  0  0  0
 11 12  2  0  0  0  0
 12 13  1  0  0  0  0
 13 14  2  0  0  0  0
 14 15  1  0  0  0  0
 15 16  2  0  0  0  0
 16 17  1  0  0  0  0
 17 18  3  0  0  0  0
 16 19  1  0  0  0  0
 19 20  2  0  0  0  0
 19 21  1  0  0  0  0
 21 22  1  0  0  0  0
 15 23  1  0  0  0  0
 11 24  1  0  0  0  0
 24  8  1  0  0  0  0
 23 12  1  0  0  0  0
  1 25  1  0  0  0  0
  1 26  1  0  0  0  0
  1 27  1  0  0  0  0
  9 28  1  0  0  0  0
 10 29  1  0  0  0  0
 13 30  1  0  0  0  0
 14 31  1  0  0  0  0
 22 32  1  0  0  0  0
 22 33  1  0  0  0  0
 22 34  1  0  0  0  0
M  END
