
  xtb     02282218183D
 energy: -48.732437115149 gnorm: 0.000076848298 xtb: 6.4.1 (afa7bdf)
 27 29  0     0  0            999 V2000
   -6.4046    1.2031    0.6421 C   0  0  0  0  0  0  0  0  0  0  0  0
   -5.2497    0.4674    0.0722 C   0  0  0  0  0  0  0  0  0  0  0  0
   -5.2839   -0.6060   -0.7892 C   0  0  0  0  0  0  0  0  0  0  0  0
   -4.1075   -1.1017   -1.1724 N   0  0  0  0  0  0  0  0  0  0  0  0
   -3.1018   -0.4726   -0.6533 C   0  0  0  0  0  0  0  0  0  0  0  0
   -1.8416   -0.7716   -0.8803 N   0  0  0  0  0  0  0  0  0  0  0  0
   -0.9407   -0.0640   -0.2847 N   0  0  0  0  0  0  0  0  0  0  0  0
    0.3360   -0.3643   -0.5276 C   0  0  0  0  0  0  0  0  0  0  0  0
    0.9297   -1.3187   -1.3488 C   0  0  0  0  0  0  0  0  0  0  0  0
    2.3127   -1.2829   -1.3088 C   0  0  0  0  0  0  0  0  0  0  0  0
    2.8178   -0.3079   -0.4608 C   0  0  0  0  0  0  0  0  0  0  0  0
    4.1845   -0.0194   -0.1983 C   0  0  0  0  0  0  0  0  0  0  0  0
    4.7086    0.9356    0.6411 C   0  0  0  0  0  0  0  0  0  0  0  0
    6.1123    0.9426    0.6587 C   0  0  0  0  0  0  0  0  0  0  0  0
    6.6535    0.0002   -0.1613 C   0  0  0  0  0  0  0  0  0  0  0  0
    5.4582   -0.9208   -0.9766 S   0  0  0  0  0  0  0  0  0  0  0  0
    1.5447    0.5879    0.3030 S   0  0  0  0  0  0  0  0  0  0  0  0
   -3.6259    0.8948    0.4375 S   0  0  0  0  0  0  0  0  0  0  0  0
   -7.3368    0.7581    0.3021 H   0  0  0  0  0  0  0  0  0  0  0  0
   -6.3782    2.2489    0.3363 H   0  0  0  0  0  0  0  0  0  0  0  0
   -6.3738    1.1771    1.7310 H   0  0  0  0  0  0  0  0  0  0  0  0
   -6.1850   -1.0591   -1.1643 H   0  0  0  0  0  0  0  0  0  0  0  0
    0.3379   -1.9949   -1.9388 H   0  0  0  0  0  0  0  0  0  0  0  0
    2.9546   -1.9383   -1.8716 H   0  0  0  0  0  0  0  0  0  0  0  0
    4.0905    1.6000    1.2175 H   0  0  0  0  0  0  0  0  0  0  0  0
    6.6991    1.6182    1.2546 H   0  0  0  0  0  0  0  0  0  0  0  0
    7.6891   -0.2116   -0.3385 H   0  0  0  0  0  0  0  0  0  0  0  0
  1  2  1  0  0  0  0
  2  3  2  0  0  0  0
  3  4  1  0  0  0  0
  4  5  2  0  0  0  0
  5  6  1  0  0  0  0
  6  7  2  0  0  0  0
  7  8  1  0  0  0  0
  8  9  2  0  0  0  0
  9 10  1  0  0  0  0
 10 11  2  0  0  0  0
 11 12  1  0  0  0  0
 12 13  2  0  0  0  0
 13 14  1  0  0  0  0
 14 15  2  0  0  0  0
 15 16  1  0  0  0  0
 11 17  1  0  0  0  0
  5 18  1  0  0  0  0
 18  2  1  0  0  0  0
 17  8  1  0  0  0  0
 16 12  1  0  0  0  0
  1 19  1  0  0  0  0
  1 20  1  0  0  0  0
  1 21  1  0  0  0  0
  3 22  1  0  0  0  0
  9 23  1  0  0  0  0
 10 24  1  0  0  0  0
 13 25  1  0  0  0  0
 14 26  1  0  0  0  0
 15 27  1  0  0  0  0
M  END
