
  xtb     02282218183D
 energy: -60.917946232253 gnorm: 0.000167379315 xtb: 6.4.1 (afa7bdf)
 33 35  0     0  0            999 V2000
    0.7238    3.3990    2.6191 F   0  0  0  0  0  0  0  0  0  0  0  0
    0.9135    2.0513    2.6071 B   0  0  0  0  0  4  0  0  0  0  0  0
    1.1407    1.5479    3.8539 F   0  0  0  0  0  0  0  0  0  0  0  0
   -0.3227    1.4001    2.0504 O   0  0  0  0  0  0  0  0  0  0  0  0
   -0.2778    0.6590    1.0008 C   0  0  0  0  0  0  0  0  0  0  0  0
   -1.4904    0.0747    0.5686 C   0  0  0  0  0  0  0  0  0  0  0  0
   -2.5474   -0.4039    0.2256 C   0  0  0  0  0  0  0  0  0  0  0  0
   -3.7660   -0.9709   -0.1928 C   0  0  0  0  0  0  0  0  0  0  0  0
   -3.8474   -1.6497   -1.4119 C   0  0  0  0  0  0  0  0  0  0  0  0
   -5.0498   -2.1976   -1.8128 C   0  0  0  0  0  0  0  0  0  0  0  0
   -6.1735   -2.0789   -1.0086 C   0  0  0  0  0  0  0  0  0  0  0  0
   -6.0963   -1.4076    0.2025 C   0  0  0  0  0  0  0  0  0  0  0  0
   -4.9011   -0.8519    0.6143 C   0  0  0  0  0  0  0  0  0  0  0  0
    0.8914    0.4081    0.2786 C   0  0  0  0  0  0  0  0  0  0  0  0
    2.0776    0.9967    0.7140 C   0  0  0  0  0  0  0  0  0  0  0  0
    3.3573    0.7773    0.0269 C   0  0  0  0  0  0  0  0  0  0  0  0
    4.5413    1.0082    0.7315 C   0  0  0  0  0  0  0  0  0  0  0  0
    5.7658    0.8088    0.1252 C   0  0  0  0  0  0  0  0  0  0  0  0
    5.8263    0.3870   -1.1938 C   0  0  0  0  0  0  0  0  0  0  0  0
    4.6564    0.1697   -1.9053 C   0  0  0  0  0  0  0  0  0  0  0  0
    3.4273    0.3600   -1.3031 C   0  0  0  0  0  0  0  0  0  0  0  0
    2.1197    1.7508    1.7563 O   0  0  0  0  0  3  0  0  0  0  0  0
   -2.9670   -1.7366   -2.0312 H   0  0  0  0  0  0  0  0  0  0  0  0
   -5.1138   -2.7202   -2.7556 H   0  0  0  0  0  0  0  0  0  0  0  0
   -7.1108   -2.5102   -1.3267 H   0  0  0  0  0  0  0  0  0  0  0  0
   -6.9729   -1.3174    0.8262 H   0  0  0  0  0  0  0  0  0  0  0  0
   -4.8287   -0.3264    1.5544 H   0  0  0  0  0  0  0  0  0  0  0  0
    0.8592   -0.2449   -0.5735 H   0  0  0  0  0  0  0  0  0  0  0  0
    4.4767    1.3369    1.7572 H   0  0  0  0  0  0  0  0  0  0  0  0
    6.6753    0.9842    0.6795 H   0  0  0  0  0  0  0  0  0  0  0  0
    6.7832    0.2329   -1.6697 H   0  0  0  0  0  0  0  0  0  0  0  0
    4.7040   -0.1469   -2.9365 H   0  0  0  0  0  0  0  0  0  0  0  0
    2.5261    0.2106   -1.8767 H   0  0  0  0  0  0  0  0  0  0  0  0
  1  2  1  0  0  0  0
  2  3  1  0  0  0  0
  2  4  1  0  0  0  0
  4  5  1  0  0  0  0
  5  6  1  0  0  0  0
  6  7  3  0  0  0  0
  7  8  1  0  0  0  0
  8  9  2  0  0  0  0
  9 10  1  0  0  0  0
 10 11  2  0  0  0  0
 11 12  1  0  0  0  0
 12 13  2  0  0  0  0
  5 14  2  0  0  0  0
 14 15  1  0  0  0  0
 15 16  1  0  0  0  0
 16 17  2  0  0  0  0
 17 18  1  0  0  0  0
 18 19  2  0  0  0  0
 19 20  1  0  0  0  0
 20 21  2  0  0  0  0
 15 22  2  0  0  0  0
 22  2  1  0  0  0  0
 13  8  1  0  0  0  0
 21 16  1  0  0  0  0
  9 23  1  0  0  0  0
 10 24  1  0  0  0  0
 11 25  1  0  0  0  0
 12 26  1  0  0  0  0
 13 27  1  0  0  0  0
 14 28  1  0  0  0  0
 17 29  1  0  0  0  0
 18 30  1  0  0  0  0
 19 31  1  0  0  0  0
 20 32  1  0  0  0  0
 21 33  1  0  0  0  0
M  CHG  1   2  -1
M  CHG  1  22   1
M  END
