
  xtb     03212210143D
 energy: -7.175408400697 gnorm: 0.000306962132 xtb: 6.4.1 (afa7bdf)
 37 38  0     0  0            999 V2000
   -5.6589    1.4500    0.6149 C   0  0  0  0  0  0  0  0  0  0  0  0
   -4.9903    0.6987   -0.4474 N   0  0  0  0  0  0  0  0  0  0  0  0
   -5.8300    0.2130   -1.5425 C   0  0  0  0  0  0  0  0  0  0  0  0
   -3.6074    0.4571   -0.4187 C   0  0  0  0  0  0  0  0  0  0  0  0
   -2.9728   -0.2497   -1.4468 C   0  0  0  0  0  0  0  0  0  0  0  0
   -1.6224   -0.4842   -1.4192 C   0  0  0  0  0  0  0  0  0  0  0  0
   -0.8307   -0.0245   -0.3620 C   0  0  0  0  0  0  0  0  0  0  0  0
    0.5935   -0.2926   -0.3703 C   0  0  0  0  0  0  0  0  0  0  0  0
    1.4670    0.0983    0.5736 C   0  0  0  0  0  0  0  0  0  0  0  0
    2.8921   -0.1729    0.5645 C   0  0  0  0  0  0  0  0  0  0  0  0
    3.6921    0.3268    1.5983 C   0  0  0  0  0  0  0  0  0  0  0  0
    5.0442    0.0927    1.6184 C   0  0  0  0  0  0  0  0  0  0  0  0
    5.6471   -0.6423    0.6178 C   0  0  0  0  0  0  0  0  0  0  0  0
    7.0904   -0.8514    0.6717 N   0  0  0  0  0  4  0  0  0  0  0  0
    7.5846   -1.2294    1.7434 O   0  0  0  0  0  0  0  0  0  0  0  0
    7.7707   -0.6154   -0.3355 O   0  0  0  0  0  1  0  0  0  0  0  0
    4.8743   -1.1782   -0.4257 C   0  0  0  0  0  0  0  0  0  0  0  0
    5.4606   -1.9486   -1.4015 O   0  0  0  0  0  0  0  0  0  0  0  0
    3.5035   -0.9229   -0.4343 C   0  0  0  0  0  0  0  0  0  0  0  0
   -1.4610    0.6816    0.6678 C   0  0  0  0  0  0  0  0  0  0  0  0
   -2.8121    0.9148    0.6387 C   0  0  0  0  0  0  0  0  0  0  0  0
   -5.5461    0.9312    1.5644 H   0  0  0  0  0  0  0  0  0  0  0  0
   -5.2259    2.4446    0.6968 H   0  0  0  0  0  0  0  0  0  0  0  0
   -6.7215    1.5592    0.4112 H   0  0  0  0  0  0  0  0  0  0  0  0
   -5.5107    0.6589   -2.4821 H   0  0  0  0  0  0  0  0  0  0  0  0
   -6.8744    0.4698   -1.3812 H   0  0  0  0  0  0  0  0  0  0  0  0
   -5.7551   -0.8698   -1.6166 H   0  0  0  0  0  0  0  0  0  0  0  0
   -3.5572   -0.6137   -2.2739 H   0  0  0  0  0  0  0  0  0  0  0  0
   -1.1559   -1.0295   -2.2206 H   0  0  0  0  0  0  0  0  0  0  0  0
    0.9615   -0.8490   -1.2121 H   0  0  0  0  0  0  0  0  0  0  0  0
    1.1011    0.6614    1.4111 H   0  0  0  0  0  0  0  0  0  0  0  0
    3.2346    0.9031    2.3840 H   0  0  0  0  0  0  0  0  0  0  0  0
    5.6576    0.4761    2.4159 H   0  0  0  0  0  0  0  0  0  0  0  0
    4.7946   -2.2363   -2.0628 H   0  0  0  0  0  0  0  0  0  0  0  0
    2.9174   -1.3327   -1.2338 H   0  0  0  0  0  0  0  0  0  0  0  0
   -0.8818    1.0468    1.4955 H   0  0  0  0  0  0  0  0  0  0  0  0
   -3.2728    1.4593    1.4446 H   0  0  0  0  0  0  0  0  0  0  0  0
  1  2  1  0  0  0  0
  2  3  1  0  0  0  0
  2  4  1  0  0  0  0
  4  5  2  0  0  0  0
  5  6  1  0  0  0  0
  6  7  2  0  0  0  0
  7  8  1  0  0  0  0
  8  9  2  0  0  0  0
  9 10  1  0  0  0  0
 10 11  2  0  0  0  0
 11 12  1  0  0  0  0
 12 13  2  0  0  0  0
 13 14  1  0  0  0  0
 14 15  2  0  0  0  0
 14 16  1  0  0  0  0
 13 17  1  0  0  0  0
 17 18  1  0  0  0  0
 17 19  2  0  0  0  0
  7 20  1  0  0  0  0
 20 21  2  0  0  0  0
 21  4  1  0  0  0  0
 19 10  1  0  0  0  0
  1 22  1  0  0  0  0
  1 23  1  0  0  0  0
  1 24  1  0  0  0  0
  3 25  1  0  0  0  0
  3 26  1  0  0  0  0
  3 27  1  0  0  0  0
  5 28  1  0  0  0  0
  6 29  1  0  0  0  0
  8 30  1  0  0  0  0
  9 31  1  0  0  0  0
 11 32  1  0  0  0  0
 12 33  1  0  0  0  0
 18 34  1  0  0  0  0
 19 35  1  0  0  0  0
 20 36  1  0  0  0  0
 21 37  1  0  0  0  0
M  CHG  1  14   1
M  CHG  1  16  -1
M  END
