
  xtb     03212210143D
 energy: -7.634287091040 gnorm: 0.000330148380 xtb: 6.4.1 (afa7bdf)
 38 40  0     0  0            999 V2000
   -5.9528    1.2683    1.4660 C   0  0  0  0  0  0  0  0  0  0  0  0
   -5.2712    0.7267    0.2916 N   0  0  0  0  0  0  0  0  0  0  0  0
   -6.1078    0.3711   -0.8537 C   0  0  0  0  0  0  0  0  0  0  0  0
   -3.8812    0.5547    0.2643 C   0  0  0  0  0  0  0  0  0  0  0  0
   -3.0850    0.8711    1.3807 C   0  0  0  0  0  0  0  0  0  0  0  0
   -1.7309    0.7046    1.3487 C   0  0  0  0  0  0  0  0  0  0  0  0
   -1.0809    0.2131    0.2072 C   0  0  0  0  0  0  0  0  0  0  0  0
    0.2699    0.0601    0.2221 N   0  0  0  0  0  0  0  0  0  0  0  0
    0.8161   -0.4035   -0.8742 C   0  0  0  0  0  0  0  0  0  0  0  0
    2.2315   -0.5884   -0.9270 C   0  0  0  0  0  0  0  0  0  0  0  0
    3.0392   -0.3090    0.1097 C   0  0  0  0  0  0  0  0  0  0  0  0
    4.4776   -0.4727    0.1302 C   0  0  0  0  0  0  0  0  0  0  0  0
    5.1916   -0.1371    1.2822 C   0  0  0  0  0  0  0  0  0  0  0  0
    6.5589   -0.2822    1.3342 C   0  0  0  0  0  0  0  0  0  0  0  0
    7.2455   -0.7652    0.2396 C   0  0  0  0  0  0  0  0  0  0  0  0
    6.5599   -1.1030   -0.9090 C   0  0  0  0  0  0  0  0  0  0  0  0
    5.1923   -0.9598   -0.9665 C   0  0  0  0  0  0  0  0  0  0  0  0
    0.0586   -0.7511   -2.0766 C   0  0  0  0  0  0  0  0  0  0  0  0
    0.6782   -1.1727   -3.0455 O   0  0  0  0  0  0  0  0  0  0  0  0
   -1.3006   -0.5949   -2.0770 O   0  0  0  0  0  0  0  0  0  0  0  0
   -1.8646   -0.1094   -0.9225 C   0  0  0  0  0  0  0  0  0  0  0  0
   -3.2428    0.0676   -0.8693 C   0  0  0  0  0  0  0  0  0  0  0  0
   -7.0212    1.3687    1.2893 H   0  0  0  0  0  0  0  0  0  0  0  0
   -5.5557    2.2524    1.7061 H   0  0  0  0  0  0  0  0  0  0  0  0
   -5.8086    0.6071    2.3178 H   0  0  0  0  0  0  0  0  0  0  0  0
   -5.9682   -0.6784   -1.1051 H   0  0  0  0  0  0  0  0  0  0  0  0
   -7.1616    0.5297   -0.6359 H   0  0  0  0  0  0  0  0  0  0  0  0
   -5.8413    0.9829   -1.7132 H   0  0  0  0  0  0  0  0  0  0  0  0
   -3.5534    1.2477    2.2721 H   0  0  0  0  0  0  0  0  0  0  0  0
   -1.1299    0.9485    2.2071 H   0  0  0  0  0  0  0  0  0  0  0  0
    2.6346   -0.9682   -1.8483 H   0  0  0  0  0  0  0  0  0  0  0  0
    2.5766    0.0690    1.0038 H   0  0  0  0  0  0  0  0  0  0  0  0
    4.6576    0.2398    2.1374 H   0  0  0  0  0  0  0  0  0  0  0  0
    7.0944   -0.0185    2.2310 H   0  0  0  0  0  0  0  0  0  0  0  0
    8.3173   -0.8787    0.2818 H   0  0  0  0  0  0  0  0  0  0  0  0
    7.0970   -1.4802   -1.7634 H   0  0  0  0  0  0  0  0  0  0  0  0
    4.6703   -1.2272   -1.8676 H   0  0  0  0  0  0  0  0  0  0  0  0
   -3.8094   -0.1829   -1.7453 H   0  0  0  0  0  0  0  0  0  0  0  0
  1  2  1  0  0  0  0
  2  3  1  0  0  0  0
  2  4  1  0  0  0  0
  4  5  2  0  0  0  0
  5  6  1  0  0  0  0
  6  7  2  0  0  0  0
  7  8  1  0  0  0  0
  8  9  2  0  0  0  0
  9 10  1  0  0  0  0
 10 11  2  0  0  0  0
 11 12  1  0  0  0  0
 12 13  2  0  0  0  0
 13 14  1  0  0  0  0
 14 15  2  0  0  0  0
 15 16  1  0  0  0  0
 16 17  2  0  0  0  0
  9 18  1  0  0  0  0
 18 19  2  0  0  0  0
 18 20  1  0  0  0  0
 20 21  1  0  0  0  0
 21 22  2  0  0  0  0
 22  4  1  0  0  0  0
 21  7  1  0  0  0  0
 17 12  1  0  0  0  0
  1 23  1  0  0  0  0
  1 24  1  0  0  0  0
  1 25  1  0  0  0  0
  3 26  1  0  0  0  0
  3 27  1  0  0  0  0
  3 28  1  0  0  0  0
  5 29  1  0  0  0  0
  6 30  1  0  0  0  0
 10 31  1  0  0  0  0
 11 32  1  0  0  0  0
 13 33  1  0  0  0  0
 14 34  1  0  0  0  0
 15 35  1  0  0  0  0
 16 36  1  0  0  0  0
 17 37  1  0  0  0  0
 22 38  1  0  0  0  0
M  END
