
  xtb     03212210123D
 energy: -8.364661115864 gnorm: 0.000405215807 xtb: 6.4.1 (afa7bdf)
 39 42  0     0  0            999 V2000
    5.4255    1.5063   -0.9596 C   0  0  0  0  0  0  0  0  0  0  0  0
    4.1728    0.7879   -0.6081 C   0  0  0  0  0  0  0  0  0  0  0  0
    3.2345    1.3513    0.2399 C   0  0  0  0  0  0  0  0  0  0  0  0
    2.0783    0.6724    0.5544 C   0  0  0  0  0  0  0  0  0  0  0  0
    1.8152   -0.5805    0.0312 C   0  0  0  0  0  0  0  0  0  0  0  0
    0.5361   -1.2941    0.4083 C   0  0  0  0  0  0  0  0  0  0  0  0
    0.1527   -2.4589   -0.5072 C   0  0  0  0  0  0  0  0  0  0  0  0
    0.9222   -3.5705   -0.7543 C   0  0  0  0  0  0  0  0  0  0  0  0
    1.6050   -4.4861   -0.9885 N   0  0  0  0  0  0  0  0  0  0  0  0
   -1.0803   -2.2276   -1.0861 C   0  0  0  0  0  0  0  0  0  0  0  0
   -1.7428   -3.0320   -1.9699 N   0  0  0  0  0  0  0  0  0  0  0  0
   -1.6168   -1.0312   -0.5999 N   0  0  0  0  0  0  0  0  0  0  0  0
   -2.8970   -0.5215   -0.7765 C   0  0  0  0  0  0  0  0  0  0  0  0
   -3.6826   -1.0211   -1.5667 O   0  0  0  0  0  0  0  0  0  0  0  0
   -3.2592    0.6187    0.0648 C   0  0  0  0  0  0  0  0  0  0  0  0
   -4.5054    1.2130   -0.0796 C   0  0  0  0  0  0  0  0  0  0  0  0
   -4.8829    2.2568    0.7302 C   0  0  0  0  0  0  0  0  0  0  0  0
   -4.0207    2.7229    1.7074 C   0  0  0  0  0  0  0  0  0  0  0  0
   -2.7839    2.1446    1.8670 C   0  0  0  0  0  0  0  0  0  0  0  0
   -2.3809    1.0937    1.0546 C   0  0  0  0  0  0  0  0  0  0  0  0
   -1.0524    0.5006    1.2409 C   0  0  0  0  0  0  0  0  0  0  0  0
   -0.3341    0.8287    2.1762 O   0  0  0  0  0  0  0  0  0  0  0  0
   -0.6478   -0.4260    0.2931 N   0  0  0  0  0  0  0  0  0  0  0  0
    2.7649   -1.1475   -0.8033 C   0  0  0  0  0  0  0  0  0  0  0  0
    3.9221   -0.4721   -1.1226 C   0  0  0  0  0  0  0  0  0  0  0  0
    5.4795    1.6892   -2.0344 H   0  0  0  0  0  0  0  0  0  0  0  0
    6.3017    0.9221   -0.6720 H   0  0  0  0  0  0  0  0  0  0  0  0
    5.4878    2.4713   -0.4532 H   0  0  0  0  0  0  0  0  0  0  0  0
    3.4164    2.3268    0.6568 H   0  0  0  0  0  0  0  0  0  0  0  0
    1.3599    1.1050    1.2269 H   0  0  0  0  0  0  0  0  0  0  0  0
    0.6014   -1.6421    1.4474 H   0  0  0  0  0  0  0  0  0  0  0  0
   -1.4887   -3.9968   -2.1294 H   0  0  0  0  0  0  0  0  0  0  0  0
   -2.7062   -2.8122   -2.1964 H   0  0  0  0  0  0  0  0  0  0  0  0
   -5.1701    0.8292   -0.8348 H   0  0  0  0  0  0  0  0  0  0  0  0
   -5.8540    2.7090    0.6083 H   0  0  0  0  0  0  0  0  0  0  0  0
   -4.3203    3.5380    2.3446 H   0  0  0  0  0  0  0  0  0  0  0  0
   -2.1046    2.4928    2.6262 H   0  0  0  0  0  0  0  0  0  0  0  0
    2.6067   -2.1348   -1.1967 H   0  0  0  0  0  0  0  0  0  0  0  0
    4.6482   -0.9252   -1.7756 H   0  0  0  0  0  0  0  0  0  0  0  0
  1  2  1  0  0  0  0
  2  3  2  0  0  0  0
  3  4  1  0  0  0  0
  4  5  2  0  0  0  0
  5  6  1  0  0  0  0
  6  7  1  0  0  0  0
  7  8  1  0  0  0  0
  8  9  3  0  0  0  0
  7 10  2  0  0  0  0
 10 11  1  0  0  0  0
 10 12  1  0  0  0  0
 12 13  1  0  0  0  0
 13 14  2  0  0  0  0
 13 15  1  0  0  0  0
 15 16  2  0  0  0  0
 16 17  1  0  0  0  0
 17 18  2  0  0  0  0
 18 19  1  0  0  0  0
 19 20  2  0  0  0  0
 20 21  1  0  0  0  0
 21 22  2  0  0  0  0
 21 23  1  0  0  0  0
  5 24  1  0  0  0  0
 24 25  2  0  0  0  0
 25  2  1  0  0  0  0
 23  6  1  0  0  0  0
 23 12  1  0  0  0  0
 20 15  1  0  0  0  0
  1 26  1  0  0  0  0
  1 27  1  0  0  0  0
  1 28  1  0  0  0  0
  3 29  1  0  0  0  0
  4 30  1  0  0  0  0
  6 31  1  0  0  0  0
 11 32  1  0  0  0  0
 11 33  1  0  0  0  0
 16 34  1  0  0  0  0
 17 35  1  0  0  0  0
 18 36  1  0  0  0  0
 19 37  1  0  0  0  0
 24 38  1  0  0  0  0
 25 39  1  0  0  0  0
M  END
