
  xtb     03212210123D
 energy: -6.531894935130 gnorm: 0.000115359042 xtb: 6.4.1 (afa7bdf)
 32 34  0     0  0            999 V2000
    4.2990    0.5495    0.9700 C   0  0  0  0  0  0  0  0  0  0  0  0
    3.7896    0.6893   -0.4477 C   0  0  0  0  0  0  0  0  0  0  0  0
    2.3300    0.6462   -0.5111 N   0  0  0  0  0  0  0  0  0  0  0  0
    1.5273   -0.4781   -0.4090 C   0  0  0  0  0  0  0  0  0  0  0  0
    2.0867   -1.7583   -0.4821 C   0  0  0  0  0  0  0  0  0  0  0  0
    1.3033   -2.8817   -0.4044 C   0  0  0  0  0  0  0  0  0  0  0  0
   -0.0614   -2.7599   -0.2527 C   0  0  0  0  0  0  0  0  0  0  0  0
   -0.6583   -1.5144   -0.1700 C   0  0  0  0  0  0  0  0  0  0  0  0
    0.1270   -0.3508   -0.2396 C   0  0  0  0  0  0  0  0  0  0  0  0
   -0.5113    0.9692   -0.1220 C   0  0  0  0  0  0  0  0  0  0  0  0
    0.1257    2.0059   -0.1226 O   0  0  0  0  0  0  0  0  0  0  0  0
   -1.9790    1.0352    0.0088 C   0  0  0  0  0  0  0  0  0  0  0  0
   -2.6077    2.2688    0.0848 C   0  0  0  0  0  0  0  0  0  0  0  0
   -3.9754    2.3562    0.2102 C   0  0  0  0  0  0  0  0  0  0  0  0
   -4.7393    1.2058    0.2627 C   0  0  0  0  0  0  0  0  0  0  0  0
   -4.1309   -0.0258    0.1901 C   0  0  0  0  0  0  0  0  0  0  0  0
   -2.7540   -0.1286    0.0633 C   0  0  0  0  0  0  0  0  0  0  0  0
   -2.1203   -1.4503   -0.0104 C   0  0  0  0  0  0  0  0  0  0  0  0
   -2.7860   -2.4655    0.0563 O   0  0  0  0  0  0  0  0  0  0  0  0
    3.9133    1.3515    1.6007 H   0  0  0  0  0  0  0  0  0  0  0  0
    3.9680   -0.3905    1.4128 H   0  0  0  0  0  0  0  0  0  0  0  0
    5.3890    0.5782    1.0218 H   0  0  0  0  0  0  0  0  0  0  0  0
    4.1386    1.6283   -0.8954 H   0  0  0  0  0  0  0  0  0  0  0  0
    4.1900   -0.0996   -1.0930 H   0  0  0  0  0  0  0  0  0  0  0  0
    1.8936    1.5556   -0.3588 H   0  0  0  0  0  0  0  0  0  0  0  0
    3.1492   -1.8616   -0.6058 H   0  0  0  0  0  0  0  0  0  0  0  0
    1.7520   -3.8593   -0.4655 H   0  0  0  0  0  0  0  0  0  0  0  0
   -0.6907   -3.6319   -0.1947 H   0  0  0  0  0  0  0  0  0  0  0  0
   -1.9982    3.1551    0.0441 H   0  0  0  0  0  0  0  0  0  0  0  0
   -4.4503    3.3215    0.2679 H   0  0  0  0  0  0  0  0  0  0  0  0
   -5.8099    1.2729    0.3608 H   0  0  0  0  0  0  0  0  0  0  0  0
   -4.7096   -0.9331    0.2305 H   0  0  0  0  0  0  0  0  0  0  0  0
  1  2  1  0  0  0  0
  2  3  1  0  0  0  0
  3  4  1  0  0  0  0
  4  5  2  0  0  0  0
  5  6  1  0  0  0  0
  6  7  2  0  0  0  0
  7  8  1  0  0  0  0
  8  9  2  0  0  0  0
  9 10  1  0  0  0  0
 10 11  2  0  0  0  0
 10 12  1  0  0  0  0
 12 13  2  0  0  0  0
 13 14  1  0  0  0  0
 14 15  2  0  0  0  0
 15 16  1  0  0  0  0
 16 17  2  0  0  0  0
 17 18  1  0  0  0  0
 18 19  2  0  0  0  0
  9  4  1  0  0  0  0
 17 12  1  0  0  0  0
 18  8  1  0  0  0  0
  1 20  1  0  0  0  0
  1 21  1  0  0  0  0
  1 22  1  0  0  0  0
  2 23  1  0  0  0  0
  2 24  1  0  0  0  0
  3 25  1  0  0  0  0
  5 26  1  0  0  0  0
  6 27  1  0  0  0  0
  7 28  1  0  0  0  0
 13 29  1  0  0  0  0
 14 30  1  0  0  0  0
 15 31  1  0  0  0  0
 16 32  1  0  0  0  0
M  END
