
  xtb     03212210143D
 energy: -16.464227092957 gnorm: 0.000405200302 xtb: 6.4.1 (afa7bdf)
 76 80  0     0  0            999 V2000
    2.3050    2.8682    0.2556 C   0  0  0  0  0  0  0  0  0  0  0  0
    2.2504    1.5547    0.7595 O   0  0  0  0  0  0  0  0  0  0  0  0
    1.1440    0.8052    0.3543 C   0  0  0  0  0  0  0  0  0  0  0  0
    0.1279    1.3098   -0.4474 C   0  0  0  0  0  0  0  0  0  0  0  0
   -1.0051    0.5710   -0.7748 C   0  0  0  0  0  0  0  0  0  0  0  0
   -2.0615    1.1926   -1.5699 C   0  0  0  0  0  0  0  0  0  0  0  0
   -3.3843    1.1962   -1.2634 C   0  0  0  0  0  0  0  0  0  0  0  0
   -4.2913    1.8420   -2.1158 C   0  0  0  0  0  0  0  0  0  0  0  0
   -5.0802    2.4110   -2.8576 C   0  0  0  0  0  0  0  0  0  0  0  0
   -5.9852    3.0698   -3.7121 C   0  0  0  0  0  0  0  0  0  0  0  0
   -6.3464    4.3927   -3.4813 C   0  0  0  0  0  0  0  0  0  0  0  0
   -7.2320    5.0372   -4.3186 C   0  0  0  0  0  0  0  0  0  0  0  0
   -7.7709    4.3699   -5.4000 C   0  0  0  0  0  0  0  0  0  0  0  0
   -7.4225    3.0565   -5.6427 C   0  0  0  0  0  0  0  0  0  0  0  0
   -6.5370    2.4115   -4.8057 C   0  0  0  0  0  0  0  0  0  0  0  0
   -3.8563    0.6356   -0.0682 C   0  0  0  0  0  0  0  0  0  0  0  0
   -4.1543    0.1157    0.9980 C   0  0  0  0  0  0  0  0  0  0  0  0
   -4.3735   -0.5349    2.2265 C   0  0  0  0  0  0  0  0  0  0  0  0
   -3.2944   -1.0290    2.9511 C   0  0  0  0  0  0  0  0  0  0  0  0
   -3.4899   -1.6770    4.1515 C   0  0  0  0  0  0  0  0  0  0  0  0
   -4.7681   -1.8411    4.6463 C   0  0  0  0  0  0  0  0  0  0  0  0
   -5.8496   -1.3562    3.9383 C   0  0  0  0  0  0  0  0  0  0  0  0
   -5.6547   -0.7082    2.7371 C   0  0  0  0  0  0  0  0  0  0  0  0
   -1.1063   -0.7742   -0.3199 C   0  0  0  0  0  0  0  0  0  0  0  0
   -2.2006   -1.5312   -0.7437 O   0  0  0  0  0  0  0  0  0  0  0  0
   -2.2480   -2.8498   -0.2526 C   0  0  0  0  0  0  0  0  0  0  0  0
   -0.0919   -1.2776    0.4853 C   0  0  0  0  0  0  0  0  0  0  0  0
    1.0385   -0.5366    0.8171 C   0  0  0  0  0  0  0  0  0  0  0  0
    2.0941   -1.1475    1.6238 C   0  0  0  0  0  0  0  0  0  0  0  0
    3.4123   -1.1760    1.2995 C   0  0  0  0  0  0  0  0  0  0  0  0
    3.8612   -0.6724    0.0704 C   0  0  0  0  0  0  0  0  0  0  0  0
    4.1214   -0.2095   -1.0313 C   0  0  0  0  0  0  0  0  0  0  0  0
    4.2790    0.3601   -2.3085 C   0  0  0  0  0  0  0  0  0  0  0  0
    3.1712    0.8631   -2.9819 C   0  0  0  0  0  0  0  0  0  0  0  0
    3.3035    1.4255   -4.2330 C   0  0  0  0  0  0  0  0  0  0  0  0
    4.5461    1.4939   -4.8302 C   0  0  0  0  0  0  0  0  0  0  0  0
    5.6556    0.9995   -4.1739 C   0  0  0  0  0  0  0  0  0  0  0  0
    5.5239    0.4366   -2.9222 C   0  0  0  0  0  0  0  0  0  0  0  0
    4.3322   -1.7831    2.1663 C   0  0  0  0  0  0  0  0  0  0  0  0
    5.1380   -2.3072    2.9228 C   0  0  0  0  0  0  0  0  0  0  0  0
    6.0685   -2.9041    3.7952 C   0  0  0  0  0  0  0  0  0  0  0  0
    5.6827   -3.3370    5.0592 C   0  0  0  0  0  0  0  0  0  0  0  0
    6.5950   -3.9200    5.9127 C   0  0  0  0  0  0  0  0  0  0  0  0
    7.9075   -4.0797    5.5167 C   0  0  0  0  0  0  0  0  0  0  0  0
    8.3064   -3.6551    4.2654 C   0  0  0  0  0  0  0  0  0  0  0  0
    7.3945   -3.0720    3.4115 C   0  0  0  0  0  0  0  0  0  0  0  0
    1.4458    3.4385    0.6096 H   0  0  0  0  0  0  0  0  0  0  0  0
    3.2170    3.3399    0.6220 H   0  0  0  0  0  0  0  0  0  0  0  0
    2.3322    2.8497   -0.8341 H   0  0  0  0  0  0  0  0  0  0  0  0
    0.1844    2.3215   -0.8017 H   0  0  0  0  0  0  0  0  0  0  0  0
   -1.7581    1.7404   -2.4480 H   0  0  0  0  0  0  0  0  0  0  0  0
   -5.9227    4.9083   -2.6359 H   0  0  0  0  0  0  0  0  0  0  0  0
   -7.5036    6.0625   -4.1285 H   0  0  0  0  0  0  0  0  0  0  0  0
   -8.4634    4.8740   -6.0544 H   0  0  0  0  0  0  0  0  0  0  0  0
   -7.8428    2.5349   -6.4866 H   0  0  0  0  0  0  0  0  0  0  0  0
   -6.2613    1.3867   -4.9898 H   0  0  0  0  0  0  0  0  0  0  0  0
   -2.3010   -0.9005    2.5547 H   0  0  0  0  0  0  0  0  0  0  0  0
   -2.6452   -2.0562    4.7026 H   0  0  0  0  0  0  0  0  0  0  0  0
   -4.9217   -2.3485    5.5848 H   0  0  0  0  0  0  0  0  0  0  0  0
   -6.8474   -1.4851    4.3243 H   0  0  0  0  0  0  0  0  0  0  0  0
   -6.4941   -0.3299    2.1783 H   0  0  0  0  0  0  0  0  0  0  0  0
   -3.1534   -3.3254   -0.6300 H   0  0  0  0  0  0  0  0  0  0  0  0
   -1.3812   -3.4093   -0.6054 H   0  0  0  0  0  0  0  0  0  0  0  0
   -2.2834   -2.8425    0.8370 H   0  0  0  0  0  0  0  0  0  0  0  0
   -0.1476   -2.2896    0.8390 H   0  0  0  0  0  0  0  0  0  0  0  0
    1.7961   -1.6523    2.5291 H   0  0  0  0  0  0  0  0  0  0  0  0
    2.2063    0.8083   -2.5061 H   0  0  0  0  0  0  0  0  0  0  0  0
    2.4370    1.8115   -4.7441 H   0  0  0  0  0  0  0  0  0  0  0  0
    4.6502    1.9335   -5.8088 H   0  0  0  0  0  0  0  0  0  0  0  0
    6.6255    1.0534   -4.6402 H   0  0  0  0  0  0  0  0  0  0  0  0
    6.3852    0.0495   -2.4044 H   0  0  0  0  0  0  0  0  0  0  0  0
    4.6573   -3.2089    5.3631 H   0  0  0  0  0  0  0  0  0  0  0  0
    6.2831   -4.2507    6.8897 H   0  0  0  0  0  0  0  0  0  0  0  0
    8.6208   -4.5352    6.1843 H   0  0  0  0  0  0  0  0  0  0  0  0
    9.3310   -3.7789    3.9557 H   0  0  0  0  0  0  0  0  0  0  0  0
    7.6998   -2.7380    2.4341 H   0  0  0  0  0  0  0  0  0  0  0  0
  1  2  1  0  0  0  0
  2  3  1  0  0  0  0
  3  4  2  0  0  0  0
  4  5  1  0  0  0  0
  5  6  1  0  0  0  0
  6  7  2  0  0  0  0
  7  8  1  0  0  0  0
  8  9  3  0  0  0  0
  9 10  1  0  0  0  0
 10 11  2  0  0  0  0
 11 12  1  0  0  0  0
 12 13  2  0  0  0  0
 13 14  1  0  0  0  0
 14 15  2  0  0  0  0
  7 16  1  0  0  0  0
 16 17  3  0  0  0  0
 17 18  1  0  0  0  0
 18 19  2  0  0  0  0
 19 20  1  0  0  0  0
 20 21  2  0  0  0  0
 21 22  1  0  0  0  0
 22 23  2  0  0  0  0
  5 24  2  0  0  0  0
 24 25  1  0  0  0  0
 25 26  1  0  0  0  0
 24 27  1  0  0  0  0
 27 28  2  0  0  0  0
 28 29  1  0  0  0  0
 29 30  2  0  0  0  0
 30 31  1  0  0  0  0
 31 32  3  0  0  0  0
 32 33  1  0  0  0  0
 33 34  2  0  0  0  0
 34 35  1  0  0  0  0
 35 36  2  0  0  0  0
 36 37  1  0  0  0  0
 37 38  2  0  0  0  0
 30 39  1  0  0  0  0
 39 40  3  0  0  0  0
 40 41  1  0  0  0  0
 41 42  2  0  0  0  0
 42 43  1  0  0  0  0
 43 44  2  0  0  0  0
 44 45  1  0  0  0  0
 45 46  2  0  0  0  0
 28  3  1  0  0  0  0
 38 33  1  0  0  0  0
 46 41  1  0  0  0  0
 15 10  1  0  0  0  0
 23 18  1  0  0  0  0
  1 47  1  0  0  0  0
  1 48  1  0  0  0  0
  1 49  1  0  0  0  0
  4 50  1  0  0  0  0
  6 51  1  0  0  0  0
 11 52  1  0  0  0  0
 12 53  1  0  0  0  0
 13 54  1  0  0  0  0
 14 55  1  0  0  0  0
 15 56  1  0  0  0  0
 19 57  1  0  0  0  0
 20 58  1  0  0  0  0
 21 59  1  0  0  0  0
 22 60  1  0  0  0  0
 23 61  1  0  0  0  0
 26 62  1  0  0  0  0
 26 63  1  0  0  0  0
 26 64  1  0  0  0  0
 27 65  1  0  0  0  0
 29 66  1  0  0  0  0
 34 67  1  0  0  0  0
 35 68  1  0  0  0  0
 36 69  1  0  0  0  0
 37 70  1  0  0  0  0
 38 71  1  0  0  0  0
 42 72  1  0  0  0  0
 43 73  1  0  0  0  0
 44 74  1  0  0  0  0
 45 75  1  0  0  0  0
 46 76  1  0  0  0  0
M  END
