
  xtb     03212210143D
 energy: -9.433467604697 gnorm: 0.000335274088 xtb: 6.4.1 (afa7bdf)
 47 50  0     0  0            999 V2000
    6.1421   -0.4774    1.7635 N   0  0  0  0  0  0  0  0  0  0  0  0
    5.2520   -0.4441    3.2159 S   0  0  0  0  0  6  0  0  0  0  0  0
    5.3455   -1.7968    3.8486 O   0  0  0  0  0  0  0  0  0  0  0  0
    5.5843    0.8289    3.9284 O   0  0  0  0  0  0  0  0  0  0  0  0
    3.6125   -0.2738    2.5171 C   0  0  0  0  0  0  0  0  0  0  0  0
    2.8865   -1.3987    2.1974 C   0  0  0  0  0  0  0  0  0  0  0  0
    1.6266   -1.2684    1.6570 C   0  0  0  0  0  0  0  0  0  0  0  0
    1.0811   -0.0095    1.4339 C   0  0  0  0  0  0  0  0  0  0  0  0
   -0.2171    0.0838    0.8774 N   0  0  0  0  0  0  0  0  0  0  0  0
   -0.9300   -1.0066    0.5053 N   0  0  0  0  0  0  0  0  0  0  0  0
   -2.1097   -0.6420    0.0979 C   0  0  0  0  0  0  0  0  0  0  0  0
   -3.1059   -1.5830   -0.3678 C   0  0  0  0  0  0  0  0  0  0  0  0
   -4.3674   -1.1687   -0.8050 C   0  0  0  0  0  0  0  0  0  0  0  0
   -5.2906   -2.0848   -1.2412 C   0  0  0  0  0  0  0  0  0  0  0  0
   -4.9966   -3.4501   -1.2599 C   0  0  0  0  0  0  0  0  0  0  0  0
   -5.9489   -4.3462   -1.7063 O   0  0  0  0  0  0  0  0  0  0  0  0
   -3.7362   -3.8643   -0.8218 C   0  0  0  0  0  0  0  0  0  0  0  0
   -2.8128   -2.9480   -0.3860 C   0  0  0  0  0  0  0  0  0  0  0  0
   -2.2914    0.8512    0.1679 C   0  0  0  0  0  0  0  0  0  0  0  0
   -0.9238    1.3659    0.6391 C   0  0  0  0  0  0  0  0  0  0  0  0
   -0.2234    2.2071   -0.3907 C   0  0  0  0  0  0  0  0  0  0  0  0
   -0.2232    3.5912   -0.3115 C   0  0  0  0  0  0  0  0  0  0  0  0
    0.4134    4.3454   -1.2737 C   0  0  0  0  0  0  0  0  0  0  0  0
    1.0555    3.7324   -2.3328 C   0  0  0  0  0  0  0  0  0  0  0  0
    1.6811    4.4767   -3.2778 F   0  0  0  0  0  0  0  0  0  0  0  0
    1.0519    2.3535   -2.4198 C   0  0  0  0  0  0  0  0  0  0  0  0
    0.4153    1.5997   -1.4584 C   0  0  0  0  0  0  0  0  0  0  0  0
    1.8288    1.1177    1.7640 C   0  0  0  0  0  0  0  0  0  0  0  0
    3.0885    0.9812    2.3036 C   0  0  0  0  0  0  0  0  0  0  0  0
    6.6583   -1.3347    1.7421 H   0  0  0  0  0  0  0  0  0  0  0  0
    6.7946    0.2802    1.7930 H   0  0  0  0  0  0  0  0  0  0  0  0
    3.3129   -2.3701    2.3842 H   0  0  0  0  0  0  0  0  0  0  0  0
    1.0424   -2.1345    1.4021 H   0  0  0  0  0  0  0  0  0  0  0  0
   -4.6115   -0.1217   -0.7966 H   0  0  0  0  0  0  0  0  0  0  0  0
   -6.2622   -1.7714   -1.5789 H   0  0  0  0  0  0  0  0  0  0  0  0
   -5.5995   -5.2617   -1.6598 H   0  0  0  0  0  0  0  0  0  0  0  0
   -3.4984   -4.9128   -0.8300 H   0  0  0  0  0  0  0  0  0  0  0  0
   -1.8433   -3.2687   -0.0488 H   0  0  0  0  0  0  0  0  0  0  0  0
   -3.0976    1.1136    0.8616 H   0  0  0  0  0  0  0  0  0  0  0  0
   -2.5435    1.2577   -0.8165 H   0  0  0  0  0  0  0  0  0  0  0  0
   -0.9970    1.9044    1.5943 H   0  0  0  0  0  0  0  0  0  0  0  0
   -0.7264    4.0735    0.5082 H   0  0  0  0  0  0  0  0  0  0  0  0
    0.4217    5.4193   -1.2195 H   0  0  0  0  0  0  0  0  0  0  0  0
    1.5540    1.8870   -3.2482 H   0  0  0  0  0  0  0  0  0  0  0  0
    0.4117    0.5259   -1.5211 H   0  0  0  0  0  0  0  0  0  0  0  0
    1.4216    2.0959    1.5844 H   0  0  0  0  0  0  0  0  0  0  0  0
    3.6741    1.8455    2.5695 H   0  0  0  0  0  0  0  0  0  0  0  0
  1  2  1  0  0  0  0
  2  3  2  0  0  0  0
  2  4  2  0  0  0  0
  2  5  1  0  0  0  0
  5  6  2  0  0  0  0
  6  7  1  0  0  0  0
  7  8  2  0  0  0  0
  8  9  1  0  0  0  0
  9 10  1  0  0  0  0
 10 11  2  0  0  0  0
 11 12  1  0  0  0  0
 12 13  2  0  0  0  0
 13 14  1  0  0  0  0
 14 15  2  0  0  0  0
 15 16  1  0  0  0  0
 15 17  1  0  0  0  0
 17 18  2  0  0  0  0
 11 19  1  0  0  0  0
 19 20  1  0  0  0  0
 20 21  1  0  0  0  0
 21 22  2  0  0  0  0
 22 23  1  0  0  0  0
 23 24  2  0  0  0  0
 24 25  1  0  0  0  0
 24 26  1  0  0  0  0
 26 27  2  0  0  0  0
  8 28  1  0  0  0  0
 28 29  2  0  0  0  0
 29  5  1  0  0  0  0
 20  9  1  0  0  0  0
 27 21  1  0  0  0  0
 18 12  1  0  0  0  0
  1 30  1  0  0  0  0
  1 31  1  0  0  0  0
  6 32  1  0  0  0  0
  7 33  1  0  0  0  0
 13 34  1  0  0  0  0
 14 35  1  0  0  0  0
 16 36  1  0  0  0  0
 17 37  1  0  0  0  0
 18 38  1  0  0  0  0
 19 39  1  0  0  0  0
 19 40  1  0  0  0  0
 20 41  1  0  0  0  0
 22 42  1  0  0  0  0
 23 43  1  0  0  0  0
 26 44  1  0  0  0  0
 27 45  1  0  0  0  0
 28 46  1  0  0  0  0
 29 47  1  0  0  0  0
M  END
