
  xtb     03212210143D
 energy: -6.430605787210 gnorm: 0.000163540388 xtb: 6.4.1 (afa7bdf)
 30 32  0     0  0            999 V2000
   -3.4070    2.5596    0.0999 O   0  0  0  0  0  0  0  0  0  0  0  0
   -2.5669    1.6715    0.0551 C   0  0  0  0  0  0  0  0  0  0  0  0
   -1.1826    1.9658   -0.1714 C   0  0  0  0  0  0  0  0  0  0  0  0
   -0.2036    1.0161   -0.2216 C   0  0  0  0  0  0  0  0  0  0  0  0
    1.1075    1.4217   -0.4486 N   0  0  0  0  0  0  0  0  0  0  0  0
    2.3587    0.7803   -0.3036 C   0  0  0  0  0  0  0  0  0  0  0  0
    3.4704    1.2919   -0.9714 C   0  0  0  0  0  0  0  0  0  0  0  0
    4.7137    0.7321   -0.8027 C   0  0  0  0  0  0  0  0  0  0  0  0
    4.8887   -0.3487    0.0429 C   0  0  0  0  0  0  0  0  0  0  0  0
    6.1191   -0.8922    0.2169 F   0  0  0  0  0  0  0  0  0  0  0  0
    3.7947   -0.8613    0.7166 C   0  0  0  0  0  0  0  0  0  0  0  0
    2.5515   -0.3017    0.5511 C   0  0  0  0  0  0  0  0  0  0  0  0
   -0.5732   -0.4041   -0.0989 C   0  0  0  0  0  0  0  0  0  0  0  0
    0.2376   -1.2983   -0.2221 O   0  0  0  0  0  0  0  0  0  0  0  0
   -1.9824   -0.7390    0.1652 C   0  0  0  0  0  0  0  0  0  0  0  0
   -2.3643   -2.0614    0.3309 C   0  0  0  0  0  0  0  0  0  0  0  0
   -3.6792   -2.3857    0.5724 C   0  0  0  0  0  0  0  0  0  0  0  0
   -4.6352   -1.3901    0.6498 C   0  0  0  0  0  0  0  0  0  0  0  0
   -4.2725   -0.0741    0.4832 C   0  0  0  0  0  0  0  0  0  0  0  0
   -2.9514    0.2672    0.2394 C   0  0  0  0  0  0  0  0  0  0  0  0
   -0.9213    3.0004   -0.2857 H   0  0  0  0  0  0  0  0  0  0  0  0
    1.1866    2.3876   -0.7630 H   0  0  0  0  0  0  0  0  0  0  0  0
    3.3415    2.1315   -1.6314 H   0  0  0  0  0  0  0  0  0  0  0  0
    5.5714    1.1217   -1.3221 H   0  0  0  0  0  0  0  0  0  0  0  0
    3.9390   -1.7079    1.3645 H   0  0  0  0  0  0  0  0  0  0  0  0
    1.7003   -0.7122    1.0643 H   0  0  0  0  0  0  0  0  0  0  0  0
   -1.6080   -2.8241    0.2614 H   0  0  0  0  0  0  0  0  0  0  0  0
   -3.9644   -3.4167    0.6995 H   0  0  0  0  0  0  0  0  0  0  0  0
   -5.6652   -1.6452    0.8386 H   0  0  0  0  0  0  0  0  0  0  0  0
   -5.0036    0.7148    0.5366 H   0  0  0  0  0  0  0  0  0  0  0  0
  1  2  2  0  0  0  0
  2  3  1  0  0  0  0
  3  4  2  0  0  0  0
  4  5  1  0  0  0  0
  5  6  1  0  0  0  0
  6  7  2  0  0  0  0
  7  8  1  0  0  0  0
  8  9  2  0  0  0  0
  9 10  1  0  0  0  0
  9 11  1  0  0  0  0
 11 12  2  0  0  0  0
  4 13  1  0  0  0  0
 13 14  2  0  0  0  0
 13 15  1  0  0  0  0
 15 16  2  0  0  0  0
 16 17  1  0  0  0  0
 17 18  2  0  0  0  0
 18 19  1  0  0  0  0
 19 20  2  0  0  0  0
 20  2  1  0  0  0  0
 12  6  1  0  0  0  0
 20 15  1  0  0  0  0
  3 21  1  0  0  0  0
  5 22  1  0  0  0  0
  7 23  1  0  0  0  0
  8 24  1  0  0  0  0
 11 25  1  0  0  0  0
 12 26  1  0  0  0  0
 16 27  1  0  0  0  0
 17 28  1  0  0  0  0
 18 29  1  0  0  0  0
 19 30  1  0  0  0  0
M  END
