
  xtb     03212210143D
 energy: -9.128509065467 gnorm: 0.000312813084 xtb: 6.4.1 (afa7bdf)
 44 48  0     0  0            999 V2000
   -5.1737   -1.9238   -0.3423 C   0  0  0  0  0  0  0  0  0  0  0  0
   -3.7360   -2.3285   -0.5841 C   0  0  0  0  0  0  0  0  0  0  0  0
   -2.8481   -1.3717   -0.0608 O   0  0  0  0  0  0  0  0  0  0  0  0
   -1.6336   -1.4494   -0.6848 C   0  0  0  0  0  0  0  0  0  0  0  0
   -1.3255   -2.3518   -1.4416 O   0  0  0  0  0  0  0  0  0  0  0  0
   -0.6672   -0.3695   -0.3646 C   0  0  0  0  0  0  0  0  0  0  0  0
   -1.0761    0.9417   -0.2568 C   0  0  0  0  0  0  0  0  0  0  0  0
   -0.1418    1.9302    0.1366 C   0  0  0  0  0  0  0  0  0  0  0  0
   -0.7439    3.1928    0.1962 C   0  0  0  0  0  0  0  0  0  0  0  0
    0.0262    4.2816    0.5692 C   0  0  0  0  0  0  0  0  0  0  0  0
    1.3643    4.0756    0.8697 C   0  0  0  0  0  0  0  0  0  0  0  0
    1.9601    2.8203    0.8068 C   0  0  0  0  0  0  0  0  0  0  0  0
    3.2706    2.6837    1.1127 F   0  0  0  0  0  0  0  0  0  0  0  0
    1.1987    1.7004    0.4287 C   0  0  0  0  0  0  0  0  0  0  0  0
    1.6615    0.3340    0.2956 C   0  0  0  0  0  0  0  0  0  0  0  0
    2.9730   -0.0092    0.5465 C   0  0  0  0  0  0  0  0  0  0  0  0
    3.4297   -1.3249    0.4068 C   0  0  0  0  0  0  0  0  0  0  0  0
    4.7732   -1.6856    0.6641 C   0  0  0  0  0  0  0  0  0  0  0  0
    5.1864   -2.9711    0.5118 C   0  0  0  0  0  0  0  0  0  0  0  0
    4.2871   -3.9632    0.0949 C   0  0  0  0  0  0  0  0  0  0  0  0
    2.9892   -3.6564   -0.1618 C   0  0  0  0  0  0  0  0  0  0  0  0
    2.5194   -2.3294   -0.0120 C   0  0  0  0  0  0  0  0  0  0  0  0
    1.1902   -1.9796   -0.2651 C   0  0  0  0  0  0  0  0  0  0  0  0
    0.7282   -0.6834   -0.1161 C   0  0  0  0  0  0  0  0  0  0  0  0
   -2.0863    3.0155   -0.1781 N   0  0  0  0  0  0  0  0  0  0  0  0
   -3.0812    4.0570   -0.3209 C   0  0  0  0  0  0  0  0  0  0  0  0
   -2.3442    1.6667   -0.4903 C   0  0  0  0  0  0  0  0  0  0  0  0
   -3.4092    1.2418   -0.8953 O   0  0  0  0  0  0  0  0  0  0  0  0
   -5.8832   -2.6283   -0.7787 H   0  0  0  0  0  0  0  0  0  0  0  0
   -5.3570   -0.9368   -0.7694 H   0  0  0  0  0  0  0  0  0  0  0  0
   -5.3761   -1.8505    0.7261 H   0  0  0  0  0  0  0  0  0  0  0  0
   -3.5200   -2.4155   -1.6591 H   0  0  0  0  0  0  0  0  0  0  0  0
   -3.4891   -3.2941   -0.1234 H   0  0  0  0  0  0  0  0  0  0  0  0
   -0.4161    5.2604    0.6217 H   0  0  0  0  0  0  0  0  0  0  0  0
    1.9813    4.9056    1.1634 H   0  0  0  0  0  0  0  0  0  0  0  0
    3.6621    0.7539    0.8542 H   0  0  0  0  0  0  0  0  0  0  0  0
    5.4649   -0.9240    0.9823 H   0  0  0  0  0  0  0  0  0  0  0  0
    6.2127   -3.2339    0.7109 H   0  0  0  0  0  0  0  0  0  0  0  0
    4.6328   -4.9782   -0.0228 H   0  0  0  0  0  0  0  0  0  0  0  0
    2.3015   -4.4193   -0.4832 H   0  0  0  0  0  0  0  0  0  0  0  0
    0.5079   -2.7348   -0.6099 H   0  0  0  0  0  0  0  0  0  0  0  0
   -3.2197    4.5731    0.6264 H   0  0  0  0  0  0  0  0  0  0  0  0
   -4.0258    3.6090   -0.6241 H   0  0  0  0  0  0  0  0  0  0  0  0
   -2.7670    4.7703   -1.0795 H   0  0  0  0  0  0  0  0  0  0  0  0
  1  2  1  0  0  0  0
  2  3  1  0  0  0  0
  3  4  1  0  0  0  0
  4  5  2  0  0  0  0
  4  6  1  0  0  0  0
  6  7  2  0  0  0  0
  7  8  1  0  0  0  0
  8  9  2  0  0  0  0
  9 10  1  0  0  0  0
 10 11  2  0  0  0  0
 11 12  1  0  0  0  0
 12 13  1  0  0  0  0
 12 14  2  0  0  0  0
 14 15  1  0  0  0  0
 15 16  2  0  0  0  0
 16 17  1  0  0  0  0
 17 18  2  0  0  0  0
 18 19  1  0  0  0  0
 19 20  2  0  0  0  0
 20 21  1  0  0  0  0
 21 22  2  0  0  0  0
 22 23  1  0  0  0  0
 23 24  2  0  0  0  0
  9 25  1  0  0  0  0
 25 26  1  0  0  0  0
 25 27  1  0  0  0  0
 27 28  2  0  0  0  0
 24  6  1  0  0  0  0
 27  7  1  0  0  0  0
 14  8  1  0  0  0  0
 24 15  1  0  0  0  0
 22 17  1  0  0  0  0
  1 29  1  0  0  0  0
  1 30  1  0  0  0  0
  1 31  1  0  0  0  0
  2 32  1  0  0  0  0
  2 33  1  0  0  0  0
 10 34  1  0  0  0  0
 11 35  1  0  0  0  0
 16 36  1  0  0  0  0
 18 37  1  0  0  0  0
 19 38  1  0  0  0  0
 20 39  1  0  0  0  0
 21 40  1  0  0  0  0
 23 41  1  0  0  0  0
 26 42  1  0  0  0  0
 26 43  1  0  0  0  0
 26 44  1  0  0  0  0
M  END
