
  xtb     03212210143D
 energy: -6.464528726823 gnorm: 0.000245776006 xtb: 6.4.1 (afa7bdf)
 30 32  0     0  0            999 V2000
    1.7680    2.4861    1.2504 O   0  0  0  0  0  0  0  0  0  0  0  0
    1.5674    1.3585    0.8204 C   0  0  0  0  0  0  0  0  0  0  0  0
    0.2385    0.8891    0.5569 C   0  0  0  0  0  0  0  0  0  0  0  0
   -0.0179   -0.3584    0.0758 C   0  0  0  0  0  0  0  0  0  0  0  0
   -1.2842   -0.8416   -0.1871 N   0  0  0  0  0  0  0  0  0  0  0  0
   -2.5426   -0.1980   -0.2496 C   0  0  0  0  0  0  0  0  0  0  0  0
   -2.6673    1.1409   -0.6144 C   0  0  0  0  0  0  0  0  0  0  0  0
   -3.9052    1.7363   -0.6832 C   0  0  0  0  0  0  0  0  0  0  0  0
   -5.0420    1.0076   -0.3982 C   0  0  0  0  0  0  0  0  0  0  0  0
   -4.9373   -0.3245   -0.0531 C   0  0  0  0  0  0  0  0  0  0  0  0
   -3.7016   -0.9244    0.0158 C   0  0  0  0  0  0  0  0  0  0  0  0
    1.0767   -1.3084   -0.1509 C   0  0  0  0  0  0  0  0  0  0  0  0
    0.8251   -2.4351   -0.5305 O   0  0  0  0  0  0  0  0  0  0  0  0
    2.4519   -0.8558    0.0934 C   0  0  0  0  0  0  0  0  0  0  0  0
    3.5226   -1.7065   -0.1342 C   0  0  0  0  0  0  0  0  0  0  0  0
    4.8117   -1.2839    0.0942 C   0  0  0  0  0  0  0  0  0  0  0  0
    5.0486   -0.0018    0.5546 C   0  0  0  0  0  0  0  0  0  0  0  0
    3.9961    0.8531    0.7863 C   0  0  0  0  0  0  0  0  0  0  0  0
    2.6914    0.4427    0.5614 C   0  0  0  0  0  0  0  0  0  0  0  0
   -0.5698    1.5507    0.7976 H   0  0  0  0  0  0  0  0  0  0  0  0
   -1.2813   -1.8402   -0.4059 H   0  0  0  0  0  0  0  0  0  0  0  0
   -1.7879    1.6945   -0.8898 H   0  0  0  0  0  0  0  0  0  0  0  0
   -3.9881    2.7725   -0.9674 H   0  0  0  0  0  0  0  0  0  0  0  0
   -6.0114    1.4765   -0.4521 H   0  0  0  0  0  0  0  0  0  0  0  0
   -5.8251   -0.8957    0.1626 H   0  0  0  0  0  0  0  0  0  0  0  0
   -3.6140   -1.9614    0.2884 H   0  0  0  0  0  0  0  0  0  0  0  0
    3.3192   -2.7015   -0.4916 H   0  0  0  0  0  0  0  0  0  0  0  0
    5.6368   -1.9527   -0.0853 H   0  0  0  0  0  0  0  0  0  0  0  0
    6.0588    0.3281    0.7335 H   0  0  0  0  0  0  0  0  0  0  0  0
    4.1627    1.8535    1.1480 H   0  0  0  0  0  0  0  0  0  0  0  0
  1  2  2  0  0  0  0
  2  3  1  0  0  0  0
  3  4  2  0  0  0  0
  4  5  1  0  0  0  0
  5  6  1  0  0  0  0
  6  7  2  0  0  0  0
  7  8  1  0  0  0  0
  8  9  2  0  0  0  0
  9 10  1  0  0  0  0
 10 11  2  0  0  0  0
  4 12  1  0  0  0  0
 12 13  2  0  0  0  0
 12 14  1  0  0  0  0
 14 15  2  0  0  0  0
 15 16  1  0  0  0  0
 16 17  2  0  0  0  0
 17 18  1  0  0  0  0
 18 19  2  0  0  0  0
 19  2  1  0  0  0  0
 11  6  1  0  0  0  0
 19 14  1  0  0  0  0
  3 20  1  0  0  0  0
  5 21  1  0  0  0  0
  7 22  1  0  0  0  0
  8 23  1  0  0  0  0
  9 24  1  0  0  0  0
 10 25  1  0  0  0  0
 11 26  1  0  0  0  0
 15 27  1  0  0  0  0
 16 28  1  0  0  0  0
 17 29  1  0  0  0  0
 18 30  1  0  0  0  0
M  END
