
  xtb     03212210133D
 energy: -6.388678314537 gnorm: 0.000279458612 xtb: 6.4.1 (afa7bdf)
 30 32  0     0  0            999 V2000
   -0.6972    0.9769    1.4965 O   0  0  0  0  0  0  0  0  0  0  0  0
    0.3690    0.7209    0.9740 C   0  0  0  0  0  0  0  0  0  0  0  0
    1.4742    1.5626    0.9252 N   0  0  0  0  0  0  0  0  0  0  0  0
    2.5543    0.9317    0.3119 C   0  0  0  0  0  0  0  0  0  0  0  0
    3.8502    1.3759    0.0811 C   0  0  0  0  0  0  0  0  0  0  0  0
    4.7348    0.5288   -0.5453 C   0  0  0  0  0  0  0  0  0  0  0  0
    4.3448   -0.7468   -0.9408 C   0  0  0  0  0  0  0  0  0  0  0  0
    3.0621   -1.1983   -0.7165 C   0  0  0  0  0  0  0  0  0  0  0  0
    2.1565   -0.3555   -0.0838 C   0  0  0  0  0  0  0  0  0  0  0  0
    0.7617   -0.5347    0.2906 C   0  0  0  0  0  0  0  0  0  0  0  0
    0.0385   -1.6658    0.0968 C   0  0  0  0  0  0  0  0  0  0  0  0
   -1.3719   -1.8926    0.4068 C   0  0  0  0  0  0  0  0  0  0  0  0
   -1.7349   -2.9943    0.7848 O   0  0  0  0  0  0  0  0  0  0  0  0
   -2.3868   -0.8303    0.2213 C   0  0  0  0  0  0  0  0  0  0  0  0
   -3.5098   -0.8195    1.0423 C   0  0  0  0  0  0  0  0  0  0  0  0
   -4.4799    0.1402    0.8890 C   0  0  0  0  0  0  0  0  0  0  0  0
   -4.3477    1.1038   -0.0989 C   0  0  0  0  0  0  0  0  0  0  0  0
   -5.5657    2.3028   -0.2991 Cl  0  0  0  0  0  0  0  0  0  0  0  0
   -3.2399    1.0966   -0.9323 C   0  0  0  0  0  0  0  0  0  0  0  0
   -2.2716    0.1355   -0.7782 C   0  0  0  0  0  0  0  0  0  0  0  0
    1.4938    2.4792    1.3627 H   0  0  0  0  0  0  0  0  0  0  0  0
    4.1406    2.3629    0.3932 H   0  0  0  0  0  0  0  0  0  0  0  0
    5.7443    0.8571   -0.7308 H   0  0  0  0  0  0  0  0  0  0  0  0
    5.0569   -1.3914   -1.4285 H   0  0  0  0  0  0  0  0  0  0  0  0
    2.7601   -2.1842   -1.0204 H   0  0  0  0  0  0  0  0  0  0  0  0
    0.5617   -2.5275   -0.2781 H   0  0  0  0  0  0  0  0  0  0  0  0
   -3.5952   -1.5778    1.8022 H   0  0  0  0  0  0  0  0  0  0  0  0
   -5.3457    0.1600    1.5285 H   0  0  0  0  0  0  0  0  0  0  0  0
   -3.1507    1.8557   -1.6904 H   0  0  0  0  0  0  0  0  0  0  0  0
   -1.4066    0.1280   -1.4179 H   0  0  0  0  0  0  0  0  0  0  0  0
  1  2  2  0  0  0  0
  2  3  1  0  0  0  0
  3  4  1  0  0  0  0
  4  5  2  0  0  0  0
  5  6  1  0  0  0  0
  6  7  2  0  0  0  0
  7  8  1  0  0  0  0
  8  9  2  0  0  0  0
  9 10  1  0  0  0  0
 10 11  2  0  0  0  0
 11 12  1  0  0  0  0
 12 13  2  0  0  0  0
 12 14  1  0  0  0  0
 14 15  2  0  0  0  0
 15 16  1  0  0  0  0
 16 17  2  0  0  0  0
 17 18  1  0  0  0  0
 17 19  1  0  0  0  0
 19 20  2  0  0  0  0
 10  2  1  0  0  0  0
 20 14  1  0  0  0  0
  9  4  1  0  0  0  0
  3 21  1  0  0  0  0
  5 22  1  0  0  0  0
  6 23  1  0  0  0  0
  7 24  1  0  0  0  0
  8 25  1  0  0  0  0
 11 26  1  0  0  0  0
 15 27  1  0  0  0  0
 16 28  1  0  0  0  0
 19 29  1  0  0  0  0
 20 30  1  0  0  0  0
M  END
