
  xtb     03212210123D
 energy: -8.938807619417 gnorm: 0.000370885050 xtb: 6.4.1 (afa7bdf)
 44 47  0     0  0            999 V2000
    5.2357    0.0502    1.4829 C   0  0  0  0  0  0  0  0  0  0  0  0
    4.6435    0.8883    0.3703 C   0  0  0  0  0  0  0  0  0  0  0  0
    3.2360    0.8689    0.3750 O   0  0  0  0  0  0  0  0  0  0  0  0
    2.7696   -0.3536   -0.0432 C   0  0  0  0  0  0  0  0  0  0  0  0
    3.5043   -1.2742   -0.3830 O   0  0  0  0  0  0  0  0  0  0  0  0
    1.3388   -0.5145   -0.0695 C   0  0  0  0  0  0  0  0  0  0  0  0
    0.6975   -1.6966   -0.4166 C   0  0  0  0  0  0  0  0  0  0  0  0
    1.2809   -2.8493   -0.8145 N   0  0  0  0  0  0  0  0  0  0  0  0
   -0.6739   -1.5624   -0.2180 N   0  0  0  0  0  0  0  0  0  0  0  0
   -1.6602   -2.5414   -0.2673 C   0  0  0  0  0  0  0  0  0  0  0  0
   -1.4280   -3.6606   -0.6945 O   0  0  0  0  0  0  0  0  0  0  0  0
   -2.9730   -2.1603    0.2568 C   0  0  0  0  0  0  0  0  0  0  0  0
   -4.0234   -3.0655    0.2041 C   0  0  0  0  0  0  0  0  0  0  0  0
   -5.2528   -2.7450    0.7264 C   0  0  0  0  0  0  0  0  0  0  0  0
   -5.4538   -1.5113    1.3187 C   0  0  0  0  0  0  0  0  0  0  0  0
   -4.4244   -0.6030    1.3829 C   0  0  0  0  0  0  0  0  0  0  0  0
   -3.1768   -0.9045    0.8557 C   0  0  0  0  0  0  0  0  0  0  0  0
   -2.0981    0.0878    0.9300 C   0  0  0  0  0  0  0  0  0  0  0  0
   -2.2244    1.1286    1.5618 O   0  0  0  0  0  0  0  0  0  0  0  0
   -0.9389   -0.2084    0.2317 N   0  0  0  0  0  0  0  0  0  0  0  0
    0.3202    0.5445    0.3307 C   0  0  0  0  0  0  0  0  0  0  0  0
    0.2999    1.7807   -0.5358 C   0  0  0  0  0  0  0  0  0  0  0  0
   -0.6723    2.7413   -0.3193 C   0  0  0  0  0  0  0  0  0  0  0  0
   -0.7240    3.8861   -1.0837 C   0  0  0  0  0  0  0  0  0  0  0  0
    0.2017    4.0856   -2.0842 C   0  0  0  0  0  0  0  0  0  0  0  0
    1.1731    3.1367   -2.3176 C   0  0  0  0  0  0  0  0  0  0  0  0
    1.2202    1.9927   -1.5499 C   0  0  0  0  0  0  0  0  0  0  0  0
    6.3274    0.0770    1.4847 H   0  0  0  0  0  0  0  0  0  0  0  0
    4.8837    0.3968    2.4556 H   0  0  0  0  0  0  0  0  0  0  0  0
    4.9219   -0.9902    1.3767 H   0  0  0  0  0  0  0  0  0  0  0  0
    4.9684    0.5330   -0.6172 H   0  0  0  0  0  0  0  0  0  0  0  0
    4.9494    1.9392    0.4533 H   0  0  0  0  0  0  0  0  0  0  0  0
    2.2896   -2.9609   -0.8507 H   0  0  0  0  0  0  0  0  0  0  0  0
    0.7277   -3.6884   -0.9546 H   0  0  0  0  0  0  0  0  0  0  0  0
   -3.8476   -4.0266   -0.2483 H   0  0  0  0  0  0  0  0  0  0  0  0
   -6.0607   -3.4582    0.6795 H   0  0  0  0  0  0  0  0  0  0  0  0
   -6.4177   -1.2631    1.7321 H   0  0  0  0  0  0  0  0  0  0  0  0
   -4.5648    0.3593    1.8447 H   0  0  0  0  0  0  0  0  0  0  0  0
    0.4715    0.8294    1.3802 H   0  0  0  0  0  0  0  0  0  0  0  0
   -1.4035    2.5622    0.4490 H   0  0  0  0  0  0  0  0  0  0  0  0
   -1.4896    4.6216   -0.9010 H   0  0  0  0  0  0  0  0  0  0  0  0
    0.1649    4.9804   -2.6836 H   0  0  0  0  0  0  0  0  0  0  0  0
    1.8980    3.2896   -3.0998 H   0  0  0  0  0  0  0  0  0  0  0  0
    1.9840    1.2577   -1.7300 H   0  0  0  0  0  0  0  0  0  0  0  0
  1  2  1  0  0  0  0
  2  3  1  0  0  0  0
  3  4  1  0  0  0  0
  4  5  2  0  0  0  0
  4  6  1  0  0  0  0
  6  7  2  0  0  0  0
  7  8  1  0  0  0  0
  7  9  1  0  0  0  0
  9 10  1  0  0  0  0
 10 11  2  0  0  0  0
 10 12  1  0  0  0  0
 12 13  2  0  0  0  0
 13 14  1  0  0  0  0
 14 15  2  0  0  0  0
 15 16  1  0  0  0  0
 16 17  2  0  0  0  0
 17 18  1  0  0  0  0
 18 19  2  0  0  0  0
 18 20  1  0  0  0  0
 20 21  1  0  0  0  0
 21 22  1  0  0  0  0
 22 23  2  0  0  0  0
 23 24  1  0  0  0  0
 24 25  2  0  0  0  0
 25 26  1  0  0  0  0
 26 27  2  0  0  0  0
 21  6  1  0  0  0  0
 27 22  1  0  0  0  0
 20  9  1  0  0  0  0
 17 12  1  0  0  0  0
  1 28  1  0  0  0  0
  1 29  1  0  0  0  0
  1 30  1  0  0  0  0
  2 31  1  0  0  0  0
  2 32  1  0  0  0  0
  8 33  1  0  0  0  0
  8 34  1  0  0  0  0
 13 35  1  0  0  0  0
 14 36  1  0  0  0  0
 15 37  1  0  0  0  0
 16 38  1  0  0  0  0
 21 39  1  0  0  0  0
 23 40  1  0  0  0  0
 24 41  1  0  0  0  0
 25 42  1  0  0  0  0
 26 43  1  0  0  0  0
 27 44  1  0  0  0  0
M  END
