
  xtb     03212210143D
 energy: -9.322474374843 gnorm: 0.000343304906 xtb: 6.4.1 (afa7bdf)
 43 47  0     0  0            999 V2000
   -2.5596   -4.2061    0.0644 C   0  0  0  0  0  0  0  0  0  0  0  0
   -2.0955   -2.7939   -0.0275 C   0  0  0  0  0  0  0  0  0  0  0  0
   -2.9799   -1.7773   -0.2675 C   0  0  0  0  0  0  0  0  0  0  0  0
   -2.5536   -0.4482   -0.3536 C   0  0  0  0  0  0  0  0  0  0  0  0
   -3.5096    0.6439   -0.6075 C   0  0  0  0  0  0  0  0  0  0  0  0
   -4.8811    0.4439   -0.7706 C   0  0  0  0  0  0  0  0  0  0  0  0
   -5.7253    1.5078   -1.0029 C   0  0  0  0  0  0  0  0  0  0  0  0
   -5.2247    2.7918   -1.0778 C   0  0  0  0  0  0  0  0  0  0  0  0
   -3.8716    3.0099   -0.9193 C   0  0  0  0  0  0  0  0  0  0  0  0
   -3.0267    1.9478   -0.6871 C   0  0  0  0  0  0  0  0  0  0  0  0
   -1.2749   -0.1067   -0.2098 N   0  0  0  0  0  0  0  0  0  0  0  0
   -0.3985   -1.0873    0.0247 C   0  0  0  0  0  0  0  0  0  0  0  0
   -0.7426   -2.4460    0.1290 C   0  0  0  0  0  0  0  0  0  0  0  0
    0.2799   -3.4226    0.3891 C   0  0  0  0  0  0  0  0  0  0  0  0
    1.5779   -3.0783    0.5370 C   0  0  0  0  0  0  0  0  0  0  0  0
    1.9430   -1.7133    0.4320 C   0  0  0  0  0  0  0  0  0  0  0  0
    3.1490   -1.1627    0.5403 N   0  0  0  0  0  0  0  0  0  0  0  0
    2.9707    0.1670    0.3605 C   0  0  0  0  0  0  0  0  0  0  0  0
    4.0659    1.1426    0.4013 C   0  0  0  0  0  0  0  0  0  0  0  0
    5.3649    0.7033    0.6334 C   0  0  0  0  0  0  0  0  0  0  0  0
    6.4149    1.5932    0.6773 C   0  0  0  0  0  0  0  0  0  0  0  0
    6.1838    2.9409    0.4896 C   0  0  0  0  0  0  0  0  0  0  0  0
    4.9008    3.3949    0.2582 C   0  0  0  0  0  0  0  0  0  0  0  0
    3.8497    2.5056    0.2140 C   0  0  0  0  0  0  0  0  0  0  0  0
    1.6264    0.4456    0.1367 C   0  0  0  0  0  0  0  0  0  0  0  0
    0.9668   -0.7459    0.1810 N   0  0  0  0  0  0  0  0  0  0  0  0
   -2.3454   -4.6232    1.0491 H   0  0  0  0  0  0  0  0  0  0  0  0
   -2.0677   -4.8273   -0.6848 H   0  0  0  0  0  0  0  0  0  0  0  0
   -3.6351   -4.2820   -0.0993 H   0  0  0  0  0  0  0  0  0  0  0  0
   -4.0188   -2.0177   -0.3904 H   0  0  0  0  0  0  0  0  0  0  0  0
   -5.2914   -0.5477   -0.7151 H   0  0  0  0  0  0  0  0  0  0  0  0
   -6.7826    1.3371   -1.1265 H   0  0  0  0  0  0  0  0  0  0  0  0
   -5.8881    3.6212   -1.2591 H   0  0  0  0  0  0  0  0  0  0  0  0
   -3.4759    4.0110   -0.9765 H   0  0  0  0  0  0  0  0  0  0  0  0
   -1.9705    2.1103   -0.5615 H   0  0  0  0  0  0  0  0  0  0  0  0
   -0.0045   -4.4568    0.4681 H   0  0  0  0  0  0  0  0  0  0  0  0
    2.3398   -3.8113    0.7316 H   0  0  0  0  0  0  0  0  0  0  0  0
    5.5334   -0.3499    0.7783 H   0  0  0  0  0  0  0  0  0  0  0  0
    7.4156    1.2374    0.8580 H   0  0  0  0  0  0  0  0  0  0  0  0
    7.0050    3.6386    0.5237 H   0  0  0  0  0  0  0  0  0  0  0  0
    4.7212    4.4472    0.1118 H   0  0  0  0  0  0  0  0  0  0  0  0
    2.8510    2.8629    0.0336 H   0  0  0  0  0  0  0  0  0  0  0  0
    1.1637    1.4006   -0.0406 H   0  0  0  0  0  0  0  0  0  0  0  0
  1  2  1  0  0  0  0
  2  3  2  0  0  0  0
  3  4  1  0  0  0  0
  4  5  1  0  0  0  0
  5  6  2  0  0  0  0
  6  7  1  0  0  0  0
  7  8  2  0  0  0  0
  8  9  1  0  0  0  0
  9 10  2  0  0  0  0
  4 11  2  0  0  0  0
 11 12  1  0  0  0  0
 12 13  2  0  0  0  0
 13 14  1  0  0  0  0
 14 15  2  0  0  0  0
 15 16  1  0  0  0  0
 16 17  2  0  0  0  0
 17 18  1  0  0  0  0
 18 19  1  0  0  0  0
 19 20  2  0  0  0  0
 20 21  1  0  0  0  0
 21 22  2  0  0  0  0
 22 23  1  0  0  0  0
 23 24  2  0  0  0  0
 18 25  2  0  0  0  0
 25 26  1  0  0  0  0
 13  2  1  0  0  0  0
 26 16  1  0  0  0  0
 10  5  1  0  0  0  0
 26 12  1  0  0  0  0
 24 19  1  0  0  0  0
  1 27  1  0  0  0  0
  1 28  1  0  0  0  0
  1 29  1  0  0  0  0
  3 30  1  0  0  0  0
  6 31  1  0  0  0  0
  7 32  1  0  0  0  0
  8 33  1  0  0  0  0
  9 34  1  0  0  0  0
 10 35  1  0  0  0  0
 14 36  1  0  0  0  0
 15 37  1  0  0  0  0
 20 38  1  0  0  0  0
 21 39  1  0  0  0  0
 22 40  1  0  0  0  0
 23 41  1  0  0  0  0
 24 42  1  0  0  0  0
 25 43  1  0  0  0  0
M  END
