
  xtb     03212210133D
 energy: -7.768227428457 gnorm: 0.000251551041 xtb: 6.4.1 (afa7bdf)
 39 43  0     0  0            999 V2000
   -2.8602    0.9857   -1.9264 C   0  0  0  0  0  0  0  0  0  0  0  0
   -2.7310    0.9736   -0.4046 C   0  0  0  0  0  0  0  0  0  0  0  0
   -3.9587    2.1128    0.2649 S   0  0  0  0  0  0  0  0  0  0  0  0
   -2.7671    3.3963    0.5291 C   0  0  0  0  0  0  0  0  0  0  0  0
   -3.0341    4.5519    0.7806 O   0  0  0  0  0  0  0  0  0  0  0  0
   -1.4371    2.8502    0.4238 C   0  0  0  0  0  0  0  0  0  0  0  0
   -1.3905    1.5644    0.0092 C   0  0  0  0  0  0  0  0  0  0  0  0
   -0.2092    0.7310   -0.0303 C   0  0  0  0  0  0  0  0  0  0  0  0
    1.0910    1.0695    0.0399 N   0  0  0  0  0  0  0  0  0  0  0  0
    1.7787   -0.0677   -0.0847 C   0  0  0  0  0  0  0  0  0  0  0  0
    3.2292   -0.1473   -0.0626 C   0  0  0  0  0  0  0  0  0  0  0  0
    3.9727    1.0228    0.0921 C   0  0  0  0  0  0  0  0  0  0  0  0
    5.3460    0.9923    0.1199 C   0  0  0  0  0  0  0  0  0  0  0  0
    6.0126   -0.2185   -0.0074 C   0  0  0  0  0  0  0  0  0  0  0  0
    7.7351   -0.2637    0.0271 Cl  0  0  0  0  0  0  0  0  0  0  0  0
    5.2984   -1.3909   -0.1616 C   0  0  0  0  0  0  0  0  0  0  0  0
    3.9184   -1.3679   -0.1903 C   0  0  0  0  0  0  0  0  0  0  0  0
    3.0760   -2.8603   -0.3832 Cl  0  0  0  0  0  0  0  0  0  0  0  0
    0.9335   -1.1494   -0.2321 N   0  0  0  0  0  0  0  0  0  0  0  0
   -0.3360   -0.6624   -0.1825 C   0  0  0  0  0  0  0  0  0  0  0  0
   -1.6229   -1.3022   -0.2326 C   0  0  0  0  0  0  0  0  0  0  0  0
   -1.8707   -2.5662   -0.6497 C   0  0  0  0  0  0  0  0  0  0  0  0
   -3.2694   -2.8895   -0.7729 C   0  0  0  0  0  0  0  0  0  0  0  0
   -3.7163   -3.9871   -1.0306 O   0  0  0  0  0  0  0  0  0  0  0  0
   -4.2424   -1.4305   -0.5221 S   0  0  0  0  0  0  0  0  0  0  0  0
   -2.8562   -0.5035    0.1649 C   0  0  0  0  0  0  0  0  0  0  0  0
   -3.0056   -0.4923    1.6851 C   0  0  0  0  0  0  0  0  0  0  0  0
   -3.8397    0.6187   -2.2327 H   0  0  0  0  0  0  0  0  0  0  0  0
   -2.0991    0.3558   -2.3869 H   0  0  0  0  0  0  0  0  0  0  0  0
   -2.7430    1.9986   -2.3121 H   0  0  0  0  0  0  0  0  0  0  0  0
   -0.5666    3.4074    0.7185 H   0  0  0  0  0  0  0  0  0  0  0  0
    3.4450    1.9566    0.1903 H   0  0  0  0  0  0  0  0  0  0  0  0
    5.9186    1.8955    0.2396 H   0  0  0  0  0  0  0  0  0  0  0  0
    5.8195   -2.3264   -0.2596 H   0  0  0  0  0  0  0  0  0  0  0  0
    1.2172   -2.1249   -0.3249 H   0  0  0  0  0  0  0  0  0  0  0  0
   -1.1014   -3.2584   -0.9388 H   0  0  0  0  0  0  0  0  0  0  0  0
   -2.1594    0.0082    2.1559 H   0  0  0  0  0  0  0  0  0  0  0  0
   -3.9173    0.0277    1.9787 H   0  0  0  0  0  0  0  0  0  0  0  0
   -3.0579   -1.5101    2.0720 H   0  0  0  0  0  0  0  0  0  0  0  0
  2  1  1  0  0  0  0
  2  3  1  0  0  0  0
  3  4  1  0  0  0  0
  4  5  2  0  0  0  0
  4  6  1  0  0  0  0
  6  7  2  0  0  0  0
  7  8  1  0  0  0  0
  8  9  1  0  0  0  0
  9 10  2  0  0  0  0
 10 11  1  0  0  0  0
 11 12  2  0  0  0  0
 12 13  1  0  0  0  0
 13 14  2  0  0  0  0
 14 15  1  0  0  0  0
 14 16  1  0  0  0  0
 16 17  2  0  0  0  0
 17 18  1  0  0  0  0
 10 19  1  0  0  0  0
 19 20  1  0  0  0  0
 20 21  1  0  0  0  0
 21 22  2  0  0  0  0
 22 23  1  0  0  0  0
 23 24  2  0  0  0  0
 23 25  1  0  0  0  0
 25 26  1  0  0  0  0
 26 27  1  0  0  0  0
  7  2  1  0  0  0  0
 20  8  2  0  0  0  0
 26 21  1  0  0  0  0
 26  2  1  0  0  0  0
 17 11  1  0  0  0  0
  1 28  1  0  0  0  0
  1 29  1  0  0  0  0
  1 30  1  0  0  0  0
  6 31  1  0  0  0  0
 12 32  1  0  0  0  0
 13 33  1  0  0  0  0
 16 34  1  0  0  0  0
 19 35  1  0  0  0  0
 22 36  1  0  0  0  0
 27 37  1  0  0  0  0
 27 38  1  0  0  0  0
 27 39  1  0  0  0  0
M  END
