
  xtb     03212210143D
 energy: -14.839396537100 gnorm: 0.000392153037 xtb: 6.4.1 (afa7bdf)
 67 73  0     0  0            999 V2000
   -9.9612   -2.5146    0.7561 C   0  0  0  0  0  0  0  0  0  0  0  0
   -9.4082   -1.7276   -0.4108 C   0  0  0  0  0  0  0  0  0  0  0  0
   -8.5666   -0.6113    0.0400 N   0  0  0  0  0  0  0  0  0  0  0  0
   -9.0263    0.6720    0.3683 C   0  0  0  0  0  0  0  0  0  0  0  0
  -10.2944    1.2501    0.2796 C   0  0  0  0  0  0  0  0  0  0  0  0
  -10.4543    2.5506    0.6876 C   0  0  0  0  0  0  0  0  0  0  0  0
   -9.3766    3.2909    1.1856 C   0  0  0  0  0  0  0  0  0  0  0  0
   -8.1246    2.7368    1.2834 C   0  0  0  0  0  0  0  0  0  0  0  0
   -7.9432    1.4147    0.8721 C   0  0  0  0  0  0  0  0  0  0  0  0
   -6.7905    0.5474    0.8645 C   0  0  0  0  0  0  0  0  0  0  0  0
   -5.4711    0.7383    1.2726 C   0  0  0  0  0  0  0  0  0  0  0  0
   -4.5716   -0.3073    1.1715 C   0  0  0  0  0  0  0  0  0  0  0  0
   -3.2399   -0.1339    1.5914 C   0  0  0  0  0  0  0  0  0  0  0  0
   -2.0936    0.0276    1.9823 C   0  0  0  0  0  0  0  0  0  0  0  0
   -0.7896    0.2285    2.4736 C   0  0  0  0  0  0  0  0  0  0  0  0
    0.2766    0.2347    1.6040 C   0  0  0  0  0  0  0  0  0  0  0  0
    1.5420    0.4337    2.1063 C   0  0  0  0  0  0  0  0  0  0  0  0
    2.6465    0.4438    1.2334 C   0  0  0  0  0  0  0  0  0  0  0  0
    3.6227    0.4575    0.4987 C   0  0  0  0  0  0  0  0  0  0  0  0
    4.7585    0.4751   -0.3316 C   0  0  0  0  0  0  0  0  0  0  0  0
    5.0539    1.6168   -1.1049 C   0  0  0  0  0  0  0  0  0  0  0  0
    6.1539    1.6732   -1.9193 C   0  0  0  0  0  0  0  0  0  0  0  0
    7.0007    0.5633   -1.9805 C   0  0  0  0  0  0  0  0  0  0  0  0
    6.7213   -0.5824   -1.2124 C   0  0  0  0  0  0  0  0  0  0  0  0
    5.5976   -0.6229   -0.3879 C   0  0  0  0  0  0  0  0  0  0  0  0
    7.7741   -1.5360   -1.4652 C   0  0  0  0  0  0  0  0  0  0  0  0
    8.0222   -2.8184   -0.9712 C   0  0  0  0  0  0  0  0  0  0  0  0
    9.1457   -3.4821   -1.3972 C   0  0  0  0  0  0  0  0  0  0  0  0
   10.0302   -2.8905   -2.3055 C   0  0  0  0  0  0  0  0  0  0  0  0
    9.8030   -1.6308   -2.8000 C   0  0  0  0  0  0  0  0  0  0  0  0
    8.6628   -0.9426   -2.3799 C   0  0  0  0  0  0  0  0  0  0  0  0
    8.1777    0.3328   -2.7017 N   0  0  0  0  0  0  0  0  0  0  0  0
    8.8670    1.3182   -3.5452 C   0  0  0  0  0  0  0  0  0  0  0  0
    9.8195    2.1722   -2.7390 C   0  0  0  0  0  0  0  0  0  0  0  0
    1.7366    0.6171    3.4073 N   0  0  0  0  0  0  0  0  0  0  0  0
    0.6501    0.5972    4.1748 C   0  0  0  0  0  0  0  0  0  0  0  0
    0.8500    0.7946    5.5565 C   0  0  0  0  0  0  0  0  0  0  0  0
    1.0139    0.9575    6.6966 N   0  0  0  0  0  0  0  0  0  0  0  0
   -0.6057    0.4126    3.7760 N   0  0  0  0  0  0  0  0  0  0  0  0
   -5.0030   -1.5485    0.6596 C   0  0  0  0  0  0  0  0  0  0  0  0
   -6.2958   -1.7531    0.2551 C   0  0  0  0  0  0  0  0  0  0  0  0
   -7.2053   -0.6969    0.3544 C   0  0  0  0  0  0  0  0  0  0  0  0
   -9.1547   -2.9204    1.3686 H   0  0  0  0  0  0  0  0  0  0  0  0
  -10.5637   -1.8768    1.4045 H   0  0  0  0  0  0  0  0  0  0  0  0
  -10.5870   -3.3487    0.4323 H   0  0  0  0  0  0  0  0  0  0  0  0
  -10.2121   -1.3219   -1.0328 H   0  0  0  0  0  0  0  0  0  0  0  0
   -8.8090   -2.3632   -1.0701 H   0  0  0  0  0  0  0  0  0  0  0  0
  -11.1209    0.6773   -0.1005 H   0  0  0  0  0  0  0  0  0  0  0  0
  -11.4267    3.0108    0.6247 H   0  0  0  0  0  0  0  0  0  0  0  0
   -9.5335    4.3097    1.4988 H   0  0  0  0  0  0  0  0  0  0  0  0
   -7.2914    3.2971    1.6704 H   0  0  0  0  0  0  0  0  0  0  0  0
   -5.1583    1.6870    1.6699 H   0  0  0  0  0  0  0  0  0  0  0  0
    0.1234    0.0872    0.5495 H   0  0  0  0  0  0  0  0  0  0  0  0
    4.3893    2.4619   -1.0408 H   0  0  0  0  0  0  0  0  0  0  0  0
    6.3734    2.5495   -2.5025 H   0  0  0  0  0  0  0  0  0  0  0  0
    5.3891   -1.4969    0.2022 H   0  0  0  0  0  0  0  0  0  0  0  0
    7.3394   -3.2640   -0.2689 H   0  0  0  0  0  0  0  0  0  0  0  0
    9.3517   -4.4721   -1.0256 H   0  0  0  0  0  0  0  0  0  0  0  0
   10.9054   -3.4347   -2.6207 H   0  0  0  0  0  0  0  0  0  0  0  0
   10.4818   -1.1718   -3.4958 H   0  0  0  0  0  0  0  0  0  0  0  0
    9.3916    0.7812   -4.3415 H   0  0  0  0  0  0  0  0  0  0  0  0
    8.1097    1.9310   -4.0439 H   0  0  0  0  0  0  0  0  0  0  0  0
    9.2892    2.7065   -1.9493 H   0  0  0  0  0  0  0  0  0  0  0  0
   10.3342    2.9118   -3.3557 H   0  0  0  0  0  0  0  0  0  0  0  0
   10.5778    1.5564   -2.2531 H   0  0  0  0  0  0  0  0  0  0  0  0
   -4.2868   -2.3503    0.5949 H   0  0  0  0  0  0  0  0  0  0  0  0
   -6.6173   -2.7044   -0.1295 H   0  0  0  0  0  0  0  0  0  0  0  0
  1  2  1  0  0  0  0
  2  3  1  0  0  0  0
  3  4  1  0  0  0  0
  4  5  2  0  0  0  0
  5  6  1  0  0  0  0
  6  7  2  0  0  0  0
  7  8  1  0  0  0  0
  8  9  2  0  0  0  0
  9 10  1  0  0  0  0
 10 11  2  0  0  0  0
 11 12  1  0  0  0  0
 12 13  1  0  0  0  0
 13 14  3  0  0  0  0
 14 15  1  0  0  0  0
 15 16  2  0  0  0  0
 16 17  1  0  0  0  0
 17 18  1  0  0  0  0
 18 19  3  0  0  0  0
 19 20  1  0  0  0  0
 20 21  2  0  0  0  0
 21 22  1  0  0  0  0
 22 23  2  0  0  0  0
 23 24  1  0  0  0  0
 24 25  2  0  0  0  0
 24 26  1  0  0  0  0
 26 27  2  0  0  0  0
 27 28  1  0  0  0  0
 28 29  2  0  0  0  0
 29 30  1  0  0  0  0
 30 31  2  0  0  0  0
 31 32  1  0  0  0  0
 32 33  1  0  0  0  0
 33 34  1  0  0  0  0
 17 35  2  0  0  0  0
 35 36  1  0  0  0  0
 36 37  1  0  0  0  0
 37 38  3  0  0  0  0
 36 39  2  0  0  0  0
 12 40  2  0  0  0  0
 40 41  1  0  0  0  0
 41 42  2  0  0  0  0
 42  3  1  0  0  0  0
  9  4  1  0  0  0  0
 42 10  1  0  0  0  0
 39 15  1  0  0  0  0
 25 20  1  0  0  0  0
 31 26  1  0  0  0  0
 32 23  1  0  0  0  0
  1 43  1  0  0  0  0
  1 44  1  0  0  0  0
  1 45  1  0  0  0  0
  2 46  1  0  0  0  0
  2 47  1  0  0  0  0
  5 48  1  0  0  0  0
  6 49  1  0  0  0  0
  7 50  1  0  0  0  0
  8 51  1  0  0  0  0
 11 52  1  0  0  0  0
 16 53  1  0  0  0  0
 21 54  1  0  0  0  0
 22 55  1  0  0  0  0
 25 56  1  0  0  0  0
 27 57  1  0  0  0  0
 28 58  1  0  0  0  0
 29 59  1  0  0  0  0
 30 60  1  0  0  0  0
 33 61  1  0  0  0  0
 33 62  1  0  0  0  0
 34 63  1  0  0  0  0
 34 64  1  0  0  0  0
 34 65  1  0  0  0  0
 40 66  1  0  0  0  0
 41 67  1  0  0  0  0
M  END
