
  xtb     03212210143D
 energy: -7.162723302248 gnorm: 0.000240796035 xtb: 6.4.1 (afa7bdf)
 33 36  0     0  0            999 V2000
    2.5940    2.7693   -0.4368 O   0  0  0  0  0  0  0  0  0  0  0  0
    1.5108    2.2048   -0.3557 C   0  0  0  0  0  0  0  0  0  0  0  0
    0.3376    2.8963   -0.4930 O   0  0  0  0  0  0  0  0  0  0  0  0
   -0.8212    2.1832   -0.3853 C   0  0  0  0  0  0  0  0  0  0  0  0
   -2.0531    2.8651   -0.5206 C   0  0  0  0  0  0  0  0  0  0  0  0
   -3.2377    2.2135   -0.4237 C   0  0  0  0  0  0  0  0  0  0  0  0
   -3.2783    0.8205   -0.1824 C   0  0  0  0  0  0  0  0  0  0  0  0
   -4.4931    0.1139   -0.0759 C   0  0  0  0  0  0  0  0  0  0  0  0
   -4.5003   -1.2260    0.1559 C   0  0  0  0  0  0  0  0  0  0  0  0
   -3.2952   -1.9471    0.2965 C   0  0  0  0  0  0  0  0  0  0  0  0
   -3.3409   -3.3027    0.5306 O   0  0  0  0  0  0  0  0  0  0  0  0
   -2.0973   -1.2636    0.1941 C   0  0  0  0  0  0  0  0  0  0  0  0
   -2.0621    0.1120   -0.0433 C   0  0  0  0  0  0  0  0  0  0  0  0
   -0.8115    0.8066   -0.1465 C   0  0  0  0  0  0  0  0  0  0  0  0
    0.3411    0.1046   -0.0092 N   0  0  0  0  0  0  0  0  0  0  0  0
    1.4664    0.7639   -0.1068 C   0  0  0  0  0  0  0  0  0  0  0  0
    2.6980   -0.0119    0.0468 C   0  0  0  0  0  0  0  0  0  0  0  0
    3.9733    0.5467   -0.0283 C   0  0  0  0  0  0  0  0  0  0  0  0
    5.1008   -0.2255    0.1213 C   0  0  0  0  0  0  0  0  0  0  0  0
    4.9831   -1.5806    0.3505 C   0  0  0  0  0  0  0  0  0  0  0  0
    3.7329   -2.1585    0.4298 C   0  0  0  0  0  0  0  0  0  0  0  0
    2.6070   -1.3830    0.2800 C   0  0  0  0  0  0  0  0  0  0  0  0
   -2.0194    3.9242   -0.7041 H   0  0  0  0  0  0  0  0  0  0  0  0
   -4.1639    2.7513   -0.5297 H   0  0  0  0  0  0  0  0  0  0  0  0
   -5.4196    0.6511   -0.1810 H   0  0  0  0  0  0  0  0  0  0  0  0
   -5.4256   -1.7688    0.2380 H   0  0  0  0  0  0  0  0  0  0  0  0
   -2.4315   -3.6637    0.6062 H   0  0  0  0  0  0  0  0  0  0  0  0
   -1.1714   -1.7957    0.2984 H   0  0  0  0  0  0  0  0  0  0  0  0
    4.0681    1.6031   -0.2075 H   0  0  0  0  0  0  0  0  0  0  0  0
    6.0758    0.2282    0.0592 H   0  0  0  0  0  0  0  0  0  0  0  0
    5.8665   -2.1872    0.4673 H   0  0  0  0  0  0  0  0  0  0  0  0
    3.6384   -3.2164    0.6084 H   0  0  0  0  0  0  0  0  0  0  0  0
    1.6285   -1.8280    0.3407 H   0  0  0  0  0  0  0  0  0  0  0  0
  1  2  2  0  0  0  0
  2  3  1  0  0  0  0
  3  4  1  0  0  0  0
  4  5  2  0  0  0  0
  5  6  1  0  0  0  0
  6  7  2  0  0  0  0
  7  8  1  0  0  0  0
  8  9  2  0  0  0  0
  9 10  1  0  0  0  0
 10 11  1  0  0  0  0
 10 12  2  0  0  0  0
 12 13  1  0  0  0  0
 13 14  2  0  0  0  0
 14 15  1  0  0  0  0
 15 16  2  0  0  0  0
 16 17  1  0  0  0  0
 17 18  2  0  0  0  0
 18 19  1  0  0  0  0
 19 20  2  0  0  0  0
 20 21  1  0  0  0  0
 21 22  2  0  0  0  0
 16  2  1  0  0  0  0
 22 17  1  0  0  0  0
 14  4  1  0  0  0  0
 13  7  1  0  0  0  0
  5 23  1  0  0  0  0
  6 24  1  0  0  0  0
  8 25  1  0  0  0  0
  9 26  1  0  0  0  0
 11 27  1  0  0  0  0
 12 28  1  0  0  0  0
 18 29  1  0  0  0  0
 19 30  1  0  0  0  0
 20 31  1  0  0  0  0
 21 32  1  0  0  0  0
 22 33  1  0  0  0  0
M  END
