
  xtb     03212210143D
 energy: -15.816208970852 gnorm: 0.000227194129 xtb: 6.4.1 (afa7bdf)
 76 83  0     0  0            999 V2000
    6.0604   -4.7426   -1.8566 C   0  0  0  0  0  0  0  0  0  0  0  0
    5.9810   -4.3894   -0.3884 C   0  0  0  0  0  0  0  0  0  0  0  0
    5.7009   -2.9604   -0.1891 N   0  0  0  0  0  0  0  0  0  0  0  0
    6.6641   -1.9440   -0.1172 C   0  0  0  0  0  0  0  0  0  0  0  0
    8.0599   -1.9876   -0.1364 C   0  0  0  0  0  0  0  0  0  0  0  0
    8.7559   -0.8080   -0.0498 C   0  0  0  0  0  0  0  0  0  0  0  0
    8.0921    0.4196    0.0544 C   0  0  0  0  0  0  0  0  0  0  0  0
    6.7206    0.4816    0.0711 C   0  0  0  0  0  0  0  0  0  0  0  0
    5.9967   -0.7091   -0.0158 C   0  0  0  0  0  0  0  0  0  0  0  0
    4.5819   -0.9845   -0.0418 C   0  0  0  0  0  0  0  0  0  0  0  0
    3.4653   -0.1548    0.0107 C   0  0  0  0  0  0  0  0  0  0  0  0
    2.1956   -0.7041   -0.0517 C   0  0  0  0  0  0  0  0  0  0  0  0
    1.0416    0.2085    0.0102 C   0  0  0  0  0  0  0  0  0  0  0  0
   -0.2566   -0.2536   -0.0425 C   0  0  0  0  0  0  0  0  0  0  0  0
   -1.2963    0.6501    0.0234 C   0  0  0  0  0  0  0  0  0  0  0  0
   -2.7032    0.2169   -0.0246 C   0  0  0  0  0  0  0  0  0  0  0  0
   -3.7100    1.2037    0.0557 C   0  0  0  0  0  0  0  0  0  0  0  0
   -5.0430    0.8932    0.0224 C   0  0  0  0  0  0  0  0  0  0  0  0
   -5.4147   -0.4485   -0.0971 C   0  0  0  0  0  0  0  0  0  0  0  0
   -4.4264   -1.4475   -0.1763 C   0  0  0  0  0  0  0  0  0  0  0  0
   -3.0735   -1.1157   -0.1405 C   0  0  0  0  0  0  0  0  0  0  0  0
   -5.1090   -2.7148   -0.2675 C   0  0  0  0  0  0  0  0  0  0  0  0
   -4.6442   -4.0287   -0.3541 C   0  0  0  0  0  0  0  0  0  0  0  0
   -5.5613   -5.0490   -0.4089 C   0  0  0  0  0  0  0  0  0  0  0  0
   -6.9350   -4.7844   -0.3766 C   0  0  0  0  0  0  0  0  0  0  0  0
   -7.4095   -3.4995   -0.2919 C   0  0  0  0  0  0  0  0  0  0  0  0
   -6.4908   -2.4491   -0.2394 C   0  0  0  0  0  0  0  0  0  0  0  0
   -6.6707   -1.0617   -0.1498 N   0  0  0  0  0  0  0  0  0  0  0  0
   -7.9622   -0.3775    0.0043 C   0  0  0  0  0  0  0  0  0  0  0  0
   -8.3629   -0.2648    1.4581 C   0  0  0  0  0  0  0  0  0  0  0  0
   -1.0505    1.9528    0.1360 N   0  0  0  0  0  0  0  0  0  0  0  0
    0.2299    2.3147    0.1794 C   0  0  0  0  0  0  0  0  0  0  0  0
    0.5022    3.7528    0.3046 C   0  0  0  0  0  0  0  0  0  0  0  0
    1.8094    4.2284    0.3574 C   0  0  0  0  0  0  0  0  0  0  0  0
    2.0618    5.5717    0.4759 C   0  0  0  0  0  0  0  0  0  0  0  0
    1.0185    6.5011    0.5473 C   0  0  0  0  0  0  0  0  0  0  0  0
    1.3632    7.8497    0.6680 O   0  0  0  0  0  0  0  0  0  0  0  0
    0.2706    8.7336    0.7335 C   0  0  0  0  0  0  0  0  0  0  0  0
   -0.2931    6.0166    0.4931 C   0  0  0  0  0  0  0  0  0  0  0  0
   -0.5414    4.6717    0.3745 C   0  0  0  0  0  0  0  0  0  0  0  0
    1.2894    1.5109    0.1223 N   0  0  0  0  0  0  0  0  0  0  0  0
    2.0599   -2.1077   -0.1717 C   0  0  0  0  0  0  0  0  0  0  0  0
    3.1497   -2.9363   -0.2251 C   0  0  0  0  0  0  0  0  0  0  0  0
    4.4294   -2.3781   -0.1577 C   0  0  0  0  0  0  0  0  0  0  0  0
    5.1242   -4.5052   -2.3653 H   0  0  0  0  0  0  0  0  0  0  0  0
    6.8468   -4.1708   -2.3529 H   0  0  0  0  0  0  0  0  0  0  0  0
    6.2674   -5.8036   -2.0157 H   0  0  0  0  0  0  0  0  0  0  0  0
    5.1991   -4.9649    0.1163 H   0  0  0  0  0  0  0  0  0  0  0  0
    6.9142   -4.6317    0.1288 H   0  0  0  0  0  0  0  0  0  0  0  0
    8.5669   -2.9318   -0.2191 H   0  0  0  0  0  0  0  0  0  0  0  0
    9.8339   -0.8256   -0.0625 H   0  0  0  0  0  0  0  0  0  0  0  0
    8.6667    1.3283    0.1207 H   0  0  0  0  0  0  0  0  0  0  0  0
    6.2008    1.4207    0.1473 H   0  0  0  0  0  0  0  0  0  0  0  0
    3.5848    0.9080    0.0982 H   0  0  0  0  0  0  0  0  0  0  0  0
   -0.4556   -1.3023   -0.1321 H   0  0  0  0  0  0  0  0  0  0  0  0
   -3.4002    2.2292    0.1468 H   0  0  0  0  0  0  0  0  0  0  0  0
   -5.7978    1.6560    0.0878 H   0  0  0  0  0  0  0  0  0  0  0  0
   -2.3432   -1.8984   -0.1998 H   0  0  0  0  0  0  0  0  0  0  0  0
   -3.5859   -4.2227   -0.3742 H   0  0  0  0  0  0  0  0  0  0  0  0
   -5.2199   -6.0684   -0.4757 H   0  0  0  0  0  0  0  0  0  0  0  0
   -7.6320   -5.6061   -0.4187 H   0  0  0  0  0  0  0  0  0  0  0  0
   -8.4640   -3.2928   -0.2645 H   0  0  0  0  0  0  0  0  0  0  0  0
   -7.8854    0.6087   -0.4634 H   0  0  0  0  0  0  0  0  0  0  0  0
   -8.7122   -0.9267   -0.5727 H   0  0  0  0  0  0  0  0  0  0  0  0
   -7.6137    0.2897    2.0265 H   0  0  0  0  0  0  0  0  0  0  0  0
   -9.3218    0.2434    1.5842 H   0  0  0  0  0  0  0  0  0  0  0  0
   -8.4449   -1.2519    1.9169 H   0  0  0  0  0  0  0  0  0  0  0  0
    2.6181    3.5216    0.3036 H   0  0  0  0  0  0  0  0  0  0  0  0
    3.0716    5.9389    0.5170 H   0  0  0  0  0  0  0  0  0  0  0  0
   -0.3404    8.5050    1.6074 H   0  0  0  0  0  0  0  0  0  0  0  0
    0.6528    9.7507    0.8257 H   0  0  0  0  0  0  0  0  0  0  0  0
   -0.3221    8.6602   -0.1790 H   0  0  0  0  0  0  0  0  0  0  0  0
   -1.1178    6.7034    0.5449 H   0  0  0  0  0  0  0  0  0  0  0  0
   -1.5515    4.3045    0.3335 H   0  0  0  0  0  0  0  0  0  0  0  0
    1.0782   -2.5404   -0.2232 H   0  0  0  0  0  0  0  0  0  0  0  0
    3.0368   -4.0015   -0.3186 H   0  0  0  0  0  0  0  0  0  0  0  0
  1  2  1  0  0  0  0
  2  3  1  0  0  0  0
  3  4  1  0  0  0  0
  4  5  2  0  0  0  0
  5  6  1  0  0  0  0
  6  7  2  0  0  0  0
  7  8  1  0  0  0  0
  8  9  2  0  0  0  0
  9 10  1  0  0  0  0
 10 11  2  0  0  0  0
 11 12  1  0  0  0  0
 12 13  1  0  0  0  0
 13 14  2  0  0  0  0
 14 15  1  0  0  0  0
 15 16  1  0  0  0  0
 16 17  2  0  0  0  0
 17 18  1  0  0  0  0
 18 19  2  0  0  0  0
 19 20  1  0  0  0  0
 20 21  2  0  0  0  0
 20 22  1  0  0  0  0
 22 23  2  0  0  0  0
 23 24  1  0  0  0  0
 24 25  2  0  0  0  0
 25 26  1  0  0  0  0
 26 27  2  0  0  0  0
 27 28  1  0  0  0  0
 28 29  1  0  0  0  0
 29 30  1  0  0  0  0
 15 31  2  0  0  0  0
 31 32  1  0  0  0  0
 32 33  1  0  0  0  0
 33 34  2  0  0  0  0
 34 35  1  0  0  0  0
 35 36  2  0  0  0  0
 36 37  1  0  0  0  0
 37 38  1  0  0  0  0
 36 39  1  0  0  0  0
 39 40  2  0  0  0  0
 32 41  2  0  0  0  0
 12 42  2  0  0  0  0
 42 43  1  0  0  0  0
 43 44  2  0  0  0  0
 44  3  1  0  0  0  0
  9  4  1  0  0  0  0
 44 10  1  0  0  0  0
 41 13  1  0  0  0  0
 21 16  1  0  0  0  0
 27 22  1  0  0  0  0
 40 33  1  0  0  0  0
 28 19  1  0  0  0  0
  1 45  1  0  0  0  0
  1 46  1  0  0  0  0
  1 47  1  0  0  0  0
  2 48  1  0  0  0  0
  2 49  1  0  0  0  0
  5 50  1  0  0  0  0
  6 51  1  0  0  0  0
  7 52  1  0  0  0  0
  8 53  1  0  0  0  0
 11 54  1  0  0  0  0
 14 55  1  0  0  0  0
 17 56  1  0  0  0  0
 18 57  1  0  0  0  0
 21 58  1  0  0  0  0
 23 59  1  0  0  0  0
 24 60  1  0  0  0  0
 25 61  1  0  0  0  0
 26 62  1  0  0  0  0
 29 63  1  0  0  0  0
 29 64  1  0  0  0  0
 30 65  1  0  0  0  0
 30 66  1  0  0  0  0
 30 67  1  0  0  0  0
 34 68  1  0  0  0  0
 35 69  1  0  0  0  0
 38 70  1  0  0  0  0
 38 71  1  0  0  0  0
 38 72  1  0  0  0  0
 39 73  1  0  0  0  0
 40 74  1  0  0  0  0
 42 75  1  0  0  0  0
 43 76  1  0  0  0  0
M  END
