
  xtb     03212210143D
 energy: -16.480998984090 gnorm: 0.000680089191 xtb: 6.4.1 (afa7bdf)
 72 77  0     0  0            999 V2000
    8.8384   -4.0962   -2.5009 F   0  0  0  0  0  0  0  0  0  0  0  0
    7.5432   -3.7807   -2.2559 C   0  0  0  0  0  0  0  0  0  0  0  0
    7.2085   -2.5357   -1.7566 C   0  0  0  0  0  0  0  0  0  0  0  0
    5.8933   -2.2168   -1.5092 C   0  0  0  0  0  0  0  0  0  0  0  0
    4.8804   -3.1357   -1.7555 C   0  0  0  0  0  0  0  0  0  0  0  0
    3.5384   -2.7939   -1.4956 C   0  0  0  0  0  0  0  0  0  0  0  0
    2.4148   -2.3951   -1.2325 C   0  0  0  0  0  0  0  0  0  0  0  0
    1.2018   -1.7770   -0.8644 C   0  0  0  0  0  0  0  0  0  0  0  0
   -0.0088   -2.4411   -0.9989 C   0  0  0  0  0  0  0  0  0  0  0  0
   -1.2097   -1.8477   -0.6380 C   0  0  0  0  0  0  0  0  0  0  0  0
   -2.4278   -2.5413   -0.7822 C   0  0  0  0  0  0  0  0  0  0  0  0
   -3.5317   -3.0557   -0.8644 C   0  0  0  0  0  0  0  0  0  0  0  0
   -4.8400   -3.5739   -0.9263 C   0  0  0  0  0  0  0  0  0  0  0  0
   -5.0953   -4.8209   -1.4831 C   0  0  0  0  0  0  0  0  0  0  0  0
   -6.3792   -5.3141   -1.5388 C   0  0  0  0  0  0  0  0  0  0  0  0
   -7.4365   -4.5750   -1.0414 C   0  0  0  0  0  0  0  0  0  0  0  0
   -8.7005   -5.0611   -1.1005 F   0  0  0  0  0  0  0  0  0  0  0  0
   -7.1905   -3.3332   -0.4857 C   0  0  0  0  0  0  0  0  0  0  0  0
   -5.9080   -2.8371   -0.4284 C   0  0  0  0  0  0  0  0  0  0  0  0
   -1.2006   -0.5419   -0.1213 C   0  0  0  0  0  0  0  0  0  0  0  0
   -2.4015    0.0894    0.2588 C   0  0  0  0  0  0  0  0  0  0  0  0
   -3.3927    0.7052    0.6183 C   0  0  0  0  0  0  0  0  0  0  0  0
   -4.4824    1.4821    1.0549 C   0  0  0  0  0  0  0  0  0  0  0  0
   -5.1677    1.1568    2.2189 C   0  0  0  0  0  0  0  0  0  0  0  0
   -6.2157    1.9345    2.6561 C   0  0  0  0  0  0  0  0  0  0  0  0
   -6.6019    3.0547    1.9438 C   0  0  0  0  0  0  0  0  0  0  0  0
   -7.6296    3.8234    2.3801 F   0  0  0  0  0  0  0  0  0  0  0  0
   -5.9257    3.3844    0.7840 C   0  0  0  0  0  0  0  0  0  0  0  0
   -4.8785    2.6080    0.3430 C   0  0  0  0  0  0  0  0  0  0  0  0
    0.0147    0.1475    0.0231 C   0  0  0  0  0  0  0  0  0  0  0  0
   -0.0070    1.4550    0.5505 C   0  0  0  0  0  0  0  0  0  0  0  0
   -0.1752    2.5677    1.0237 C   0  0  0  0  0  0  0  0  0  0  0  0
   -0.4990    3.8201    1.5808 C   0  0  0  0  0  0  0  0  0  0  0  0
    0.4831    4.7591    1.8698 C   0  0  0  0  0  0  0  0  0  0  0  0
    0.1475    5.9770    2.4161 C   0  0  0  0  0  0  0  0  0  0  0  0
   -1.1734    6.2849    2.6864 C   0  0  0  0  0  0  0  0  0  0  0  0
   -1.5004    7.4848    3.2256 F   0  0  0  0  0  0  0  0  0  0  0  0
   -2.1562    5.3550    2.4011 C   0  0  0  0  0  0  0  0  0  0  0  0
   -1.8240    4.1370    1.8546 C   0  0  0  0  0  0  0  0  0  0  0  0
    1.2184   -0.4689   -0.3501 C   0  0  0  0  0  0  0  0  0  0  0  0
    2.4540    0.1950   -0.2202 C   0  0  0  0  0  0  0  0  0  0  0  0
    3.5902    0.6387   -0.1612 C   0  0  0  0  0  0  0  0  0  0  0  0
    4.9459    1.0188   -0.1520 C   0  0  0  0  0  0  0  0  0  0  0  0
    5.5334    1.5763   -1.2813 C   0  0  0  0  0  0  0  0  0  0  0  0
    6.8714    1.8984   -1.2894 C   0  0  0  0  0  0  0  0  0  0  0  0
    7.6537    1.6691   -0.1730 C   0  0  0  0  0  0  0  0  0  0  0  0
    8.9757    1.9680   -0.1895 F   0  0  0  0  0  0  0  0  0  0  0  0
    7.0761    1.1179    0.9554 C   0  0  0  0  0  0  0  0  0  0  0  0
    5.7386    0.7943    0.9668 C   0  0  0  0  0  0  0  0  0  0  0  0
    5.2249   -4.3846   -2.2568 C   0  0  0  0  0  0  0  0  0  0  0  0
    6.5417   -4.7013   -2.5035 C   0  0  0  0  0  0  0  0  0  0  0  0
    7.9955   -1.8269   -1.5670 H   0  0  0  0  0  0  0  0  0  0  0  0
    5.6345   -1.2475   -1.1204 H   0  0  0  0  0  0  0  0  0  0  0  0
   -0.0159   -3.4421   -1.3921 H   0  0  0  0  0  0  0  0  0  0  0  0
   -4.2737   -5.3976   -1.8719 H   0  0  0  0  0  0  0  0  0  0  0  0
   -6.5836   -6.2785   -1.9692 H   0  0  0  0  0  0  0  0  0  0  0  0
   -8.0212   -2.7674   -0.1024 H   0  0  0  0  0  0  0  0  0  0  0  0
   -5.7173   -1.8691    0.0029 H   0  0  0  0  0  0  0  0  0  0  0  0
   -4.8641    0.2890    2.7790 H   0  0  0  0  0  0  0  0  0  0  0  0
   -6.7494    1.6888    3.5571 H   0  0  0  0  0  0  0  0  0  0  0  0
   -6.2361    4.2575    0.2377 H   0  0  0  0  0  0  0  0  0  0  0  0
   -4.3524    2.8679   -0.5596 H   0  0  0  0  0  0  0  0  0  0  0  0
    1.5118    4.5211    1.6607 H   0  0  0  0  0  0  0  0  0  0  0  0
    0.9027    6.7091    2.6428 H   0  0  0  0  0  0  0  0  0  0  0  0
   -3.1804    5.6050    2.6162 H   0  0  0  0  0  0  0  0  0  0  0  0
   -2.5898    3.4150    1.6299 H   0  0  0  0  0  0  0  0  0  0  0  0
    4.9284    1.7452   -2.1555 H   0  0  0  0  0  0  0  0  0  0  0  0
    7.3326    2.3273   -2.1613 H   0  0  0  0  0  0  0  0  0  0  0  0
    7.6953    0.9446    1.8177 H   0  0  0  0  0  0  0  0  0  0  0  0
    5.2931    0.3544    1.8425 H   0  0  0  0  0  0  0  0  0  0  0  0
    4.4470   -5.1031   -2.4506 H   0  0  0  0  0  0  0  0  0  0  0  0
    6.8151   -5.6667   -2.8913 H   0  0  0  0  0  0  0  0  0  0  0  0
  1  2  1  0  0  0  0
  2  3  2  0  0  0  0
  3  4  1  0  0  0  0
  4  5  2  0  0  0  0
  5  6  1  0  0  0  0
  6  7  3  0  0  0  0
  7  8  1  0  0  0  0
  8  9  2  0  0  0  0
  9 10  1  0  0  0  0
 10 11  1  0  0  0  0
 11 12  3  0  0  0  0
 12 13  1  0  0  0  0
 13 14  2  0  0  0  0
 14 15  1  0  0  0  0
 15 16  2  0  0  0  0
 16 17  1  0  0  0  0
 16 18  1  0  0  0  0
 18 19  2  0  0  0  0
 10 20  2  0  0  0  0
 20 21  1  0  0  0  0
 21 22  3  0  0  0  0
 22 23  1  0  0  0  0
 23 24  2  0  0  0  0
 24 25  1  0  0  0  0
 25 26  2  0  0  0  0
 26 27  1  0  0  0  0
 26 28  1  0  0  0  0
 28 29  2  0  0  0  0
 20 30  1  0  0  0  0
 30 31  1  0  0  0  0
 31 32  3  0  0  0  0
 32 33  1  0  0  0  0
 33 34  2  0  0  0  0
 34 35  1  0  0  0  0
 35 36  2  0  0  0  0
 36 37  1  0  0  0  0
 36 38  1  0  0  0  0
 38 39  2  0  0  0  0
 30 40  2  0  0  0  0
 40 41  1  0  0  0  0
 41 42  3  0  0  0  0
 42 43  1  0  0  0  0
 43 44  2  0  0  0  0
 44 45  1  0  0  0  0
 45 46  2  0  0  0  0
 46 47  1  0  0  0  0
 46 48  1  0  0  0  0
 48 49  2  0  0  0  0
  5 50  1  0  0  0  0
 50 51  2  0  0  0  0
 51  2  1  0  0  0  0
 40  8  1  0  0  0  0
 49 43  1  0  0  0  0
 19 13  1  0  0  0  0
 29 23  1  0  0  0  0
 39 33  1  0  0  0  0
  3 52  1  0  0  0  0
  4 53  1  0  0  0  0
  9 54  1  0  0  0  0
 14 55  1  0  0  0  0
 15 56  1  0  0  0  0
 18 57  1  0  0  0  0
 19 58  1  0  0  0  0
 24 59  1  0  0  0  0
 25 60  1  0  0  0  0
 28 61  1  0  0  0  0
 29 62  1  0  0  0  0
 34 63  1  0  0  0  0
 35 64  1  0  0  0  0
 38 65  1  0  0  0  0
 39 66  1  0  0  0  0
 44 67  1  0  0  0  0
 45 68  1  0  0  0  0
 48 69  1  0  0  0  0
 49 70  1  0  0  0  0
 50 71  1  0  0  0  0
 51 72  1  0  0  0  0
M  END
