
  xtb     03212210133D
 energy: -11.984358548777 gnorm: 0.000138915922 xtb: 6.4.1 (afa7bdf)
 58 64  0     0  0            999 V2000
    3.4752    0.4753    1.9695 O   0  0  0  0  0  0  0  0  0  0  0  0
    2.6807    0.2434    1.0749 C   0  0  0  0  0  0  0  0  0  0  0  0
    1.2370    0.3516    1.3051 C   0  0  0  0  0  0  0  0  0  0  0  0
    0.7515    0.7059    2.5408 C   0  0  0  0  0  0  0  0  0  0  0  0
   -0.6177    0.7952    2.7718 C   0  0  0  0  0  0  0  0  0  0  0  0
   -1.5058    0.5378    1.7651 C   0  0  0  0  0  0  0  0  0  0  0  0
   -1.0590    0.1862    0.4796 C   0  0  0  0  0  0  0  0  0  0  0  0
   -1.9655   -0.0974   -0.5861 C   0  0  0  0  0  0  0  0  0  0  0  0
   -3.3812    0.0199   -0.3952 N   0  0  0  0  0  0  0  0  0  0  0  0
   -4.3291   -1.0062   -0.6002 C   0  0  0  0  0  0  0  0  0  0  0  0
   -4.1605   -2.3363   -0.9795 C   0  0  0  0  0  0  0  0  0  0  0  0
   -5.2679   -3.1403   -1.0828 C   0  0  0  0  0  0  0  0  0  0  0  0
   -6.5440   -2.6402   -0.8111 C   0  0  0  0  0  0  0  0  0  0  0  0
   -6.7289   -1.3312   -0.4303 C   0  0  0  0  0  0  0  0  0  0  0  0
   -5.6109   -0.5065   -0.3213 C   0  0  0  0  0  0  0  0  0  0  0  0
   -5.4580    0.8810    0.0529 C   0  0  0  0  0  0  0  0  0  0  0  0
   -6.3803    1.8635    0.4079 C   0  0  0  0  0  0  0  0  0  0  0  0
   -5.9166    3.1270    0.6922 C   0  0  0  0  0  0  0  0  0  0  0  0
   -4.5541    3.4287    0.6239 C   0  0  0  0  0  0  0  0  0  0  0  0
   -3.6377    2.4686    0.2754 C   0  0  0  0  0  0  0  0  0  0  0  0
   -4.0876    1.1796   -0.0052 C   0  0  0  0  0  0  0  0  0  0  0  0
   -1.4624   -0.4950   -1.8101 C   0  0  0  0  0  0  0  0  0  0  0  0
   -0.0984   -0.5979   -2.0280 C   0  0  0  0  0  0  0  0  0  0  0  0
    0.8039   -0.3143   -1.0267 C   0  0  0  0  0  0  0  0  0  0  0  0
    0.3319    0.0790    0.2495 C   0  0  0  0  0  0  0  0  0  0  0  0
    2.2419   -0.4279   -1.2680 C   0  0  0  0  0  0  0  0  0  0  0  0
    2.6722   -0.7690   -2.3570 O   0  0  0  0  0  0  0  0  0  0  0  0
    3.1082   -0.1353   -0.2057 N   0  0  0  0  0  0  0  0  0  0  0  0
    4.5447   -0.2718   -0.4550 C   0  0  0  0  0  0  0  0  0  0  0  0
    5.2826    1.0783   -0.2459 C   0  0  0  0  0  0  0  0  0  0  0  0
    6.7693    0.8946    0.1549 C   0  0  0  0  0  0  0  0  0  0  0  0
    7.3617   -0.3886   -0.4583 C   0  0  0  0  0  0  0  0  0  0  0  0
    6.6345   -1.6576    0.0650 C   0  0  0  0  0  0  0  0  0  0  0  0
    5.1490   -1.3859    0.4182 C   0  0  0  0  0  0  0  0  0  0  0  0
    1.4556    0.9059    3.3307 H   0  0  0  0  0  0  0  0  0  0  0  0
   -0.9769    1.0653    3.7504 H   0  0  0  0  0  0  0  0  0  0  0  0
   -2.5637    0.5922    1.9473 H   0  0  0  0  0  0  0  0  0  0  0  0
   -3.1712   -2.7124   -1.1773 H   0  0  0  0  0  0  0  0  0  0  0  0
   -5.1525   -4.1703   -1.3748 H   0  0  0  0  0  0  0  0  0  0  0  0
   -7.3974   -3.2928   -0.8993 H   0  0  0  0  0  0  0  0  0  0  0  0
   -7.7075   -0.9412   -0.2166 H   0  0  0  0  0  0  0  0  0  0  0  0
   -7.4280    1.6268    0.4507 H   0  0  0  0  0  0  0  0  0  0  0  0
   -6.6161    3.8995    0.9678 H   0  0  0  0  0  0  0  0  0  0  0  0
   -4.2199    4.4281    0.8453 H   0  0  0  0  0  0  0  0  0  0  0  0
   -2.5861    2.6908    0.2107 H   0  0  0  0  0  0  0  0  0  0  0  0
   -2.1541   -0.7066   -2.6060 H   0  0  0  0  0  0  0  0  0  0  0  0
    0.2822   -0.8997   -2.9884 H   0  0  0  0  0  0  0  0  0  0  0  0
    4.6499   -0.5703   -1.5099 H   0  0  0  0  0  0  0  0  0  0  0  0
    4.7466    1.6353    0.5307 H   0  0  0  0  0  0  0  0  0  0  0  0
    5.2023    1.6881   -1.1529 H   0  0  0  0  0  0  0  0  0  0  0  0
    6.8449    0.8323    1.2467 H   0  0  0  0  0  0  0  0  0  0  0  0
    7.3613    1.7734   -0.1309 H   0  0  0  0  0  0  0  0  0  0  0  0
    7.2635   -0.3359   -1.5490 H   0  0  0  0  0  0  0  0  0  0  0  0
    8.4405   -0.4500   -0.2648 H   0  0  0  0  0  0  0  0  0  0  0  0
    6.6929   -2.4558   -0.6846 H   0  0  0  0  0  0  0  0  0  0  0  0
    7.1596   -2.0468    0.9453 H   0  0  0  0  0  0  0  0  0  0  0  0
    4.5410   -2.2938    0.3267 H   0  0  0  0  0  0  0  0  0  0  0  0
    5.0553   -1.0763    1.4651 H   0  0  0  0  0  0  0  0  0  0  0  0
  1  2  2  0  0  0  0
  2  3  1  0  0  0  0
  3  4  1  0  0  0  0
  4  5  2  0  0  0  0
  5  6  1  0  0  0  0
  6  7  2  0  0  0  0
  7  8  1  0  0  0  0
  8  9  1  0  0  0  0
  9 10  1  0  0  0  0
 10 11  2  0  0  0  0
 11 12  1  0  0  0  0
 12 13  2  0  0  0  0
 13 14  1  0  0  0  0
 14 15  2  0  0  0  0
 15 16  1  0  0  0  0
 16 17  2  0  0  0  0
 17 18  1  0  0  0  0
 18 19  2  0  0  0  0
 19 20  1  0  0  0  0
 20 21  2  0  0  0  0
  8 22  2  0  0  0  0
 22 23  1  0  0  0  0
 23 24  2  0  0  0  0
 24 25  1  0  0  0  0
 24 26  1  0  0  0  0
 26 27  2  0  0  0  0
 26 28  1  0  0  0  0
 28 29  1  0  0  0  0
 29 30  1  0  0  0  0
 30 31  1  0  0  0  0
 31 32  1  0  0  0  0
 32 33  1  0  0  0  0
 33 34  1  0  0  0  0
 28  2  1  0  0  0  0
 34 29  1  0  0  0  0
 25  3  2  0  0  0  0
 25  7  1  0  0  0  0
 21  9  1  0  0  0  0
 15 10  1  0  0  0  0
 21 16  1  0  0  0  0
  4 35  1  0  0  0  0
  5 36  1  0  0  0  0
  6 37  1  0  0  0  0
 11 38  1  0  0  0  0
 12 39  1  0  0  0  0
 13 40  1  0  0  0  0
 14 41  1  0  0  0  0
 17 42  1  0  0  0  0
 18 43  1  0  0  0  0
 19 44  1  0  0  0  0
 20 45  1  0  0  0  0
 22 46  1  0  0  0  0
 23 47  1  0  0  0  0
 29 48  1  0  0  0  0
 30 49  1  0  0  0  0
 30 50  1  0  0  0  0
 31 51  1  0  0  0  0
 31 52  1  0  0  0  0
 32 53  1  0  0  0  0
 32 54  1  0  0  0  0
 33 55  1  0  0  0  0
 33 56  1  0  0  0  0
 34 57  1  0  0  0  0
 34 58  1  0  0  0  0
M  END
