
  xtb     03212210123D
 energy: -6.103285953682 gnorm: 0.000337198834 xtb: 6.4.1 (afa7bdf)
 28 30  0     0  0            999 V2000
   -4.7544   -0.9567   -0.9981 C   0  0  0  0  0  0  0  0  0  0  0  0
   -3.7750   -0.5852   -0.3841 C   0  0  0  0  0  0  0  0  0  0  0  0
   -2.6328   -0.1560    0.3307 C   0  0  0  0  0  0  0  0  0  0  0  0
   -2.7632    0.4022    1.6103 C   0  0  0  0  0  0  0  0  0  0  0  0
   -1.6598    0.7643    2.3209 C   0  0  0  0  0  0  0  0  0  0  0  0
   -0.3691    0.6093    1.7817 C   0  0  0  0  0  0  0  0  0  0  0  0
    0.7725    0.9012    2.5670 C   0  0  0  0  0  0  0  0  0  0  0  0
    2.0133    0.6931    2.0785 C   0  0  0  0  0  0  0  0  0  0  0  0
    2.2196    0.2385    0.7542 C   0  0  0  0  0  0  0  0  0  0  0  0
    3.5340    0.0462    0.3855 O   0  0  0  0  0  0  0  0  0  0  0  0
    3.8106   -0.3567   -0.8958 C   0  0  0  0  0  0  0  0  0  0  0  0
    4.9462   -0.5929   -1.2908 O   0  0  0  0  0  0  0  0  0  0  0  0
    2.7197   -0.4749   -1.8253 C   0  0  0  0  0  0  0  0  0  0  0  0
    1.4310   -0.2743   -1.4770 C   0  0  0  0  0  0  0  0  0  0  0  0
    0.4187   -0.2816   -2.5706 C   0  0  0  0  0  0  0  0  0  0  0  0
    1.1247    0.0134   -0.0972 C   0  0  0  0  0  0  0  0  0  0  0  0
   -0.2088    0.1157    0.4614 C   0  0  0  0  0  0  0  0  0  0  0  0
   -1.3769   -0.2977   -0.2106 C   0  0  0  0  0  0  0  0  0  0  0  0
   -5.6145   -1.2855   -1.5351 H   0  0  0  0  0  0  0  0  0  0  0  0
   -3.7480    0.5152    2.0316 H   0  0  0  0  0  0  0  0  0  0  0  0
   -1.7645    1.1617    3.3157 H   0  0  0  0  0  0  0  0  0  0  0  0
    0.6371    1.2591    3.5730 H   0  0  0  0  0  0  0  0  0  0  0  0
    2.8840    0.8802    2.6818 H   0  0  0  0  0  0  0  0  0  0  0  0
    2.9740   -0.7037   -2.8434 H   0  0  0  0  0  0  0  0  0  0  0  0
   -0.3468    0.4779   -2.4101 H   0  0  0  0  0  0  0  0  0  0  0  0
    0.8848   -0.0507   -3.5292 H   0  0  0  0  0  0  0  0  0  0  0  0
   -0.0486   -1.2614   -2.6715 H   0  0  0  0  0  0  0  0  0  0  0  0
   -1.3080   -0.8006   -1.1536 H   0  0  0  0  0  0  0  0  0  0  0  0
  1  2  3  0  0  0  0
  2  3  1  0  0  0  0
  3  4  2  0  0  0  0
  4  5  1  0  0  0  0
  5  6  2  0  0  0  0
  6  7  1  0  0  0  0
  7  8  2  0  0  0  0
  8  9  1  0  0  0  0
  9 10  1  0  0  0  0
 10 11  1  0  0  0  0
 11 12  2  0  0  0  0
 11 13  1  0  0  0  0
 13 14  2  0  0  0  0
 14 15  1  0  0  0  0
 14 16  1  0  0  0  0
 16 17  1  0  0  0  0
 17 18  2  0  0  0  0
 18  3  1  0  0  0  0
 17  6  1  0  0  0  0
 16  9  2  0  0  0  0
  1 19  1  0  0  0  0
  4 20  1  0  0  0  0
  5 21  1  0  0  0  0
  7 22  1  0  0  0  0
  8 23  1  0  0  0  0
 13 24  1  0  0  0  0
 15 25  1  0  0  0  0
 15 26  1  0  0  0  0
 15 27  1  0  0  0  0
 18 28  1  0  0  0  0
M  END
