
  xtb     03212210133D
 energy: -5.647330055977 gnorm: 0.000249591421 xtb: 6.4.1 (afa7bdf)
 29 30  0     0  0            999 V2000
    4.8716    0.2915   -1.8363 O   0  0  0  0  0  0  0  0  0  0  0  0
    4.3135    0.0073   -0.7987 C   0  0  0  0  0  0  0  0  0  0  0  0
    4.9197   -0.6880    0.1904 O   0  0  0  0  0  0  0  0  0  0  0  0
    2.8923    0.4404   -0.5902 C   0  0  0  0  0  0  0  0  0  0  0  0
    2.3016   -0.0622    0.7140 C   0  0  0  0  0  0  0  0  0  0  0  0
    0.8979    0.3099    0.8696 N   0  0  0  0  0  0  0  0  0  0  0  0
   -0.1660   -0.2889    0.2036 C   0  0  0  0  0  0  0  0  0  0  0  0
    0.0316   -1.4076   -0.5898 C   0  0  0  0  0  0  0  0  0  0  0  0
   -1.0119   -1.9999   -1.2887 C   0  0  0  0  0  0  0  0  0  0  0  0
   -2.2760   -1.4927   -1.2096 C   0  0  0  0  0  0  0  0  0  0  0  0
   -2.5476   -0.3642   -0.4106 C   0  0  0  0  0  0  0  0  0  0  0  0
   -3.8516    0.1669   -0.3099 C   0  0  0  0  0  0  0  0  0  0  0  0
   -4.1056    1.2485    0.4758 C   0  0  0  0  0  0  0  0  0  0  0  0
   -3.0721    1.8445    1.1977 C   0  0  0  0  0  0  0  0  0  0  0  0
   -1.7993    1.3588    1.1216 C   0  0  0  0  0  0  0  0  0  0  0  0
   -1.4942    0.2477    0.3124 C   0  0  0  0  0  0  0  0  0  0  0  0
    5.8283   -0.8774   -0.1147 H   0  0  0  0  0  0  0  0  0  0  0  0
    2.2928    0.0897   -1.4343 H   0  0  0  0  0  0  0  0  0  0  0  0
    2.8454    1.5322   -0.6275 H   0  0  0  0  0  0  0  0  0  0  0  0
    2.8836    0.3191    1.5615 H   0  0  0  0  0  0  0  0  0  0  0  0
    2.3908   -1.1511    0.7795 H   0  0  0  0  0  0  0  0  0  0  0  0
    0.7983    1.2533    1.2374 H   0  0  0  0  0  0  0  0  0  0  0  0
    1.0187   -1.8243   -0.6744 H   0  0  0  0  0  0  0  0  0  0  0  0
   -0.8192   -2.8651   -1.9007 H   0  0  0  0  0  0  0  0  0  0  0  0
   -3.0827   -1.9536   -1.7552 H   0  0  0  0  0  0  0  0  0  0  0  0
   -4.6480   -0.3002   -0.8659 H   0  0  0  0  0  0  0  0  0  0  0  0
   -5.1048    1.6439    0.5452 H   0  0  0  0  0  0  0  0  0  0  0  0
   -3.2846    2.6971    1.8243 H   0  0  0  0  0  0  0  0  0  0  0  0
   -1.0229    1.8242    1.6991 H   0  0  0  0  0  0  0  0  0  0  0  0
  1  2  2  0  0  0  0
  2  3  1  0  0  0  0
  2  4  1  0  0  0  0
  4  5  1  0  0  0  0
  5  6  1  0  0  0  0
  6  7  1  0  0  0  0
  7  8  2  0  0  0  0
  8  9  1  0  0  0  0
  9 10  2  0  0  0  0
 10 11  1  0  0  0  0
 11 12  2  0  0  0  0
 12 13  1  0  0  0  0
 13 14  2  0  0  0  0
 14 15  1  0  0  0  0
 15 16  2  0  0  0  0
 16  7  1  0  0  0  0
 16 11  1  0  0  0  0
  3 17  1  0  0  0  0
  4 18  1  0  0  0  0
  4 19  1  0  0  0  0
  5 20  1  0  0  0  0
  5 21  1  0  0  0  0
  6 22  1  0  0  0  0
  8 23  1  0  0  0  0
  9 24  1  0  0  0  0
 10 25  1  0  0  0  0
 12 26  1  0  0  0  0
 13 27  1  0  0  0  0
 14 28  1  0  0  0  0
 15 29  1  0  0  0  0
M  END
