
  xtb     03212210143D
 energy: -21.637397921768 gnorm: 0.000325680664 xtb: 6.4.1 (afa7bdf)
116121  0     0  0            999 V2000
   -0.2306   -2.5579   -1.9519 C   0  0  0  0  0  0  0  0  0  0  0  0
   -0.2389   -1.1123   -1.4799 C   0  0  0  0  0  0  0  0  0  0  0  0
    0.0643   -0.1065   -2.5954 C   0  0  0  0  0  0  0  0  0  0  0  0
   -0.9355   -0.1386   -3.7541 C   0  0  0  0  0  0  0  0  0  0  0  0
   -2.3822    0.1388   -3.3397 C   0  0  0  0  0  0  0  0  0  0  0  0
   -2.6055    1.5154   -2.7073 C   0  0  0  0  0  0  0  0  0  0  0  0
   -2.2339    2.6894   -3.6188 C   0  0  0  0  0  0  0  0  0  0  0  0
   -2.9218    2.6559   -4.9844 C   0  0  0  0  0  0  0  0  0  0  0  0
   -4.4507    2.6760   -4.9113 C   0  0  0  0  0  0  0  0  0  0  0  0
   -5.0545    3.9934   -4.4175 C   0  0  0  0  0  0  0  0  0  0  0  0
   -4.6863    5.2130   -5.2746 C   0  0  0  0  0  0  0  0  0  0  0  0
   -4.8664    4.9958   -6.7795 C   0  0  0  0  0  0  0  0  0  0  0  0
   -6.3080    4.6824   -7.2236 C   0  0  0  0  0  0  0  0  0  0  0  0
   -7.2644    5.8973   -7.0937 C   0  0  0  0  0  0  0  0  0  0  0  0
   -6.7122    7.2628   -7.5312 C   0  0  0  0  0  0  0  0  0  0  0  0
   -6.2844    7.3715   -8.9963 C   0  0  0  0  0  0  0  0  0  0  0  0
   -7.4120    7.1428  -10.0061 C   0  0  0  0  0  0  0  0  0  0  0  0
   -8.5199    8.1981   -9.9562 C   0  0  0  0  0  0  0  0  0  0  0  0
   -8.0338    9.6278  -10.2139 C   0  0  0  0  0  0  0  0  0  0  0  0
   -7.3136    9.8162  -11.5528 C   0  0  0  0  0  0  0  0  0  0  0  0
   -8.1600    9.4580  -12.7783 C   0  0  0  0  0  0  0  0  0  0  0  0
   -9.4451   10.2804  -12.9189 C   0  0  0  0  0  0  0  0  0  0  0  0
   -9.1920   11.7695  -13.0940 C   0  0  0  0  0  0  0  0  0  0  0  0
   -6.3356    4.0468   -8.6189 C   0  0  0  0  0  0  0  0  0  0  0  0
   -5.4847    2.8598   -8.6904 N   0  0  0  0  0  0  0  0  0  0  0  0
   -4.1240    2.9016   -9.0702 C   0  0  0  0  0  0  0  0  0  0  0  0
   -3.2307    3.8638   -9.5654 C   0  0  0  0  0  0  0  0  0  0  0  0
   -1.8573    3.6330   -9.5878 C   0  0  0  0  0  0  0  0  0  0  0  0
   -0.9504    4.6393  -10.0992 C   0  0  0  0  0  0  0  0  0  0  0  0
   -1.2270    5.9176  -10.4537 C   0  0  0  0  0  0  0  0  0  0  0  0
   -0.1749    6.7057  -10.9201 C   0  0  0  0  0  0  0  0  0  0  0  0
    0.7213    7.3426  -11.3013 N   0  0  0  0  0  0  0  0  0  0  0  0
   -2.4861    6.5109  -10.3677 C   0  0  0  0  0  0  0  0  0  0  0  0
   -3.5576    6.9538  -10.2775 N   0  0  0  0  0  0  0  0  0  0  0  0
   -1.3049    2.3782   -9.0535 C   0  0  0  0  0  0  0  0  0  0  0  0
    0.0545    2.0660   -8.9277 C   0  0  0  0  0  0  0  0  0  0  0  0
    0.4603    0.8996   -8.3101 C   0  0  0  0  0  0  0  0  0  0  0  0
   -0.4429   -0.0022   -7.7628 C   0  0  0  0  0  0  0  0  0  0  0  0
   -1.8078    0.2291   -7.8460 C   0  0  0  0  0  0  0  0  0  0  0  0
   -2.8477   -0.5935   -7.1757 C   0  0  0  0  0  0  0  0  0  0  0  0
   -2.5995   -1.7258   -6.4122 C   0  0  0  0  0  0  0  0  0  0  0  0
   -3.6253   -2.3439   -5.7070 C   0  0  0  0  0  0  0  0  0  0  0  0
   -4.9147   -1.8511   -5.7059 C   0  0  0  0  0  0  0  0  0  0  0  0
   -5.2453   -0.7141   -6.4490 C   0  0  0  0  0  0  0  0  0  0  0  0
   -6.5517   -0.0447   -6.4542 C   0  0  0  0  0  0  0  0  0  0  0  0
   -7.6253   -0.5119   -5.5739 C   0  0  0  0  0  0  0  0  0  0  0  0
   -7.5254   -0.6356   -4.2284 C   0  0  0  0  0  0  0  0  0  0  0  0
   -8.6257   -1.0842   -3.4989 C   0  0  0  0  0  0  0  0  0  0  0  0
   -9.5549   -1.4597   -2.9080 N   0  0  0  0  0  0  0  0  0  0  0  0
   -6.3678   -0.2620   -3.5441 C   0  0  0  0  0  0  0  0  0  0  0  0
   -5.3878    0.0675   -3.0121 N   0  0  0  0  0  0  0  0  0  0  0  0
   -6.7751    1.0924   -7.2307 C   0  0  0  0  0  0  0  0  0  0  0  0
   -5.7407    1.6458   -8.0097 C   0  0  0  0  0  0  0  0  0  0  0  0
   -4.5243    0.9598   -7.9841 C   0  0  0  0  0  0  0  0  0  0  0  0
   -4.2029   -0.1624   -7.2166 C   0  0  0  0  0  0  0  0  0  0  0  0
   -3.5567    1.7113   -8.6231 C   0  0  0  0  0  0  0  0  0  0  0  0
   -2.1946    1.4100   -8.5415 C   0  0  0  0  0  0  0  0  0  0  0  0
   -1.0089   -2.7425   -2.6938 H   0  0  0  0  0  0  0  0  0  0  0  0
   -0.3974   -3.2572   -1.1298 H   0  0  0  0  0  0  0  0  0  0  0  0
    0.7239   -2.8164   -2.4134 H   0  0  0  0  0  0  0  0  0  0  0  0
   -1.2086   -0.8748   -1.0241 H   0  0  0  0  0  0  0  0  0  0  0  0
    0.4891   -0.9876   -0.6661 H   0  0  0  0  0  0  0  0  0  0  0  0
    0.1047    0.9077   -2.1790 H   0  0  0  0  0  0  0  0  0  0  0  0
    1.0755   -0.2953   -2.9787 H   0  0  0  0  0  0  0  0  0  0  0  0
   -0.6338    0.5827   -4.5241 H   0  0  0  0  0  0  0  0  0  0  0  0
   -0.8760   -1.1148   -4.2506 H   0  0  0  0  0  0  0  0  0  0  0  0
   -3.0443    0.0334   -4.2083 H   0  0  0  0  0  0  0  0  0  0  0  0
   -2.7225   -0.6427   -2.6487 H   0  0  0  0  0  0  0  0  0  0  0  0
   -3.6573    1.6072   -2.4069 H   0  0  0  0  0  0  0  0  0  0  0  0
   -2.0428    1.5822   -1.7680 H   0  0  0  0  0  0  0  0  0  0  0  0
   -2.4684    3.6368   -3.1166 H   0  0  0  0  0  0  0  0  0  0  0  0
   -1.1450    2.7082   -3.7584 H   0  0  0  0  0  0  0  0  0  0  0  0
   -2.5728    3.4941   -5.5990 H   0  0  0  0  0  0  0  0  0  0  0  0
   -2.5932    1.7620   -5.5283 H   0  0  0  0  0  0  0  0  0  0  0  0
   -4.8626    2.4518   -5.9004 H   0  0  0  0  0  0  0  0  0  0  0  0
   -4.7963    1.8482   -4.2811 H   0  0  0  0  0  0  0  0  0  0  0  0
   -6.1469    3.8957   -4.3773 H   0  0  0  0  0  0  0  0  0  0  0  0
   -4.7537    4.1662   -3.3769 H   0  0  0  0  0  0  0  0  0  0  0  0
   -5.2745    6.0824   -4.9562 H   0  0  0  0  0  0  0  0  0  0  0  0
   -3.6434    5.4903   -5.0736 H   0  0  0  0  0  0  0  0  0  0  0  0
   -4.4927    5.8587   -7.3407 H   0  0  0  0  0  0  0  0  0  0  0  0
   -4.2160    4.1729   -7.0903 H   0  0  0  0  0  0  0  0  0  0  0  0
   -6.6818    3.8975   -6.5465 H   0  0  0  0  0  0  0  0  0  0  0  0
   -8.1854    5.6814   -7.6465 H   0  0  0  0  0  0  0  0  0  0  0  0
   -7.5836    5.9774   -6.0459 H   0  0  0  0  0  0  0  0  0  0  0  0
   -7.4624    8.0372   -7.3264 H   0  0  0  0  0  0  0  0  0  0  0  0
   -5.8664    7.5290   -6.8848 H   0  0  0  0  0  0  0  0  0  0  0  0
   -5.8362    8.3560   -9.1779 H   0  0  0  0  0  0  0  0  0  0  0  0
   -5.4623    6.6749   -9.1887 H   0  0  0  0  0  0  0  0  0  0  0  0
   -6.9927    7.1074  -11.0198 H   0  0  0  0  0  0  0  0  0  0  0  0
   -7.8454    6.1472   -9.8508 H   0  0  0  0  0  0  0  0  0  0  0  0
   -9.3005    7.9453  -10.6845 H   0  0  0  0  0  0  0  0  0  0  0  0
   -9.0227    8.1495   -8.9823 H   0  0  0  0  0  0  0  0  0  0  0  0
   -8.8828   10.3212  -10.1581 H   0  0  0  0  0  0  0  0  0  0  0  0
   -7.3723    9.9382   -9.3947 H   0  0  0  0  0  0  0  0  0  0  0  0
   -6.9689   10.8539  -11.6427 H   0  0  0  0  0  0  0  0  0  0  0  0
   -6.3927    9.2195  -11.5548 H   0  0  0  0  0  0  0  0  0  0  0  0
   -7.5586    9.5827  -13.6882 H   0  0  0  0  0  0  0  0  0  0  0  0
   -8.4063    8.3892  -12.7480 H   0  0  0  0  0  0  0  0  0  0  0  0
  -10.0283    9.9056  -13.7718 H   0  0  0  0  0  0  0  0  0  0  0  0
  -10.0881   10.1106  -12.0460 H   0  0  0  0  0  0  0  0  0  0  0  0
   -8.5511   11.9616  -13.9562 H   0  0  0  0  0  0  0  0  0  0  0  0
  -10.1190   12.3271  -13.2445 H   0  0  0  0  0  0  0  0  0  0  0  0
   -8.6965   12.1979  -12.2217 H   0  0  0  0  0  0  0  0  0  0  0  0
   -7.3526    3.7586   -8.8987 H   0  0  0  0  0  0  0  0  0  0  0  0
   -5.9924    4.7471   -9.3798 H   0  0  0  0  0  0  0  0  0  0  0  0
   -3.6417    4.7961   -9.8919 H   0  0  0  0  0  0  0  0  0  0  0  0
    0.0757    4.3418  -10.2160 H   0  0  0  0  0  0  0  0  0  0  0  0
    0.7975    2.7475   -9.2996 H   0  0  0  0  0  0  0  0  0  0  0  0
    1.5147    0.6920   -8.2299 H   0  0  0  0  0  0  0  0  0  0  0  0
   -0.0824   -0.8781   -7.2529 H   0  0  0  0  0  0  0  0  0  0  0  0
   -1.6011   -2.1228   -6.3607 H   0  0  0  0  0  0  0  0  0  0  0  0
   -3.4018   -3.2202   -5.1213 H   0  0  0  0  0  0  0  0  0  0  0  0
   -5.6765   -2.3309   -5.1171 H   0  0  0  0  0  0  0  0  0  0  0  0
   -8.5835   -0.7239   -6.0212 H   0  0  0  0  0  0  0  0  0  0  0  0
   -7.7252    1.5900   -7.1867 H   0  0  0  0  0  0  0  0  0  0  0  0
  1  2  1  0  0  0  0
  1 58  1  0  0  0  0
  1 59  1  0  0  0  0
  1 60  1  0  0  0  0
  2  3  1  0  0  0  0
  2 61  1  0  0  0  0
  2 62  1  0  0  0  0
  3  4  1  0  0  0  0
  3 63  1  0  0  0  0
  3 64  1  0  0  0  0
  4  5  1  0  0  0  0
  4 65  1  0  0  0  0
  4 66  1  0  0  0  0
  5  6  1  0  0  0  0
  5 67  1  0  0  0  0
  5 68  1  0  0  0  0
  6  7  1  0  0  0  0
  6 69  1  0  0  0  0
  6 70  1  0  0  0  0
  7  8  1  0  0  0  0
  7 71  1  0  0  0  0
  7 72  1  0  0  0  0
  8  9  1  0  0  0  0
  8 73  1  0  0  0  0
  8 74  1  0  0  0  0
  9 10  1  0  0  0  0
  9 75  1  0  0  0  0
  9 76  1  0  0  0  0
 10 11  1  0  0  0  0
 10 77  1  0  0  0  0
 10 78  1  0  0  0  0
 11 12  1  0  0  0  0
 11 79  1  0  0  0  0
 11 80  1  0  0  0  0
 12 13  1  0  0  0  0
 12 81  1  0  0  0  0
 12 82  1  0  0  0  0
 13 14  1  0  0  0  0
 13 24  1  0  0  0  0
 13 83  1  0  0  0  0
 14 15  1  0  0  0  0
 14 84  1  0  0  0  0
 14 85  1  0  0  0  0
 15 16  1  0  0  0  0
 15 86  1  0  0  0  0
 15 87  1  0  0  0  0
 16 17  1  0  0  0  0
 16 88  1  0  0  0  0
 16 89  1  0  0  0  0
 17 18  1  0  0  0  0
 17 90  1  0  0  0  0
 17 91  1  0  0  0  0
 18 19  1  0  0  0  0
 18 92  1  0  0  0  0
 18 93  1  0  0  0  0
 19 20  1  0  0  0  0
 19 94  1  0  0  0  0
 19 95  1  0  0  0  0
 20 21  1  0  0  0  0
 20 96  1  0  0  0  0
 20 97  1  0  0  0  0
 21 22  1  0  0  0  0
 21 98  1  0  0  0  0
 21 99  1  0  0  0  0
 22 23  1  0  0  0  0
 22100  1  0  0  0  0
 22101  1  0  0  0  0
 23102  1  0  0  0  0
 23103  1  0  0  0  0
 23104  1  0  0  0  0
 24 25  1  0  0  0  0
 24105  1  0  0  0  0
 24106  1  0  0  0  0
 25 26  1  0  0  0  0
 26 27  2  0  0  0  0
 27 28  1  0  0  0  0
 27107  1  0  0  0  0
 28 29  1  0  0  0  0
 28 35  2  0  0  0  0
 29 30  2  0  0  0  0
 29108  1  0  0  0  0
 30 31  1  0  0  0  0
 30 33  1  0  0  0  0
 31 32  3  0  0  0  0
 33 34  3  0  0  0  0
 35 36  1  0  0  0  0
 36 37  2  0  0  0  0
 36109  1  0  0  0  0
 37 38  1  0  0  0  0
 37110  1  0  0  0  0
 38 39  2  0  0  0  0
 38111  1  0  0  0  0
 39 40  1  0  0  0  0
 40 41  2  0  0  0  0
 41 42  1  0  0  0  0
 41112  1  0  0  0  0
 42 43  2  0  0  0  0
 42113  1  0  0  0  0
 43 44  1  0  0  0  0
 43114  1  0  0  0  0
 44 45  2  0  0  0  0
 45 46  1  0  0  0  0
 45 52  1  0  0  0  0
 46 47  2  0  0  0  0
 46115  1  0  0  0  0
 47 48  1  0  0  0  0
 47 50  1  0  0  0  0
 48 49  3  0  0  0  0
 50 51  3  0  0  0  0
 52 53  2  0  0  0  0
 52116  1  0  0  0  0
 53 54  1  0  0  0  0
 53 25  1  0  0  0  0
 54 55  2  0  0  0  0
 54 56  1  0  0  0  0
 55 40  1  0  0  0  0
 55 44  1  0  0  0  0
 56 57  2  0  0  0  0
 56 26  1  0  0  0  0
 57 35  1  0  0  0  0
 57 39  1  0  0  0  0
M  END
