
  xtb     03212210133D
 energy: -22.993517884739 gnorm: 0.000158621181 xtb: 6.4.1 (afa7bdf)
125133  0     0  0            999 V2000
    0.3448   -1.5171   -0.8343 C   0  0  0  0  0  0  0  0  0  0  0  0
    0.4563   -0.1270   -1.4395 C   0  0  0  0  0  0  0  0  0  0  0  0
    0.3232    1.0109   -0.3957 C   0  0  0  0  0  0  0  0  0  0  0  0
    0.5399    2.4074   -1.0395 C   0  0  0  0  0  0  0  0  0  0  0  0
   -0.4685    2.8033   -2.1055 C   0  0  0  0  0  0  0  0  0  0  0  0
   -1.0174    0.9271    0.3443 C   0  0  0  0  0  0  0  0  0  0  0  0
   -2.3077    0.9391   -0.1396 C   0  0  0  0  0  0  0  0  0  0  0  0
   -3.3865    0.8372    0.7440 C   0  0  0  0  0  0  0  0  0  0  0  0
   -4.7766    0.8742    0.2394 C   0  0  0  0  0  0  0  0  0  0  0  0
   -5.1256    1.7161   -0.8243 C   0  0  0  0  0  0  0  0  0  0  0  0
   -6.4162    1.7766   -1.3022 C   0  0  0  0  0  0  0  0  0  0  0  0
   -7.3900    0.9843   -0.7095 C   0  0  0  0  0  0  0  0  0  0  0  0
   -7.0590    0.1359    0.3494 C   0  0  0  0  0  0  0  0  0  0  0  0
   -5.7664    0.0780    0.8225 C   0  0  0  0  0  0  0  0  0  0  0  0
   -8.3147   -0.6094    0.8185 C   0  0  0  0  0  0  0  0  0  0  0  0
   -8.6249   -0.1873    2.2812 C   0  0  0  0  0  0  0  0  0  0  0  0
   -9.9183   -0.7339    2.8639 C   0  0  0  0  0  0  0  0  0  0  0  0
   -8.1236   -2.1430    0.6947 C   0  0  0  0  0  0  0  0  0  0  0  0
   -7.7312   -2.5924   -0.7040 C   0  0  0  0  0  0  0  0  0  0  0  0
   -9.3845   -0.1064   -0.1587 C   0  0  0  0  0  0  0  0  0  0  0  0
  -10.7061   -0.4780   -0.3078 C   0  0  0  0  0  0  0  0  0  0  0  0
  -11.4936    0.1096   -1.2945 C   0  0  0  0  0  0  0  0  0  0  0  0
  -12.9729   -0.2643   -1.4861 C   0  0  0  0  0  0  0  0  0  0  0  0
  -13.1706   -0.8521   -2.8971 C   0  0  0  0  0  0  0  0  0  0  0  0
  -13.8434    0.9973   -1.3208 C   0  0  0  0  0  0  0  0  0  0  0  0
  -13.4362   -1.3117   -0.4522 C   0  0  0  0  0  0  0  0  0  0  0  0
  -10.9122    1.0605   -2.1325 C   0  0  0  0  0  0  0  0  0  0  0  0
   -9.5861    1.4232   -2.0123 C   0  0  0  0  0  0  0  0  0  0  0  0
   -8.8170    0.8335   -1.0208 C   0  0  0  0  0  0  0  0  0  0  0  0
   -3.1289    0.7048    2.1144 C   0  0  0  0  0  0  0  0  0  0  0  0
   -1.8420    0.6660    2.6026 C   0  0  0  0  0  0  0  0  0  0  0  0
   -0.7806    0.7754    1.7140 C   0  0  0  0  0  0  0  0  0  0  0  0
    0.6637    0.7165    1.9556 C   0  0  0  0  0  0  0  0  0  0  0  0
    1.3742    0.5530    3.1375 C   0  0  0  0  0  0  0  0  0  0  0  0
    2.7502    0.5142    3.0899 C   0  0  0  0  0  0  0  0  0  0  0  0
    3.4437    0.6331    1.8783 C   0  0  0  0  0  0  0  0  0  0  0  0
    4.9224    0.6029    1.8468 C   0  0  0  0  0  0  0  0  0  0  0  0
    5.6705    1.2295    2.8516 C   0  0  0  0  0  0  0  0  0  0  0  0
    7.0478    1.2322    2.8287 C   0  0  0  0  0  0  0  0  0  0  0  0
    7.7037    0.5950    1.7841 C   0  0  0  0  0  0  0  0  0  0  0  0
    6.9735   -0.0368    0.7750 C   0  0  0  0  0  0  0  0  0  0  0  0
    5.5962   -0.0367    0.8025 C   0  0  0  0  0  0  0  0  0  0  0  0
    7.9394   -0.6525   -0.2449 C   0  0  0  0  0  0  0  0  0  0  0  0
    7.7752   -2.1970   -0.2167 C   0  0  0  0  0  0  0  0  0  0  0  0
    8.7554   -2.9773   -1.0778 C   0  0  0  0  0  0  0  0  0  0  0  0
    7.6841   -0.0765   -1.6616 C   0  0  0  0  0  0  0  0  0  0  0  0
    7.7449    1.4419   -1.7169 C   0  0  0  0  0  0  0  0  0  0  0  0
    9.3094   -0.2172    0.2900 C   0  0  0  0  0  0  0  0  0  0  0  0
   10.5710   -0.3707   -0.2503 C   0  0  0  0  0  0  0  0  0  0  0  0
   11.6847    0.1414    0.4107 C   0  0  0  0  0  0  0  0  0  0  0  0
   13.1076   -0.0108   -0.1524 C   0  0  0  0  0  0  0  0  0  0  0  0
   13.1146   -0.7866   -1.4860 C   0  0  0  0  0  0  0  0  0  0  0  0
   13.7096    1.3865   -0.3997 C   0  0  0  0  0  0  0  0  0  0  0  0
   13.9771   -0.7804    0.8614 C   0  0  0  0  0  0  0  0  0  0  0  0
   11.4924    0.8180    1.6146 C   0  0  0  0  0  0  0  0  0  0  0  0
   10.2354    1.0011    2.1541 C   0  0  0  0  0  0  0  0  0  0  0  0
    9.1368    0.4837    1.4849 C   0  0  0  0  0  0  0  0  0  0  0  0
    2.7151    0.7901    0.6953 C   0  0  0  0  0  0  0  0  0  0  0  0
    1.3392    0.8307    0.7385 C   0  0  0  0  0  0  0  0  0  0  0  0
   -0.6154   -1.6531   -0.3331 H   0  0  0  0  0  0  0  0  0  0  0  0
    0.4370   -2.3027   -1.5879 H   0  0  0  0  0  0  0  0  0  0  0  0
    1.1222   -1.6862   -0.0868 H   0  0  0  0  0  0  0  0  0  0  0  0
    1.4163   -0.0155   -1.9566 H   0  0  0  0  0  0  0  0  0  0  0  0
   -0.3122    0.0069   -2.2083 H   0  0  0  0  0  0  0  0  0  0  0  0
    1.5536    2.4348   -1.4562 H   0  0  0  0  0  0  0  0  0  0  0  0
    0.5397    3.1514   -0.2339 H   0  0  0  0  0  0  0  0  0  0  0  0
   -0.5002    2.0793   -2.9210 H   0  0  0  0  0  0  0  0  0  0  0  0
   -1.4757    2.8800   -1.6941 H   0  0  0  0  0  0  0  0  0  0  0  0
   -0.2312    3.7744   -2.5468 H   0  0  0  0  0  0  0  0  0  0  0  0
   -2.4853    0.9924   -1.1973 H   0  0  0  0  0  0  0  0  0  0  0  0
   -4.3660    2.3397   -1.2634 H   0  0  0  0  0  0  0  0  0  0  0  0
   -6.6776    2.4252   -2.1194 H   0  0  0  0  0  0  0  0  0  0  0  0
   -5.5210   -0.5870    1.6292 H   0  0  0  0  0  0  0  0  0  0  0  0
   -8.6353    0.9089    2.3183 H   0  0  0  0  0  0  0  0  0  0  0  0
   -7.7764   -0.4880    2.9075 H   0  0  0  0  0  0  0  0  0  0  0  0
  -10.0493   -0.4372    3.9069 H   0  0  0  0  0  0  0  0  0  0  0  0
   -9.9460   -1.8236    2.8340 H   0  0  0  0  0  0  0  0  0  0  0  0
  -10.7882   -0.3673    2.3184 H   0  0  0  0  0  0  0  0  0  0  0  0
   -9.0512   -2.6403    0.9988 H   0  0  0  0  0  0  0  0  0  0  0  0
   -7.3658   -2.4597    1.4208 H   0  0  0  0  0  0  0  0  0  0  0  0
   -7.6051   -3.6752   -0.7677 H   0  0  0  0  0  0  0  0  0  0  0  0
   -6.7922   -2.1333   -1.0170 H   0  0  0  0  0  0  0  0  0  0  0  0
   -8.4871   -2.3053   -1.4367 H   0  0  0  0  0  0  0  0  0  0  0  0
  -11.1076   -1.2409    0.3318 H   0  0  0  0  0  0  0  0  0  0  0  0
  -12.5465   -1.7341   -3.0371 H   0  0  0  0  0  0  0  0  0  0  0  0
  -14.2082   -1.1440   -3.0559 H   0  0  0  0  0  0  0  0  0  0  0  0
  -12.9064   -0.1294   -3.6677 H   0  0  0  0  0  0  0  0  0  0  0  0
  -14.9009    0.7579   -1.4282 H   0  0  0  0  0  0  0  0  0  0  0  0
  -13.6960    1.4397   -0.3361 H   0  0  0  0  0  0  0  0  0  0  0  0
  -13.5962    1.7510   -2.0668 H   0  0  0  0  0  0  0  0  0  0  0  0
  -12.8677   -2.2362   -0.5478 H   0  0  0  0  0  0  0  0  0  0  0  0
  -13.3207   -0.9368    0.5642 H   0  0  0  0  0  0  0  0  0  0  0  0
  -14.4883   -1.5566   -0.5955 H   0  0  0  0  0  0  0  0  0  0  0  0
  -11.5118    1.5169   -2.9012 H   0  0  0  0  0  0  0  0  0  0  0  0
   -9.1433    2.1451   -2.6761 H   0  0  0  0  0  0  0  0  0  0  0  0
   -3.9593    0.6404    2.7958 H   0  0  0  0  0  0  0  0  0  0  0  0
   -1.6493    0.5511    3.6552 H   0  0  0  0  0  0  0  0  0  0  0  0
    0.8465    0.4567    4.0706 H   0  0  0  0  0  0  0  0  0  0  0  0
    3.3108    0.3759    3.9979 H   0  0  0  0  0  0  0  0  0  0  0  0
    5.1504    1.7374    3.6454 H   0  0  0  0  0  0  0  0  0  0  0  0
    7.6165    1.7256    3.5969 H   0  0  0  0  0  0  0  0  0  0  0  0
    5.0445   -0.5339    0.0268 H   0  0  0  0  0  0  0  0  0  0  0  0
    6.7463   -2.4341   -0.5125 H   0  0  0  0  0  0  0  0  0  0  0  0
    7.8569   -2.5234    0.8272 H   0  0  0  0  0  0  0  0  0  0  0  0
    8.7037   -2.6744   -2.1241 H   0  0  0  0  0  0  0  0  0  0  0  0
    8.5584   -4.0511   -1.0436 H   0  0  0  0  0  0  0  0  0  0  0  0
    9.7831   -2.8324   -0.7438 H   0  0  0  0  0  0  0  0  0  0  0  0
    6.7063   -0.4291   -2.0102 H   0  0  0  0  0  0  0  0  0  0  0  0
    8.4172   -0.5041   -2.3544 H   0  0  0  0  0  0  0  0  0  0  0  0
    7.0012    1.8908   -1.0566 H   0  0  0  0  0  0  0  0  0  0  0  0
    8.7209    1.8090   -1.3954 H   0  0  0  0  0  0  0  0  0  0  0  0
    7.5643    1.8242   -2.7237 H   0  0  0  0  0  0  0  0  0  0  0  0
   10.6750   -0.8671   -1.1963 H   0  0  0  0  0  0  0  0  0  0  0  0
   12.5296   -0.2679   -2.2449 H   0  0  0  0  0  0  0  0  0  0  0  0
   12.7071   -1.7890   -1.3588 H   0  0  0  0  0  0  0  0  0  0  0  0
   14.1301   -0.8898   -1.8674 H   0  0  0  0  0  0  0  0  0  0  0  0
   14.7120    1.3102   -0.8197 H   0  0  0  0  0  0  0  0  0  0  0  0
   13.0934    1.9526   -1.0976 H   0  0  0  0  0  0  0  0  0  0  0  0
   13.7789    1.9578    0.5248 H   0  0  0  0  0  0  0  0  0  0  0  0
   14.0505   -0.2459    1.8074 H   0  0  0  0  0  0  0  0  0  0  0  0
   14.9879   -0.9215    0.4799 H   0  0  0  0  0  0  0  0  0  0  0  0
   13.5526   -1.7631    1.0641 H   0  0  0  0  0  0  0  0  0  0  0  0
   12.3471    1.2189    2.1319 H   0  0  0  0  0  0  0  0  0  0  0  0
   10.0968    1.5440    3.0728 H   0  0  0  0  0  0  0  0  0  0  0  0
    3.2251    0.8970   -0.2441 H   0  0  0  0  0  0  0  0  0  0  0  0
  1  2  1  0  0  0  0
  2  3  1  0  0  0  0
  3  4  1  0  0  0  0
  4  5  1  0  0  0  0
  3  6  1  0  0  0  0
  6  7  2  0  0  0  0
  7  8  1  0  0  0  0
  8  9  1  0  0  0  0
  9 10  2  0  0  0  0
 10 11  1  0  0  0  0
 11 12  2  0  0  0  0
 12 13  1  0  0  0  0
 13 14  2  0  0  0  0
 13 15  1  0  0  0  0
 15 16  1  0  0  0  0
 16 17  1  0  0  0  0
 15 18  1  0  0  0  0
 18 19  1  0  0  0  0
 15 20  1  0  0  0  0
 20 21  2  0  0  0  0
 21 22  1  0  0  0  0
 22 23  1  0  0  0  0
 23 24  1  0  0  0  0
 23 25  1  0  0  0  0
 23 26  1  0  0  0  0
 22 27  2  0  0  0  0
 27 28  1  0  0  0  0
 28 29  2  0  0  0  0
  8 30  2  0  0  0  0
 30 31  1  0  0  0  0
 31 32  2  0  0  0  0
 32 33  1  0  0  0  0
 33 34  2  0  0  0  0
 34 35  1  0  0  0  0
 35 36  2  0  0  0  0
 36 37  1  0  0  0  0
 37 38  2  0  0  0  0
 38 39  1  0  0  0  0
 39 40  2  0  0  0  0
 40 41  1  0  0  0  0
 41 42  2  0  0  0  0
 41 43  1  0  0  0  0
 43 44  1  0  0  0  0
 44 45  1  0  0  0  0
 43 46  1  0  0  0  0
 46 47  1  0  0  0  0
 43 48  1  0  0  0  0
 48 49  2  0  0  0  0
 49 50  1  0  0  0  0
 50 51  1  0  0  0  0
 51 52  1  0  0  0  0
 51 53  1  0  0  0  0
 51 54  1  0  0  0  0
 50 55  2  0  0  0  0
 55 56  1  0  0  0  0
 56 57  2  0  0  0  0
 36 58  1  0  0  0  0
 58 59  2  0  0  0  0
 59  3  1  0  0  0  0
 32  6  1  0  0  0  0
 59 33  1  0  0  0  0
 14  9  1  0  0  0  0
 29 20  1  0  0  0  0
 42 37  1  0  0  0  0
 57 48  1  0  0  0  0
 29 12  1  0  0  0  0
 57 40  1  0  0  0  0
  1 60  1  0  0  0  0
  1 61  1  0  0  0  0
  1 62  1  0  0  0  0
  2 63  1  0  0  0  0
  2 64  1  0  0  0  0
  4 65  1  0  0  0  0
  4 66  1  0  0  0  0
  5 67  1  0  0  0  0
  5 68  1  0  0  0  0
  5 69  1  0  0  0  0
  7 70  1  0  0  0  0
 10 71  1  0  0  0  0
 11 72  1  0  0  0  0
 14 73  1  0  0  0  0
 16 74  1  0  0  0  0
 16 75  1  0  0  0  0
 17 76  1  0  0  0  0
 17 77  1  0  0  0  0
 17 78  1  0  0  0  0
 18 79  1  0  0  0  0
 18 80  1  0  0  0  0
 19 81  1  0  0  0  0
 19 82  1  0  0  0  0
 19 83  1  0  0  0  0
 21 84  1  0  0  0  0
 24 85  1  0  0  0  0
 24 86  1  0  0  0  0
 24 87  1  0  0  0  0
 25 88  1  0  0  0  0
 25 89  1  0  0  0  0
 25 90  1  0  0  0  0
 26 91  1  0  0  0  0
 26 92  1  0  0  0  0
 26 93  1  0  0  0  0
 27 94  1  0  0  0  0
 28 95  1  0  0  0  0
 30 96  1  0  0  0  0
 31 97  1  0  0  0  0
 34 98  1  0  0  0  0
 35 99  1  0  0  0  0
 38100  1  0  0  0  0
 39101  1  0  0  0  0
 42102  1  0  0  0  0
 44103  1  0  0  0  0
 44104  1  0  0  0  0
 45105  1  0  0  0  0
 45106  1  0  0  0  0
 45107  1  0  0  0  0
 46108  1  0  0  0  0
 46109  1  0  0  0  0
 47110  1  0  0  0  0
 47111  1  0  0  0  0
 47112  1  0  0  0  0
 49113  1  0  0  0  0
 52114  1  0  0  0  0
 52115  1  0  0  0  0
 52116  1  0  0  0  0
 53117  1  0  0  0  0
 53118  1  0  0  0  0
 53119  1  0  0  0  0
 54120  1  0  0  0  0
 54121  1  0  0  0  0
 54122  1  0  0  0  0
 55123  1  0  0  0  0
 56124  1  0  0  0  0
 58125  1  0  0  0  0
M  END
