
  xtb     03212210133D
 energy: -10.938019737740 gnorm: 0.000397018114 xtb: 6.4.1 (afa7bdf)
 56 59  0     0  0            999 V2000
    0.6398    2.8852   -2.5235 C   0  0  0  0  0  0  0  0  0  0  0  0
    0.1600    1.5251   -2.9856 C   0  0  0  0  0  0  0  0  0  0  0  0
    0.2159    0.5497   -1.9729 O   0  0  0  0  0  0  0  0  0  0  0  0
   -0.7515    0.7804   -1.0335 C   0  0  0  0  0  0  0  0  0  0  0  0
   -1.4966    1.7433   -1.0696 O   0  0  0  0  0  0  0  0  0  0  0  0
   -0.8906   -0.2162    0.0674 C   0  0  0  0  0  0  0  0  0  0  0  0
    0.0596   -0.6520    1.0418 C   0  0  0  0  0  0  0  0  0  0  0  0
    1.4730   -0.3033    1.1722 C   0  0  0  0  0  0  0  0  0  0  0  0
    2.1536    0.2932    0.1662 C   0  0  0  0  0  0  0  0  0  0  0  0
    3.5233    0.6225    0.2840 C   0  0  0  0  0  0  0  0  0  0  0  0
    4.2341    1.2288   -0.7528 C   0  0  0  0  0  0  0  0  0  0  0  0
    5.5774    1.5523   -0.6155 C   0  0  0  0  0  0  0  0  0  0  0  0
    6.3518    2.1615   -1.6109 O   0  0  0  0  0  0  0  0  0  0  0  0
    5.6790    2.3946   -2.8224 C   0  0  0  0  0  0  0  0  0  0  0  0
    6.2075    1.2509    0.6020 C   0  0  0  0  0  0  0  0  0  0  0  0
    5.5271    0.6515    1.6234 C   0  0  0  0  0  0  0  0  0  0  0  0
    4.1761    0.3217    1.4886 C   0  0  0  0  0  0  0  0  0  0  0  0
    3.5205   -0.2951    2.5396 O   0  0  0  0  0  0  0  0  0  0  0  0
    2.1919   -0.6284    2.4145 C   0  0  0  0  0  0  0  0  0  0  0  0
    1.5980   -1.1908    3.3224 O   0  0  0  0  0  0  0  0  0  0  0  0
   -0.5374   -1.4595    1.8987 N   0  0  0  0  0  0  0  0  0  0  0  0
   -1.8067   -1.5620    1.5539 N   0  0  0  0  0  0  0  0  0  0  0  0
   -2.6364   -2.4204    2.3660 C   0  0  0  0  0  0  0  0  0  0  0  0
   -2.0157   -3.1348    3.3822 C   0  0  0  0  0  0  0  0  0  0  0  0
   -2.7339   -3.9892    4.1892 C   0  0  0  0  0  0  0  0  0  0  0  0
   -4.0876   -4.1420    3.9951 C   0  0  0  0  0  0  0  0  0  0  0  0
   -4.7206   -3.4258    2.9945 C   0  0  0  0  0  0  0  0  0  0  0  0
   -6.4181   -3.6078    2.7467 Cl  0  0  0  0  0  0  0  0  0  0  0  0
   -4.0014   -2.5667    2.1886 C   0  0  0  0  0  0  0  0  0  0  0  0
   -2.0834   -0.8154    0.4106 C   0  0  0  0  0  0  0  0  0  0  0  0
   -3.3512   -0.6636   -0.3305 C   0  0  0  0  0  0  0  0  0  0  0  0
   -4.4108   -0.5679    0.2599 O   0  0  0  0  0  0  0  0  0  0  0  0
   -3.2426   -0.6125   -1.6957 O   0  0  0  0  0  0  0  0  0  0  0  0
   -4.4501   -0.1680   -2.2627 C   0  0  0  0  0  0  0  0  0  0  0  0
   -4.7113    1.2883   -1.9364 C   0  0  0  0  0  0  0  0  0  0  0  0
    0.0289    3.2351   -1.6893 H   0  0  0  0  0  0  0  0  0  0  0  0
    1.6707    2.8372   -2.1720 H   0  0  0  0  0  0  0  0  0  0  0  0
    0.5863    3.6326   -3.3175 H   0  0  0  0  0  0  0  0  0  0  0  0
   -0.8824    1.5635   -3.3303 H   0  0  0  0  0  0  0  0  0  0  0  0
    0.7627    1.1509   -3.8230 H   0  0  0  0  0  0  0  0  0  0  0  0
    1.6524    0.5041   -0.7564 H   0  0  0  0  0  0  0  0  0  0  0  0
    3.7198    1.4403   -1.6723 H   0  0  0  0  0  0  0  0  0  0  0  0
    5.3258    1.4495   -3.2380 H   0  0  0  0  0  0  0  0  0  0  0  0
    4.8466    3.0809   -2.6593 H   0  0  0  0  0  0  0  0  0  0  0  0
    6.3816    2.8496   -3.5222 H   0  0  0  0  0  0  0  0  0  0  0  0
    7.2471    1.5028    0.7084 H   0  0  0  0  0  0  0  0  0  0  0  0
    6.0148    0.4177    2.5541 H   0  0  0  0  0  0  0  0  0  0  0  0
   -0.9602   -2.9875    3.5320 H   0  0  0  0  0  0  0  0  0  0  0  0
   -2.2344   -4.5364    4.9742 H   0  0  0  0  0  0  0  0  0  0  0  0
   -4.6671   -4.8057    4.6138 H   0  0  0  0  0  0  0  0  0  0  0  0
   -4.5217   -1.9884    1.4501 H   0  0  0  0  0  0  0  0  0  0  0  0
   -5.2484   -0.8228   -1.8849 H   0  0  0  0  0  0  0  0  0  0  0  0
   -4.3732   -0.3343   -3.3458 H   0  0  0  0  0  0  0  0  0  0  0  0
   -3.8630    1.9006   -2.2437 H   0  0  0  0  0  0  0  0  0  0  0  0
   -5.6135    1.6690   -2.4164 H   0  0  0  0  0  0  0  0  0  0  0  0
   -4.8151    1.4138   -0.8576 H   0  0  0  0  0  0  0  0  0  0  0  0
  1  2  1  0  0  0  0
  2  3  1  0  0  0  0
  3  4  1  0  0  0  0
  4  5  2  0  0  0  0
  4  6  1  0  0  0  0
  6  7  1  0  0  0  0
  7  8  1  0  0  0  0
  8  9  2  0  0  0  0
  9 10  1  0  0  0  0
 10 11  2  0  0  0  0
 11 12  1  0  0  0  0
 12 13  1  0  0  0  0
 13 14  1  0  0  0  0
 12 15  2  0  0  0  0
 15 16  1  0  0  0  0
 16 17  2  0  0  0  0
 17 18  1  0  0  0  0
 18 19  1  0  0  0  0
 19 20  2  0  0  0  0
  7 21  2  0  0  0  0
 21 22  1  0  0  0  0
 22 23  1  0  0  0  0
 23 24  2  0  0  0  0
 24 25  1  0  0  0  0
 25 26  2  0  0  0  0
 26 27  1  0  0  0  0
 27 28  1  0  0  0  0
 27 29  2  0  0  0  0
 22 30  1  0  0  0  0
 30 31  1  0  0  0  0
 31 32  2  0  0  0  0
 31 33  1  0  0  0  0
 33 34  1  0  0  0  0
 34 35  1  0  0  0  0
 30  6  2  0  0  0  0
 19  8  1  0  0  0  0
 29 23  1  0  0  0  0
 17 10  1  0  0  0  0
  1 36  1  0  0  0  0
  1 37  1  0  0  0  0
  1 38  1  0  0  0  0
  2 39  1  0  0  0  0
  2 40  1  0  0  0  0
  9 41  1  0  0  0  0
 11 42  1  0  0  0  0
 14 43  1  0  0  0  0
 14 44  1  0  0  0  0
 14 45  1  0  0  0  0
 15 46  1  0  0  0  0
 16 47  1  0  0  0  0
 24 48  1  0  0  0  0
 25 49  1  0  0  0  0
 26 50  1  0  0  0  0
 29 51  1  0  0  0  0
 34 52  1  0  0  0  0
 34 53  1  0  0  0  0
 35 54  1  0  0  0  0
 35 55  1  0  0  0  0
 35 56  1  0  0  0  0
M  END
