
  xtb     03212210133D
 energy: -11.711552975845 gnorm: 0.000509599210 xtb: 6.4.1 (afa7bdf)
 52 58  0     0  0            999 V2000
    3.9600   -1.9594   -1.5156 O   0  0  0  0  0  0  0  0  0  0  0  0
    3.2741   -1.1733   -0.8894 C   0  0  0  0  0  0  0  0  0  0  0  0
    1.8153   -1.2373   -1.0276 C   0  0  0  0  0  0  0  0  0  0  0  0
    1.2362   -2.1613   -1.8644 C   0  0  0  0  0  0  0  0  0  0  0  0
   -0.1452   -2.2225   -2.0170 C   0  0  0  0  0  0  0  0  0  0  0  0
   -0.9544   -1.3654   -1.3251 C   0  0  0  0  0  0  0  0  0  0  0  0
   -0.4115   -0.4151   -0.4431 C   0  0  0  0  0  0  0  0  0  0  0  0
   -1.2297    0.4961    0.2903 C   0  0  0  0  0  0  0  0  0  0  0  0
   -2.6586    0.4337    0.2043 N   0  0  0  0  0  0  0  0  0  0  0  0
   -3.5116    1.5009   -0.1521 C   0  0  0  0  0  0  0  0  0  0  0  0
   -3.2205    2.8066   -0.5423 C   0  0  0  0  0  0  0  0  0  0  0  0
   -4.2566    3.6495   -0.8577 C   0  0  0  0  0  0  0  0  0  0  0  0
   -5.5816    3.2112   -0.7936 C   0  0  0  0  0  0  0  0  0  0  0  0
   -5.8875    1.9243   -0.4166 C   0  0  0  0  0  0  0  0  0  0  0  0
   -4.8430    1.0595   -0.0951 C   0  0  0  0  0  0  0  0  0  0  0  0
   -4.8191   -0.3229    0.3251 C   0  0  0  0  0  0  0  0  0  0  0  0
   -5.8338   -1.2475    0.5651 C   0  0  0  0  0  0  0  0  0  0  0  0
   -5.4859   -2.5081    0.9913 C   0  0  0  0  0  0  0  0  0  0  0  0
   -4.1484   -2.8605    1.1874 C   0  0  0  0  0  0  0  0  0  0  0  0
   -3.1416   -1.9578    0.9536 C   0  0  0  0  0  0  0  0  0  0  0  0
   -3.4738   -0.6795    0.5084 C   0  0  0  0  0  0  0  0  0  0  0  0
   -0.6248    1.4451    1.0920 C   0  0  0  0  0  0  0  0  0  0  0  0
    0.7531    1.5084    1.2167 C   0  0  0  0  0  0  0  0  0  0  0  0
    1.5708    0.6301    0.5398 C   0  0  0  0  0  0  0  0  0  0  0  0
    0.9936   -0.3429   -0.3060 C   0  0  0  0  0  0  0  0  0  0  0  0
    3.0252    0.7099    0.6877 C   0  0  0  0  0  0  0  0  0  0  0  0
    3.4972    1.5586    1.4223 O   0  0  0  0  0  0  0  0  0  0  0  0
    3.8398   -0.1995   -0.0308 N   0  0  0  0  0  0  0  0  0  0  0  0
    5.2611   -0.1271    0.1083 C   0  0  0  0  0  0  0  0  0  0  0  0
    5.8479    0.3502    1.2760 C   0  0  0  0  0  0  0  0  0  0  0  0
    7.2152    0.4223    1.4119 C   0  0  0  0  0  0  0  0  0  0  0  0
    8.0333    0.0181    0.3776 C   0  0  0  0  0  0  0  0  0  0  0  0
    7.4750   -0.4582   -0.7903 C   0  0  0  0  0  0  0  0  0  0  0  0
    6.1072   -0.5296   -0.9202 C   0  0  0  0  0  0  0  0  0  0  0  0
    1.8791   -2.8342   -2.4067 H   0  0  0  0  0  0  0  0  0  0  0  0
   -0.5766   -2.9478   -2.6858 H   0  0  0  0  0  0  0  0  0  0  0  0
   -2.0209   -1.4015   -1.4539 H   0  0  0  0  0  0  0  0  0  0  0  0
   -2.1951    3.1299   -0.5970 H   0  0  0  0  0  0  0  0  0  0  0  0
   -4.0461    4.6612   -1.1603 H   0  0  0  0  0  0  0  0  0  0  0  0
   -6.3769    3.8934   -1.0463 H   0  0  0  0  0  0  0  0  0  0  0  0
   -6.9047    1.5803   -0.3680 H   0  0  0  0  0  0  0  0  0  0  0  0
   -6.8614   -0.9671    0.4207 H   0  0  0  0  0  0  0  0  0  0  0  0
   -6.2579   -3.2355    1.1824 H   0  0  0  0  0  0  0  0  0  0  0  0
   -3.9051   -3.8525    1.5282 H   0  0  0  0  0  0  0  0  0  0  0  0
   -2.1078   -2.2150    1.1098 H   0  0  0  0  0  0  0  0  0  0  0  0
   -1.2484    2.1275    1.6417 H   0  0  0  0  0  0  0  0  0  0  0  0
    1.2127    2.2461    1.8515 H   0  0  0  0  0  0  0  0  0  0  0  0
    5.2049    0.6889    2.0693 H   0  0  0  0  0  0  0  0  0  0  0  0
    7.6463    0.8007    2.3238 H   0  0  0  0  0  0  0  0  0  0  0  0
    9.1043    0.0742    0.4816 H   0  0  0  0  0  0  0  0  0  0  0  0
    8.1093   -0.7808   -1.5990 H   0  0  0  0  0  0  0  0  0  0  0  0
    5.6667   -0.9246   -1.8187 H   0  0  0  0  0  0  0  0  0  0  0  0
  1  2  2  0  0  0  0
  2  3  1  0  0  0  0
  3  4  1  0  0  0  0
  4  5  2  0  0  0  0
  5  6  1  0  0  0  0
  6  7  2  0  0  0  0
  7  8  1  0  0  0  0
  8  9  1  0  0  0  0
  9 10  1  0  0  0  0
 10 11  2  0  0  0  0
 11 12  1  0  0  0  0
 12 13  2  0  0  0  0
 13 14  1  0  0  0  0
 14 15  2  0  0  0  0
 15 16  1  0  0  0  0
 16 17  2  0  0  0  0
 17 18  1  0  0  0  0
 18 19  2  0  0  0  0
 19 20  1  0  0  0  0
 20 21  2  0  0  0  0
  8 22  2  0  0  0  0
 22 23  1  0  0  0  0
 23 24  2  0  0  0  0
 24 25  1  0  0  0  0
 24 26  1  0  0  0  0
 26 27  2  0  0  0  0
 26 28  1  0  0  0  0
 28 29  1  0  0  0  0
 29 30  2  0  0  0  0
 30 31  1  0  0  0  0
 31 32  2  0  0  0  0
 32 33  1  0  0  0  0
 33 34  2  0  0  0  0
 28  2  1  0  0  0  0
 34 29  1  0  0  0  0
 25  3  2  0  0  0  0
 25  7  1  0  0  0  0
 21  9  1  0  0  0  0
 15 10  1  0  0  0  0
 21 16  1  0  0  0  0
  4 35  1  0  0  0  0
  5 36  1  0  0  0  0
  6 37  1  0  0  0  0
 11 38  1  0  0  0  0
 12 39  1  0  0  0  0
 13 40  1  0  0  0  0
 14 41  1  0  0  0  0
 17 42  1  0  0  0  0
 18 43  1  0  0  0  0
 19 44  1  0  0  0  0
 20 45  1  0  0  0  0
 22 46  1  0  0  0  0
 23 47  1  0  0  0  0
 30 48  1  0  0  0  0
 31 49  1  0  0  0  0
 32 50  1  0  0  0  0
 33 51  1  0  0  0  0
 34 52  1  0  0  0  0
M  END
