
  xtb     03212210143D
 energy: -7.693478479751 gnorm: 0.000276368262 xtb: 6.4.1 (afa7bdf)
 34 38  0     0  0            999 V2000
   -3.7763    1.3281   -0.3966 O   0  0  0  0  0  0  0  0  0  0  0  0
   -2.6533    0.9165   -0.1611 C   0  0  0  0  0  0  0  0  0  0  0  0
   -2.4021   -0.4939    0.1251 C   0  0  0  0  0  0  0  0  0  0  0  0
   -3.4749   -1.3516    0.3297 C   0  0  0  0  0  0  0  0  0  0  0  0
   -3.2685   -2.6482    0.7297 C   0  0  0  0  0  0  0  0  0  0  0  0
   -1.9800   -3.0990    0.9568 C   0  0  0  0  0  0  0  0  0  0  0  0
   -0.9088   -2.2668    0.7450 C   0  0  0  0  0  0  0  0  0  0  0  0
   -1.0854   -0.9626    0.2781 C   0  0  0  0  0  0  0  0  0  0  0  0
    0.0153   -0.0963    0.0006 N   0  0  0  0  0  0  0  0  0  0  0  0
    1.3298   -0.5803   -0.2765 C   0  0  0  0  0  0  0  0  0  0  0  0
    1.5651   -1.8762   -0.7409 C   0  0  0  0  0  0  0  0  0  0  0  0
    2.8411   -2.3369   -0.9520 C   0  0  0  0  0  0  0  0  0  0  0  0
    3.9271   -1.5093   -0.7266 C   0  0  0  0  0  0  0  0  0  0  0  0
    3.7226   -0.2118   -0.3289 C   0  0  0  0  0  0  0  0  0  0  0  0
    2.4372    0.2726   -0.1249 C   0  0  0  0  0  0  0  0  0  0  0  0
    2.2400    1.6917    0.1607 C   0  0  0  0  0  0  0  0  0  0  0  0
    3.1802    2.4299    0.3996 O   0  0  0  0  0  0  0  0  0  0  0  0
    0.8720    2.1974    0.0902 C   0  0  0  0  0  0  0  0  0  0  0  0
    0.6385    3.5626    0.0973 C   0  0  0  0  0  0  0  0  0  0  0  0
   -0.6427    4.0587   -0.0052 C   0  0  0  0  0  0  0  0  0  0  0  0
   -1.7080    3.1907   -0.1056 C   0  0  0  0  0  0  0  0  0  0  0  0
   -1.5084    1.8201   -0.0941 C   0  0  0  0  0  0  0  0  0  0  0  0
   -0.2055    1.2973   -0.0009 C   0  0  0  0  0  0  0  0  0  0  0  0
   -4.4708   -0.9658    0.1921 H   0  0  0  0  0  0  0  0  0  0  0  0
   -4.1080   -3.3041    0.8933 H   0  0  0  0  0  0  0  0  0  0  0  0
   -1.8188   -4.1040    1.3098 H   0  0  0  0  0  0  0  0  0  0  0  0
    0.0815   -2.6063    0.9909 H   0  0  0  0  0  0  0  0  0  0  0  0
    0.7282   -2.5057   -0.9850 H   0  0  0  0  0  0  0  0  0  0  0  0
    2.9986   -3.3433   -1.3027 H   0  0  0  0  0  0  0  0  0  0  0  0
    4.9282   -1.8737   -0.8896 H   0  0  0  0  0  0  0  0  0  0  0  0
    4.5504    0.4632   -0.1920 H   0  0  0  0  0  0  0  0  0  0  0  0
    1.4837    4.2251    0.1750 H   0  0  0  0  0  0  0  0  0  0  0  0
   -0.8112    5.1226   -0.0068 H   0  0  0  0  0  0  0  0  0  0  0  0
   -2.7166    3.5594   -0.1843 H   0  0  0  0  0  0  0  0  0  0  0  0
  1  2  2  0  0  0  0
  2  3  1  0  0  0  0
  3  4  2  0  0  0  0
  4  5  1  0  0  0  0
  5  6  2  0  0  0  0
  6  7  1  0  0  0  0
  7  8  2  0  0  0  0
  8  9  1  0  0  0  0
  9 10  1  0  0  0  0
 10 11  2  0  0  0  0
 11 12  1  0  0  0  0
 12 13  2  0  0  0  0
 13 14  1  0  0  0  0
 14 15  2  0  0  0  0
 15 16  1  0  0  0  0
 16 17  2  0  0  0  0
 16 18  1  0  0  0  0
 18 19  1  0  0  0  0
 19 20  2  0  0  0  0
 20 21  1  0  0  0  0
 21 22  2  0  0  0  0
 22 23  1  0  0  0  0
 22  2  1  0  0  0  0
  8  3  1  0  0  0  0
 23  9  1  0  0  0  0
 15 10  1  0  0  0  0
 23 18  2  0  0  0  0
  4 24  1  0  0  0  0
  5 25  1  0  0  0  0
  6 26  1  0  0  0  0
  7 27  1  0  0  0  0
 11 28  1  0  0  0  0
 12 29  1  0  0  0  0
 13 30  1  0  0  0  0
 14 31  1  0  0  0  0
 19 32  1  0  0  0  0
 20 33  1  0  0  0  0
 21 34  1  0  0  0  0
M  END
