
  xtb     03212210143D
 energy: -7.151158116036 gnorm: 0.000588761881 xtb: 6.4.1 (afa7bdf)
 36 38  0     0  0            999 V2000
   -5.7931   -0.0790   -0.0516 C   0  0  0  0  0  0  0  0  0  0  0  0
   -4.5836    0.7124    0.1659 N   0  0  0  0  0  0  0  0  0  0  0  0
   -4.7698    2.1304    0.4681 C   0  0  0  0  0  0  0  0  0  0  0  0
   -3.3046    0.1395    0.0893 C   0  0  0  0  0  0  0  0  0  0  0  0
   -2.1517    0.9263    0.1853 C   0  0  0  0  0  0  0  0  0  0  0  0
   -0.9057    0.3674    0.1059 C   0  0  0  0  0  0  0  0  0  0  0  0
   -0.7284   -1.0079   -0.0737 C   0  0  0  0  0  0  0  0  0  0  0  0
    0.5557   -1.6510   -0.1658 C   0  0  0  0  0  0  0  0  0  0  0  0
    1.8286   -1.1532   -0.1049 C   0  0  0  0  0  0  0  0  0  0  0  0
    2.9309   -2.0017   -0.2236 O   0  0  0  0  0  0  0  0  0  0  0  0
    4.0875   -1.2487   -0.1254 C   0  0  0  0  0  0  0  0  0  0  0  0
    5.4280   -1.6204   -0.1787 C   0  0  0  0  0  0  0  0  0  0  0  0
    6.4033   -0.6511   -0.0513 C   0  0  0  0  0  0  0  0  0  0  0  0
    6.0780    0.6839    0.1287 C   0  0  0  0  0  0  0  0  0  0  0  0
    4.7471    1.0956    0.1883 C   0  0  0  0  0  0  0  0  0  0  0  0
    4.3553    2.3960    0.3652 O   0  0  0  0  0  0  0  0  0  0  0  0
    3.7661    0.0998    0.0574 C   0  0  0  0  0  0  0  0  0  0  0  0
    2.3319    0.2252    0.0787 C   0  0  0  0  0  0  0  0  0  0  0  0
    1.7344    1.2791    0.2230 O   0  0  0  0  0  0  0  0  0  0  0  0
   -1.8857   -1.7942   -0.1700 C   0  0  0  0  0  0  0  0  0  0  0  0
   -3.1346   -1.2379   -0.0909 C   0  0  0  0  0  0  0  0  0  0  0  0
   -5.7186   -0.6244   -0.9908 H   0  0  0  0  0  0  0  0  0  0  0  0
   -5.9259   -0.7880    0.7638 H   0  0  0  0  0  0  0  0  0  0  0  0
   -6.6742    0.5579   -0.1020 H   0  0  0  0  0  0  0  0  0  0  0  0
   -5.8200    2.3609    0.6365 H   0  0  0  0  0  0  0  0  0  0  0  0
   -4.4118    2.7381   -0.3610 H   0  0  0  0  0  0  0  0  0  0  0  0
   -4.2207    2.3949    1.3700 H   0  0  0  0  0  0  0  0  0  0  0  0
   -2.2479    1.9908    0.3108 H   0  0  0  0  0  0  0  0  0  0  0  0
   -0.0393    0.9918    0.1808 H   0  0  0  0  0  0  0  0  0  0  0  0
    0.5149   -2.7170   -0.3080 H   0  0  0  0  0  0  0  0  0  0  0  0
    5.6797   -2.6558   -0.3189 H   0  0  0  0  0  0  0  0  0  0  0  0
    7.4405   -0.9391   -0.0932 H   0  0  0  0  0  0  0  0  0  0  0  0
    6.8460    1.4295    0.2266 H   0  0  0  0  0  0  0  0  0  0  0  0
    3.3729    2.3761    0.3660 H   0  0  0  0  0  0  0  0  0  0  0  0
   -1.7828   -2.8561   -0.3082 H   0  0  0  0  0  0  0  0  0  0  0  0
   -4.0025   -1.8704   -0.1595 H   0  0  0  0  0  0  0  0  0  0  0  0
  1  2  1  0  0  0  0
  2  3  1  0  0  0  0
  2  4  1  0  0  0  0
  4  5  2  0  0  0  0
  5  6  1  0  0  0  0
  6  7  2  0  0  0  0
  7  8  1  0  0  0  0
  8  9  2  0  0  0  0
  9 10  1  0  0  0  0
 10 11  1  0  0  0  0
 11 12  2  0  0  0  0
 12 13  1  0  0  0  0
 13 14  2  0  0  0  0
 14 15  1  0  0  0  0
 15 16  1  0  0  0  0
 15 17  2  0  0  0  0
 17 18  1  0  0  0  0
 18 19  2  0  0  0  0
  7 20  1  0  0  0  0
 20 21  2  0  0  0  0
 21  4  1  0  0  0  0
 18  9  1  0  0  0  0
 17 11  1  0  0  0  0
  1 22  1  0  0  0  0
  1 23  1  0  0  0  0
  1 24  1  0  0  0  0
  3 25  1  0  0  0  0
  3 26  1  0  0  0  0
  3 27  1  0  0  0  0
  5 28  1  0  0  0  0
  6 29  1  0  0  0  0
  8 30  1  0  0  0  0
 12 31  1  0  0  0  0
 13 32  1  0  0  0  0
 14 33  1  0  0  0  0
 16 34  1  0  0  0  0
 20 35  1  0  0  0  0
 21 36  1  0  0  0  0
M  END
