
  xtb     03212210133D
 energy: -3.236091789243 gnorm: 0.000474686811 xtb: 6.4.1 (afa7bdf)
 15 15  0     0  0            999 V2000
    3.8974   -0.1261    1.3879 N   0  0  0  0  0  0  0  0  0  0  0  0
    2.8033   -0.0909    0.9979 C   0  0  0  0  0  0  0  0  0  0  0  0
    1.4838   -0.0482    0.5287 C   0  0  0  0  0  0  0  0  0  0  0  0
    0.8189    1.1670    0.3929 C   0  0  0  0  0  0  0  0  0  0  0  0
   -0.4736    1.2113   -0.0683 C   0  0  0  0  0  0  0  0  0  0  0  0
   -1.1486    0.0374   -0.4118 C   0  0  0  0  0  0  0  0  0  0  0  0
   -2.4484    0.0802   -0.8833 N   0  0  0  0  0  0  0  0  0  0  0  0
   -0.4781   -1.1803   -0.2735 C   0  0  0  0  0  0  0  0  0  0  0  0
    0.8143   -1.2203    0.1887 C   0  0  0  0  0  0  0  0  0  0  0  0
    1.3364    2.0743    0.6547 H   0  0  0  0  0  0  0  0  0  0  0  0
   -0.9826    2.1533   -0.1730 H   0  0  0  0  0  0  0  0  0  0  0  0
   -2.9824   -0.7436   -1.1217 H   0  0  0  0  0  0  0  0  0  0  0  0
   -2.9768    0.9360   -0.9768 H   0  0  0  0  0  0  0  0  0  0  0  0
   -0.9912   -2.0888   -0.5357 H   0  0  0  0  0  0  0  0  0  0  0  0
    1.3276   -2.1610    0.2931 H   0  0  0  0  0  0  0  0  0  0  0  0
  1  2  3  0  0  0  0
  2  3  1  0  0  0  0
  3  4  2  0  0  0  0
  4  5  1  0  0  0  0
  5  6  2  0  0  0  0
  6  7  1  0  0  0  0
  6  8  1  0  0  0  0
  8  9  2  0  0  0  0
  9  3  1  0  0  0  0
  4 10  1  0  0  0  0
  5 11  1  0  0  0  0
  7 12  1  0  0  0  0
  7 13  1  0  0  0  0
  8 14  1  0  0  0  0
  9 15  1  0  0  0  0
M  END
