
  xtb     03212210133D
 energy: -7.838362835594 gnorm: 0.000238992167 xtb: 6.4.1 (afa7bdf)
 39 41  0     0  0            999 V2000
   -6.0409   -1.9300    1.4028 C   0  0  0  0  0  0  0  0  0  0  0  0
   -5.5583   -0.8987    0.4840 N   0  0  0  0  0  0  0  0  0  0  0  0
   -6.5714   -0.1451   -0.2551 C   0  0  0  0  0  0  0  0  0  0  0  0
   -4.1852   -0.6458    0.3169 C   0  0  0  0  0  0  0  0  0  0  0  0
   -3.2287   -1.3008    1.0993 C   0  0  0  0  0  0  0  0  0  0  0  0
   -1.8898   -1.0523    0.9358 C   0  0  0  0  0  0  0  0  0  0  0  0
   -1.4344   -0.1383   -0.0193 C   0  0  0  0  0  0  0  0  0  0  0  0
   -0.0127    0.1033   -0.1601 C   0  0  0  0  0  0  0  0  0  0  0  0
    0.5652    0.9069   -1.0647 C   0  0  0  0  0  0  0  0  0  0  0  0
    1.9904    1.0797   -1.1018 C   0  0  0  0  0  0  0  0  0  0  0  0
    2.7145    1.8682   -2.0043 C   0  0  0  0  0  0  0  0  0  0  0  0
    4.0096    1.7893   -1.7317 N   0  0  0  0  0  0  0  0  0  0  0  0
    4.1134    0.9719   -0.6832 C   0  0  0  0  0  0  0  0  0  0  0  0
    5.3790    0.6127   -0.0581 C   0  0  0  0  0  0  0  0  0  0  0  0
    6.5884    1.0996   -0.5226 C   0  0  0  0  0  0  0  0  0  0  0  0
    7.7477    0.7264    0.1100 C   0  0  0  0  0  0  0  0  0  0  0  0
    7.8054   -0.0826    1.1564 N   0  0  0  0  0  0  0  0  0  0  0  0
    6.6424   -0.5417    1.5915 C   0  0  0  0  0  0  0  0  0  0  0  0
    5.4263   -0.2339    1.0348 C   0  0  0  0  0  0  0  0  0  0  0  0
    2.8954    0.5063   -0.2580 O   0  0  0  0  0  0  0  0  0  0  0  0
   -2.3901    0.5165   -0.8022 C   0  0  0  0  0  0  0  0  0  0  0  0
   -3.7296    0.2697   -0.6375 C   0  0  0  0  0  0  0  0  0  0  0  0
   -7.1132   -2.0782    1.2973 H   0  0  0  0  0  0  0  0  0  0  0  0
   -5.8334   -1.6400    2.4307 H   0  0  0  0  0  0  0  0  0  0  0  0
   -5.5491   -2.8774    1.1926 H   0  0  0  0  0  0  0  0  0  0  0  0
   -6.5080   -0.3772   -1.3161 H   0  0  0  0  0  0  0  0  0  0  0  0
   -6.4192    0.9228   -0.1134 H   0  0  0  0  0  0  0  0  0  0  0  0
   -7.5728   -0.3906    0.0907 H   0  0  0  0  0  0  0  0  0  0  0  0
   -3.5505   -2.0039    1.8465 H   0  0  0  0  0  0  0  0  0  0  0  0
   -1.1695   -1.5656    1.5497 H   0  0  0  0  0  0  0  0  0  0  0  0
    0.6396   -0.4090    0.5261 H   0  0  0  0  0  0  0  0  0  0  0  0
   -0.0263    1.4396   -1.7844 H   0  0  0  0  0  0  0  0  0  0  0  0
    2.2986    2.4572   -2.8072 H   0  0  0  0  0  0  0  0  0  0  0  0
    6.6010    1.7622   -1.3707 H   0  0  0  0  0  0  0  0  0  0  0  0
    8.6916    1.1055   -0.2514 H   0  0  0  0  0  0  0  0  0  0  0  0
    6.6800   -1.2019    2.4447 H   0  0  0  0  0  0  0  0  0  0  0  0
    4.5094   -0.6361    1.4304 H   0  0  0  0  0  0  0  0  0  0  0  0
   -2.0714    1.2284   -1.5425 H   0  0  0  0  0  0  0  0  0  0  0  0
   -4.4431    0.7834   -1.2565 H   0  0  0  0  0  0  0  0  0  0  0  0
  1  2  1  0  0  0  0
  2  3  1  0  0  0  0
  2  4  1  0  0  0  0
  4  5  2  0  0  0  0
  5  6  1  0  0  0  0
  6  7  2  0  0  0  0
  7  8  1  0  0  0  0
  8  9  2  0  0  0  0
  9 10  1  0  0  0  0
 10 11  2  0  0  0  0
 11 12  1  0  0  0  0
 12 13  2  0  0  0  0
 13 14  1  0  0  0  0
 14 15  2  0  0  0  0
 15 16  1  0  0  0  0
 16 17  2  0  0  0  0
 17 18  1  0  0  0  0
 18 19  2  0  0  0  0
 13 20  1  0  0  0  0
  7 21  1  0  0  0  0
 21 22  2  0  0  0  0
 22  4  1  0  0  0  0
 20 10  1  0  0  0  0
 19 14  1  0  0  0  0
  1 23  1  0  0  0  0
  1 24  1  0  0  0  0
  1 25  1  0  0  0  0
  3 26  1  0  0  0  0
  3 27  1  0  0  0  0
  3 28  1  0  0  0  0
  5 29  1  0  0  0  0
  6 30  1  0  0  0  0
  8 31  1  0  0  0  0
  9 32  1  0  0  0  0
 11 33  1  0  0  0  0
 15 34  1  0  0  0  0
 16 35  1  0  0  0  0
 18 36  1  0  0  0  0
 19 37  1  0  0  0  0
 21 38  1  0  0  0  0
 22 39  1  0  0  0  0
M  END
