
  xtb     03212210143D
 energy: -14.982790311115 gnorm: 0.000233578038 xtb: 6.4.1 (afa7bdf)
 70 78  0     0  0            999 V2000
    8.3097   -2.2805    1.0553 C   0  0  0  0  0  0  0  0  0  0  0  0
    7.8838   -1.2691    1.8937 C   0  0  0  0  0  0  0  0  0  0  0  0
    6.8420   -0.4513    1.5157 C   0  0  0  0  0  0  0  0  0  0  0  0
    6.2058   -0.6324    0.2881 C   0  0  0  0  0  0  0  0  0  0  0  0
    5.0853    0.2541   -0.1258 C   0  0  0  0  0  0  0  0  0  0  0  0
    3.7682   -0.1075    0.0671 C   0  0  0  0  0  0  0  0  0  0  0  0
    2.7385    0.7721   -0.3413 C   0  0  0  0  0  0  0  0  0  0  0  0
    2.9607    1.9560   -0.8924 N   0  0  0  0  0  0  0  0  0  0  0  0
    4.2515    2.3295   -1.0908 C   0  0  0  0  0  0  0  0  0  0  0  0
    4.5169    3.5801   -1.6847 C   0  0  0  0  0  0  0  0  0  0  0  0
    5.7954    3.9992   -1.9101 C   0  0  0  0  0  0  0  0  0  0  0  0
    6.8753    3.1895   -1.5531 C   0  0  0  0  0  0  0  0  0  0  0  0
    6.6552    1.9739   -0.9756 C   0  0  0  0  0  0  0  0  0  0  0  0
    5.3451    1.5157   -0.7306 C   0  0  0  0  0  0  0  0  0  0  0  0
    1.3403    0.3677   -0.1505 C   0  0  0  0  0  0  0  0  0  0  0  0
    0.3222    1.3084   -0.2780 C   0  0  0  0  0  0  0  0  0  0  0  0
   -1.0060    0.9731   -0.1089 C   0  0  0  0  0  0  0  0  0  0  0  0
   -1.3409   -0.3537    0.1908 C   0  0  0  0  0  0  0  0  0  0  0  0
   -0.3228   -1.2940    0.3202 C   0  0  0  0  0  0  0  0  0  0  0  0
    1.0053   -0.9585    0.1531 C   0  0  0  0  0  0  0  0  0  0  0  0
    2.0818   -1.9971    0.2710 C   0  0  0  0  0  0  0  0  0  0  0  0
    3.4208   -1.4051    0.7457 C   0  0  0  0  0  0  0  0  0  0  0  0
   -2.7389   -0.7609    0.3752 C   0  0  0  0  0  0  0  0  0  0  0  0
   -2.9591   -1.9465    0.9229 N   0  0  0  0  0  0  0  0  0  0  0  0
   -4.2491   -2.3273    1.1106 C   0  0  0  0  0  0  0  0  0  0  0  0
   -4.5105   -3.5844    1.6925 C   0  0  0  0  0  0  0  0  0  0  0  0
   -5.7877   -4.0174    1.8974 C   0  0  0  0  0  0  0  0  0  0  0  0
   -6.8699   -3.2157    1.5300 C   0  0  0  0  0  0  0  0  0  0  0  0
   -6.6533   -1.9934    0.9653 C   0  0  0  0  0  0  0  0  0  0  0  0
   -5.3446   -1.5184    0.7449 C   0  0  0  0  0  0  0  0  0  0  0  0
   -5.0868   -0.2524    0.1468 C   0  0  0  0  0  0  0  0  0  0  0  0
   -6.2075    0.6299   -0.2720 C   0  0  0  0  0  0  0  0  0  0  0  0
   -6.5096    0.8103   -1.6216 C   0  0  0  0  0  0  0  0  0  0  0  0
   -7.5523    1.6244   -2.0055 C   0  0  0  0  0  0  0  0  0  0  0  0
   -8.3123    2.2722   -1.0518 C   0  0  0  0  0  0  0  0  0  0  0  0
   -8.0278    2.1045    0.2890 C   0  0  0  0  0  0  0  0  0  0  0  0
   -6.9858    1.2918    0.6775 C   0  0  0  0  0  0  0  0  0  0  0  0
   -3.7698    0.1159   -0.0361 C   0  0  0  0  0  0  0  0  0  0  0  0
   -3.4250    1.4273   -0.6898 C   0  0  0  0  0  0  0  0  0  0  0  0
   -2.0826    2.0127   -0.2156 C   0  0  0  0  0  0  0  0  0  0  0  0
    6.6500   -1.6571   -0.5473 C   0  0  0  0  0  0  0  0  0  0  0  0
    7.6918   -2.4727   -0.1646 C   0  0  0  0  0  0  0  0  0  0  0  0
    9.1249   -2.9195    1.3528 H   0  0  0  0  0  0  0  0  0  0  0  0
    8.3675   -1.1191    2.8450 H   0  0  0  0  0  0  0  0  0  0  0  0
    6.5057    0.3396    2.1640 H   0  0  0  0  0  0  0  0  0  0  0  0
    3.6808    4.1991   -1.9585 H   0  0  0  0  0  0  0  0  0  0  0  0
    5.9757    4.9589   -2.3659 H   0  0  0  0  0  0  0  0  0  0  0  0
    7.8822    3.5276   -1.7351 H   0  0  0  0  0  0  0  0  0  0  0  0
    7.4849    1.3471   -0.6989 H   0  0  0  0  0  0  0  0  0  0  0  0
    0.5884    2.3236   -0.5086 H   0  0  0  0  0  0  0  0  0  0  0  0
   -0.5890   -2.3090    0.5516 H   0  0  0  0  0  0  0  0  0  0  0  0
    1.7484   -2.7894    0.9529 H   0  0  0  0  0  0  0  0  0  0  0  0
    2.2131   -2.4789   -0.7049 H   0  0  0  0  0  0  0  0  0  0  0  0
    4.2306   -2.1278    0.5887 H   0  0  0  0  0  0  0  0  0  0  0  0
    3.3867   -1.2320    1.8278 H   0  0  0  0  0  0  0  0  0  0  0  0
   -3.6723   -4.1982    1.9714 H   0  0  0  0  0  0  0  0  0  0  0  0
   -5.9651   -4.9823    2.3431 H   0  0  0  0  0  0  0  0  0  0  0  0
   -7.8760   -3.5659    1.6925 H   0  0  0  0  0  0  0  0  0  0  0  0
   -7.4860   -1.3762    0.6771 H   0  0  0  0  0  0  0  0  0  0  0  0
   -5.9178    0.2976   -2.3605 H   0  0  0  0  0  0  0  0  0  0  0  0
   -7.7760    1.7547   -3.0516 H   0  0  0  0  0  0  0  0  0  0  0  0
   -9.1281    2.9083   -1.3539 H   0  0  0  0  0  0  0  0  0  0  0  0
   -8.6214    2.6103    1.0328 H   0  0  0  0  0  0  0  0  0  0  0  0
   -6.7575    1.1589    1.7212 H   0  0  0  0  0  0  0  0  0  0  0  0
   -3.4002    1.2783   -1.7755 H   0  0  0  0  0  0  0  0  0  0  0  0
   -4.2341    2.1455   -0.5081 H   0  0  0  0  0  0  0  0  0  0  0  0
   -2.2092    2.4874    0.7644 H   0  0  0  0  0  0  0  0  0  0  0  0
   -1.7507    2.8098   -0.8926 H   0  0  0  0  0  0  0  0  0  0  0  0
    6.1660   -1.7994   -1.4983 H   0  0  0  0  0  0  0  0  0  0  0  0
    8.0253   -3.2617   -0.8185 H   0  0  0  0  0  0  0  0  0  0  0  0
  1  2  2  0  0  0  0
  2  3  1  0  0  0  0
  3  4  2  0  0  0  0
  4  5  1  0  0  0  0
  5  6  2  0  0  0  0
  6  7  1  0  0  0  0
  7  8  2  0  0  0  0
  8  9  1  0  0  0  0
  9 10  2  0  0  0  0
 10 11  1  0  0  0  0
 11 12  2  0  0  0  0
 12 13  1  0  0  0  0
 13 14  2  0  0  0  0
  7 15  1  0  0  0  0
 15 16  2  0  0  0  0
 16 17  1  0  0  0  0
 17 18  2  0  0  0  0
 18 19  1  0  0  0  0
 19 20  2  0  0  0  0
 20 21  1  0  0  0  0
 21 22  1  0  0  0  0
 18 23  1  0  0  0  0
 23 24  2  0  0  0  0
 24 25  1  0  0  0  0
 25 26  2  0  0  0  0
 26 27  1  0  0  0  0
 27 28  2  0  0  0  0
 28 29  1  0  0  0  0
 29 30  2  0  0  0  0
 30 31  1  0  0  0  0
 31 32  1  0  0  0  0
 32 33  2  0  0  0  0
 33 34  1  0  0  0  0
 34 35  2  0  0  0  0
 35 36  1  0  0  0  0
 36 37  2  0  0  0  0
 31 38  2  0  0  0  0
 38 39  1  0  0  0  0
 39 40  1  0  0  0  0
  4 41  1  0  0  0  0
 41 42  2  0  0  0  0
 42  1  1  0  0  0  0
 14  5  1  0  0  0  0
 20 15  1  0  0  0  0
 38 23  1  0  0  0  0
 22  6  1  0  0  0  0
 30 25  1  0  0  0  0
 37 32  1  0  0  0  0
 14  9  1  0  0  0  0
 40 17  1  0  0  0  0
  1 43  1  0  0  0  0
  2 44  1  0  0  0  0
  3 45  1  0  0  0  0
 10 46  1  0  0  0  0
 11 47  1  0  0  0  0
 12 48  1  0  0  0  0
 13 49  1  0  0  0  0
 16 50  1  0  0  0  0
 19 51  1  0  0  0  0
 21 52  1  0  0  0  0
 21 53  1  0  0  0  0
 22 54  1  0  0  0  0
 22 55  1  0  0  0  0
 26 56  1  0  0  0  0
 27 57  1  0  0  0  0
 28 58  1  0  0  0  0
 29 59  1  0  0  0  0
 33 60  1  0  0  0  0
 34 61  1  0  0  0  0
 35 62  1  0  0  0  0
 36 63  1  0  0  0  0
 37 64  1  0  0  0  0
 39 65  1  0  0  0  0
 39 66  1  0  0  0  0
 40 67  1  0  0  0  0
 40 68  1  0  0  0  0
 41 69  1  0  0  0  0
 42 70  1  0  0  0  0
M  END
