
  xtb     03212210143D
 energy: -14.337794373604 gnorm: 0.000313806844 xtb: 6.4.1 (afa7bdf)
 66 72  0     0  0            999 V2000
    9.2718   -0.1658    0.0166 C   0  0  0  0  0  0  0  0  0  0  0  0
    9.1549    0.0638    1.3971 C   0  0  0  0  0  0  0  0  0  0  0  0
    7.8229    0.1390    1.6949 C   0  0  0  0  0  0  0  0  0  0  0  0
    7.1005   -0.0410    0.5263 N   0  0  0  0  0  0  0  0  0  0  0  0
    5.6621   -0.0320    0.4035 C   0  0  0  0  0  0  0  0  0  0  0  0
    4.8973    0.8722    1.1274 C   0  0  0  0  0  0  0  0  0  0  0  0
    3.5262    0.8815    1.0124 C   0  0  0  0  0  0  0  0  0  0  0  0
    2.8748   -0.0173    0.1686 C   0  0  0  0  0  0  0  0  0  0  0  0
    1.3998   -0.0094    0.0437 C   0  0  0  0  0  0  0  0  0  0  0  0
    0.6983    1.1896   -0.0234 C   0  0  0  0  0  0  0  0  0  0  0  0
   -0.6869    1.2161   -0.1440 C   0  0  0  0  0  0  0  0  0  0  0  0
   -1.4165    2.5018   -0.2180 C   0  0  0  0  0  0  0  0  0  0  0  0
   -0.9074    3.5719   -0.9528 C   0  0  0  0  0  0  0  0  0  0  0  0
   -1.5871    4.7663   -1.0217 C   0  0  0  0  0  0  0  0  0  0  0  0
   -2.7964    4.9316   -0.3608 C   0  0  0  0  0  0  0  0  0  0  0  0
   -3.5086    6.1852   -0.4351 N   0  0  0  0  0  0  0  0  0  0  0  0
   -2.9434    7.4502   -0.4229 C   0  0  0  0  0  0  0  0  0  0  0  0
   -3.9468    8.3743   -0.5105 C   0  0  0  0  0  0  0  0  0  0  0  0
   -5.1641    7.6780   -0.5808 C   0  0  0  0  0  0  0  0  0  0  0  0
   -4.8820    6.3413   -0.5327 C   0  0  0  0  0  0  0  0  0  0  0  0
   -3.3088    3.8704    0.3724 C   0  0  0  0  0  0  0  0  0  0  0  0
   -2.6315    2.6748    0.4439 C   0  0  0  0  0  0  0  0  0  0  0  0
   -1.3707    0.0061   -0.1949 C   0  0  0  0  0  0  0  0  0  0  0  0
   -0.7016   -1.2113   -0.1285 C   0  0  0  0  0  0  0  0  0  0  0  0
   -1.4479   -2.4886   -0.1807 C   0  0  0  0  0  0  0  0  0  0  0  0
   -2.5259   -2.6526   -1.0497 C   0  0  0  0  0  0  0  0  0  0  0  0
   -3.2203   -3.8395   -1.0946 C   0  0  0  0  0  0  0  0  0  0  0  0
   -2.8629   -4.9007   -0.2744 C   0  0  0  0  0  0  0  0  0  0  0  0
   -3.5947   -6.1442   -0.3212 N   0  0  0  0  0  0  0  0  0  0  0  0
   -4.1217   -6.7411   -1.4553 C   0  0  0  0  0  0  0  0  0  0  0  0
   -4.7424   -7.9016   -1.0861 C   0  0  0  0  0  0  0  0  0  0  0  0
   -4.6043   -8.0361    0.3048 C   0  0  0  0  0  0  0  0  0  0  0  0
   -3.9005   -6.9561    0.7593 C   0  0  0  0  0  0  0  0  0  0  0  0
   -1.7905   -4.7440    0.5928 C   0  0  0  0  0  0  0  0  0  0  0  0
   -1.0932   -3.5587    0.6399 C   0  0  0  0  0  0  0  0  0  0  0  0
    0.6841   -1.2006   -0.0102 C   0  0  0  0  0  0  0  0  0  0  0  0
    3.6488   -0.9233   -0.5555 C   0  0  0  0  0  0  0  0  0  0  0  0
    5.0198   -0.9284   -0.4395 C   0  0  0  0  0  0  0  0  0  0  0  0
    8.0091   -0.2286   -0.5029 C   0  0  0  0  0  0  0  0  0  0  0  0
   10.1933   -0.2720   -0.5346 H   0  0  0  0  0  0  0  0  0  0  0  0
    9.9703    0.1621    2.0967 H   0  0  0  0  0  0  0  0  0  0  0  0
    7.3874    0.2984    2.6677 H   0  0  0  0  0  0  0  0  0  0  0  0
    5.3946    1.5715    1.7765 H   0  0  0  0  0  0  0  0  0  0  0  0
    2.9415    1.5792    1.5861 H   0  0  0  0  0  0  0  0  0  0  0  0
    1.2400    2.1170    0.0183 H   0  0  0  0  0  0  0  0  0  0  0  0
    0.0216    3.4496   -1.4816 H   0  0  0  0  0  0  0  0  0  0  0  0
   -1.1935    5.5846   -1.5987 H   0  0  0  0  0  0  0  0  0  0  0  0
   -1.8874    7.6504   -0.3452 H   0  0  0  0  0  0  0  0  0  0  0  0
   -3.8260    9.4464   -0.5222 H   0  0  0  0  0  0  0  0  0  0  0  0
   -6.1455    8.1192   -0.6598 H   0  0  0  0  0  0  0  0  0  0  0  0
   -5.5909    5.5308   -0.5741 H   0  0  0  0  0  0  0  0  0  0  0  0
   -4.2410    4.0006    0.8937 H   0  0  0  0  0  0  0  0  0  0  0  0
   -3.0306    1.8637    1.0273 H   0  0  0  0  0  0  0  0  0  0  0  0
   -2.4415    0.0116   -0.2876 H   0  0  0  0  0  0  0  0  0  0  0  0
   -2.8045   -1.8403   -1.6979 H   0  0  0  0  0  0  0  0  0  0  0  0
   -4.0554   -3.9568   -1.7628 H   0  0  0  0  0  0  0  0  0  0  0  0
   -4.0354   -6.3460   -2.4541 H   0  0  0  0  0  0  0  0  0  0  0  0
   -5.2465   -8.5914   -1.7448 H   0  0  0  0  0  0  0  0  0  0  0  0
   -4.9863   -8.8462    0.9063 H   0  0  0  0  0  0  0  0  0  0  0  0
   -3.6298   -6.7471    1.7812 H   0  0  0  0  0  0  0  0  0  0  0  0
   -1.5080   -5.5674    1.2251 H   0  0  0  0  0  0  0  0  0  0  0  0
   -0.2713   -3.4437    1.3246 H   0  0  0  0  0  0  0  0  0  0  0  0
    1.2143   -2.1342    0.0408 H   0  0  0  0  0  0  0  0  0  0  0  0
    3.1612   -1.6148   -1.2200 H   0  0  0  0  0  0  0  0  0  0  0  0
    5.6116   -1.6330   -0.9971 H   0  0  0  0  0  0  0  0  0  0  0  0
    7.7435   -0.3850   -1.5356 H   0  0  0  0  0  0  0  0  0  0  0  0
  1  2  1  0  0  0  0
  2  3  2  0  0  0  0
  3  4  1  0  0  0  0
  4  5  1  0  0  0  0
  5  6  2  0  0  0  0
  6  7  1  0  0  0  0
  7  8  2  0  0  0  0
  8  9  1  0  0  0  0
  9 10  2  0  0  0  0
 10 11  1  0  0  0  0
 11 12  1  0  0  0  0
 12 13  2  0  0  0  0
 13 14  1  0  0  0  0
 14 15  2  0  0  0  0
 15 16  1  0  0  0  0
 16 17  1  0  0  0  0
 17 18  2  0  0  0  0
 18 19  1  0  0  0  0
 19 20  2  0  0  0  0
 15 21  1  0  0  0  0
 21 22  2  0  0  0  0
 11 23  2  0  0  0  0
 23 24  1  0  0  0  0
 24 25  1  0  0  0  0
 25 26  2  0  0  0  0
 26 27  1  0  0  0  0
 27 28  2  0  0  0  0
 28 29  1  0  0  0  0
 29 30  1  0  0  0  0
 30 31  2  0  0  0  0
 31 32  1  0  0  0  0
 32 33  2  0  0  0  0
 28 34  1  0  0  0  0
 34 35  2  0  0  0  0
 24 36  2  0  0  0  0
  8 37  1  0  0  0  0
 37 38  2  0  0  0  0
  4 39  1  0  0  0  0
 39  1  2  0  0  0  0
 38  5  1  0  0  0  0
 36  9  1  0  0  0  0
 22 12  1  0  0  0  0
 35 25  1  0  0  0  0
 20 16  1  0  0  0  0
 33 29  1  0  0  0  0
  1 40  1  0  0  0  0
  2 41  1  0  0  0  0
  3 42  1  0  0  0  0
  6 43  1  0  0  0  0
  7 44  1  0  0  0  0
 10 45  1  0  0  0  0
 13 46  1  0  0  0  0
 14 47  1  0  0  0  0
 17 48  1  0  0  0  0
 18 49  1  0  0  0  0
 19 50  1  0  0  0  0
 20 51  1  0  0  0  0
 21 52  1  0  0  0  0
 22 53  1  0  0  0  0
 23 54  1  0  0  0  0
 26 55  1  0  0  0  0
 27 56  1  0  0  0  0
 30 57  1  0  0  0  0
 31 58  1  0  0  0  0
 32 59  1  0  0  0  0
 33 60  1  0  0  0  0
 34 61  1  0  0  0  0
 35 62  1  0  0  0  0
 36 63  1  0  0  0  0
 37 64  1  0  0  0  0
 38 65  1  0  0  0  0
 39 66  1  0  0  0  0
M  END
