
  xtb     03212210143D
 energy: -17.499461606742 gnorm: 0.000218343543 xtb: 6.4.1 (afa7bdf)
 80 88  0     0  0            999 V2000
   -2.5713    2.4592    0.0441 O   0  0  0  0  0  0  0  0  0  0  0  0
   -3.1710    1.2189    0.0845 C   0  0  0  0  0  0  0  0  0  0  0  0
   -4.5578    1.1529    0.1491 C   0  0  0  0  0  0  0  0  0  0  0  0
   -5.2351   -0.0559    0.1871 C   0  0  0  0  0  0  0  0  0  0  0  0
   -6.6653   -0.0901    0.2579 N   0  0  0  0  0  0  0  0  0  0  0  0
   -7.3717    0.9220    0.9885 C   0  0  0  0  0  0  0  0  0  0  0  0
   -6.8487    1.4462    2.1684 C   0  0  0  0  0  0  0  0  0  0  0  0
   -7.5258    2.4185    2.8680 C   0  0  0  0  0  0  0  0  0  0  0  0
   -8.7397    2.8842    2.4024 C   0  0  0  0  0  0  0  0  0  0  0  0
   -9.2749    2.3751    1.2355 C   0  0  0  0  0  0  0  0  0  0  0  0
   -8.5977    1.4032    0.5353 C   0  0  0  0  0  0  0  0  0  0  0  0
   -7.3934   -1.1294   -0.4111 C   0  0  0  0  0  0  0  0  0  0  0  0
   -8.5313   -1.6877    0.1664 C   0  0  0  0  0  0  0  0  0  0  0  0
   -9.2318   -2.6817   -0.4777 C   0  0  0  0  0  0  0  0  0  0  0  0
   -8.8085   -3.1355   -1.7115 C   0  0  0  0  0  0  0  0  0  0  0  0
   -7.6827   -2.5932   -2.2999 C   0  0  0  0  0  0  0  0  0  0  0  0
   -6.9817   -1.5996   -1.6559 C   0  0  0  0  0  0  0  0  0  0  0  0
   -4.4899   -1.2339    0.1572 C   0  0  0  0  0  0  0  0  0  0  0  0
   -3.1184   -1.1955    0.0987 C   0  0  0  0  0  0  0  0  0  0  0  0
   -2.4220    0.0111    0.0634 C   0  0  0  0  0  0  0  0  0  0  0  0
   -0.9632    0.0060    0.0132 C   0  0  0  0  0  0  0  0  0  0  0  0
   -0.2007    1.0881   -0.1199 N   0  0  0  0  0  0  0  0  0  0  0  0
    1.0786    0.6588   -0.1127 C   0  0  0  0  0  0  0  0  0  0  0  0
    2.2946    1.4215   -0.2197 C   0  0  0  0  0  0  0  0  0  0  0  0
    2.2600    2.8083   -0.3750 C   0  0  0  0  0  0  0  0  0  0  0  0
    3.4192    3.5248   -0.4768 C   0  0  0  0  0  0  0  0  0  0  0  0
    4.6642    2.8848   -0.4273 C   0  0  0  0  0  0  0  0  0  0  0  0
    5.9196    3.6602   -0.5366 C   0  0  0  0  0  0  0  0  0  0  0  0
    7.0292    3.3392    0.2446 C   0  0  0  0  0  0  0  0  0  0  0  0
    8.1978    4.0611    0.1413 C   0  0  0  0  0  0  0  0  0  0  0  0
    8.2845    5.1171   -0.7433 C   0  0  0  0  0  0  0  0  0  0  0  0
    7.1968    5.4493   -1.5253 C   0  0  0  0  0  0  0  0  0  0  0  0
    6.0264    4.7301   -1.4244 C   0  0  0  0  0  0  0  0  0  0  0  0
    4.6964    1.5075   -0.2723 C   0  0  0  0  0  0  0  0  0  0  0  0
    3.5334    0.7410   -0.1644 C   0  0  0  0  0  0  0  0  0  0  0  0
    3.5673   -0.7177    0.0014 C   0  0  0  0  0  0  0  0  0  0  0  0
    4.7662   -1.4302    0.0741 C   0  0  0  0  0  0  0  0  0  0  0  0
    4.8018   -2.8069    0.2328 C   0  0  0  0  0  0  0  0  0  0  0  0
    6.0940   -3.5225    0.3136 C   0  0  0  0  0  0  0  0  0  0  0  0
    7.1742   -2.9722    1.0036 C   0  0  0  0  0  0  0  0  0  0  0  0
    8.3777   -3.6384    1.0775 C   0  0  0  0  0  0  0  0  0  0  0  0
    8.5297   -4.8659    0.4650 C   0  0  0  0  0  0  0  0  0  0  0  0
    7.4722   -5.4262   -0.2226 C   0  0  0  0  0  0  0  0  0  0  0  0
    6.2667   -4.7637   -0.2985 C   0  0  0  0  0  0  0  0  0  0  0  0
    3.5884   -3.5021    0.3195 C   0  0  0  0  0  0  0  0  0  0  0  0
    2.3950   -2.8401    0.2533 C   0  0  0  0  0  0  0  0  0  0  0  0
    2.3596   -1.4513    0.0966 C   0  0  0  0  0  0  0  0  0  0  0  0
    1.1181   -0.7346    0.0356 C   0  0  0  0  0  0  0  0  0  0  0  0
   -0.1850   -1.1422    0.1114 N   0  0  0  0  0  0  0  0  0  0  0  0
   -1.6071    2.2938   -0.0162 H   0  0  0  0  0  0  0  0  0  0  0  0
   -5.1120    2.0716    0.1595 H   0  0  0  0  0  0  0  0  0  0  0  0
   -5.9064    1.0711    2.5304 H   0  0  0  0  0  0  0  0  0  0  0  0
   -7.1088    2.8160    3.7779 H   0  0  0  0  0  0  0  0  0  0  0  0
   -9.2699    3.6470    2.9505 H   0  0  0  0  0  0  0  0  0  0  0  0
  -10.2208    2.7403    0.8725 H   0  0  0  0  0  0  0  0  0  0  0  0
   -9.0029    1.0091   -0.3813 H   0  0  0  0  0  0  0  0  0  0  0  0
   -8.8492   -1.3343    1.1327 H   0  0  0  0  0  0  0  0  0  0  0  0
  -10.1092   -3.1061   -0.0193 H   0  0  0  0  0  0  0  0  0  0  0  0
   -9.3581   -3.9141   -2.2165 H   0  0  0  0  0  0  0  0  0  0  0  0
   -7.3548   -2.9462   -3.2632 H   0  0  0  0  0  0  0  0  0  0  0  0
   -6.1099   -1.1627   -2.1131 H   0  0  0  0  0  0  0  0  0  0  0  0
   -5.0078   -2.1759    0.1952 H   0  0  0  0  0  0  0  0  0  0  0  0
   -2.5663   -2.1172    0.0759 H   0  0  0  0  0  0  0  0  0  0  0  0
    1.3046    3.3007   -0.4112 H   0  0  0  0  0  0  0  0  0  0  0  0
    3.3843    4.5963   -0.5820 H   0  0  0  0  0  0  0  0  0  0  0  0
    6.9592    2.5257    0.9460 H   0  0  0  0  0  0  0  0  0  0  0  0
    9.0460    3.8021    0.7546 H   0  0  0  0  0  0  0  0  0  0  0  0
    9.1994    5.6811   -0.8230 H   0  0  0  0  0  0  0  0  0  0  0  0
    7.2640    6.2726   -2.2184 H   0  0  0  0  0  0  0  0  0  0  0  0
    5.1842    4.9817   -2.0457 H   0  0  0  0  0  0  0  0  0  0  0  0
    5.6560    1.0260   -0.2515 H   0  0  0  0  0  0  0  0  0  0  0  0
    5.7014   -0.9087   -0.0058 H   0  0  0  0  0  0  0  0  0  0  0  0
    7.0537   -2.0226    1.4955 H   0  0  0  0  0  0  0  0  0  0  0  0
    9.2022   -3.2008    1.6172 H   0  0  0  0  0  0  0  0  0  0  0  0
    9.4720   -5.3856    0.5236 H   0  0  0  0  0  0  0  0  0  0  0  0
    7.5906   -6.3840   -0.7035 H   0  0  0  0  0  0  0  0  0  0  0  0
    5.4483   -5.1957   -0.8479 H   0  0  0  0  0  0  0  0  0  0  0  0
    3.6060   -4.5704    0.4569 H   0  0  0  0  0  0  0  0  0  0  0  0
    1.4687   -3.3809    0.3255 H   0  0  0  0  0  0  0  0  0  0  0  0
   -0.5014   -2.1023    0.2521 H   0  0  0  0  0  0  0  0  0  0  0  0
  1  2  1  0  0  0  0
  2  3  2  0  0  0  0
  3  4  1  0  0  0  0
  4  5  1  0  0  0  0
  5  6  1  0  0  0  0
  6  7  2  0  0  0  0
  7  8  1  0  0  0  0
  8  9  2  0  0  0  0
  9 10  1  0  0  0  0
 10 11  2  0  0  0  0
  5 12  1  0  0  0  0
 12 13  2  0  0  0  0
 13 14  1  0  0  0  0
 14 15  2  0  0  0  0
 15 16  1  0  0  0  0
 16 17  2  0  0  0  0
  4 18  2  0  0  0  0
 18 19  1  0  0  0  0
 19 20  2  0  0  0  0
 20 21  1  0  0  0  0
 21 22  2  0  0  0  0
 22 23  1  0  0  0  0
 23 24  2  0  0  0  0
 24 25  1  0  0  0  0
 25 26  2  0  0  0  0
 26 27  1  0  0  0  0
 27 28  1  0  0  0  0
 28 29  2  0  0  0  0
 29 30  1  0  0  0  0
 30 31  2  0  0  0  0
 31 32  1  0  0  0  0
 32 33  2  0  0  0  0
 27 34  2  0  0  0  0
 34 35  1  0  0  0  0
 35 36  2  0  0  0  0
 36 37  1  0  0  0  0
 37 38  2  0  0  0  0
 38 39  1  0  0  0  0
 39 40  2  0  0  0  0
 40 41  1  0  0  0  0
 41 42  2  0  0  0  0
 42 43  1  0  0  0  0
 43 44  2  0  0  0  0
 38 45  1  0  0  0  0
 45 46  2  0  0  0  0
 46 47  1  0  0  0  0
 47 48  2  0  0  0  0
 48 49  1  0  0  0  0
 20  2  1  0  0  0  0
 49 21  1  0  0  0  0
 11  6  1  0  0  0  0
 17 12  1  0  0  0  0
 48 23  1  0  0  0  0
 35 24  1  0  0  0  0
 47 36  1  0  0  0  0
 33 28  1  0  0  0  0
 44 39  1  0  0  0  0
  1 50  1  0  0  0  0
  3 51  1  0  0  0  0
  7 52  1  0  0  0  0
  8 53  1  0  0  0  0
  9 54  1  0  0  0  0
 10 55  1  0  0  0  0
 11 56  1  0  0  0  0
 13 57  1  0  0  0  0
 14 58  1  0  0  0  0
 15 59  1  0  0  0  0
 16 60  1  0  0  0  0
 17 61  1  0  0  0  0
 18 62  1  0  0  0  0
 19 63  1  0  0  0  0
 25 64  1  0  0  0  0
 26 65  1  0  0  0  0
 29 66  1  0  0  0  0
 30 67  1  0  0  0  0
 31 68  1  0  0  0  0
 32 69  1  0  0  0  0
 33 70  1  0  0  0  0
 34 71  1  0  0  0  0
 37 72  1  0  0  0  0
 40 73  1  0  0  0  0
 41 74  1  0  0  0  0
 42 75  1  0  0  0  0
 43 76  1  0  0  0  0
 44 77  1  0  0  0  0
 45 78  1  0  0  0  0
 46 79  1  0  0  0  0
 49 80  1  0  0  0  0
M  END
