
  xtb     03212210133D
 energy: -6.464259540462 gnorm: 0.000412274109 xtb: 6.4.1 (afa7bdf)
 30 32  0     0  0            999 V2000
    0.9553    1.5800    0.0004 O   0  0  0  0  0  0  0  0  0  0  0  0
   -0.1847    1.1616    0.0267 C   0  0  0  0  0  0  0  0  0  0  0  0
   -1.2756    1.8217    0.5817 N   0  0  0  0  0  0  0  0  0  0  0  0
   -2.4502    1.1014    0.3804 C   0  0  0  0  0  0  0  0  0  0  0  0
   -3.7623    1.3943    0.7308 C   0  0  0  0  0  0  0  0  0  0  0  0
   -4.7490    0.4956    0.3965 C   0  0  0  0  0  0  0  0  0  0  0  0
   -4.4438   -0.6824   -0.2781 C   0  0  0  0  0  0  0  0  0  0  0  0
   -3.1458   -0.9819   -0.6317 C   0  0  0  0  0  0  0  0  0  0  0  0
   -2.1372   -0.0842   -0.3033 C   0  0  0  0  0  0  0  0  0  0  0  0
   -0.6996   -0.1123   -0.5324 C   0  0  0  0  0  0  0  0  0  0  0  0
   -0.0388   -1.0976   -1.1900 C   0  0  0  0  0  0  0  0  0  0  0  0
    1.3971   -1.2338   -1.4164 C   0  0  0  0  0  0  0  0  0  0  0  0
    1.7976   -1.8120   -2.4118 O   0  0  0  0  0  0  0  0  0  0  0  0
    2.3895   -0.7309   -0.4325 C   0  0  0  0  0  0  0  0  0  0  0  0
    2.2106   -0.9002    0.9356 C   0  0  0  0  0  0  0  0  0  0  0  0
    3.1552   -0.4369    1.8232 C   0  0  0  0  0  0  0  0  0  0  0  0
    4.2923    0.1898    1.3577 C   0  0  0  0  0  0  0  0  0  0  0  0
    4.4878    0.3493    0.0018 C   0  0  0  0  0  0  0  0  0  0  0  0
    3.5444   -0.1126   -0.8879 C   0  0  0  0  0  0  0  0  0  0  0  0
   -1.2126    2.7461    0.9980 H   0  0  0  0  0  0  0  0  0  0  0  0
   -3.9858    2.3087    1.2502 H   0  0  0  0  0  0  0  0  0  0  0  0
   -5.7722    0.7075    0.6599 H   0  0  0  0  0  0  0  0  0  0  0  0
   -5.2344   -1.3698   -0.5287 H   0  0  0  0  0  0  0  0  0  0  0  0
   -2.9094   -1.8913   -1.1541 H   0  0  0  0  0  0  0  0  0  0  0  0
   -0.6342   -1.8676   -1.6474 H   0  0  0  0  0  0  0  0  0  0  0  0
    1.3178   -1.3840    1.2917 H   0  0  0  0  0  0  0  0  0  0  0  0
    3.0023   -0.5581    2.8826 H   0  0  0  0  0  0  0  0  0  0  0  0
    5.0284    0.5580    2.0548 H   0  0  0  0  0  0  0  0  0  0  0  0
    5.3758    0.8392   -0.3616 H   0  0  0  0  0  0  0  0  0  0  0  0
    3.6814    0.0020   -1.9498 H   0  0  0  0  0  0  0  0  0  0  0  0
  1  2  2  0  0  0  0
  2  3  1  0  0  0  0
  3  4  1  0  0  0  0
  4  5  2  0  0  0  0
  5  6  1  0  0  0  0
  6  7  2  0  0  0  0
  7  8  1  0  0  0  0
  8  9  2  0  0  0  0
  9 10  1  0  0  0  0
 10 11  2  0  0  0  0
 11 12  1  0  0  0  0
 12 13  2  0  0  0  0
 12 14  1  0  0  0  0
 14 15  2  0  0  0  0
 15 16  1  0  0  0  0
 16 17  2  0  0  0  0
 17 18  1  0  0  0  0
 18 19  2  0  0  0  0
 10  2  1  0  0  0  0
 19 14  1  0  0  0  0
  9  4  1  0  0  0  0
  3 20  1  0  0  0  0
  5 21  1  0  0  0  0
  6 22  1  0  0  0  0
  7 23  1  0  0  0  0
  8 24  1  0  0  0  0
 11 25  1  0  0  0  0
 15 26  1  0  0  0  0
 16 27  1  0  0  0  0
 17 28  1  0  0  0  0
 18 29  1  0  0  0  0
 19 30  1  0  0  0  0
M  END
