
  xtb     03212210123D
 energy: -9.620974605536 gnorm: 0.000356130053 xtb: 6.4.1 (afa7bdf)
 48 52  0     0  0            999 V2000
    0.8309   -4.8952    1.9023 N   0  0  0  0  0  0  0  0  0  0  0  0
    1.6394   -4.2006    1.4516 C   0  0  0  0  0  0  0  0  0  0  0  0
    2.7038   -3.0585    0.7640 S   0  0  0  0  0  0  0  0  0  0  0  0
    1.5430   -1.7754    0.4295 C   0  0  0  0  0  0  0  0  0  0  0  0
    0.2250   -1.8433    0.7804 C   0  0  0  0  0  0  0  0  0  0  0  0
   -0.4368   -0.6614    0.3410 C   0  0  0  0  0  0  0  0  0  0  0  0
   -1.7837   -0.2933    0.5332 C   0  0  0  0  0  0  0  0  0  0  0  0
   -2.7498   -1.2052    1.1674 C   0  0  0  0  0  0  0  0  0  0  0  0
   -3.6295   -0.7533    2.1546 C   0  0  0  0  0  0  0  0  0  0  0  0
   -4.5153   -1.6163    2.7553 C   0  0  0  0  0  0  0  0  0  0  0  0
   -4.5481   -2.9465    2.3896 C   0  0  0  0  0  0  0  0  0  0  0  0
   -3.6884   -3.4119    1.4160 C   0  0  0  0  0  0  0  0  0  0  0  0
   -2.8003   -2.5557    0.8097 C   0  0  0  0  0  0  0  0  0  0  0  0
   -2.1291    1.0134    0.1342 C   0  0  0  0  0  0  0  0  0  0  0  0
   -3.3384    1.7542    0.2034 C   0  0  0  0  0  0  0  0  0  0  0  0
   -3.0903    3.0128   -0.3022 C   0  0  0  0  0  0  0  0  0  0  0  0
   -1.7386    3.0814   -0.7014 C   0  0  0  0  0  0  0  0  0  0  0  0
   -0.8245    4.4113   -1.3924 S   0  0  0  0  0  0  0  0  0  0  0  0
   -2.0738    5.4982   -1.7967 C   0  0  0  0  0  0  0  0  0  0  0  0
   -2.9672    6.1951   -2.0332 N   0  0  0  0  0  0  0  0  0  0  0  0
   -1.2180    1.8741   -0.4407 N   0  0  0  0  0  0  0  0  0  0  0  0
    0.1852    1.4634   -0.8781 B   0  0  0  0  0  4  0  0  0  0  0  0
    1.0743    2.4393   -0.4539 F   0  0  0  0  0  0  0  0  0  0  0  0
    0.1800    1.3328   -2.2598 F   0  0  0  0  0  0  0  0  0  0  0  0
    0.5344    0.1044   -0.2630 N   0  0  0  0  0  4  0  0  0  0  0  0
    1.7580   -0.5174   -0.2495 C   0  0  0  0  0  0  0  0  0  0  0  0
    2.9358   -0.0494   -0.7639 N   0  0  0  0  0  0  0  0  0  0  0  0
    3.0097    1.1482   -1.6360 C   0  0  0  0  0  0  0  0  0  0  0  0
    4.2430    1.0859   -2.5337 C   0  0  0  0  0  0  0  0  0  0  0  0
    5.4653    1.0312   -1.7822 O   0  0  0  0  0  0  0  0  0  0  0  0
    5.3463    0.4072   -0.4945 C   0  0  0  0  0  0  0  0  0  0  0  0
    4.2554   -0.6615   -0.4632 C   0  0  0  0  0  0  0  0  0  0  0  0
   -0.2293   -2.6561    1.3184 H   0  0  0  0  0  0  0  0  0  0  0  0
   -3.5834    0.2749    2.4648 H   0  0  0  0  0  0  0  0  0  0  0  0
   -5.1829   -1.2545    3.5208 H   0  0  0  0  0  0  0  0  0  0  0  0
   -5.2422   -3.6214    2.8647 H   0  0  0  0  0  0  0  0  0  0  0  0
   -3.7124   -4.4516    1.1308 H   0  0  0  0  0  0  0  0  0  0  0  0
   -2.1462   -2.9168    0.0363 H   0  0  0  0  0  0  0  0  0  0  0  0
   -4.2833    1.3915    0.5681 H   0  0  0  0  0  0  0  0  0  0  0  0
   -3.8009    3.8166   -0.3985 H   0  0  0  0  0  0  0  0  0  0  0  0
    3.0426    2.0313   -0.9934 H   0  0  0  0  0  0  0  0  0  0  0  0
    2.0932    1.2106   -2.2262 H   0  0  0  0  0  0  0  0  0  0  0  0
    4.2173    0.1916   -3.1669 H   0  0  0  0  0  0  0  0  0  0  0  0
    4.3091    1.9567   -3.1987 H   0  0  0  0  0  0  0  0  0  0  0  0
    5.1267    1.2049    0.2246 H   0  0  0  0  0  0  0  0  0  0  0  0
    6.3312   -0.0033   -0.2382 H   0  0  0  0  0  0  0  0  0  0  0  0
    4.4526   -1.4350   -1.2085 H   0  0  0  0  0  0  0  0  0  0  0  0
    4.2104   -1.1481    0.5142 H   0  0  0  0  0  0  0  0  0  0  0  0
  1  2  3  0  0  0  0
  2  3  1  0  0  0  0
  3  4  1  0  0  0  0
  4  5  2  0  0  0  0
  5  6  1  0  0  0  0
  6  7  2  0  0  0  0
  7  8  1  0  0  0  0
  8  9  2  0  0  0  0
  9 10  1  0  0  0  0
 10 11  2  0  0  0  0
 11 12  1  0  0  0  0
 12 13  2  0  0  0  0
  7 14  1  0  0  0  0
 14 15  2  0  0  0  0
 15 16  1  0  0  0  0
 16 17  2  0  0  0  0
 17 18  1  0  0  0  0
 18 19  1  0  0  0  0
 19 20  3  0  0  0  0
 17 21  1  0  0  0  0
 21 22  1  0  0  0  0
 22 23  1  0  0  0  0
 22 24  1  0  0  0  0
 22 25  1  0  0  0  0
 25 26  2  0  0  0  0
 26 27  1  0  0  0  0
 27 28  1  0  0  0  0
 28 29  1  0  0  0  0
 29 30  1  0  0  0  0
 30 31  1  0  0  0  0
 31 32  1  0  0  0  0
 26  4  1  0  0  0  0
 32 27  1  0  0  0  0
 25  6  1  0  0  0  0
 13  8  1  0  0  0  0
 21 14  1  0  0  0  0
  5 33  1  0  0  0  0
  9 34  1  0  0  0  0
 10 35  1  0  0  0  0
 11 36  1  0  0  0  0
 12 37  1  0  0  0  0
 13 38  1  0  0  0  0
 15 39  1  0  0  0  0
 16 40  1  0  0  0  0
 28 41  1  0  0  0  0
 28 42  1  0  0  0  0
 29 43  1  0  0  0  0
 29 44  1  0  0  0  0
 31 45  1  0  0  0  0
 31 46  1  0  0  0  0
 32 47  1  0  0  0  0
 32 48  1  0  0  0  0
M  CHG  1  22  -1
M  CHG  1  25   1
M  END
