
  xtb     03212210133D
 energy: -11.927160634961 gnorm: 0.000280566930 xtb: 6.4.1 (afa7bdf)
 59 63  0     0  0            999 V2000
   -6.5898    3.9052    1.0343 C   0  0  0  0  0  0  0  0  0  0  0  0
   -7.4037    2.7693    0.8725 O   0  0  0  0  0  0  0  0  0  0  0  0
   -6.7092    1.5805    0.6197 C   0  0  0  0  0  0  0  0  0  0  0  0
   -7.4612    0.4240    0.4382 C   0  0  0  0  0  0  0  0  0  0  0  0
   -6.8736   -0.8109    0.1811 C   0  0  0  0  0  0  0  0  0  0  0  0
   -7.7258   -1.9093    0.0172 O   0  0  0  0  0  0  0  0  0  0  0  0
   -7.0732   -3.1305   -0.2310 C   0  0  0  0  0  0  0  0  0  0  0  0
   -5.4815   -0.8714    0.1057 C   0  0  0  0  0  0  0  0  0  0  0  0
   -4.6965    0.2623    0.2827 C   0  0  0  0  0  0  0  0  0  0  0  0
   -3.2208    0.1754    0.2064 C   0  0  0  0  0  0  0  0  0  0  0  0
   -2.4160    0.8722    1.1057 C   0  0  0  0  0  0  0  0  0  0  0  0
   -1.0456    0.7900    1.0390 C   0  0  0  0  0  0  0  0  0  0  0  0
   -0.4190    0.0060    0.0691 C   0  0  0  0  0  0  0  0  0  0  0  0
    1.0377   -0.0770    0.0093 C   0  0  0  0  0  0  0  0  0  0  0  0
    1.7763   -0.8218   -0.8417 C   0  0  0  0  0  0  0  0  0  0  0  0
    3.1928   -0.6385   -0.5869 C   0  0  0  0  0  0  0  0  0  0  0  0
    4.2507   -1.3713   -1.3138 C   0  0  0  0  0  0  0  0  0  0  0  0
    4.3107   -1.3390   -2.7060 C   0  0  0  0  0  0  0  0  0  0  0  0
    5.2983   -2.0214   -3.3823 C   0  0  0  0  0  0  0  0  0  0  0  0
    6.2390   -2.7514   -2.6834 C   0  0  0  0  0  0  0  0  0  0  0  0
    6.1894   -2.8014   -1.3047 C   0  0  0  0  0  0  0  0  0  0  0  0
    5.2036   -2.1209   -0.6244 C   0  0  0  0  0  0  0  0  0  0  0  0
    3.3594    0.2596    0.4378 C   0  0  0  0  0  0  0  0  0  0  0  0
    4.6061    0.8093    0.9667 C   0  0  0  0  0  0  0  0  0  0  0  0
    4.6418    1.3863    2.2397 C   0  0  0  0  0  0  0  0  0  0  0  0
    5.8059    1.9250    2.7410 C   0  0  0  0  0  0  0  0  0  0  0  0
    6.9603    1.9095    1.9839 C   0  0  0  0  0  0  0  0  0  0  0  0
    6.9460    1.3566    0.7192 C   0  0  0  0  0  0  0  0  0  0  0  0
    5.7847    0.8164    0.2149 C   0  0  0  0  0  0  0  0  0  0  0  0
    1.9876    0.6580    0.9108 C   0  0  0  0  0  0  0  0  0  0  0  0
   -1.2263   -0.6900   -0.8323 C   0  0  0  0  0  0  0  0  0  0  0  0
   -2.5969   -0.6065   -0.7640 C   0  0  0  0  0  0  0  0  0  0  0  0
   -5.3199    1.4784    0.5380 C   0  0  0  0  0  0  0  0  0  0  0  0
   -5.9252    3.7678    1.8879 H   0  0  0  0  0  0  0  0  0  0  0  0
   -7.2314    4.7669    1.2207 H   0  0  0  0  0  0  0  0  0  0  0  0
   -6.0147    4.0827    0.1248 H   0  0  0  0  0  0  0  0  0  0  0  0
   -8.5308    0.4863    0.4994 H   0  0  0  0  0  0  0  0  0  0  0  0
   -6.4988   -3.0638   -1.1556 H   0  0  0  0  0  0  0  0  0  0  0  0
   -7.8278   -3.9102   -0.3390 H   0  0  0  0  0  0  0  0  0  0  0  0
   -6.4230   -3.3816    0.6076 H   0  0  0  0  0  0  0  0  0  0  0  0
   -4.9958   -1.8101   -0.0779 H   0  0  0  0  0  0  0  0  0  0  0  0
   -2.8830    1.4693    1.8698 H   0  0  0  0  0  0  0  0  0  0  0  0
   -0.4427    1.3328    1.7451 H   0  0  0  0  0  0  0  0  0  0  0  0
    1.3856   -1.4736   -1.6009 H   0  0  0  0  0  0  0  0  0  0  0  0
    3.5773   -0.7660   -3.2467 H   0  0  0  0  0  0  0  0  0  0  0  0
    5.3365   -1.9855   -4.4586 H   0  0  0  0  0  0  0  0  0  0  0  0
    7.0110   -3.2844   -3.2145 H   0  0  0  0  0  0  0  0  0  0  0  0
    6.9226   -3.3729   -0.7596 H   0  0  0  0  0  0  0  0  0  0  0  0
    5.1601   -2.1566    0.4505 H   0  0  0  0  0  0  0  0  0  0  0  0
    3.7453    1.4013    2.8345 H   0  0  0  0  0  0  0  0  0  0  0  0
    5.8160    2.3608    3.7265 H   0  0  0  0  0  0  0  0  0  0  0  0
    7.8703    2.3321    2.3781 H   0  0  0  0  0  0  0  0  0  0  0  0
    7.8448    1.3503    0.1247 H   0  0  0  0  0  0  0  0  0  0  0  0
    5.7753    0.4064   -0.7787 H   0  0  0  0  0  0  0  0  0  0  0  0
    1.8470    1.7420    0.8315 H   0  0  0  0  0  0  0  0  0  0  0  0
    1.8333    0.3659    1.9556 H   0  0  0  0  0  0  0  0  0  0  0  0
   -0.7678   -1.2963   -1.5923 H   0  0  0  0  0  0  0  0  0  0  0  0
   -3.2049   -1.1390   -1.4750 H   0  0  0  0  0  0  0  0  0  0  0  0
   -4.7109    2.3527    0.6625 H   0  0  0  0  0  0  0  0  0  0  0  0
  1  2  1  0  0  0  0
  2  3  1  0  0  0  0
  3  4  2  0  0  0  0
  4  5  1  0  0  0  0
  5  6  1  0  0  0  0
  6  7  1  0  0  0  0
  5  8  2  0  0  0  0
  8  9  1  0  0  0  0
  9 10  1  0  0  0  0
 10 11  2  0  0  0  0
 11 12  1  0  0  0  0
 12 13  2  0  0  0  0
 13 14  1  0  0  0  0
 14 15  2  0  0  0  0
 15 16  1  0  0  0  0
 16 17  1  0  0  0  0
 17 18  2  0  0  0  0
 18 19  1  0  0  0  0
 19 20  2  0  0  0  0
 20 21  1  0  0  0  0
 21 22  2  0  0  0  0
 16 23  2  0  0  0  0
 23 24  1  0  0  0  0
 24 25  2  0  0  0  0
 25 26  1  0  0  0  0
 26 27  2  0  0  0  0
 27 28  1  0  0  0  0
 28 29  2  0  0  0  0
 23 30  1  0  0  0  0
 13 31  1  0  0  0  0
 31 32  2  0  0  0  0
  9 33  2  0  0  0  0
 33  3  1  0  0  0  0
 32 10  1  0  0  0  0
 30 14  1  0  0  0  0
 22 17  1  0  0  0  0
 29 24  1  0  0  0  0
  1 34  1  0  0  0  0
  1 35  1  0  0  0  0
  1 36  1  0  0  0  0
  4 37  1  0  0  0  0
  7 38  1  0  0  0  0
  7 39  1  0  0  0  0
  7 40  1  0  0  0  0
  8 41  1  0  0  0  0
 11 42  1  0  0  0  0
 12 43  1  0  0  0  0
 15 44  1  0  0  0  0
 18 45  1  0  0  0  0
 19 46  1  0  0  0  0
 20 47  1  0  0  0  0
 21 48  1  0  0  0  0
 22 49  1  0  0  0  0
 25 50  1  0  0  0  0
 26 51  1  0  0  0  0
 27 52  1  0  0  0  0
 28 53  1  0  0  0  0
 29 54  1  0  0  0  0
 30 55  1  0  0  0  0
 30 56  1  0  0  0  0
 31 57  1  0  0  0  0
 32 58  1  0  0  0  0
 33 59  1  0  0  0  0
M  END
