
  xtb     03212210123D
 energy: -10.299026845291 gnorm: 0.000143256198 xtb: 6.4.1 (afa7bdf)
 51 55  0     0  0            999 V2000
   -4.1680   -2.5148    0.9413 C   0  0  0  0  0  0  0  0  0  0  0  0
   -3.9511   -1.5775    2.1161 C   0  0  0  0  0  0  0  0  0  0  0  0
   -3.9642   -0.0994    1.7265 C   0  0  0  0  0  0  0  0  0  0  0  0
   -2.9397    0.2295    0.7104 N   0  0  0  0  0  0  0  0  0  0  0  0
   -3.3328    0.2755   -0.6636 C   0  0  0  0  0  0  0  0  0  0  0  0
   -4.6387   -0.0349   -1.0568 C   0  0  0  0  0  0  0  0  0  0  0  0
   -5.0276   -0.0219   -2.3794 C   0  0  0  0  0  0  0  0  0  0  0  0
   -4.1224    0.3041   -3.3617 C   0  0  0  0  0  0  0  0  0  0  0  0
   -2.8272    0.6206   -3.0050 C   0  0  0  0  0  0  0  0  0  0  0  0
   -2.4272    0.6144   -1.6817 C   0  0  0  0  0  0  0  0  0  0  0  0
   -0.7460    1.0660   -1.4135 S   0  0  0  0  0  0  0  0  0  0  0  0
   -0.5502    0.6990    0.2954 C   0  0  0  0  0  0  0  0  0  0  0  0
    0.7443    0.7631    0.7521 C   0  0  0  0  0  0  0  0  0  0  0  0
    1.0757    0.5243    2.0908 C   0  0  0  0  0  0  0  0  0  0  0  0
    2.4450    0.5938    2.5696 C   0  0  0  0  0  0  0  0  0  0  0  0
    3.5601    0.3772    1.8340 C   0  0  0  0  0  0  0  0  0  0  0  0
    3.6032   -0.1877    0.4894 C   0  0  0  0  0  0  0  0  0  0  0  0
    2.7905   -1.2212    0.1418 C   0  0  0  0  0  0  0  0  0  0  0  0
    2.7949   -1.8153   -1.1663 C   0  0  0  0  0  0  0  0  0  0  0  0
    2.0086   -2.7305   -1.3897 O   0  0  0  0  0  0  0  0  0  0  0  0
    3.6743   -1.3381   -2.1155 O   0  0  0  0  0  0  0  0  0  0  0  0
    4.5239   -0.2944   -1.7811 C   0  0  0  0  0  0  0  0  0  0  0  0
    5.4070    0.1804   -2.7548 C   0  0  0  0  0  0  0  0  0  0  0  0
    6.2586    1.2197   -2.4882 C   0  0  0  0  0  0  0  0  0  0  0  0
    6.2526    1.8210   -1.2392 C   0  0  0  0  0  0  0  0  0  0  0  0
    5.3971    1.3729   -0.2641 C   0  0  0  0  0  0  0  0  0  0  0  0
    4.5255    0.3079   -0.5073 C   0  0  0  0  0  0  0  0  0  0  0  0
    0.0248    0.2645    2.9689 C   0  0  0  0  0  0  0  0  0  0  0  0
   -1.2699    0.1921    2.5168 C   0  0  0  0  0  0  0  0  0  0  0  0
   -1.6030    0.3789    1.1673 C   0  0  0  0  0  0  0  0  0  0  0  0
   -4.0912   -3.5639    1.2346 H   0  0  0  0  0  0  0  0  0  0  0  0
   -5.1533   -2.3758    0.4949 H   0  0  0  0  0  0  0  0  0  0  0  0
   -3.4270   -2.3398    0.1594 H   0  0  0  0  0  0  0  0  0  0  0  0
   -4.7051   -1.7666    2.8920 H   0  0  0  0  0  0  0  0  0  0  0  0
   -2.9904   -1.8186    2.5872 H   0  0  0  0  0  0  0  0  0  0  0  0
   -4.9502    0.2002    1.3697 H   0  0  0  0  0  0  0  0  0  0  0  0
   -3.8053    0.5450    2.5962 H   0  0  0  0  0  0  0  0  0  0  0  0
   -5.3744   -0.3106   -0.3260 H   0  0  0  0  0  0  0  0  0  0  0  0
   -6.0419   -0.2715   -2.6456 H   0  0  0  0  0  0  0  0  0  0  0  0
   -4.4196    0.3127   -4.3972 H   0  0  0  0  0  0  0  0  0  0  0  0
   -2.1049    0.8797   -3.7626 H   0  0  0  0  0  0  0  0  0  0  0  0
    1.5214    1.0123    0.0508 H   0  0  0  0  0  0  0  0  0  0  0  0
    2.5674    0.8770    3.6026 H   0  0  0  0  0  0  0  0  0  0  0  0
    4.5134    0.5841    2.2943 H   0  0  0  0  0  0  0  0  0  0  0  0
    2.1046   -1.6265    0.8617 H   0  0  0  0  0  0  0  0  0  0  0  0
    5.3967   -0.2916   -3.7208 H   0  0  0  0  0  0  0  0  0  0  0  0
    6.9321    1.5735   -3.2518 H   0  0  0  0  0  0  0  0  0  0  0  0
    6.9195    2.6422   -1.0360 H   0  0  0  0  0  0  0  0  0  0  0  0
    5.3876    1.8516    0.6989 H   0  0  0  0  0  0  0  0  0  0  0  0
    0.2440    0.1035    4.0101 H   0  0  0  0  0  0  0  0  0  0  0  0
   -2.0415   -0.0187    3.2352 H   0  0  0  0  0  0  0  0  0  0  0  0
  1  2  1  0  0  0  0
  2  3  1  0  0  0  0
  3  4  1  0  0  0  0
  4  5  1  0  0  0  0
  5  6  2  0  0  0  0
  6  7  1  0  0  0  0
  7  8  2  0  0  0  0
  8  9  1  0  0  0  0
  9 10  2  0  0  0  0
 10 11  1  0  0  0  0
 11 12  1  0  0  0  0
 12 13  2  0  0  0  0
 13 14  1  0  0  0  0
 14 15  1  0  0  0  0
 15 16  2  0  0  0  0
 16 17  1  0  0  0  0
 17 18  2  0  0  0  0
 18 19  1  0  0  0  0
 19 20  2  0  0  0  0
 19 21  1  0  0  0  0
 21 22  1  0  0  0  0
 22 23  2  0  0  0  0
 23 24  1  0  0  0  0
 24 25  2  0  0  0  0
 25 26  1  0  0  0  0
 26 27  2  0  0  0  0
 14 28  2  0  0  0  0
 28 29  1  0  0  0  0
 29 30  2  0  0  0  0
 30  4  1  0  0  0  0
 10  5  1  0  0  0  0
 30 12  1  0  0  0  0
 27 17  1  0  0  0  0
 27 22  1  0  0  0  0
  1 31  1  0  0  0  0
  1 32  1  0  0  0  0
  1 33  1  0  0  0  0
  2 34  1  0  0  0  0
  2 35  1  0  0  0  0
  3 36  1  0  0  0  0
  3 37  1  0  0  0  0
  6 38  1  0  0  0  0
  7 39  1  0  0  0  0
  8 40  1  0  0  0  0
  9 41  1  0  0  0  0
 13 42  1  0  0  0  0
 15 43  1  0  0  0  0
 16 44  1  0  0  0  0
 18 45  1  0  0  0  0
 23 46  1  0  0  0  0
 24 47  1  0  0  0  0
 25 48  1  0  0  0  0
 26 49  1  0  0  0  0
 28 50  1  0  0  0  0
 29 51  1  0  0  0  0
M  END
