
  xtb     03212210143D
 energy: -15.403219585752 gnorm: 0.000351947587 xtb: 6.4.1 (afa7bdf)
 77 84  0     0  0            999 V2000
    8.0976   -0.9730   -2.1786 C   0  0  0  0  0  0  0  0  0  0  0  0
    7.8955   -1.0392   -0.6813 C   0  0  0  0  0  0  0  0  0  0  0  0
    6.5679   -1.5677   -0.3373 N   0  0  0  0  0  0  0  0  0  0  0  0
    6.2477   -2.9234   -0.1800 C   0  0  0  0  0  0  0  0  0  0  0  0
    7.0399   -4.0724   -0.2273 C   0  0  0  0  0  0  0  0  0  0  0  0
    6.4405   -5.2922   -0.0358 C   0  0  0  0  0  0  0  0  0  0  0  0
    5.0649   -5.3951    0.2010 C   0  0  0  0  0  0  0  0  0  0  0  0
    4.2713   -4.2759    0.2469 C   0  0  0  0  0  0  0  0  0  0  0  0
    4.8639   -3.0259    0.0546 C   0  0  0  0  0  0  0  0  0  0  0  0
    4.3234   -1.6896    0.0240 C   0  0  0  0  0  0  0  0  0  0  0  0
    3.0268   -1.2024    0.1789 C   0  0  0  0  0  0  0  0  0  0  0  0
    2.7954    0.1631    0.0785 C   0  0  0  0  0  0  0  0  0  0  0  0
    1.4563    0.7547    0.2363 C   0  0  0  0  0  0  0  0  0  0  0  0
    0.3328   -0.0318    0.3909 C   0  0  0  0  0  0  0  0  0  0  0  0
   -0.8976    0.5744    0.5400 C   0  0  0  0  0  0  0  0  0  0  0  0
   -2.1330   -0.2075    0.7100 C   0  0  0  0  0  0  0  0  0  0  0  0
   -2.1357   -1.6146    0.8676 C   0  0  0  0  0  0  0  0  0  0  0  0
   -3.2986   -2.3210    1.0290 C   0  0  0  0  0  0  0  0  0  0  0  0
   -4.5137   -1.6306    1.0424 C   0  0  0  0  0  0  0  0  0  0  0  0
   -4.5298   -0.2327    0.8880 C   0  0  0  0  0  0  0  0  0  0  0  0
   -3.3402    0.4720    0.7237 C   0  0  0  0  0  0  0  0  0  0  0  0
   -5.9074    0.1879    0.9286 C   0  0  0  0  0  0  0  0  0  0  0  0
   -6.5113    1.4421    0.8165 C   0  0  0  0  0  0  0  0  0  0  0  0
   -7.8802    1.5212    0.8822 C   0  0  0  0  0  0  0  0  0  0  0  0
   -8.6596    0.3714    1.0554 C   0  0  0  0  0  0  0  0  0  0  0  0
   -8.0829   -0.8692    1.1670 C   0  0  0  0  0  0  0  0  0  0  0  0
   -6.6913   -0.9673    1.1062 C   0  0  0  0  0  0  0  0  0  0  0  0
   -5.8330   -2.0730    1.1891 N   0  0  0  0  0  0  0  0  0  0  0  0
   -6.2565   -3.4768    1.2906 C   0  0  0  0  0  0  0  0  0  0  0  0
   -6.4731   -4.0927   -0.0736 C   0  0  0  0  0  0  0  0  0  0  0  0
   -1.0021    1.8998    0.5257 N   0  0  0  0  0  0  0  0  0  0  0  0
    0.1297    2.5847    0.3681 C   0  0  0  0  0  0  0  0  0  0  0  0
    0.0142    3.9895    0.3314 N   0  0  0  0  0  0  0  0  0  0  0  0
    1.1475    4.8156   -0.1174 C   0  0  0  0  0  0  0  0  0  0  0  0
    0.9401    5.2517   -1.5719 C   0  0  0  0  0  0  0  0  0  0  0  0
   -0.4260    5.9406   -1.7464 C   0  0  0  0  0  0  0  0  0  0  0  0
   -1.5722    5.0531   -1.2269 C   0  0  0  0  0  0  0  0  0  0  0  0
   -1.3117    4.6201    0.2199 C   0  0  0  0  0  0  0  0  0  0  0  0
    1.3541    2.0806    0.2208 N   0  0  0  0  0  0  0  0  0  0  0  0
    3.8853    1.0246   -0.1782 C   0  0  0  0  0  0  0  0  0  0  0  0
    5.1644    0.5611   -0.3325 C   0  0  0  0  0  0  0  0  0  0  0  0
    5.3949   -0.8130   -0.2289 C   0  0  0  0  0  0  0  0  0  0  0  0
    7.3469   -0.3318   -2.6450 H   0  0  0  0  0  0  0  0  0  0  0  0
    7.9963   -1.9623   -2.6293 H   0  0  0  0  0  0  0  0  0  0  0  0
    9.0828   -0.5831   -2.4462 H   0  0  0  0  0  0  0  0  0  0  0  0
    8.6506   -1.6730   -0.2068 H   0  0  0  0  0  0  0  0  0  0  0  0
    8.0004   -0.0515   -0.2227 H   0  0  0  0  0  0  0  0  0  0  0  0
    8.0956   -3.9901   -0.4120 H   0  0  0  0  0  0  0  0  0  0  0  0
    7.0390   -6.1887   -0.0685 H   0  0  0  0  0  0  0  0  0  0  0  0
    4.6238   -6.3669    0.3473 H   0  0  0  0  0  0  0  0  0  0  0  0
    3.2119   -4.3450    0.4243 H   0  0  0  0  0  0  0  0  0  0  0  0
    2.2316   -1.8931    0.3807 H   0  0  0  0  0  0  0  0  0  0  0  0
    0.4124   -1.0996    0.3771 H   0  0  0  0  0  0  0  0  0  0  0  0
   -1.2020   -2.1461    0.8715 H   0  0  0  0  0  0  0  0  0  0  0  0
   -3.2905   -3.3896    1.1469 H   0  0  0  0  0  0  0  0  0  0  0  0
   -3.3553    1.5388    0.6085 H   0  0  0  0  0  0  0  0  0  0  0  0
   -5.9028    2.3195    0.6805 H   0  0  0  0  0  0  0  0  0  0  0  0
   -8.3627    2.4805    0.7982 H   0  0  0  0  0  0  0  0  0  0  0  0
   -9.7330    0.4637    1.1019 H   0  0  0  0  0  0  0  0  0  0  0  0
   -8.6787   -1.7541    1.2981 H   0  0  0  0  0  0  0  0  0  0  0  0
   -7.1685   -3.5172    1.8935 H   0  0  0  0  0  0  0  0  0  0  0  0
   -5.4969   -4.0238    1.8568 H   0  0  0  0  0  0  0  0  0  0  0  0
   -5.5566   -4.0590   -0.6661 H   0  0  0  0  0  0  0  0  0  0  0  0
   -7.2341   -3.5440   -0.6321 H   0  0  0  0  0  0  0  0  0  0  0  0
   -6.7922   -5.1360   -0.0106 H   0  0  0  0  0  0  0  0  0  0  0  0
    2.0707    4.2407    0.0078 H   0  0  0  0  0  0  0  0  0  0  0  0
    1.2251    5.6837    0.5436 H   0  0  0  0  0  0  0  0  0  0  0  0
    0.9866    4.3681   -2.2196 H   0  0  0  0  0  0  0  0  0  0  0  0
    1.7565    5.9080   -1.9026 H   0  0  0  0  0  0  0  0  0  0  0  0
   -0.5919    6.2123   -2.7985 H   0  0  0  0  0  0  0  0  0  0  0  0
   -0.4256    6.8899   -1.1963 H   0  0  0  0  0  0  0  0  0  0  0  0
   -1.6551    4.1601   -1.8578 H   0  0  0  0  0  0  0  0  0  0  0  0
   -2.5381    5.5693   -1.3114 H   0  0  0  0  0  0  0  0  0  0  0  0
   -2.0669    3.9112    0.5746 H   0  0  0  0  0  0  0  0  0  0  0  0
   -1.3442    5.4787    0.8969 H   0  0  0  0  0  0  0  0  0  0  0  0
    3.6844    2.0786   -0.2501 H   0  0  0  0  0  0  0  0  0  0  0  0
    5.9828    1.2298   -0.5293 H   0  0  0  0  0  0  0  0  0  0  0  0
  1  2  1  0  0  0  0
  2  3  1  0  0  0  0
  3  4  1  0  0  0  0
  4  5  2  0  0  0  0
  5  6  1  0  0  0  0
  6  7  2  0  0  0  0
  7  8  1  0  0  0  0
  8  9  2  0  0  0  0
  9 10  1  0  0  0  0
 10 11  2  0  0  0  0
 11 12  1  0  0  0  0
 12 13  1  0  0  0  0
 13 14  2  0  0  0  0
 14 15  1  0  0  0  0
 15 16  1  0  0  0  0
 16 17  2  0  0  0  0
 17 18  1  0  0  0  0
 18 19  2  0  0  0  0
 19 20  1  0  0  0  0
 20 21  2  0  0  0  0
 20 22  1  0  0  0  0
 22 23  2  0  0  0  0
 23 24  1  0  0  0  0
 24 25  2  0  0  0  0
 25 26  1  0  0  0  0
 26 27  2  0  0  0  0
 27 28  1  0  0  0  0
 28 29  1  0  0  0  0
 29 30  1  0  0  0  0
 15 31  2  0  0  0  0
 31 32  1  0  0  0  0
 32 33  1  0  0  0  0
 33 34  1  0  0  0  0
 34 35  1  0  0  0  0
 35 36  1  0  0  0  0
 36 37  1  0  0  0  0
 37 38  1  0  0  0  0
 32 39  2  0  0  0  0
 12 40  2  0  0  0  0
 40 41  1  0  0  0  0
 41 42  2  0  0  0  0
 42  3  1  0  0  0  0
  9  4  1  0  0  0  0
 42 10  1  0  0  0  0
 39 13  1  0  0  0  0
 21 16  1  0  0  0  0
 27 22  1  0  0  0  0
 38 33  1  0  0  0  0
 28 19  1  0  0  0  0
  1 43  1  0  0  0  0
  1 44  1  0  0  0  0
  1 45  1  0  0  0  0
  2 46  1  0  0  0  0
  2 47  1  0  0  0  0
  5 48  1  0  0  0  0
  6 49  1  0  0  0  0
  7 50  1  0  0  0  0
  8 51  1  0  0  0  0
 11 52  1  0  0  0  0
 14 53  1  0  0  0  0
 17 54  1  0  0  0  0
 18 55  1  0  0  0  0
 21 56  1  0  0  0  0
 23 57  1  0  0  0  0
 24 58  1  0  0  0  0
 25 59  1  0  0  0  0
 26 60  1  0  0  0  0
 29 61  1  0  0  0  0
 29 62  1  0  0  0  0
 30 63  1  0  0  0  0
 30 64  1  0  0  0  0
 30 65  1  0  0  0  0
 34 66  1  0  0  0  0
 34 67  1  0  0  0  0
 35 68  1  0  0  0  0
 35 69  1  0  0  0  0
 36 70  1  0  0  0  0
 36 71  1  0  0  0  0
 37 72  1  0  0  0  0
 37 73  1  0  0  0  0
 38 74  1  0  0  0  0
 38 75  1  0  0  0  0
 40 76  1  0  0  0  0
 41 77  1  0  0  0  0
M  END
