
  xtb     03212210133D
 energy: -10.811261310001 gnorm: 0.000200091836 xtb: 6.4.1 (afa7bdf)
 55 58  0     0  0            999 V2000
    0.3586    5.0332   -0.0297 C   0  0  0  0  0  0  0  0  0  0  0  0
    0.6247    4.2752    1.2536 C   0  0  0  0  0  0  0  0  0  0  0  0
   -0.0640    3.0524    1.3024 O   0  0  0  0  0  0  0  0  0  0  0  0
    0.5088    2.1623    0.4365 C   0  0  0  0  0  0  0  0  0  0  0  0
    1.4236    2.4519   -0.3131 O   0  0  0  0  0  0  0  0  0  0  0  0
   -0.0300    0.7816    0.4288 C   0  0  0  0  0  0  0  0  0  0  0  0
    0.7336   -0.4137    0.3259 C   0  0  0  0  0  0  0  0  0  0  0  0
    2.1969   -0.5149    0.3022 C   0  0  0  0  0  0  0  0  0  0  0  0
    2.8096   -1.3155   -0.6245 C   0  0  0  0  0  0  0  0  0  0  0  0
    1.8669   -2.1972   -1.7486 Cl  0  0  0  0  0  0  0  0  0  0  0  0
    4.2263   -1.4166   -0.6714 C   0  0  0  0  0  0  0  0  0  0  0  0
    4.8842   -2.1980   -1.6215 C   0  0  0  0  0  0  0  0  0  0  0  0
    6.2522   -2.2641   -1.6475 C   0  0  0  0  0  0  0  0  0  0  0  0
    6.9987   -1.5480   -0.7222 C   0  0  0  0  0  0  0  0  0  0  0  0
    6.3729   -0.7745    0.2195 C   0  0  0  0  0  0  0  0  0  0  0  0
    4.9789   -0.6915    0.2674 C   0  0  0  0  0  0  0  0  0  0  0  0
    4.3837    0.0917    1.2396 O   0  0  0  0  0  0  0  0  0  0  0  0
    3.0089    0.1818    1.2957 C   0  0  0  0  0  0  0  0  0  0  0  0
    2.4468    0.8112    2.1824 O   0  0  0  0  0  0  0  0  0  0  0  0
   -0.0680   -1.4587    0.2291 N   0  0  0  0  0  0  0  0  0  0  0  0
   -1.3123   -0.9968    0.2850 N   0  0  0  0  0  0  0  0  0  0  0  0
   -2.3803   -1.9416    0.0587 C   0  0  0  0  0  0  0  0  0  0  0  0
   -3.6789   -1.7360    0.4897 C   0  0  0  0  0  0  0  0  0  0  0  0
   -4.6398   -2.6960    0.2819 C   0  0  0  0  0  0  0  0  0  0  0  0
   -4.3196   -3.8714   -0.3627 C   0  0  0  0  0  0  0  0  0  0  0  0
   -3.0290   -4.0961   -0.8144 C   0  0  0  0  0  0  0  0  0  0  0  0
   -2.6659   -5.3686   -1.4893 C   0  0  0  0  0  0  0  0  0  0  0  0
   -2.0709   -3.1262   -0.5878 C   0  0  0  0  0  0  0  0  0  0  0  0
   -1.3530    0.3924    0.4215 C   0  0  0  0  0  0  0  0  0  0  0  0
   -2.5238    1.2950    0.4449 C   0  0  0  0  0  0  0  0  0  0  0  0
   -3.5143    1.0080    1.0926 O   0  0  0  0  0  0  0  0  0  0  0  0
   -2.4100    2.4489   -0.2844 O   0  0  0  0  0  0  0  0  0  0  0  0
   -3.5216    3.2820   -0.0600 C   0  0  0  0  0  0  0  0  0  0  0  0
   -3.5305    3.8593    1.3403 C   0  0  0  0  0  0  0  0  0  0  0  0
   -0.7081    5.2282   -0.1490 H   0  0  0  0  0  0  0  0  0  0  0  0
    0.6737    4.4349   -0.8874 H   0  0  0  0  0  0  0  0  0  0  0  0
    0.8898    5.9867   -0.0659 H   0  0  0  0  0  0  0  0  0  0  0  0
    0.3196    4.8516    2.1365 H   0  0  0  0  0  0  0  0  0  0  0  0
    1.6922    4.0362    1.3706 H   0  0  0  0  0  0  0  0  0  0  0  0
    4.2938   -2.7458   -2.3374 H   0  0  0  0  0  0  0  0  0  0  0  0
    6.7487   -2.8706   -2.3874 H   0  0  0  0  0  0  0  0  0  0  0  0
    8.0741   -1.6013   -0.7452 H   0  0  0  0  0  0  0  0  0  0  0  0
    6.9382   -0.2148    0.9443 H   0  0  0  0  0  0  0  0  0  0  0  0
   -3.9252   -0.8108    0.9732 H   0  0  0  0  0  0  0  0  0  0  0  0
   -5.6496   -2.5267    0.6235 H   0  0  0  0  0  0  0  0  0  0  0  0
   -5.0719   -4.6247   -0.5202 H   0  0  0  0  0  0  0  0  0  0  0  0
   -1.9170   -5.2000   -2.2639 H   0  0  0  0  0  0  0  0  0  0  0  0
   -2.2561   -6.0816   -0.7733 H   0  0  0  0  0  0  0  0  0  0  0  0
   -3.5351   -5.8264   -1.9626 H   0  0  0  0  0  0  0  0  0  0  0  0
   -1.0582   -3.2794   -0.9123 H   0  0  0  0  0  0  0  0  0  0  0  0
   -4.4205    2.6808   -0.2572 H   0  0  0  0  0  0  0  0  0  0  0  0
   -3.4872    4.0720   -0.8222 H   0  0  0  0  0  0  0  0  0  0  0  0
   -3.5732    3.0532    2.0738 H   0  0  0  0  0  0  0  0  0  0  0  0
   -2.6125    4.4145    1.5308 H   0  0  0  0  0  0  0  0  0  0  0  0
   -4.3791    4.5228    1.5106 H   0  0  0  0  0  0  0  0  0  0  0  0
  1  2  1  0  0  0  0
  2  3  1  0  0  0  0
  3  4  1  0  0  0  0
  4  5  2  0  0  0  0
  4  6  1  0  0  0  0
  6  7  1  0  0  0  0
  7  8  1  0  0  0  0
  8  9  2  0  0  0  0
  9 10  1  0  0  0  0
  9 11  1  0  0  0  0
 11 12  2  0  0  0  0
 12 13  1  0  0  0  0
 13 14  2  0  0  0  0
 14 15  1  0  0  0  0
 15 16  2  0  0  0  0
 16 17  1  0  0  0  0
 17 18  1  0  0  0  0
 18 19  2  0  0  0  0
  7 20  2  0  0  0  0
 20 21  1  0  0  0  0
 21 22  1  0  0  0  0
 22 23  2  0  0  0  0
 23 24  1  0  0  0  0
 24 25  2  0  0  0  0
 25 26  1  0  0  0  0
 26 27  1  0  0  0  0
 26 28  2  0  0  0  0
 21 29  1  0  0  0  0
 29 30  1  0  0  0  0
 30 31  2  0  0  0  0
 30 32  1  0  0  0  0
 32 33  1  0  0  0  0
 33 34  1  0  0  0  0
 29  6  2  0  0  0  0
 18  8  1  0  0  0  0
 28 22  1  0  0  0  0
 16 11  1  0  0  0  0
  1 35  1  0  0  0  0
  1 36  1  0  0  0  0
  1 37  1  0  0  0  0
  2 38  1  0  0  0  0
  2 39  1  0  0  0  0
 12 40  1  0  0  0  0
 13 41  1  0  0  0  0
 14 42  1  0  0  0  0
 15 43  1  0  0  0  0
 23 44  1  0  0  0  0
 24 45  1  0  0  0  0
 25 46  1  0  0  0  0
 27 47  1  0  0  0  0
 27 48  1  0  0  0  0
 27 49  1  0  0  0  0
 28 50  1  0  0  0  0
 33 51  1  0  0  0  0
 33 52  1  0  0  0  0
 34 53  1  0  0  0  0
 34 54  1  0  0  0  0
 34 55  1  0  0  0  0
M  END
