
  xtb     03212210123D
 energy: -11.686669895064 gnorm: 0.000345341062 xtb: 6.4.1 (afa7bdf)
 61 66  0     0  0            999 V2000
    5.3854    3.3411   -0.1978 N   0  0  0  0  0  0  0  0  0  0  0  0
    5.3015    2.2066    0.0137 C   0  0  0  0  0  0  0  0  0  0  0  0
    5.0358    0.5515    0.3441 S   0  0  0  0  0  0  0  0  0  0  0  0
    3.2702    0.5556    0.3044 C   0  0  0  0  0  0  0  0  0  0  0  0
    2.4912    1.6655    0.4978 C   0  0  0  0  0  0  0  0  0  0  0  0
    1.1250    1.2787    0.4228 C   0  0  0  0  0  0  0  0  0  0  0  0
   -0.0422    2.0611    0.4789 C   0  0  0  0  0  0  0  0  0  0  0  0
    0.0020    3.5211    0.6774 C   0  0  0  0  0  0  0  0  0  0  0  0
    0.9254    4.3167   -0.0094 C   0  0  0  0  0  0  0  0  0  0  0  0
    0.9532    5.6777    0.1755 C   0  0  0  0  0  0  0  0  0  0  0  0
    0.0651    6.2826    1.0415 C   0  0  0  0  0  0  0  0  0  0  0  0
   -0.8549    5.5147    1.7261 C   0  0  0  0  0  0  0  0  0  0  0  0
   -0.8893    4.1526    1.5515 C   0  0  0  0  0  0  0  0  0  0  0  0
   -1.2569    1.3801    0.2664 C   0  0  0  0  0  0  0  0  0  0  0  0
   -2.5604    1.9275    0.1569 C   0  0  0  0  0  0  0  0  0  0  0  0
   -3.4455    0.9144   -0.0906 C   0  0  0  0  0  0  0  0  0  0  0  0
   -5.1889    1.1775   -0.2423 S   0  0  0  0  0  0  0  0  0  0  0  0
   -5.2438    2.8350    0.1683 C   0  0  0  0  0  0  0  0  0  0  0  0
   -5.1663    3.9535    0.4541 N   0  0  0  0  0  0  0  0  0  0  0  0
   -2.7052   -0.3176   -0.1616 C   0  0  0  0  0  0  0  0  0  0  0  0
   -3.2380   -1.5808   -0.3869 N   0  0  0  0  0  0  0  0  0  0  0  0
   -2.4637   -2.8133   -0.2601 C   0  0  0  0  0  0  0  0  0  0  0  0
   -2.2987   -3.4644   -1.6340 C   0  0  0  0  0  0  0  0  0  0  0  0
   -3.2167   -2.9466   -2.5929 O   0  0  0  0  0  0  0  0  0  0  0  0
   -4.5345   -2.8241   -2.0827 C   0  0  0  0  0  0  0  0  0  0  0  0
   -4.5851   -1.8087   -0.9386 C   0  0  0  0  0  0  0  0  0  0  0  0
   -1.3993    0.0251    0.0572 N   0  0  0  0  0  0  0  0  0  0  0  0
   -0.1674   -0.8920    0.1564 B   0  0  0  0  0  4  0  0  0  0  0  0
   -0.2888   -1.6206    1.3326 F   0  0  0  0  0  0  0  0  0  0  0  0
   -0.0951   -1.7132   -0.9589 F   0  0  0  0  0  0  0  0  0  0  0  0
    1.1323   -0.0805    0.2231 N   0  0  0  0  0  4  0  0  0  0  0  0
    2.3996   -0.5701    0.1071 C   0  0  0  0  0  0  0  0  0  0  0  0
    2.7631   -1.8741   -0.2281 N   0  0  0  0  0  0  0  0  0  0  0  0
    2.0973   -3.0305    0.3809 C   0  0  0  0  0  0  0  0  0  0  0  0
    3.0929   -3.7952    1.2570 C   0  0  0  0  0  0  0  0  0  0  0  0
    4.3101   -3.0761    1.4014 O   0  0  0  0  0  0  0  0  0  0  0  0
    4.9696   -2.8662    0.1610 C   0  0  0  0  0  0  0  0  0  0  0  0
    4.0432   -2.2052   -0.8605 C   0  0  0  0  0  0  0  0  0  0  0  0
    2.8650    2.6578    0.6741 H   0  0  0  0  0  0  0  0  0  0  0  0
    1.5976    3.8552   -0.7097 H   0  0  0  0  0  0  0  0  0  0  0  0
    1.6707    6.2782   -0.3617 H   0  0  0  0  0  0  0  0  0  0  0  0
    0.0888    7.3519    1.1817 H   0  0  0  0  0  0  0  0  0  0  0  0
   -1.5507    5.9876    2.4015 H   0  0  0  0  0  0  0  0  0  0  0  0
   -1.5920    3.5554    2.1043 H   0  0  0  0  0  0  0  0  0  0  0  0
   -2.8202    2.9665    0.2497 H   0  0  0  0  0  0  0  0  0  0  0  0
   -2.9958   -3.4765    0.4286 H   0  0  0  0  0  0  0  0  0  0  0  0
   -1.5019   -2.5914    0.2033 H   0  0  0  0  0  0  0  0  0  0  0  0
   -1.2994   -3.2542   -2.0401 H   0  0  0  0  0  0  0  0  0  0  0  0
   -2.4165   -4.5543   -1.5989 H   0  0  0  0  0  0  0  0  0  0  0  0
   -4.8492   -3.8203   -1.7494 H   0  0  0  0  0  0  0  0  0  0  0  0
   -5.1889   -2.5415   -2.9175 H   0  0  0  0  0  0  0  0  0  0  0  0
   -5.2549   -2.1248   -0.1333 H   0  0  0  0  0  0  0  0  0  0  0  0
   -4.9601   -0.8548   -1.3153 H   0  0  0  0  0  0  0  0  0  0  0  0
    1.2713   -2.6501    0.9853 H   0  0  0  0  0  0  0  0  0  0  0  0
    1.6620   -3.6517   -0.4078 H   0  0  0  0  0  0  0  0  0  0  0  0
    3.3398   -4.7745    0.8289 H   0  0  0  0  0  0  0  0  0  0  0  0
    2.6985   -3.9755    2.2657 H   0  0  0  0  0  0  0  0  0  0  0  0
    5.3499   -3.8342   -0.1880 H   0  0  0  0  0  0  0  0  0  0  0  0
    5.8434   -2.2371    0.3760 H   0  0  0  0  0  0  0  0  0  0  0  0
    3.8396   -2.8735   -1.7031 H   0  0  0  0  0  0  0  0  0  0  0  0
    4.4808   -1.2971   -1.2855 H   0  0  0  0  0  0  0  0  0  0  0  0
  1  2  3  0  0  0  0
  2  3  1  0  0  0  0
  3  4  1  0  0  0  0
  4  5  2  0  0  0  0
  5  6  1  0  0  0  0
  6  7  2  0  0  0  0
  7  8  1  0  0  0  0
  8  9  2  0  0  0  0
  9 10  1  0  0  0  0
 10 11  2  0  0  0  0
 11 12  1  0  0  0  0
 12 13  2  0  0  0  0
  7 14  1  0  0  0  0
 14 15  2  0  0  0  0
 15 16  1  0  0  0  0
 16 17  1  0  0  0  0
 17 18  1  0  0  0  0
 18 19  3  0  0  0  0
 16 20  2  0  0  0  0
 20 21  1  0  0  0  0
 21 22  1  0  0  0  0
 22 23  1  0  0  0  0
 23 24  1  0  0  0  0
 24 25  1  0  0  0  0
 25 26  1  0  0  0  0
 20 27  1  0  0  0  0
 27 28  1  0  0  0  0
 28 29  1  0  0  0  0
 28 30  1  0  0  0  0
 28 31  1  0  0  0  0
 31 32  2  0  0  0  0
 32 33  1  0  0  0  0
 33 34  1  0  0  0  0
 34 35  1  0  0  0  0
 35 36  1  0  0  0  0
 36 37  1  0  0  0  0
 37 38  1  0  0  0  0
 32  4  1  0  0  0  0
 38 33  1  0  0  0  0
 31  6  1  0  0  0  0
 13  8  1  0  0  0  0
 27 14  1  0  0  0  0
 26 21  1  0  0  0  0
  5 39  1  0  0  0  0
  9 40  1  0  0  0  0
 10 41  1  0  0  0  0
 11 42  1  0  0  0  0
 12 43  1  0  0  0  0
 13 44  1  0  0  0  0
 15 45  1  0  0  0  0
 22 46  1  0  0  0  0
 22 47  1  0  0  0  0
 23 48  1  0  0  0  0
 23 49  1  0  0  0  0
 25 50  1  0  0  0  0
 25 51  1  0  0  0  0
 26 52  1  0  0  0  0
 26 53  1  0  0  0  0
 34 54  1  0  0  0  0
 34 55  1  0  0  0  0
 35 56  1  0  0  0  0
 35 57  1  0  0  0  0
 37 58  1  0  0  0  0
 37 59  1  0  0  0  0
 38 60  1  0  0  0  0
 38 61  1  0  0  0  0
M  CHG  1  28  -1
M  CHG  1  31   1
M  END
