
  xtb     03212210143D
 energy: -8.925854389723 gnorm: 0.000143399611 xtb: 6.4.1 (afa7bdf)
 50 52  0     0  0            999 V2000
   -8.0798    0.1216    1.0111 C   0  0  0  0  0  0  0  0  0  0  0  0
   -7.0144    0.7788    0.1577 C   0  0  0  0  0  0  0  0  0  0  0  0
   -6.0008   -0.1811   -0.3423 N   0  0  0  0  0  0  0  0  0  0  0  0
   -5.2680   -0.9770    0.7076 C   0  0  0  0  0  0  0  0  0  0  0  0
   -3.9110   -1.4703    0.2127 C   0  0  0  0  0  0  0  0  0  0  0  0
   -3.0482   -0.3365   -0.2116 N   0  0  0  0  0  0  0  0  0  0  0  0
   -1.6426   -0.3848   -0.1289 C   0  0  0  0  0  0  0  0  0  0  0  0
   -0.8801    0.7872   -0.1941 C   0  0  0  0  0  0  0  0  0  0  0  0
    0.4853    0.7376   -0.1165 C   0  0  0  0  0  0  0  0  0  0  0  0
    1.1488   -0.4787    0.0267 C   0  0  0  0  0  0  0  0  0  0  0  0
    2.5218   -0.5287    0.0984 N   0  0  0  0  0  0  0  0  0  0  0  0
    3.1956    0.5065    0.0602 N   0  0  0  0  0  0  0  0  0  0  0  0
    4.5695    0.4297    0.1221 C   0  0  0  0  0  0  0  0  0  0  0  0
    5.3536    1.5765    0.1105 C   0  0  0  0  0  0  0  0  0  0  0  0
    6.7254    1.4896    0.1693 C   0  0  0  0  0  0  0  0  0  0  0  0
    7.5604    2.7536    0.1513 C   0  0  0  0  0  0  0  0  0  0  0  0
    6.7365    3.8195    0.1373 F   0  0  0  0  0  0  0  0  0  0  0  0
    8.3297    2.7467   -0.9535 F   0  0  0  0  0  0  0  0  0  0  0  0
    8.3330    2.7772    1.2536 F   0  0  0  0  0  0  0  0  0  0  0  0
    7.3343    0.2514    0.2401 C   0  0  0  0  0  0  0  0  0  0  0  0
    6.5674   -0.8970    0.2530 C   0  0  0  0  0  0  0  0  0  0  0  0
    7.2113   -2.2646    0.3304 C   0  0  0  0  0  0  0  0  0  0  0  0
    6.2373   -3.1954    0.3072 F   0  0  0  0  0  0  0  0  0  0  0  0
    8.0301   -2.4195   -0.7267 F   0  0  0  0  0  0  0  0  0  0  0  0
    7.9112   -2.3507    1.4770 F   0  0  0  0  0  0  0  0  0  0  0  0
    5.1976   -0.8051    0.1946 C   0  0  0  0  0  0  0  0  0  0  0  0
    0.3936   -1.6486    0.0918 C   0  0  0  0  0  0  0  0  0  0  0  0
   -0.9722   -1.6050    0.0170 C   0  0  0  0  0  0  0  0  0  0  0  0
   -3.7701    0.8462   -0.7513 C   0  0  0  0  0  0  0  0  0  0  0  0
   -5.1039    0.4335   -1.3633 C   0  0  0  0  0  0  0  0  0  0  0  0
   -8.8531    0.8285    1.3173 H   0  0  0  0  0  0  0  0  0  0  0  0
   -7.6536   -0.3098    1.9171 H   0  0  0  0  0  0  0  0  0  0  0  0
   -8.5672   -0.6880    0.4666 H   0  0  0  0  0  0  0  0  0  0  0  0
   -6.4975    1.5686    0.7117 H   0  0  0  0  0  0  0  0  0  0  0  0
   -7.4757    1.2627   -0.7090 H   0  0  0  0  0  0  0  0  0  0  0  0
   -5.9066   -1.8121    1.0134 H   0  0  0  0  0  0  0  0  0  0  0  0
   -5.1342   -0.3396    1.5861 H   0  0  0  0  0  0  0  0  0  0  0  0
   -4.0346   -2.1432   -0.6399 H   0  0  0  0  0  0  0  0  0  0  0  0
   -3.3981   -2.0333    0.9977 H   0  0  0  0  0  0  0  0  0  0  0  0
   -1.3749    1.7366   -0.2820 H   0  0  0  0  0  0  0  0  0  0  0  0
    1.0758    1.6381   -0.1627 H   0  0  0  0  0  0  0  0  0  0  0  0
    4.8884    2.5450    0.0566 H   0  0  0  0  0  0  0  0  0  0  0  0
    8.4095    0.1817    0.2857 H   0  0  0  0  0  0  0  0  0  0  0  0
    4.6086   -1.7062    0.2038 H   0  0  0  0  0  0  0  0  0  0  0  0
    0.9121   -2.5879    0.1976 H   0  0  0  0  0  0  0  0  0  0  0  0
   -1.5358   -2.5192    0.0423 H   0  0  0  0  0  0  0  0  0  0  0  0
   -3.1397    1.3432   -1.4943 H   0  0  0  0  0  0  0  0  0  0  0  0
   -3.9259    1.5521    0.0684 H   0  0  0  0  0  0  0  0  0  0  0  0
   -4.9415   -0.3107   -2.1489 H   0  0  0  0  0  0  0  0  0  0  0  0
   -5.6071    1.2809   -1.8403 H   0  0  0  0  0  0  0  0  0  0  0  0
  1  2  1  0  0  0  0
  2  3  1  0  0  0  0
  3  4  1  0  0  0  0
  4  5  1  0  0  0  0
  5  6  1  0  0  0  0
  6  7  1  0  0  0  0
  7  8  2  0  0  0  0
  8  9  1  0  0  0  0
  9 10  2  0  0  0  0
 10 11  1  0  0  0  0
 11 12  2  0  0  0  0
 12 13  1  0  0  0  0
 13 14  2  0  0  0  0
 14 15  1  0  0  0  0
 15 16  1  0  0  0  0
 16 17  1  0  0  0  0
 16 18  1  0  0  0  0
 16 19  1  0  0  0  0
 15 20  2  0  0  0  0
 20 21  1  0  0  0  0
 21 22  1  0  0  0  0
 22 23  1  0  0  0  0
 22 24  1  0  0  0  0
 22 25  1  0  0  0  0
 21 26  2  0  0  0  0
 10 27  1  0  0  0  0
 27 28  2  0  0  0  0
  6 29  1  0  0  0  0
 29 30  1  0  0  0  0
 30  3  1  0  0  0  0
 28  7  1  0  0  0  0
 26 13  1  0  0  0  0
  1 31  1  0  0  0  0
  1 32  1  0  0  0  0
  1 33  1  0  0  0  0
  2 34  1  0  0  0  0
  2 35  1  0  0  0  0
  4 36  1  0  0  0  0
  4 37  1  0  0  0  0
  5 38  1  0  0  0  0
  5 39  1  0  0  0  0
  8 40  1  0  0  0  0
  9 41  1  0  0  0  0
 14 42  1  0  0  0  0
 20 43  1  0  0  0  0
 26 44  1  0  0  0  0
 27 45  1  0  0  0  0
 28 46  1  0  0  0  0
 29 47  1  0  0  0  0
 29 48  1  0  0  0  0
 30 49  1  0  0  0  0
 30 50  1  0  0  0  0
M  END
