
  xtb     03212210143D
 energy: -11.597234996934 gnorm: 0.000438110814 xtb: 6.4.1 (afa7bdf)
 65 69  0     0  0            999 V2000
   -1.5991   -3.2405    0.1645 C   0  0  0  0  0  0  0  0  0  0  0  0
   -2.8375   -2.6008   -0.3398 C   0  0  0  0  0  0  0  0  0  0  0  0
   -3.8747   -3.2697   -0.9826 C   0  0  0  0  0  0  0  0  0  0  0  0
   -4.8952   -2.3550   -1.2833 C   0  0  0  0  0  0  0  0  0  0  0  0
   -6.1935   -2.6159   -1.9294 C   0  0  0  0  0  0  0  0  0  0  0  0
   -4.4701   -1.1637   -0.8342 N   0  0  0  0  0  4  0  0  0  0  0  0
   -3.2031   -1.2292   -0.2584 C   0  0  0  0  0  0  0  0  0  0  0  0
   -2.5428   -0.1073    0.3044 C   0  0  0  0  0  0  0  0  0  0  0  0
   -1.1942   -0.2063    0.8927 C   0  0  0  0  0  0  0  0  0  0  0  0
   -0.0754   -0.5376    0.1019 C   0  0  0  0  0  0  0  0  0  0  0  0
    1.1742   -0.6207    0.6378 C   0  0  0  0  0  0  0  0  0  0  0  0
    1.3952   -0.3755    2.0152 C   0  0  0  0  0  0  0  0  0  0  0  0
    2.6069   -0.4267    2.6475 O   0  0  0  0  0  0  0  0  0  0  0  0
    3.7284   -0.6862    1.8070 C   0  0  0  0  0  0  0  0  0  0  0  0
    4.1483    0.5255    0.9892 C   0  0  0  0  0  0  0  0  0  0  0  0
    5.3485    0.2772    0.1506 N   0  0  0  0  0  0  0  0  0  0  0  0
    6.0156    1.5569   -0.2332 C   0  0  0  0  0  0  0  0  0  0  0  0
    7.1298    1.3424   -1.2730 C   0  0  0  0  0  0  0  0  0  0  0  0
    7.6064   -0.1183   -1.2676 C   0  0  0  0  0  0  0  0  0  0  0  0
    6.4577   -1.0753   -1.6521 C   0  0  0  0  0  0  0  0  0  0  0  0
    5.1254   -0.6577   -1.0014 C   0  0  0  0  0  0  0  0  0  0  0  0
    0.2668   -0.0522    2.8069 C   0  0  0  0  0  0  0  0  0  0  0  0
   -0.9792    0.0314    2.2650 C   0  0  0  0  0  0  0  0  0  0  0  0
   -3.2583    1.1168    0.2704 C   0  0  0  0  0  0  0  0  0  0  0  0
   -2.8965    2.4354    0.6603 C   0  0  0  0  0  0  0  0  0  0  0  0
   -1.6098    2.8890    1.2398 C   0  0  0  0  0  0  0  0  0  0  0  0
   -3.9825    3.2617    0.3880 C   0  0  0  0  0  0  0  0  0  0  0  0
   -5.0090    2.4975   -0.1872 C   0  0  0  0  0  0  0  0  0  0  0  0
   -6.3235    2.9525   -0.6730 C   0  0  0  0  0  0  0  0  0  0  0  0
   -4.5439    1.2401   -0.2524 N   0  0  0  0  0  0  0  0  0  0  0  0
   -5.3268    0.0993   -0.8998 B   0  0  0  0  0  4  0  0  0  0  0  0
   -5.5818    0.4148   -2.2355 F   0  0  0  0  0  0  0  0  0  0  0  0
   -6.5113   -0.1087   -0.1911 F   0  0  0  0  0  0  0  0  0  0  0  0
   -1.2984   -2.8123    1.1213 H   0  0  0  0  0  0  0  0  0  0  0  0
   -1.7464   -4.3109    0.3140 H   0  0  0  0  0  0  0  0  0  0  0  0
   -0.7782   -3.1124   -0.5417 H   0  0  0  0  0  0  0  0  0  0  0  0
   -3.9020   -4.3248   -1.1969 H   0  0  0  0  0  0  0  0  0  0  0  0
   -6.0571   -3.0532   -2.9183 H   0  0  0  0  0  0  0  0  0  0  0  0
   -6.7481   -1.6836   -2.0427 H   0  0  0  0  0  0  0  0  0  0  0  0
   -6.7963   -3.2973   -1.3292 H   0  0  0  0  0  0  0  0  0  0  0  0
   -0.2267   -0.7108   -0.9496 H   0  0  0  0  0  0  0  0  0  0  0  0
    2.0006   -0.8753    0.0023 H   0  0  0  0  0  0  0  0  0  0  0  0
    3.5091   -1.5609    1.1880 H   0  0  0  0  0  0  0  0  0  0  0  0
    4.5503   -0.9889    2.4662 H   0  0  0  0  0  0  0  0  0  0  0  0
    3.3334    0.8697    0.3492 H   0  0  0  0  0  0  0  0  0  0  0  0
    4.3634    1.3525    1.6708 H   0  0  0  0  0  0  0  0  0  0  0  0
    6.4260    1.9990    0.6799 H   0  0  0  0  0  0  0  0  0  0  0  0
    5.2551    2.2531   -0.6004 H   0  0  0  0  0  0  0  0  0  0  0  0
    6.7494    1.5853   -2.2725 H   0  0  0  0  0  0  0  0  0  0  0  0
    7.9659    2.0327   -1.1013 H   0  0  0  0  0  0  0  0  0  0  0  0
    7.9670   -0.3711   -0.2629 H   0  0  0  0  0  0  0  0  0  0  0  0
    8.4691   -0.2505   -1.9352 H   0  0  0  0  0  0  0  0  0  0  0  0
    6.3523   -1.1156   -2.7429 H   0  0  0  0  0  0  0  0  0  0  0  0
    6.7120   -2.0984   -1.3471 H   0  0  0  0  0  0  0  0  0  0  0  0
    4.5622   -1.5293   -0.6587 H   0  0  0  0  0  0  0  0  0  0  0  0
    4.4848   -0.1413   -1.7223 H   0  0  0  0  0  0  0  0  0  0  0  0
    0.4229    0.1283    3.8547 H   0  0  0  0  0  0  0  0  0  0  0  0
   -1.8268    0.2688    2.8843 H   0  0  0  0  0  0  0  0  0  0  0  0
   -0.7677    2.3717    0.7787 H   0  0  0  0  0  0  0  0  0  0  0  0
   -1.5788    2.7041    2.3140 H   0  0  0  0  0  0  0  0  0  0  0  0
   -1.4666    3.9587    1.0812 H   0  0  0  0  0  0  0  0  0  0  0  0
   -4.0233    4.3226    0.5689 H   0  0  0  0  0  0  0  0  0  0  0  0
   -6.9237    2.0964   -0.9827 H   0  0  0  0  0  0  0  0  0  0  0  0
   -6.2123    3.6151   -1.5309 H   0  0  0  0  0  0  0  0  0  0  0  0
   -6.8663    3.4850    0.1076 H   0  0  0  0  0  0  0  0  0  0  0  0
  1  2  1  0  0  0  0
  2  3  2  0  0  0  0
  3  4  1  0  0  0  0
  4  5  1  0  0  0  0
  4  6  2  0  0  0  0
  6  7  1  0  0  0  0
  7  8  2  0  0  0  0
  8  9  1  0  0  0  0
  9 10  2  0  0  0  0
 10 11  1  0  0  0  0
 11 12  2  0  0  0  0
 12 13  1  0  0  0  0
 13 14  1  0  0  0  0
 14 15  1  0  0  0  0
 15 16  1  0  0  0  0
 16 17  1  0  0  0  0
 17 18  1  0  0  0  0
 18 19  1  0  0  0  0
 19 20  1  0  0  0  0
 20 21  1  0  0  0  0
 12 22  1  0  0  0  0
 22 23  2  0  0  0  0
  8 24  1  0  0  0  0
 24 25  2  0  0  0  0
 25 26  1  0  0  0  0
 25 27  1  0  0  0  0
 27 28  2  0  0  0  0
 28 29  1  0  0  0  0
 28 30  1  0  0  0  0
 30 31  1  0  0  0  0
 31 32  1  0  0  0  0
 31 33  1  0  0  0  0
  7  2  1  0  0  0  0
 23  9  1  0  0  0  0
 30 24  1  0  0  0  0
 31  6  1  0  0  0  0
 21 16  1  0  0  0  0
  1 34  1  0  0  0  0
  1 35  1  0  0  0  0
  1 36  1  0  0  0  0
  3 37  1  0  0  0  0
  5 38  1  0  0  0  0
  5 39  1  0  0  0  0
  5 40  1  0  0  0  0
 10 41  1  0  0  0  0
 11 42  1  0  0  0  0
 14 43  1  0  0  0  0
 14 44  1  0  0  0  0
 15 45  1  0  0  0  0
 15 46  1  0  0  0  0
 17 47  1  0  0  0  0
 17 48  1  0  0  0  0
 18 49  1  0  0  0  0
 18 50  1  0  0  0  0
 19 51  1  0  0  0  0
 19 52  1  0  0  0  0
 20 53  1  0  0  0  0
 20 54  1  0  0  0  0
 21 55  1  0  0  0  0
 21 56  1  0  0  0  0
 22 57  1  0  0  0  0
 23 58  1  0  0  0  0
 26 59  1  0  0  0  0
 26 60  1  0  0  0  0
 26 61  1  0  0  0  0
 27 62  1  0  0  0  0
 29 63  1  0  0  0  0
 29 64  1  0  0  0  0
 29 65  1  0  0  0  0
M  CHG  1   6   1
M  CHG  1  31  -1
M  END
