
  xtb     03212210123D
 energy: -17.027448051169 gnorm: 0.000235128046 xtb: 6.4.1 (afa7bdf)
 81 88  0     0  0            999 V2000
    0.4407    8.5266   -0.8712 C   0  0  0  0  0  0  0  0  0  0  0  0
    1.3439    7.9930    0.2205 C   0  0  0  0  0  0  0  0  0  0  0  0
    2.0032    6.7331   -0.1768 N   0  0  0  0  0  0  0  0  0  0  0  0
    3.3686    6.8785   -0.7194 C   0  0  0  0  0  0  0  0  0  0  0  0
    4.4251    6.6273    0.3354 C   0  0  0  0  0  0  0  0  0  0  0  0
    1.3645    5.4813   -0.0674 C   0  0  0  0  0  0  0  0  0  0  0  0
    2.0273    4.2972   -0.4089 C   0  0  0  0  0  0  0  0  0  0  0  0
    1.3997    3.0810   -0.3155 C   0  0  0  0  0  0  0  0  0  0  0  0
    0.0813    2.9905    0.1246 C   0  0  0  0  0  0  0  0  0  0  0  0
   -0.5983    1.6965    0.2077 C   0  0  0  0  0  0  0  0  0  0  0  0
   -1.8642    1.7022    0.5918 N   0  0  0  0  0  0  0  0  0  0  0  0
   -2.4462    0.5136    0.6205 C   0  0  0  0  0  0  0  0  0  0  0  0
   -3.7884    0.4968    1.0080 O   0  0  0  0  0  0  0  0  0  0  0  0
   -4.5623   -0.6630    0.9151 C   0  0  0  0  0  0  0  0  0  0  0  0
   -5.8883   -0.5741    1.3476 C   0  0  0  0  0  0  0  0  0  0  0  0
   -6.7350   -1.6504    1.2755 C   0  0  0  0  0  0  0  0  0  0  0  0
   -6.2934   -2.8702    0.7660 C   0  0  0  0  0  0  0  0  0  0  0  0
   -7.1759   -4.0248    0.6664 C   0  0  0  0  0  0  0  0  0  0  0  0
   -6.7973   -5.1968    0.1772 N   0  0  0  0  0  0  0  0  0  0  0  0
   -7.8867   -6.0121    0.2392 C   0  0  0  0  0  0  0  0  0  0  0  0
   -8.0487   -7.3521   -0.1486 C   0  0  0  0  0  0  0  0  0  0  0  0
   -9.2720   -7.9444    0.0202 C   0  0  0  0  0  0  0  0  0  0  0  0
  -10.3546   -7.2381    0.5696 C   0  0  0  0  0  0  0  0  0  0  0  0
  -10.2237   -5.9303    0.9558 C   0  0  0  0  0  0  0  0  0  0  0  0
   -8.9809   -5.3087    0.7905 C   0  0  0  0  0  0  0  0  0  0  0  0
   -8.5116   -4.0442    1.0578 N   0  0  0  0  0  0  0  0  0  0  0  0
   -4.9708   -2.9682    0.3402 C   0  0  0  0  0  0  0  0  0  0  0  0
   -4.1271   -1.8911    0.4157 C   0  0  0  0  0  0  0  0  0  0  0  0
   -1.8369   -0.6128    0.3116 N   0  0  0  0  0  0  0  0  0  0  0  0
   -0.5686   -0.5145   -0.0440 C   0  0  0  0  0  0  0  0  0  0  0  0
    0.0680   -1.7138   -0.3748 O   0  0  0  0  0  0  0  0  0  0  0  0
    1.4626   -1.7743   -0.4185 C   0  0  0  0  0  0  0  0  0  0  0  0
    2.0521   -2.8521   -1.0830 C   0  0  0  0  0  0  0  0  0  0  0  0
    3.4154   -2.9851   -1.1398 C   0  0  0  0  0  0  0  0  0  0  0  0
    4.2518   -2.0521   -0.5302 C   0  0  0  0  0  0  0  0  0  0  0  0
    5.6972   -2.2186   -0.6017 C   0  0  0  0  0  0  0  0  0  0  0  0
    6.2893   -3.2098   -1.2521 N   0  0  0  0  0  0  0  0  0  0  0  0
    7.6300   -3.0330   -1.0893 C   0  0  0  0  0  0  0  0  0  0  0  0
    8.7156   -3.7896   -1.5600 C   0  0  0  0  0  0  0  0  0  0  0  0
    9.9862   -3.3889   -1.2423 C   0  0  0  0  0  0  0  0  0  0  0  0
   10.2159   -2.2451   -0.4604 C   0  0  0  0  0  0  0  0  0  0  0  0
    9.1752   -1.4896    0.0116 C   0  0  0  0  0  0  0  0  0  0  0  0
    7.8699   -1.8835   -0.3037 C   0  0  0  0  0  0  0  0  0  0  0  0
    6.6283   -1.3745   -0.0030 N   0  0  0  0  0  0  0  0  0  0  0  0
    3.6685   -0.9770    0.1383 C   0  0  0  0  0  0  0  0  0  0  0  0
    2.3053   -0.8429    0.1898 C   0  0  0  0  0  0  0  0  0  0  0  0
    0.0993    0.6211   -0.1145 N   0  0  0  0  0  0  0  0  0  0  0  0
   -0.5840    4.1639    0.4704 C   0  0  0  0  0  0  0  0  0  0  0  0
    0.0421    5.3808    0.3783 C   0  0  0  0  0  0  0  0  0  0  0  0
    1.0075    8.7326   -1.7815 H   0  0  0  0  0  0  0  0  0  0  0  0
   -0.0614    9.4515   -0.5764 H   0  0  0  0  0  0  0  0  0  0  0  0
   -0.3301    7.8009   -1.1371 H   0  0  0  0  0  0  0  0  0  0  0  0
    0.7954    7.8226    1.1506 H   0  0  0  0  0  0  0  0  0  0  0  0
    2.1182    8.7227    0.4743 H   0  0  0  0  0  0  0  0  0  0  0  0
    3.4803    6.2031   -1.5716 H   0  0  0  0  0  0  0  0  0  0  0  0
    3.4689    7.8847   -1.1365 H   0  0  0  0  0  0  0  0  0  0  0  0
    5.4379    6.7233   -0.0639 H   0  0  0  0  0  0  0  0  0  0  0  0
    4.3264    7.3331    1.1627 H   0  0  0  0  0  0  0  0  0  0  0  0
    4.3294    5.6266    0.7608 H   0  0  0  0  0  0  0  0  0  0  0  0
    3.0463    4.3367   -0.7490 H   0  0  0  0  0  0  0  0  0  0  0  0
    1.9135    2.1765   -0.5887 H   0  0  0  0  0  0  0  0  0  0  0  0
   -6.2301    0.3688    1.7357 H   0  0  0  0  0  0  0  0  0  0  0  0
   -7.7521   -1.5570    1.6107 H   0  0  0  0  0  0  0  0  0  0  0  0
   -7.2142   -7.8851   -0.5695 H   0  0  0  0  0  0  0  0  0  0  0  0
   -9.4083   -8.9715   -0.2739 H   0  0  0  0  0  0  0  0  0  0  0  0
  -11.3031   -7.7344    0.6881 H   0  0  0  0  0  0  0  0  0  0  0  0
  -11.0462   -5.3789    1.3769 H   0  0  0  0  0  0  0  0  0  0  0  0
   -9.0574   -3.2829    1.4640 H   0  0  0  0  0  0  0  0  0  0  0  0
   -4.6240   -3.9091   -0.0506 H   0  0  0  0  0  0  0  0  0  0  0  0
   -3.1113   -1.9881    0.0887 H   0  0  0  0  0  0  0  0  0  0  0  0
    1.4074   -3.5763   -1.5480 H   0  0  0  0  0  0  0  0  0  0  0  0
    3.8626   -3.8172   -1.6552 H   0  0  0  0  0  0  0  0  0  0  0  0
    8.5304   -4.6650   -2.1574 H   0  0  0  0  0  0  0  0  0  0  0  0
   10.8265   -3.9614   -1.5976 H   0  0  0  0  0  0  0  0  0  0  0  0
   11.2281   -1.9589   -0.2285 H   0  0  0  0  0  0  0  0  0  0  0  0
    9.3391   -0.6120    0.6123 H   0  0  0  0  0  0  0  0  0  0  0  0
    6.4482   -0.5465    0.5665 H   0  0  0  0  0  0  0  0  0  0  0  0
    4.2990   -0.2477    0.6141 H   0  0  0  0  0  0  0  0  0  0  0  0
    1.8633   -0.0130    0.7068 H   0  0  0  0  0  0  0  0  0  0  0  0
   -1.6035    4.0938    0.8071 H   0  0  0  0  0  0  0  0  0  0  0  0
   -0.4989    6.2702    0.6459 H   0  0  0  0  0  0  0  0  0  0  0  0
  1  2  1  0  0  0  0
  2  3  1  0  0  0  0
  3  4  1  0  0  0  0
  4  5  1  0  0  0  0
  3  6  1  0  0  0  0
  6  7  2  0  0  0  0
  7  8  1  0  0  0  0
  8  9  2  0  0  0  0
  9 10  1  0  0  0  0
 10 11  2  0  0  0  0
 11 12  1  0  0  0  0
 12 13  1  0  0  0  0
 13 14  1  0  0  0  0
 14 15  2  0  0  0  0
 15 16  1  0  0  0  0
 16 17  2  0  0  0  0
 17 18  1  0  0  0  0
 18 19  2  0  0  0  0
 19 20  1  0  0  0  0
 20 21  2  0  0  0  0
 21 22  1  0  0  0  0
 22 23  2  0  0  0  0
 23 24  1  0  0  0  0
 24 25  2  0  0  0  0
 25 26  1  0  0  0  0
 17 27  1  0  0  0  0
 27 28  2  0  0  0  0
 12 29  2  0  0  0  0
 29 30  1  0  0  0  0
 30 31  1  0  0  0  0
 31 32  1  0  0  0  0
 32 33  2  0  0  0  0
 33 34  1  0  0  0  0
 34 35  2  0  0  0  0
 35 36  1  0  0  0  0
 36 37  2  0  0  0  0
 37 38  1  0  0  0  0
 38 39  2  0  0  0  0
 39 40  1  0  0  0  0
 40 41  2  0  0  0  0
 41 42  1  0  0  0  0
 42 43  2  0  0  0  0
 43 44  1  0  0  0  0
 35 45  1  0  0  0  0
 45 46  2  0  0  0  0
 30 47  2  0  0  0  0
  9 48  1  0  0  0  0
 48 49  2  0  0  0  0
 49  6  1  0  0  0  0
 47 10  1  0  0  0  0
 28 14  1  0  0  0  0
 46 32  1  0  0  0  0
 26 18  1  0  0  0  0
 44 36  1  0  0  0  0
 25 20  1  0  0  0  0
 43 38  1  0  0  0  0
  1 50  1  0  0  0  0
  1 51  1  0  0  0  0
  1 52  1  0  0  0  0
  2 53  1  0  0  0  0
  2 54  1  0  0  0  0
  4 55  1  0  0  0  0
  4 56  1  0  0  0  0
  5 57  1  0  0  0  0
  5 58  1  0  0  0  0
  5 59  1  0  0  0  0
  7 60  1  0  0  0  0
  8 61  1  0  0  0  0
 15 62  1  0  0  0  0
 16 63  1  0  0  0  0
 21 64  1  0  0  0  0
 22 65  1  0  0  0  0
 23 66  1  0  0  0  0
 24 67  1  0  0  0  0
 26 68  1  0  0  0  0
 27 69  1  0  0  0  0
 28 70  1  0  0  0  0
 33 71  1  0  0  0  0
 34 72  1  0  0  0  0
 39 73  1  0  0  0  0
 40 74  1  0  0  0  0
 41 75  1  0  0  0  0
 42 76  1  0  0  0  0
 44 77  1  0  0  0  0
 45 78  1  0  0  0  0
 46 79  1  0  0  0  0
 48 80  1  0  0  0  0
 49 81  1  0  0  0  0
M  END
