
  xtb     03212210123D
 energy: -4.743851732954 gnorm: 0.000281639257 xtb: 6.4.1 (afa7bdf)
 24 25  0     0  0            999 V2000
    5.4234    0.0216   -0.0553 C   0  0  0  0  0  0  0  0  0  0  0  0
    4.1980    0.5156   -0.4854 O   0  0  0  0  0  0  0  0  0  0  0  0
    3.1865   -0.1716    0.1234 C   0  0  0  0  0  0  0  0  0  0  0  0
    3.3822   -1.0742    0.9166 O   0  0  0  0  0  0  0  0  0  0  0  0
    1.8195    0.2276   -0.2212 C   0  0  0  0  0  0  0  0  0  0  0  0
    1.4999    1.2034   -1.0791 N   0  0  0  0  0  0  0  0  0  0  0  0
    0.1750    1.3052   -1.1607 O   0  0  0  0  0  0  0  0  0  0  0  0
   -0.3934    0.3633   -0.3277 C   0  0  0  0  0  0  0  0  0  0  0  0
   -1.8233    0.1720   -0.1493 C   0  0  0  0  0  0  0  0  0  0  0  0
   -2.7098    0.9819   -0.8513 C   0  0  0  0  0  0  0  0  0  0  0  0
   -4.0684    0.8260   -0.7039 C   0  0  0  0  0  0  0  0  0  0  0  0
   -4.5648   -0.1409    0.1463 C   0  0  0  0  0  0  0  0  0  0  0  0
   -3.6984   -0.9524    0.8495 C   0  0  0  0  0  0  0  0  0  0  0  0
   -2.3404   -0.7983    0.7040 C   0  0  0  0  0  0  0  0  0  0  0  0
    0.6421   -0.3279    0.2748 C   0  0  0  0  0  0  0  0  0  0  0  0
    0.5074   -1.6246    1.4268 Cl  0  0  0  0  0  0  0  0  0  0  0  0
    5.4834    0.1285    1.0307 H   0  0  0  0  0  0  0  0  0  0  0  0
    5.4890   -1.0357   -0.3241 H   0  0  0  0  0  0  0  0  0  0  0  0
    6.2239    0.5864   -0.5376 H   0  0  0  0  0  0  0  0  0  0  0  0
   -2.3083    1.7318   -1.5107 H   0  0  0  0  0  0  0  0  0  0  0  0
   -4.7453    1.4597   -1.2529 H   0  0  0  0  0  0  0  0  0  0  0  0
   -5.6303   -0.2624    0.2611 H   0  0  0  0  0  0  0  0  0  0  0  0
   -4.0865   -1.7075    1.5133 H   0  0  0  0  0  0  0  0  0  0  0  0
   -1.6616   -1.4271    1.2493 H   0  0  0  0  0  0  0  0  0  0  0  0
  1  2  1  0  0  0  0
  2  3  1  0  0  0  0
  3  4  2  0  0  0  0
  3  5  1  0  0  0  0
  5  6  2  0  0  0  0
  6  7  1  0  0  0  0
  7  8  1  0  0  0  0
  8  9  1  0  0  0  0
  9 10  2  0  0  0  0
 10 11  1  0  0  0  0
 11 12  2  0  0  0  0
 12 13  1  0  0  0  0
 13 14  2  0  0  0  0
  8 15  2  0  0  0  0
 15 16  1  0  0  0  0
 15  5  1  0  0  0  0
 14  9  1  0  0  0  0
  1 17  1  0  0  0  0
  1 18  1  0  0  0  0
  1 19  1  0  0  0  0
 10 20  1  0  0  0  0
 11 21  1  0  0  0  0
 12 22  1  0  0  0  0
 13 23  1  0  0  0  0
 14 24  1  0  0  0  0
M  END
