
  xtb     03212210133D
 energy: -11.034075193279 gnorm: 0.000338524597 xtb: 6.4.1 (afa7bdf)
 60 63  0     0  0            999 V2000
    9.4346   -0.1341   -0.4553 C   0  0  0  0  0  0  0  0  0  0  0  0
    8.2853    0.7308   -0.7213 N   0  0  0  0  0  0  0  0  0  0  0  0
    8.5614    2.0218   -1.3514 C   0  0  0  0  0  0  0  0  0  0  0  0
    6.9781    0.3386   -0.3904 C   0  0  0  0  0  0  0  0  0  0  0  0
    5.8831    1.1732   -0.6470 C   0  0  0  0  0  0  0  0  0  0  0  0
    4.6062    0.7929   -0.3235 C   0  0  0  0  0  0  0  0  0  0  0  0
    4.3530   -0.4476    0.2760 C   0  0  0  0  0  0  0  0  0  0  0  0
    3.0241   -0.8844    0.6320 C   0  0  0  0  0  0  0  0  0  0  0  0
    1.8884   -0.1771    0.4555 C   0  0  0  0  0  0  0  0  0  0  0  0
    0.6099   -0.6696    0.8318 C   0  0  0  0  0  0  0  0  0  0  0  0
   -0.5379    0.0163    0.6769 C   0  0  0  0  0  0  0  0  0  0  0  0
   -1.7938   -0.5341    1.0762 C   0  0  0  0  0  0  0  0  0  0  0  0
   -1.9202   -1.7203    1.6015 N   0  0  0  0  0  0  0  0  0  0  0  0
   -3.2740   -1.9949    1.8902 C   0  0  0  0  0  0  0  0  0  0  0  0
   -3.6653   -3.3859    1.4598 C   0  0  0  0  0  0  0  0  0  0  0  0
   -3.2663   -4.3587    2.0631 O   0  0  0  0  0  0  0  0  0  0  0  0
   -4.4888   -3.4761    0.3692 N   0  0  0  0  0  0  0  0  0  0  0  0
   -5.0106   -2.3877   -0.3239 C   0  0  0  0  0  0  0  0  0  0  0  0
   -5.7376   -2.6568   -1.4688 N   0  0  0  0  0  0  0  0  0  0  0  0
   -4.8503   -1.1601    0.0520 N   0  0  0  0  0  0  0  0  0  0  0  0
   -4.1167   -0.8587    1.2205 C   0  0  0  0  0  0  0  0  0  0  0  0
   -3.0430    0.1023    0.9337 N   0  0  0  0  0  0  0  0  0  0  0  0
   -3.2880    1.3254    0.1484 C   0  0  0  0  0  0  0  0  0  0  0  0
   -3.4362    1.0208   -1.3528 C   0  0  0  0  0  0  0  0  0  0  0  0
   -4.5633    1.9576   -1.8083 C   0  0  0  0  0  0  0  0  0  0  0  0
   -4.0612    3.1562   -2.3706 O   0  0  0  0  0  0  0  0  0  0  0  0
   -5.3576    2.2480   -0.5054 C   0  0  0  0  0  0  0  0  0  0  0  0
   -6.6070    1.3971   -0.3176 C   0  0  0  0  0  0  0  0  0  0  0  0
   -7.1539    1.6294    0.9527 O   0  0  0  0  0  0  0  0  0  0  0  0
   -4.4675    2.0320    0.6006 O   0  0  0  0  0  0  0  0  0  0  0  0
    5.4472   -1.2835    0.5322 C   0  0  0  0  0  0  0  0  0  0  0  0
    6.7229   -0.9010    0.2087 C   0  0  0  0  0  0  0  0  0  0  0  0
   10.3620    0.3321   -0.7803 H   0  0  0  0  0  0  0  0  0  0  0  0
    9.5112   -0.3344    0.6115 H   0  0  0  0  0  0  0  0  0  0  0  0
    9.3234   -1.0760   -0.9887 H   0  0  0  0  0  0  0  0  0  0  0  0
    8.0426    2.0890   -2.3055 H   0  0  0  0  0  0  0  0  0  0  0  0
    9.6258    2.1512   -1.5343 H   0  0  0  0  0  0  0  0  0  0  0  0
    8.2274    2.8309   -0.7050 H   0  0  0  0  0  0  0  0  0  0  0  0
    6.0497    2.1316   -1.1070 H   0  0  0  0  0  0  0  0  0  0  0  0
    3.7888    1.4577   -0.5348 H   0  0  0  0  0  0  0  0  0  0  0  0
    2.9405   -1.8599    1.0786 H   0  0  0  0  0  0  0  0  0  0  0  0
    1.9333    0.8023    0.0164 H   0  0  0  0  0  0  0  0  0  0  0  0
    0.5523   -1.6515    1.2686 H   0  0  0  0  0  0  0  0  0  0  0  0
   -0.5137    0.9975    0.2420 H   0  0  0  0  0  0  0  0  0  0  0  0
   -3.3769   -1.9429    2.9866 H   0  0  0  0  0  0  0  0  0  0  0  0
   -4.7439   -4.4056    0.0658 H   0  0  0  0  0  0  0  0  0  0  0  0
   -5.9959   -1.9133   -2.0982 H   0  0  0  0  0  0  0  0  0  0  0  0
   -5.7091   -3.5579   -1.9213 H   0  0  0  0  0  0  0  0  0  0  0  0
   -4.8091   -0.4027    1.9428 H   0  0  0  0  0  0  0  0  0  0  0  0
   -2.4552    2.0178    0.3258 H   0  0  0  0  0  0  0  0  0  0  0  0
   -2.5150    1.2131   -1.9101 H   0  0  0  0  0  0  0  0  0  0  0  0
   -3.6986   -0.0315   -1.4913 H   0  0  0  0  0  0  0  0  0  0  0  0
   -5.2079    1.4873   -2.5652 H   0  0  0  0  0  0  0  0  0  0  0  0
   -3.5335    3.6324   -1.6943 H   0  0  0  0  0  0  0  0  0  0  0  0
   -5.6301    3.3120   -0.4726 H   0  0  0  0  0  0  0  0  0  0  0  0
   -7.3706    1.6141   -1.0734 H   0  0  0  0  0  0  0  0  0  0  0  0
   -6.3590    0.3321   -0.3921 H   0  0  0  0  0  0  0  0  0  0  0  0
   -6.4116    1.6669    1.5991 H   0  0  0  0  0  0  0  0  0  0  0  0
    5.2742   -2.2408    0.9922 H   0  0  0  0  0  0  0  0  0  0  0  0
    7.5443   -1.5637    0.4182 H   0  0  0  0  0  0  0  0  0  0  0  0
  1  2  1  0  0  0  0
  2  3  1  0  0  0  0
  2  4  1  0  0  0  0
  4  5  2  0  0  0  0
  5  6  1  0  0  0  0
  6  7  2  0  0  0  0
  7  8  1  0  0  0  0
  8  9  2  0  0  0  0
  9 10  1  0  0  0  0
 10 11  2  0  0  0  0
 11 12  1  0  0  0  0
 12 13  2  0  0  0  0
 13 14  1  0  0  0  0
 14 15  1  0  0  0  0
 15 16  2  0  0  0  0
 15 17  1  0  0  0  0
 17 18  1  0  0  0  0
 18 19  1  0  0  0  0
 18 20  2  0  0  0  0
 20 21  1  0  0  0  0
 21 22  1  0  0  0  0
 22 23  1  0  0  0  0
 23 24  1  0  0  0  0
 24 25  1  0  0  0  0
 25 26  1  0  0  0  0
 25 27  1  0  0  0  0
 27 28  1  0  0  0  0
 28 29  1  0  0  0  0
 27 30  1  0  0  0  0
  7 31  1  0  0  0  0
 31 32  2  0  0  0  0
 32  4  1  0  0  0  0
 22 12  1  0  0  0  0
 30 23  1  0  0  0  0
 21 14  1  0  0  0  0
  1 33  1  0  0  0  0
  1 34  1  0  0  0  0
  1 35  1  0  0  0  0
  3 36  1  0  0  0  0
  3 37  1  0  0  0  0
  3 38  1  0  0  0  0
  5 39  1  0  0  0  0
  6 40  1  0  0  0  0
  8 41  1  0  0  0  0
  9 42  1  0  0  0  0
 10 43  1  0  0  0  0
 11 44  1  0  0  0  0
 14 45  1  0  0  0  0
 17 46  1  0  0  0  0
 19 47  1  0  0  0  0
 19 48  1  0  0  0  0
 21 49  1  0  0  0  0
 23 50  1  0  0  0  0
 24 51  1  0  0  0  0
 24 52  1  0  0  0  0
 25 53  1  0  0  0  0
 26 54  1  0  0  0  0
 27 55  1  0  0  0  0
 28 56  1  0  0  0  0
 28 57  1  0  0  0  0
 29 58  1  0  0  0  0
 31 59  1  0  0  0  0
 32 60  1  0  0  0  0
M  END
