
  xtb     03212210123D
 energy: -10.675792926171 gnorm: 0.000260307894 xtb: 6.4.1 (afa7bdf)
 48 52  0     0  0            999 V2000
    0.0552   -1.7439    3.3385 N   0  0  0  0  0  0  0  0  0  0  0  0
    0.6189   -1.1124    2.5423 C   0  0  0  0  0  0  0  0  0  0  0  0
    1.2207   -0.3604    1.5308 C   0  0  0  0  0  0  0  0  0  0  0  0
    0.5371   -0.0122    0.4105 C   0  0  0  0  0  0  0  0  0  0  0  0
   -0.8336   -0.3280    0.1099 C   0  0  0  0  0  0  0  0  0  0  0  0
   -1.6953   -1.1004    0.8374 C   0  0  0  0  0  0  0  0  0  0  0  0
   -2.8503   -1.1832    0.0944 N   0  0  0  0  0  0  0  0  0  0  0  0
   -4.0401   -1.9042    0.4673 C   0  0  0  0  0  0  0  0  0  0  0  0
   -5.2103   -1.6886   -0.2420 C   0  0  0  0  0  0  0  0  0  0  0  0
   -6.3659   -2.3613    0.0871 C   0  0  0  0  0  0  0  0  0  0  0  0
   -6.3610   -3.2617    1.1329 C   0  0  0  0  0  0  0  0  0  0  0  0
   -5.2011   -3.4883    1.8460 C   0  0  0  0  0  0  0  0  0  0  0  0
   -4.0465   -2.8140    1.5154 C   0  0  0  0  0  0  0  0  0  0  0  0
   -2.7678   -0.5048   -1.0517 N   0  0  0  0  0  0  0  0  0  0  0  0
   -1.5664    0.0447   -1.0694 C   0  0  0  0  0  0  0  0  0  0  0  0
   -1.0804    0.8896   -2.1654 C   0  0  0  0  0  0  0  0  0  0  0  0
   -1.5144    0.6437   -3.4667 C   0  0  0  0  0  0  0  0  0  0  0  0
   -1.0635    1.4112   -4.5123 C   0  0  0  0  0  0  0  0  0  0  0  0
   -0.1783    2.4473   -4.2848 C   0  0  0  0  0  0  0  0  0  0  0  0
    0.3061    3.2545   -5.3955 N   0  0  0  0  0  4  0  0  0  0  0  0
    1.1080    4.1673   -5.1567 O   0  0  0  0  0  0  0  0  0  0  0  0
   -0.1015    2.9962   -6.5357 O   0  0  0  0  0  1  0  0  0  0  0  0
    0.2408    2.7179   -2.9964 C   0  0  0  0  0  0  0  0  0  0  0  0
   -0.2056    1.9549   -1.9458 C   0  0  0  0  0  0  0  0  0  0  0  0
    2.5932    0.0499    1.6725 C   0  0  0  0  0  0  0  0  0  0  0  0
    3.3536   -0.2832    2.6760 N   0  0  0  0  0  0  0  0  0  0  0  0
    4.6263    0.2393    2.5582 C   0  0  0  0  0  0  0  0  0  0  0  0
    5.6685    0.0521    3.4759 C   0  0  0  0  0  0  0  0  0  0  0  0
    6.8895    0.6278    3.2364 C   0  0  0  0  0  0  0  0  0  0  0  0
    7.1035    1.3947    2.0929 C   0  0  0  0  0  0  0  0  0  0  0  0
    6.0942    1.5896    1.1818 C   0  0  0  0  0  0  0  0  0  0  0  0
    4.8557    1.0122    1.4141 C   0  0  0  0  0  0  0  0  0  0  0  0
    3.3997    1.0708    0.4751 S   0  0  0  0  0  0  0  0  0  0  0  0
    1.0839    0.5260   -0.3420 H   0  0  0  0  0  0  0  0  0  0  0  0
   -1.5121   -1.5681    1.7865 H   0  0  0  0  0  0  0  0  0  0  0  0
   -5.1950   -0.9838   -1.0561 H   0  0  0  0  0  0  0  0  0  0  0  0
   -7.2704   -2.1850   -0.4701 H   0  0  0  0  0  0  0  0  0  0  0  0
   -7.2643   -3.7897    1.3928 H   0  0  0  0  0  0  0  0  0  0  0  0
   -5.1983   -4.1925    2.6608 H   0  0  0  0  0  0  0  0  0  0  0  0
   -3.1400   -2.9942    2.0673 H   0  0  0  0  0  0  0  0  0  0  0  0
   -2.2045   -0.1636   -3.6386 H   0  0  0  0  0  0  0  0  0  0  0  0
   -1.3883    1.2206   -5.5226 H   0  0  0  0  0  0  0  0  0  0  0  0
    0.9172    3.5422   -2.8360 H   0  0  0  0  0  0  0  0  0  0  0  0
    0.0825    2.2078   -0.9414 H   0  0  0  0  0  0  0  0  0  0  0  0
    5.4900   -0.5424    4.3545 H   0  0  0  0  0  0  0  0  0  0  0  0
    7.6931    0.4861    3.9395 H   0  0  0  0  0  0  0  0  0  0  0  0
    8.0705    1.8394    1.9226 H   0  0  0  0  0  0  0  0  0  0  0  0
    6.2467    2.1803    0.2957 H   0  0  0  0  0  0  0  0  0  0  0  0
  1  2  3  0  0  0  0
  2  3  1  0  0  0  0
  3  4  2  0  0  0  0
  4  5  1  0  0  0  0
  5  6  2  0  0  0  0
  6  7  1  0  0  0  0
  7  8  1  0  0  0  0
  8  9  2  0  0  0  0
  9 10  1  0  0  0  0
 10 11  2  0  0  0  0
 11 12  1  0  0  0  0
 12 13  2  0  0  0  0
  7 14  1  0  0  0  0
 14 15  2  0  0  0  0
 15 16  1  0  0  0  0
 16 17  2  0  0  0  0
 17 18  1  0  0  0  0
 18 19  2  0  0  0  0
 19 20  1  0  0  0  0
 20 21  2  0  0  0  0
 20 22  1  0  0  0  0
 19 23  1  0  0  0  0
 23 24  2  0  0  0  0
  3 25  1  0  0  0  0
 25 26  2  0  0  0  0
 26 27  1  0  0  0  0
 27 28  2  0  0  0  0
 28 29  1  0  0  0  0
 29 30  2  0  0  0  0
 30 31  1  0  0  0  0
 31 32  2  0  0  0  0
 32 33  1  0  0  0  0
 15  5  1  0  0  0  0
 24 16  1  0  0  0  0
 33 25  1  0  0  0  0
 13  8  1  0  0  0  0
 32 27  1  0  0  0  0
  4 34  1  0  0  0  0
  6 35  1  0  0  0  0
  9 36  1  0  0  0  0
 10 37  1  0  0  0  0
 11 38  1  0  0  0  0
 12 39  1  0  0  0  0
 13 40  1  0  0  0  0
 17 41  1  0  0  0  0
 18 42  1  0  0  0  0
 23 43  1  0  0  0  0
 24 44  1  0  0  0  0
 28 45  1  0  0  0  0
 29 46  1  0  0  0  0
 30 47  1  0  0  0  0
 31 48  1  0  0  0  0
M  CHG  1  20   1
M  CHG  1  22  -1
M  END
