
  xtb     03212210133D
 energy: -7.916695292318 gnorm: 0.000310448038 xtb: 6.4.1 (afa7bdf)
 39 43  0     0  0            999 V2000
   -2.8798    1.0665   -1.8408 C   0  0  0  0  0  0  0  0  0  0  0  0
   -2.6876    1.0651   -0.3257 C   0  0  0  0  0  0  0  0  0  0  0  0
   -3.8357    2.2645    0.3804 S   0  0  0  0  0  0  0  0  0  0  0  0
   -2.5791    3.4960    0.5805 C   0  0  0  0  0  0  0  0  0  0  0  0
   -2.7825    4.6648    0.8299 O   0  0  0  0  0  0  0  0  0  0  0  0
   -1.2792    2.8885    0.4267 C   0  0  0  0  0  0  0  0  0  0  0  0
   -1.3064    1.5989    0.0246 C   0  0  0  0  0  0  0  0  0  0  0  0
   -0.1649    0.7124   -0.0500 C   0  0  0  0  0  0  0  0  0  0  0  0
    1.1481    0.9974   -0.0240 N   0  0  0  0  0  0  0  0  0  0  0  0
    1.7822   -0.1682   -0.1520 C   0  0  0  0  0  0  0  0  0  0  0  0
    3.2346   -0.2912   -0.1690 C   0  0  0  0  0  0  0  0  0  0  0  0
    4.0239    0.8485   -0.0469 C   0  0  0  0  0  0  0  0  0  0  0  0
    5.3970    0.7598   -0.0585 C   0  0  0  0  0  0  0  0  0  0  0  0
    6.0056   -0.4720   -0.1925 C   0  0  0  0  0  0  0  0  0  0  0  0
    5.2385   -1.6134   -0.3151 C   0  0  0  0  0  0  0  0  0  0  0  0
    3.8648   -1.5254   -0.3038 C   0  0  0  0  0  0  0  0  0  0  0  0
    0.8903   -1.2237   -0.2585 N   0  0  0  0  0  0  0  0  0  0  0  0
   -0.3534   -0.6762   -0.1792 C   0  0  0  0  0  0  0  0  0  0  0  0
   -1.6748   -1.2561   -0.1747 C   0  0  0  0  0  0  0  0  0  0  0  0
   -2.0001   -2.5058   -0.5755 C   0  0  0  0  0  0  0  0  0  0  0  0
   -3.4181   -2.7675   -0.6343 C   0  0  0  0  0  0  0  0  0  0  0  0
   -3.9228   -3.8455   -0.8652 O   0  0  0  0  0  0  0  0  0  0  0  0
   -4.3110   -1.2657   -0.3479 S   0  0  0  0  0  0  0  0  0  0  0  0
   -2.8529   -0.3989    0.2665 C   0  0  0  0  0  0  0  0  0  0  0  0
   -2.9332   -0.3649    1.7913 C   0  0  0  0  0  0  0  0  0  0  0  0
   -2.7323    2.0684   -2.2440 H   0  0  0  0  0  0  0  0  0  0  0  0
   -3.8871    0.7422   -2.1011 H   0  0  0  0  0  0  0  0  0  0  0  0
   -2.1688    0.3965   -2.3240 H   0  0  0  0  0  0  0  0  0  0  0  0
   -0.3732    3.4071    0.6822 H   0  0  0  0  0  0  0  0  0  0  0  0
    3.5368    1.8035    0.0571 H   0  0  0  0  0  0  0  0  0  0  0  0
    5.9956    1.6499    0.0370 H   0  0  0  0  0  0  0  0  0  0  0  0
    7.0812   -0.5426   -0.2014 H   0  0  0  0  0  0  0  0  0  0  0  0
    5.7157   -2.5732   -0.4196 H   0  0  0  0  0  0  0  0  0  0  0  0
    3.2674   -2.4151   -0.3998 H   0  0  0  0  0  0  0  0  0  0  0  0
    1.1035   -2.2184   -0.3398 H   0  0  0  0  0  0  0  0  0  0  0  0
   -1.2772   -3.2324   -0.8977 H   0  0  0  0  0  0  0  0  0  0  0  0
   -2.0457    0.1030    2.2174 H   0  0  0  0  0  0  0  0  0  0  0  0
   -3.8071    0.1982    2.1181 H   0  0  0  0  0  0  0  0  0  0  0  0
   -3.0123   -1.3752    2.1929 H   0  0  0  0  0  0  0  0  0  0  0  0
  2  1  1  0  0  0  0
  2  3  1  0  0  0  0
  3  4  1  0  0  0  0
  4  5  2  0  0  0  0
  4  6  1  0  0  0  0
  6  7  2  0  0  0  0
  7  8  1  0  0  0  0
  8  9  1  0  0  0  0
  9 10  2  0  0  0  0
 10 11  1  0  0  0  0
 11 12  2  0  0  0  0
 12 13  1  0  0  0  0
 13 14  2  0  0  0  0
 14 15  1  0  0  0  0
 15 16  2  0  0  0  0
 10 17  1  0  0  0  0
 17 18  1  0  0  0  0
 18 19  1  0  0  0  0
 19 20  2  0  0  0  0
 20 21  1  0  0  0  0
 21 22  2  0  0  0  0
 21 23  1  0  0  0  0
 23 24  1  0  0  0  0
 24 25  1  0  0  0  0
  7  2  1  0  0  0  0
 18  8  2  0  0  0  0
 24 19  1  0  0  0  0
 24  2  1  0  0  0  0
 16 11  1  0  0  0  0
  1 26  1  0  0  0  0
  1 27  1  0  0  0  0
  1 28  1  0  0  0  0
  6 29  1  0  0  0  0
 12 30  1  0  0  0  0
 13 31  1  0  0  0  0
 14 32  1  0  0  0  0
 15 33  1  0  0  0  0
 16 34  1  0  0  0  0
 17 35  1  0  0  0  0
 20 36  1  0  0  0  0
 25 37  1  0  0  0  0
 25 38  1  0  0  0  0
 25 39  1  0  0  0  0
M  END
