
  xtb     03212210143D
 energy: -8.450077075139 gnorm: 0.000391569033 xtb: 6.4.1 (afa7bdf)
 46 49  0     0  0            999 V2000
    5.7135   -3.3495   -0.4554 F   0  0  0  0  0  0  0  0  0  0  0  0
    6.4277   -2.2175   -0.3063 C   0  0  0  0  0  0  0  0  0  0  0  0
    7.1100   -1.9472   -1.4341 F   0  0  0  0  0  0  0  0  0  0  0  0
    7.2753   -2.3351    0.7322 F   0  0  0  0  0  0  0  0  0  0  0  0
    5.4757   -1.0726   -0.0304 C   0  0  0  0  0  0  0  0  0  0  0  0
    4.1181   -1.2810   -0.1127 C   0  0  0  0  0  0  0  0  0  0  0  0
    3.2260   -0.2434    0.1249 C   0  0  0  0  0  0  0  0  0  0  0  0
    1.8648   -0.4407    0.0408 N   0  0  0  0  0  0  0  0  0  0  0  0
    1.0942    0.4989    0.2667 N   0  0  0  0  0  0  0  0  0  0  0  0
   -0.2688    0.3302    0.1763 C   0  0  0  0  0  0  0  0  0  0  0  0
   -1.1307    1.3899    0.4410 C   0  0  0  0  0  0  0  0  0  0  0  0
   -2.4955    1.2436    0.3540 C   0  0  0  0  0  0  0  0  0  0  0  0
   -3.0360   -0.0038   -0.0170 C   0  0  0  0  0  0  0  0  0  0  0  0
   -2.1702   -1.0822   -0.2867 C   0  0  0  0  0  0  0  0  0  0  0  0
   -0.8112   -0.8980   -0.1840 C   0  0  0  0  0  0  0  0  0  0  0  0
   -2.7120   -2.4258   -0.6863 C   0  0  0  0  0  0  0  0  0  0  0  0
   -4.1102   -2.3375   -1.3140 C   0  0  0  0  0  0  0  0  0  0  0  0
   -5.0376   -1.4694   -0.4662 C   0  0  0  0  0  0  0  0  0  0  0  0
   -4.4249   -0.1706   -0.1184 N   0  0  0  0  0  0  0  0  0  0  0  0
   -5.3674    0.9438    0.1115 C   0  0  0  0  0  0  0  0  0  0  0  0
   -4.8036    1.9846    1.0763 C   0  0  0  0  0  0  0  0  0  0  0  0
   -3.3899    2.4128    0.6578 C   0  0  0  0  0  0  0  0  0  0  0  0
    3.7313    1.0073    0.4468 C   0  0  0  0  0  0  0  0  0  0  0  0
    5.0863    1.2200    0.5307 C   0  0  0  0  0  0  0  0  0  0  0  0
    5.5917    2.6005    0.8878 C   0  0  0  0  0  0  0  0  0  0  0  0
    6.2642    2.5284    2.0510 F   0  0  0  0  0  0  0  0  0  0  0  0
    6.4046    3.0323   -0.0936 F   0  0  0  0  0  0  0  0  0  0  0  0
    4.5309    3.4212    1.0124 F   0  0  0  0  0  0  0  0  0  0  0  0
    5.9622    0.1795    0.2918 C   0  0  0  0  0  0  0  0  0  0  0  0
    3.7502   -2.2604   -0.3611 H   0  0  0  0  0  0  0  0  0  0  0  0
   -0.7063    2.3401    0.7171 H   0  0  0  0  0  0  0  0  0  0  0  0
   -0.1384   -1.7139   -0.3844 H   0  0  0  0  0  0  0  0  0  0  0  0
   -2.7423   -3.0705    0.1994 H   0  0  0  0  0  0  0  0  0  0  0  0
   -2.0113   -2.9065   -1.3799 H   0  0  0  0  0  0  0  0  0  0  0  0
   -4.5378   -3.3402   -1.4502 H   0  0  0  0  0  0  0  0  0  0  0  0
   -4.0314   -1.9087   -2.3201 H   0  0  0  0  0  0  0  0  0  0  0  0
   -5.2908   -1.9791    0.4679 H   0  0  0  0  0  0  0  0  0  0  0  0
   -5.9825   -1.2810   -0.9863 H   0  0  0  0  0  0  0  0  0  0  0  0
   -5.5863    1.4002   -0.8582 H   0  0  0  0  0  0  0  0  0  0  0  0
   -6.3110    0.5326    0.4846 H   0  0  0  0  0  0  0  0  0  0  0  0
   -5.4704    2.8553    1.1383 H   0  0  0  0  0  0  0  0  0  0  0  0
   -4.7719    1.5616    2.0874 H   0  0  0  0  0  0  0  0  0  0  0  0
   -3.4433    3.0548   -0.2287 H   0  0  0  0  0  0  0  0  0  0  0  0
   -2.9288    3.0261    1.4417 H   0  0  0  0  0  0  0  0  0  0  0  0
    3.0585    1.8268    0.6316 H   0  0  0  0  0  0  0  0  0  0  0  0
    7.0254    0.3442    0.3564 H   0  0  0  0  0  0  0  0  0  0  0  0
  1  2  1  0  0  0  0
  2  3  1  0  0  0  0
  2  4  1  0  0  0  0
  2  5  1  0  0  0  0
  5  6  2  0  0  0  0
  6  7  1  0  0  0  0
  7  8  1  0  0  0  0
  8  9  2  0  0  0  0
  9 10  1  0  0  0  0
 10 11  2  0  0  0  0
 11 12  1  0  0  0  0
 12 13  2  0  0  0  0
 13 14  1  0  0  0  0
 14 15  2  0  0  0  0
 14 16  1  0  0  0  0
 16 17  1  0  0  0  0
 17 18  1  0  0  0  0
 18 19  1  0  0  0  0
 19 20  1  0  0  0  0
 20 21  1  0  0  0  0
 21 22  1  0  0  0  0
  7 23  2  0  0  0  0
 23 24  1  0  0  0  0
 24 25  1  0  0  0  0
 25 26  1  0  0  0  0
 25 27  1  0  0  0  0
 25 28  1  0  0  0  0
 24 29  2  0  0  0  0
 29  5  1  0  0  0  0
 15 10  1  0  0  0  0
 22 12  1  0  0  0  0
 19 13  1  0  0  0  0
  6 30  1  0  0  0  0
 11 31  1  0  0  0  0
 15 32  1  0  0  0  0
 16 33  1  0  0  0  0
 16 34  1  0  0  0  0
 17 35  1  0  0  0  0
 17 36  1  0  0  0  0
 18 37  1  0  0  0  0
 18 38  1  0  0  0  0
 20 39  1  0  0  0  0
 20 40  1  0  0  0  0
 21 41  1  0  0  0  0
 21 42  1  0  0  0  0
 22 43  1  0  0  0  0
 22 44  1  0  0  0  0
 23 45  1  0  0  0  0
 29 46  1  0  0  0  0
M  END
