
  xtb     03212210133D
 energy: -6.302783099886 gnorm: 0.000336411673 xtb: 6.4.1 (afa7bdf)
 30 32  0     0  0            999 V2000
    0.7841   -0.6658    1.5577 O   0  0  0  0  0  0  0  0  0  0  0  0
   -0.3146   -0.5026    1.0667 C   0  0  0  0  0  0  0  0  0  0  0  0
   -1.4346   -1.2891    1.3077 N   0  0  0  0  0  0  0  0  0  0  0  0
   -2.5480   -0.7910    0.6351 C   0  0  0  0  0  0  0  0  0  0  0  0
   -3.8647   -1.2331    0.6116 C   0  0  0  0  0  0  0  0  0  0  0  0
   -4.7799   -0.5360   -0.1427 C   0  0  0  0  0  0  0  0  0  0  0  0
   -4.3992    0.5886   -0.8679 C   0  0  0  0  0  0  0  0  0  0  0  0
   -3.0961    1.0363   -0.8515 C   0  0  0  0  0  0  0  0  0  0  0  0
   -2.1594    0.3442   -0.0938 C   0  0  0  0  0  0  0  0  0  0  0  0
   -0.7371    0.5615    0.1249 C   0  0  0  0  0  0  0  0  0  0  0  0
   -0.0208    1.5880   -0.3980 C   0  0  0  0  0  0  0  0  0  0  0  0
    1.4073    1.8659   -0.2610 C   0  0  0  0  0  0  0  0  0  0  0  0
    1.7859    3.0247   -0.3164 O   0  0  0  0  0  0  0  0  0  0  0  0
    2.4018    0.7764   -0.1399 C   0  0  0  0  0  0  0  0  0  0  0  0
    2.2842   -0.3972   -0.8888 C   0  0  0  0  0  0  0  0  0  0  0  0
    3.2280   -1.3889   -0.7936 C   0  0  0  0  0  0  0  0  0  0  0  0
    4.3232   -1.2305    0.0481 C   0  0  0  0  0  0  0  0  0  0  0  0
    5.5129   -2.4690    0.1583 Cl  0  0  0  0  0  0  0  0  0  0  0  0
    4.4614   -0.0759    0.7921 C   0  0  0  0  0  0  0  0  0  0  0  0
    3.5123    0.9237    0.7028 C   0  0  0  0  0  0  0  0  0  0  0  0
    3.6745    2.3241    1.6814 Cl  0  0  0  0  0  0  0  0  0  0  0  0
   -1.4353   -2.0706    1.9565 H   0  0  0  0  0  0  0  0  0  0  0  0
   -4.1472   -2.1023    1.1781 H   0  0  0  0  0  0  0  0  0  0  0  0
   -5.8056   -0.8643   -0.1714 H   0  0  0  0  0  0  0  0  0  0  0  0
   -5.1350    1.1180   -1.4501 H   0  0  0  0  0  0  0  0  0  0  0  0
   -2.8019    1.9060   -1.4107 H   0  0  0  0  0  0  0  0  0  0  0  0
   -0.5657    2.3370   -0.9445 H   0  0  0  0  0  0  0  0  0  0  0  0
    1.4341   -0.5184   -1.5372 H   0  0  0  0  0  0  0  0  0  0  0  0
    3.1326   -2.2994   -1.3596 H   0  0  0  0  0  0  0  0  0  0  0  0
    5.3033    0.0397    1.4518 H   0  0  0  0  0  0  0  0  0  0  0  0
  1  2  2  0  0  0  0
  2  3  1  0  0  0  0
  3  4  1  0  0  0  0
  4  5  2  0  0  0  0
  5  6  1  0  0  0  0
  6  7  2  0  0  0  0
  7  8  1  0  0  0  0
  8  9  2  0  0  0  0
  9 10  1  0  0  0  0
 10 11  2  0  0  0  0
 11 12  1  0  0  0  0
 12 13  2  0  0  0  0
 12 14  1  0  0  0  0
 14 15  2  0  0  0  0
 15 16  1  0  0  0  0
 16 17  2  0  0  0  0
 17 18  1  0  0  0  0
 17 19  1  0  0  0  0
 19 20  2  0  0  0  0
 20 21  1  0  0  0  0
 10  2  1  0  0  0  0
 20 14  1  0  0  0  0
  9  4  1  0  0  0  0
  3 22  1  0  0  0  0
  5 23  1  0  0  0  0
  6 24  1  0  0  0  0
  7 25  1  0  0  0  0
  8 26  1  0  0  0  0
 11 27  1  0  0  0  0
 15 28  1  0  0  0  0
 16 29  1  0  0  0  0
 19 30  1  0  0  0  0
M  END
