
  xtb     03212210123D
 energy: -7.825148057513 gnorm: 0.000335483067 xtb: 6.4.1 (afa7bdf)
 41 44  0     0  0            999 V2000
    3.5848   -0.6136    1.4801 C   0  0  0  0  0  0  0  0  0  0  0  0
    4.6460    0.3166    0.9211 C   0  0  0  0  0  0  0  0  0  0  0  0
    4.1896    1.0861   -0.3117 C   0  0  0  0  0  0  0  0  0  0  0  0
    3.7911    0.0438   -1.6976 S   0  0  0  0  0  0  0  0  0  0  0  0
    2.1515   -0.4315   -1.3521 C   0  0  0  0  0  0  0  0  0  0  0  0
    1.6478   -1.7182   -1.6692 C   0  0  0  0  0  0  0  0  0  0  0  0
    0.3295   -1.7888   -1.3115 C   0  0  0  0  0  0  0  0  0  0  0  0
   -0.0530   -0.5222   -0.7733 C   0  0  0  0  0  0  0  0  0  0  0  0
    1.0971    0.2489   -0.7957 N   0  0  0  0  0  0  0  0  0  0  0  0
    1.1017    1.6657   -0.1985 B   0  0  0  0  0  4  0  0  0  0  0  0
    1.7265    2.5395   -1.0801 F   0  0  0  0  0  0  0  0  0  0  0  0
    1.7277    1.6289    1.0423 F   0  0  0  0  0  0  0  0  0  0  0  0
   -0.3324    2.1378    0.0384 N   0  0  0  0  0  4  0  0  0  0  0  0
   -0.6874    3.3769    0.3879 C   0  0  0  0  0  0  0  0  0  0  0  0
   -2.0718    3.3469    0.6185 C   0  0  0  0  0  0  0  0  0  0  0  0
   -2.5256    2.0590    0.4029 C   0  0  0  0  0  0  0  0  0  0  0  0
   -1.4145    1.2648    0.0335 C   0  0  0  0  0  0  0  0  0  0  0  0
   -1.3192   -0.0851   -0.3452 C   0  0  0  0  0  0  0  0  0  0  0  0
   -2.5024   -0.9655   -0.3525 C   0  0  0  0  0  0  0  0  0  0  0  0
   -2.8238   -1.7372   -1.4713 C   0  0  0  0  0  0  0  0  0  0  0  0
   -3.9322   -2.5519   -1.4714 C   0  0  0  0  0  0  0  0  0  0  0  0
   -4.7461   -2.6149   -0.3586 C   0  0  0  0  0  0  0  0  0  0  0  0
   -4.4495   -1.8565    0.7558 C   0  0  0  0  0  0  0  0  0  0  0  0
   -3.3428   -1.0396    0.7604 C   0  0  0  0  0  0  0  0  0  0  0  0
    3.3022   -1.3762    0.7514 H   0  0  0  0  0  0  0  0  0  0  0  0
    2.6767   -0.0649    1.7382 H   0  0  0  0  0  0  0  0  0  0  0  0
    3.9238   -1.1321    2.3810 H   0  0  0  0  0  0  0  0  0  0  0  0
    5.5454   -0.2596    0.6681 H   0  0  0  0  0  0  0  0  0  0  0  0
    4.9630    1.0238    1.6999 H   0  0  0  0  0  0  0  0  0  0  0  0
    4.9688    1.7769   -0.6473 H   0  0  0  0  0  0  0  0  0  0  0  0
    3.3202    1.7038   -0.0878 H   0  0  0  0  0  0  0  0  0  0  0  0
    2.2253   -2.5096   -2.1178 H   0  0  0  0  0  0  0  0  0  0  0  0
   -0.3115   -2.6465   -1.4201 H   0  0  0  0  0  0  0  0  0  0  0  0
   -0.0105    4.2108    0.4749 H   0  0  0  0  0  0  0  0  0  0  0  0
   -2.6779    4.1887    0.9126 H   0  0  0  0  0  0  0  0  0  0  0  0
   -3.5446    1.7194    0.4785 H   0  0  0  0  0  0  0  0  0  0  0  0
   -2.2046   -1.6667   -2.3487 H   0  0  0  0  0  0  0  0  0  0  0  0
   -4.1673   -3.1391   -2.3438 H   0  0  0  0  0  0  0  0  0  0  0  0
   -5.6141   -3.2546   -0.3604 H   0  0  0  0  0  0  0  0  0  0  0  0
   -5.0849   -1.9060    1.6247 H   0  0  0  0  0  0  0  0  0  0  0  0
   -3.1023   -0.4578    1.6333 H   0  0  0  0  0  0  0  0  0  0  0  0
  1  2  1  0  0  0  0
  2  3  1  0  0  0  0
  3  4  1  0  0  0  0
  4  5  1  0  0  0  0
  5  6  2  0  0  0  0
  6  7  1  0  0  0  0
  7  8  2  0  0  0  0
  8  9  1  0  0  0  0
  9 10  1  0  0  0  0
 10 11  1  0  0  0  0
 10 12  1  0  0  0  0
 10 13  1  0  0  0  0
 13 14  2  0  0  0  0
 14 15  1  0  0  0  0
 15 16  2  0  0  0  0
 16 17  1  0  0  0  0
 17 18  2  0  0  0  0
 18 19  1  0  0  0  0
 19 20  2  0  0  0  0
 20 21  1  0  0  0  0
 21 22  2  0  0  0  0
 22 23  1  0  0  0  0
 23 24  2  0  0  0  0
  9  5  1  0  0  0  0
 17 13  1  0  0  0  0
 24 19  1  0  0  0  0
 18  8  1  0  0  0  0
  1 25  1  0  0  0  0
  1 26  1  0  0  0  0
  1 27  1  0  0  0  0
  2 28  1  0  0  0  0
  2 29  1  0  0  0  0
  3 30  1  0  0  0  0
  3 31  1  0  0  0  0
  6 32  1  0  0  0  0
  7 33  1  0  0  0  0
 14 34  1  0  0  0  0
 15 35  1  0  0  0  0
 16 36  1  0  0  0  0
 20 37  1  0  0  0  0
 21 38  1  0  0  0  0
 22 39  1  0  0  0  0
 23 40  1  0  0  0  0
 24 41  1  0  0  0  0
M  CHG  1  10  -1
M  CHG  1  13   1
M  END
