
  xtb     03212210133D
 energy: -7.632652117407 gnorm: 0.000135423283 xtb: 6.4.1 (afa7bdf)
 38 40  0     0  0            999 V2000
    6.4970   -0.1887    0.9064 C   0  0  0  0  0  0  0  0  0  0  0  0
    5.2950   -0.5620    1.5325 O   0  0  0  0  0  0  0  0  0  0  0  0
    4.1403   -0.2415    0.8210 C   0  0  0  0  0  0  0  0  0  0  0  0
    4.1229    0.3978   -0.4245 C   0  0  0  0  0  0  0  0  0  0  0  0
    2.9339    0.6689   -1.0433 C   0  0  0  0  0  0  0  0  0  0  0  0
    1.7096    0.3302   -0.4789 C   0  0  0  0  0  0  0  0  0  0  0  0
    0.5095    0.6845   -1.2599 C   0  0  0  0  0  0  0  0  0  0  0  0
    0.6815    1.2482   -2.3268 O   0  0  0  0  0  0  0  0  0  0  0  0
   -0.8137    0.3672   -0.7606 C   0  0  0  0  0  0  0  0  0  0  0  0
   -2.0241    0.5972   -1.3248 C   0  0  0  0  0  0  0  0  0  0  0  0
   -2.4186    1.2267   -2.6131 C   0  0  0  0  0  0  0  0  0  0  0  0
   -1.7222    1.6952   -3.4907 O   0  0  0  0  0  0  0  0  0  0  0  0
   -3.8082    1.1922   -2.6612 N   0  0  0  0  0  0  0  0  0  0  0  0
   -4.3374    0.5963   -1.5215 C   0  0  0  0  0  0  0  0  0  0  0  0
   -5.6549    0.3537   -1.1517 C   0  0  0  0  0  0  0  0  0  0  0  0
   -5.8988   -0.2631    0.0531 C   0  0  0  0  0  0  0  0  0  0  0  0
   -4.8496   -0.6374    0.8862 C   0  0  0  0  0  0  0  0  0  0  0  0
   -3.5398   -0.4022    0.5305 C   0  0  0  0  0  0  0  0  0  0  0  0
   -3.2767    0.2199   -0.6836 C   0  0  0  0  0  0  0  0  0  0  0  0
    1.6976   -0.3196    0.7848 C   0  0  0  0  0  0  0  0  0  0  0  0
    0.4840   -0.6682    1.3689 O   0  0  0  0  0  0  0  0  0  0  0  0
    0.5772   -1.3062    2.6186 C   0  0  0  0  0  0  0  0  0  0  0  0
    2.9217   -0.5842    1.3948 C   0  0  0  0  0  0  0  0  0  0  0  0
    6.5911   -0.7031   -0.0509 H   0  0  0  0  0  0  0  0  0  0  0  0
    7.3260   -0.4835    1.5510 H   0  0  0  0  0  0  0  0  0  0  0  0
    6.5222    0.8930    0.7680 H   0  0  0  0  0  0  0  0  0  0  0  0
    5.0453    0.6774   -0.8981 H   0  0  0  0  0  0  0  0  0  0  0  0
    2.9193    1.1612   -2.0020 H   0  0  0  0  0  0  0  0  0  0  0  0
   -0.8359   -0.1184    0.1943 H   0  0  0  0  0  0  0  0  0  0  0  0
   -4.3450    1.5601   -3.4411 H   0  0  0  0  0  0  0  0  0  0  0  0
   -6.4566    0.6489   -1.8063 H   0  0  0  0  0  0  0  0  0  0  0  0
   -6.9139   -0.4584    0.3551 H   0  0  0  0  0  0  0  0  0  0  0  0
   -5.0657   -1.1197    1.8262 H   0  0  0  0  0  0  0  0  0  0  0  0
   -2.7295   -0.6915    1.1742 H   0  0  0  0  0  0  0  0  0  0  0  0
    1.0646   -0.6457    3.3374 H   0  0  0  0  0  0  0  0  0  0  0  0
    1.1264   -2.2435    2.5167 H   0  0  0  0  0  0  0  0  0  0  0  0
   -0.4316   -1.5258    2.9706 H   0  0  0  0  0  0  0  0  0  0  0  0
    2.9572   -1.0719    2.3484 H   0  0  0  0  0  0  0  0  0  0  0  0
  1  2  1  0  0  0  0
  2  3  1  0  0  0  0
  3  4  2  0  0  0  0
  4  5  1  0  0  0  0
  5  6  2  0  0  0  0
  6  7  1  0  0  0  0
  7  8  2  0  0  0  0
  7  9  1  0  0  0  0
  9 10  2  0  0  0  0
 10 11  1  0  0  0  0
 11 12  2  0  0  0  0
 11 13  1  0  0  0  0
 13 14  1  0  0  0  0
 14 15  2  0  0  0  0
 15 16  1  0  0  0  0
 16 17  2  0  0  0  0
 17 18  1  0  0  0  0
 18 19  2  0  0  0  0
  6 20  1  0  0  0  0
 20 21  1  0  0  0  0
 21 22  1  0  0  0  0
 20 23  2  0  0  0  0
 23  3  1  0  0  0  0
 19 10  1  0  0  0  0
 19 14  1  0  0  0  0
  1 24  1  0  0  0  0
  1 25  1  0  0  0  0
  1 26  1  0  0  0  0
  4 27  1  0  0  0  0
  5 28  1  0  0  0  0
  9 29  1  0  0  0  0
 13 30  1  0  0  0  0
 15 31  1  0  0  0  0
 16 32  1  0  0  0  0
 17 33  1  0  0  0  0
 18 34  1  0  0  0  0
 22 35  1  0  0  0  0
 22 36  1  0  0  0  0
 22 37  1  0  0  0  0
 23 38  1  0  0  0  0
M  END
