
  xtb     03212210123D
 energy: -9.912172520408 gnorm: 0.000534808593 xtb: 6.4.1 (afa7bdf)
 47 53  0     0  0            999 V2000
   -4.0765   -2.9883   -1.0213 C   0  0  0  0  0  0  0  0  0  0  0  0
   -2.6638   -2.5991   -0.8684 C   0  0  0  0  0  0  0  0  0  0  0  0
   -2.2243   -1.4304   -0.3690 N   0  0  0  0  0  4  0  0  0  0  0  0
   -0.8290   -1.3500   -0.3585 C   0  0  0  0  0  0  0  0  0  0  0  0
   -0.1471   -0.1696    0.0511 C   0  0  0  0  0  0  0  0  0  0  0  0
    1.2794    0.0717    0.1714 C   0  0  0  0  0  0  0  0  0  0  0  0
    2.2419   -0.9771    0.3798 C   0  0  0  0  0  0  0  0  0  0  0  0
    1.8806   -2.2745    0.7960 C   0  0  0  0  0  0  0  0  0  0  0  0
    2.8131   -3.2582    0.9550 C   0  0  0  0  0  0  0  0  0  0  0  0
    4.1660   -2.9968    0.7304 C   0  0  0  0  0  0  0  0  0  0  0  0
    4.5707   -1.7408    0.4000 C   0  0  0  0  0  0  0  0  0  0  0  0
    3.6327   -0.6894    0.2559 C   0  0  0  0  0  0  0  0  0  0  0  0
    4.0558    0.6271    0.0622 C   0  0  0  0  0  0  0  0  0  0  0  0
    3.1511    1.6871    0.0508 C   0  0  0  0  0  0  0  0  0  0  0  0
    3.5986    3.0250   -0.0210 C   0  0  0  0  0  0  0  0  0  0  0  0
    2.7152    4.0714    0.0206 C   0  0  0  0  0  0  0  0  0  0  0  0
    1.3558    3.8399    0.1305 C   0  0  0  0  0  0  0  0  0  0  0  0
    0.8531    2.5421    0.1849 C   0  0  0  0  0  0  0  0  0  0  0  0
   -0.5443    2.2731    0.2833 C   0  0  0  0  0  0  0  0  0  0  0  0
   -1.7102    3.0937    0.3391 C   0  0  0  0  0  0  0  0  0  0  0  0
   -2.8250    2.2736    0.2885 C   0  0  0  0  0  0  0  0  0  0  0  0
   -4.2461    2.6598    0.2887 C   0  0  0  0  0  0  0  0  0  0  0  0
   -2.3666    0.9876    0.1983 N   0  0  0  0  0  0  0  0  0  0  0  0
   -0.9877    0.9401    0.2091 C   0  0  0  0  0  0  0  0  0  0  0  0
   -3.1784   -0.2982    0.0410 B   0  0  0  0  0  4  0  0  0  0  0  0
   -3.7771   -0.6227    1.2526 F   0  0  0  0  0  0  0  0  0  0  0  0
   -4.1242   -0.1114   -0.9622 F   0  0  0  0  0  0  0  0  0  0  0  0
    1.7500    1.4200    0.1329 C   0  0  0  0  0  0  0  0  0  0  0  0
   -0.3988   -2.5520   -0.9584 C   0  0  0  0  0  0  0  0  0  0  0  0
   -1.5190   -3.3158   -1.2497 C   0  0  0  0  0  0  0  0  0  0  0  0
   -4.7189   -2.2661   -0.5155 H   0  0  0  0  0  0  0  0  0  0  0  0
   -4.3606   -3.0119   -2.0734 H   0  0  0  0  0  0  0  0  0  0  0  0
   -4.2616   -3.9718   -0.5892 H   0  0  0  0  0  0  0  0  0  0  0  0
    0.8531   -2.4754    1.0382 H   0  0  0  0  0  0  0  0  0  0  0  0
    2.5061   -4.2450    1.2644 H   0  0  0  0  0  0  0  0  0  0  0  0
    4.8900   -3.7857    0.8469 H   0  0  0  0  0  0  0  0  0  0  0  0
    5.6180   -1.5253    0.2675 H   0  0  0  0  0  0  0  0  0  0  0  0
    5.1086    0.8345   -0.0100 H   0  0  0  0  0  0  0  0  0  0  0  0
    4.6561    3.2148   -0.0954 H   0  0  0  0  0  0  0  0  0  0  0  0
    3.0813    5.0835   -0.0273 H   0  0  0  0  0  0  0  0  0  0  0  0
    0.6697    4.6676    0.1671 H   0  0  0  0  0  0  0  0  0  0  0  0
   -1.7252    4.1683    0.3856 H   0  0  0  0  0  0  0  0  0  0  0  0
   -4.4963    3.2312    1.1828 H   0  0  0  0  0  0  0  0  0  0  0  0
   -4.8743    1.7679    0.2665 H   0  0  0  0  0  0  0  0  0  0  0  0
   -4.4859    3.2634   -0.5869 H   0  0  0  0  0  0  0  0  0  0  0  0
    0.6163   -2.8044   -1.2120 H   0  0  0  0  0  0  0  0  0  0  0  0
   -1.5221   -4.2838   -1.7223 H   0  0  0  0  0  0  0  0  0  0  0  0
  1  2  1  0  0  0  0
  2  3  2  0  0  0  0
  3  4  1  0  0  0  0
  4  5  2  0  0  0  0
  5  6  1  0  0  0  0
  6  7  2  0  0  0  0
  7  8  1  0  0  0  0
  8  9  2  0  0  0  0
  9 10  1  0  0  0  0
 10 11  2  0  0  0  0
 11 12  1  0  0  0  0
 12 13  2  0  0  0  0
 13 14  1  0  0  0  0
 14 15  2  0  0  0  0
 15 16  1  0  0  0  0
 16 17  2  0  0  0  0
 17 18  1  0  0  0  0
 18 19  1  0  0  0  0
 19 20  1  0  0  0  0
 20 21  2  0  0  0  0
 21 22  1  0  0  0  0
 21 23  1  0  0  0  0
 23 24  1  0  0  0  0
 23 25  1  0  0  0  0
 25 26  1  0  0  0  0
 25 27  1  0  0  0  0
 18 28  2  0  0  0  0
  4 29  1  0  0  0  0
 29 30  2  0  0  0  0
 30  2  1  0  0  0  0
 25  3  1  0  0  0  0
 24  5  1  0  0  0  0
 28  6  1  0  0  0  0
 12  7  1  0  0  0  0
 28 14  1  0  0  0  0
 24 19  2  0  0  0  0
  1 31  1  0  0  0  0
  1 32  1  0  0  0  0
  1 33  1  0  0  0  0
  8 34  1  0  0  0  0
  9 35  1  0  0  0  0
 10 36  1  0  0  0  0
 11 37  1  0  0  0  0
 13 38  1  0  0  0  0
 15 39  1  0  0  0  0
 16 40  1  0  0  0  0
 17 41  1  0  0  0  0
 20 42  1  0  0  0  0
 22 43  1  0  0  0  0
 22 44  1  0  0  0  0
 22 45  1  0  0  0  0
 29 46  1  0  0  0  0
 30 47  1  0  0  0  0
M  CHG  1   3   1
M  CHG  1  25  -1
M  END
