
  xtb     03212210133D
 energy: -9.150654905911 gnorm: 0.000245092941 xtb: 6.4.1 (afa7bdf)
 43 45  0     0  0            999 V2000
   -7.8759   -0.7113    0.1079 C   0  0  0  0  0  0  0  0  0  0  0  0
   -6.7033   -1.4723   -0.3240 N   0  0  0  0  0  0  0  0  0  0  0  0
   -6.9473   -2.7908   -0.9098 C   0  0  0  0  0  0  0  0  0  0  0  0
   -5.4012   -0.9639   -0.1754 C   0  0  0  0  0  0  0  0  0  0  0  0
   -5.1730    0.2759    0.4309 C   0  0  0  0  0  0  0  0  0  0  0  0
   -3.9022    0.7713    0.5787 C   0  0  0  0  0  0  0  0  0  0  0  0
   -2.7916    0.0524    0.1272 C   0  0  0  0  0  0  0  0  0  0  0  0
   -1.4352    0.5406    0.2694 C   0  0  0  0  0  0  0  0  0  0  0  0
   -1.0667    1.7035    0.8250 C   0  0  0  0  0  0  0  0  0  0  0  0
    0.3192    2.0730    0.9123 C   0  0  0  0  0  0  0  0  0  0  0  0
    0.8433    3.2464    1.4653 C   0  0  0  0  0  0  0  0  0  0  0  0
    2.1658    3.2350    1.3693 N   0  0  0  0  0  0  0  0  0  0  0  0
    2.4812    2.0873    0.7713 C   0  0  0  0  0  0  0  0  0  0  0  0
    3.8018    1.6983    0.4864 C   0  0  0  0  0  0  0  0  0  0  0  0
    4.9427    1.3410    0.2309 C   0  0  0  0  0  0  0  0  0  0  0  0
    6.2479    0.9159   -0.0706 C   0  0  0  0  0  0  0  0  0  0  0  0
    7.2000    0.7695    0.9328 C   0  0  0  0  0  0  0  0  0  0  0  0
    8.4751    0.3464    0.6357 C   0  0  0  0  0  0  0  0  0  0  0  0
    8.8376    0.0568   -0.6737 C   0  0  0  0  0  0  0  0  0  0  0  0
   10.1359   -0.3778   -0.9765 C   0  0  0  0  0  0  0  0  0  0  0  0
   11.2112   -0.7407   -1.2261 N   0  0  0  0  0  0  0  0  0  0  0  0
    7.8890    0.2037   -1.6778 C   0  0  0  0  0  0  0  0  0  0  0  0
    6.6140    0.6266   -1.3809 C   0  0  0  0  0  0  0  0  0  0  0  0
    1.3750    1.3354    0.4690 O   0  0  0  0  0  0  0  0  0  0  0  0
   -3.0191   -1.1859   -0.4801 C   0  0  0  0  0  0  0  0  0  0  0  0
   -4.2892   -1.6814   -0.6279 C   0  0  0  0  0  0  0  0  0  0  0  0
   -7.8952    0.2567   -0.3881 H   0  0  0  0  0  0  0  0  0  0  0  0
   -7.8459   -0.5608    1.1848 H   0  0  0  0  0  0  0  0  0  0  0  0
   -8.7966   -1.2350   -0.1379 H   0  0  0  0  0  0  0  0  0  0  0  0
   -6.4070   -3.5522   -0.3514 H   0  0  0  0  0  0  0  0  0  0  0  0
   -6.6163   -2.8048   -1.9459 H   0  0  0  0  0  0  0  0  0  0  0  0
   -8.0050   -3.0418   -0.8860 H   0  0  0  0  0  0  0  0  0  0  0  0
   -6.0096    0.8476    0.7904 H   0  0  0  0  0  0  0  0  0  0  0  0
   -3.7589    1.7267    1.0506 H   0  0  0  0  0  0  0  0  0  0  0  0
   -0.6481   -0.0914   -0.1046 H   0  0  0  0  0  0  0  0  0  0  0  0
   -1.7980    2.3828    1.2183 H   0  0  0  0  0  0  0  0  0  0  0  0
    0.2742    4.0495    1.9082 H   0  0  0  0  0  0  0  0  0  0  0  0
    6.9240    0.9913    1.9493 H   0  0  0  0  0  0  0  0  0  0  0  0
    9.2084    0.2332    1.4160 H   0  0  0  0  0  0  0  0  0  0  0  0
    8.1672   -0.0201   -2.6936 H   0  0  0  0  0  0  0  0  0  0  0  0
    5.8821    0.7372   -2.1625 H   0  0  0  0  0  0  0  0  0  0  0  0
   -2.1763   -1.7539   -0.8352 H   0  0  0  0  0  0  0  0  0  0  0  0
   -4.4343   -2.6356   -1.1016 H   0  0  0  0  0  0  0  0  0  0  0  0
  1  2  1  0  0  0  0
  2  3  1  0  0  0  0
  2  4  1  0  0  0  0
  4  5  2  0  0  0  0
  5  6  1  0  0  0  0
  6  7  2  0  0  0  0
  7  8  1  0  0  0  0
  8  9  2  0  0  0  0
  9 10  1  0  0  0  0
 10 11  2  0  0  0  0
 11 12  1  0  0  0  0
 12 13  2  0  0  0  0
 13 14  1  0  0  0  0
 14 15  3  0  0  0  0
 15 16  1  0  0  0  0
 16 17  2  0  0  0  0
 17 18  1  0  0  0  0
 18 19  2  0  0  0  0
 19 20  1  0  0  0  0
 20 21  3  0  0  0  0
 19 22  1  0  0  0  0
 22 23  2  0  0  0  0
 13 24  1  0  0  0  0
  7 25  1  0  0  0  0
 25 26  2  0  0  0  0
 26  4  1  0  0  0  0
 24 10  1  0  0  0  0
 23 16  1  0  0  0  0
  1 27  1  0  0  0  0
  1 28  1  0  0  0  0
  1 29  1  0  0  0  0
  3 30  1  0  0  0  0
  3 31  1  0  0  0  0
  3 32  1  0  0  0  0
  5 33  1  0  0  0  0
  6 34  1  0  0  0  0
  8 35  1  0  0  0  0
  9 36  1  0  0  0  0
 11 37  1  0  0  0  0
 17 38  1  0  0  0  0
 18 39  1  0  0  0  0
 22 40  1  0  0  0  0
 23 41  1  0  0  0  0
 25 42  1  0  0  0  0
 26 43  1  0  0  0  0
M  END
