
  xtb     03212210133D
 energy: -5.619084373368 gnorm: 0.000590530774 xtb: 6.4.1 (afa7bdf)
 29 30  0     0  0            999 V2000
   -3.6337   -2.1732    1.0611 C   0  0  0  0  0  0  0  0  0  0  0  0
   -3.7497   -0.9292    0.2548 C   0  0  0  0  0  0  0  0  0  0  0  0
   -4.8353   -0.5050   -0.0704 O   0  0  0  0  0  0  0  0  0  0  0  0
   -2.5155   -0.2308   -0.1229 C   0  0  0  0  0  0  0  0  0  0  0  0
   -1.2773   -0.6215    0.2269 N   0  0  0  0  0  0  0  0  0  0  0  0
   -0.4592    0.2735   -0.3010 C   0  0  0  0  0  0  0  0  0  0  0  0
    0.9936    0.2250   -0.1567 C   0  0  0  0  0  0  0  0  0  0  0  0
    1.6037   -0.7915    0.5667 C   0  0  0  0  0  0  0  0  0  0  0  0
    2.9734   -0.8297    0.6991 C   0  0  0  0  0  0  0  0  0  0  0  0
    3.7698    0.1473    0.1186 C   0  0  0  0  0  0  0  0  0  0  0  0
    5.2510    0.0874    0.2452 C   0  0  0  0  0  0  0  0  0  0  0  0
    3.1585    1.1575   -0.6114 C   0  0  0  0  0  0  0  0  0  0  0  0
    1.7889    1.1987   -0.7453 C   0  0  0  0  0  0  0  0  0  0  0  0
   -1.1221    1.2554   -0.9981 O   0  0  0  0  0  0  0  0  0  0  0  0
   -2.4318    0.9432   -0.8886 C   0  0  0  0  0  0  0  0  0  0  0  0
   -3.5591    1.6885   -1.4801 C   0  0  0  0  0  0  0  0  0  0  0  0
   -4.1986   -2.9787    0.5938 H   0  0  0  0  0  0  0  0  0  0  0  0
   -2.5939   -2.4872    1.1508 H   0  0  0  0  0  0  0  0  0  0  0  0
   -4.0340   -2.0146    2.0616 H   0  0  0  0  0  0  0  0  0  0  0  0
    0.9859   -1.5476    1.0191 H   0  0  0  0  0  0  0  0  0  0  0  0
    3.4396   -1.6234    1.2563 H   0  0  0  0  0  0  0  0  0  0  0  0
    5.7001    1.0696    0.0952 H   0  0  0  0  0  0  0  0  0  0  0  0
    5.5450   -0.2633    1.2349 H   0  0  0  0  0  0  0  0  0  0  0  0
    5.6746   -0.5933   -0.4937 H   0  0  0  0  0  0  0  0  0  0  0  0
    3.7682    1.9131   -1.0752 H   0  0  0  0  0  0  0  0  0  0  0  0
    1.3128    1.9837   -1.3073 H   0  0  0  0  0  0  0  0  0  0  0  0
   -4.5068    1.3636   -1.0485 H   0  0  0  0  0  0  0  0  0  0  0  0
   -3.6013    1.5254   -2.5568 H   0  0  0  0  0  0  0  0  0  0  0  0
   -3.4468    2.7572   -1.2993 H   0  0  0  0  0  0  0  0  0  0  0  0
  1  2  1  0  0  0  0
  2  3  2  0  0  0  0
  2  4  1  0  0  0  0
  4  5  1  0  0  0  0
  5  6  2  0  0  0  0
  6  7  1  0  0  0  0
  7  8  2  0  0  0  0
  8  9  1  0  0  0  0
  9 10  2  0  0  0  0
 10 11  1  0  0  0  0
 10 12  1  0  0  0  0
 12 13  2  0  0  0  0
  6 14  1  0  0  0  0
 14 15  1  0  0  0  0
 15 16  1  0  0  0  0
 15  4  2  0  0  0  0
 13  7  1  0  0  0  0
  1 17  1  0  0  0  0
  1 18  1  0  0  0  0
  1 19  1  0  0  0  0
  8 20  1  0  0  0  0
  9 21  1  0  0  0  0
 11 22  1  0  0  0  0
 11 23  1  0  0  0  0
 11 24  1  0  0  0  0
 12 25  1  0  0  0  0
 13 26  1  0  0  0  0
 16 27  1  0  0  0  0
 16 28  1  0  0  0  0
 16 29  1  0  0  0  0
M  END
