
  xtb     03212210123D
 energy: -13.971828243177 gnorm: 0.000321947246 xtb: 6.4.1 (afa7bdf)
 64 69  0     0  0            999 V2000
    2.0542    3.9191   -3.1920 N   0  0  0  0  0  0  0  0  0  0  0  0
    2.7599    3.1708   -2.6436 C   0  0  0  0  0  0  0  0  0  0  0  0
    3.5322    2.2477   -1.9568 C   0  0  0  0  0  0  0  0  0  0  0  0
    4.8130    2.0118   -2.4347 C   0  0  0  0  0  0  0  0  0  0  0  0
    5.8969    1.8032   -2.8095 N   0  0  0  0  0  0  0  0  0  0  0  0
    3.0395    1.5634   -0.8612 C   0  0  0  0  0  0  0  0  0  0  0  0
    1.6817    1.7387   -0.3985 C   0  0  0  0  0  0  0  0  0  0  0  0
    0.6166    1.8230   -1.2202 C   0  0  0  0  0  0  0  0  0  0  0  0
   -0.6644    1.2087   -0.9718 C   0  0  0  0  0  0  0  0  0  0  0  0
   -1.7891    1.6368   -1.6836 C   0  0  0  0  0  0  0  0  0  0  0  0
   -3.0164    1.0663   -1.4686 C   0  0  0  0  0  0  0  0  0  0  0  0
   -3.1785    0.0416   -0.5347 C   0  0  0  0  0  0  0  0  0  0  0  0
   -4.4602   -0.5480   -0.3086 N   0  0  0  0  0  0  0  0  0  0  0  0
   -4.8109   -1.0477    0.9915 C   0  0  0  0  0  0  0  0  0  0  0  0
   -5.5620   -2.2127    1.1259 C   0  0  0  0  0  0  0  0  0  0  0  0
   -5.9058   -2.6863    2.3718 C   0  0  0  0  0  0  0  0  0  0  0  0
   -5.5082   -2.0054    3.5057 C   0  0  0  0  0  0  0  0  0  0  0  0
   -4.7652   -0.8470    3.3890 C   0  0  0  0  0  0  0  0  0  0  0  0
   -4.4197   -0.3714    2.1444 C   0  0  0  0  0  0  0  0  0  0  0  0
   -5.4177   -0.6325   -1.3759 C   0  0  0  0  0  0  0  0  0  0  0  0
   -5.0146   -0.9463   -2.6716 C   0  0  0  0  0  0  0  0  0  0  0  0
   -5.9340   -1.0264   -3.6928 C   0  0  0  0  0  0  0  0  0  0  0  0
   -7.2721   -0.7965   -3.4396 C   0  0  0  0  0  0  0  0  0  0  0  0
   -7.6880   -0.4873   -2.1594 C   0  0  0  0  0  0  0  0  0  0  0  0
   -6.7708   -0.4067   -1.1362 C   0  0  0  0  0  0  0  0  0  0  0  0
   -2.0543   -0.3917    0.1704 C   0  0  0  0  0  0  0  0  0  0  0  0
   -0.8244    0.1747   -0.0437 C   0  0  0  0  0  0  0  0  0  0  0  0
    3.8886    0.5969   -0.1256 C   0  0  0  0  0  0  0  0  0  0  0  0
    3.4782   -0.7248    0.0069 C   0  0  0  0  0  0  0  0  0  0  0  0
    4.2361   -1.6952    0.6749 C   0  0  0  0  0  0  0  0  0  0  0  0
    5.4314   -1.3417    1.2365 C   0  0  0  0  0  0  0  0  0  0  0  0
    5.8567   -0.0035    1.1326 C   0  0  0  0  0  0  0  0  0  0  0  0
    7.0912    0.2292    1.7712 C   0  0  0  0  0  0  0  0  0  0  0  0
    7.6090    1.4924    1.7605 C   0  0  0  0  0  0  0  0  0  0  0  0
    6.8952    2.5192    1.1180 C   0  0  0  0  0  0  0  0  0  0  0  0
    5.6938    2.2870    0.4986 C   0  0  0  0  0  0  0  0  0  0  0  0
    5.1296    0.9933    0.4770 C   0  0  0  0  0  0  0  0  0  0  0  0
    7.5744   -1.0714    2.3598 C   0  0  0  0  0  0  0  0  0  0  0  0
    6.4726   -2.1134    2.0063 C   0  0  0  0  0  0  0  0  0  0  0  0
    1.4993    1.4275    0.6170 H   0  0  0  0  0  0  0  0  0  0  0  0
    0.7076    2.3895   -2.1293 H   0  0  0  0  0  0  0  0  0  0  0  0
   -1.6803    2.4293   -2.4033 H   0  0  0  0  0  0  0  0  0  0  0  0
   -3.8791    1.4162   -2.0099 H   0  0  0  0  0  0  0  0  0  0  0  0
   -5.8629   -2.7415    0.2387 H   0  0  0  0  0  0  0  0  0  0  0  0
   -6.4857   -3.5901    2.4625 H   0  0  0  0  0  0  0  0  0  0  0  0
   -5.7786   -2.3762    4.4805 H   0  0  0  0  0  0  0  0  0  0  0  0
   -4.4579   -0.3133    4.2732 H   0  0  0  0  0  0  0  0  0  0  0  0
   -3.8532    0.5380    2.0463 H   0  0  0  0  0  0  0  0  0  0  0  0
   -3.9723   -1.1349   -2.8602 H   0  0  0  0  0  0  0  0  0  0  0  0
   -5.6091   -1.2699   -4.6911 H   0  0  0  0  0  0  0  0  0  0  0  0
   -7.9907   -0.8586   -4.2398 H   0  0  0  0  0  0  0  0  0  0  0  0
   -8.7319   -0.3069   -1.9616 H   0  0  0  0  0  0  0  0  0  0  0  0
   -7.0868   -0.1579   -0.1383 H   0  0  0  0  0  0  0  0  0  0  0  0
   -2.1649   -1.1964    0.8775 H   0  0  0  0  0  0  0  0  0  0  0  0
    0.0323   -0.1888    0.4948 H   0  0  0  0  0  0  0  0  0  0  0  0
    2.5443   -1.0109   -0.4444 H   0  0  0  0  0  0  0  0  0  0  0  0
    3.8923   -2.7119    0.7458 H   0  0  0  0  0  0  0  0  0  0  0  0
    8.5519    1.6901    2.2406 H   0  0  0  0  0  0  0  0  0  0  0  0
    7.3087    3.5142    1.1089 H   0  0  0  0  0  0  0  0  0  0  0  0
    5.1716    3.0897    0.0092 H   0  0  0  0  0  0  0  0  0  0  0  0
    7.7120   -0.9696    3.4430 H   0  0  0  0  0  0  0  0  0  0  0  0
    8.5471   -1.3414    1.9314 H   0  0  0  0  0  0  0  0  0  0  0  0
    6.8650   -2.9334    1.3929 H   0  0  0  0  0  0  0  0  0  0  0  0
    6.0271   -2.5610    2.9028 H   0  0  0  0  0  0  0  0  0  0  0  0
  1  2  3  0  0  0  0
  2  3  1  0  0  0  0
  3  4  1  0  0  0  0
  4  5  3  0  0  0  0
  3  6  2  0  0  0  0
  6  7  1  0  0  0  0
  7  8  2  0  0  0  0
  8  9  1  0  0  0  0
  9 10  2  0  0  0  0
 10 11  1  0  0  0  0
 11 12  2  0  0  0  0
 12 13  1  0  0  0  0
 13 14  1  0  0  0  0
 14 15  2  0  0  0  0
 15 16  1  0  0  0  0
 16 17  2  0  0  0  0
 17 18  1  0  0  0  0
 18 19  2  0  0  0  0
 13 20  1  0  0  0  0
 20 21  2  0  0  0  0
 21 22  1  0  0  0  0
 22 23  2  0  0  0  0
 23 24  1  0  0  0  0
 24 25  2  0  0  0  0
 12 26  1  0  0  0  0
 26 27  2  0  0  0  0
  6 28  1  0  0  0  0
 28 29  2  0  0  0  0
 29 30  1  0  0  0  0
 30 31  2  0  0  0  0
 31 32  1  0  0  0  0
 32 33  2  0  0  0  0
 33 34  1  0  0  0  0
 34 35  2  0  0  0  0
 35 36  1  0  0  0  0
 36 37  2  0  0  0  0
 33 38  1  0  0  0  0
 38 39  1  0  0  0  0
 27  9  1  0  0  0  0
 37 28  1  0  0  0  0
 19 14  1  0  0  0  0
 25 20  1  0  0  0  0
 39 31  1  0  0  0  0
 37 32  1  0  0  0  0
  7 40  1  0  0  0  0
  8 41  1  0  0  0  0
 10 42  1  0  0  0  0
 11 43  1  0  0  0  0
 15 44  1  0  0  0  0
 16 45  1  0  0  0  0
 17 46  1  0  0  0  0
 18 47  1  0  0  0  0
 19 48  1  0  0  0  0
 21 49  1  0  0  0  0
 22 50  1  0  0  0  0
 23 51  1  0  0  0  0
 24 52  1  0  0  0  0
 25 53  1  0  0  0  0
 26 54  1  0  0  0  0
 27 55  1  0  0  0  0
 29 56  1  0  0  0  0
 30 57  1  0  0  0  0
 34 58  1  0  0  0  0
 35 59  1  0  0  0  0
 36 60  1  0  0  0  0
 38 61  1  0  0  0  0
 38 62  1  0  0  0  0
 39 63  1  0  0  0  0
 39 64  1  0  0  0  0
M  END
