
  xtb     03212210133D
 energy: -8.615141347777 gnorm: 0.000317141468 xtb: 6.4.1 (afa7bdf)
 43 44  0     0  0            999 V2000
    7.6115   -0.9684    0.7190 C   0  0  0  0  0  0  0  0  0  0  0  0
    6.7821    0.0309    0.0452 N   0  0  0  0  0  0  0  0  0  0  0  0
    7.4842    1.1198   -0.6335 C   0  0  0  0  0  0  0  0  0  0  0  0
    5.3851   -0.0467    0.0571 C   0  0  0  0  0  0  0  0  0  0  0  0
    4.7216   -1.0805    0.7319 C   0  0  0  0  0  0  0  0  0  0  0  0
    3.3535   -1.1514    0.7486 C   0  0  0  0  0  0  0  0  0  0  0  0
    2.5678   -0.1946    0.0915 C   0  0  0  0  0  0  0  0  0  0  0  0
    1.1297   -0.3007    0.1398 C   0  0  0  0  0  0  0  0  0  0  0  0
    0.2529    0.5378   -0.4573 C   0  0  0  0  0  0  0  0  0  0  0  0
   -1.1660    0.4029   -0.3709 C   0  0  0  0  0  0  0  0  0  0  0  0
   -1.8074   -0.1699    0.6734 C   0  0  0  0  0  0  0  0  0  0  0  0
   -3.2244   -0.1481    0.8510 C   0  0  0  0  0  0  0  0  0  0  0  0
   -4.1113   -0.0794   -0.1634 C   0  0  0  0  0  0  0  0  0  0  0  0
   -5.5526   -0.0493   -0.0260 C   0  0  0  0  0  0  0  0  0  0  0  0
   -6.1915   -0.0239    1.2176 C   0  0  0  0  0  0  0  0  0  0  0  0
   -7.5630    0.0057    1.3063 C   0  0  0  0  0  0  0  0  0  0  0  0
   -8.3519    0.0121    0.1610 C   0  0  0  0  0  0  0  0  0  0  0  0
   -9.7497    0.0416    0.2547 C   0  0  0  0  0  0  0  0  0  0  0  0
  -10.9091    0.0657    0.3339 N   0  0  0  0  0  0  0  0  0  0  0  0
   -7.7241   -0.0113   -1.0795 C   0  0  0  0  0  0  0  0  0  0  0  0
   -6.3533   -0.0407   -1.1722 C   0  0  0  0  0  0  0  0  0  0  0  0
    3.2307    0.8381   -0.5857 C   0  0  0  0  0  0  0  0  0  0  0  0
    4.5994    0.9089   -0.6021 C   0  0  0  0  0  0  0  0  0  0  0  0
    7.4023   -0.9673    1.7871 H   0  0  0  0  0  0  0  0  0  0  0  0
    8.6705   -0.7614    0.5798 H   0  0  0  0  0  0  0  0  0  0  0  0
    7.4051   -1.9580    0.3158 H   0  0  0  0  0  0  0  0  0  0  0  0
    7.2624    1.0996   -1.6988 H   0  0  0  0  0  0  0  0  0  0  0  0
    8.5615    1.0327   -0.5087 H   0  0  0  0  0  0  0  0  0  0  0  0
    7.1726    2.0781   -0.2224 H   0  0  0  0  0  0  0  0  0  0  0  0
    5.2981   -1.8279    1.2468 H   0  0  0  0  0  0  0  0  0  0  0  0
    2.8644   -1.9531    1.2749 H   0  0  0  0  0  0  0  0  0  0  0  0
    0.7329   -1.1330    0.6932 H   0  0  0  0  0  0  0  0  0  0  0  0
    0.6363    1.3527   -1.0447 H   0  0  0  0  0  0  0  0  0  0  0  0
   -1.7617    0.9140   -1.1089 H   0  0  0  0  0  0  0  0  0  0  0  0
   -1.2098   -0.5433    1.4895 H   0  0  0  0  0  0  0  0  0  0  0  0
   -3.5958   -0.2072    1.8585 H   0  0  0  0  0  0  0  0  0  0  0  0
   -3.7283   -0.0628   -1.1680 H   0  0  0  0  0  0  0  0  0  0  0  0
   -5.6058   -0.0221    2.1189 H   0  0  0  0  0  0  0  0  0  0  0  0
   -8.0467    0.0251    2.2680 H   0  0  0  0  0  0  0  0  0  0  0  0
   -8.3316   -0.0061   -1.9685 H   0  0  0  0  0  0  0  0  0  0  0  0
   -5.8813   -0.0593   -2.1393 H   0  0  0  0  0  0  0  0  0  0  0  0
    2.6586    1.5894   -1.0995 H   0  0  0  0  0  0  0  0  0  0  0  0
    5.0821    1.7115   -1.1304 H   0  0  0  0  0  0  0  0  0  0  0  0
  1  2  1  0  0  0  0
  2  3  1  0  0  0  0
  2  4  1  0  0  0  0
  4  5  2  0  0  0  0
  5  6  1  0  0  0  0
  6  7  2  0  0  0  0
  7  8  1  0  0  0  0
  8  9  2  0  0  0  0
  9 10  1  0  0  0  0
 10 11  2  0  0  0  0
 11 12  1  0  0  0  0
 12 13  2  0  0  0  0
 13 14  1  0  0  0  0
 14 15  2  0  0  0  0
 15 16  1  0  0  0  0
 16 17  2  0  0  0  0
 17 18  1  0  0  0  0
 18 19  3  0  0  0  0
 17 20  1  0  0  0  0
 20 21  2  0  0  0  0
  7 22  1  0  0  0  0
 22 23  2  0  0  0  0
 23  4  1  0  0  0  0
 21 14  1  0  0  0  0
  1 24  1  0  0  0  0
  1 25  1  0  0  0  0
  1 26  1  0  0  0  0
  3 27  1  0  0  0  0
  3 28  1  0  0  0  0
  3 29  1  0  0  0  0
  5 30  1  0  0  0  0
  6 31  1  0  0  0  0
  8 32  1  0  0  0  0
  9 33  1  0  0  0  0
 10 34  1  0  0  0  0
 11 35  1  0  0  0  0
 12 36  1  0  0  0  0
 13 37  1  0  0  0  0
 15 38  1  0  0  0  0
 16 39  1  0  0  0  0
 20 40  1  0  0  0  0
 21 41  1  0  0  0  0
 22 42  1  0  0  0  0
 23 43  1  0  0  0  0
M  END
