
  xtb     03212210143D
 energy: -7.877124863431 gnorm: 0.000198752455 xtb: 6.4.1 (afa7bdf)
 40 43  0     0  0            999 V2000
    3.8921    0.0516   -2.1806 C   0  0  0  0  0  0  0  0  0  0  0  0
    3.5704   -0.9551   -1.0971 C   0  0  0  0  0  0  0  0  0  0  0  0
    2.8383   -0.3476    0.0276 N   0  0  0  0  0  0  0  0  0  0  0  0
    3.6702    0.0368    1.1810 C   0  0  0  0  0  0  0  0  0  0  0  0
    3.6762   -1.0243    2.2607 C   0  0  0  0  0  0  0  0  0  0  0  0
    1.4400   -0.1669    0.0106 C   0  0  0  0  0  0  0  0  0  0  0  0
    0.6871   -0.4991   -1.1199 C   0  0  0  0  0  0  0  0  0  0  0  0
   -0.6939   -0.3380   -1.1579 C   0  0  0  0  0  0  0  0  0  0  0  0
   -1.4734   -0.6778   -2.3112 C   0  0  0  0  0  0  0  0  0  0  0  0
   -2.8152   -0.5148   -2.3238 C   0  0  0  0  0  0  0  0  0  0  0  0
   -3.5108    0.0048   -1.1854 C   0  0  0  0  0  0  0  0  0  0  0  0
   -4.8948    0.1821   -1.1708 C   0  0  0  0  0  0  0  0  0  0  0  0
   -5.5300    0.6865   -0.0543 C   0  0  0  0  0  0  0  0  0  0  0  0
   -4.8121    1.0276    1.0738 C   0  0  0  0  0  0  0  0  0  0  0  0
   -3.4261    0.8697    1.1124 C   0  0  0  0  0  0  0  0  0  0  0  0
   -2.6465    1.2107    2.2637 C   0  0  0  0  0  0  0  0  0  0  0  0
   -1.3049    1.0460    2.2757 C   0  0  0  0  0  0  0  0  0  0  0  0
   -0.6098    0.5244    1.1365 C   0  0  0  0  0  0  0  0  0  0  0  0
    0.7692    0.3447    1.1257 C   0  0  0  0  0  0  0  0  0  0  0  0
   -1.3554    0.1792   -0.0172 C   0  0  0  0  0  0  0  0  0  0  0  0
   -2.7676    0.3520   -0.0302 C   0  0  0  0  0  0  0  0  0  0  0  0
    4.4295   -0.4006   -3.0170 H   0  0  0  0  0  0  0  0  0  0  0  0
    2.9846    0.5086   -2.5772 H   0  0  0  0  0  0  0  0  0  0  0  0
    4.5091    0.8618   -1.7887 H   0  0  0  0  0  0  0  0  0  0  0  0
    2.9829   -1.7929   -1.4864 H   0  0  0  0  0  0  0  0  0  0  0  0
    4.4875   -1.4101   -0.7068 H   0  0  0  0  0  0  0  0  0  0  0  0
    3.3157    0.9994    1.5635 H   0  0  0  0  0  0  0  0  0  0  0  0
    4.6875    0.2319    0.8238 H   0  0  0  0  0  0  0  0  0  0  0  0
    2.6668   -1.2265    2.6213 H   0  0  0  0  0  0  0  0  0  0  0  0
    4.2846   -0.7345    3.1201 H   0  0  0  0  0  0  0  0  0  0  0  0
    4.0699   -1.9672    1.8780 H   0  0  0  0  0  0  0  0  0  0  0  0
    1.1776   -0.8861   -1.9926 H   0  0  0  0  0  0  0  0  0  0  0  0
   -0.9666   -1.0704   -3.1759 H   0  0  0  0  0  0  0  0  0  0  0  0
   -3.3852   -0.7763   -3.1981 H   0  0  0  0  0  0  0  0  0  0  0  0
   -5.4646   -0.0810   -2.0453 H   0  0  0  0  0  0  0  0  0  0  0  0
   -6.6003    0.8157   -0.0634 H   0  0  0  0  0  0  0  0  0  0  0  0
   -5.3177    1.4204    1.9391 H   0  0  0  0  0  0  0  0  0  0  0  0
   -3.1524    1.6042    3.1280 H   0  0  0  0  0  0  0  0  0  0  0  0
   -0.7339    1.3075    3.1499 H   0  0  0  0  0  0  0  0  0  0  0  0
    1.3223    0.6035    2.0083 H   0  0  0  0  0  0  0  0  0  0  0  0
  1  2  1  0  0  0  0
  2  3  1  0  0  0  0
  3  4  1  0  0  0  0
  4  5  1  0  0  0  0
  3  6  1  0  0  0  0
  6  7  2  0  0  0  0
  7  8  1  0  0  0  0
  8  9  2  0  0  0  0
  9 10  1  0  0  0  0
 10 11  2  0  0  0  0
 11 12  1  0  0  0  0
 12 13  2  0  0  0  0
 13 14  1  0  0  0  0
 14 15  2  0  0  0  0
 15 16  1  0  0  0  0
 16 17  2  0  0  0  0
 17 18  1  0  0  0  0
 18 19  2  0  0  0  0
 18 20  1  0  0  0  0
 20 21  2  0  0  0  0
 19  6  1  0  0  0  0
 20  8  1  0  0  0  0
 21 11  1  0  0  0  0
 21 15  1  0  0  0  0
  1 22  1  0  0  0  0
  1 23  1  0  0  0  0
  1 24  1  0  0  0  0
  2 25  1  0  0  0  0
  2 26  1  0  0  0  0
  4 27  1  0  0  0  0
  4 28  1  0  0  0  0
  5 29  1  0  0  0  0
  5 30  1  0  0  0  0
  5 31  1  0  0  0  0
  7 32  1  0  0  0  0
  9 33  1  0  0  0  0
 10 34  1  0  0  0  0
 12 35  1  0  0  0  0
 13 36  1  0  0  0  0
 14 37  1  0  0  0  0
 16 38  1  0  0  0  0
 17 39  1  0  0  0  0
 19 40  1  0  0  0  0
M  END
