
  xtb     03212210133D
 energy: -5.615084813728 gnorm: 0.000208587715 xtb: 6.4.1 (afa7bdf)
 25 26  0     0  0            999 V2000
   -1.8373    0.0390    1.8687 C   0  0  0  0  0  0  0  0  0  0  0  0
   -1.8855   -0.5490    0.5325 N   0  0  0  0  0  0  0  0  0  0  0  0
   -2.9684   -1.2013    0.0026 C   0  0  0  0  0  0  0  0  0  0  0  0
   -2.6514   -1.5998   -1.2704 C   0  0  0  0  0  0  0  0  0  0  0  0
   -1.3461   -1.1906   -1.5346 C   0  0  0  0  0  0  0  0  0  0  0  0
   -0.8624   -0.5481   -0.4081 C   0  0  0  0  0  0  0  0  0  0  0  0
    0.4731    0.0569   -0.2642 C   0  0  0  0  0  0  0  0  0  0  0  0
    0.9286    0.9495   -1.2287 C   0  0  0  0  0  0  0  0  0  0  0  0
    2.1791    1.5376   -1.1424 C   0  0  0  0  0  0  0  0  0  0  0  0
    2.6087    2.4389   -2.1277 C   0  0  0  0  0  0  0  0  0  0  0  0
    2.9597    3.1852   -2.9455 N   0  0  0  0  0  0  0  0  0  0  0  0
    2.9964    1.2189   -0.0650 C   0  0  0  0  0  0  0  0  0  0  0  0
    2.5699    0.3330    0.8959 C   0  0  0  0  0  0  0  0  0  0  0  0
    1.3172   -0.2604    0.8169 C   0  0  0  0  0  0  0  0  0  0  0  0
    0.9287   -1.1683    1.8091 C   0  0  0  0  0  0  0  0  0  0  0  0
    0.5856   -1.9036    2.6406 N   0  0  0  0  0  0  0  0  0  0  0  0
   -1.5214   -0.7151    2.5872 H   0  0  0  0  0  0  0  0  0  0  0  0
   -1.1310    0.8658    1.8894 H   0  0  0  0  0  0  0  0  0  0  0  0
   -2.8197    0.4097    2.1521 H   0  0  0  0  0  0  0  0  0  0  0  0
   -3.9026   -1.3606    0.5165 H   0  0  0  0  0  0  0  0  0  0  0  0
   -3.2974   -2.1364   -1.9473 H   0  0  0  0  0  0  0  0  0  0  0  0
   -0.7962   -1.3548   -2.4468 H   0  0  0  0  0  0  0  0  0  0  0  0
    0.2928    1.1959   -2.0602 H   0  0  0  0  0  0  0  0  0  0  0  0
    3.9699    1.6740    0.0038 H   0  0  0  0  0  0  0  0  0  0  0  0
    3.2096    0.0838    1.7256 H   0  0  0  0  0  0  0  0  0  0  0  0
  1  2  1  0  0  0  0
  2  3  1  0  0  0  0
  3  4  2  0  0  0  0
  4  5  1  0  0  0  0
  5  6  2  0  0  0  0
  6  7  1  0  0  0  0
  7  8  2  0  0  0  0
  8  9  1  0  0  0  0
  9 10  1  0  0  0  0
 10 11  3  0  0  0  0
  9 12  2  0  0  0  0
 12 13  1  0  0  0  0
 13 14  2  0  0  0  0
 14 15  1  0  0  0  0
 15 16  3  0  0  0  0
  6  2  1  0  0  0  0
 14  7  1  0  0  0  0
  1 17  1  0  0  0  0
  1 18  1  0  0  0  0
  1 19  1  0  0  0  0
  3 20  1  0  0  0  0
  4 21  1  0  0  0  0
  5 22  1  0  0  0  0
  8 23  1  0  0  0  0
 12 24  1  0  0  0  0
 13 25  1  0  0  0  0
M  END
