
  xtb     03212210133D
 energy: -7.254654707393 gnorm: 0.000293109935 xtb: 6.4.1 (afa7bdf)
 33 35  0     0  0            999 V2000
    8.3803   -0.3720   -1.0898 N   0  0  0  0  0  0  0  0  0  0  0  0
    7.2378   -0.2710   -0.9029 C   0  0  0  0  0  0  0  0  0  0  0  0
    5.8603   -0.1474   -0.6761 C   0  0  0  0  0  0  0  0  0  0  0  0
    4.9646   -1.0386   -1.2537 C   0  0  0  0  0  0  0  0  0  0  0  0
    3.6143   -0.9174   -1.0314 C   0  0  0  0  0  0  0  0  0  0  0  0
    3.1071    0.1008   -0.2220 C   0  0  0  0  0  0  0  0  0  0  0  0
    1.6767    0.1990   -0.0092 C   0  0  0  0  0  0  0  0  0  0  0  0
    1.0547    1.1209    0.7395 C   0  0  0  0  0  0  0  0  0  0  0  0
   -0.3732    1.1284    0.8844 C   0  0  0  0  0  0  0  0  0  0  0  0
   -1.0394    2.0241    1.6179 N   0  0  0  0  0  0  0  0  0  0  0  0
   -2.3198    1.7036    1.5036 C   0  0  0  0  0  0  0  0  0  0  0  0
   -2.4591    0.5803    0.6790 C   0  0  0  0  0  0  0  0  0  0  0  0
   -3.6946   -0.0991    0.2925 C   0  0  0  0  0  0  0  0  0  0  0  0
   -4.9453    0.3259    0.7317 C   0  0  0  0  0  0  0  0  0  0  0  0
   -6.0856   -0.3419    0.3446 C   0  0  0  0  0  0  0  0  0  0  0  0
   -5.9971   -1.4416   -0.4847 C   0  0  0  0  0  0  0  0  0  0  0  0
   -4.7638   -1.8739   -0.9277 C   0  0  0  0  0  0  0  0  0  0  0  0
   -3.6224   -1.2077   -0.5419 C   0  0  0  0  0  0  0  0  0  0  0  0
   -1.2062    0.2175    0.2860 O   0  0  0  0  0  0  0  0  0  0  0  0
    4.0135    0.9926    0.3549 C   0  0  0  0  0  0  0  0  0  0  0  0
    5.3638    0.8690    0.1308 C   0  0  0  0  0  0  0  0  0  0  0  0
    5.3463   -1.8271   -1.8795 H   0  0  0  0  0  0  0  0  0  0  0  0
    2.9307   -1.6145   -1.4849 H   0  0  0  0  0  0  0  0  0  0  0  0
    1.0583   -0.5345   -0.4962 H   0  0  0  0  0  0  0  0  0  0  0  0
    1.6089    1.8821    1.2534 H   0  0  0  0  0  0  0  0  0  0  0  0
   -3.1169    2.2468    1.9869 H   0  0  0  0  0  0  0  0  0  0  0  0
   -5.0165    1.1828    1.3781 H   0  0  0  0  0  0  0  0  0  0  0  0
   -7.0491   -0.0052    0.6899 H   0  0  0  0  0  0  0  0  0  0  0  0
   -6.8909   -1.9625   -0.7862 H   0  0  0  0  0  0  0  0  0  0  0  0
   -4.6936   -2.7322   -1.5751 H   0  0  0  0  0  0  0  0  0  0  0  0
   -2.6539   -1.5346   -0.8803 H   0  0  0  0  0  0  0  0  0  0  0  0
    3.6534    1.7872    0.9832 H   0  0  0  0  0  0  0  0  0  0  0  0
    6.0567    1.5604    0.5791 H   0  0  0  0  0  0  0  0  0  0  0  0
  1  2  3  0  0  0  0
  2  3  1  0  0  0  0
  3  4  2  0  0  0  0
  4  5  1  0  0  0  0
  5  6  2  0  0  0  0
  6  7  1  0  0  0  0
  7  8  2  0  0  0  0
  8  9  1  0  0  0  0
  9 10  2  0  0  0  0
 10 11  1  0  0  0  0
 11 12  2  0  0  0  0
 12 13  1  0  0  0  0
 13 14  2  0  0  0  0
 14 15  1  0  0  0  0
 15 16  2  0  0  0  0
 16 17  1  0  0  0  0
 17 18  2  0  0  0  0
 12 19  1  0  0  0  0
  6 20  1  0  0  0  0
 20 21  2  0  0  0  0
 21  3  1  0  0  0  0
 19  9  1  0  0  0  0
 18 13  1  0  0  0  0
  4 22  1  0  0  0  0
  5 23  1  0  0  0  0
  7 24  1  0  0  0  0
  8 25  1  0  0  0  0
 11 26  1  0  0  0  0
 14 27  1  0  0  0  0
 15 28  1  0  0  0  0
 16 29  1  0  0  0  0
 17 30  1  0  0  0  0
 18 31  1  0  0  0  0
 20 32  1  0  0  0  0
 21 33  1  0  0  0  0
M  END
