
  xtb     03212210133D
 energy: -7.067781516143 gnorm: 0.000318562786 xtb: 6.4.1 (afa7bdf)
 35 36  0     0  0            999 V2000
   -5.5822    1.1282   -0.1528 C   0  0  0  0  0  0  0  0  0  0  0  0
   -4.6787    0.0666   -0.5956 N   0  0  0  0  0  0  0  0  0  0  0  0
   -5.2894   -1.0874   -1.2545 C   0  0  0  0  0  0  0  0  0  0  0  0
   -3.2922    0.1474   -0.3899 C   0  0  0  0  0  0  0  0  0  0  0  0
   -2.7253    1.2165    0.3132 C   0  0  0  0  0  0  0  0  0  0  0  0
   -1.3702    1.2944    0.5124 C   0  0  0  0  0  0  0  0  0  0  0  0
   -0.5072    0.3093    0.0200 C   0  0  0  0  0  0  0  0  0  0  0  0
    0.9191    0.4305    0.2484 C   0  0  0  0  0  0  0  0  0  0  0  0
    1.8526   -0.4465   -0.1612 C   0  0  0  0  0  0  0  0  0  0  0  0
    3.2816   -0.3217    0.0619 C   0  0  0  0  0  0  0  0  0  0  0  0
    3.8502    0.7695    0.7237 C   0  0  0  0  0  0  0  0  0  0  0  0
    5.2098    0.8518    0.9116 C   0  0  0  0  0  0  0  0  0  0  0  0
    6.0545   -0.1501    0.4473 C   0  0  0  0  0  0  0  0  0  0  0  0
    7.4406   -0.0630    0.6390 C   0  0  0  0  0  0  0  0  0  0  0  0
    8.5896    0.0105    0.7975 N   0  0  0  0  0  0  0  0  0  0  0  0
    5.4967   -1.2394   -0.2119 C   0  0  0  0  0  0  0  0  0  0  0  0
    4.1380   -1.3236   -0.4010 C   0  0  0  0  0  0  0  0  0  0  0  0
   -1.0731   -0.7605   -0.6824 C   0  0  0  0  0  0  0  0  0  0  0  0
   -2.4287   -0.8386   -0.8810 C   0  0  0  0  0  0  0  0  0  0  0  0
   -5.5897    1.1813    0.9341 H   0  0  0  0  0  0  0  0  0  0  0  0
   -5.2590    2.0861   -0.5551 H   0  0  0  0  0  0  0  0  0  0  0  0
   -6.5990    0.9467   -0.4941 H   0  0  0  0  0  0  0  0  0  0  0  0
   -6.3751   -1.0209   -1.2363 H   0  0  0  0  0  0  0  0  0  0  0  0
   -4.9998   -2.0045   -0.7455 H   0  0  0  0  0  0  0  0  0  0  0  0
   -4.9670   -1.1378   -2.2925 H   0  0  0  0  0  0  0  0  0  0  0  0
   -3.3647    1.9850    0.7087 H   0  0  0  0  0  0  0  0  0  0  0  0
   -0.9547    2.1248    1.0571 H   0  0  0  0  0  0  0  0  0  0  0  0
    1.2354    1.3008    0.7928 H   0  0  0  0  0  0  0  0  0  0  0  0
    1.5363   -1.3194   -0.7003 H   0  0  0  0  0  0  0  0  0  0  0  0
    3.2207    1.5600    1.0910 H   0  0  0  0  0  0  0  0  0  0  0  0
    5.6398    1.6966    1.4217 H   0  0  0  0  0  0  0  0  0  0  0  0
    6.1475   -2.0171   -0.5729 H   0  0  0  0  0  0  0  0  0  0  0  0
    3.7194   -2.1729   -0.9137 H   0  0  0  0  0  0  0  0  0  0  0  0
   -0.4389   -1.5339   -1.0762 H   0  0  0  0  0  0  0  0  0  0  0  0
   -2.8368   -1.6683   -1.4297 H   0  0  0  0  0  0  0  0  0  0  0  0
  1  2  1  0  0  0  0
  2  3  1  0  0  0  0
  2  4  1  0  0  0  0
  4  5  2  0  0  0  0
  5  6  1  0  0  0  0
  6  7  2  0  0  0  0
  7  8  1  0  0  0  0
  8  9  2  0  0  0  0
  9 10  1  0  0  0  0
 10 11  2  0  0  0  0
 11 12  1  0  0  0  0
 12 13  2  0  0  0  0
 13 14  1  0  0  0  0
 14 15  3  0  0  0  0
 13 16  1  0  0  0  0
 16 17  2  0  0  0  0
  7 18  1  0  0  0  0
 18 19  2  0  0  0  0
 19  4  1  0  0  0  0
 17 10  1  0  0  0  0
  1 20  1  0  0  0  0
  1 21  1  0  0  0  0
  1 22  1  0  0  0  0
  3 23  1  0  0  0  0
  3 24  1  0  0  0  0
  3 25  1  0  0  0  0
  5 26  1  0  0  0  0
  6 27  1  0  0  0  0
  8 28  1  0  0  0  0
  9 29  1  0  0  0  0
 11 30  1  0  0  0  0
 12 31  1  0  0  0  0
 16 32  1  0  0  0  0
 17 33  1  0  0  0  0
 18 34  1  0  0  0  0
 19 35  1  0  0  0  0
M  END
