
  xtb     03212210143D
 energy: -6.939089595634 gnorm: 0.000281228447 xtb: 6.4.1 (afa7bdf)
 32 35  0     0  0            999 V2000
   -2.1662   -2.9276   -0.3372 O   0  0  0  0  0  0  0  0  0  0  0  0
   -1.1584   -2.2431   -0.2192 C   0  0  0  0  0  0  0  0  0  0  0  0
    0.0906   -2.7968   -0.3039 O   0  0  0  0  0  0  0  0  0  0  0  0
    1.1567   -1.9565   -0.1553 C   0  0  0  0  0  0  0  0  0  0  0  0
    2.4624   -2.4964   -0.2361 C   0  0  0  0  0  0  0  0  0  0  0  0
    3.5601   -1.7162   -0.0950 C   0  0  0  0  0  0  0  0  0  0  0  0
    3.4326   -0.3234    0.1400 C   0  0  0  0  0  0  0  0  0  0  0  0
    4.5530    0.5140    0.2918 C   0  0  0  0  0  0  0  0  0  0  0  0
    4.3970    1.8509    0.5187 C   0  0  0  0  0  0  0  0  0  0  0  0
    3.1214    2.4078    0.6036 C   0  0  0  0  0  0  0  0  0  0  0  0
    2.0162    1.6199    0.4597 C   0  0  0  0  0  0  0  0  0  0  0  0
    2.1409    0.2414    0.2251 C   0  0  0  0  0  0  0  0  0  0  0  0
    0.9829   -0.5896    0.0737 C   0  0  0  0  0  0  0  0  0  0  0  0
   -0.2483   -0.0225    0.1574 N   0  0  0  0  0  0  0  0  0  0  0  0
   -1.2871   -0.8040    0.0167 C   0  0  0  0  0  0  0  0  0  0  0  0
   -2.6019   -0.1692    0.1046 C   0  0  0  0  0  0  0  0  0  0  0  0
   -3.8048   -0.8681   -0.0306 C   0  0  0  0  0  0  0  0  0  0  0  0
   -5.0145   -0.2253    0.0567 C   0  0  0  0  0  0  0  0  0  0  0  0
   -5.0577    1.1408    0.2827 C   0  0  0  0  0  0  0  0  0  0  0  0
   -6.5744    1.9505    0.3882 Cl  0  0  0  0  0  0  0  0  0  0  0  0
   -3.8787    1.8549    0.4211 C   0  0  0  0  0  0  0  0  0  0  0  0
   -2.6709    1.2075    0.3329 C   0  0  0  0  0  0  0  0  0  0  0  0
    2.5551   -3.5529   -0.4140 H   0  0  0  0  0  0  0  0  0  0  0  0
    4.5446   -2.1458   -0.1594 H   0  0  0  0  0  0  0  0  0  0  0  0
    5.5378    0.0853    0.2268 H   0  0  0  0  0  0  0  0  0  0  0  0
    5.2634    2.4824    0.6336 H   0  0  0  0  0  0  0  0  0  0  0  0
    3.0101    3.4641    0.7840 H   0  0  0  0  0  0  0  0  0  0  0  0
    1.0289    2.0414    0.5239 H   0  0  0  0  0  0  0  0  0  0  0  0
   -3.7729   -1.9277   -0.2059 H   0  0  0  0  0  0  0  0  0  0  0  0
   -5.9388   -0.7676   -0.0486 H   0  0  0  0  0  0  0  0  0  0  0  0
   -3.9272    2.9160    0.5969 H   0  0  0  0  0  0  0  0  0  0  0  0
   -1.7518    1.7556    0.4379 H   0  0  0  0  0  0  0  0  0  0  0  0
  1  2  2  0  0  0  0
  2  3  1  0  0  0  0
  3  4  1  0  0  0  0
  4  5  2  0  0  0  0
  5  6  1  0  0  0  0
  6  7  2  0  0  0  0
  7  8  1  0  0  0  0
  8  9  2  0  0  0  0
  9 10  1  0  0  0  0
 10 11  2  0  0  0  0
 11 12  1  0  0  0  0
 12 13  2  0  0  0  0
 13 14  1  0  0  0  0
 14 15  2  0  0  0  0
 15 16  1  0  0  0  0
 16 17  2  0  0  0  0
 17 18  1  0  0  0  0
 18 19  2  0  0  0  0
 19 20  1  0  0  0  0
 19 21  1  0  0  0  0
 21 22  2  0  0  0  0
 15  2  1  0  0  0  0
 22 16  1  0  0  0  0
 13  4  1  0  0  0  0
 12  7  1  0  0  0  0
  5 23  1  0  0  0  0
  6 24  1  0  0  0  0
  8 25  1  0  0  0  0
  9 26  1  0  0  0  0
 10 27  1  0  0  0  0
 11 28  1  0  0  0  0
 17 29  1  0  0  0  0
 18 30  1  0  0  0  0
 21 31  1  0  0  0  0
 22 32  1  0  0  0  0
M  END
