
  xtb     03212210143D
 energy: -6.904037316538 gnorm: 0.000398641758 xtb: 6.4.1 (afa7bdf)
 33 36  0     0  0            999 V2000
    1.7785    2.8053    0.0906 C   0  0  0  0  0  0  0  0  0  0  0  0
    1.3272    1.3901    0.0476 C   0  0  0  0  0  0  0  0  0  0  0  0
    2.2448    0.3189    0.0799 C   0  0  0  0  0  0  0  0  0  0  0  0
    3.6406    0.5215    0.1627 C   0  0  0  0  0  0  0  0  0  0  0  0
    4.4780   -0.5407    0.2035 C   0  0  0  0  0  0  0  0  0  0  0  0
    4.0869   -1.8284    0.1800 N   0  0  0  0  0  0  0  0  0  0  0  0
    2.8051   -2.0343    0.1001 C   0  0  0  0  0  0  0  0  0  0  0  0
    1.8031   -1.0348    0.0325 C   0  0  0  0  0  0  0  0  0  0  0  0
    0.4194   -1.3415   -0.0701 C   0  0  0  0  0  0  0  0  0  0  0  0
   -0.0760   -2.7388   -0.1951 C   0  0  0  0  0  0  0  0  0  0  0  0
   -0.4782   -0.2796   -0.0521 C   0  0  0  0  0  0  0  0  0  0  0  0
   -0.0237    1.0718   -0.0074 C   0  0  0  0  0  0  0  0  0  0  0  0
   -1.1384    1.9081   -0.0281 N   0  0  0  0  0  0  0  0  0  0  0  0
   -2.2955    1.1375   -0.0668 C   0  0  0  0  0  0  0  0  0  0  0  0
   -3.6367    1.5212   -0.0781 C   0  0  0  0  0  0  0  0  0  0  0  0
   -4.6004    0.5444   -0.0850 C   0  0  0  0  0  0  0  0  0  0  0  0
   -4.2502   -0.8074   -0.0737 C   0  0  0  0  0  0  0  0  0  0  0  0
   -2.9325   -1.2003   -0.0637 C   0  0  0  0  0  0  0  0  0  0  0  0
   -1.9326   -0.2246   -0.0720 C   0  0  0  0  0  0  0  0  0  0  0  0
    2.2813    3.0244    1.0334 H   0  0  0  0  0  0  0  0  0  0  0  0
    2.4717    3.0181   -0.7242 H   0  0  0  0  0  0  0  0  0  0  0  0
    0.9412    3.4957   -0.0054 H   0  0  0  0  0  0  0  0  0  0  0  0
    4.0329    1.5222    0.1964 H   0  0  0  0  0  0  0  0  0  0  0  0
    5.5426   -0.3735    0.2667 H   0  0  0  0  0  0  0  0  0  0  0  0
    2.5077   -3.0684    0.1105 H   0  0  0  0  0  0  0  0  0  0  0  0
   -0.4533   -3.1058    0.7600 H   0  0  0  0  0  0  0  0  0  0  0  0
   -0.8783   -2.7973   -0.9307 H   0  0  0  0  0  0  0  0  0  0  0  0
    0.6987   -3.4222   -0.5390 H   0  0  0  0  0  0  0  0  0  0  0  0
   -1.1254    2.9274   -0.0048 H   0  0  0  0  0  0  0  0  0  0  0  0
   -3.8931    2.5655   -0.0772 H   0  0  0  0  0  0  0  0  0  0  0  0
   -5.6416    0.8230   -0.0931 H   0  0  0  0  0  0  0  0  0  0  0  0
   -5.0270   -1.5541   -0.0686 H   0  0  0  0  0  0  0  0  0  0  0  0
   -2.6769   -2.2431   -0.0290 H   0  0  0  0  0  0  0  0  0  0  0  0
  1  2  1  0  0  0  0
  2  3  2  0  0  0  0
  3  4  1  0  0  0  0
  4  5  2  0  0  0  0
  5  6  1  0  0  0  0
  6  7  2  0  0  0  0
  7  8  1  0  0  0  0
  8  9  2  0  0  0  0
  9 10  1  0  0  0  0
  9 11  1  0  0  0  0
 11 12  2  0  0  0  0
 12 13  1  0  0  0  0
 13 14  1  0  0  0  0
 14 15  2  0  0  0  0
 15 16  1  0  0  0  0
 16 17  2  0  0  0  0
 17 18  1  0  0  0  0
 18 19  2  0  0  0  0
 12  2  1  0  0  0  0
 19 14  1  0  0  0  0
  8  3  1  0  0  0  0
 19 11  1  0  0  0  0
  1 20  1  0  0  0  0
  1 21  1  0  0  0  0
  1 22  1  0  0  0  0
  4 23  1  0  0  0  0
  5 24  1  0  0  0  0
  7 25  1  0  0  0  0
 10 26  1  0  0  0  0
 10 27  1  0  0  0  0
 10 28  1  0  0  0  0
 13 29  1  0  0  0  0
 15 30  1  0  0  0  0
 16 31  1  0  0  0  0
 17 32  1  0  0  0  0
 18 33  1  0  0  0  0
M  END
