
  xtb     03212210143D
 energy: -15.571819107983 gnorm: 0.000297635926 xtb: 6.4.1 (afa7bdf)
 76 82  0     0  0            999 V2000
    0.8835    4.0702   -0.9701 C   0  0  0  0  0  0  0  0  0  0  0  0
    0.9735    3.3105    0.3347 C   0  0  0  0  0  0  0  0  0  0  0  0
    0.6198    1.8872    0.1959 N   0  0  0  0  0  0  0  0  0  0  0  0
   -0.6721    1.4110    0.0736 C   0  0  0  0  0  0  0  0  0  0  0  0
   -1.8603    2.2803   -0.0528 C   0  0  0  0  0  0  0  0  0  0  0  0
   -2.5964    2.6491    1.0743 C   0  0  0  0  0  0  0  0  0  0  0  0
   -3.7221    3.4251    0.9580 C   0  0  0  0  0  0  0  0  0  0  0  0
   -4.1644    3.8678   -0.2938 C   0  0  0  0  0  0  0  0  0  0  0  0
   -5.3014    4.6521   -0.5032 O   0  0  0  0  0  0  0  0  0  0  0  0
   -6.0052    4.9927    0.6666 C   0  0  0  0  0  0  0  0  0  0  0  0
   -3.4190    3.4988   -1.4187 C   0  0  0  0  0  0  0  0  0  0  0  0
   -2.2925    2.7257   -1.3037 C   0  0  0  0  0  0  0  0  0  0  0  0
   -0.6371    0.0089    0.1405 C   0  0  0  0  0  0  0  0  0  0  0  0
   -1.7897   -0.9012    0.0259 C   0  0  0  0  0  0  0  0  0  0  0  0
   -1.6936   -2.2667    0.3889 C   0  0  0  0  0  0  0  0  0  0  0  0
   -2.7500   -3.1162    0.2852 C   0  0  0  0  0  0  0  0  0  0  0  0
   -3.9979   -2.6611   -0.1963 C   0  0  0  0  0  0  0  0  0  0  0  0
   -5.1193   -3.5092   -0.3199 C   0  0  0  0  0  0  0  0  0  0  0  0
   -6.3051   -3.0275   -0.7893 C   0  0  0  0  0  0  0  0  0  0  0  0
   -6.4295   -1.6819   -1.1561 C   0  0  0  0  0  0  0  0  0  0  0  0
   -5.3673   -0.8361   -1.0496 C   0  0  0  0  0  0  0  0  0  0  0  0
   -4.1226   -1.3031   -0.5679 C   0  0  0  0  0  0  0  0  0  0  0  0
   -3.0050   -0.4561   -0.4468 C   0  0  0  0  0  0  0  0  0  0  0  0
    0.7270   -0.3524    0.3243 C   0  0  0  0  0  0  0  0  0  0  0  0
    1.2943   -1.7166    0.4431 C   0  0  0  0  0  0  0  0  0  0  0  0
    1.3645   -2.3594    1.7032 C   0  0  0  0  0  0  0  0  0  0  0  0
    1.8848   -3.6088    1.8260 C   0  0  0  0  0  0  0  0  0  0  0  0
    2.3762   -4.3000    0.6938 C   0  0  0  0  0  0  0  0  0  0  0  0
    2.9235   -5.5978    0.7856 C   0  0  0  0  0  0  0  0  0  0  0  0
    3.3899   -6.2357   -0.3250 C   0  0  0  0  0  0  0  0  0  0  0  0
    3.3338   -5.6127   -1.5773 C   0  0  0  0  0  0  0  0  0  0  0  0
    2.8127   -4.3607   -1.7032 C   0  0  0  0  0  0  0  0  0  0  0  0
    2.3193   -3.6691   -0.5727 C   0  0  0  0  0  0  0  0  0  0  0  0
    1.7736   -2.3739   -0.6675 C   0  0  0  0  0  0  0  0  0  0  0  0
    1.4886    0.8231    0.3354 C   0  0  0  0  0  0  0  0  0  0  0  0
    2.9486    0.9124    0.4795 C   0  0  0  0  0  0  0  0  0  0  0  0
    3.6287    0.1546    1.4343 C   0  0  0  0  0  0  0  0  0  0  0  0
    4.9913    0.2391    1.5617 C   0  0  0  0  0  0  0  0  0  0  0  0
    5.7463    1.0818    0.7395 C   0  0  0  0  0  0  0  0  0  0  0  0
    7.1288    1.1101    0.9377 O   0  0  0  0  0  0  0  0  0  0  0  0
    7.8301    1.9739    0.0763 C   0  0  0  0  0  0  0  0  0  0  0  0
    5.0639    1.8340   -0.2227 C   0  0  0  0  0  0  0  0  0  0  0  0
    3.6998    1.7480   -0.3482 C   0  0  0  0  0  0  0  0  0  0  0  0
   -0.1440    4.1088   -1.3349 H   0  0  0  0  0  0  0  0  0  0  0  0
    1.2330    5.1012   -0.8698 H   0  0  0  0  0  0  0  0  0  0  0  0
    1.4790    3.5908   -1.7492 H   0  0  0  0  0  0  0  0  0  0  0  0
    0.3099    3.7486    1.0875 H   0  0  0  0  0  0  0  0  0  0  0  0
    1.9815    3.3720    0.7568 H   0  0  0  0  0  0  0  0  0  0  0  0
   -2.2694    2.3048    2.0399 H   0  0  0  0  0  0  0  0  0  0  0  0
   -4.2727    3.6912    1.8416 H   0  0  0  0  0  0  0  0  0  0  0  0
   -5.3627    5.5697    1.3328 H   0  0  0  0  0  0  0  0  0  0  0  0
   -6.8649    5.6035    0.3890 H   0  0  0  0  0  0  0  0  0  0  0  0
   -6.3599    4.0891    1.1639 H   0  0  0  0  0  0  0  0  0  0  0  0
   -3.7560    3.8366   -2.3825 H   0  0  0  0  0  0  0  0  0  0  0  0
   -1.7374    2.4369   -2.1792 H   0  0  0  0  0  0  0  0  0  0  0  0
   -0.7589   -2.6404    0.7591 H   0  0  0  0  0  0  0  0  0  0  0  0
   -2.6482   -4.1490    0.5688 H   0  0  0  0  0  0  0  0  0  0  0  0
   -5.0246   -4.5438   -0.0378 H   0  0  0  0  0  0  0  0  0  0  0  0
   -7.1549   -3.6843   -0.8796 H   0  0  0  0  0  0  0  0  0  0  0  0
   -7.3741   -1.3160   -1.5246 H   0  0  0  0  0  0  0  0  0  0  0  0
   -5.4627    0.1992   -1.3284 H   0  0  0  0  0  0  0  0  0  0  0  0
   -3.1192    0.5667   -0.7441 H   0  0  0  0  0  0  0  0  0  0  0  0
    0.9892   -1.8380    2.5676 H   0  0  0  0  0  0  0  0  0  0  0  0
    1.9308   -4.0874    2.7883 H   0  0  0  0  0  0  0  0  0  0  0  0
    2.9680   -6.0774    1.7484 H   0  0  0  0  0  0  0  0  0  0  0  0
    3.8059   -7.2265   -0.2416 H   0  0  0  0  0  0  0  0  0  0  0  0
    3.7071   -6.1300   -2.4463 H   0  0  0  0  0  0  0  0  0  0  0  0
    2.7703   -3.8821   -2.6663 H   0  0  0  0  0  0  0  0  0  0  0  0
    1.7283   -1.8875   -1.6251 H   0  0  0  0  0  0  0  0  0  0  0  0
    3.0679   -0.5010    2.0751 H   0  0  0  0  0  0  0  0  0  0  0  0
    5.5105   -0.3459    2.2999 H   0  0  0  0  0  0  0  0  0  0  0  0
    7.6870    1.6632   -0.9593 H   0  0  0  0  0  0  0  0  0  0  0  0
    8.8919    1.9179    0.3180 H   0  0  0  0  0  0  0  0  0  0  0  0
    7.4890    2.9999    0.2192 H   0  0  0  0  0  0  0  0  0  0  0  0
    5.6140    2.4859   -0.8763 H   0  0  0  0  0  0  0  0  0  0  0  0
    3.1940    2.3127   -1.1101 H   0  0  0  0  0  0  0  0  0  0  0  0
  1  2  1  0  0  0  0
  2  3  1  0  0  0  0
  3  4  1  0  0  0  0
  4  5  1  0  0  0  0
  5  6  2  0  0  0  0
  6  7  1  0  0  0  0
  7  8  2  0  0  0  0
  8  9  1  0  0  0  0
  9 10  1  0  0  0  0
  8 11  1  0  0  0  0
 11 12  2  0  0  0  0
  4 13  2  0  0  0  0
 13 14  1  0  0  0  0
 14 15  2  0  0  0  0
 15 16  1  0  0  0  0
 16 17  2  0  0  0  0
 17 18  1  0  0  0  0
 18 19  2  0  0  0  0
 19 20  1  0  0  0  0
 20 21  2  0  0  0  0
 21 22  1  0  0  0  0
 22 23  2  0  0  0  0
 13 24  1  0  0  0  0
 24 25  1  0  0  0  0
 25 26  2  0  0  0  0
 26 27  1  0  0  0  0
 27 28  2  0  0  0  0
 28 29  1  0  0  0  0
 29 30  2  0  0  0  0
 30 31  1  0  0  0  0
 31 32  2  0  0  0  0
 32 33  1  0  0  0  0
 33 34  2  0  0  0  0
 24 35  2  0  0  0  0
 35 36  1  0  0  0  0
 36 37  2  0  0  0  0
 37 38  1  0  0  0  0
 38 39  2  0  0  0  0
 39 40  1  0  0  0  0
 40 41  1  0  0  0  0
 39 42  1  0  0  0  0
 42 43  2  0  0  0  0
 35  3  1  0  0  0  0
 43 36  1  0  0  0  0
 12  5  1  0  0  0  0
 23 14  1  0  0  0  0
 34 25  1  0  0  0  0
 22 17  1  0  0  0  0
 33 28  1  0  0  0  0
  1 44  1  0  0  0  0
  1 45  1  0  0  0  0
  1 46  1  0  0  0  0
  2 47  1  0  0  0  0
  2 48  1  0  0  0  0
  6 49  1  0  0  0  0
  7 50  1  0  0  0  0
 10 51  1  0  0  0  0
 10 52  1  0  0  0  0
 10 53  1  0  0  0  0
 11 54  1  0  0  0  0
 12 55  1  0  0  0  0
 15 56  1  0  0  0  0
 16 57  1  0  0  0  0
 18 58  1  0  0  0  0
 19 59  1  0  0  0  0
 20 60  1  0  0  0  0
 21 61  1  0  0  0  0
 23 62  1  0  0  0  0
 26 63  1  0  0  0  0
 27 64  1  0  0  0  0
 29 65  1  0  0  0  0
 30 66  1  0  0  0  0
 31 67  1  0  0  0  0
 32 68  1  0  0  0  0
 34 69  1  0  0  0  0
 37 70  1  0  0  0  0
 38 71  1  0  0  0  0
 41 72  1  0  0  0  0
 41 73  1  0  0  0  0
 41 74  1  0  0  0  0
 42 75  1  0  0  0  0
 43 76  1  0  0  0  0
M  END
