
  xtb     03212210143D
 energy: -8.575463057075 gnorm: 0.000384515422 xtb: 6.4.1 (afa7bdf)
 44 47  0     0  0            999 V2000
    7.3460    0.5032    2.0685 O   0  0  0  0  0  0  0  0  0  0  0  0
    6.1125    0.4823    2.0027 N   0  0  0  0  0  4  0  0  0  0  0  0
    5.3762    0.6539    2.9813 O   0  0  0  0  0  1  0  0  0  0  0  0
    5.4850    0.2435    0.7084 C   0  0  0  0  0  0  0  0  0  0  0  0
    4.1111    0.2084    0.6353 C   0  0  0  0  0  0  0  0  0  0  0  0
    3.4690   -0.0120   -0.5745 C   0  0  0  0  0  0  0  0  0  0  0  0
    2.0906   -0.0408   -0.6346 N   0  0  0  0  0  0  0  0  0  0  0  0
    1.4244    0.1195    0.3942 N   0  0  0  0  0  0  0  0  0  0  0  0
    0.0476    0.1071    0.3530 C   0  0  0  0  0  0  0  0  0  0  0  0
   -0.6248   -0.0667   -0.8510 C   0  0  0  0  0  0  0  0  0  0  0  0
   -1.9990   -0.0752   -0.9137 C   0  0  0  0  0  0  0  0  0  0  0  0
   -2.7466    0.0983    0.2684 C   0  0  0  0  0  0  0  0  0  0  0  0
   -2.0733    0.2654    1.4955 C   0  0  0  0  0  0  0  0  0  0  0  0
   -0.6976    0.2707    1.5165 C   0  0  0  0  0  0  0  0  0  0  0  0
   -2.8342    0.4383    2.7807 C   0  0  0  0  0  0  0  0  0  0  0  0
   -4.2701   -0.0990    2.7021 C   0  0  0  0  0  0  0  0  0  0  0  0
   -4.9620    0.3765    1.4268 C   0  0  0  0  0  0  0  0  0  0  0  0
   -4.1483    0.1052    0.2239 N   0  0  0  0  0  0  0  0  0  0  0  0
   -4.8902   -0.0079   -1.0494 C   0  0  0  0  0  0  0  0  0  0  0  0
   -4.1127   -0.8005   -2.0978 C   0  0  0  0  0  0  0  0  0  0  0  0
   -2.6812   -0.2653   -2.2393 C   0  0  0  0  0  0  0  0  0  0  0  0
    4.2412   -0.1983   -1.7144 C   0  0  0  0  0  0  0  0  0  0  0  0
    5.6172   -0.1644   -1.6433 C   0  0  0  0  0  0  0  0  0  0  0  0
    6.4015   -0.3606   -2.8582 N   0  0  0  0  0  4  0  0  0  0  0  0
    7.6344   -0.3272   -2.7771 O   0  0  0  0  0  0  0  0  0  0  0  0
    5.7974   -0.5523   -3.9203 O   0  0  0  0  0  1  0  0  0  0  0  0
    6.2417    0.0568   -0.4313 C   0  0  0  0  0  0  0  0  0  0  0  0
    3.5337    0.3565    1.5306 H   0  0  0  0  0  0  0  0  0  0  0  0
   -0.0422   -0.1926   -1.7472 H   0  0  0  0  0  0  0  0  0  0  0  0
   -0.1732    0.4056    2.4471 H   0  0  0  0  0  0  0  0  0  0  0  0
   -2.8496    1.5031    3.0394 H   0  0  0  0  0  0  0  0  0  0  0  0
   -2.2862   -0.0562    3.5922 H   0  0  0  0  0  0  0  0  0  0  0  0
   -4.2507   -1.1953    2.7159 H   0  0  0  0  0  0  0  0  0  0  0  0
   -4.8460    0.2001    3.5886 H   0  0  0  0  0  0  0  0  0  0  0  0
   -5.9405   -0.1001    1.3094 H   0  0  0  0  0  0  0  0  0  0  0  0
   -5.1432    1.4544    1.4695 H   0  0  0  0  0  0  0  0  0  0  0  0
   -5.8635   -0.4684   -0.8524 H   0  0  0  0  0  0  0  0  0  0  0  0
   -5.0915    1.0056   -1.4083 H   0  0  0  0  0  0  0  0  0  0  0  0
   -4.0794   -1.8561   -1.8024 H   0  0  0  0  0  0  0  0  0  0  0  0
   -4.6336   -0.7778   -3.0648 H   0  0  0  0  0  0  0  0  0  0  0  0
   -2.6940    0.6941   -2.7688 H   0  0  0  0  0  0  0  0  0  0  0  0
   -2.0802   -0.9399   -2.8614 H   0  0  0  0  0  0  0  0  0  0  0  0
    3.7673   -0.3697   -2.6641 H   0  0  0  0  0  0  0  0  0  0  0  0
    7.3174    0.0848   -0.3759 H   0  0  0  0  0  0  0  0  0  0  0  0
  1  2  2  0  0  0  0
  2  3  1  0  0  0  0
  2  4  1  0  0  0  0
  4  5  2  0  0  0  0
  5  6  1  0  0  0  0
  6  7  1  0  0  0  0
  7  8  2  0  0  0  0
  8  9  1  0  0  0  0
  9 10  2  0  0  0  0
 10 11  1  0  0  0  0
 11 12  2  0  0  0  0
 12 13  1  0  0  0  0
 13 14  2  0  0  0  0
 13 15  1  0  0  0  0
 15 16  1  0  0  0  0
 16 17  1  0  0  0  0
 17 18  1  0  0  0  0
 18 19  1  0  0  0  0
 19 20  1  0  0  0  0
 20 21  1  0  0  0  0
  6 22  2  0  0  0  0
 22 23  1  0  0  0  0
 23 24  1  0  0  0  0
 24 25  2  0  0  0  0
 24 26  1  0  0  0  0
 23 27  2  0  0  0  0
 27  4  1  0  0  0  0
 14  9  1  0  0  0  0
 21 11  1  0  0  0  0
 18 12  1  0  0  0  0
  5 28  1  0  0  0  0
 10 29  1  0  0  0  0
 14 30  1  0  0  0  0
 15 31  1  0  0  0  0
 15 32  1  0  0  0  0
 16 33  1  0  0  0  0
 16 34  1  0  0  0  0
 17 35  1  0  0  0  0
 17 36  1  0  0  0  0
 19 37  1  0  0  0  0
 19 38  1  0  0  0  0
 20 39  1  0  0  0  0
 20 40  1  0  0  0  0
 21 41  1  0  0  0  0
 21 42  1  0  0  0  0
 22 43  1  0  0  0  0
 27 44  1  0  0  0  0
M  CHG  1   2   1
M  CHG  1   3  -1
M  CHG  1  24   1
M  CHG  1  26  -1
M  END
