
  xtb     03212210123D
 energy: -15.658764796162 gnorm: 0.000253890279 xtb: 6.4.1 (afa7bdf)
 78 84  0     0  0            999 V2000
  -11.3947    1.1652   -1.0768 C   0  0  0  0  0  0  0  0  0  0  0  0
  -10.4759   -0.0291   -1.2568 C   0  0  0  0  0  0  0  0  0  0  0  0
  -10.7594   -1.1463   -0.2514 C   0  0  0  0  0  0  0  0  0  0  0  0
   -9.8985   -2.3984   -0.4550 C   0  0  0  0  0  0  0  0  0  0  0  0
   -8.3947   -2.1215   -0.4687 C   0  0  0  0  0  0  0  0  0  0  0  0
   -7.8718   -1.4814    0.8074 C   0  0  0  0  0  0  0  0  0  0  0  0
   -6.5328   -0.9626    0.6171 N   0  0  0  0  0  0  0  0  0  0  0  0
   -6.3983    0.2158   -0.1282 C   0  0  0  0  0  0  0  0  0  0  0  0
   -7.3736    0.7825   -0.5911 O   0  0  0  0  0  0  0  0  0  0  0  0
   -5.0436    0.7295   -0.3415 C   0  0  0  0  0  0  0  0  0  0  0  0
   -4.8462    1.8758   -1.0714 C   0  0  0  0  0  0  0  0  0  0  0  0
   -3.5633    2.3540   -1.3089 C   0  0  0  0  0  0  0  0  0  0  0  0
   -2.4759    1.6995   -0.8019 C   0  0  0  0  0  0  0  0  0  0  0  0
   -2.6191    0.5385   -0.0174 C   0  0  0  0  0  0  0  0  0  0  0  0
   -1.4997   -0.1736    0.5345 C   0  0  0  0  0  0  0  0  0  0  0  0
   -0.1270    0.3062    0.4396 C   0  0  0  0  0  0  0  0  0  0  0  0
    0.3129    1.6043    0.4908 C   0  0  0  0  0  0  0  0  0  0  0  0
    1.7114    1.7454    0.3763 C   0  0  0  0  0  0  0  0  0  0  0  0
    2.3824    0.5590    0.2422 C   0  0  0  0  0  0  0  0  0  0  0  0
    3.8095    0.3825    0.1012 C   0  0  0  0  0  0  0  0  0  0  0  0
    4.7687    1.4185    0.0461 C   0  0  0  0  0  0  0  0  0  0  0  0
    5.9905    0.8179   -0.0803 C   0  0  0  0  0  0  0  0  0  0  0  0
    7.2998    1.4652   -0.1548 C   0  0  0  0  0  0  0  0  0  0  0  0
    7.4250    2.7748   -0.6203 C   0  0  0  0  0  0  0  0  0  0  0  0
    8.6520    3.3847   -0.6823 C   0  0  0  0  0  0  0  0  0  0  0  0
    9.8145    2.7203   -0.2792 C   0  0  0  0  0  0  0  0  0  0  0  0
   11.0214    3.4154   -0.3781 O   0  0  0  0  0  0  0  0  0  0  0  0
   12.1535    2.6945    0.0429 C   0  0  0  0  0  0  0  0  0  0  0  0
    9.6860    1.4104    0.1934 C   0  0  0  0  0  0  0  0  0  0  0  0
    8.4577    0.8024    0.2534 C   0  0  0  0  0  0  0  0  0  0  0  0
    5.7038   -0.5574   -0.1113 N   0  0  0  0  0  0  0  0  0  0  0  0
    6.6605   -1.6213   -0.3047 C   0  0  0  0  0  0  0  0  0  0  0  0
    7.4190   -1.6900   -1.4640 C   0  0  0  0  0  0  0  0  0  0  0  0
    8.3374   -2.7020   -1.6342 C   0  0  0  0  0  0  0  0  0  0  0  0
    8.5015   -3.6568   -0.6500 C   0  0  0  0  0  0  0  0  0  0  0  0
    7.7431   -3.6011    0.5029 C   0  0  0  0  0  0  0  0  0  0  0  0
    6.8244   -2.5893    0.6733 C   0  0  0  0  0  0  0  0  0  0  0  0
    4.4035   -0.8048    0.0051 N   0  0  0  0  0  0  0  0  0  0  0  0
    1.2507   -0.7571    0.2693 S   0  0  0  0  0  0  0  0  0  0  0  0
   -1.7375   -1.3720    1.1902 C   0  0  0  0  0  0  0  0  0  0  0  0
   -3.0170   -1.8632    1.3747 C   0  0  0  0  0  0  0  0  0  0  0  0
   -4.1126   -1.1789    0.9017 C   0  0  0  0  0  0  0  0  0  0  0  0
   -3.9275    0.0323    0.1892 C   0  0  0  0  0  0  0  0  0  0  0  0
   -5.4573   -1.7071    1.1170 C   0  0  0  0  0  0  0  0  0  0  0  0
   -5.6407   -2.7590    1.7064 O   0  0  0  0  0  0  0  0  0  0  0  0
  -11.2921    1.5941   -0.0770 H   0  0  0  0  0  0  0  0  0  0  0  0
  -11.1808    1.9597   -1.7970 H   0  0  0  0  0  0  0  0  0  0  0  0
  -12.4427    0.8822   -1.2008 H   0  0  0  0  0  0  0  0  0  0  0  0
  -10.5647   -0.4259   -2.2759 H   0  0  0  0  0  0  0  0  0  0  0  0
   -9.4317    0.2959   -1.1637 H   0  0  0  0  0  0  0  0  0  0  0  0
  -10.6204   -0.7583    0.7640 H   0  0  0  0  0  0  0  0  0  0  0  0
  -11.8221   -1.4143   -0.3028 H   0  0  0  0  0  0  0  0  0  0  0  0
  -10.1877   -2.8816   -1.3967 H   0  0  0  0  0  0  0  0  0  0  0  0
  -10.1220   -3.1332    0.3282 H   0  0  0  0  0  0  0  0  0  0  0  0
   -8.1494   -1.4618   -1.3088 H   0  0  0  0  0  0  0  0  0  0  0  0
   -7.8299   -3.0419   -0.6634 H   0  0  0  0  0  0  0  0  0  0  0  0
   -8.5001   -0.6410    1.1155 H   0  0  0  0  0  0  0  0  0  0  0  0
   -7.8600   -2.1951    1.6381 H   0  0  0  0  0  0  0  0  0  0  0  0
   -5.7062    2.3871   -1.4689 H   0  0  0  0  0  0  0  0  0  0  0  0
   -3.4280    3.2419   -1.9038 H   0  0  0  0  0  0  0  0  0  0  0  0
   -1.4900    2.0545   -1.0401 H   0  0  0  0  0  0  0  0  0  0  0  0
   -0.3458    2.4411    0.6633 H   0  0  0  0  0  0  0  0  0  0  0  0
    2.2111    2.7023    0.3998 H   0  0  0  0  0  0  0  0  0  0  0  0
    4.5775    2.4747    0.1174 H   0  0  0  0  0  0  0  0  0  0  0  0
    6.5446    3.3022   -0.9429 H   0  0  0  0  0  0  0  0  0  0  0  0
    8.7457    4.3926   -1.0455 H   0  0  0  0  0  0  0  0  0  0  0  0
   12.2738    1.7999   -0.5693 H   0  0  0  0  0  0  0  0  0  0  0  0
   13.0323    3.3282   -0.0804 H   0  0  0  0  0  0  0  0  0  0  0  0
   12.0536    2.4286    1.0960 H   0  0  0  0  0  0  0  0  0  0  0  0
   10.5583    0.8717    0.5148 H   0  0  0  0  0  0  0  0  0  0  0  0
    8.3756   -0.2019    0.6276 H   0  0  0  0  0  0  0  0  0  0  0  0
    7.2797   -0.9386   -2.2224 H   0  0  0  0  0  0  0  0  0  0  0  0
    8.9263   -2.7486   -2.5349 H   0  0  0  0  0  0  0  0  0  0  0  0
    9.2200   -4.4489   -0.7834 H   0  0  0  0  0  0  0  0  0  0  0  0
    7.8681   -4.3491    1.2677 H   0  0  0  0  0  0  0  0  0  0  0  0
    6.2217   -2.5334    1.5637 H   0  0  0  0  0  0  0  0  0  0  0  0
   -0.8971   -1.9165    1.5836 H   0  0  0  0  0  0  0  0  0  0  0  0
   -3.1798   -2.7888    1.9012 H   0  0  0  0  0  0  0  0  0  0  0  0
  1  2  1  0  0  0  0
  2  3  1  0  0  0  0
  3  4  1  0  0  0  0
  4  5  1  0  0  0  0
  5  6  1  0  0  0  0
  6  7  1  0  0  0  0
  7  8  1  0  0  0  0
  8  9  2  0  0  0  0
  8 10  1  0  0  0  0
 10 11  1  0  0  0  0
 11 12  2  0  0  0  0
 12 13  1  0  0  0  0
 13 14  2  0  0  0  0
 14 15  1  0  0  0  0
 15 16  1  0  0  0  0
 16 17  2  0  0  0  0
 17 18  1  0  0  0  0
 18 19  2  0  0  0  0
 19 20  1  0  0  0  0
 20 21  1  0  0  0  0
 21 22  2  0  0  0  0
 22 23  1  0  0  0  0
 23 24  2  0  0  0  0
 24 25  1  0  0  0  0
 25 26  2  0  0  0  0
 26 27  1  0  0  0  0
 27 28  1  0  0  0  0
 26 29  1  0  0  0  0
 29 30  2  0  0  0  0
 22 31  1  0  0  0  0
 31 32  1  0  0  0  0
 32 33  2  0  0  0  0
 33 34  1  0  0  0  0
 34 35  2  0  0  0  0
 35 36  1  0  0  0  0
 36 37  2  0  0  0  0
 31 38  1  0  0  0  0
 19 39  1  0  0  0  0
 15 40  2  0  0  0  0
 40 41  1  0  0  0  0
 41 42  2  0  0  0  0
 42 43  1  0  0  0  0
 42 44  1  0  0  0  0
 44 45  2  0  0  0  0
 44  7  1  0  0  0  0
 43 10  2  0  0  0  0
 43 14  1  0  0  0  0
 39 16  1  0  0  0  0
 38 20  2  0  0  0  0
 30 23  1  0  0  0  0
 37 32  1  0  0  0  0
  1 46  1  0  0  0  0
  1 47  1  0  0  0  0
  1 48  1  0  0  0  0
  2 49  1  0  0  0  0
  2 50  1  0  0  0  0
  3 51  1  0  0  0  0
  3 52  1  0  0  0  0
  4 53  1  0  0  0  0
  4 54  1  0  0  0  0
  5 55  1  0  0  0  0
  5 56  1  0  0  0  0
  6 57  1  0  0  0  0
  6 58  1  0  0  0  0
 11 59  1  0  0  0  0
 12 60  1  0  0  0  0
 13 61  1  0  0  0  0
 17 62  1  0  0  0  0
 18 63  1  0  0  0  0
 21 64  1  0  0  0  0
 24 65  1  0  0  0  0
 25 66  1  0  0  0  0
 28 67  1  0  0  0  0
 28 68  1  0  0  0  0
 28 69  1  0  0  0  0
 29 70  1  0  0  0  0
 30 71  1  0  0  0  0
 33 72  1  0  0  0  0
 34 73  1  0  0  0  0
 35 74  1  0  0  0  0
 36 75  1  0  0  0  0
 37 76  1  0  0  0  0
 40 77  1  0  0  0  0
 41 78  1  0  0  0  0
M  END
