
  xtb     03212210123D
 energy: -8.202957335158 gnorm: 0.000381226167 xtb: 6.4.1 (afa7bdf)
 41 44  0     0  0            999 V2000
    5.8448   -1.2852    0.9025 C   0  0  0  0  0  0  0  0  0  0  0  0
    4.9197   -0.2529    0.2954 C   0  0  0  0  0  0  0  0  0  0  0  0
    3.5808   -0.6787    0.2926 O   0  0  0  0  0  0  0  0  0  0  0  0
    2.7951    0.2809   -0.2943 C   0  0  0  0  0  0  0  0  0  0  0  0
    3.2432    1.3367   -0.7266 O   0  0  0  0  0  0  0  0  0  0  0  0
    1.3849    0.0068   -0.3935 C   0  0  0  0  0  0  0  0  0  0  0  0
    0.7536   -1.1426    0.0702 C   0  0  0  0  0  0  0  0  0  0  0  0
    1.3196   -2.1952    0.7026 N   0  0  0  0  0  0  0  0  0  0  0  0
   -0.6097   -1.0722   -0.2064 N   0  0  0  0  0  0  0  0  0  0  0  0
   -1.6197   -1.9771    0.0969 C   0  0  0  0  0  0  0  0  0  0  0  0
   -1.3816   -3.0325    0.6608 O   0  0  0  0  0  0  0  0  0  0  0  0
   -2.9765   -1.5820   -0.2849 C   0  0  0  0  0  0  0  0  0  0  0  0
   -4.0382   -2.4379   -0.0287 C   0  0  0  0  0  0  0  0  0  0  0  0
   -5.3229   -2.0830   -0.3616 C   0  0  0  0  0  0  0  0  0  0  0  0
   -5.5713   -0.8595   -0.9569 C   0  0  0  0  0  0  0  0  0  0  0  0
   -4.5331    0.0019   -1.2178 C   0  0  0  0  0  0  0  0  0  0  0  0
   -3.2282   -0.3392   -0.8925 C   0  0  0  0  0  0  0  0  0  0  0  0
   -2.1405    0.5986   -1.1902 C   0  0  0  0  0  0  0  0  0  0  0  0
   -2.3611    1.7153   -1.6381 O   0  0  0  0  0  0  0  0  0  0  0  0
   -0.8564    0.1494   -0.9411 N   0  0  0  0  0  0  0  0  0  0  0  0
    0.3680    0.9561   -1.0085 C   0  0  0  0  0  0  0  0  0  0  0  0
    0.2383    2.2374   -0.2595 C   0  0  0  0  0  0  0  0  0  0  0  0
   -0.2713    2.3565    0.9859 C   0  0  0  0  0  0  0  0  0  0  0  0
   -0.2826    3.6961    1.4730 C   0  0  0  0  0  0  0  0  0  0  0  0
    0.2209    4.5873    0.5966 C   0  0  0  0  0  0  0  0  0  0  0  0
    0.7220    3.7981   -0.8546 S   0  0  0  0  0  0  0  0  0  0  0  0
    5.5565   -1.5006    1.9325 H   0  0  0  0  0  0  0  0  0  0  0  0
    6.8861   -0.9557    0.9035 H   0  0  0  0  0  0  0  0  0  0  0  0
    5.7875   -2.2240    0.3492 H   0  0  0  0  0  0  0  0  0  0  0  0
    4.9524    0.6981    0.8445 H   0  0  0  0  0  0  0  0  0  0  0  0
    5.1867   -0.0296   -0.7469 H   0  0  0  0  0  0  0  0  0  0  0  0
    0.7587   -2.9994    0.9624 H   0  0  0  0  0  0  0  0  0  0  0  0
    2.3188   -2.2787    0.8592 H   0  0  0  0  0  0  0  0  0  0  0  0
   -3.8293   -3.3851    0.4394 H   0  0  0  0  0  0  0  0  0  0  0  0
   -6.1386   -2.7584   -0.1573 H   0  0  0  0  0  0  0  0  0  0  0  0
   -6.5799   -0.5819   -1.2169 H   0  0  0  0  0  0  0  0  0  0  0  0
   -4.7101    0.9574   -1.6819 H   0  0  0  0  0  0  0  0  0  0  0  0
    0.6106    1.1532   -2.0614 H   0  0  0  0  0  0  0  0  0  0  0  0
   -0.6421    1.5106    1.5436 H   0  0  0  0  0  0  0  0  0  0  0  0
   -0.6603    3.9660    2.4484 H   0  0  0  0  0  0  0  0  0  0  0  0
    0.3052    5.6449    0.7606 H   0  0  0  0  0  0  0  0  0  0  0  0
  1  2  1  0  0  0  0
  2  3  1  0  0  0  0
  3  4  1  0  0  0  0
  4  5  2  0  0  0  0
  4  6  1  0  0  0  0
  6  7  2  0  0  0  0
  7  8  1  0  0  0  0
  7  9  1  0  0  0  0
  9 10  1  0  0  0  0
 10 11  2  0  0  0  0
 10 12  1  0  0  0  0
 12 13  2  0  0  0  0
 13 14  1  0  0  0  0
 14 15  2  0  0  0  0
 15 16  1  0  0  0  0
 16 17  2  0  0  0  0
 17 18  1  0  0  0  0
 18 19  2  0  0  0  0
 18 20  1  0  0  0  0
 20 21  1  0  0  0  0
 21 22  1  0  0  0  0
 22 23  2  0  0  0  0
 23 24  1  0  0  0  0
 24 25  2  0  0  0  0
 25 26  1  0  0  0  0
 21  6  1  0  0  0  0
 26 22  1  0  0  0  0
 20  9  1  0  0  0  0
 17 12  1  0  0  0  0
  1 27  1  0  0  0  0
  1 28  1  0  0  0  0
  1 29  1  0  0  0  0
  2 30  1  0  0  0  0
  2 31  1  0  0  0  0
  8 32  1  0  0  0  0
  8 33  1  0  0  0  0
 13 34  1  0  0  0  0
 14 35  1  0  0  0  0
 15 36  1  0  0  0  0
 16 37  1  0  0  0  0
 21 38  1  0  0  0  0
 23 39  1  0  0  0  0
 24 40  1  0  0  0  0
 25 41  1  0  0  0  0
M  END
