
  xtb     03212210133D
 energy: -16.769268744177 gnorm: 0.000218126658 xtb: 6.4.1 (afa7bdf)
 84 90  0     0  0            999 V2000
   -2.4727   -0.4244   -0.5727 C   0  0  0  0  0  0  0  0  0  0  0  0
   -1.9095   -0.9193    0.5392 C   0  0  0  0  0  0  0  0  0  0  0  0
   -0.4966   -0.8249    0.7745 C   0  0  0  0  0  0  0  0  0  0  0  0
    0.1003   -1.2809    1.8770 N   0  0  0  0  0  0  0  0  0  0  0  0
    1.3902   -1.0158    1.7261 C   0  0  0  0  0  0  0  0  0  0  0  0
    1.6053   -0.3781    0.4982 C   0  0  0  0  0  0  0  0  0  0  0  0
    2.8837    0.0656   -0.0481 C   0  0  0  0  0  0  0  0  0  0  0  0
    2.9635    0.5143   -1.3564 C   0  0  0  0  0  0  0  0  0  0  0  0
    4.1716    0.9012   -1.8949 C   0  0  0  0  0  0  0  0  0  0  0  0
    5.3410    0.8524   -1.1451 C   0  0  0  0  0  0  0  0  0  0  0  0
    6.6015    1.2179   -1.6238 O   0  0  0  0  0  0  0  0  0  0  0  0
    6.6796    1.4505   -3.0282 C   0  0  0  0  0  0  0  0  0  0  0  0
    8.0900    1.6450   -3.4933 C   0  0  0  0  0  0  0  0  0  0  0  0
    8.3661    1.9702   -4.8111 C   0  0  0  0  0  0  0  0  0  0  0  0
    9.6703    2.1375   -5.2304 C   0  0  0  0  0  0  0  0  0  0  0  0
   10.7097    1.9798   -4.3370 C   0  0  0  0  0  0  0  0  0  0  0  0
   10.4446    1.6542   -3.0233 C   0  0  0  0  0  0  0  0  0  0  0  0
    9.1398    1.4875   -2.6067 C   0  0  0  0  0  0  0  0  0  0  0  0
    5.2725    0.4099    0.2053 C   0  0  0  0  0  0  0  0  0  0  0  0
    6.4663    0.3679    0.9381 O   0  0  0  0  0  0  0  0  0  0  0  0
    6.3107    0.2577    2.3531 C   0  0  0  0  0  0  0  0  0  0  0  0
    5.8173   -1.0812    2.8057 C   0  0  0  0  0  0  0  0  0  0  0  0
    4.9326   -1.1946    3.8667 C   0  0  0  0  0  0  0  0  0  0  0  0
    4.4419   -2.4284    4.2394 C   0  0  0  0  0  0  0  0  0  0  0  0
    4.8381   -3.5614    3.5600 C   0  0  0  0  0  0  0  0  0  0  0  0
    5.7256   -3.4605    2.5091 C   0  0  0  0  0  0  0  0  0  0  0  0
    6.2121   -2.2248    2.1363 C   0  0  0  0  0  0  0  0  0  0  0  0
    4.0442    0.0314    0.7164 C   0  0  0  0  0  0  0  0  0  0  0  0
    0.3909   -0.2586   -0.1076 O   0  0  0  0  0  0  0  0  0  0  0  0
   -3.8868   -0.4732   -0.8935 C   0  0  0  0  0  0  0  0  0  0  0  0
   -4.3725    0.2325   -1.9967 C   0  0  0  0  0  0  0  0  0  0  0  0
   -5.7119    0.2025   -2.3153 C   0  0  0  0  0  0  0  0  0  0  0  0
   -6.5939   -0.5217   -1.5460 C   0  0  0  0  0  0  0  0  0  0  0  0
   -6.1529   -1.2355   -0.4277 C   0  0  0  0  0  0  0  0  0  0  0  0
   -7.0602   -1.9254    0.4187 N   0  0  0  0  0  0  0  0  0  0  0  0
   -6.8852   -1.9137    1.8870 C   0  0  0  0  0  0  0  0  0  0  0  0
   -7.8115   -0.8747    2.5217 C   0  0  0  0  0  0  0  0  0  0  0  0
   -8.4474   -0.0564    1.4712 N   0  0  0  0  0  0  0  0  0  0  0  0
   -7.8556    1.1539    1.0193 C   0  0  0  0  0  0  0  0  0  0  0  0
   -6.5339    1.4816    1.3346 C   0  0  0  0  0  0  0  0  0  0  0  0
   -5.9479    2.6207    0.8322 C   0  0  0  0  0  0  0  0  0  0  0  0
   -6.6674    3.4685    0.0139 C   0  0  0  0  0  0  0  0  0  0  0  0
   -7.9797    3.1718   -0.2973 C   0  0  0  0  0  0  0  0  0  0  0  0
   -8.5685    2.0305    0.1980 C   0  0  0  0  0  0  0  0  0  0  0  0
   -9.2832   -0.8791    0.5626 C   0  0  0  0  0  0  0  0  0  0  0  0
   -8.4772   -2.0757    0.0530 C   0  0  0  0  0  0  0  0  0  0  0  0
   -4.7915   -1.2066   -0.1308 C   0  0  0  0  0  0  0  0  0  0  0  0
   -1.8233    0.0595   -1.2813 H   0  0  0  0  0  0  0  0  0  0  0  0
   -2.5062   -1.3912    1.2966 H   0  0  0  0  0  0  0  0  0  0  0  0
    2.1433   -1.2839    2.4509 H   0  0  0  0  0  0  0  0  0  0  0  0
    2.0632    0.5468   -1.9458 H   0  0  0  0  0  0  0  0  0  0  0  0
    4.2055    1.2495   -2.9105 H   0  0  0  0  0  0  0  0  0  0  0  0
    6.0840    2.3397   -3.2576 H   0  0  0  0  0  0  0  0  0  0  0  0
    6.2370    0.5909   -3.5416 H   0  0  0  0  0  0  0  0  0  0  0  0
    7.5518    2.0903   -5.5045 H   0  0  0  0  0  0  0  0  0  0  0  0
    9.8770    2.3910   -6.2570 H   0  0  0  0  0  0  0  0  0  0  0  0
   11.7284    2.1105   -4.6656 H   0  0  0  0  0  0  0  0  0  0  0  0
   11.2541    1.5300   -2.3232 H   0  0  0  0  0  0  0  0  0  0  0  0
    8.9125    1.2337   -1.5855 H   0  0  0  0  0  0  0  0  0  0  0  0
    7.2918    0.4593    2.7952 H   0  0  0  0  0  0  0  0  0  0  0  0
    5.6419    1.0602    2.6808 H   0  0  0  0  0  0  0  0  0  0  0  0
    4.6223   -0.3070    4.3918 H   0  0  0  0  0  0  0  0  0  0  0  0
    3.7487   -2.5068    5.0603 H   0  0  0  0  0  0  0  0  0  0  0  0
    4.4534   -4.5262    3.8503 H   0  0  0  0  0  0  0  0  0  0  0  0
    6.0337   -4.3441    1.9756 H   0  0  0  0  0  0  0  0  0  0  0  0
    6.8874   -2.1289    1.3028 H   0  0  0  0  0  0  0  0  0  0  0  0
    3.9790   -0.3214    1.7248 H   0  0  0  0  0  0  0  0  0  0  0  0
   -3.6869    0.8070   -2.5958 H   0  0  0  0  0  0  0  0  0  0  0  0
   -6.0728    0.7580   -3.1654 H   0  0  0  0  0  0  0  0  0  0  0  0
   -7.6410   -0.5051   -1.7865 H   0  0  0  0  0  0  0  0  0  0  0  0
   -7.0811   -2.9215    2.2697 H   0  0  0  0  0  0  0  0  0  0  0  0
   -5.8410   -1.6971    2.1283 H   0  0  0  0  0  0  0  0  0  0  0  0
   -8.6101   -1.3599    3.0914 H   0  0  0  0  0  0  0  0  0  0  0  0
   -7.2905   -0.2258    3.2314 H   0  0  0  0  0  0  0  0  0  0  0  0
   -5.9533    0.8110    1.9416 H   0  0  0  0  0  0  0  0  0  0  0  0
   -4.9213    2.8468    1.0709 H   0  0  0  0  0  0  0  0  0  0  0  0
   -6.2068    4.3600   -0.3791 H   0  0  0  0  0  0  0  0  0  0  0  0
   -8.5448    3.8368   -0.9299 H   0  0  0  0  0  0  0  0  0  0  0  0
   -9.5981    1.8184   -0.0285 H   0  0  0  0  0  0  0  0  0  0  0  0
  -10.1829   -1.1925    1.1006 H   0  0  0  0  0  0  0  0  0  0  0  0
   -9.6230   -0.2602   -0.2707 H   0  0  0  0  0  0  0  0  0  0  0  0
   -8.5698   -2.2168   -1.0289 H   0  0  0  0  0  0  0  0  0  0  0  0
   -8.8371   -3.0077    0.5035 H   0  0  0  0  0  0  0  0  0  0  0  0
   -4.4289   -1.7938    0.6900 H   0  0  0  0  0  0  0  0  0  0  0  0
  1  2  2  0  0  0  0
  2  3  1  0  0  0  0
  3  4  2  0  0  0  0
  4  5  1  0  0  0  0
  5  6  2  0  0  0  0
  6  7  1  0  0  0  0
  7  8  2  0  0  0  0
  8  9  1  0  0  0  0
  9 10  2  0  0  0  0
 10 11  1  0  0  0  0
 11 12  1  0  0  0  0
 12 13  1  0  0  0  0
 13 14  2  0  0  0  0
 14 15  1  0  0  0  0
 15 16  2  0  0  0  0
 16 17  1  0  0  0  0
 17 18  2  0  0  0  0
 10 19  1  0  0  0  0
 19 20  1  0  0  0  0
 20 21  1  0  0  0  0
 21 22  1  0  0  0  0
 22 23  2  0  0  0  0
 23 24  1  0  0  0  0
 24 25  2  0  0  0  0
 25 26  1  0  0  0  0
 26 27  2  0  0  0  0
 19 28  2  0  0  0  0
  6 29  1  0  0  0  0
  1 30  1  0  0  0  0
 30 31  2  0  0  0  0
 31 32  1  0  0  0  0
 32 33  2  0  0  0  0
 33 34  1  0  0  0  0
 34 35  1  0  0  0  0
 35 36  1  0  0  0  0
 36 37  1  0  0  0  0
 37 38  1  0  0  0  0
 38 39  1  0  0  0  0
 39 40  2  0  0  0  0
 40 41  1  0  0  0  0
 41 42  2  0  0  0  0
 42 43  1  0  0  0  0
 43 44  2  0  0  0  0
 38 45  1  0  0  0  0
 45 46  1  0  0  0  0
 34 47  2  0  0  0  0
 29  3  1  0  0  0  0
 47 30  1  0  0  0  0
 28  7  1  0  0  0  0
 46 35  1  0  0  0  0
 18 13  1  0  0  0  0
 27 22  1  0  0  0  0
 44 39  1  0  0  0  0
  1 48  1  0  0  0  0
  2 49  1  0  0  0  0
  5 50  1  0  0  0  0
  8 51  1  0  0  0  0
  9 52  1  0  0  0  0
 12 53  1  0  0  0  0
 12 54  1  0  0  0  0
 14 55  1  0  0  0  0
 15 56  1  0  0  0  0
 16 57  1  0  0  0  0
 17 58  1  0  0  0  0
 18 59  1  0  0  0  0
 21 60  1  0  0  0  0
 21 61  1  0  0  0  0
 23 62  1  0  0  0  0
 24 63  1  0  0  0  0
 25 64  1  0  0  0  0
 26 65  1  0  0  0  0
 27 66  1  0  0  0  0
 28 67  1  0  0  0  0
 31 68  1  0  0  0  0
 32 69  1  0  0  0  0
 33 70  1  0  0  0  0
 36 71  1  0  0  0  0
 36 72  1  0  0  0  0
 37 73  1  0  0  0  0
 37 74  1  0  0  0  0
 40 75  1  0  0  0  0
 41 76  1  0  0  0  0
 42 77  1  0  0  0  0
 43 78  1  0  0  0  0
 44 79  1  0  0  0  0
 45 80  1  0  0  0  0
 45 81  1  0  0  0  0
 46 82  1  0  0  0  0
 46 83  1  0  0  0  0
 47 84  1  0  0  0  0
M  END
