
  xtb     03212210123D
 energy: -10.289176794983 gnorm: 0.000202152186 xtb: 6.4.1 (afa7bdf)
 55 58  0     0  0            999 V2000
   -3.3189   -0.9278   -3.3568 C   0  0  0  0  0  0  0  0  0  0  0  0
   -4.4977   -0.9853   -2.4074 C   0  0  0  0  0  0  0  0  0  0  0  0
   -4.0908   -1.3586   -1.1164 O   0  0  0  0  0  0  0  0  0  0  0  0
   -3.3776   -0.3492   -0.5433 C   0  0  0  0  0  0  0  0  0  0  0  0
   -3.2860    0.7652   -1.0056 O   0  0  0  0  0  0  0  0  0  0  0  0
   -2.6730   -0.7016    0.7422 C   0  0  0  0  0  0  0  0  0  0  0  0
   -3.4901   -0.2750    1.9394 C   0  0  0  0  0  0  0  0  0  0  0  0
   -4.1494   -1.1086    2.5193 O   0  0  0  0  0  0  0  0  0  0  0  0
   -3.4553    1.0404    2.2856 O   0  0  0  0  0  0  0  0  0  0  0  0
   -4.3408    1.2855    3.3505 C   0  0  0  0  0  0  0  0  0  0  0  0
   -5.7893    1.1986    2.9186 C   0  0  0  0  0  0  0  0  0  0  0  0
   -1.2851   -0.1534    0.7466 C   0  0  0  0  0  0  0  0  0  0  0  0
   -0.2488   -0.6682    0.0722 N   0  0  0  0  0  4  0  0  0  0  0  0
    0.9064    0.0834    0.2321 C   0  0  0  0  0  0  0  0  0  0  0  0
    2.1615   -0.2850   -0.2955 C   0  0  0  0  0  0  0  0  0  0  0  0
    3.3571    0.5474   -0.1037 C   0  0  0  0  0  0  0  0  0  0  0  0
    4.5727   -0.0108    0.2954 C   0  0  0  0  0  0  0  0  0  0  0  0
    5.6866    0.7712    0.4742 C   0  0  0  0  0  0  0  0  0  0  0  0
    5.6332    2.1412    0.2567 C   0  0  0  0  0  0  0  0  0  0  0  0
    6.8350    2.9932    0.4737 C   0  0  0  0  0  0  0  0  0  0  0  0
    4.4262    2.7079   -0.1290 C   0  0  0  0  0  0  0  0  0  0  0  0
    3.3112    1.9275   -0.3077 C   0  0  0  0  0  0  0  0  0  0  0  0
    2.2027   -1.5079   -0.9890 C   0  0  0  0  0  0  0  0  0  0  0  0
    3.2979   -2.1782   -1.6481 C   0  0  0  0  0  0  0  0  0  0  0  0
    2.8287   -3.3238   -2.2102 C   0  0  0  0  0  0  0  0  0  0  0  0
    1.4306   -3.4127   -1.9382 C   0  0  0  0  0  0  0  0  0  0  0  0
    0.3657   -4.6049   -2.4776 Cl  0  0  0  0  0  0  0  0  0  0  0  0
    1.1103   -2.2984   -1.2027 N   0  0  0  0  0  0  0  0  0  0  0  0
   -0.3131   -1.8995   -0.8298 B   0  0  0  0  0  4  0  0  0  0  0  0
   -0.9879   -1.5731   -1.9920 F   0  0  0  0  0  0  0  0  0  0  0  0
   -0.9286   -2.9246   -0.1361 F   0  0  0  0  0  0  0  0  0  0  0  0
    0.5295    1.1666    1.0589 C   0  0  0  0  0  0  0  0  0  0  0  0
   -0.8069    1.0206    1.3584 C   0  0  0  0  0  0  0  0  0  0  0  0
   -3.6094   -0.6585   -4.3735 H   0  0  0  0  0  0  0  0  0  0  0  0
   -2.5884   -0.1993   -2.9981 H   0  0  0  0  0  0  0  0  0  0  0  0
   -2.8040   -1.8898   -3.3799 H   0  0  0  0  0  0  0  0  0  0  0  0
   -5.0022   -0.0127   -2.3224 H   0  0  0  0  0  0  0  0  0  0  0  0
   -5.2459   -1.7197   -2.7331 H   0  0  0  0  0  0  0  0  0  0  0  0
   -2.5937   -1.7980    0.7812 H   0  0  0  0  0  0  0  0  0  0  0  0
   -4.0987    2.2799    3.7473 H   0  0  0  0  0  0  0  0  0  0  0  0
   -4.1102    0.5544    4.1379 H   0  0  0  0  0  0  0  0  0  0  0  0
   -6.4798    1.4063    3.7378 H   0  0  0  0  0  0  0  0  0  0  0  0
   -6.0056    0.1995    2.5361 H   0  0  0  0  0  0  0  0  0  0  0  0
   -5.9910    1.9033    2.1112 H   0  0  0  0  0  0  0  0  0  0  0  0
    4.6183   -1.0694    0.4925 H   0  0  0  0  0  0  0  0  0  0  0  0
    6.6126    0.3257    0.7916 H   0  0  0  0  0  0  0  0  0  0  0  0
    7.7527    2.4274    0.3128 H   0  0  0  0  0  0  0  0  0  0  0  0
    6.8534    3.3831    1.4914 H   0  0  0  0  0  0  0  0  0  0  0  0
    6.8442    3.8404   -0.2124 H   0  0  0  0  0  0  0  0  0  0  0  0
    4.3729    3.7699   -0.2907 H   0  0  0  0  0  0  0  0  0  0  0  0
    2.3856    2.3734   -0.6338 H   0  0  0  0  0  0  0  0  0  0  0  0
    4.3103   -1.8142   -1.7094 H   0  0  0  0  0  0  0  0  0  0  0  0
    3.3963   -4.0406   -2.7814 H   0  0  0  0  0  0  0  0  0  0  0  0
    1.1781    1.9506    1.4087 H   0  0  0  0  0  0  0  0  0  0  0  0
   -1.4116    1.6856    1.9529 H   0  0  0  0  0  0  0  0  0  0  0  0
  1  2  1  0  0  0  0
  2  3  1  0  0  0  0
  3  4  1  0  0  0  0
  4  5  2  0  0  0  0
  4  6  1  0  0  0  0
  6  7  1  0  0  0  0
  7  8  2  0  0  0  0
  7  9  1  0  0  0  0
  9 10  1  0  0  0  0
 10 11  1  0  0  0  0
  6 12  1  0  0  0  0
 12 13  2  0  0  0  0
 13 14  1  0  0  0  0
 14 15  2  0  0  0  0
 15 16  1  0  0  0  0
 16 17  2  0  0  0  0
 17 18  1  0  0  0  0
 18 19  2  0  0  0  0
 19 20  1  0  0  0  0
 19 21  1  0  0  0  0
 21 22  2  0  0  0  0
 15 23  1  0  0  0  0
 23 24  2  0  0  0  0
 24 25  1  0  0  0  0
 25 26  2  0  0  0  0
 26 27  1  0  0  0  0
 26 28  1  0  0  0  0
 28 29  1  0  0  0  0
 29 30  1  0  0  0  0
 29 31  1  0  0  0  0
 14 32  1  0  0  0  0
 32 33  2  0  0  0  0
 33 12  1  0  0  0  0
 29 13  1  0  0  0  0
 22 16  1  0  0  0  0
 28 23  1  0  0  0  0
  1 34  1  0  0  0  0
  1 35  1  0  0  0  0
  1 36  1  0  0  0  0
  2 37  1  0  0  0  0
  2 38  1  0  0  0  0
  6 39  1  0  0  0  0
 10 40  1  0  0  0  0
 10 41  1  0  0  0  0
 11 42  1  0  0  0  0
 11 43  1  0  0  0  0
 11 44  1  0  0  0  0
 17 45  1  0  0  0  0
 18 46  1  0  0  0  0
 20 47  1  0  0  0  0
 20 48  1  0  0  0  0
 20 49  1  0  0  0  0
 21 50  1  0  0  0  0
 22 51  1  0  0  0  0
 24 52  1  0  0  0  0
 25 53  1  0  0  0  0
 32 54  1  0  0  0  0
 33 55  1  0  0  0  0
M  CHG  1  13   1
M  CHG  1  29  -1
M  END
