
  xtb     03212210143D
 energy: -7.065196105909 gnorm: 0.000427848777 xtb: 6.4.1 (afa7bdf)
 36 37  0     0  0            999 V2000
    6.3544    1.1726    1.9840 C   0  0  0  0  0  0  0  0  0  0  0  0
    5.3909    0.6775    0.9791 C   0  0  0  0  0  0  0  0  0  0  0  0
    4.0705    0.7519    1.1505 C   0  0  0  0  0  0  0  0  0  0  0  0
    3.1212    0.2739    0.1869 C   0  0  0  0  0  0  0  0  0  0  0  0
    1.7895    0.3486    0.3665 C   0  0  0  0  0  0  0  0  0  0  0  0
    0.7836   -0.1049   -0.5457 C   0  0  0  0  0  0  0  0  0  0  0  0
   -0.5007   -0.0470   -0.2429 N   0  0  0  0  0  0  0  0  0  0  0  0
   -1.2109   -0.5429   -1.2989 C   0  0  0  0  0  0  0  0  0  0  0  0
   -2.5689   -0.6713   -1.4063 C   0  0  0  0  0  0  0  0  0  0  0  0
   -3.5181   -0.3048   -0.4049 C   0  0  0  0  0  0  0  0  0  0  0  0
   -3.1257    0.2419    0.8251 C   0  0  0  0  0  0  0  0  0  0  0  0
   -4.0459    0.5865    1.7747 C   0  0  0  0  0  0  0  0  0  0  0  0
   -5.4153    0.4018    1.5452 C   0  0  0  0  0  0  0  0  0  0  0  0
   -6.3210    0.7544    2.5152 O   0  0  0  0  0  0  0  0  0  0  0  0
   -5.8159   -0.1438    0.3174 C   0  0  0  0  0  0  0  0  0  0  0  0
   -4.8916   -0.4875   -0.6312 C   0  0  0  0  0  0  0  0  0  0  0  0
   -0.2771   -0.9336   -2.3566 C   0  0  0  0  0  0  0  0  0  0  0  0
   -0.5423   -1.3987   -3.4514 O   0  0  0  0  0  0  0  0  0  0  0  0
    0.9718   -0.6455   -1.8342 N   0  0  0  0  0  0  0  0  0  0  0  0
    2.1777   -0.8413   -2.6205 C   0  0  0  0  0  0  0  0  0  0  0  0
    7.3884    1.0653    1.6483 H   0  0  0  0  0  0  0  0  0  0  0  0
    6.2531    0.6248    2.9231 H   0  0  0  0  0  0  0  0  0  0  0  0
    6.1851    2.2300    2.1972 H   0  0  0  0  0  0  0  0  0  0  0  0
    5.7675    0.2325    0.0728 H   0  0  0  0  0  0  0  0  0  0  0  0
    3.6896    1.1924    2.0557 H   0  0  0  0  0  0  0  0  0  0  0  0
    3.5119   -0.1697   -0.7078 H   0  0  0  0  0  0  0  0  0  0  0  0
    1.4272    0.7802    1.2819 H   0  0  0  0  0  0  0  0  0  0  0  0
   -2.9452   -1.0844   -2.3251 H   0  0  0  0  0  0  0  0  0  0  0  0
   -2.0789    0.3879    1.0134 H   0  0  0  0  0  0  0  0  0  0  0  0
   -3.7399    1.0051    2.7163 H   0  0  0  0  0  0  0  0  0  0  0  0
   -7.2340    0.5656    2.2070 H   0  0  0  0  0  0  0  0  0  0  0  0
   -6.8643   -0.2898    0.1305 H   0  0  0  0  0  0  0  0  0  0  0  0
   -5.2129   -0.9064   -1.5693 H   0  0  0  0  0  0  0  0  0  0  0  0
    1.8957   -1.1900   -3.6123 H   0  0  0  0  0  0  0  0  0  0  0  0
    2.7188    0.0961   -2.7247 H   0  0  0  0  0  0  0  0  0  0  0  0
    2.8117   -1.5943   -2.1589 H   0  0  0  0  0  0  0  0  0  0  0  0
  1  2  1  0  0  0  0
  2  3  2  0  0  0  0
  3  4  1  0  0  0  0
  4  5  2  0  0  0  0
  5  6  1  0  0  0  0
  6  7  2  0  0  0  0
  7  8  1  0  0  0  0
  8  9  2  0  0  0  0
  9 10  1  0  0  0  0
 10 11  2  0  0  0  0
 11 12  1  0  0  0  0
 12 13  2  0  0  0  0
 13 14  1  0  0  0  0
 13 15  1  0  0  0  0
 15 16  2  0  0  0  0
  8 17  1  0  0  0  0
 17 18  2  0  0  0  0
 17 19  1  0  0  0  0
 19 20  1  0  0  0  0
 19  6  1  0  0  0  0
 16 10  1  0  0  0  0
  1 21  1  0  0  0  0
  1 22  1  0  0  0  0
  1 23  1  0  0  0  0
  2 24  1  0  0  0  0
  3 25  1  0  0  0  0
  4 26  1  0  0  0  0
  5 27  1  0  0  0  0
  9 28  1  0  0  0  0
 11 29  1  0  0  0  0
 12 30  1  0  0  0  0
 14 31  1  0  0  0  0
 15 32  1  0  0  0  0
 16 33  1  0  0  0  0
 20 34  1  0  0  0  0
 20 35  1  0  0  0  0
 20 36  1  0  0  0  0
M  END
