
  xtb     03212210143D
 energy: -6.212178878458 gnorm: 0.000449766047 xtb: 6.4.1 (afa7bdf)
 30 32  0     0  0            999 V2000
   -5.6933    0.2440    0.3261 C   0  0  0  0  0  0  0  0  0  0  0  0
   -5.0098   -0.7815   -0.3509 O   0  0  0  0  0  0  0  0  0  0  0  0
   -3.6221   -0.6813   -0.3144 C   0  0  0  0  0  0  0  0  0  0  0  0
   -2.8841   -1.6736   -0.9840 C   0  0  0  0  0  0  0  0  0  0  0  0
   -1.5201   -1.6494   -0.9977 C   0  0  0  0  0  0  0  0  0  0  0  0
   -0.8056   -0.6369   -0.3457 C   0  0  0  0  0  0  0  0  0  0  0  0
    0.5560   -0.6469   -0.3833 N   0  0  0  0  0  0  0  0  0  0  0  0
    1.1845    0.3133    0.2395 C   0  0  0  0  0  0  0  0  0  0  0  0
    2.6479    0.2800    0.1851 C   0  0  0  0  0  0  0  0  0  0  0  0
    3.2715   -0.7374   -0.5348 C   0  0  0  0  0  0  0  0  0  0  0  0
    4.6420   -0.8164   -0.6183 C   0  0  0  0  0  0  0  0  0  0  0  0
    5.4264    0.1228    0.0188 C   0  0  0  0  0  0  0  0  0  0  0  0
    4.8337    1.1397    0.7384 C   0  0  0  0  0  0  0  0  0  0  0  0
    3.4635    1.2161    0.8193 C   0  0  0  0  0  0  0  0  0  0  0  0
    0.4811    1.3790    0.9607 C   0  0  0  0  0  0  0  0  0  0  0  0
    1.1274    2.2515    1.5235 O   0  0  0  0  0  0  0  0  0  0  0  0
   -0.8878    1.3799    0.9909 O   0  0  0  0  0  0  0  0  0  0  0  0
   -1.5286    0.3636    0.3312 C   0  0  0  0  0  0  0  0  0  0  0  0
   -2.9190    0.3242    0.3339 C   0  0  0  0  0  0  0  0  0  0  0  0
   -5.4269    0.2300    1.3838 H   0  0  0  0  0  0  0  0  0  0  0  0
   -6.7647    0.0658    0.2259 H   0  0  0  0  0  0  0  0  0  0  0  0
   -5.4498    1.2083   -0.1220 H   0  0  0  0  0  0  0  0  0  0  0  0
   -3.4264   -2.4540   -1.4869 H   0  0  0  0  0  0  0  0  0  0  0  0
   -0.9643   -2.4130   -1.5129 H   0  0  0  0  0  0  0  0  0  0  0  0
    2.6529   -1.4673   -1.0287 H   0  0  0  0  0  0  0  0  0  0  0  0
    5.1022   -1.6110   -1.1810 H   0  0  0  0  0  0  0  0  0  0  0  0
    6.5006    0.0627   -0.0458 H   0  0  0  0  0  0  0  0  0  0  0  0
    5.4442    1.8739    1.2365 H   0  0  0  0  0  0  0  0  0  0  0  0
    3.0035    2.0107    1.3794 H   0  0  0  0  0  0  0  0  0  0  0  0
   -3.4350    1.1033    0.8597 H   0  0  0  0  0  0  0  0  0  0  0  0
  1  2  1  0  0  0  0
  2  3  1  0  0  0  0
  3  4  2  0  0  0  0
  4  5  1  0  0  0  0
  5  6  2  0  0  0  0
  6  7  1  0  0  0  0
  7  8  2  0  0  0  0
  8  9  1  0  0  0  0
  9 10  2  0  0  0  0
 10 11  1  0  0  0  0
 11 12  2  0  0  0  0
 12 13  1  0  0  0  0
 13 14  2  0  0  0  0
  8 15  1  0  0  0  0
 15 16  2  0  0  0  0
 15 17  1  0  0  0  0
 17 18  1  0  0  0  0
 18 19  2  0  0  0  0
 19  3  1  0  0  0  0
 18  6  1  0  0  0  0
 14  9  1  0  0  0  0
  1 20  1  0  0  0  0
  1 21  1  0  0  0  0
  1 22  1  0  0  0  0
  4 23  1  0  0  0  0
  5 24  1  0  0  0  0
 10 25  1  0  0  0  0
 11 26  1  0  0  0  0
 12 27  1  0  0  0  0
 13 28  1  0  0  0  0
 14 29  1  0  0  0  0
 19 30  1  0  0  0  0
M  END
