
  xtb     03212210123D
 energy: -15.004461999014 gnorm: 0.000154802635 xtb: 6.4.1 (afa7bdf)
 74 80  0     0  0            999 V2000
   10.6113   -1.2166    2.9460 C   0  0  0  0  0  0  0  0  0  0  0  0
    9.9854   -0.6077    1.7044 C   0  0  0  0  0  0  0  0  0  0  0  0
    8.4588   -0.5811    1.7699 C   0  0  0  0  0  0  0  0  0  0  0  0
    7.8036    0.0874    0.5597 C   0  0  0  0  0  0  0  0  0  0  0  0
    8.0034   -0.6718   -0.7497 C   0  0  0  0  0  0  0  0  0  0  0  0
    7.2644   -0.0159   -1.9029 C   0  0  0  0  0  0  0  0  0  0  0  0
    5.8415    0.0580   -1.6393 N   0  0  0  0  0  0  0  0  0  0  0  0
    5.0937   -1.1187   -1.7653 C   0  0  0  0  0  0  0  0  0  0  0  0
    5.6246   -2.1711   -2.0751 O   0  0  0  0  0  0  0  0  0  0  0  0
    3.6556   -1.0408   -1.5000 C   0  0  0  0  0  0  0  0  0  0  0  0
    2.8669   -2.1554   -1.6450 C   0  0  0  0  0  0  0  0  0  0  0  0
    1.5017   -2.0953   -1.3962 C   0  0  0  0  0  0  0  0  0  0  0  0
    0.9256   -0.9228   -1.0018 C   0  0  0  0  0  0  0  0  0  0  0  0
    1.6810    0.2553   -0.8332 C   0  0  0  0  0  0  0  0  0  0  0  0
    1.1035    1.5039   -0.4151 C   0  0  0  0  0  0  0  0  0  0  0  0
   -0.3132    1.6379   -0.1400 C   0  0  0  0  0  0  0  0  0  0  0  0
   -0.9764    2.7674    0.2715 C   0  0  0  0  0  0  0  0  0  0  0  0
   -2.3674    2.5973    0.4548 C   0  0  0  0  0  0  0  0  0  0  0  0
   -2.8210    1.3340    0.1908 C   0  0  0  0  0  0  0  0  0  0  0  0
   -4.1921    0.8946    0.2914 C   0  0  0  0  0  0  0  0  0  0  0  0
   -4.6479   -0.4092   -0.0018 C   0  0  0  0  0  0  0  0  0  0  0  0
   -5.9969   -0.4144    0.2173 C   0  0  0  0  0  0  0  0  0  0  0  0
   -6.9190   -1.5386    0.0652 C   0  0  0  0  0  0  0  0  0  0  0  0
   -8.1353   -1.5738    0.7517 C   0  0  0  0  0  0  0  0  0  0  0  0
   -8.9951   -2.6361    0.6128 C   0  0  0  0  0  0  0  0  0  0  0  0
   -8.6602   -3.6946   -0.2166 C   0  0  0  0  0  0  0  0  0  0  0  0
   -9.7414   -5.0269   -0.3958 Cl  0  0  0  0  0  0  0  0  0  0  0  0
   -7.4557   -3.6805   -0.9024 C   0  0  0  0  0  0  0  0  0  0  0  0
   -6.5953   -2.6178   -0.7623 C   0  0  0  0  0  0  0  0  0  0  0  0
   -6.2880    0.9007    0.6209 N   0  0  0  0  0  0  0  0  0  0  0  0
   -7.6054    1.4265    0.8983 C   0  0  0  0  0  0  0  0  0  0  0  0
   -8.5437    1.5454   -0.1158 C   0  0  0  0  0  0  0  0  0  0  0  0
   -9.8046    2.0273    0.1593 C   0  0  0  0  0  0  0  0  0  0  0  0
  -10.1365    2.3973    1.4476 C   0  0  0  0  0  0  0  0  0  0  0  0
   -9.2041    2.2892    2.4605 C   0  0  0  0  0  0  0  0  0  0  0  0
   -7.9422    1.8087    2.1871 C   0  0  0  0  0  0  0  0  0  0  0  0
   -5.2060    1.6709    0.6681 N   0  0  0  0  0  0  0  0  0  0  0  0
   -1.4751    0.3383   -0.2901 S   0  0  0  0  0  0  0  0  0  0  0  0
    1.9413    2.6010   -0.2785 C   0  0  0  0  0  0  0  0  0  0  0  0
    3.2989    2.5212   -0.5318 C   0  0  0  0  0  0  0  0  0  0  0  0
    3.8786    1.3411   -0.9342 C   0  0  0  0  0  0  0  0  0  0  0  0
    3.0736    0.1867   -1.0906 C   0  0  0  0  0  0  0  0  0  0  0  0
    5.3148    1.2773   -1.1925 C   0  0  0  0  0  0  0  0  0  0  0  0
    6.0361    2.2444   -1.0115 O   0  0  0  0  0  0  0  0  0  0  0  0
   11.7034   -1.2291    2.8926 H   0  0  0  0  0  0  0  0  0  0  0  0
   10.2784   -2.2470    3.0922 H   0  0  0  0  0  0  0  0  0  0  0  0
   10.3336   -0.6586    3.8435 H   0  0  0  0  0  0  0  0  0  0  0  0
   10.3592    0.4133    1.5555 H   0  0  0  0  0  0  0  0  0  0  0  0
   10.3075   -1.1622    0.8146 H   0  0  0  0  0  0  0  0  0  0  0  0
    8.1513   -0.0688    2.6901 H   0  0  0  0  0  0  0  0  0  0  0  0
    8.0798   -1.6047    1.8717 H   0  0  0  0  0  0  0  0  0  0  0  0
    6.7266    0.2047    0.7340 H   0  0  0  0  0  0  0  0  0  0  0  0
    8.1817    1.1102    0.4480 H   0  0  0  0  0  0  0  0  0  0  0  0
    9.0711   -0.7593   -0.9811 H   0  0  0  0  0  0  0  0  0  0  0  0
    7.6354   -1.6984   -0.6340 H   0  0  0  0  0  0  0  0  0  0  0  0
    7.4034   -0.5706   -2.8375 H   0  0  0  0  0  0  0  0  0  0  0  0
    7.6279    1.0034   -2.0712 H   0  0  0  0  0  0  0  0  0  0  0  0
    3.3302   -3.0761   -1.9568 H   0  0  0  0  0  0  0  0  0  0  0  0
    0.8983   -2.9795   -1.5161 H   0  0  0  0  0  0  0  0  0  0  0  0
   -0.1403   -0.9009   -0.8132 H   0  0  0  0  0  0  0  0  0  0  0  0
   -0.4871    3.7127    0.4421 H   0  0  0  0  0  0  0  0  0  0  0  0
   -3.0278    3.3911    0.7724 H   0  0  0  0  0  0  0  0  0  0  0  0
   -4.0383   -1.2383   -0.3158 H   0  0  0  0  0  0  0  0  0  0  0  0
   -8.3929   -0.7578    1.4014 H   0  0  0  0  0  0  0  0  0  0  0  0
   -9.9328   -2.6624    1.1409 H   0  0  0  0  0  0  0  0  0  0  0  0
   -7.2101   -4.5108   -1.5421 H   0  0  0  0  0  0  0  0  0  0  0  0
   -5.6646   -2.6051   -1.3013 H   0  0  0  0  0  0  0  0  0  0  0  0
   -8.2715    1.2511   -1.1143 H   0  0  0  0  0  0  0  0  0  0  0  0
  -10.5315    2.1150   -0.6310 H   0  0  0  0  0  0  0  0  0  0  0  0
  -11.1233    2.7735    1.6623 H   0  0  0  0  0  0  0  0  0  0  0  0
   -9.4630    2.5816    3.4647 H   0  0  0  0  0  0  0  0  0  0  0  0
   -7.2039    1.7200    2.9648 H   0  0  0  0  0  0  0  0  0  0  0  0
    1.5280    3.5435    0.0315 H   0  0  0  0  0  0  0  0  0  0  0  0
    3.9298    3.3871   -0.4193 H   0  0  0  0  0  0  0  0  0  0  0  0
  1  2  1  0  0  0  0
  2  3  1  0  0  0  0
  3  4  1  0  0  0  0
  4  5  1  0  0  0  0
  5  6  1  0  0  0  0
  6  7  1  0  0  0  0
  7  8  1  0  0  0  0
  8  9  2  0  0  0  0
  8 10  1  0  0  0  0
 10 11  1  0  0  0  0
 11 12  2  0  0  0  0
 12 13  1  0  0  0  0
 13 14  2  0  0  0  0
 14 15  1  0  0  0  0
 15 16  1  0  0  0  0
 16 17  2  0  0  0  0
 17 18  1  0  0  0  0
 18 19  2  0  0  0  0
 19 20  1  0  0  0  0
 20 21  1  0  0  0  0
 21 22  2  0  0  0  0
 22 23  1  0  0  0  0
 23 24  2  0  0  0  0
 24 25  1  0  0  0  0
 25 26  2  0  0  0  0
 26 27  1  0  0  0  0
 26 28  1  0  0  0  0
 28 29  2  0  0  0  0
 22 30  1  0  0  0  0
 30 31  1  0  0  0  0
 31 32  2  0  0  0  0
 32 33  1  0  0  0  0
 33 34  2  0  0  0  0
 34 35  1  0  0  0  0
 35 36  2  0  0  0  0
 30 37  1  0  0  0  0
 19 38  1  0  0  0  0
 15 39  2  0  0  0  0
 39 40  1  0  0  0  0
 40 41  2  0  0  0  0
 41 42  1  0  0  0  0
 41 43  1  0  0  0  0
 43 44  2  0  0  0  0
 43  7  1  0  0  0  0
 42 10  2  0  0  0  0
 42 14  1  0  0  0  0
 38 16  1  0  0  0  0
 37 20  2  0  0  0  0
 29 23  1  0  0  0  0
 36 31  1  0  0  0  0
  1 45  1  0  0  0  0
  1 46  1  0  0  0  0
  1 47  1  0  0  0  0
  2 48  1  0  0  0  0
  2 49  1  0  0  0  0
  3 50  1  0  0  0  0
  3 51  1  0  0  0  0
  4 52  1  0  0  0  0
  4 53  1  0  0  0  0
  5 54  1  0  0  0  0
  5 55  1  0  0  0  0
  6 56  1  0  0  0  0
  6 57  1  0  0  0  0
 11 58  1  0  0  0  0
 12 59  1  0  0  0  0
 13 60  1  0  0  0  0
 17 61  1  0  0  0  0
 18 62  1  0  0  0  0
 21 63  1  0  0  0  0
 24 64  1  0  0  0  0
 25 65  1  0  0  0  0
 28 66  1  0  0  0  0
 29 67  1  0  0  0  0
 32 68  1  0  0  0  0
 33 69  1  0  0  0  0
 34 70  1  0  0  0  0
 35 71  1  0  0  0  0
 36 72  1  0  0  0  0
 39 73  1  0  0  0  0
 40 74  1  0  0  0  0
M  END
