
  xtb     03212210133D
 energy: -9.988567114447 gnorm: 0.000419569927 xtb: 6.4.1 (afa7bdf)
 49 52  0     0  0            999 V2000
    1.5003   -4.4435   -0.3519 C   0  0  0  0  0  0  0  0  0  0  0  0
    0.6707   -3.4222    0.0972 O   0  0  0  0  0  0  0  0  0  0  0  0
    0.9317   -2.2744   -0.5998 C   0  0  0  0  0  0  0  0  0  0  0  0
    1.8211   -2.1934   -1.4252 O   0  0  0  0  0  0  0  0  0  0  0  0
    0.0691   -1.1060   -0.2805 C   0  0  0  0  0  0  0  0  0  0  0  0
    0.4398    0.2359    0.0454 C   0  0  0  0  0  0  0  0  0  0  0  0
    1.7624    0.8575    0.0963 C   0  0  0  0  0  0  0  0  0  0  0  0
    2.8677    0.2272   -0.3639 C   0  0  0  0  0  0  0  0  0  0  0  0
    4.1467    0.8278   -0.3126 C   0  0  0  0  0  0  0  0  0  0  0  0
    5.2948    0.1836   -0.7827 C   0  0  0  0  0  0  0  0  0  0  0  0
    6.5165    0.7972   -0.7125 C   0  0  0  0  0  0  0  0  0  0  0  0
    6.6254    2.0714   -0.1715 C   0  0  0  0  0  0  0  0  0  0  0  0
    5.5130    2.7214    0.2926 C   0  0  0  0  0  0  0  0  0  0  0  0
    4.2547    2.1172    0.2314 C   0  0  0  0  0  0  0  0  0  0  0  0
    3.1523    2.8023    0.7028 O   0  0  0  0  0  0  0  0  0  0  0  0
    1.9056    2.2180    0.6455 C   0  0  0  0  0  0  0  0  0  0  0  0
    0.9180    2.8155    1.0439 O   0  0  0  0  0  0  0  0  0  0  0  0
   -0.6469    0.9192    0.3480 N   0  0  0  0  0  0  0  0  0  0  0  0
   -1.6886    0.1139    0.2464 N   0  0  0  0  0  0  0  0  0  0  0  0
   -2.9707    0.7162    0.5294 C   0  0  0  0  0  0  0  0  0  0  0  0
   -4.1666    0.0211    0.5439 C   0  0  0  0  0  0  0  0  0  0  0  0
   -5.3461    0.6720    0.8165 C   0  0  0  0  0  0  0  0  0  0  0  0
   -5.3474    2.0240    1.0868 C   0  0  0  0  0  0  0  0  0  0  0  0
   -4.1611    2.7399    1.0989 C   0  0  0  0  0  0  0  0  0  0  0  0
   -4.1543    4.1986    1.3802 C   0  0  0  0  0  0  0  0  0  0  0  0
   -2.9856    2.0721    0.8127 C   0  0  0  0  0  0  0  0  0  0  0  0
   -1.3043   -1.1660   -0.1536 C   0  0  0  0  0  0  0  0  0  0  0  0
   -2.1510   -2.3362   -0.4734 C   0  0  0  0  0  0  0  0  0  0  0  0
   -3.1637   -2.5702    0.1585 O   0  0  0  0  0  0  0  0  0  0  0  0
   -1.7356   -3.1125   -1.5204 O   0  0  0  0  0  0  0  0  0  0  0  0
   -2.5957   -4.1917   -1.6735 C   0  0  0  0  0  0  0  0  0  0  0  0
    2.5381   -4.1617   -0.1708 H   0  0  0  0  0  0  0  0  0  0  0  0
    1.3365   -4.5766   -1.4223 H   0  0  0  0  0  0  0  0  0  0  0  0
    1.2579   -5.3608    0.1848 H   0  0  0  0  0  0  0  0  0  0  0  0
    2.7778   -0.7457   -0.8034 H   0  0  0  0  0  0  0  0  0  0  0  0
    5.2039   -0.8053   -1.2029 H   0  0  0  0  0  0  0  0  0  0  0  0
    7.3952    0.2909   -1.0774 H   0  0  0  0  0  0  0  0  0  0  0  0
    7.5886    2.5502   -0.1180 H   0  0  0  0  0  0  0  0  0  0  0  0
    5.5806    3.7098    0.7127 H   0  0  0  0  0  0  0  0  0  0  0  0
   -4.1557   -1.0353    0.3636 H   0  0  0  0  0  0  0  0  0  0  0  0
   -6.2735    0.1204    0.8247 H   0  0  0  0  0  0  0  0  0  0  0  0
   -6.2720    2.5335    1.2974 H   0  0  0  0  0  0  0  0  0  0  0  0
   -4.8933    4.4546    2.1402 H   0  0  0  0  0  0  0  0  0  0  0  0
   -3.1784    4.5236    1.7433 H   0  0  0  0  0  0  0  0  0  0  0  0
   -4.3836    4.7673    0.4783 H   0  0  0  0  0  0  0  0  0  0  0  0
   -2.0469    2.5966    0.8204 H   0  0  0  0  0  0  0  0  0  0  0  0
   -3.6007   -3.8168   -1.8815 H   0  0  0  0  0  0  0  0  0  0  0  0
   -2.2449   -4.8134   -2.5000 H   0  0  0  0  0  0  0  0  0  0  0  0
   -2.6021   -4.7671   -0.7443 H   0  0  0  0  0  0  0  0  0  0  0  0
  1  2  1  0  0  0  0
  2  3  1  0  0  0  0
  3  4  2  0  0  0  0
  3  5  1  0  0  0  0
  5  6  1  0  0  0  0
  6  7  1  0  0  0  0
  7  8  2  0  0  0  0
  8  9  1  0  0  0  0
  9 10  2  0  0  0  0
 10 11  1  0  0  0  0
 11 12  2  0  0  0  0
 12 13  1  0  0  0  0
 13 14  2  0  0  0  0
 14 15  1  0  0  0  0
 15 16  1  0  0  0  0
 16 17  2  0  0  0  0
  6 18  2  0  0  0  0
 18 19  1  0  0  0  0
 19 20  1  0  0  0  0
 20 21  2  0  0  0  0
 21 22  1  0  0  0  0
 22 23  2  0  0  0  0
 23 24  1  0  0  0  0
 24 25  1  0  0  0  0
 24 26  2  0  0  0  0
 19 27  1  0  0  0  0
 27 28  1  0  0  0  0
 28 29  2  0  0  0  0
 28 30  1  0  0  0  0
 30 31  1  0  0  0  0
 27  5  2  0  0  0  0
 16  7  1  0  0  0  0
 26 20  1  0  0  0  0
 14  9  1  0  0  0  0
  1 32  1  0  0  0  0
  1 33  1  0  0  0  0
  1 34  1  0  0  0  0
  8 35  1  0  0  0  0
 10 36  1  0  0  0  0
 11 37  1  0  0  0  0
 12 38  1  0  0  0  0
 13 39  1  0  0  0  0
 21 40  1  0  0  0  0
 22 41  1  0  0  0  0
 23 42  1  0  0  0  0
 25 43  1  0  0  0  0
 25 44  1  0  0  0  0
 25 45  1  0  0  0  0
 26 46  1  0  0  0  0
 31 47  1  0  0  0  0
 31 48  1  0  0  0  0
 31 49  1  0  0  0  0
M  END
