
  xtb     03212210143D
 energy: -8.736226344216 gnorm: 0.008979469803 xtb: 6.4.1 (afa7bdf)
 45 47  0     0  0            999 V2000
    6.4609   -0.6721   -0.8743 C   0  0  0  0  0  0  0  0  0  0  0  0
    5.6247   -1.0778    0.3226 C   0  0  0  0  0  0  0  0  0  0  0  0
    4.2818   -1.5924   -0.0468 N   0  0  0  0  0  0  0  0  0  0  0  0
    3.5735   -2.1717    1.1207 C   0  0  0  0  0  0  0  0  0  0  0  0
    2.9479   -1.0938    2.0024 C   0  0  0  0  0  0  0  0  0  0  0  0
    2.0994   -0.1916    1.1950 N   0  0  0  0  0  0  0  0  0  0  0  0
    0.6885   -0.1934    1.2911 C   0  0  0  0  0  0  0  0  0  0  0  0
    0.0543   -0.4054    2.5213 C   0  0  0  0  0  0  0  0  0  0  0  0
   -1.3144   -0.4005    2.6218 C   0  0  0  0  0  0  0  0  0  0  0  0
   -2.1070   -0.1842    1.4977 C   0  0  0  0  0  0  0  0  0  0  0  0
   -3.4881   -0.1762    1.5942 N   0  0  0  0  0  0  0  0  0  0  0  0
   -4.1961    0.1808    0.6782 N   0  0  0  0  0  0  0  0  0  0  0  0
   -4.9879    0.5868   -0.3632 C   0  0  0  0  0  0  0  0  0  0  0  0
   -4.5731    1.6047   -1.2121 C   0  0  0  0  0  0  0  0  0  0  0  0
   -5.3669    2.0073   -2.2604 C   0  0  0  0  0  0  0  0  0  0  0  0
   -6.5982    1.4030   -2.4886 C   0  0  0  0  0  0  0  0  0  0  0  0
   -7.4053    1.8106   -3.5607 C   0  0  0  0  0  0  0  0  0  0  0  0
   -8.0713    2.1490   -4.4507 N   0  0  0  0  0  0  0  0  0  0  0  0
   -7.0139    0.3869   -1.6355 C   0  0  0  0  0  0  0  0  0  0  0  0
   -6.2194   -0.0150   -0.5871 C   0  0  0  0  0  0  0  0  0  0  0  0
   -1.4859    0.0222    0.2710 C   0  0  0  0  0  0  0  0  0  0  0  0
   -0.1179    0.0191    0.1666 C   0  0  0  0  0  0  0  0  0  0  0  0
    2.8179    0.4042    0.0542 C   0  0  0  0  0  0  0  0  0  0  0  0
    3.3852   -0.6931   -0.8323 C   0  0  0  0  0  0  0  0  0  0  0  0
    7.4827   -0.4117   -0.5904 H   0  0  0  0  0  0  0  0  0  0  0  0
    6.5157   -1.4830   -1.6019 H   0  0  0  0  0  0  0  0  0  0  0  0
    6.0372    0.1938   -1.3842 H   0  0  0  0  0  0  0  0  0  0  0  0
    6.1364   -1.8649    0.8859 H   0  0  0  0  0  0  0  0  0  0  0  0
    5.5034   -0.2403    1.0155 H   0  0  0  0  0  0  0  0  0  0  0  0
    4.2690   -2.8008    1.6874 H   0  0  0  0  0  0  0  0  0  0  0  0
    2.7962   -2.8427    0.7401 H   0  0  0  0  0  0  0  0  0  0  0  0
    3.7184   -0.4952    2.4962 H   0  0  0  0  0  0  0  0  0  0  0  0
    2.3504   -1.5468    2.7981 H   0  0  0  0  0  0  0  0  0  0  0  0
    0.6516   -0.5345    3.4056 H   0  0  0  0  0  0  0  0  0  0  0  0
   -1.7975   -0.5542    3.5707 H   0  0  0  0  0  0  0  0  0  0  0  0
   -3.6243    2.0784   -1.0292 H   0  0  0  0  0  0  0  0  0  0  0  0
   -5.0448    2.7970   -2.9170 H   0  0  0  0  0  0  0  0  0  0  0  0
   -7.9678   -0.0811   -1.8083 H   0  0  0  0  0  0  0  0  0  0  0  0
   -6.5370   -0.8015    0.0755 H   0  0  0  0  0  0  0  0  0  0  0  0
   -2.1026    0.1731   -0.5964 H   0  0  0  0  0  0  0  0  0  0  0  0
    0.3406    0.1475   -0.7969 H   0  0  0  0  0  0  0  0  0  0  0  0
    2.1592    1.0828   -0.4956 H   0  0  0  0  0  0  0  0  0  0  0  0
    3.6240    1.0273    0.4521 H   0  0  0  0  0  0  0  0  0  0  0  0
    2.5739   -1.3054   -1.2388 H   0  0  0  0  0  0  0  0  0  0  0  0
    3.9267   -0.2889   -1.6932 H   0  0  0  0  0  0  0  0  0  0  0  0
  1  2  1  0  0  0  0
  2  3  1  0  0  0  0
  3  4  1  0  0  0  0
  4  5  1  0  0  0  0
  5  6  1  0  0  0  0
  6  7  1  0  0  0  0
  7  8  2  0  0  0  0
  8  9  1  0  0  0  0
  9 10  2  0  0  0  0
 10 11  1  0  0  0  0
 11 12  2  0  0  0  0
 12 13  1  0  0  0  0
 13 14  2  0  0  0  0
 14 15  1  0  0  0  0
 15 16  2  0  0  0  0
 16 17  1  0  0  0  0
 17 18  3  0  0  0  0
 16 19  1  0  0  0  0
 19 20  2  0  0  0  0
 10 21  1  0  0  0  0
 21 22  2  0  0  0  0
  6 23  1  0  0  0  0
 23 24  1  0  0  0  0
 24  3  1  0  0  0  0
 22  7  1  0  0  0  0
 20 13  1  0  0  0  0
  1 25  1  0  0  0  0
  1 26  1  0  0  0  0
  1 27  1  0  0  0  0
  2 28  1  0  0  0  0
  2 29  1  0  0  0  0
  4 30  1  0  0  0  0
  4 31  1  0  0  0  0
  5 32  1  0  0  0  0
  5 33  1  0  0  0  0
  8 34  1  0  0  0  0
  9 35  1  0  0  0  0
 14 36  1  0  0  0  0
 15 37  1  0  0  0  0
 19 38  1  0  0  0  0
 20 39  1  0  0  0  0
 21 40  1  0  0  0  0
 22 41  1  0  0  0  0
 23 42  1  0  0  0  0
 23 43  1  0  0  0  0
 24 44  1  0  0  0  0
 24 45  1  0  0  0  0
M  END
