
  xtb     03212210123D
 energy: -12.225438967122 gnorm: 0.000151923729 xtb: 6.4.1 (afa7bdf)
 64 67  0     0  0            999 V2000
    8.6432    2.2002   -0.1924 C   0  0  0  0  0  0  0  0  0  0  0  0
    7.3498    2.4858    0.5535 C   0  0  0  0  0  0  0  0  0  0  0  0
    6.3275    1.3563    0.4198 C   0  0  0  0  0  0  0  0  0  0  0  0
    5.0222    1.6411    1.1635 C   0  0  0  0  0  0  0  0  0  0  0  0
    4.0158    0.4904    1.0924 C   0  0  0  0  0  0  0  0  0  0  0  0
    3.5007    0.2177   -0.3131 C   0  0  0  0  0  0  0  0  0  0  0  0
    2.4771   -0.8456   -0.3252 N   0  0  0  0  0  0  0  0  0  0  0  0
    2.9113   -2.1996   -0.1455 C   0  0  0  0  0  0  0  0  0  0  0  0
    2.2351   -3.0421    0.7374 C   0  0  0  0  0  0  0  0  0  0  0  0
    2.6558   -4.3363    0.9413 C   0  0  0  0  0  0  0  0  0  0  0  0
    3.7618   -4.8183    0.2694 C   0  0  0  0  0  0  0  0  0  0  0  0
    4.4452   -3.9990   -0.6076 C   0  0  0  0  0  0  0  0  0  0  0  0
    4.0280   -2.7033   -0.8134 C   0  0  0  0  0  0  0  0  0  0  0  0
    1.0994   -0.4915   -0.3579 C   0  0  0  0  0  0  0  0  0  0  0  0
    0.6481    0.7732    0.0318 C   0  0  0  0  0  0  0  0  0  0  0  0
   -0.6840    1.0955   -0.0103 C   0  0  0  0  0  0  0  0  0  0  0  0
   -1.6361    0.1697   -0.4499 C   0  0  0  0  0  0  0  0  0  0  0  0
   -3.0497    0.4726   -0.5083 C   0  0  0  0  0  0  0  0  0  0  0  0
   -3.6113    1.6575   -0.2021 C   0  0  0  0  0  0  0  0  0  0  0  0
   -5.0385    1.9479   -0.2759 C   0  0  0  0  0  0  0  0  0  0  0  0
   -5.4389    3.1690   -0.7151 C   0  0  0  0  0  0  0  0  0  0  0  0
   -6.8229    3.5237   -0.8880 C   0  0  0  0  0  0  0  0  0  0  0  0
   -7.0877    4.6500   -1.2955 O   0  0  0  0  0  0  0  0  0  0  0  0
   -7.7937    2.5870   -0.6028 O   0  0  0  0  0  0  0  0  0  0  0  0
   -7.4106    1.3523   -0.1016 C   0  0  0  0  0  0  0  0  0  0  0  0
   -8.4150    0.4408    0.2385 C   0  0  0  0  0  0  0  0  0  0  0  0
   -8.1252   -0.7876    0.7858 C   0  0  0  0  0  0  0  0  0  0  0  0
   -9.2171   -1.7244    1.1635 C   0  0  0  0  0  0  0  0  0  0  0  0
   -6.7911   -1.1101    1.0293 C   0  0  0  0  0  0  0  0  0  0  0  0
   -5.7852   -0.2383    0.6963 C   0  0  0  0  0  0  0  0  0  0  0  0
   -6.0635    0.9944    0.0986 C   0  0  0  0  0  0  0  0  0  0  0  0
   -1.1855   -1.0951   -0.8412 C   0  0  0  0  0  0  0  0  0  0  0  0
    0.1462   -1.4148   -0.7959 C   0  0  0  0  0  0  0  0  0  0  0  0
    9.1187    1.2895    0.1764 H   0  0  0  0  0  0  0  0  0  0  0  0
    8.4606    2.0582   -1.2592 H   0  0  0  0  0  0  0  0  0  0  0  0
    9.3654    3.0131   -0.0883 H   0  0  0  0  0  0  0  0  0  0  0  0
    6.9044    3.4224    0.1926 H   0  0  0  0  0  0  0  0  0  0  0  0
    7.5582    2.6626    1.6170 H   0  0  0  0  0  0  0  0  0  0  0  0
    6.7635    0.4201    0.7879 H   0  0  0  0  0  0  0  0  0  0  0  0
    6.1221    1.1772   -0.6416 H   0  0  0  0  0  0  0  0  0  0  0  0
    4.5646    2.5533    0.7619 H   0  0  0  0  0  0  0  0  0  0  0  0
    5.2517    1.8731    2.2116 H   0  0  0  0  0  0  0  0  0  0  0  0
    3.1614    0.6917    1.7505 H   0  0  0  0  0  0  0  0  0  0  0  0
    4.4701   -0.4240    1.4920 H   0  0  0  0  0  0  0  0  0  0  0  0
    4.3189   -0.0747   -0.9743 H   0  0  0  0  0  0  0  0  0  0  0  0
    3.0826    1.1233   -0.7604 H   0  0  0  0  0  0  0  0  0  0  0  0
    1.3854   -2.6565    1.2733 H   0  0  0  0  0  0  0  0  0  0  0  0
    2.1236   -4.9734    1.6287 H   0  0  0  0  0  0  0  0  0  0  0  0
    4.0908   -5.8319    0.4292 H   0  0  0  0  0  0  0  0  0  0  0  0
    5.3061   -4.3767   -1.1348 H   0  0  0  0  0  0  0  0  0  0  0  0
    4.5499   -2.0778   -1.5153 H   0  0  0  0  0  0  0  0  0  0  0  0
    1.3556    1.4982    0.3956 H   0  0  0  0  0  0  0  0  0  0  0  0
   -0.9988    2.0729    0.3063 H   0  0  0  0  0  0  0  0  0  0  0  0
   -3.6916   -0.3109   -0.8687 H   0  0  0  0  0  0  0  0  0  0  0  0
   -2.9694    2.4822    0.0521 H   0  0  0  0  0  0  0  0  0  0  0  0
   -4.7062    3.9056   -0.9870 H   0  0  0  0  0  0  0  0  0  0  0  0
   -9.4367    0.7285    0.0730 H   0  0  0  0  0  0  0  0  0  0  0  0
   -9.6007   -1.4905    2.1571 H   0  0  0  0  0  0  0  0  0  0  0  0
  -10.0470   -1.6630    0.4588 H   0  0  0  0  0  0  0  0  0  0  0  0
   -8.8660   -2.7567    1.1721 H   0  0  0  0  0  0  0  0  0  0  0  0
   -6.5574   -2.0543    1.4901 H   0  0  0  0  0  0  0  0  0  0  0  0
   -4.7679   -0.4929    0.9318 H   0  0  0  0  0  0  0  0  0  0  0  0
   -1.9014   -1.8211   -1.1852 H   0  0  0  0  0  0  0  0  0  0  0  0
    0.4782   -2.3867   -1.1205 H   0  0  0  0  0  0  0  0  0  0  0  0
  1  2  1  0  0  0  0
  2  3  1  0  0  0  0
  3  4  1  0  0  0  0
  4  5  1  0  0  0  0
  5  6  1  0  0  0  0
  6  7  1  0  0  0  0
  7  8  1  0  0  0  0
  8  9  2  0  0  0  0
  9 10  1  0  0  0  0
 10 11  2  0  0  0  0
 11 12  1  0  0  0  0
 12 13  2  0  0  0  0
  7 14  1  0  0  0  0
 14 15  2  0  0  0  0
 15 16  1  0  0  0  0
 16 17  2  0  0  0  0
 17 18  1  0  0  0  0
 18 19  2  0  0  0  0
 19 20  1  0  0  0  0
 20 21  2  0  0  0  0
 21 22  1  0  0  0  0
 22 23  2  0  0  0  0
 22 24  1  0  0  0  0
 24 25  1  0  0  0  0
 25 26  2  0  0  0  0
 26 27  1  0  0  0  0
 27 28  1  0  0  0  0
 27 29  2  0  0  0  0
 29 30  1  0  0  0  0
 30 31  2  0  0  0  0
 17 32  1  0  0  0  0
 32 33  2  0  0  0  0
 13  8  1  0  0  0  0
 33 14  1  0  0  0  0
 31 20  1  0  0  0  0
 31 25  1  0  0  0  0
  1 34  1  0  0  0  0
  1 35  1  0  0  0  0
  1 36  1  0  0  0  0
  2 37  1  0  0  0  0
  2 38  1  0  0  0  0
  3 39  1  0  0  0  0
  3 40  1  0  0  0  0
  4 41  1  0  0  0  0
  4 42  1  0  0  0  0
  5 43  1  0  0  0  0
  5 44  1  0  0  0  0
  6 45  1  0  0  0  0
  6 46  1  0  0  0  0
  9 47  1  0  0  0  0
 10 48  1  0  0  0  0
 11 49  1  0  0  0  0
 12 50  1  0  0  0  0
 13 51  1  0  0  0  0
 15 52  1  0  0  0  0
 16 53  1  0  0  0  0
 18 54  1  0  0  0  0
 19 55  1  0  0  0  0
 21 56  1  0  0  0  0
 26 57  1  0  0  0  0
 28 58  1  0  0  0  0
 28 59  1  0  0  0  0
 28 60  1  0  0  0  0
 29 61  1  0  0  0  0
 30 62  1  0  0  0  0
 32 63  1  0  0  0  0
 33 64  1  0  0  0  0
M  END
