
  xtb     03212210133D
 energy: -8.467398014629 gnorm: 0.000500258658 xtb: 6.4.1 (afa7bdf)
 40 44  0     0  0            999 V2000
    2.2403   -2.1759   -1.1186 F   0  0  0  0  0  0  0  0  0  0  0  0
    2.3183   -1.3424   -0.0103 B   0  0  0  0  0  4  0  0  0  0  0  0
    2.3908   -2.0539    1.1807 F   0  0  0  0  0  0  0  0  0  0  0  0
    1.1106   -0.3912    0.0181 N   0  0  0  0  0  0  0  0  0  0  0  0
    1.6079    0.8756   -0.0911 C   0  0  0  0  0  0  0  0  0  0  0  0
    0.6008    1.7700   -0.0833 N   0  0  0  0  0  0  0  0  0  0  0  0
   -0.5454    1.0433    0.0545 C   0  0  0  0  0  0  0  0  0  0  0  0
   -1.8446    1.6835    0.2365 C   0  0  0  0  0  0  0  0  0  0  0  0
   -2.8515    1.1145    1.0218 C   0  0  0  0  0  0  0  0  0  0  0  0
   -4.0520    1.7606    1.2010 C   0  0  0  0  0  0  0  0  0  0  0  0
   -4.2712    2.9912    0.6143 C   0  0  0  0  0  0  0  0  0  0  0  0
   -3.2799    3.5815   -0.1441 C   0  0  0  0  0  0  0  0  0  0  0  0
   -2.0772    2.9401   -0.3253 C   0  0  0  0  0  0  0  0  0  0  0  0
   -0.2498   -0.3600    0.0875 C   0  0  0  0  0  0  0  0  0  0  0  0
   -1.0800   -1.5485    0.0744 C   0  0  0  0  0  0  0  0  0  0  0  0
   -2.4015   -1.5443   -0.3797 C   0  0  0  0  0  0  0  0  0  0  0  0
   -3.1370   -2.7064   -0.4062 C   0  0  0  0  0  0  0  0  0  0  0  0
   -2.5697   -3.8973    0.0044 C   0  0  0  0  0  0  0  0  0  0  0  0
   -1.2566   -3.9264    0.4313 C   0  0  0  0  0  0  0  0  0  0  0  0
   -0.5184   -2.7675    0.4593 C   0  0  0  0  0  0  0  0  0  0  0  0
    3.0458    0.8874   -0.1877 C   0  0  0  0  0  0  0  0  0  0  0  0
    3.9208    1.9556   -0.3163 C   0  0  0  0  0  0  0  0  0  0  0  0
    5.2656    1.6857   -0.3928 C   0  0  0  0  0  0  0  0  0  0  0  0
    5.7226    0.3749   -0.3425 C   0  0  0  0  0  0  0  0  0  0  0  0
    4.8293   -0.6608   -0.2155 C   0  0  0  0  0  0  0  0  0  0  0  0
    3.5179   -0.3913   -0.1407 N   0  0  0  0  0  4  0  0  0  0  0  0
   -2.6656    0.1747    1.5110 H   0  0  0  0  0  0  0  0  0  0  0  0
   -4.8206    1.3091    1.8060 H   0  0  0  0  0  0  0  0  0  0  0  0
   -5.2135    3.4963    0.7568 H   0  0  0  0  0  0  0  0  0  0  0  0
   -3.4471    4.5476   -0.5904 H   0  0  0  0  0  0  0  0  0  0  0  0
   -1.2941    3.3981   -0.9039 H   0  0  0  0  0  0  0  0  0  0  0  0
   -2.8303   -0.6266   -0.7404 H   0  0  0  0  0  0  0  0  0  0  0  0
   -4.1556   -2.6899   -0.7564 H   0  0  0  0  0  0  0  0  0  0  0  0
   -3.1480   -4.8063   -0.0203 H   0  0  0  0  0  0  0  0  0  0  0  0
   -0.8074   -4.8576    0.7336 H   0  0  0  0  0  0  0  0  0  0  0  0
    0.5141   -2.7797    0.7643 H   0  0  0  0  0  0  0  0  0  0  0  0
    3.5401    2.9605   -0.3541 H   0  0  0  0  0  0  0  0  0  0  0  0
    5.9700    2.4947   -0.4932 H   0  0  0  0  0  0  0  0  0  0  0  0
    6.7783    0.1697   -0.4033 H   0  0  0  0  0  0  0  0  0  0  0  0
    5.1438   -1.6888   -0.1745 H   0  0  0  0  0  0  0  0  0  0  0  0
  1  2  1  0  0  0  0
  2  3  1  0  0  0  0
  2  4  1  0  0  0  0
  4  5  1  0  0  0  0
  5  6  2  0  0  0  0
  6  7  1  0  0  0  0
  7  8  1  0  0  0  0
  8  9  2  0  0  0  0
  9 10  1  0  0  0  0
 10 11  2  0  0  0  0
 11 12  1  0  0  0  0
 12 13  2  0  0  0  0
  7 14  2  0  0  0  0
 14 15  1  0  0  0  0
 15 16  2  0  0  0  0
 16 17  1  0  0  0  0
 17 18  2  0  0  0  0
 18 19  1  0  0  0  0
 19 20  2  0  0  0  0
  5 21  1  0  0  0  0
 21 22  2  0  0  0  0
 22 23  1  0  0  0  0
 23 24  2  0  0  0  0
 24 25  1  0  0  0  0
 25 26  2  0  0  0  0
 26  2  1  0  0  0  0
 14  4  1  0  0  0  0
 20 15  1  0  0  0  0
 26 21  1  0  0  0  0
 13  8  1  0  0  0  0
  9 27  1  0  0  0  0
 10 28  1  0  0  0  0
 11 29  1  0  0  0  0
 12 30  1  0  0  0  0
 13 31  1  0  0  0  0
 16 32  1  0  0  0  0
 17 33  1  0  0  0  0
 18 34  1  0  0  0  0
 19 35  1  0  0  0  0
 20 36  1  0  0  0  0
 22 37  1  0  0  0  0
 23 38  1  0  0  0  0
 24 39  1  0  0  0  0
 25 40  1  0  0  0  0
M  CHG  1   2  -1
M  CHG  1  26   1
M  END
