
  xtb     03212210143D
 energy: -6.412884888322 gnorm: 0.000319886964 xtb: 6.4.1 (afa7bdf)
 29 31  0     0  0            999 V2000
    4.3242    5.5668   -0.5472 N   0  0  0  0  0  0  0  0  0  0  0  0
    3.8240    4.5184   -0.5792 C   0  0  0  0  0  0  0  0  0  0  0  0
    3.2219    3.2568   -0.6167 C   0  0  0  0  0  0  0  0  0  0  0  0
    1.9224    3.0794   -0.1558 C   0  0  0  0  0  0  0  0  0  0  0  0
    1.3315    1.8428   -0.1903 C   0  0  0  0  0  0  0  0  0  0  0  0
    2.0161    0.7316   -0.6878 C   0  0  0  0  0  0  0  0  0  0  0  0
    1.4086   -0.5669   -0.7259 C   0  0  0  0  0  0  0  0  0  0  0  0
    0.1511   -0.8385   -0.2902 C   0  0  0  0  0  0  0  0  0  0  0  0
   -0.7724    0.0328    0.2563 O   0  0  0  0  0  0  0  0  0  0  0  0
   -1.9168   -0.6886    0.5556 C   0  0  0  0  0  0  0  0  0  0  0  0
   -3.1119   -0.2532    1.1178 C   0  0  0  0  0  0  0  0  0  0  0  0
   -4.1270   -1.1629    1.3258 C   0  0  0  0  0  0  0  0  0  0  0  0
   -3.9784   -2.4949    0.9867 C   0  0  0  0  0  0  0  0  0  0  0  0
   -2.7933   -2.9764    0.4191 C   0  0  0  0  0  0  0  0  0  0  0  0
   -2.6259   -4.2914    0.0759 O   0  0  0  0  0  0  0  0  0  0  0  0
   -1.7644   -2.0406    0.2115 C   0  0  0  0  0  0  0  0  0  0  0  0
   -0.4408   -2.1883   -0.3429 C   0  0  0  0  0  0  0  0  0  0  0  0
    0.1160   -3.1786   -0.7745 O   0  0  0  0  0  0  0  0  0  0  0  0
    3.3225    0.9161   -1.1509 C   0  0  0  0  0  0  0  0  0  0  0  0
    3.9101    2.1555   -1.1143 C   0  0  0  0  0  0  0  0  0  0  0  0
    1.3858    3.9312    0.2304 H   0  0  0  0  0  0  0  0  0  0  0  0
    0.3270    1.7111    0.1679 H   0  0  0  0  0  0  0  0  0  0  0  0
    1.9803   -1.3866   -1.1225 H   0  0  0  0  0  0  0  0  0  0  0  0
   -3.2223    0.7834    1.3799 H   0  0  0  0  0  0  0  0  0  0  0  0
   -5.0540   -0.8284    1.7611 H   0  0  0  0  0  0  0  0  0  0  0  0
   -4.7852   -3.1842    1.1586 H   0  0  0  0  0  0  0  0  0  0  0  0
   -3.4326   -4.8107    0.2828 H   0  0  0  0  0  0  0  0  0  0  0  0
    3.8660    0.0725   -1.5378 H   0  0  0  0  0  0  0  0  0  0  0  0
    4.9178    2.2920   -1.4727 H   0  0  0  0  0  0  0  0  0  0  0  0
  1  2  3  0  0  0  0
  2  3  1  0  0  0  0
  3  4  2  0  0  0  0
  4  5  1  0  0  0  0
  5  6  2  0  0  0  0
  6  7  1  0  0  0  0
  7  8  2  0  0  0  0
  8  9  1  0  0  0  0
  9 10  1  0  0  0  0
 10 11  2  0  0  0  0
 11 12  1  0  0  0  0
 12 13  2  0  0  0  0
 13 14  1  0  0  0  0
 14 15  1  0  0  0  0
 14 16  2  0  0  0  0
 16 17  1  0  0  0  0
 17 18  2  0  0  0  0
  6 19  1  0  0  0  0
 19 20  2  0  0  0  0
 20  3  1  0  0  0  0
 17  8  1  0  0  0  0
 16 10  1  0  0  0  0
  4 21  1  0  0  0  0
  5 22  1  0  0  0  0
  7 23  1  0  0  0  0
 11 24  1  0  0  0  0
 12 25  1  0  0  0  0
 13 26  1  0  0  0  0
 15 27  1  0  0  0  0
 19 28  1  0  0  0  0
 20 29  1  0  0  0  0
M  END
