
  xtb     03212210133D
 energy: -10.014269348512 gnorm: 0.000289571170 xtb: 6.4.1 (afa7bdf)
 50 53  0     0  0            999 V2000
    6.4147   -3.7638    0.2601 C   0  0  0  0  0  0  0  0  0  0  0  0
    6.3054   -2.3799    0.0366 O   0  0  0  0  0  0  0  0  0  0  0  0
    5.0029   -1.8814    0.0532 C   0  0  0  0  0  0  0  0  0  0  0  0
    3.8554   -2.6551    0.2570 C   0  0  0  0  0  0  0  0  0  0  0  0
    2.6115   -2.0771    0.2574 C   0  0  0  0  0  0  0  0  0  0  0  0
    2.4521   -0.7075    0.0656 C   0  0  0  0  0  0  0  0  0  0  0  0
    1.0996   -0.1499    0.0569 C   0  0  0  0  0  0  0  0  0  0  0  0
   -0.0060   -0.9129   -0.1981 O   0  0  0  0  0  0  0  0  0  0  0  0
   -1.0965   -0.0898   -0.1456 C   0  0  0  0  0  0  0  0  0  0  0  0
   -2.4565   -0.5728   -0.3853 C   0  0  0  0  0  0  0  0  0  0  0  0
   -3.4910    0.2591   -0.8125 C   0  0  0  0  0  0  0  0  0  0  0  0
   -4.7446   -0.2464   -1.0402 C   0  0  0  0  0  0  0  0  0  0  0  0
   -5.0231   -1.6057   -0.8626 C   0  0  0  0  0  0  0  0  0  0  0  0
   -6.3265   -2.0324   -1.1165 O   0  0  0  0  0  0  0  0  0  0  0  0
   -6.5519   -3.4055   -0.9144 C   0  0  0  0  0  0  0  0  0  0  0  0
   -3.9776   -2.4384   -0.4499 C   0  0  0  0  0  0  0  0  0  0  0  0
   -2.7245   -1.9292   -0.2227 C   0  0  0  0  0  0  0  0  0  0  0  0
   -0.6916    1.2205    0.1672 C   0  0  0  0  0  0  0  0  0  0  0  0
    0.7155    1.1818    0.2976 C   0  0  0  0  0  0  0  0  0  0  0  0
    1.5618    2.2571    0.7521 C   0  0  0  0  0  0  0  0  0  0  0  0
    1.3041    3.5689    0.6042 C   0  0  0  0  0  0  0  0  0  0  0  0
    2.2596    4.5065    1.1537 C   0  0  0  0  0  0  0  0  0  0  0  0
    3.2852    4.1917    1.6993 O   0  0  0  0  0  0  0  0  0  0  0  0
    0.1286    4.0622   -0.1768 C   0  0  0  0  0  0  0  0  0  0  0  0
   -1.1967    3.6378    0.3696 C   0  0  0  0  0  0  0  0  0  0  0  0
   -2.1860    4.6289    0.7341 C   0  0  0  0  0  0  0  0  0  0  0  0
   -3.3112    4.3732    1.0766 O   0  0  0  0  0  0  0  0  0  0  0  0
   -1.5478    2.3426    0.4618 C   0  0  0  0  0  0  0  0  0  0  0  0
    3.5914    0.0659   -0.1547 C   0  0  0  0  0  0  0  0  0  0  0  0
    4.8361   -0.5082   -0.1554 C   0  0  0  0  0  0  0  0  0  0  0  0
    5.8872   -4.3084   -0.5239 H   0  0  0  0  0  0  0  0  0  0  0  0
    7.4712   -4.0329    0.2301 H   0  0  0  0  0  0  0  0  0  0  0  0
    6.0121   -4.0129    1.2427 H   0  0  0  0  0  0  0  0  0  0  0  0
    3.9465   -3.7143    0.4124 H   0  0  0  0  0  0  0  0  0  0  0  0
    1.7297   -2.6768    0.4054 H   0  0  0  0  0  0  0  0  0  0  0  0
   -3.2947    1.3004   -0.9946 H   0  0  0  0  0  0  0  0  0  0  0  0
   -5.5444    0.3949   -1.3658 H   0  0  0  0  0  0  0  0  0  0  0  0
   -6.3506   -3.6642    0.1259 H   0  0  0  0  0  0  0  0  0  0  0  0
   -5.9209   -3.9873   -1.5872 H   0  0  0  0  0  0  0  0  0  0  0  0
   -7.5985   -3.6170   -1.1369 H   0  0  0  0  0  0  0  0  0  0  0  0
   -4.1550   -3.4888   -0.3104 H   0  0  0  0  0  0  0  0  0  0  0  0
   -1.9199   -2.5739    0.0872 H   0  0  0  0  0  0  0  0  0  0  0  0
    2.4612    1.9971    1.2856 H   0  0  0  0  0  0  0  0  0  0  0  0
    2.0602    5.5658    1.0733 H   0  0  0  0  0  0  0  0  0  0  0  0
    0.2157    3.7085   -1.2091 H   0  0  0  0  0  0  0  0  0  0  0  0
    0.1644    5.1541   -0.2372 H   0  0  0  0  0  0  0  0  0  0  0  0
   -1.9185    5.6755    0.6954 H   0  0  0  0  0  0  0  0  0  0  0  0
   -2.5436    2.1350    0.8172 H   0  0  0  0  0  0  0  0  0  0  0  0
    3.4893    1.1168   -0.3574 H   0  0  0  0  0  0  0  0  0  0  0  0
    5.7159    0.0880   -0.3210 H   0  0  0  0  0  0  0  0  0  0  0  0
  1  2  1  0  0  0  0
  2  3  1  0  0  0  0
  3  4  2  0  0  0  0
  4  5  1  0  0  0  0
  5  6  2  0  0  0  0
  6  7  1  0  0  0  0
  7  8  1  0  0  0  0
  8  9  1  0  0  0  0
  9 10  1  0  0  0  0
 10 11  2  0  0  0  0
 11 12  1  0  0  0  0
 12 13  2  0  0  0  0
 13 14  1  0  0  0  0
 14 15  1  0  0  0  0
 13 16  1  0  0  0  0
 16 17  2  0  0  0  0
  9 18  2  0  0  0  0
 18 19  1  0  0  0  0
 19 20  1  0  0  0  0
 20 21  2  0  0  0  0
 21 22  1  0  0  0  0
 22 23  2  0  0  0  0
 21 24  1  0  0  0  0
 24 25  1  0  0  0  0
 25 26  1  0  0  0  0
 26 27  2  0  0  0  0
 25 28  2  0  0  0  0
  6 29  1  0  0  0  0
 29 30  2  0  0  0  0
 30  3  1  0  0  0  0
 19  7  2  0  0  0  0
 17 10  1  0  0  0  0
 28 18  1  0  0  0  0
  1 31  1  0  0  0  0
  1 32  1  0  0  0  0
  1 33  1  0  0  0  0
  4 34  1  0  0  0  0
  5 35  1  0  0  0  0
 11 36  1  0  0  0  0
 12 37  1  0  0  0  0
 15 38  1  0  0  0  0
 15 39  1  0  0  0  0
 15 40  1  0  0  0  0
 16 41  1  0  0  0  0
 17 42  1  0  0  0  0
 20 43  1  0  0  0  0
 22 44  1  0  0  0  0
 24 45  1  0  0  0  0
 24 46  1  0  0  0  0
 26 47  1  0  0  0  0
 28 48  1  0  0  0  0
 29 49  1  0  0  0  0
 30 50  1  0  0  0  0
M  END
