
  xtb     03212210143D
 energy: -5.502346502267 gnorm: 0.000233752732 xtb: 6.4.1 (afa7bdf)
 26 28  0     0  0            999 V2000
    3.8422    1.3261   -1.0645 N   0  0  0  0  0  0  0  0  0  0  0  0
    2.7047    0.6902   -0.6074 C   0  0  0  0  0  0  0  0  0  0  0  0
    1.4562    1.1698   -0.9321 C   0  0  0  0  0  0  0  0  0  0  0  0
    0.2701    0.5812   -0.4503 C   0  0  0  0  0  0  0  0  0  0  0  0
   -0.9006    1.1093   -0.8063 N   0  0  0  0  0  0  0  0  0  0  0  0
   -1.9700    0.4907   -0.2983 C   0  0  0  0  0  0  0  0  0  0  0  0
   -3.2553    0.9756   -0.6168 C   0  0  0  0  0  0  0  0  0  0  0  0
   -4.3846    0.3886   -0.1295 C   0  0  0  0  0  0  0  0  0  0  0  0
   -5.6046    0.8677   -0.4455 F   0  0  0  0  0  0  0  0  0  0  0  0
   -4.2829   -0.7335    0.7159 C   0  0  0  0  0  0  0  0  0  0  0  0
   -5.4075   -1.3054    1.1913 F   0  0  0  0  0  0  0  0  0  0  0  0
   -3.0554   -1.2272    1.0432 C   0  0  0  0  0  0  0  0  0  0  0  0
   -1.8670   -0.6440    0.5573 C   0  0  0  0  0  0  0  0  0  0  0  0
   -0.6935   -1.1730    0.9142 N   0  0  0  0  0  0  0  0  0  0  0  0
    0.3733   -0.5552    0.4077 C   0  0  0  0  0  0  0  0  0  0  0  0
    1.6562   -1.0455    0.7228 C   0  0  0  0  0  0  0  0  0  0  0  0
    2.8078   -0.4705    0.2356 C   0  0  0  0  0  0  0  0  0  0  0  0
    4.0432   -1.0127    0.5311 N   0  0  0  0  0  0  0  0  0  0  0  0
    3.7898    2.2321   -1.5089 H   0  0  0  0  0  0  0  0  0  0  0  0
    4.7372    1.1963   -0.6145 H   0  0  0  0  0  0  0  0  0  0  0  0
    1.3724    2.0307   -1.5679 H   0  0  0  0  0  0  0  0  0  0  0  0
   -3.3463    1.8300   -1.2601 H   0  0  0  0  0  0  0  0  0  0  0  0
   -2.9913   -2.0825    1.6886 H   0  0  0  0  0  0  0  0  0  0  0  0
    1.7270   -1.9068    1.3595 H   0  0  0  0  0  0  0  0  0  0  0  0
    4.1228   -1.9198    0.9691 H   0  0  0  0  0  0  0  0  0  0  0  0
    4.8560   -0.8123   -0.0341 H   0  0  0  0  0  0  0  0  0  0  0  0
  1  2  1  0  0  0  0
  2  3  2  0  0  0  0
  3  4  1  0  0  0  0
  4  5  2  0  0  0  0
  5  6  1  0  0  0  0
  6  7  2  0  0  0  0
  7  8  1  0  0  0  0
  8  9  1  0  0  0  0
  8 10  2  0  0  0  0
 10 11  1  0  0  0  0
 10 12  1  0  0  0  0
 12 13  2  0  0  0  0
 13 14  1  0  0  0  0
 14 15  2  0  0  0  0
 15 16  1  0  0  0  0
 16 17  2  0  0  0  0
 17 18  1  0  0  0  0
 17  2  1  0  0  0  0
 15  4  1  0  0  0  0
 13  6  1  0  0  0  0
  1 19  1  0  0  0  0
  1 20  1  0  0  0  0
  3 21  1  0  0  0  0
  7 22  1  0  0  0  0
 12 23  1  0  0  0  0
 16 24  1  0  0  0  0
 18 25  1  0  0  0  0
 18 26  1  0  0  0  0
M  END
