
  xtb     03212210123D
 energy: -3.834601099779 gnorm: 0.000260910930 xtb: 6.4.1 (afa7bdf)
 20 20  0     0  0            999 V2000
   -3.6684   -0.4861   -0.2715 C   0  0  0  0  0  0  0  0  0  0  0  0
   -2.2106   -0.7446   -0.0973 C   0  0  0  0  0  0  0  0  0  0  0  0
   -1.8127   -1.8831    0.0376 O   0  0  0  0  0  0  0  0  0  0  0  0
   -1.3700    0.3566   -0.0889 N   0  0  0  0  0  0  0  0  0  0  0  0
    0.0345    0.3252    0.0671 C   0  0  0  0  0  0  0  0  0  0  0  0
    0.7216   -0.8732    0.2184 C   0  0  0  0  0  0  0  0  0  0  0  0
    2.0868   -0.8977    0.3674 C   0  0  0  0  0  0  0  0  0  0  0  0
    2.8196    0.2892    0.3707 C   0  0  0  0  0  0  0  0  0  0  0  0
    4.1978    0.3020    0.5185 O   0  0  0  0  0  0  0  0  0  0  0  0
    2.1306    1.4923    0.2195 C   0  0  0  0  0  0  0  0  0  0  0  0
    0.7648    1.5099    0.0704 C   0  0  0  0  0  0  0  0  0  0  0  0
   -4.0835   -0.0027    0.6120 H   0  0  0  0  0  0  0  0  0  0  0  0
   -4.1963   -1.4266   -0.4237 H   0  0  0  0  0  0  0  0  0  0  0  0
   -3.8518    0.1517   -1.1353 H   0  0  0  0  0  0  0  0  0  0  0  0
   -1.7957    1.2721   -0.1974 H   0  0  0  0  0  0  0  0  0  0  0  0
    0.1547   -1.7869    0.2161 H   0  0  0  0  0  0  0  0  0  0  0  0
    2.6033   -1.8338    0.4827 H   0  0  0  0  0  0  0  0  0  0  0  0
    4.5333   -0.6151    0.6139 H   0  0  0  0  0  0  0  0  0  0  0  0
    2.6972    2.4063    0.2228 H   0  0  0  0  0  0  0  0  0  0  0  0
    0.2445    2.4444   -0.0453 H   0  0  0  0  0  0  0  0  0  0  0  0
  1  2  1  0  0  0  0
  2  3  2  0  0  0  0
  2  4  1  0  0  0  0
  4  5  1  0  0  0  0
  5  6  2  0  0  0  0
  6  7  1  0  0  0  0
  7  8  2  0  0  0  0
  8  9  1  0  0  0  0
  8 10  1  0  0  0  0
 10 11  2  0  0  0  0
 11  5  1  0  0  0  0
  1 12  1  0  0  0  0
  1 13  1  0  0  0  0
  1 14  1  0  0  0  0
  4 15  1  0  0  0  0
  6 16  1  0  0  0  0
  7 17  1  0  0  0  0
  9 18  1  0  0  0  0
 10 19  1  0  0  0  0
 11 20  1  0  0  0  0
M  END
