
  xtb     03212210133D
 energy: -10.341926607772 gnorm: 0.000289640951 xtb: 6.4.1 (afa7bdf)
 52 55  0     0  0            999 V2000
    0.9595    3.2464    2.7631 C   0  0  0  0  0  0  0  0  0  0  0  0
    2.0098    2.3335    2.1671 C   0  0  0  0  0  0  0  0  0  0  0  0
    1.4391    1.1743    1.6124 O   0  0  0  0  0  0  0  0  0  0  0  0
    0.7117    1.4964    0.4979 C   0  0  0  0  0  0  0  0  0  0  0  0
    0.7030    2.6108    0.0065 O   0  0  0  0  0  0  0  0  0  0  0  0
   -0.0981    0.4060   -0.1147 C   0  0  0  0  0  0  0  0  0  0  0  0
    0.3635   -0.7655   -0.7818 C   0  0  0  0  0  0  0  0  0  0  0  0
    1.7382   -1.2080   -0.9905 C   0  0  0  0  0  0  0  0  0  0  0  0
    2.7823   -0.5770   -0.4030 C   0  0  0  0  0  0  0  0  0  0  0  0
    4.1181   -0.9839   -0.6270 C   0  0  0  0  0  0  0  0  0  0  0  0
    5.2082   -0.3349   -0.0397 C   0  0  0  0  0  0  0  0  0  0  0  0
    6.4872   -0.7556   -0.2886 C   0  0  0  0  0  0  0  0  0  0  0  0
    6.7137   -1.8362   -1.1301 C   0  0  0  0  0  0  0  0  0  0  0  0
    5.6602   -2.4878   -1.7146 C   0  0  0  0  0  0  0  0  0  0  0  0
    4.3458   -2.0789   -1.4770 C   0  0  0  0  0  0  0  0  0  0  0  0
    3.3075   -2.7631   -2.0786 O   0  0  0  0  0  0  0  0  0  0  0  0
    2.0065   -2.3705   -1.8526 C   0  0  0  0  0  0  0  0  0  0  0  0
    1.0725   -2.9764   -2.3542 O   0  0  0  0  0  0  0  0  0  0  0  0
   -0.6744   -1.4380   -1.2400 N   0  0  0  0  0  0  0  0  0  0  0  0
   -1.7726   -0.7770   -0.9160 N   0  0  0  0  0  0  0  0  0  0  0  0
   -3.0104   -1.4047   -1.3279 C   0  0  0  0  0  0  0  0  0  0  0  0
   -4.2601   -0.8213   -1.1837 C   0  0  0  0  0  0  0  0  0  0  0  0
   -5.3929   -1.4764   -1.5992 C   0  0  0  0  0  0  0  0  0  0  0  0
   -5.2968   -2.7338   -2.1742 C   0  0  0  0  0  0  0  0  0  0  0  0
   -6.7213   -3.5620   -2.6900 Cl  0  0  0  0  0  0  0  0  0  0  0  0
   -4.0522   -3.3216   -2.3354 C   0  0  0  0  0  0  0  0  0  0  0  0
   -2.9243   -2.6591   -1.9174 C   0  0  0  0  0  0  0  0  0  0  0  0
   -1.4758    0.3856   -0.1998 C   0  0  0  0  0  0  0  0  0  0  0  0
   -2.3798    1.3736    0.4260 C   0  0  0  0  0  0  0  0  0  0  0  0
   -3.4837    1.5927   -0.0346 O   0  0  0  0  0  0  0  0  0  0  0  0
   -1.9082    2.0029    1.5481 O   0  0  0  0  0  0  0  0  0  0  0  0
   -2.8503    2.9382    2.0190 C   0  0  0  0  0  0  0  0  0  0  0  0
   -4.0350    2.2850    2.6973 C   0  0  0  0  0  0  0  0  0  0  0  0
    0.3936    2.7254    3.5364 H   0  0  0  0  0  0  0  0  0  0  0  0
    1.3912    4.1496    3.1986 H   0  0  0  0  0  0  0  0  0  0  0  0
    0.2472    3.5435    1.9903 H   0  0  0  0  0  0  0  0  0  0  0  0
    2.7361    2.0073    2.9224 H   0  0  0  0  0  0  0  0  0  0  0  0
    2.5705    2.8352    1.3667 H   0  0  0  0  0  0  0  0  0  0  0  0
    2.6004    0.2355    0.2721 H   0  0  0  0  0  0  0  0  0  0  0  0
    5.0275    0.5052    0.6115 H   0  0  0  0  0  0  0  0  0  0  0  0
    7.3200   -0.2464    0.1686 H   0  0  0  0  0  0  0  0  0  0  0  0
    7.7215   -2.1630   -1.3233 H   0  0  0  0  0  0  0  0  0  0  0  0
    5.8190   -3.3277   -2.3686 H   0  0  0  0  0  0  0  0  0  0  0  0
   -4.3278    0.1597   -0.7598 H   0  0  0  0  0  0  0  0  0  0  0  0
   -6.3655   -1.0231   -1.4904 H   0  0  0  0  0  0  0  0  0  0  0  0
   -3.9854   -4.2953   -2.7943 H   0  0  0  0  0  0  0  0  0  0  0  0
   -1.9469   -3.0889   -2.0532 H   0  0  0  0  0  0  0  0  0  0  0  0
   -2.3190    3.6127    2.7033 H   0  0  0  0  0  0  0  0  0  0  0  0
   -3.1609    3.5395    1.1520 H   0  0  0  0  0  0  0  0  0  0  0  0
   -4.5529    1.6297    1.9964 H   0  0  0  0  0  0  0  0  0  0  0  0
   -4.7524    3.0174    3.0698 H   0  0  0  0  0  0  0  0  0  0  0  0
   -3.7072    1.6698    3.5348 H   0  0  0  0  0  0  0  0  0  0  0  0
  1  2  1  0  0  0  0
  2  3  1  0  0  0  0
  3  4  1  0  0  0  0
  4  5  2  0  0  0  0
  4  6  1  0  0  0  0
  6  7  1  0  0  0  0
  7  8  1  0  0  0  0
  8  9  2  0  0  0  0
  9 10  1  0  0  0  0
 10 11  2  0  0  0  0
 11 12  1  0  0  0  0
 12 13  2  0  0  0  0
 13 14  1  0  0  0  0
 14 15  2  0  0  0  0
 15 16  1  0  0  0  0
 16 17  1  0  0  0  0
 17 18  2  0  0  0  0
  7 19  2  0  0  0  0
 19 20  1  0  0  0  0
 20 21  1  0  0  0  0
 21 22  2  0  0  0  0
 22 23  1  0  0  0  0
 23 24  2  0  0  0  0
 24 25  1  0  0  0  0
 24 26  1  0  0  0  0
 26 27  2  0  0  0  0
 20 28  1  0  0  0  0
 28 29  1  0  0  0  0
 29 30  2  0  0  0  0
 29 31  1  0  0  0  0
 31 32  1  0  0  0  0
 32 33  1  0  0  0  0
 28  6  2  0  0  0  0
 17  8  1  0  0  0  0
 27 21  1  0  0  0  0
 15 10  1  0  0  0  0
  1 34  1  0  0  0  0
  1 35  1  0  0  0  0
  1 36  1  0  0  0  0
  2 37  1  0  0  0  0
  2 38  1  0  0  0  0
  9 39  1  0  0  0  0
 11 40  1  0  0  0  0
 12 41  1  0  0  0  0
 13 42  1  0  0  0  0
 14 43  1  0  0  0  0
 22 44  1  0  0  0  0
 23 45  1  0  0  0  0
 26 46  1  0  0  0  0
 27 47  1  0  0  0  0
 32 48  1  0  0  0  0
 32 49  1  0  0  0  0
 33 50  1  0  0  0  0
 33 51  1  0  0  0  0
 33 52  1  0  0  0  0
M  END
