
  xtb     03212210143D
 energy: -19.407459853472 gnorm: 0.000229876665 xtb: 6.4.1 (afa7bdf)
 84 90  0     0  0            999 V2000
    1.7783    3.6693    0.3559 C   0  0  0  0  0  0  0  0  0  0  0  0
    1.2107    2.5934    0.2501 C   0  0  0  0  0  0  0  0  0  0  0  0
    0.6069    1.3271    0.1252 C   0  0  0  0  0  0  0  0  0  0  0  0
   -0.7660    1.2176   -0.1411 C   0  0  0  0  0  0  0  0  0  0  0  0
   -1.5741    2.3636   -0.2832 C   0  0  0  0  0  0  0  0  0  0  0  0
   -2.3871    3.2640   -0.4237 C   0  0  0  0  0  0  0  0  0  0  0  0
   -3.4244    4.2018   -0.6025 C   0  0  0  0  0  0  0  0  0  0  0  0
   -3.8180    4.5887   -1.8789 C   0  0  0  0  0  0  0  0  0  0  0  0
   -4.8653    5.4677   -2.0558 C   0  0  0  0  0  0  0  0  0  0  0  0
   -5.5362    5.9732   -0.9610 C   0  0  0  0  0  0  0  0  0  0  0  0
   -5.1572    5.5986    0.3119 C   0  0  0  0  0  0  0  0  0  0  0  0
   -4.1107    4.7189    0.4906 C   0  0  0  0  0  0  0  0  0  0  0  0
   -1.3603   -0.0482   -0.2696 C   0  0  0  0  0  0  0  0  0  0  0  0
   -2.7422   -0.1263   -0.5342 C   0  0  0  0  0  0  0  0  0  0  0  0
   -3.9397   -0.0438   -0.7589 C   0  0  0  0  0  0  0  0  0  0  0  0
   -5.3073    0.1872   -1.0120 C   0  0  0  0  0  0  0  0  0  0  0  0
   -5.7881    1.4894   -1.0928 C   0  0  0  0  0  0  0  0  0  0  0  0
   -7.1214    1.7345   -1.3402 C   0  0  0  0  0  0  0  0  0  0  0  0
   -7.9963    0.6811   -1.5106 C   0  0  0  0  0  0  0  0  0  0  0  0
   -7.5345   -0.6175   -1.4330 C   0  0  0  0  0  0  0  0  0  0  0  0
   -6.2003   -0.8639   -1.1856 C   0  0  0  0  0  0  0  0  0  0  0  0
   -0.5800   -1.2046   -0.1336 C   0  0  0  0  0  0  0  0  0  0  0  0
   -1.1428   -2.4906   -0.2588 C   0  0  0  0  0  0  0  0  0  0  0  0
   -1.4703   -3.6646   -0.3371 C   0  0  0  0  0  0  0  0  0  0  0  0
   -1.6918   -5.0557   -0.3963 C   0  0  0  0  0  0  0  0  0  0  0  0
   -2.0173   -5.7717    0.7503 C   0  0  0  0  0  0  0  0  0  0  0  0
   -2.1797   -7.1401    0.7027 C   0  0  0  0  0  0  0  0  0  0  0  0
   -2.0173   -7.8146   -0.4902 C   0  0  0  0  0  0  0  0  0  0  0  0
   -1.6935   -7.1178   -1.6365 C   0  0  0  0  0  0  0  0  0  0  0  0
   -1.5309   -5.7495   -1.5906 C   0  0  0  0  0  0  0  0  0  0  0  0
    0.7936   -1.0950    0.1346 C   0  0  0  0  0  0  0  0  0  0  0  0
    1.5577   -2.2719    0.2661 C   0  0  0  0  0  0  0  0  0  0  0  0
    2.1109   -3.3570    0.3542 C   0  0  0  0  0  0  0  0  0  0  0  0
    2.6420   -4.6604    0.4301 C   0  0  0  0  0  0  0  0  0  0  0  0
    3.9916   -4.8779    0.6830 C   0  0  0  0  0  0  0  0  0  0  0  0
    4.4941   -6.1602    0.7531 C   0  0  0  0  0  0  0  0  0  0  0  0
    3.6574   -7.2431    0.5719 C   0  0  0  0  0  0  0  0  0  0  0  0
    2.3155   -7.0422    0.3201 C   0  0  0  0  0  0  0  0  0  0  0  0
    1.8121   -5.7614    0.2498 C   0  0  0  0  0  0  0  0  0  0  0  0
    1.3870    0.1689    0.2664 C   0  0  0  0  0  0  0  0  0  0  0  0
    2.7636    0.2784    0.5440 C   0  0  0  0  0  0  0  0  0  0  0  0
    3.9524    0.3973    0.7957 C   0  0  0  0  0  0  0  0  0  0  0  0
    5.3206    0.5545    1.0953 C   0  0  0  0  0  0  0  0  0  0  0  0
    6.2293   -0.4634    0.8281 C   0  0  0  0  0  0  0  0  0  0  0  0
    7.5673   -0.3055    1.1215 C   0  0  0  0  0  0  0  0  0  0  0  0
    8.0177    0.8708    1.6857 C   0  0  0  0  0  0  0  0  0  0  0  0
    7.1273    1.8896    1.9577 C   0  0  0  0  0  0  0  0  0  0  0  0
    5.7890    1.7330    1.6658 C   0  0  0  0  0  0  0  0  0  0  0  0
    2.4678    4.8926    0.4766 C   0  0  0  0  0  0  0  0  0  0  0  0
    1.7889    6.0683    0.7766 C   0  0  0  0  0  0  0  0  0  0  0  0
    2.4692    7.2618    0.8956 C   0  0  0  0  0  0  0  0  0  0  0  0
    3.8373    7.2990    0.7171 C   0  0  0  0  0  0  0  0  0  0  0  0
    4.5247    6.1402    0.4181 C   0  0  0  0  0  0  0  0  0  0  0  0
    3.8459    4.9463    0.2979 C   0  0  0  0  0  0  0  0  0  0  0  0
   -3.2980    4.1828   -2.7299 H   0  0  0  0  0  0  0  0  0  0  0  0
   -5.1624    5.7576   -3.0506 H   0  0  0  0  0  0  0  0  0  0  0  0
   -6.3557    6.6595   -1.0999 H   0  0  0  0  0  0  0  0  0  0  0  0
   -5.6818    5.9914    1.1677 H   0  0  0  0  0  0  0  0  0  0  0  0
   -3.8177    4.4146    1.4810 H   0  0  0  0  0  0  0  0  0  0  0  0
   -5.1012    2.3071   -0.9603 H   0  0  0  0  0  0  0  0  0  0  0  0
   -7.4787    2.7497   -1.4004 H   0  0  0  0  0  0  0  0  0  0  0  0
   -9.0393    0.8721   -1.7043 H   0  0  0  0  0  0  0  0  0  0  0  0
   -8.2176   -1.4406   -1.5661 H   0  0  0  0  0  0  0  0  0  0  0  0
   -5.8343   -1.8747   -1.1242 H   0  0  0  0  0  0  0  0  0  0  0  0
   -2.1307   -5.2419    1.6809 H   0  0  0  0  0  0  0  0  0  0  0  0
   -2.4301   -7.6837    1.5991 H   0  0  0  0  0  0  0  0  0  0  0  0
   -2.1424   -8.8845   -0.5263 H   0  0  0  0  0  0  0  0  0  0  0  0
   -1.5636   -7.6441   -2.5682 H   0  0  0  0  0  0  0  0  0  0  0  0
   -1.2662   -5.2023   -2.4794 H   0  0  0  0  0  0  0  0  0  0  0  0
    4.6393   -4.0294    0.8238 H   0  0  0  0  0  0  0  0  0  0  0  0
    5.5423   -6.3168    0.9498 H   0  0  0  0  0  0  0  0  0  0  0  0
    4.0516   -8.2448    0.6270 H   0  0  0  0  0  0  0  0  0  0  0  0
    1.6595   -7.8857    0.1781 H   0  0  0  0  0  0  0  0  0  0  0  0
    0.7666   -5.5989    0.0534 H   0  0  0  0  0  0  0  0  0  0  0  0
    5.8718   -1.3789    0.3881 H   0  0  0  0  0  0  0  0  0  0  0  0
    8.2621   -1.1020    0.9096 H   0  0  0  0  0  0  0  0  0  0  0  0
    9.0639    0.9934    1.9145 H   0  0  0  0  0  0  0  0  0  0  0  0
    7.4777    2.8083    2.3992 H   0  0  0  0  0  0  0  0  0  0  0  0
    5.0888    2.5224    1.8794 H   0  0  0  0  0  0  0  0  0  0  0  0
    0.7215    6.0330    0.9141 H   0  0  0  0  0  0  0  0  0  0  0  0
    1.9315    8.1666    1.1282 H   0  0  0  0  0  0  0  0  0  0  0  0
    4.3683    8.2324    0.8104 H   0  0  0  0  0  0  0  0  0  0  0  0
    5.5931    6.1680    0.2777 H   0  0  0  0  0  0  0  0  0  0  0  0
    4.3758    4.0395    0.0615 H   0  0  0  0  0  0  0  0  0  0  0  0
  1  2  3  0  0  0  0
  2  3  1  0  0  0  0
  3  4  2  0  0  0  0
  4  5  1  0  0  0  0
  5  6  3  0  0  0  0
  6  7  1  0  0  0  0
  7  8  2  0  0  0  0
  8  9  1  0  0  0  0
  9 10  2  0  0  0  0
 10 11  1  0  0  0  0
 11 12  2  0  0  0  0
  4 13  1  0  0  0  0
 13 14  1  0  0  0  0
 14 15  3  0  0  0  0
 15 16  1  0  0  0  0
 16 17  2  0  0  0  0
 17 18  1  0  0  0  0
 18 19  2  0  0  0  0
 19 20  1  0  0  0  0
 20 21  2  0  0  0  0
 13 22  2  0  0  0  0
 22 23  1  0  0  0  0
 23 24  3  0  0  0  0
 24 25  1  0  0  0  0
 25 26  2  0  0  0  0
 26 27  1  0  0  0  0
 27 28  2  0  0  0  0
 28 29  1  0  0  0  0
 29 30  2  0  0  0  0
 22 31  1  0  0  0  0
 31 32  1  0  0  0  0
 32 33  3  0  0  0  0
 33 34  1  0  0  0  0
 34 35  2  0  0  0  0
 35 36  1  0  0  0  0
 36 37  2  0  0  0  0
 37 38  1  0  0  0  0
 38 39  2  0  0  0  0
 31 40  2  0  0  0  0
 40 41  1  0  0  0  0
 41 42  3  0  0  0  0
 42 43  1  0  0  0  0
 43 44  2  0  0  0  0
 44 45  1  0  0  0  0
 45 46  2  0  0  0  0
 46 47  1  0  0  0  0
 47 48  2  0  0  0  0
  1 49  1  0  0  0  0
 49 50  2  0  0  0  0
 50 51  1  0  0  0  0
 51 52  2  0  0  0  0
 52 53  1  0  0  0  0
 53 54  2  0  0  0  0
 40  3  1  0  0  0  0
 48 43  1  0  0  0  0
 54 49  1  0  0  0  0
 12  7  1  0  0  0  0
 21 16  1  0  0  0  0
 30 25  1  0  0  0  0
 39 34  1  0  0  0  0
  8 55  1  0  0  0  0
  9 56  1  0  0  0  0
 10 57  1  0  0  0  0
 11 58  1  0  0  0  0
 12 59  1  0  0  0  0
 17 60  1  0  0  0  0
 18 61  1  0  0  0  0
 19 62  1  0  0  0  0
 20 63  1  0  0  0  0
 21 64  1  0  0  0  0
 26 65  1  0  0  0  0
 27 66  1  0  0  0  0
 28 67  1  0  0  0  0
 29 68  1  0  0  0  0
 30 69  1  0  0  0  0
 35 70  1  0  0  0  0
 36 71  1  0  0  0  0
 37 72  1  0  0  0  0
 38 73  1  0  0  0  0
 39 74  1  0  0  0  0
 44 75  1  0  0  0  0
 45 76  1  0  0  0  0
 46 77  1  0  0  0  0
 47 78  1  0  0  0  0
 48 79  1  0  0  0  0
 50 80  1  0  0  0  0
 51 81  1  0  0  0  0
 52 82  1  0  0  0  0
 53 83  1  0  0  0  0
 54 84  1  0  0  0  0
M  END
