
  xtb     03212210123D
 energy: -7.008749953503 gnorm: 0.000234713053 xtb: 6.4.1 (afa7bdf)
 35 38  0     0  0            999 V2000
    5.0361   -1.3229   -0.2501 C   0  0  0  0  0  0  0  0  0  0  0  0
    4.1280   -0.3696    0.2431 O   0  0  0  0  0  0  0  0  0  0  0  0
    2.8515   -0.6463   -0.0583 C   0  0  0  0  0  0  0  0  0  0  0  0
    2.2883   -1.7516   -0.7914 C   0  0  0  0  0  0  0  0  0  0  0  0
    0.9411   -1.6033   -0.8464 C   0  0  0  0  0  0  0  0  0  0  0  0
    0.5823   -0.3990   -0.1438 C   0  0  0  0  0  0  0  0  0  0  0  0
    1.7597    0.1306    0.2957 N   0  0  0  0  0  0  0  0  0  0  0  0
    1.8729    1.4517    1.0551 B   0  0  0  0  0  4  0  0  0  0  0  0
    2.6377    2.3504    0.3194 F   0  0  0  0  0  0  0  0  0  0  0  0
    2.4007    1.2204    2.3208 F   0  0  0  0  0  0  0  0  0  0  0  0
    0.4709    2.0390    1.2209 N   0  0  0  0  0  4  0  0  0  0  0  0
    0.2068    3.1761    1.8665 C   0  0  0  0  0  0  0  0  0  0  0  0
   -1.1872    3.3393    1.8329 C   0  0  0  0  0  0  0  0  0  0  0  0
   -1.7368    2.2714    1.1515 C   0  0  0  0  0  0  0  0  0  0  0  0
   -0.6777    1.4257    0.7432 C   0  0  0  0  0  0  0  0  0  0  0  0
   -0.6776    0.1976    0.0494 C   0  0  0  0  0  0  0  0  0  0  0  0
   -1.9204   -0.4181   -0.4443 C   0  0  0  0  0  0  0  0  0  0  0  0
   -2.1726   -1.7806   -0.2605 C   0  0  0  0  0  0  0  0  0  0  0  0
   -3.3354   -2.3513   -0.7224 C   0  0  0  0  0  0  0  0  0  0  0  0
   -4.2732   -1.5808   -1.3789 C   0  0  0  0  0  0  0  0  0  0  0  0
   -4.0448   -0.2336   -1.5714 C   0  0  0  0  0  0  0  0  0  0  0  0
   -2.8850    0.3434   -1.1101 C   0  0  0  0  0  0  0  0  0  0  0  0
    4.8182   -2.2989    0.1860 H   0  0  0  0  0  0  0  0  0  0  0  0
    6.0426   -1.0159    0.0378 H   0  0  0  0  0  0  0  0  0  0  0  0
    4.9700   -1.3657   -1.3382 H   0  0  0  0  0  0  0  0  0  0  0  0
    2.8486   -2.5567   -1.2334 H   0  0  0  0  0  0  0  0  0  0  0  0
    0.2540   -2.2605   -1.3507 H   0  0  0  0  0  0  0  0  0  0  0  0
    0.9478    3.8114    2.3240 H   0  0  0  0  0  0  0  0  0  0  0  0
   -1.7346    4.1556    2.2757 H   0  0  0  0  0  0  0  0  0  0  0  0
   -2.7852    2.0963    0.9821 H   0  0  0  0  0  0  0  0  0  0  0  0
   -1.4533   -2.3764    0.2730 H   0  0  0  0  0  0  0  0  0  0  0  0
   -3.5168   -3.4023   -0.5681 H   0  0  0  0  0  0  0  0  0  0  0  0
   -5.1839   -2.0310   -1.7411 H   0  0  0  0  0  0  0  0  0  0  0  0
   -4.7757    0.3667   -2.0877 H   0  0  0  0  0  0  0  0  0  0  0  0
   -2.6968    1.3887   -1.2810 H   0  0  0  0  0  0  0  0  0  0  0  0
  1  2  1  0  0  0  0
  2  3  1  0  0  0  0
  3  4  2  0  0  0  0
  4  5  1  0  0  0  0
  5  6  2  0  0  0  0
  6  7  1  0  0  0  0
  7  8  1  0  0  0  0
  8  9  1  0  0  0  0
  8 10  1  0  0  0  0
  8 11  1  0  0  0  0
 11 12  2  0  0  0  0
 12 13  1  0  0  0  0
 13 14  2  0  0  0  0
 14 15  1  0  0  0  0
 15 16  2  0  0  0  0
 16 17  1  0  0  0  0
 17 18  2  0  0  0  0
 18 19  1  0  0  0  0
 19 20  2  0  0  0  0
 20 21  1  0  0  0  0
 21 22  2  0  0  0  0
  7  3  1  0  0  0  0
 15 11  1  0  0  0  0
 22 17  1  0  0  0  0
 16  6  1  0  0  0  0
  1 23  1  0  0  0  0
  1 24  1  0  0  0  0
  1 25  1  0  0  0  0
  4 26  1  0  0  0  0
  5 27  1  0  0  0  0
 12 28  1  0  0  0  0
 13 29  1  0  0  0  0
 14 30  1  0  0  0  0
 18 31  1  0  0  0  0
 19 32  1  0  0  0  0
 20 33  1  0  0  0  0
 21 34  1  0  0  0  0
 22 35  1  0  0  0  0
M  CHG  1   8  -1
M  CHG  1  11   1
M  END
