
  xtb     03212210143D
 energy: -17.329663498379 gnorm: 0.000307333044 xtb: 6.4.1 (afa7bdf)
 78 87  0     0  0            999 V2000
    2.5812   -2.1172    1.1534 O   0  0  0  0  0  0  0  0  0  0  0  0
    3.3025   -1.1509    0.5022 C   0  0  0  0  0  0  0  0  0  0  0  0
    2.6445   -0.0837   -0.1563 C   0  0  0  0  0  0  0  0  0  0  0  0
    1.1970    0.0119   -0.1633 C   0  0  0  0  0  0  0  0  0  0  0  0
    0.5130    0.9843   -0.7657 N   0  0  0  0  0  0  0  0  0  0  0  0
   -0.7930    0.7135   -0.5472 C   0  0  0  0  0  0  0  0  0  0  0  0
   -1.9610    1.4358   -0.9796 C   0  0  0  0  0  0  0  0  0  0  0  0
   -1.8423    2.6009   -1.7389 C   0  0  0  0  0  0  0  0  0  0  0  0
   -2.9552    3.2793   -2.1494 C   0  0  0  0  0  0  0  0  0  0  0  0
   -4.2368    2.8205   -1.8187 C   0  0  0  0  0  0  0  0  0  0  0  0
   -5.4420    3.5533   -2.2657 C   0  0  0  0  0  0  0  0  0  0  0  0
   -5.5053    4.1194   -3.5384 C   0  0  0  0  0  0  0  0  0  0  0  0
   -6.6285    4.8005   -3.9530 C   0  0  0  0  0  0  0  0  0  0  0  0
   -7.7115    4.9314   -3.1074 C   0  0  0  0  0  0  0  0  0  0  0  0
   -7.6675    4.3775   -1.8440 C   0  0  0  0  0  0  0  0  0  0  0  0
   -6.5461    3.6953   -1.4261 C   0  0  0  0  0  0  0  0  0  0  0  0
   -4.3530    1.6638   -1.0634 C   0  0  0  0  0  0  0  0  0  0  0  0
   -3.2390    0.9444   -0.6236 C   0  0  0  0  0  0  0  0  0  0  0  0
   -3.3632   -0.2811    0.1763 C   0  0  0  0  0  0  0  0  0  0  0  0
   -4.6024   -0.8004    0.5577 C   0  0  0  0  0  0  0  0  0  0  0  0
   -4.7198   -1.9575    1.3123 C   0  0  0  0  0  0  0  0  0  0  0  0
   -6.0518   -2.4757    1.6944 C   0  0  0  0  0  0  0  0  0  0  0  0
   -6.2736   -3.0214    2.9585 C   0  0  0  0  0  0  0  0  0  0  0  0
   -7.5156   -3.5015    3.3118 C   0  0  0  0  0  0  0  0  0  0  0  0
   -8.5615   -3.4480    2.4128 C   0  0  0  0  0  0  0  0  0  0  0  0
   -8.3612   -2.9114    1.1570 C   0  0  0  0  0  0  0  0  0  0  0  0
   -7.1210   -2.4295    0.7999 C   0  0  0  0  0  0  0  0  0  0  0  0
   -3.5508   -2.6242    1.7032 C   0  0  0  0  0  0  0  0  0  0  0  0
   -2.3204   -2.1460    1.3509 C   0  0  0  0  0  0  0  0  0  0  0  0
   -2.2035   -0.9791    0.5908 C   0  0  0  0  0  0  0  0  0  0  0  0
   -0.9228   -0.4587    0.2127 C   0  0  0  0  0  0  0  0  0  0  0  0
    0.3508   -0.8930    0.4497 N   0  0  0  0  0  0  0  0  0  0  0  0
    3.3837    0.9042   -0.8229 C   0  0  0  0  0  0  0  0  0  0  0  0
    4.7511    0.8814   -0.8610 C   0  0  0  0  0  0  0  0  0  0  0  0
    5.4215   -0.1575   -0.2144 C   0  0  0  0  0  0  0  0  0  0  0  0
    4.7215   -1.1739    0.4575 C   0  0  0  0  0  0  0  0  0  0  0  0
    5.7139   -2.0889    0.9835 C   0  0  0  0  0  0  0  0  0  0  0  0
    5.6492   -3.2711    1.7323 C   0  0  0  0  0  0  0  0  0  0  0  0
    6.8147   -3.9071    2.0863 C   0  0  0  0  0  0  0  0  0  0  0  0
    8.0581   -3.3949    1.7151 C   0  0  0  0  0  0  0  0  0  0  0  0
    8.1494   -2.2409    0.9805 C   0  0  0  0  0  0  0  0  0  0  0  0
    6.9759   -1.5885    0.6082 C   0  0  0  0  0  0  0  0  0  0  0  0
    6.8007   -0.4033   -0.1271 N   0  0  0  0  0  0  0  0  0  0  0  0
    7.8465    0.4053   -0.6925 C   0  0  0  0  0  0  0  0  0  0  0  0
    7.9079    1.7688   -0.4283 C   0  0  0  0  0  0  0  0  0  0  0  0
    8.9093    2.5430   -0.9693 C   0  0  0  0  0  0  0  0  0  0  0  0
    9.8641    1.9649   -1.7824 C   0  0  0  0  0  0  0  0  0  0  0  0
    9.8162    0.6118   -2.0539 C   0  0  0  0  0  0  0  0  0  0  0  0
    8.8147   -0.1624   -1.5130 C   0  0  0  0  0  0  0  0  0  0  0  0
    3.1983   -2.7628    1.5508 H   0  0  0  0  0  0  0  0  0  0  0  0
   -0.8583    2.9533   -1.9920 H   0  0  0  0  0  0  0  0  0  0  0  0
   -2.8544    4.1856   -2.7228 H   0  0  0  0  0  0  0  0  0  0  0  0
   -4.6675    4.0059   -4.2046 H   0  0  0  0  0  0  0  0  0  0  0  0
   -6.6622    5.2308   -4.9411 H   0  0  0  0  0  0  0  0  0  0  0  0
   -8.5892    5.4651   -3.4329 H   0  0  0  0  0  0  0  0  0  0  0  0
   -8.5118    4.4813   -1.1815 H   0  0  0  0  0  0  0  0  0  0  0  0
   -6.5085    3.2775   -0.4348 H   0  0  0  0  0  0  0  0  0  0  0  0
   -5.3404    1.3121   -0.8303 H   0  0  0  0  0  0  0  0  0  0  0  0
   -5.5037   -0.2881    0.2784 H   0  0  0  0  0  0  0  0  0  0  0  0
   -5.4634   -3.0505    3.6662 H   0  0  0  0  0  0  0  0  0  0  0  0
   -7.6715   -3.9183    4.2939 H   0  0  0  0  0  0  0  0  0  0  0  0
   -9.5322   -3.8248    2.6905 H   0  0  0  0  0  0  0  0  0  0  0  0
   -9.1768   -2.8714    0.4529 H   0  0  0  0  0  0  0  0  0  0  0  0
   -6.9637   -2.0255   -0.1851 H   0  0  0  0  0  0  0  0  0  0  0  0
   -3.6330   -3.5324    2.2766 H   0  0  0  0  0  0  0  0  0  0  0  0
   -1.4275   -2.6632    1.6525 H   0  0  0  0  0  0  0  0  0  0  0  0
    0.6548   -1.7214    0.9694 H   0  0  0  0  0  0  0  0  0  0  0  0
    2.8433    1.6943   -1.3143 H   0  0  0  0  0  0  0  0  0  0  0  0
    5.3107    1.6363   -1.3828 H   0  0  0  0  0  0  0  0  0  0  0  0
    4.7078   -3.6892    2.0339 H   0  0  0  0  0  0  0  0  0  0  0  0
    6.7700   -4.8162    2.6625 H   0  0  0  0  0  0  0  0  0  0  0  0
    8.9569   -3.9124    2.0108 H   0  0  0  0  0  0  0  0  0  0  0  0
    9.1015   -1.8312    0.6960 H   0  0  0  0  0  0  0  0  0  0  0  0
    7.1653    2.2060    0.2177 H   0  0  0  0  0  0  0  0  0  0  0  0
    8.9490    3.5980   -0.7568 H   0  0  0  0  0  0  0  0  0  0  0  0
   10.6489    2.5715   -2.2062 H   0  0  0  0  0  0  0  0  0  0  0  0
   10.5603    0.1628   -2.6900 H   0  0  0  0  0  0  0  0  0  0  0  0
    8.7594   -1.2161   -1.7285 H   0  0  0  0  0  0  0  0  0  0  0  0
  1  2  1  0  0  0  0
  2  3  2  0  0  0  0
  3  4  1  0  0  0  0
  4  5  2  0  0  0  0
  5  6  1  0  0  0  0
  6  7  2  0  0  0  0
  7  8  1  0  0  0  0
  8  9  2  0  0  0  0
  9 10  1  0  0  0  0
 10 11  1  0  0  0  0
 11 12  2  0  0  0  0
 12 13  1  0  0  0  0
 13 14  2  0  0  0  0
 14 15  1  0  0  0  0
 15 16  2  0  0  0  0
 10 17  2  0  0  0  0
 17 18  1  0  0  0  0
 18 19  2  0  0  0  0
 19 20  1  0  0  0  0
 20 21  2  0  0  0  0
 21 22  1  0  0  0  0
 22 23  2  0  0  0  0
 23 24  1  0  0  0  0
 24 25  2  0  0  0  0
 25 26  1  0  0  0  0
 26 27  2  0  0  0  0
 21 28  1  0  0  0  0
 28 29  2  0  0  0  0
 29 30  1  0  0  0  0
 30 31  2  0  0  0  0
 31 32  1  0  0  0  0
  3 33  1  0  0  0  0
 33 34  2  0  0  0  0
 34 35  1  0  0  0  0
 35 36  2  0  0  0  0
 36 37  1  0  0  0  0
 37 38  2  0  0  0  0
 38 39  1  0  0  0  0
 39 40  2  0  0  0  0
 40 41  1  0  0  0  0
 41 42  2  0  0  0  0
 42 43  1  0  0  0  0
 43 44  1  0  0  0  0
 44 45  2  0  0  0  0
 45 46  1  0  0  0  0
 46 47  2  0  0  0  0
 47 48  1  0  0  0  0
 48 49  2  0  0  0  0
 36  2  1  0  0  0  0
 42 37  1  0  0  0  0
 49 44  1  0  0  0  0
 32  4  1  0  0  0  0
 43 35  1  0  0  0  0
 31  6  1  0  0  0  0
 18  7  1  0  0  0  0
 30 19  1  0  0  0  0
 16 11  1  0  0  0  0
 27 22  1  0  0  0  0
  1 50  1  0  0  0  0
  8 51  1  0  0  0  0
  9 52  1  0  0  0  0
 12 53  1  0  0  0  0
 13 54  1  0  0  0  0
 14 55  1  0  0  0  0
 15 56  1  0  0  0  0
 16 57  1  0  0  0  0
 17 58  1  0  0  0  0
 20 59  1  0  0  0  0
 23 60  1  0  0  0  0
 24 61  1  0  0  0  0
 25 62  1  0  0  0  0
 26 63  1  0  0  0  0
 27 64  1  0  0  0  0
 28 65  1  0  0  0  0
 29 66  1  0  0  0  0
 32 67  1  0  0  0  0
 33 68  1  0  0  0  0
 34 69  1  0  0  0  0
 38 70  1  0  0  0  0
 39 71  1  0  0  0  0
 40 72  1  0  0  0  0
 41 73  1  0  0  0  0
 45 74  1  0  0  0  0
 46 75  1  0  0  0  0
 47 76  1  0  0  0  0
 48 77  1  0  0  0  0
 49 78  1  0  0  0  0
M  END
