
  xtb     03212210123D
 energy: -8.689101622823 gnorm: 0.000331151810 xtb: 6.4.1 (afa7bdf)
 43 46  0     0  0            999 V2000
    0.2813   -4.4894   -0.1666 C   0  0  0  0  0  0  0  0  0  0  0  0
   -1.0503   -4.1358    0.0769 O   0  0  0  0  0  0  0  0  0  0  0  0
   -1.2756   -2.7865    0.0521 C   0  0  0  0  0  0  0  0  0  0  0  0
   -0.4551   -1.7089   -0.1187 N   0  0  0  0  0  4  0  0  0  0  0  0
   -1.1580   -0.5185   -0.0695 C   0  0  0  0  0  0  0  0  0  0  0  0
   -0.6081    0.7714   -0.1837 C   0  0  0  0  0  0  0  0  0  0  0  0
   -1.4461    1.9815   -0.1029 C   0  0  0  0  0  0  0  0  0  0  0  0
   -1.0740    3.0594    0.7040 C   0  0  0  0  0  0  0  0  0  0  0  0
   -1.8667    4.1792    0.7906 C   0  0  0  0  0  0  0  0  0  0  0  0
   -3.0453    4.2531    0.0776 C   0  0  0  0  0  0  0  0  0  0  0  0
   -3.4292    3.2004   -0.7268 C   0  0  0  0  0  0  0  0  0  0  0  0
   -2.6417    2.0777   -0.8198 C   0  0  0  0  0  0  0  0  0  0  0  0
    0.7820    0.8392   -0.3666 C   0  0  0  0  0  0  0  0  0  0  0  0
    1.6492    1.9572   -0.5404 C   0  0  0  0  0  0  0  0  0  0  0  0
    2.9287    1.4890   -0.6848 C   0  0  0  0  0  0  0  0  0  0  0  0
    4.3936    2.4530   -0.8637 S   0  0  0  0  0  0  0  0  0  0  0  0
    5.3118    1.7601    0.3995 C   0  0  0  0  0  0  0  0  0  0  0  0
    5.8817    1.2522    1.2691 N   0  0  0  0  0  0  0  0  0  0  0  0
    2.8893    0.0510   -0.6372 C   0  0  0  0  0  0  0  0  0  0  0  0
    3.9473   -0.7956   -0.7486 O   0  0  0  0  0  0  0  0  0  0  0  0
    4.2533   -1.3805    0.4874 C   0  0  0  0  0  0  0  0  0  0  0  0
    1.5883   -0.2724   -0.4347 N   0  0  0  0  0  0  0  0  0  0  0  0
    1.0720   -1.7005   -0.2832 B   0  0  0  0  0  4  0  0  0  0  0  0
    1.4077   -2.4054   -1.4262 F   0  0  0  0  0  0  0  0  0  0  0  0
    1.6441   -2.2422    0.8554 F   0  0  0  0  0  0  0  0  0  0  0  0
   -2.5116   -0.8762    0.1625 C   0  0  0  0  0  0  0  0  0  0  0  0
   -2.5953   -2.2374    0.2322 C   0  0  0  0  0  0  0  0  0  0  0  0
   -4.0765   -3.1526    0.4999 S   0  0  0  0  0  0  0  0  0  0  0  0
   -5.1659   -1.8363    0.5128 C   0  0  0  0  0  0  0  0  0  0  0  0
   -5.8047   -0.8716    0.5045 N   0  0  0  0  0  0  0  0  0  0  0  0
    0.5596   -4.1543   -1.1673 H   0  0  0  0  0  0  0  0  0  0  0  0
    0.3683   -5.5752   -0.1058 H   0  0  0  0  0  0  0  0  0  0  0  0
    0.9179   -4.0271    0.5888 H   0  0  0  0  0  0  0  0  0  0  0  0
   -0.1697    2.9911    1.2817 H   0  0  0  0  0  0  0  0  0  0  0  0
   -1.5703    5.0003    1.4232 H   0  0  0  0  0  0  0  0  0  0  0  0
   -3.6671    5.1319    0.1506 H   0  0  0  0  0  0  0  0  0  0  0  0
   -4.3510    3.2579   -1.2831 H   0  0  0  0  0  0  0  0  0  0  0  0
   -2.9322    1.2672   -1.4641 H   0  0  0  0  0  0  0  0  0  0  0  0
    1.3593    2.9925   -0.5515 H   0  0  0  0  0  0  0  0  0  0  0  0
    5.1926   -0.9567    0.8512 H   0  0  0  0  0  0  0  0  0  0  0  0
    4.3546   -2.4574    0.3390 H   0  0  0  0  0  0  0  0  0  0  0  0
    3.4494   -1.1856    1.2017 H   0  0  0  0  0  0  0  0  0  0  0  0
   -3.3379   -0.1994    0.2846 H   0  0  0  0  0  0  0  0  0  0  0  0
  1  2  1  0  0  0  0
  2  3  1  0  0  0  0
  3  4  2  0  0  0  0
  4  5  1  0  0  0  0
  5  6  2  0  0  0  0
  6  7  1  0  0  0  0
  7  8  2  0  0  0  0
  8  9  1  0  0  0  0
  9 10  2  0  0  0  0
 10 11  1  0  0  0  0
 11 12  2  0  0  0  0
  6 13  1  0  0  0  0
 13 14  2  0  0  0  0
 14 15  1  0  0  0  0
 15 16  1  0  0  0  0
 16 17  1  0  0  0  0
 17 18  3  0  0  0  0
 15 19  2  0  0  0  0
 19 20  1  0  0  0  0
 20 21  1  0  0  0  0
 19 22  1  0  0  0  0
 22 23  1  0  0  0  0
 23 24  1  0  0  0  0
 23 25  1  0  0  0  0
  5 26  1  0  0  0  0
 26 27  2  0  0  0  0
 27 28  1  0  0  0  0
 28 29  1  0  0  0  0
 29 30  3  0  0  0  0
 27  3  1  0  0  0  0
 23  4  1  0  0  0  0
 12  7  1  0  0  0  0
 22 13  1  0  0  0  0
  1 31  1  0  0  0  0
  1 32  1  0  0  0  0
  1 33  1  0  0  0  0
  8 34  1  0  0  0  0
  9 35  1  0  0  0  0
 10 36  1  0  0  0  0
 11 37  1  0  0  0  0
 12 38  1  0  0  0  0
 14 39  1  0  0  0  0
 21 40  1  0  0  0  0
 21 41  1  0  0  0  0
 21 42  1  0  0  0  0
 26 43  1  0  0  0  0
M  CHG  1   4   1
M  CHG  1  23  -1
M  END
