
  xtb     03212210123D
 energy: -15.978936195396 gnorm: 0.000290368410 xtb: 6.4.1 (afa7bdf)
 84 88  0     0  0            999 V2000
   -7.9562   -0.3689    2.5716 C   0  0  0  0  0  0  0  0  0  0  0  0
   -8.7507   -1.0717    1.4829 C   0  0  0  0  0  0  0  0  0  0  0  0
   -8.0752   -1.0155    0.1090 C   0  0  0  0  0  0  0  0  0  0  0  0
   -6.7713   -1.8113    0.0390 C   0  0  0  0  0  0  0  0  0  0  0  0
   -6.1432   -1.8356   -1.3548 C   0  0  0  0  0  0  0  0  0  0  0  0
   -5.6614   -0.4685   -1.8288 C   0  0  0  0  0  0  0  0  0  0  0  0
   -4.6089    0.0952   -0.9584 N   0  0  0  0  0  0  0  0  0  0  0  0
   -5.0079    0.9402    0.1319 C   0  0  0  0  0  0  0  0  0  0  0  0
   -4.5262    0.7085    1.4215 C   0  0  0  0  0  0  0  0  0  0  0  0
   -4.9011    1.5155    2.4703 C   0  0  0  0  0  0  0  0  0  0  0  0
   -5.7673    2.5695    2.2572 C   0  0  0  0  0  0  0  0  0  0  0  0
   -6.2576    2.8124    0.9892 C   0  0  0  0  0  0  0  0  0  0  0  0
   -5.8838    2.0089   -0.0634 C   0  0  0  0  0  0  0  0  0  0  0  0
   -3.2490   -0.2427   -1.1820 C   0  0  0  0  0  0  0  0  0  0  0  0
   -2.8731   -1.2815   -2.0490 C   0  0  0  0  0  0  0  0  0  0  0  0
   -1.5533   -1.6137   -2.2485 C   0  0  0  0  0  0  0  0  0  0  0  0
   -0.5672   -0.8973   -1.5795 C   0  0  0  0  0  0  0  0  0  0  0  0
   -0.9215    0.1537   -0.7271 C   0  0  0  0  0  0  0  0  0  0  0  0
   -2.2411    0.4819   -0.5339 C   0  0  0  0  0  0  0  0  0  0  0  0
    0.3441    0.7671   -0.1241 C   0  0  0  0  0  0  0  0  0  0  0  0
    0.3383    0.6334    1.4215 C   0  0  0  0  0  0  0  0  0  0  0  0
    0.1892   -0.7989    1.9059 C   0  0  0  0  0  0  0  0  0  0  0  0
    0.4892    2.2549   -0.5384 C   0  0  0  0  0  0  0  0  0  0  0  0
    0.4996    2.4676   -2.0427 C   0  0  0  0  0  0  0  0  0  0  0  0
    1.4557   -0.0838   -0.7438 C   0  0  0  0  0  0  0  0  0  0  0  0
    2.8190   -0.0181   -0.5741 C   0  0  0  0  0  0  0  0  0  0  0  0
    3.6512   -0.9179   -1.2545 C   0  0  0  0  0  0  0  0  0  0  0  0
    5.0922   -0.8999   -1.1048 C   0  0  0  0  0  0  0  0  0  0  0  0
    5.7814   -0.0820   -0.2855 C   0  0  0  0  0  0  0  0  0  0  0  0
    7.2034   -0.0858   -0.1443 C   0  0  0  0  0  0  0  0  0  0  0  0
    8.1076   -0.8832   -0.8029 C   0  0  0  0  0  0  0  0  0  0  0  0
    9.4422   -0.6475   -0.4394 C   0  0  0  0  0  0  0  0  0  0  0  0
    9.6032    0.3354    0.5079 C   0  0  0  0  0  0  0  0  0  0  0  0
   10.8152    0.8118    1.0911 C   0  0  0  0  0  0  0  0  0  0  0  0
   12.0733    0.3878    0.8212 C   0  0  0  0  0  0  0  0  0  0  0  0
   12.3422   -0.6163   -0.1043 C   0  0  0  0  0  0  0  0  0  0  0  0
   12.4897   -1.4614   -0.8897 N   0  0  0  0  0  0  0  0  0  0  0  0
   13.1893    1.0303    1.5384 C   0  0  0  0  0  0  0  0  0  0  0  0
   14.3474    0.7237    1.3236 O   0  0  0  0  0  0  0  0  0  0  0  0
   12.8636    1.9825    2.4507 O   0  0  0  0  0  0  0  0  0  0  0  0
    8.0453    0.9778    0.9464 S   0  0  0  0  0  0  0  0  0  0  0  0
    3.0610   -1.8682   -2.1042 C   0  0  0  0  0  0  0  0  0  0  0  0
    1.6983   -1.9375   -2.2768 C   0  0  0  0  0  0  0  0  0  0  0  0
    0.8873   -1.0409   -1.5917 C   0  0  0  0  0  0  0  0  0  0  0  0
   -8.4690   -0.3957    3.5357 H   0  0  0  0  0  0  0  0  0  0  0  0
   -7.7889    0.6796    2.3199 H   0  0  0  0  0  0  0  0  0  0  0  0
   -6.9761   -0.8267    2.7138 H   0  0  0  0  0  0  0  0  0  0  0  0
   -9.7543   -0.6290    1.4193 H   0  0  0  0  0  0  0  0  0  0  0  0
   -8.9188   -2.1204    1.7598 H   0  0  0  0  0  0  0  0  0  0  0  0
   -7.8868    0.0304   -0.1566 H   0  0  0  0  0  0  0  0  0  0  0  0
   -8.7608   -1.3892   -0.6621 H   0  0  0  0  0  0  0  0  0  0  0  0
   -6.9621   -2.8368    0.3815 H   0  0  0  0  0  0  0  0  0  0  0  0
   -6.0482   -1.4026    0.7530 H   0  0  0  0  0  0  0  0  0  0  0  0
   -5.2985   -2.5351   -1.3589 H   0  0  0  0  0  0  0  0  0  0  0  0
   -6.8659   -2.2475   -2.0706 H   0  0  0  0  0  0  0  0  0  0  0  0
   -5.2793   -0.5090   -2.8527 H   0  0  0  0  0  0  0  0  0  0  0  0
   -6.4982    0.2314   -1.8635 H   0  0  0  0  0  0  0  0  0  0  0  0
   -3.8618   -0.1222    1.5855 H   0  0  0  0  0  0  0  0  0  0  0  0
   -4.5200    1.3232    3.4600 H   0  0  0  0  0  0  0  0  0  0  0  0
   -6.0604    3.2014    3.0793 H   0  0  0  0  0  0  0  0  0  0  0  0
   -6.9312    3.6373    0.8227 H   0  0  0  0  0  0  0  0  0  0  0  0
   -6.2423    2.2187   -1.0557 H   0  0  0  0  0  0  0  0  0  0  0  0
   -3.6323   -1.8361   -2.5690 H   0  0  0  0  0  0  0  0  0  0  0  0
   -1.2754   -2.4158   -2.9090 H   0  0  0  0  0  0  0  0  0  0  0  0
   -2.4957    1.3055    0.1058 H   0  0  0  0  0  0  0  0  0  0  0  0
   -0.4723    1.2528    1.8214 H   0  0  0  0  0  0  0  0  0  0  0  0
    1.2641    1.0699    1.8123 H   0  0  0  0  0  0  0  0  0  0  0  0
   -0.7436   -1.2402    1.5511 H   0  0  0  0  0  0  0  0  0  0  0  0
    1.0015   -1.4265    1.5361 H   0  0  0  0  0  0  0  0  0  0  0  0
    0.1915   -0.8660    2.9958 H   0  0  0  0  0  0  0  0  0  0  0  0
   -0.3284    2.8244   -0.0826 H   0  0  0  0  0  0  0  0  0  0  0  0
    1.4090    2.6518   -0.0947 H   0  0  0  0  0  0  0  0  0  0  0  0
    0.6034    3.5218   -2.3076 H   0  0  0  0  0  0  0  0  0  0  0  0
   -0.4222    2.1031   -2.4989 H   0  0  0  0  0  0  0  0  0  0  0  0
    1.3240    1.9280   -2.5116 H   0  0  0  0  0  0  0  0  0  0  0  0
    3.2299    0.7275    0.0796 H   0  0  0  0  0  0  0  0  0  0  0  0
    5.6439   -1.6079   -1.6953 H   0  0  0  0  0  0  0  0  0  0  0  0
    5.2484    0.6274    0.3222 H   0  0  0  0  0  0  0  0  0  0  0  0
    7.8225   -1.6244   -1.5328 H   0  0  0  0  0  0  0  0  0  0  0  0
   10.2670   -1.1933   -0.8664 H   0  0  0  0  0  0  0  0  0  0  0  0
   10.7161    1.5934    1.8255 H   0  0  0  0  0  0  0  0  0  0  0  0
   13.7043    2.3040    2.8305 H   0  0  0  0  0  0  0  0  0  0  0  0
    3.6985   -2.5595   -2.6283 H   0  0  0  0  0  0  0  0  0  0  0  0
    1.2558   -2.6708   -2.9273 H   0  0  0  0  0  0  0  0  0  0  0  0
  1  2  1  0  0  0  0
  2  3  1  0  0  0  0
  3  4  1  0  0  0  0
  4  5  1  0  0  0  0
  5  6  1  0  0  0  0
  6  7  1  0  0  0  0
  7  8  1  0  0  0  0
  8  9  2  0  0  0  0
  9 10  1  0  0  0  0
 10 11  2  0  0  0  0
 11 12  1  0  0  0  0
 12 13  2  0  0  0  0
  7 14  1  0  0  0  0
 14 15  2  0  0  0  0
 15 16  1  0  0  0  0
 16 17  2  0  0  0  0
 17 18  1  0  0  0  0
 18 19  2  0  0  0  0
 18 20  1  0  0  0  0
 20 21  1  0  0  0  0
 21 22  1  0  0  0  0
 20 23  1  0  0  0  0
 23 24  1  0  0  0  0
 20 25  1  0  0  0  0
 25 26  2  0  0  0  0
 26 27  1  0  0  0  0
 27 28  1  0  0  0  0
 28 29  2  0  0  0  0
 29 30  1  0  0  0  0
 30 31  2  0  0  0  0
 31 32  1  0  0  0  0
 32 33  2  0  0  0  0
 33 34  1  0  0  0  0
 34 35  2  0  0  0  0
 35 36  1  0  0  0  0
 36 37  3  0  0  0  0
 35 38  1  0  0  0  0
 38 39  2  0  0  0  0
 38 40  1  0  0  0  0
 33 41  1  0  0  0  0
 27 42  2  0  0  0  0
 42 43  1  0  0  0  0
 43 44  2  0  0  0  0
 13  8  1  0  0  0  0
 19 14  1  0  0  0  0
 44 25  1  0  0  0  0
 44 17  1  0  0  0  0
 41 30  1  0  0  0  0
  1 45  1  0  0  0  0
  1 46  1  0  0  0  0
  1 47  1  0  0  0  0
  2 48  1  0  0  0  0
  2 49  1  0  0  0  0
  3 50  1  0  0  0  0
  3 51  1  0  0  0  0
  4 52  1  0  0  0  0
  4 53  1  0  0  0  0
  5 54  1  0  0  0  0
  5 55  1  0  0  0  0
  6 56  1  0  0  0  0
  6 57  1  0  0  0  0
  9 58  1  0  0  0  0
 10 59  1  0  0  0  0
 11 60  1  0  0  0  0
 12 61  1  0  0  0  0
 13 62  1  0  0  0  0
 15 63  1  0  0  0  0
 16 64  1  0  0  0  0
 19 65  1  0  0  0  0
 21 66  1  0  0  0  0
 21 67  1  0  0  0  0
 22 68  1  0  0  0  0
 22 69  1  0  0  0  0
 22 70  1  0  0  0  0
 23 71  1  0  0  0  0
 23 72  1  0  0  0  0
 24 73  1  0  0  0  0
 24 74  1  0  0  0  0
 24 75  1  0  0  0  0
 26 76  1  0  0  0  0
 28 77  1  0  0  0  0
 29 78  1  0  0  0  0
 31 79  1  0  0  0  0
 32 80  1  0  0  0  0
 34 81  1  0  0  0  0
 40 82  1  0  0  0  0
 42 83  1  0  0  0  0
 43 84  1  0  0  0  0
M  END
