
  xtb     03212210133D
 energy: -12.521095125511 gnorm: 0.000078491378 xtb: 6.4.1 (afa7bdf)
 64 67  0     0  0            999 V2000
    5.0788   -5.4612   -2.0692 C   0  0  0  0  0  0  0  0  0  0  0  0
    4.6888   -4.4411   -3.1178 C   0  0  0  0  0  0  0  0  0  0  0  0
    4.3977   -3.1777   -2.5654 O   0  0  0  0  0  0  0  0  0  0  0  0
    3.2049   -3.2144   -1.8907 C   0  0  0  0  0  0  0  0  0  0  0  0
    2.5081   -4.2086   -1.7901 O   0  0  0  0  0  0  0  0  0  0  0  0
    2.7897   -1.9624   -1.2644 C   0  0  0  0  0  0  0  0  0  0  0  0
    1.6539   -1.8651   -0.5653 C   0  0  0  0  0  0  0  0  0  0  0  0
    1.1964   -0.6659    0.0927 C   0  0  0  0  0  0  0  0  0  0  0  0
    1.4438    0.5493   -0.4466 C   0  0  0  0  0  0  0  0  0  0  0  0
    0.6935    1.7481   -0.1686 C   0  0  0  0  0  0  0  0  0  0  0  0
    1.1412    3.0695   -0.3509 C   0  0  0  0  0  0  0  0  0  0  0  0
    2.4562    3.4904   -0.8573 C   0  0  0  0  0  0  0  0  0  0  0  0
    3.1419    4.5177   -0.2144 C   0  0  0  0  0  0  0  0  0  0  0  0
    4.3690    4.9392   -0.6776 C   0  0  0  0  0  0  0  0  0  0  0  0
    4.9261    4.3509   -1.7953 C   0  0  0  0  0  0  0  0  0  0  0  0
    4.2487    3.3465   -2.4570 C   0  0  0  0  0  0  0  0  0  0  0  0
    3.0214    2.9209   -1.9984 C   0  0  0  0  0  0  0  0  0  0  0  0
    0.1665    3.9489    0.0243 O   0  0  0  0  0  0  0  0  0  0  0  0
   -0.9282    3.2153    0.3826 C   0  0  0  0  0  0  0  0  0  0  0  0
   -2.1962    3.8266    0.8098 C   0  0  0  0  0  0  0  0  0  0  0  0
   -2.1712    4.8883    1.7107 C   0  0  0  0  0  0  0  0  0  0  0  0
   -3.3413    5.4886    2.1210 C   0  0  0  0  0  0  0  0  0  0  0  0
   -4.5538    5.0472    1.6307 C   0  0  0  0  0  0  0  0  0  0  0  0
   -4.5940    4.0106    0.7199 C   0  0  0  0  0  0  0  0  0  0  0  0
   -3.4271    3.4062    0.3061 C   0  0  0  0  0  0  0  0  0  0  0  0
   -0.6378    1.8406    0.2947 C   0  0  0  0  0  0  0  0  0  0  0  0
   -1.5469    0.7515    0.5602 C   0  0  0  0  0  0  0  0  0  0  0  0
   -1.1835   -0.5047    0.9065 C   0  0  0  0  0  0  0  0  0  0  0  0
   -2.2095   -1.5097    1.0390 C   0  0  0  0  0  0  0  0  0  0  0  0
   -2.0250   -2.8083    1.3009 C   0  0  0  0  0  0  0  0  0  0  0  0
   -3.1529   -3.7309    1.4119 C   0  0  0  0  0  0  0  0  0  0  0  0
   -2.9520   -4.9039    1.6754 O   0  0  0  0  0  0  0  0  0  0  0  0
   -4.3975   -3.1936    1.2088 O   0  0  0  0  0  0  0  0  0  0  0  0
   -5.3883   -4.1909    1.3165 C   0  0  0  0  0  0  0  0  0  0  0  0
   -5.6005   -4.6544    2.7419 C   0  0  0  0  0  0  0  0  0  0  0  0
    0.2464   -0.7976    1.2431 C   0  0  0  0  0  0  0  0  0  0  0  0
    5.3146   -6.4331   -2.5055 H   0  0  0  0  0  0  0  0  0  0  0  0
    4.2630   -5.5986   -1.3583 H   0  0  0  0  0  0  0  0  0  0  0  0
    5.9469   -5.1211   -1.5046 H   0  0  0  0  0  0  0  0  0  0  0  0
    5.4928   -4.2915   -3.8506 H   0  0  0  0  0  0  0  0  0  0  0  0
    3.7983   -4.7595   -3.6777 H   0  0  0  0  0  0  0  0  0  0  0  0
    3.4489   -1.1199   -1.3639 H   0  0  0  0  0  0  0  0  0  0  0  0
    1.0488   -2.7504   -0.4752 H   0  0  0  0  0  0  0  0  0  0  0  0
    2.2738    0.6397   -1.1205 H   0  0  0  0  0  0  0  0  0  0  0  0
    2.6945    4.9764    0.6499 H   0  0  0  0  0  0  0  0  0  0  0  0
    4.8936    5.7307   -0.1688 H   0  0  0  0  0  0  0  0  0  0  0  0
    5.8860    4.6823   -2.1571 H   0  0  0  0  0  0  0  0  0  0  0  0
    4.6775    2.9001   -3.3388 H   0  0  0  0  0  0  0  0  0  0  0  0
    2.4719    2.1738   -2.5428 H   0  0  0  0  0  0  0  0  0  0  0  0
   -1.2203    5.2310    2.0793 H   0  0  0  0  0  0  0  0  0  0  0  0
   -3.3100    6.3049    2.8233 H   0  0  0  0  0  0  0  0  0  0  0  0
   -5.4687    5.5181    1.9522 H   0  0  0  0  0  0  0  0  0  0  0  0
   -5.5403    3.6790    0.3259 H   0  0  0  0  0  0  0  0  0  0  0  0
   -3.4557    2.6329   -0.4404 H   0  0  0  0  0  0  0  0  0  0  0  0
   -2.5974    0.9570    0.4735 H   0  0  0  0  0  0  0  0  0  0  0  0
   -3.2266   -1.1871    0.9015 H   0  0  0  0  0  0  0  0  0  0  0  0
   -1.0429   -3.2253    1.4208 H   0  0  0  0  0  0  0  0  0  0  0  0
   -5.0795   -5.0205    0.6652 H   0  0  0  0  0  0  0  0  0  0  0  0
   -6.3095   -3.7732    0.8893 H   0  0  0  0  0  0  0  0  0  0  0  0
   -5.8826   -3.8183    3.3817 H   0  0  0  0  0  0  0  0  0  0  0  0
   -4.6753   -5.0714    3.1419 H   0  0  0  0  0  0  0  0  0  0  0  0
   -6.3758   -5.4185    2.8167 H   0  0  0  0  0  0  0  0  0  0  0  0
    0.3440   -1.7933    1.6816 H   0  0  0  0  0  0  0  0  0  0  0  0
    0.5624   -0.1102    2.0346 H   0  0  0  0  0  0  0  0  0  0  0  0
  1  2  1  0  0  0  0
  2  3  1  0  0  0  0
  3  4  1  0  0  0  0
  4  5  2  0  0  0  0
  4  6  1  0  0  0  0
  6  7  2  0  0  0  0
  7  8  1  0  0  0  0
  8  9  2  0  0  0  0
  9 10  1  0  0  0  0
 10 11  2  0  0  0  0
 11 12  1  0  0  0  0
 12 13  2  0  0  0  0
 13 14  1  0  0  0  0
 14 15  2  0  0  0  0
 15 16  1  0  0  0  0
 16 17  2  0  0  0  0
 11 18  1  0  0  0  0
 18 19  1  0  0  0  0
 19 20  1  0  0  0  0
 20 21  2  0  0  0  0
 21 22  1  0  0  0  0
 22 23  2  0  0  0  0
 23 24  1  0  0  0  0
 24 25  2  0  0  0  0
 19 26  2  0  0  0  0
 26 27  1  0  0  0  0
 27 28  2  0  0  0  0
 28 29  1  0  0  0  0
 29 30  2  0  0  0  0
 30 31  1  0  0  0  0
 31 32  2  0  0  0  0
 31 33  1  0  0  0  0
 33 34  1  0  0  0  0
 34 35  1  0  0  0  0
 28 36  1  0  0  0  0
 36  8  1  0  0  0  0
 26 10  1  0  0  0  0
 17 12  1  0  0  0  0
 25 20  1  0  0  0  0
  1 37  1  0  0  0  0
  1 38  1  0  0  0  0
  1 39  1  0  0  0  0
  2 40  1  0  0  0  0
  2 41  1  0  0  0  0
  6 42  1  0  0  0  0
  7 43  1  0  0  0  0
  9 44  1  0  0  0  0
 13 45  1  0  0  0  0
 14 46  1  0  0  0  0
 15 47  1  0  0  0  0
 16 48  1  0  0  0  0
 17 49  1  0  0  0  0
 21 50  1  0  0  0  0
 22 51  1  0  0  0  0
 23 52  1  0  0  0  0
 24 53  1  0  0  0  0
 25 54  1  0  0  0  0
 27 55  1  0  0  0  0
 29 56  1  0  0  0  0
 30 57  1  0  0  0  0
 34 58  1  0  0  0  0
 34 59  1  0  0  0  0
 35 60  1  0  0  0  0
 35 61  1  0  0  0  0
 35 62  1  0  0  0  0
 36 63  1  0  0  0  0
 36 64  1  0  0  0  0
M  END
