
  xtb     03212210143D
 energy: -8.491253453884 gnorm: 0.000291645681 xtb: 6.4.1 (afa7bdf)
 41 44  0     0  0            999 V2000
    6.0329    1.1303   -1.1994 C   0  0  0  0  0  0  0  0  0  0  0  0
    4.5618    1.0772   -0.9823 C   0  0  0  0  0  0  0  0  0  0  0  0
    3.7190    1.9647   -1.6358 C   0  0  0  0  0  0  0  0  0  0  0  0
    2.3593    1.9342   -1.4239 C   0  0  0  0  0  0  0  0  0  0  0  0
    1.7884    1.0066   -0.5495 C   0  0  0  0  0  0  0  0  0  0  0  0
    0.3523    1.0164   -0.3355 C   0  0  0  0  0  0  0  0  0  0  0  0
   -0.4305    0.0143    0.1535 C   0  0  0  0  0  0  0  0  0  0  0  0
    0.0605   -1.3655    0.3902 C   0  0  0  0  0  0  0  0  0  0  0  0
    0.6621   -2.0927   -0.6362 C   0  0  0  0  0  0  0  0  0  0  0  0
    1.0634   -3.3945   -0.4352 C   0  0  0  0  0  0  0  0  0  0  0  0
    0.8613   -3.9998    0.7887 C   0  0  0  0  0  0  0  0  0  0  0  0
    0.2575   -3.2997    1.8133 C   0  0  0  0  0  0  0  0  0  0  0  0
   -0.1379   -1.9967    1.6175 C   0  0  0  0  0  0  0  0  0  0  0  0
   -1.8365    0.2833    0.3567 C   0  0  0  0  0  0  0  0  0  0  0  0
   -2.4418    1.3752   -0.0223 N   0  0  0  0  0  0  0  0  0  0  0  0
   -3.7992    1.3320    0.2569 C   0  0  0  0  0  0  0  0  0  0  0  0
   -4.7249    2.3390   -0.0517 C   0  0  0  0  0  0  0  0  0  0  0  0
   -6.0480    2.1624    0.2659 C   0  0  0  0  0  0  0  0  0  0  0  0
   -6.4835    0.9945    0.8905 C   0  0  0  0  0  0  0  0  0  0  0  0
   -5.5933   -0.0045    1.2015 C   0  0  0  0  0  0  0  0  0  0  0  0
   -4.2523    0.1627    0.8864 C   0  0  0  0  0  0  0  0  0  0  0  0
   -2.8925   -0.8808    1.1503 S   0  0  0  0  0  0  0  0  0  0  0  0
    2.6473    0.1344    0.1231 C   0  0  0  0  0  0  0  0  0  0  0  0
    4.0060    0.1700   -0.0915 C   0  0  0  0  0  0  0  0  0  0  0  0
    6.2678    1.3586   -2.2405 H   0  0  0  0  0  0  0  0  0  0  0  0
    6.4893    1.8997   -0.5743 H   0  0  0  0  0  0  0  0  0  0  0  0
    6.5034    0.1761   -0.9560 H   0  0  0  0  0  0  0  0  0  0  0  0
    4.1429    2.6846   -2.3149 H   0  0  0  0  0  0  0  0  0  0  0  0
    1.7183    2.6276   -1.9408 H   0  0  0  0  0  0  0  0  0  0  0  0
   -0.1541    1.9328   -0.5830 H   0  0  0  0  0  0  0  0  0  0  0  0
    0.8035   -1.6214   -1.5938 H   0  0  0  0  0  0  0  0  0  0  0  0
    1.5306   -3.9428   -1.2365 H   0  0  0  0  0  0  0  0  0  0  0  0
    1.1727   -5.0200    0.9436 H   0  0  0  0  0  0  0  0  0  0  0  0
    0.0956   -3.7739    2.7674 H   0  0  0  0  0  0  0  0  0  0  0  0
   -0.6098   -1.4481    2.4145 H   0  0  0  0  0  0  0  0  0  0  0  0
   -4.3804    3.2347   -0.5366 H   0  0  0  0  0  0  0  0  0  0  0  0
   -6.7607    2.9355    0.0293 H   0  0  0  0  0  0  0  0  0  0  0  0
   -7.5271    0.8756    1.1313 H   0  0  0  0  0  0  0  0  0  0  0  0
   -5.9155   -0.9104    1.6854 H   0  0  0  0  0  0  0  0  0  0  0  0
    2.2391   -0.5627    0.8321 H   0  0  0  0  0  0  0  0  0  0  0  0
    4.6527   -0.5089    0.4375 H   0  0  0  0  0  0  0  0  0  0  0  0
  1  2  1  0  0  0  0
  2  3  2  0  0  0  0
  3  4  1  0  0  0  0
  4  5  2  0  0  0  0
  5  6  1  0  0  0  0
  6  7  2  0  0  0  0
  7  8  1  0  0  0  0
  8  9  2  0  0  0  0
  9 10  1  0  0  0  0
 10 11  2  0  0  0  0
 11 12  1  0  0  0  0
 12 13  2  0  0  0  0
  7 14  1  0  0  0  0
 14 15  2  0  0  0  0
 15 16  1  0  0  0  0
 16 17  2  0  0  0  0
 17 18  1  0  0  0  0
 18 19  2  0  0  0  0
 19 20  1  0  0  0  0
 20 21  2  0  0  0  0
 21 22  1  0  0  0  0
  5 23  1  0  0  0  0
 23 24  2  0  0  0  0
 24  2  1  0  0  0  0
 13  8  1  0  0  0  0
 22 14  1  0  0  0  0
 21 16  1  0  0  0  0
  1 25  1  0  0  0  0
  1 26  1  0  0  0  0
  1 27  1  0  0  0  0
  3 28  1  0  0  0  0
  4 29  1  0  0  0  0
  6 30  1  0  0  0  0
  9 31  1  0  0  0  0
 10 32  1  0  0  0  0
 11 33  1  0  0  0  0
 12 34  1  0  0  0  0
 13 35  1  0  0  0  0
 17 36  1  0  0  0  0
 18 37  1  0  0  0  0
 19 38  1  0  0  0  0
 20 39  1  0  0  0  0
 23 40  1  0  0  0  0
 24 41  1  0  0  0  0
M  END
