
  xtb     03212210143D
 energy: -6.380365798185 gnorm: 0.000379458224 xtb: 6.4.1 (afa7bdf)
 30 32  0     0  0            999 V2000
   -3.1846   -2.7589    0.2299 O   0  0  0  0  0  0  0  0  0  0  0  0
   -2.4411   -1.7889    0.1898 C   0  0  0  0  0  0  0  0  0  0  0  0
   -1.0166   -1.9402    0.2006 C   0  0  0  0  0  0  0  0  0  0  0  0
   -0.1359   -0.8974    0.1538 C   0  0  0  0  0  0  0  0  0  0  0  0
    1.2222   -1.2041    0.1745 N   0  0  0  0  0  0  0  0  0  0  0  0
    2.4638   -0.5512    0.0727 C   0  0  0  0  0  0  0  0  0  0  0  0
    2.6565    0.8086   -0.1365 C   0  0  0  0  0  0  0  0  0  0  0  0
    3.9190    1.3379   -0.2449 C   0  0  0  0  0  0  0  0  0  0  0  0
    5.0317    0.5223   -0.1470 C   0  0  0  0  0  0  0  0  0  0  0  0
    6.2766    1.0438   -0.2582 F   0  0  0  0  0  0  0  0  0  0  0  0
    4.8584   -0.8323    0.0612 C   0  0  0  0  0  0  0  0  0  0  0  0
    3.5961   -1.3706    0.1681 C   0  0  0  0  0  0  0  0  0  0  0  0
    3.4236   -2.6960    0.3575 F   0  0  0  0  0  0  0  0  0  0  0  0
   -0.6640    0.4765    0.0983 C   0  0  0  0  0  0  0  0  0  0  0  0
    0.0486    1.4562    0.0707 O   0  0  0  0  0  0  0  0  0  0  0  0
   -2.1248    0.6673    0.0825 C   0  0  0  0  0  0  0  0  0  0  0  0
   -2.6582    1.9455    0.0272 C   0  0  0  0  0  0  0  0  0  0  0  0
   -4.0200    2.1362    0.0159 C   0  0  0  0  0  0  0  0  0  0  0  0
   -4.8734    1.0498    0.0601 C   0  0  0  0  0  0  0  0  0  0  0  0
   -4.3592   -0.2238    0.1158 C   0  0  0  0  0  0  0  0  0  0  0  0
   -2.9888   -0.4306    0.1279 C   0  0  0  0  0  0  0  0  0  0  0  0
   -0.6445   -2.9466    0.2440 H   0  0  0  0  0  0  0  0  0  0  0  0
    1.3789   -2.2051    0.2833 H   0  0  0  0  0  0  0  0  0  0  0  0
    1.8021    1.4510   -0.2060 H   0  0  0  0  0  0  0  0  0  0  0  0
    4.0662    2.3916   -0.4050 H   0  0  0  0  0  0  0  0  0  0  0  0
    5.7175   -1.4726    0.1377 H   0  0  0  0  0  0  0  0  0  0  0  0
   -1.9799    2.7806   -0.0043 H   0  0  0  0  0  0  0  0  0  0  0  0
   -4.4228    3.1355   -0.0266 H   0  0  0  0  0  0  0  0  0  0  0  0
   -5.9399    1.2005    0.0518 H   0  0  0  0  0  0  0  0  0  0  0  0
   -5.0071   -1.0849    0.1517 H   0  0  0  0  0  0  0  0  0  0  0  0
  1  2  2  0  0  0  0
  2  3  1  0  0  0  0
  3  4  2  0  0  0  0
  4  5  1  0  0  0  0
  5  6  1  0  0  0  0
  6  7  2  0  0  0  0
  7  8  1  0  0  0  0
  8  9  2  0  0  0  0
  9 10  1  0  0  0  0
  9 11  1  0  0  0  0
 11 12  2  0  0  0  0
 12 13  1  0  0  0  0
  4 14  1  0  0  0  0
 14 15  2  0  0  0  0
 14 16  1  0  0  0  0
 16 17  2  0  0  0  0
 17 18  1  0  0  0  0
 18 19  2  0  0  0  0
 19 20  1  0  0  0  0
 20 21  2  0  0  0  0
 21  2  1  0  0  0  0
 12  6  1  0  0  0  0
 21 16  1  0  0  0  0
  3 22  1  0  0  0  0
  5 23  1  0  0  0  0
  7 24  1  0  0  0  0
  8 25  1  0  0  0  0
 11 26  1  0  0  0  0
 17 27  1  0  0  0  0
 18 28  1  0  0  0  0
 19 29  1  0  0  0  0
 20 30  1  0  0  0  0
M  END
