
  xtb     03212210143D
 energy: -11.039160027883 gnorm: 0.000181392114 xtb: 6.4.1 (afa7bdf)
 54 60  0     0  0            999 V2000
    6.5161    1.0948   -1.5790 O   0  0  0  0  0  0  0  0  0  0  0  0
    5.3657    0.6404   -1.5355 N   0  0  0  0  0  4  0  0  0  0  0  0
    4.9523   -0.2259   -2.3180 O   0  0  0  0  0  1  0  0  0  0  0  0
    4.4584    1.1355   -0.5127 C   0  0  0  0  0  0  0  0  0  0  0  0
    4.9082    1.9945    0.4772 C   0  0  0  0  0  0  0  0  0  0  0  0
    4.0503    2.4340    1.4500 C   0  0  0  0  0  0  0  0  0  0  0  0
    2.7177    2.0129    1.4659 C   0  0  0  0  0  0  0  0  0  0  0  0
    2.2721    1.0836    0.5022 C   0  0  0  0  0  0  0  0  0  0  0  0
    3.1506    0.7061   -0.5056 C   0  0  0  0  0  0  0  0  0  0  0  0
    0.8903    0.6159    0.5666 C   0  0  0  0  0  0  0  0  0  0  0  0
    0.4275   -0.5714   -0.0591 C   0  0  0  0  0  0  0  0  0  0  0  0
   -0.9354   -0.6472   -0.4032 C   0  0  0  0  0  0  0  0  0  0  0  0
   -1.8516    0.2507    0.1762 C   0  0  0  0  0  0  0  0  0  0  0  0
   -1.3560    1.3195    0.9319 C   0  0  0  0  0  0  0  0  0  0  0  0
   -0.0281    1.4570    1.1206 N   0  0  0  0  0  4  0  0  0  0  0  0
    0.4394    2.6430    1.9824 B   0  0  0  0  0  4  0  0  0  0  0  0
   -0.3737    2.7039    3.1070 F   0  0  0  0  0  0  0  0  0  0  0  0
    0.2961    3.7790    1.1988 F   0  0  0  0  0  0  0  0  0  0  0  0
    1.8457    2.4993    2.3962 O   0  0  0  0  0  0  0  0  0  0  0  0
   -2.2978    2.3912    1.3897 C   0  0  0  0  0  0  0  0  0  0  0  0
   -3.4552    2.5950    0.3948 C   0  0  0  0  0  0  0  0  0  0  0  0
   -4.1124    1.2831    0.0786 C   0  0  0  0  0  0  0  0  0  0  0  0
   -5.4862    1.1823   -0.0565 C   0  0  0  0  0  0  0  0  0  0  0  0
   -6.0903   -0.0476   -0.2027 C   0  0  0  0  0  0  0  0  0  0  0  0
   -5.3276   -1.1946   -0.1815 C   0  0  0  0  0  0  0  0  0  0  0  0
   -3.9602   -1.1112   -0.0518 C   0  0  0  0  0  0  0  0  0  0  0  0
   -3.3208    0.1257    0.0274 C   0  0  0  0  0  0  0  0  0  0  0  0
   -1.3035   -1.5253   -1.5750 C   0  0  0  0  0  0  0  0  0  0  0  0
   -0.6078   -2.8920   -1.5578 C   0  0  0  0  0  0  0  0  0  0  0  0
    0.8094   -2.8437   -1.0579 C   0  0  0  0  0  0  0  0  0  0  0  0
    1.6304   -3.9394   -1.2703 C   0  0  0  0  0  0  0  0  0  0  0  0
    2.8870   -4.0080   -0.7121 C   0  0  0  0  0  0  0  0  0  0  0  0
    3.3276   -2.9936    0.1049 C   0  0  0  0  0  0  0  0  0  0  0  0
    2.5254   -1.8992    0.3250 C   0  0  0  0  0  0  0  0  0  0  0  0
    1.2841   -1.7602   -0.2974 C   0  0  0  0  0  0  0  0  0  0  0  0
    5.9365    2.3179    0.4543 H   0  0  0  0  0  0  0  0  0  0  0  0
    4.3752    3.1273    2.2044 H   0  0  0  0  0  0  0  0  0  0  0  0
    2.8212    0.0519   -1.2930 H   0  0  0  0  0  0  0  0  0  0  0  0
   -1.7389    3.3254    1.5315 H   0  0  0  0  0  0  0  0  0  0  0  0
   -2.6844    2.1214    2.3797 H   0  0  0  0  0  0  0  0  0  0  0  0
   -4.1948    3.2976    0.7953 H   0  0  0  0  0  0  0  0  0  0  0  0
   -3.0780    3.0412   -0.5316 H   0  0  0  0  0  0  0  0  0  0  0  0
   -6.0844    2.0765   -0.0251 H   0  0  0  0  0  0  0  0  0  0  0  0
   -7.1621   -0.1136   -0.3046 H   0  0  0  0  0  0  0  0  0  0  0  0
   -5.8038   -2.1585   -0.2550 H   0  0  0  0  0  0  0  0  0  0  0  0
   -3.3796   -2.0122    0.0420 H   0  0  0  0  0  0  0  0  0  0  0  0
   -2.3886   -1.6352   -1.6657 H   0  0  0  0  0  0  0  0  0  0  0  0
   -1.0099   -0.9885   -2.4870 H   0  0  0  0  0  0  0  0  0  0  0  0
   -0.6157   -3.3360   -2.5604 H   0  0  0  0  0  0  0  0  0  0  0  0
   -1.1736   -3.5839   -0.9242 H   0  0  0  0  0  0  0  0  0  0  0  0
    1.2648   -4.7578   -1.8655 H   0  0  0  0  0  0  0  0  0  0  0  0
    3.5146   -4.8670   -0.8941 H   0  0  0  0  0  0  0  0  0  0  0  0
    4.2973   -3.0559    0.5696 H   0  0  0  0  0  0  0  0  0  0  0  0
    2.8570   -1.1387    1.0099 H   0  0  0  0  0  0  0  0  0  0  0  0
  1  2  2  0  0  0  0
  2  3  1  0  0  0  0
  2  4  1  0  0  0  0
  4  5  2  0  0  0  0
  5  6  1  0  0  0  0
  6  7  2  0  0  0  0
  7  8  1  0  0  0  0
  8  9  2  0  0  0  0
  8 10  1  0  0  0  0
 10 11  2  0  0  0  0
 11 12  1  0  0  0  0
 12 13  2  0  0  0  0
 13 14  1  0  0  0  0
 14 15  2  0  0  0  0
 15 16  1  0  0  0  0
 16 17  1  0  0  0  0
 16 18  1  0  0  0  0
 16 19  1  0  0  0  0
 14 20  1  0  0  0  0
 20 21  1  0  0  0  0
 21 22  1  0  0  0  0
 22 23  2  0  0  0  0
 23 24  1  0  0  0  0
 24 25  2  0  0  0  0
 25 26  1  0  0  0  0
 26 27  2  0  0  0  0
 12 28  1  0  0  0  0
 28 29  1  0  0  0  0
 29 30  1  0  0  0  0
 30 31  2  0  0  0  0
 31 32  1  0  0  0  0
 32 33  2  0  0  0  0
 33 34  1  0  0  0  0
 34 35  2  0  0  0  0
  9  4  1  0  0  0  0
 15 10  1  0  0  0  0
 27 22  1  0  0  0  0
 35 30  1  0  0  0  0
 19  7  1  0  0  0  0
 35 11  1  0  0  0  0
 27 13  1  0  0  0  0
  5 36  1  0  0  0  0
  6 37  1  0  0  0  0
  9 38  1  0  0  0  0
 20 39  1  0  0  0  0
 20 40  1  0  0  0  0
 21 41  1  0  0  0  0
 21 42  1  0  0  0  0
 23 43  1  0  0  0  0
 24 44  1  0  0  0  0
 25 45  1  0  0  0  0
 26 46  1  0  0  0  0
 28 47  1  0  0  0  0
 28 48  1  0  0  0  0
 29 49  1  0  0  0  0
 29 50  1  0  0  0  0
 31 51  1  0  0  0  0
 32 52  1  0  0  0  0
 33 53  1  0  0  0  0
 34 54  1  0  0  0  0
M  CHG  1   2   1
M  CHG  1   3  -1
M  CHG  1  15   1
M  CHG  1  16  -1
M  END
