
  xtb     03212210133D
 energy: -8.515477125304 gnorm: 0.000356028944 xtb: 6.4.1 (afa7bdf)
 44 46  0     0  0            999 V2000
    7.6753    2.2740   -0.0745 C   0  0  0  0  0  0  0  0  0  0  0  0
    7.6774    0.8835    0.1346 O   0  0  0  0  0  0  0  0  0  0  0  0
    6.4109    0.2943    0.1841 C   0  0  0  0  0  0  0  0  0  0  0  0
    5.2046    0.9879    0.0494 C   0  0  0  0  0  0  0  0  0  0  0  0
    4.0041    0.3248    0.1115 C   0  0  0  0  0  0  0  0  0  0  0  0
    3.9517   -1.0509    0.3094 C   0  0  0  0  0  0  0  0  0  0  0  0
    2.6528   -1.7133    0.3674 C   0  0  0  0  0  0  0  0  0  0  0  0
    2.3940   -3.0725    0.5685 C   0  0  0  0  0  0  0  0  0  0  0  0
    1.0853   -3.2876    0.5573 N   0  0  0  0  0  0  0  0  0  0  0  0
    0.5188   -2.0986    0.3542 C   0  0  0  0  0  0  0  0  0  0  0  0
   -0.9000   -1.8998    0.2754 C   0  0  0  0  0  0  0  0  0  0  0  0
   -1.4321   -0.6859    0.0668 C   0  0  0  0  0  0  0  0  0  0  0  0
   -2.8460   -0.3866   -0.0256 C   0  0  0  0  0  0  0  0  0  0  0  0
   -3.8275   -1.3663    0.1017 C   0  0  0  0  0  0  0  0  0  0  0  0
   -5.1628   -1.0472    0.0100 C   0  0  0  0  0  0  0  0  0  0  0  0
   -5.5793    0.2595   -0.2122 C   0  0  0  0  0  0  0  0  0  0  0  0
   -6.9157    0.6499   -0.3144 O   0  0  0  0  0  0  0  0  0  0  0  0
   -7.8592   -0.3855   -0.1680 C   0  0  0  0  0  0  0  0  0  0  0  0
   -4.5933    1.2769   -0.3460 C   0  0  0  0  0  0  0  0  0  0  0  0
   -5.0511    2.5803   -0.5696 O   0  0  0  0  0  0  0  0  0  0  0  0
   -4.0457    3.5584   -0.6752 C   0  0  0  0  0  0  0  0  0  0  0  0
   -3.2572    0.9299   -0.2496 C   0  0  0  0  0  0  0  0  0  0  0  0
    1.4454   -1.0944    0.2306 O   0  0  0  0  0  0  0  0  0  0  0  0
    5.1505   -1.7477    0.4441 C   0  0  0  0  0  0  0  0  0  0  0  0
    6.3519   -1.0880    0.3827 C   0  0  0  0  0  0  0  0  0  0  0  0
    7.2040    2.5043   -1.0306 H   0  0  0  0  0  0  0  0  0  0  0  0
    8.7090    2.6205   -0.0967 H   0  0  0  0  0  0  0  0  0  0  0  0
    7.1523    2.7712    0.7431 H   0  0  0  0  0  0  0  0  0  0  0  0
    5.2138    2.0511   -0.1044 H   0  0  0  0  0  0  0  0  0  0  0  0
    3.0763    0.8614    0.0072 H   0  0  0  0  0  0  0  0  0  0  0  0
    3.1268   -3.8503    0.7141 H   0  0  0  0  0  0  0  0  0  0  0  0
   -1.5255   -2.7643    0.3903 H   0  0  0  0  0  0  0  0  0  0  0  0
   -0.7483    0.1373   -0.0406 H   0  0  0  0  0  0  0  0  0  0  0  0
   -3.5408   -2.3879    0.2745 H   0  0  0  0  0  0  0  0  0  0  0  0
   -5.8952   -1.8266    0.1128 H   0  0  0  0  0  0  0  0  0  0  0  0
   -7.7614   -0.8391    0.8185 H   0  0  0  0  0  0  0  0  0  0  0  0
   -7.7176   -1.1292   -0.9524 H   0  0  0  0  0  0  0  0  0  0  0  0
   -8.8559    0.0457   -0.2633 H   0  0  0  0  0  0  0  0  0  0  0  0
   -3.4704    3.6006    0.2505 H   0  0  0  0  0  0  0  0  0  0  0  0
   -3.3987    3.3357   -1.5246 H   0  0  0  0  0  0  0  0  0  0  0  0
   -4.5251    4.5244   -0.8388 H   0  0  0  0  0  0  0  0  0  0  0  0
   -2.5031    1.6873   -0.3481 H   0  0  0  0  0  0  0  0  0  0  0  0
    5.1293   -2.8125    0.5968 H   0  0  0  0  0  0  0  0  0  0  0  0
    7.2783   -1.6243    0.4863 H   0  0  0  0  0  0  0  0  0  0  0  0
  1  2  1  0  0  0  0
  2  3  1  0  0  0  0
  3  4  2  0  0  0  0
  4  5  1  0  0  0  0
  5  6  2  0  0  0  0
  6  7  1  0  0  0  0
  7  8  2  0  0  0  0
  8  9  1  0  0  0  0
  9 10  2  0  0  0  0
 10 11  1  0  0  0  0
 11 12  2  0  0  0  0
 12 13  1  0  0  0  0
 13 14  2  0  0  0  0
 14 15  1  0  0  0  0
 15 16  2  0  0  0  0
 16 17  1  0  0  0  0
 17 18  1  0  0  0  0
 16 19  1  0  0  0  0
 19 20  1  0  0  0  0
 20 21  1  0  0  0  0
 19 22  2  0  0  0  0
 10 23  1  0  0  0  0
  6 24  1  0  0  0  0
 24 25  2  0  0  0  0
 25  3  1  0  0  0  0
 23  7  1  0  0  0  0
 22 13  1  0  0  0  0
  1 26  1  0  0  0  0
  1 27  1  0  0  0  0
  1 28  1  0  0  0  0
  4 29  1  0  0  0  0
  5 30  1  0  0  0  0
  8 31  1  0  0  0  0
 11 32  1  0  0  0  0
 12 33  1  0  0  0  0
 14 34  1  0  0  0  0
 15 35  1  0  0  0  0
 18 36  1  0  0  0  0
 18 37  1  0  0  0  0
 18 38  1  0  0  0  0
 21 39  1  0  0  0  0
 21 40  1  0  0  0  0
 21 41  1  0  0  0  0
 22 42  1  0  0  0  0
 24 43  1  0  0  0  0
 25 44  1  0  0  0  0
M  END
