
  xtb     03212210143D
 energy: -7.535470046633 gnorm: 0.000328975383 xtb: 6.4.1 (afa7bdf)
 36 38  0     0  0            999 V2000
    3.3281   -1.4078    5.0173 C   0  0  0  0  0  0  0  0  0  0  0  0
    2.9598   -1.9585    3.6567 C   0  0  0  0  0  0  0  0  0  0  0  0
    2.1160   -1.0909    2.9417 O   0  0  0  0  0  0  0  0  0  0  0  0
    1.8058   -1.6452    1.7321 C   0  0  0  0  0  0  0  0  0  0  0  0
    2.2276   -2.7321    1.3772 O   0  0  0  0  0  0  0  0  0  0  0  0
    0.9189   -0.8957    0.8124 C   0  0  0  0  0  0  0  0  0  0  0  0
    0.6323   -1.4664   -0.3978 C   0  0  0  0  0  0  0  0  0  0  0  0
   -0.1955   -0.8485   -1.3429 C   0  0  0  0  0  0  0  0  0  0  0  0
   -0.4511   -1.5012   -2.5799 C   0  0  0  0  0  0  0  0  0  0  0  0
   -1.2423   -0.9403   -3.5150 C   0  0  0  0  0  0  0  0  0  0  0  0
   -1.8501    0.3274   -3.2949 C   0  0  0  0  0  0  0  0  0  0  0  0
   -2.6721    0.8926   -4.2834 C   0  0  0  0  0  0  0  0  0  0  0  0
   -3.2648    2.1068   -4.0957 C   0  0  0  0  0  0  0  0  0  0  0  0
   -3.0539    2.7958   -2.9111 C   0  0  0  0  0  0  0  0  0  0  0  0
   -2.2591    2.2678   -1.9330 C   0  0  0  0  0  0  0  0  0  0  0  0
   -1.6281    1.0207   -2.0813 C   0  0  0  0  0  0  0  0  0  0  0  0
   -0.7721    0.4170   -1.0645 C   0  0  0  0  0  0  0  0  0  0  0  0
   -0.4780    1.0125    0.1872 C   0  0  0  0  0  0  0  0  0  0  0  0
   -0.9733    2.2499    0.5893 C   0  0  0  0  0  0  0  0  0  0  0  0
   -1.3804    3.2821    0.9368 N   0  0  0  0  0  0  0  0  0  0  0  0
    0.3572    0.3715    1.1239 C   0  0  0  0  0  0  0  0  0  0  0  0
    0.6152    0.9804    2.3224 N   0  0  0  0  0  0  0  0  0  0  0  0
    3.9857   -2.0812    5.5698 H   0  0  0  0  0  0  0  0  0  0  0  0
    3.8341   -0.4471    4.9181 H   0  0  0  0  0  0  0  0  0  0  0  0
    2.4339   -1.2401    5.6182 H   0  0  0  0  0  0  0  0  0  0  0  0
    2.4366   -2.9217    3.7352 H   0  0  0  0  0  0  0  0  0  0  0  0
    3.8476   -2.1284    3.0318 H   0  0  0  0  0  0  0  0  0  0  0  0
    1.0647   -2.4263   -0.6189 H   0  0  0  0  0  0  0  0  0  0  0  0
    0.0019   -2.4605   -2.7604 H   0  0  0  0  0  0  0  0  0  0  0  0
   -1.4254   -1.4478   -4.4461 H   0  0  0  0  0  0  0  0  0  0  0  0
   -2.8309    0.3500   -5.2009 H   0  0  0  0  0  0  0  0  0  0  0  0
   -3.8928    2.5294   -4.8615 H   0  0  0  0  0  0  0  0  0  0  0  0
   -3.5220    3.7568   -2.7620 H   0  0  0  0  0  0  0  0  0  0  0  0
   -2.1252    2.8363   -1.0343 H   0  0  0  0  0  0  0  0  0  0  0  0
    1.2109    0.5630    3.0251 H   0  0  0  0  0  0  0  0  0  0  0  0
    0.2404    1.8792    2.5883 H   0  0  0  0  0  0  0  0  0  0  0  0
  1  2  1  0  0  0  0
  2  3  1  0  0  0  0
  3  4  1  0  0  0  0
  4  5  2  0  0  0  0
  4  6  1  0  0  0  0
  6  7  2  0  0  0  0
  7  8  1  0  0  0  0
  8  9  2  0  0  0  0
  9 10  1  0  0  0  0
 10 11  2  0  0  0  0
 11 12  1  0  0  0  0
 12 13  2  0  0  0  0
 13 14  1  0  0  0  0
 14 15  2  0  0  0  0
 15 16  1  0  0  0  0
 16 17  2  0  0  0  0
 17 18  1  0  0  0  0
 18 19  1  0  0  0  0
 19 20  3  0  0  0  0
 18 21  2  0  0  0  0
 21 22  1  0  0  0  0
 21  6  1  0  0  0  0
 17  8  1  0  0  0  0
 16 11  1  0  0  0  0
  1 23  1  0  0  0  0
  1 24  1  0  0  0  0
  1 25  1  0  0  0  0
  2 26  1  0  0  0  0
  2 27  1  0  0  0  0
  7 28  1  0  0  0  0
  9 29  1  0  0  0  0
 10 30  1  0  0  0  0
 12 31  1  0  0  0  0
 13 32  1  0  0  0  0
 14 33  1  0  0  0  0
 15 34  1  0  0  0  0
 22 35  1  0  0  0  0
 22 36  1  0  0  0  0
M  END
