
  xtb     03212210133D
 energy: -6.747267748995 gnorm: 0.000403686519 xtb: 6.4.1 (afa7bdf)
 34 36  0     0  0            999 V2000
    5.1110   -1.0621   -1.0247 C   0  0  0  0  0  0  0  0  0  0  0  0
    4.6418   -0.3975    0.2472 C   0  0  0  0  0  0  0  0  0  0  0  0
    3.2404   -0.0250    0.1625 N   0  0  0  0  0  0  0  0  0  0  0  0
    2.9064    1.3278    0.0477 C   0  0  0  0  0  0  0  0  0  0  0  0
    3.8177    2.1437    0.0167 O   0  0  0  0  0  0  0  0  0  0  0  0
    1.6005    1.7214   -0.0300 N   0  0  0  0  0  0  0  0  0  0  0  0
    0.6611    0.7934   -0.0136 C   0  0  0  0  0  0  0  0  0  0  0  0
   -0.6610    1.2050   -0.0888 N   0  0  0  0  0  0  0  0  0  0  0  0
   -0.9426    2.6323   -0.1771 C   0  0  0  0  0  0  0  0  0  0  0  0
   -1.6778    0.2568   -0.0766 C   0  0  0  0  0  0  0  0  0  0  0  0
   -3.0301    0.6065   -0.1420 C   0  0  0  0  0  0  0  0  0  0  0  0
   -4.0211   -0.3470   -0.1331 C   0  0  0  0  0  0  0  0  0  0  0  0
   -5.4498    0.0564   -0.1873 C   0  0  0  0  0  0  0  0  0  0  0  0
   -3.6591   -1.6918   -0.0464 C   0  0  0  0  0  0  0  0  0  0  0  0
   -2.3426   -2.0605    0.0196 C   0  0  0  0  0  0  0  0  0  0  0  0
   -1.3225   -1.1040    0.0059 C   0  0  0  0  0  0  0  0  0  0  0  0
   -0.0235   -1.5266    0.0770 N   0  0  0  0  0  0  0  0  0  0  0  0
    0.9134   -0.6078    0.0693 C   0  0  0  0  0  0  0  0  0  0  0  0
    2.2931   -1.0385    0.1506 C   0  0  0  0  0  0  0  0  0  0  0  0
    2.6163   -2.2135    0.1984 O   0  0  0  0  0  0  0  0  0  0  0  0
    4.5147   -1.9545   -1.2238 H   0  0  0  0  0  0  0  0  0  0  0  0
    4.9861   -0.3923   -1.8764 H   0  0  0  0  0  0  0  0  0  0  0  0
    6.1602   -1.3576   -0.9749 H   0  0  0  0  0  0  0  0  0  0  0  0
    4.7526   -1.0646    1.1093 H   0  0  0  0  0  0  0  0  0  0  0  0
    5.2179    0.5099    0.4638 H   0  0  0  0  0  0  0  0  0  0  0  0
   -1.5265    2.9529    0.6825 H   0  0  0  0  0  0  0  0  0  0  0  0
   -0.0084    3.1904   -0.1887 H   0  0  0  0  0  0  0  0  0  0  0  0
   -1.4877    2.8516   -1.0922 H   0  0  0  0  0  0  0  0  0  0  0  0
   -3.3060    1.6431   -0.1986 H   0  0  0  0  0  0  0  0  0  0  0  0
   -6.0979   -0.7993   -0.3863 H   0  0  0  0  0  0  0  0  0  0  0  0
   -5.6180    0.7906   -0.9777 H   0  0  0  0  0  0  0  0  0  0  0  0
   -5.7629    0.5011    0.7594 H   0  0  0  0  0  0  0  0  0  0  0  0
   -4.4306   -2.4430   -0.0303 H   0  0  0  0  0  0  0  0  0  0  0  0
   -2.0651   -3.0976    0.0857 H   0  0  0  0  0  0  0  0  0  0  0  0
  1  2  1  0  0  0  0
  2  3  1  0  0  0  0
  3  4  1  0  0  0  0
  4  5  2  0  0  0  0
  4  6  1  0  0  0  0
  6  7  2  0  0  0  0
  7  8  1  0  0  0  0
  8  9  1  0  0  0  0
  8 10  1  0  0  0  0
 10 11  2  0  0  0  0
 11 12  1  0  0  0  0
 12 13  1  0  0  0  0
 12 14  2  0  0  0  0
 14 15  1  0  0  0  0
 15 16  2  0  0  0  0
 16 17  1  0  0  0  0
 17 18  2  0  0  0  0
 18 19  1  0  0  0  0
 19 20  2  0  0  0  0
 19  3  1  0  0  0  0
 18  7  1  0  0  0  0
 16 10  1  0  0  0  0
  1 21  1  0  0  0  0
  1 22  1  0  0  0  0
  1 23  1  0  0  0  0
  2 24  1  0  0  0  0
  2 25  1  0  0  0  0
  9 26  1  0  0  0  0
  9 27  1  0  0  0  0
  9 28  1  0  0  0  0
 11 29  1  0  0  0  0
 13 30  1  0  0  0  0
 13 31  1  0  0  0  0
 13 32  1  0  0  0  0
 14 33  1  0  0  0  0
 15 34  1  0  0  0  0
M  END
