
  xtb     03212210123D
 energy: -10.610495281592 gnorm: 0.000247062192 xtb: 6.4.1 (afa7bdf)
 57 62  0     0  0            999 V2000
    0.2876   -1.5707   -0.4618 F   0  0  0  0  0  0  0  0  0  0  0  0
   -0.0100   -0.6018    0.4941 B   0  0  0  0  0  4  0  0  0  0  0  0
   -0.2901   -1.1439    1.7454 F   0  0  0  0  0  0  0  0  0  0  0  0
    1.2260    0.3068    0.6187 N   0  0  0  0  0  0  0  0  0  0  0  0
    1.1641    1.6193    0.2150 C   0  0  0  0  0  0  0  0  0  0  0  0
    2.4813    2.1389    0.3721 C   0  0  0  0  0  0  0  0  0  0  0  0
    3.2756    1.1448    0.8618 C   0  0  0  0  0  0  0  0  0  0  0  0
    2.4916   -0.0374    1.0184 C   0  0  0  0  0  0  0  0  0  0  0  0
    2.9771   -1.2707    1.4281 N   0  0  0  0  0  0  0  0  0  0  0  0
    4.4197   -1.5533    1.4993 C   0  0  0  0  0  0  0  0  0  0  0  0
    4.8392   -2.3219    0.2476 C   0  0  0  0  0  0  0  0  0  0  0  0
    4.0755   -3.5130    0.0947 O   0  0  0  0  0  0  0  0  0  0  0  0
    2.6769   -3.2587    0.0473 C   0  0  0  0  0  0  0  0  0  0  0  0
    2.2115   -2.5128    1.2949 C   0  0  0  0  0  0  0  0  0  0  0  0
    0.0159    2.2581   -0.2921 C   0  0  0  0  0  0  0  0  0  0  0  0
    0.0339    3.6694   -0.7189 C   0  0  0  0  0  0  0  0  0  0  0  0
    0.6255    4.6580    0.0755 C   0  0  0  0  0  0  0  0  0  0  0  0
    0.6382    5.9717   -0.3297 C   0  0  0  0  0  0  0  0  0  0  0  0
    0.0655    6.3352   -1.5317 C   0  0  0  0  0  0  0  0  0  0  0  0
   -0.5245    5.3758   -2.3294 C   0  0  0  0  0  0  0  0  0  0  0  0
   -0.5439    4.0598   -1.9322 C   0  0  0  0  0  0  0  0  0  0  0  0
   -1.1599    1.4850   -0.3495 C   0  0  0  0  0  0  0  0  0  0  0  0
   -2.4801    1.8925   -0.6986 C   0  0  0  0  0  0  0  0  0  0  0  0
   -3.3157    0.8302   -0.5174 C   0  0  0  0  0  0  0  0  0  0  0  0
   -2.5524   -0.2808   -0.0503 C   0  0  0  0  0  0  0  0  0  0  0  0
   -3.0660   -1.5180    0.3043 N   0  0  0  0  0  0  0  0  0  0  0  0
   -2.2342   -2.6938    0.5656 C   0  0  0  0  0  0  0  0  0  0  0  0
   -2.6683   -3.8623   -0.3231 C   0  0  0  0  0  0  0  0  0  0  0  0
   -3.6196   -3.4499   -1.2930 O   0  0  0  0  0  0  0  0  0  0  0  0
   -4.8053   -2.9264   -0.7078 C   0  0  0  0  0  0  0  0  0  0  0  0
   -4.5018   -1.8263    0.3122 C   0  0  0  0  0  0  0  0  0  0  0  0
   -1.2592    0.1675    0.0279 N   0  0  0  0  0  4  0  0  0  0  0  0
    2.7968    3.1373    0.1244 H   0  0  0  0  0  0  0  0  0  0  0  0
    4.3249    1.2411    1.0777 H   0  0  0  0  0  0  0  0  0  0  0  0
    4.9895   -0.6291    1.6249 H   0  0  0  0  0  0  0  0  0  0  0  0
    4.6052   -2.1589    2.3911 H   0  0  0  0  0  0  0  0  0  0  0  0
    5.8991   -2.6055    0.2740 H   0  0  0  0  0  0  0  0  0  0  0  0
    4.6854   -1.7138   -0.6514 H   0  0  0  0  0  0  0  0  0  0  0  0
    2.1642   -4.2217   -0.0731 H   0  0  0  0  0  0  0  0  0  0  0  0
    2.4744   -2.6655   -0.8531 H   0  0  0  0  0  0  0  0  0  0  0  0
    1.1465   -2.2860    1.2576 H   0  0  0  0  0  0  0  0  0  0  0  0
    2.3774   -3.1214    2.1885 H   0  0  0  0  0  0  0  0  0  0  0  0
    1.0489    4.3808    1.0242 H   0  0  0  0  0  0  0  0  0  0  0  0
    1.0944    6.7225    0.2954 H   0  0  0  0  0  0  0  0  0  0  0  0
    0.0787    7.3667   -1.8467 H   0  0  0  0  0  0  0  0  0  0  0  0
   -0.9689    5.6599   -3.2699 H   0  0  0  0  0  0  0  0  0  0  0  0
   -0.9847    3.3100   -2.5644 H   0  0  0  0  0  0  0  0  0  0  0  0
   -2.7682    2.8787   -1.0184 H   0  0  0  0  0  0  0  0  0  0  0  0
   -4.3752    0.8360   -0.7028 H   0  0  0  0  0  0  0  0  0  0  0  0
   -2.2884   -2.9378    1.6312 H   0  0  0  0  0  0  0  0  0  0  0  0
   -1.2003   -2.4206    0.3595 H   0  0  0  0  0  0  0  0  0  0  0  0
   -1.8201   -4.3007   -0.8645 H   0  0  0  0  0  0  0  0  0  0  0  0
   -3.1262   -4.6681    0.2632 H   0  0  0  0  0  0  0  0  0  0  0  0
   -5.3593   -3.7617   -0.2627 H   0  0  0  0  0  0  0  0  0  0  0  0
   -5.4168   -2.5438   -1.5348 H   0  0  0  0  0  0  0  0  0  0  0  0
   -5.0845   -0.9229    0.1177 H   0  0  0  0  0  0  0  0  0  0  0  0
   -4.7669   -2.1465    1.3248 H   0  0  0  0  0  0  0  0  0  0  0  0
  1  2  1  0  0  0  0
  2  3  1  0  0  0  0
  2  4  1  0  0  0  0
  4  5  1  0  0  0  0
  5  6  2  0  0  0  0
  6  7  1  0  0  0  0
  7  8  2  0  0  0  0
  8  9  1  0  0  0  0
  9 10  1  0  0  0  0
 10 11  1  0  0  0  0
 11 12  1  0  0  0  0
 12 13  1  0  0  0  0
 13 14  1  0  0  0  0
  5 15  1  0  0  0  0
 15 16  1  0  0  0  0
 16 17  2  0  0  0  0
 17 18  1  0  0  0  0
 18 19  2  0  0  0  0
 19 20  1  0  0  0  0
 20 21  2  0  0  0  0
 15 22  2  0  0  0  0
 22 23  1  0  0  0  0
 23 24  2  0  0  0  0
 24 25  1  0  0  0  0
 25 26  1  0  0  0  0
 26 27  1  0  0  0  0
 27 28  1  0  0  0  0
 28 29  1  0  0  0  0
 29 30  1  0  0  0  0
 30 31  1  0  0  0  0
 25 32  2  0  0  0  0
 32  2  1  0  0  0  0
  8  4  1  0  0  0  0
 14  9  1  0  0  0  0
 21 16  1  0  0  0  0
 32 22  1  0  0  0  0
 31 26  1  0  0  0  0
  6 33  1  0  0  0  0
  7 34  1  0  0  0  0
 10 35  1  0  0  0  0
 10 36  1  0  0  0  0
 11 37  1  0  0  0  0
 11 38  1  0  0  0  0
 13 39  1  0  0  0  0
 13 40  1  0  0  0  0
 14 41  1  0  0  0  0
 14 42  1  0  0  0  0
 17 43  1  0  0  0  0
 18 44  1  0  0  0  0
 19 45  1  0  0  0  0
 20 46  1  0  0  0  0
 21 47  1  0  0  0  0
 23 48  1  0  0  0  0
 24 49  1  0  0  0  0
 27 50  1  0  0  0  0
 27 51  1  0  0  0  0
 28 52  1  0  0  0  0
 28 53  1  0  0  0  0
 30 54  1  0  0  0  0
 30 55  1  0  0  0  0
 31 56  1  0  0  0  0
 31 57  1  0  0  0  0
M  CHG  1   2  -1
M  CHG  1  32   1
M  END
