
  xtb     03212210133D
 energy: -10.336447914211 gnorm: 0.000282941691 xtb: 6.4.1 (afa7bdf)
 53 55  0     0  0            999 V2000
   -5.4170    2.7597    1.1769 C   0  0  0  0  0  0  0  0  0  0  0  0
   -5.2678    2.0955   -0.1739 C   0  0  0  0  0  0  0  0  0  0  0  0
   -4.6155    0.7759   -0.0713 N   0  0  0  0  0  0  0  0  0  0  0  0
   -5.5273   -0.3854   -0.0264 C   0  0  0  0  0  0  0  0  0  0  0  0
   -5.6383   -1.0795   -1.3671 C   0  0  0  0  0  0  0  0  0  0  0  0
   -3.2179    0.6308   -0.0153 C   0  0  0  0  0  0  0  0  0  0  0  0
   -2.3543    1.7387   -0.0162 C   0  0  0  0  0  0  0  0  0  0  0  0
   -0.9932    1.5755    0.0201 C   0  0  0  0  0  0  0  0  0  0  0  0
   -0.4324    0.3041    0.0605 C   0  0  0  0  0  0  0  0  0  0  0  0
    0.9192    0.1047    0.0678 N   0  0  0  0  0  0  0  0  0  0  0  0
    1.7468    1.0271    0.0352 N   0  0  0  0  0  0  0  0  0  0  0  0
    3.0836    0.7329   -0.0205 C   0  0  0  0  0  0  0  0  0  0  0  0
    4.0146    1.7506    0.1450 C   0  0  0  0  0  0  0  0  0  0  0  0
    5.3709    1.4977    0.1094 C   0  0  0  0  0  0  0  0  0  0  0  0
    6.3198    2.5888    0.3010 C   0  0  0  0  0  0  0  0  0  0  0  0
    5.9250    3.7368    0.4599 O   0  0  0  0  0  0  0  0  0  0  0  0
    7.6580    2.2845    0.3018 N   0  0  0  0  0  0  0  0  0  0  0  0
    8.1243    0.9610   -0.0333 N   0  0  0  0  0  0  0  0  0  0  0  0
    7.2539   -0.0941   -0.1555 C   0  0  0  0  0  0  0  0  0  0  0  0
    7.6604   -1.2389   -0.3091 O   0  0  0  0  0  0  0  0  0  0  0  0
    5.8237    0.1878   -0.1028 C   0  0  0  0  0  0  0  0  0  0  0  0
    4.9023   -0.8327   -0.2727 C   0  0  0  0  0  0  0  0  0  0  0  0
    3.5502   -0.5810   -0.2362 C   0  0  0  0  0  0  0  0  0  0  0  0
    2.6200   -1.6891   -0.4667 N   0  0  0  0  0  4  0  0  0  0  0  0
    2.2367   -2.3628    0.4974 O   0  0  0  0  0  0  0  0  0  0  0  0
    2.2478   -1.9217   -1.6232 O   0  0  0  0  0  1  0  0  0  0  0  0
   -1.2776   -0.8230    0.0687 C   0  0  0  0  0  0  0  0  0  0  0  0
   -0.7082   -2.0963    0.0976 N   0  0  0  0  0  0  0  0  0  0  0  0
   -1.3925   -3.3007    0.0192 C   0  0  0  0  0  0  0  0  0  0  0  0
   -0.5848   -4.5509    0.0141 C   0  0  0  0  0  0  0  0  0  0  0  0
   -2.6008   -3.3581   -0.0513 O   0  0  0  0  0  0  0  0  0  0  0  0
   -2.6445   -0.6366    0.0329 C   0  0  0  0  0  0  0  0  0  0  0  0
   -4.4479    2.8922    1.6608 H   0  0  0  0  0  0  0  0  0  0  0  0
   -6.0241    2.1484    1.8471 H   0  0  0  0  0  0  0  0  0  0  0  0
   -5.8895    3.7421    1.1034 H   0  0  0  0  0  0  0  0  0  0  0  0
   -4.6931    2.7166   -0.8657 H   0  0  0  0  0  0  0  0  0  0  0  0
   -6.2432    1.9628   -0.6506 H   0  0  0  0  0  0  0  0  0  0  0  0
   -5.1795   -1.0706    0.7515 H   0  0  0  0  0  0  0  0  0  0  0  0
   -6.5088   -0.0416    0.3121 H   0  0  0  0  0  0  0  0  0  0  0  0
   -6.3102   -1.9401   -1.3296 H   0  0  0  0  0  0  0  0  0  0  0  0
   -4.6666   -1.4365   -1.7130 H   0  0  0  0  0  0  0  0  0  0  0  0
   -6.0146   -0.3958   -2.1301 H   0  0  0  0  0  0  0  0  0  0  0  0
   -2.7639    2.7320   -0.0443 H   0  0  0  0  0  0  0  0  0  0  0  0
   -0.3325    2.4250    0.0116 H   0  0  0  0  0  0  0  0  0  0  0  0
    3.6774    2.7599    0.3113 H   0  0  0  0  0  0  0  0  0  0  0  0
    8.3238    3.0477    0.3588 H   0  0  0  0  0  0  0  0  0  0  0  0
    9.1177    0.7592    0.0062 H   0  0  0  0  0  0  0  0  0  0  0  0
    5.2576   -1.8335   -0.4426 H   0  0  0  0  0  0  0  0  0  0  0  0
    0.3195   -2.1291    0.1625 H   0  0  0  0  0  0  0  0  0  0  0  0
    0.4754   -4.3398    0.1565 H   0  0  0  0  0  0  0  0  0  0  0  0
   -0.7059   -5.0719   -0.9345 H   0  0  0  0  0  0  0  0  0  0  0  0
   -0.9149   -5.2152    0.8114 H   0  0  0  0  0  0  0  0  0  0  0  0
   -3.2620   -1.5130    0.0330 H   0  0  0  0  0  0  0  0  0  0  0  0
  1  2  1  0  0  0  0
  2  3  1  0  0  0  0
  3  4  1  0  0  0  0
  4  5  1  0  0  0  0
  3  6  1  0  0  0  0
  6  7  2  0  0  0  0
  7  8  1  0  0  0  0
  8  9  2  0  0  0  0
  9 10  1  0  0  0  0
 10 11  2  0  0  0  0
 11 12  1  0  0  0  0
 12 13  2  0  0  0  0
 13 14  1  0  0  0  0
 14 15  1  0  0  0  0
 15 16  2  0  0  0  0
 15 17  1  0  0  0  0
 17 18  1  0  0  0  0
 18 19  1  0  0  0  0
 19 20  2  0  0  0  0
 19 21  1  0  0  0  0
 21 22  1  0  0  0  0
 22 23  2  0  0  0  0
 23 24  1  0  0  0  0
 24 25  2  0  0  0  0
 24 26  1  0  0  0  0
  9 27  1  0  0  0  0
 27 28  1  0  0  0  0
 28 29  1  0  0  0  0
 29 30  1  0  0  0  0
 29 31  2  0  0  0  0
 27 32  2  0  0  0  0
 32  6  1  0  0  0  0
 23 12  1  0  0  0  0
 21 14  2  0  0  0  0
  1 33  1  0  0  0  0
  1 34  1  0  0  0  0
  1 35  1  0  0  0  0
  2 36  1  0  0  0  0
  2 37  1  0  0  0  0
  4 38  1  0  0  0  0
  4 39  1  0  0  0  0
  5 40  1  0  0  0  0
  5 41  1  0  0  0  0
  5 42  1  0  0  0  0
  7 43  1  0  0  0  0
  8 44  1  0  0  0  0
 13 45  1  0  0  0  0
 17 46  1  0  0  0  0
 18 47  1  0  0  0  0
 22 48  1  0  0  0  0
 28 49  1  0  0  0  0
 30 50  1  0  0  0  0
 30 51  1  0  0  0  0
 30 52  1  0  0  0  0
 32 53  1  0  0  0  0
M  CHG  1  24   1
M  CHG  1  26  -1
M  END
