
  xtb     03212210133D
 energy: -8.765606627793 gnorm: 0.000173338964 xtb: 6.4.1 (afa7bdf)
 42 46  0     0  0            999 V2000
    6.4494   -1.7850    0.3304 O   0  0  0  0  0  0  0  0  0  0  0  0
    5.5086   -0.8089    0.1586 C   0  0  0  0  0  0  0  0  0  0  0  0
    5.8565    0.5460    0.0209 C   0  0  0  0  0  0  0  0  0  0  0  0
    4.8824    1.4965   -0.1542 C   0  0  0  0  0  0  0  0  0  0  0  0
    3.5531    1.1342   -0.1970 C   0  0  0  0  0  0  0  0  0  0  0  0
    3.1583   -0.2010   -0.0570 C   0  0  0  0  0  0  0  0  0  0  0  0
    1.7568   -0.5882   -0.0948 C   0  0  0  0  0  0  0  0  0  0  0  0
    0.6512    0.2077   -0.0287 N   0  0  0  0  0  4  0  0  0  0  0  0
   -0.5212   -0.5364   -0.0701 C   0  0  0  0  0  0  0  0  0  0  0  0
   -1.8249   -0.0183    0.0346 C   0  0  0  0  0  0  0  0  0  0  0  0
   -3.0172   -0.8829   -0.0363 C   0  0  0  0  0  0  0  0  0  0  0  0
   -4.0380   -0.7776    0.9102 C   0  0  0  0  0  0  0  0  0  0  0  0
   -5.1504   -1.5839    0.8391 C   0  0  0  0  0  0  0  0  0  0  0  0
   -5.2715   -2.5111   -0.1758 C   0  0  0  0  0  0  0  0  0  0  0  0
   -4.2733   -2.6303   -1.1212 C   0  0  0  0  0  0  0  0  0  0  0  0
   -3.1580   -1.8277   -1.0545 C   0  0  0  0  0  0  0  0  0  0  0  0
   -1.9288    1.3668    0.2318 C   0  0  0  0  0  0  0  0  0  0  0  0
   -3.0528    2.2156    0.3665 C   0  0  0  0  0  0  0  0  0  0  0  0
   -2.5887    3.5084    0.5240 C   0  0  0  0  0  0  0  0  0  0  0  0
   -1.1860    3.4870    0.4824 C   0  0  0  0  0  0  0  0  0  0  0  0
   -0.8266    2.2136    0.3076 N   0  0  0  0  0  0  0  0  0  0  0  0
    0.6115    1.7391    0.1017 B   0  0  0  0  0  4  0  0  0  0  0  0
    1.0787    2.3103   -1.0778 F   0  0  0  0  0  0  0  0  0  0  0  0
    1.3645    2.1260    1.2050 F   0  0  0  0  0  0  0  0  0  0  0  0
   -0.1056   -1.8904   -0.1680 C   0  0  0  0  0  0  0  0  0  0  0  0
    1.2635   -1.9176   -0.1810 C   0  0  0  0  0  0  0  0  0  0  0  0
    4.1531   -1.1552    0.1168 C   0  0  0  0  0  0  0  0  0  0  0  0
    7.3474   -1.3880    0.3418 H   0  0  0  0  0  0  0  0  0  0  0  0
    6.8935    0.8272    0.0535 H   0  0  0  0  0  0  0  0  0  0  0  0
    5.1568    2.5336   -0.2603 H   0  0  0  0  0  0  0  0  0  0  0  0
    2.7992    1.8824   -0.3491 H   0  0  0  0  0  0  0  0  0  0  0  0
   -3.9339   -0.0682    1.7120 H   0  0  0  0  0  0  0  0  0  0  0  0
   -5.9284   -1.4932    1.5795 H   0  0  0  0  0  0  0  0  0  0  0  0
   -6.1449   -3.1410   -0.2303 H   0  0  0  0  0  0  0  0  0  0  0  0
   -4.3696   -3.3518   -1.9161 H   0  0  0  0  0  0  0  0  0  0  0  0
   -2.3885   -1.9061   -1.8021 H   0  0  0  0  0  0  0  0  0  0  0  0
   -4.0832    1.9073    0.3306 H   0  0  0  0  0  0  0  0  0  0  0  0
   -3.1994    4.3885    0.6438 H   0  0  0  0  0  0  0  0  0  0  0  0
   -0.5001    4.3162    0.5497 H   0  0  0  0  0  0  0  0  0  0  0  0
   -0.7574   -2.7466   -0.1956 H   0  0  0  0  0  0  0  0  0  0  0  0
    1.8663   -2.8071   -0.2488 H   0  0  0  0  0  0  0  0  0  0  0  0
    3.8976   -2.1901    0.2356 H   0  0  0  0  0  0  0  0  0  0  0  0
  1  2  1  0  0  0  0
  2  3  2  0  0  0  0
  3  4  1  0  0  0  0
  4  5  2  0  0  0  0
  5  6  1  0  0  0  0
  6  7  1  0  0  0  0
  7  8  2  0  0  0  0
  8  9  1  0  0  0  0
  9 10  2  0  0  0  0
 10 11  1  0  0  0  0
 11 12  2  0  0  0  0
 12 13  1  0  0  0  0
 13 14  2  0  0  0  0
 14 15  1  0  0  0  0
 15 16  2  0  0  0  0
 10 17  1  0  0  0  0
 17 18  2  0  0  0  0
 18 19  1  0  0  0  0
 19 20  2  0  0  0  0
 20 21  1  0  0  0  0
 21 22  1  0  0  0  0
 22 23  1  0  0  0  0
 22 24  1  0  0  0  0
  9 25  1  0  0  0  0
 25 26  2  0  0  0  0
  6 27  2  0  0  0  0
 27  2  1  0  0  0  0
 26  7  1  0  0  0  0
 22  8  1  0  0  0  0
 16 11  1  0  0  0  0
 21 17  1  0  0  0  0
  1 28  1  0  0  0  0
  3 29  1  0  0  0  0
  4 30  1  0  0  0  0
  5 31  1  0  0  0  0
 12 32  1  0  0  0  0
 13 33  1  0  0  0  0
 14 34  1  0  0  0  0
 15 35  1  0  0  0  0
 16 36  1  0  0  0  0
 18 37  1  0  0  0  0
 19 38  1  0  0  0  0
 20 39  1  0  0  0  0
 25 40  1  0  0  0  0
 26 41  1  0  0  0  0
 27 42  1  0  0  0  0
M  CHG  1   8   1
M  CHG  1  22  -1
M  END
