
  xtb     03212210123D
 energy: -15.400318535212 gnorm: 0.000258775528 xtb: 6.4.1 (afa7bdf)
 81 85  0     0  0            999 V2000
   -4.3614   -1.2110   -0.4321 C   0  0  0  0  0  0  0  0  0  0  0  0
   -5.6367   -0.6862   -0.1635 O   0  0  0  0  0  0  0  0  0  0  0  0
   -5.6807    0.7049   -0.0398 C   0  0  0  0  0  0  0  0  0  0  0  0
   -4.5745    1.5344   -0.0350 C   0  0  0  0  0  0  0  0  0  0  0  0
   -4.6855    2.9288    0.0513 C   0  0  0  0  0  0  0  0  0  0  0  0
   -3.5559    3.8191    0.0263 C   0  0  0  0  0  0  0  0  0  0  0  0
   -2.2774    3.5162    0.4025 C   0  0  0  0  0  0  0  0  0  0  0  0
   -1.5116    2.4246   -0.0831 C   0  0  0  0  0  0  0  0  0  0  0  0
   -0.2181    2.2044    0.3849 C   0  0  0  0  0  0  0  0  0  0  0  0
    0.5531    1.1727   -0.1431 C   0  0  0  0  0  0  0  0  0  0  0  0
    1.9062    0.9988    0.2333 C   0  0  0  0  0  0  0  0  0  0  0  0
    2.6370   -0.0190   -0.2835 C   0  0  0  0  0  0  0  0  0  0  0  0
    4.0101   -0.3118    0.0028 C   0  0  0  0  0  0  0  0  0  0  0  0
    4.6171   -1.4214   -0.5886 C   0  0  0  0  0  0  0  0  0  0  0  0
    5.9323   -1.7188   -0.3390 C   0  0  0  0  0  0  0  0  0  0  0  0
    6.7324   -0.9277    0.4971 C   0  0  0  0  0  0  0  0  0  0  0  0
    8.0593   -1.3241    0.6044 O   0  0  0  0  0  0  0  0  0  0  0  0
    9.0825   -0.1279    0.8937 S   0  0  0  0  0  6  0  0  0  0  0  0
    9.5014    0.0854    2.3142 O   0  0  0  0  0  0  0  0  0  0  0  0
    8.8358    1.0526    0.0026 O   0  0  0  0  0  0  0  0  0  0  0  0
   10.5678   -0.8705    0.1662 C   0  0  0  0  0  0  0  0  0  0  0  0
   10.7003   -0.9345   -1.2003 C   0  0  0  0  0  0  0  0  0  0  0  0
   11.8277   -1.5035   -1.7562 C   0  0  0  0  0  0  0  0  0  0  0  0
   12.8368   -2.0083   -0.9489 C   0  0  0  0  0  0  0  0  0  0  0  0
   14.0417   -2.6451   -1.5461 C   0  0  0  0  0  0  0  0  0  0  0  0
   12.6829   -1.9413    0.4280 C   0  0  0  0  0  0  0  0  0  0  0  0
   11.5546   -1.3721    0.9812 C   0  0  0  0  0  0  0  0  0  0  0  0
    6.0992    0.1794    1.1577 C   0  0  0  0  0  0  0  0  0  0  0  0
    6.7847    0.9466    2.1328 O   0  0  0  0  0  0  0  0  0  0  0  0
    6.9597    2.3007    1.7842 C   0  0  0  0  0  0  0  0  0  0  0  0
    4.7752    0.4675    0.8785 C   0  0  0  0  0  0  0  0  0  0  0  0
    0.0149    0.3086   -1.0509 O   0  0  0  0  0  3  0  0  0  0  0  0
   -1.4461    0.2424   -1.0133 B   0  0  0  0  0  4  0  0  0  0  0  0
   -1.8249   -0.3259    0.1955 F   0  0  0  0  0  0  0  0  0  0  0  0
   -1.9507   -0.5110   -2.0582 F   0  0  0  0  0  0  0  0  0  0  0  0
   -2.0157    1.5957   -1.0400 O   0  0  0  0  0  0  0  0  0  0  0  0
   -5.9682    3.4755    0.1632 C   0  0  0  0  0  0  0  0  0  0  0  0
   -7.0822    2.6762    0.1841 C   0  0  0  0  0  0  0  0  0  0  0  0
   -6.9827    1.2816    0.0845 C   0  0  0  0  0  0  0  0  0  0  0  0
   -8.0341    0.4018    0.0913 O   0  0  0  0  0  0  0  0  0  0  0  0
   -9.4317    1.1503    0.2675 S   0  0  0  0  0  6  0  0  0  0  0  0
   -9.5795    1.7804    1.6229 O   0  0  0  0  0  0  0  0  0  0  0  0
   -9.7785    2.0182   -0.9083 O   0  0  0  0  0  0  0  0  0  0  0  0
  -10.5982   -0.2200    0.2289 C   0  0  0  0  0  0  0  0  0  0  0  0
  -10.1359   -1.4973    0.0219 C   0  0  0  0  0  0  0  0  0  0  0  0
  -11.0224   -2.5538   -0.0104 C   0  0  0  0  0  0  0  0  0  0  0  0
  -12.3810   -2.3396    0.1719 C   0  0  0  0  0  0  0  0  0  0  0  0
  -13.3430   -3.4729    0.1106 C   0  0  0  0  0  0  0  0  0  0  0  0
  -12.8295   -1.0419    0.3721 C   0  0  0  0  0  0  0  0  0  0  0  0
  -11.9410    0.0133    0.4035 C   0  0  0  0  0  0  0  0  0  0  0  0
   -3.7163   -1.0532    0.4335 H   0  0  0  0  0  0  0  0  0  0  0  0
   -4.4581   -2.2813   -0.6195 H   0  0  0  0  0  0  0  0  0  0  0  0
   -3.9392   -0.7279   -1.3156 H   0  0  0  0  0  0  0  0  0  0  0  0
   -3.5992    1.0977   -0.0994 H   0  0  0  0  0  0  0  0  0  0  0  0
   -3.8471    4.8574    0.1267 H   0  0  0  0  0  0  0  0  0  0  0  0
   -1.7635    4.2033    1.0531 H   0  0  0  0  0  0  0  0  0  0  0  0
    0.2045    2.8636    1.1219 H   0  0  0  0  0  0  0  0  0  0  0  0
    2.3393    1.6836    0.9364 H   0  0  0  0  0  0  0  0  0  0  0  0
    2.1293   -0.6707   -0.9762 H   0  0  0  0  0  0  0  0  0  0  0  0
    4.0408   -2.0439   -1.2501 H   0  0  0  0  0  0  0  0  0  0  0  0
    6.3958   -2.5698   -0.8102 H   0  0  0  0  0  0  0  0  0  0  0  0
    9.9196   -0.5310   -1.8234 H   0  0  0  0  0  0  0  0  0  0  0  0
   11.9312   -1.5588   -2.8261 H   0  0  0  0  0  0  0  0  0  0  0  0
   14.2553   -2.2348   -2.5333 H   0  0  0  0  0  0  0  0  0  0  0  0
   13.8981   -3.7205   -1.6518 H   0  0  0  0  0  0  0  0  0  0  0  0
   14.9211   -2.4817   -0.9229 H   0  0  0  0  0  0  0  0  0  0  0  0
   13.4542   -2.3384    1.0650 H   0  0  0  0  0  0  0  0  0  0  0  0
   11.4323   -1.3069    2.0498 H   0  0  0  0  0  0  0  0  0  0  0  0
    7.4041    2.3528    0.7876 H   0  0  0  0  0  0  0  0  0  0  0  0
    7.6436    2.7485    2.5072 H   0  0  0  0  0  0  0  0  0  0  0  0
    6.0033    2.8235    1.8044 H   0  0  0  0  0  0  0  0  0  0  0  0
    4.3220    1.2915    1.3929 H   0  0  0  0  0  0  0  0  0  0  0  0
   -6.0796    4.5433    0.2309 H   0  0  0  0  0  0  0  0  0  0  0  0
   -8.0616    3.1196    0.2683 H   0  0  0  0  0  0  0  0  0  0  0  0
   -9.0780   -1.6543   -0.1130 H   0  0  0  0  0  0  0  0  0  0  0  0
  -10.6630   -3.5542   -0.1792 H   0  0  0  0  0  0  0  0  0  0  0  0
  -14.1993   -3.2966    0.7619 H   0  0  0  0  0  0  0  0  0  0  0  0
  -13.7141   -3.6100   -0.9053 H   0  0  0  0  0  0  0  0  0  0  0  0
  -12.8737   -4.4048    0.4265 H   0  0  0  0  0  0  0  0  0  0  0  0
  -13.8828   -0.8627    0.5018 H   0  0  0  0  0  0  0  0  0  0  0  0
  -12.2850    1.0221    0.5619 H   0  0  0  0  0  0  0  0  0  0  0  0
  1  2  1  0  0  0  0
  2  3  1  0  0  0  0
  3  4  2  0  0  0  0
  4  5  1  0  0  0  0
  5  6  1  0  0  0  0
  6  7  2  0  0  0  0
  7  8  1  0  0  0  0
  8  9  2  0  0  0  0
  9 10  1  0  0  0  0
 10 11  1  0  0  0  0
 11 12  2  0  0  0  0
 12 13  1  0  0  0  0
 13 14  2  0  0  0  0
 14 15  1  0  0  0  0
 15 16  2  0  0  0  0
 16 17  1  0  0  0  0
 17 18  1  0  0  0  0
 18 19  2  0  0  0  0
 18 20  2  0  0  0  0
 18 21  1  0  0  0  0
 21 22  2  0  0  0  0
 22 23  1  0  0  0  0
 23 24  2  0  0  0  0
 24 25  1  0  0  0  0
 24 26  1  0  0  0  0
 26 27  2  0  0  0  0
 16 28  1  0  0  0  0
 28 29  1  0  0  0  0
 29 30  1  0  0  0  0
 28 31  2  0  0  0  0
 10 32  2  0  0  0  0
 32 33  1  0  0  0  0
 33 34  1  0  0  0  0
 33 35  1  0  0  0  0
 33 36  1  0  0  0  0
  5 37  2  0  0  0  0
 37 38  1  0  0  0  0
 38 39  2  0  0  0  0
 39 40  1  0  0  0  0
 40 41  1  0  0  0  0
 41 42  2  0  0  0  0
 41 43  2  0  0  0  0
 41 44  1  0  0  0  0
 44 45  2  0  0  0  0
 45 46  1  0  0  0  0
 46 47  2  0  0  0  0
 47 48  1  0  0  0  0
 47 49  1  0  0  0  0
 49 50  2  0  0  0  0
 39  3  1  0  0  0  0
 50 44  1  0  0  0  0
 36  8  1  0  0  0  0
 31 13  1  0  0  0  0
 27 21  1  0  0  0  0
  1 51  1  0  0  0  0
  1 52  1  0  0  0  0
  1 53  1  0  0  0  0
  4 54  1  0  0  0  0
  6 55  1  0  0  0  0
  7 56  1  0  0  0  0
  9 57  1  0  0  0  0
 11 58  1  0  0  0  0
 12 59  1  0  0  0  0
 14 60  1  0  0  0  0
 15 61  1  0  0  0  0
 22 62  1  0  0  0  0
 23 63  1  0  0  0  0
 25 64  1  0  0  0  0
 25 65  1  0  0  0  0
 25 66  1  0  0  0  0
 26 67  1  0  0  0  0
 27 68  1  0  0  0  0
 30 69  1  0  0  0  0
 30 70  1  0  0  0  0
 30 71  1  0  0  0  0
 31 72  1  0  0  0  0
 37 73  1  0  0  0  0
 38 74  1  0  0  0  0
 45 75  1  0  0  0  0
 46 76  1  0  0  0  0
 48 77  1  0  0  0  0
 48 78  1  0  0  0  0
 48 79  1  0  0  0  0
 49 80  1  0  0  0  0
 50 81  1  0  0  0  0
M  CHG  1  32   1
M  CHG  1  33  -1
M  END
