
  xtb     03212210143D
 energy: -13.531013397551 gnorm: 0.000254610204 xtb: 6.4.1 (afa7bdf)
 63 69  0     0  0            999 V2000
    6.9954    3.1327   -1.6260 C   0  0  0  0  0  0  0  0  0  0  0  0
    6.8501    2.7243   -0.1772 C   0  0  0  0  0  0  0  0  0  0  0  0
    6.3369    1.3530   -0.0498 N   0  0  0  0  0  0  0  0  0  0  0  0
    7.1174    0.1880   -0.0447 C   0  0  0  0  0  0  0  0  0  0  0  0
    8.5012   -0.0006   -0.0685 C   0  0  0  0  0  0  0  0  0  0  0  0
    8.9904   -1.2825   -0.0601 C   0  0  0  0  0  0  0  0  0  0  0  0
    8.1311   -2.3865   -0.0301 C   0  0  0  0  0  0  0  0  0  0  0  0
    6.7682   -2.2206   -0.0098 C   0  0  0  0  0  0  0  0  0  0  0  0
    6.2534   -0.9231   -0.0172 C   0  0  0  0  0  0  0  0  0  0  0  0
    4.9047   -0.4154   -0.0208 C   0  0  0  0  0  0  0  0  0  0  0  0
    3.6662   -1.0494   -0.0213 C   0  0  0  0  0  0  0  0  0  0  0  0
    2.5059   -0.2940   -0.0511 C   0  0  0  0  0  0  0  0  0  0  0  0
    1.2189   -1.0058   -0.0526 C   0  0  0  0  0  0  0  0  0  0  0  0
    0.0132   -0.3403   -0.1066 C   0  0  0  0  0  0  0  0  0  0  0  0
   -1.1564   -1.0693   -0.1066 C   0  0  0  0  0  0  0  0  0  0  0  0
   -2.4784   -0.4273   -0.1637 C   0  0  0  0  0  0  0  0  0  0  0  0
   -2.6523    0.9761   -0.2114 C   0  0  0  0  0  0  0  0  0  0  0  0
   -3.8955    1.5481   -0.2638 C   0  0  0  0  0  0  0  0  0  0  0  0
   -5.0219    0.7206   -0.2718 C   0  0  0  0  0  0  0  0  0  0  0  0
   -4.8667   -0.6766   -0.2214 C   0  0  0  0  0  0  0  0  0  0  0  0
   -3.5972   -1.2433   -0.1677 C   0  0  0  0  0  0  0  0  0  0  0  0
   -6.1866   -1.2548   -0.2203 C   0  0  0  0  0  0  0  0  0  0  0  0
   -6.6326   -2.5764   -0.1654 C   0  0  0  0  0  0  0  0  0  0  0  0
   -7.9851   -2.8133   -0.1612 C   0  0  0  0  0  0  0  0  0  0  0  0
   -8.9013   -1.7568   -0.2088 C   0  0  0  0  0  0  0  0  0  0  0  0
   -8.4799   -0.4521   -0.2630 C   0  0  0  0  0  0  0  0  0  0  0  0
   -7.1077   -0.1916   -0.2713 C   0  0  0  0  0  0  0  0  0  0  0  0
   -6.3894    1.0119   -0.3162 N   0  0  0  0  0  0  0  0  0  0  0  0
   -6.9787    2.3578   -0.2787 C   0  0  0  0  0  0  0  0  0  0  0  0
   -7.2085    2.8264    1.1407 C   0  0  0  0  0  0  0  0  0  0  0  0
   -1.1221   -2.3990   -0.0555 N   0  0  0  0  0  0  0  0  0  0  0  0
    0.0809   -2.9605   -0.0063 C   0  0  0  0  0  0  0  0  0  0  0  0
    0.1171   -4.3697    0.0467 C   0  0  0  0  0  0  0  0  0  0  0  0
    0.1471   -5.5320    0.0900 N   0  0  0  0  0  0  0  0  0  0  0  0
    1.2532   -2.3356   -0.0023 N   0  0  0  0  0  0  0  0  0  0  0  0
    2.6060    1.1170   -0.0814 C   0  0  0  0  0  0  0  0  0  0  0  0
    3.8179    1.7547   -0.0820 C   0  0  0  0  0  0  0  0  0  0  0  0
    4.9864    0.9885   -0.0495 C   0  0  0  0  0  0  0  0  0  0  0  0
    7.6825    2.4669   -2.1508 H   0  0  0  0  0  0  0  0  0  0  0  0
    7.3715    4.1527   -1.7325 H   0  0  0  0  0  0  0  0  0  0  0  0
    6.0369    3.0745   -2.1446 H   0  0  0  0  0  0  0  0  0  0  0  0
    7.8074    2.7826    0.3492 H   0  0  0  0  0  0  0  0  0  0  0  0
    6.1711    3.3950    0.3575 H   0  0  0  0  0  0  0  0  0  0  0  0
    9.1589    0.8490   -0.0939 H   0  0  0  0  0  0  0  0  0  0  0  0
   10.0563   -1.4440   -0.0773 H   0  0  0  0  0  0  0  0  0  0  0  0
    8.5461   -3.3804   -0.0247 H   0  0  0  0  0  0  0  0  0  0  0  0
    6.0994   -3.0630    0.0091 H   0  0  0  0  0  0  0  0  0  0  0  0
    3.6048   -2.1211   -0.0018 H   0  0  0  0  0  0  0  0  0  0  0  0
   -0.0143    0.7290   -0.1513 H   0  0  0  0  0  0  0  0  0  0  0  0
   -1.7883    1.6146   -0.2053 H   0  0  0  0  0  0  0  0  0  0  0  0
   -4.0171    2.6158   -0.2973 H   0  0  0  0  0  0  0  0  0  0  0  0
   -3.4801   -2.3098   -0.1274 H   0  0  0  0  0  0  0  0  0  0  0  0
   -5.9203   -3.3816   -0.1252 H   0  0  0  0  0  0  0  0  0  0  0  0
   -8.3473   -3.8268   -0.1191 H   0  0  0  0  0  0  0  0  0  0  0  0
   -9.9575   -1.9736   -0.2025 H   0  0  0  0  0  0  0  0  0  0  0  0
   -9.1814    0.3616   -0.2978 H   0  0  0  0  0  0  0  0  0  0  0  0
   -6.3134    3.0384   -0.8181 H   0  0  0  0  0  0  0  0  0  0  0  0
   -7.9139    2.3382   -0.8462 H   0  0  0  0  0  0  0  0  0  0  0  0
   -6.2709    2.8500    1.6990 H   0  0  0  0  0  0  0  0  0  0  0  0
   -7.8782    2.1472    1.6712 H   0  0  0  0  0  0  0  0  0  0  0  0
   -7.6464    3.8263    1.1800 H   0  0  0  0  0  0  0  0  0  0  0  0
    1.7095    1.7084   -0.1037 H   0  0  0  0  0  0  0  0  0  0  0  0
    3.8837    2.8275   -0.1078 H   0  0  0  0  0  0  0  0  0  0  0  0
  1  2  1  0  0  0  0
  2  3  1  0  0  0  0
  3  4  1  0  0  0  0
  4  5  2  0  0  0  0
  5  6  1  0  0  0  0
  6  7  2  0  0  0  0
  7  8  1  0  0  0  0
  8  9  2  0  0  0  0
  9 10  1  0  0  0  0
 10 11  2  0  0  0  0
 11 12  1  0  0  0  0
 12 13  1  0  0  0  0
 13 14  2  0  0  0  0
 14 15  1  0  0  0  0
 15 16  1  0  0  0  0
 16 17  2  0  0  0  0
 17 18  1  0  0  0  0
 18 19  2  0  0  0  0
 19 20  1  0  0  0  0
 20 21  2  0  0  0  0
 20 22  1  0  0  0  0
 22 23  2  0  0  0  0
 23 24  1  0  0  0  0
 24 25  2  0  0  0  0
 25 26  1  0  0  0  0
 26 27  2  0  0  0  0
 27 28  1  0  0  0  0
 28 29  1  0  0  0  0
 29 30  1  0  0  0  0
 15 31  2  0  0  0  0
 31 32  1  0  0  0  0
 32 33  1  0  0  0  0
 33 34  3  0  0  0  0
 32 35  2  0  0  0  0
 12 36  2  0  0  0  0
 36 37  1  0  0  0  0
 37 38  2  0  0  0  0
 38  3  1  0  0  0  0
  9  4  1  0  0  0  0
 38 10  1  0  0  0  0
 35 13  1  0  0  0  0
 21 16  1  0  0  0  0
 27 22  1  0  0  0  0
 28 19  1  0  0  0  0
  1 39  1  0  0  0  0
  1 40  1  0  0  0  0
  1 41  1  0  0  0  0
  2 42  1  0  0  0  0
  2 43  1  0  0  0  0
  5 44  1  0  0  0  0
  6 45  1  0  0  0  0
  7 46  1  0  0  0  0
  8 47  1  0  0  0  0
 11 48  1  0  0  0  0
 14 49  1  0  0  0  0
 17 50  1  0  0  0  0
 18 51  1  0  0  0  0
 21 52  1  0  0  0  0
 23 53  1  0  0  0  0
 24 54  1  0  0  0  0
 25 55  1  0  0  0  0
 26 56  1  0  0  0  0
 29 57  1  0  0  0  0
 29 58  1  0  0  0  0
 30 59  1  0  0  0  0
 30 60  1  0  0  0  0
 30 61  1  0  0  0  0
 36 62  1  0  0  0  0
 37 63  1  0  0  0  0
M  END
