
  xtb     03212210133D
 energy: -9.838950423099 gnorm: 0.000251994956 xtb: 6.4.1 (afa7bdf)
 48 51  0     0  0            999 V2000
    8.2300   -0.9584   -1.0213 O   0  0  0  0  0  0  0  0  0  0  0  0
    7.5823   -0.1381   -0.1045 B   0  0  0  0  0  0  0  0  0  0  0  0
    8.3041    0.6229    0.8121 O   0  0  0  0  0  0  0  0  0  0  0  0
    6.0176   -0.0891   -0.0991 C   0  0  0  0  0  0  0  0  0  0  0  0
    5.3440    1.1125   -0.0178 C   0  0  0  0  0  0  0  0  0  0  0  0
    3.9690    1.1297   -0.0158 C   0  0  0  0  0  0  0  0  0  0  0  0
    3.2373   -0.0579   -0.0960 C   0  0  0  0  0  0  0  0  0  0  0  0
    1.7609   -0.0404   -0.0909 C   0  0  0  0  0  0  0  0  0  0  0  0
    1.0514    0.9918   -0.7095 C   0  0  0  0  0  0  0  0  0  0  0  0
   -0.3219    1.0114   -0.7002 C   0  0  0  0  0  0  0  0  0  0  0  0
   -1.0476    0.0007   -0.0708 C   0  0  0  0  0  0  0  0  0  0  0  0
   -2.4776    0.0246   -0.0562 N   0  0  0  0  0  0  0  0  0  0  0  0
   -3.1812    1.2760   -0.0449 C   0  0  0  0  0  0  0  0  0  0  0  0
   -4.3607    1.4340   -0.7685 C   0  0  0  0  0  0  0  0  0  0  0  0
   -5.0390    2.6317   -0.7539 C   0  0  0  0  0  0  0  0  0  0  0  0
   -4.5533    3.6936   -0.0160 C   0  0  0  0  0  0  0  0  0  0  0  0
   -3.3863    3.5521    0.7094 C   0  0  0  0  0  0  0  0  0  0  0  0
   -2.7067    2.3552    0.6966 C   0  0  0  0  0  0  0  0  0  0  0  0
   -3.2228   -1.2027   -0.0525 C   0  0  0  0  0  0  0  0  0  0  0  0
   -2.8033   -2.2950   -0.8078 C   0  0  0  0  0  0  0  0  0  0  0  0
   -3.5228   -3.4684   -0.8057 C   0  0  0  0  0  0  0  0  0  0  0  0
   -4.6750   -3.5729   -0.0512 C   0  0  0  0  0  0  0  0  0  0  0  0
   -5.1059   -2.4977    0.7013 C   0  0  0  0  0  0  0  0  0  0  0  0
   -4.3879   -1.3233    0.7009 C   0  0  0  0  0  0  0  0  0  0  0  0
   -0.3428   -1.0323    0.5460 C   0  0  0  0  0  0  0  0  0  0  0  0
    1.0305   -1.0530    0.5357 C   0  0  0  0  0  0  0  0  0  0  0  0
    3.9414   -1.2616   -0.1818 C   0  0  0  0  0  0  0  0  0  0  0  0
    5.3164   -1.2740   -0.1847 C   0  0  0  0  0  0  0  0  0  0  0  0
    9.1907   -0.8663   -0.8883 H   0  0  0  0  0  0  0  0  0  0  0  0
    7.7827    1.1398    1.4579 H   0  0  0  0  0  0  0  0  0  0  0  0
    5.9054    2.0290    0.0383 H   0  0  0  0  0  0  0  0  0  0  0  0
    3.4443    2.0659    0.0651 H   0  0  0  0  0  0  0  0  0  0  0  0
    1.5947    1.7698   -1.2156 H   0  0  0  0  0  0  0  0  0  0  0  0
   -0.8567    1.8031   -1.1946 H   0  0  0  0  0  0  0  0  0  0  0  0
   -4.7295    0.6050   -1.3469 H   0  0  0  0  0  0  0  0  0  0  0  0
   -5.9496    2.7413   -1.3196 H   0  0  0  0  0  0  0  0  0  0  0  0
   -5.0848    4.6307   -0.0052 H   0  0  0  0  0  0  0  0  0  0  0  0
   -3.0088    4.3792    1.2881 H   0  0  0  0  0  0  0  0  0  0  0  0
   -1.8048    2.2342    1.2711 H   0  0  0  0  0  0  0  0  0  0  0  0
   -1.9119   -2.2028   -1.4035 H   0  0  0  0  0  0  0  0  0  0  0  0
   -3.1878   -4.3061   -1.3950 H   0  0  0  0  0  0  0  0  0  0  0  0
   -5.2376   -4.4918   -0.0502 H   0  0  0  0  0  0  0  0  0  0  0  0
   -6.0047   -2.5787    1.2901 H   0  0  0  0  0  0  0  0  0  0  0  0
   -4.7135   -0.4843    1.2906 H   0  0  0  0  0  0  0  0  0  0  0  0
   -0.8936   -1.8082    1.0480 H   0  0  0  0  0  0  0  0  0  0  0  0
    1.5580   -1.8472    1.0332 H   0  0  0  0  0  0  0  0  0  0  0  0
    3.3959   -2.1855   -0.2663 H   0  0  0  0  0  0  0  0  0  0  0  0
    5.8615   -2.1988   -0.2632 H   0  0  0  0  0  0  0  0  0  0  0  0
  1  2  1  0  0  0  0
  2  3  1  0  0  0  0
  2  4  1  0  0  0  0
  4  5  2  0  0  0  0
  5  6  1  0  0  0  0
  6  7  2  0  0  0  0
  7  8  1  0  0  0  0
  8  9  2  0  0  0  0
  9 10  1  0  0  0  0
 10 11  2  0  0  0  0
 11 12  1  0  0  0  0
 12 13  1  0  0  0  0
 13 14  2  0  0  0  0
 14 15  1  0  0  0  0
 15 16  2  0  0  0  0
 16 17  1  0  0  0  0
 17 18  2  0  0  0  0
 12 19  1  0  0  0  0
 19 20  2  0  0  0  0
 20 21  1  0  0  0  0
 21 22  2  0  0  0  0
 22 23  1  0  0  0  0
 23 24  2  0  0  0  0
 11 25  1  0  0  0  0
 25 26  2  0  0  0  0
  7 27  1  0  0  0  0
 27 28  2  0  0  0  0
 28  4  1  0  0  0  0
 26  8  1  0  0  0  0
 18 13  1  0  0  0  0
 24 19  1  0  0  0  0
  1 29  1  0  0  0  0
  3 30  1  0  0  0  0
  5 31  1  0  0  0  0
  6 32  1  0  0  0  0
  9 33  1  0  0  0  0
 10 34  1  0  0  0  0
 14 35  1  0  0  0  0
 15 36  1  0  0  0  0
 16 37  1  0  0  0  0
 17 38  1  0  0  0  0
 18 39  1  0  0  0  0
 20 40  1  0  0  0  0
 21 41  1  0  0  0  0
 22 42  1  0  0  0  0
 23 43  1  0  0  0  0
 24 44  1  0  0  0  0
 25 45  1  0  0  0  0
 26 46  1  0  0  0  0
 27 47  1  0  0  0  0
 28 48  1  0  0  0  0
M  END
