
  xtb     03212210133D
 energy: -9.101794036862 gnorm: 0.000094622319 xtb: 6.4.1 (afa7bdf)
 46 48  0     0  0            999 V2000
   -4.5265    2.5262   -0.1972 C   0  0  0  0  0  0  0  0  0  0  0  0
   -4.3743    1.4871    0.8929 C   0  0  0  0  0  0  0  0  0  0  0  0
   -4.2793    0.1190    0.3482 N   0  0  0  0  0  0  0  0  0  0  0  0
   -5.5278   -0.6647    0.3920 C   0  0  0  0  0  0  0  0  0  0  0  0
   -5.5949   -1.5583    1.6117 C   0  0  0  0  0  0  0  0  0  0  0  0
   -3.0698   -0.4141   -0.1358 C   0  0  0  0  0  0  0  0  0  0  0  0
   -1.9050    0.3602   -0.1759 C   0  0  0  0  0  0  0  0  0  0  0  0
   -0.7262   -0.1606   -0.6387 C   0  0  0  0  0  0  0  0  0  0  0  0
   -0.6447   -1.4756   -1.0743 C   0  0  0  0  0  0  0  0  0  0  0  0
    0.5506   -2.0085   -1.5146 N   0  0  0  0  0  0  0  0  0  0  0  0
    1.6447   -1.5274   -1.3013 N   0  0  0  0  0  0  0  0  0  0  0  0
    2.9127   -1.0678   -1.1159 C   0  0  0  0  0  0  0  0  0  0  0  0
    3.9677   -1.7757   -1.6806 C   0  0  0  0  0  0  0  0  0  0  0  0
    5.2597   -1.3598   -1.5047 C   0  0  0  0  0  0  0  0  0  0  0  0
    5.5446   -0.2281   -0.7524 C   0  0  0  0  0  0  0  0  0  0  0  0
    6.9362    0.1861   -0.5982 C   0  0  0  0  0  0  0  0  0  0  0  0
    7.8428   -0.4715   -1.0943 O   0  0  0  0  0  0  0  0  0  0  0  0
    7.1934    1.3311    0.1092 N   0  0  0  0  0  0  0  0  0  0  0  0
    6.1483    1.9990    0.8346 N   0  0  0  0  0  0  0  0  0  0  0  0
    4.8265    1.6715    0.6562 C   0  0  0  0  0  0  0  0  0  0  0  0
    3.9621    2.3529    1.1901 O   0  0  0  0  0  0  0  0  0  0  0  0
    4.5034    0.5010   -0.1632 C   0  0  0  0  0  0  0  0  0  0  0  0
    3.1844    0.0752   -0.3610 C   0  0  0  0  0  0  0  0  0  0  0  0
    2.0481    0.8216    0.1794 N   0  0  0  0  0  4  0  0  0  0  0  0
    1.5875    1.7592   -0.4861 O   0  0  0  0  0  0  0  0  0  0  0  0
    1.5401    0.4455    1.2433 O   0  0  0  0  0  1  0  0  0  0  0  0
   -1.7981   -2.2540   -1.0480 C   0  0  0  0  0  0  0  0  0  0  0  0
   -2.9830   -1.7363   -0.5901 C   0  0  0  0  0  0  0  0  0  0  0  0
   -5.4303    2.3482   -0.7811 H   0  0  0  0  0  0  0  0  0  0  0  0
   -4.5844    3.5392    0.2057 H   0  0  0  0  0  0  0  0  0  0  0  0
   -3.6882    2.4941   -0.8938 H   0  0  0  0  0  0  0  0  0  0  0  0
   -5.2214    1.5260    1.5852 H   0  0  0  0  0  0  0  0  0  0  0  0
   -3.4922    1.6779    1.5114 H   0  0  0  0  0  0  0  0  0  0  0  0
   -6.3728    0.0309    0.3740 H   0  0  0  0  0  0  0  0  0  0  0  0
   -5.6124   -1.2402   -0.5344 H   0  0  0  0  0  0  0  0  0  0  0  0
   -4.7546   -2.2528    1.6383 H   0  0  0  0  0  0  0  0  0  0  0  0
   -5.5472   -0.9696    2.5287 H   0  0  0  0  0  0  0  0  0  0  0  0
   -6.5141   -2.1463    1.6413 H   0  0  0  0  0  0  0  0  0  0  0  0
   -1.9247    1.3796    0.1656 H   0  0  0  0  0  0  0  0  0  0  0  0
    0.1605    0.4447   -0.6627 H   0  0  0  0  0  0  0  0  0  0  0  0
    3.7458   -2.6568   -2.2585 H   0  0  0  0  0  0  0  0  0  0  0  0
    6.0812   -1.9009   -1.9434 H   0  0  0  0  0  0  0  0  0  0  0  0
    8.1613    1.5779    0.2879 H   0  0  0  0  0  0  0  0  0  0  0  0
    6.3627    2.8521    1.3402 H   0  0  0  0  0  0  0  0  0  0  0  0
   -1.7365   -3.2740   -1.3861 H   0  0  0  0  0  0  0  0  0  0  0  0
   -3.8562   -2.3630   -0.5721 H   0  0  0  0  0  0  0  0  0  0  0  0
  1  2  1  0  0  0  0
  2  3  1  0  0  0  0
  3  4  1  0  0  0  0
  4  5  1  0  0  0  0
  3  6  1  0  0  0  0
  6  7  2  0  0  0  0
  7  8  1  0  0  0  0
  8  9  2  0  0  0  0
  9 10  1  0  0  0  0
 10 11  2  0  0  0  0
 11 12  1  0  0  0  0
 12 13  2  0  0  0  0
 13 14  1  0  0  0  0
 14 15  2  0  0  0  0
 15 16  1  0  0  0  0
 16 17  2  0  0  0  0
 16 18  1  0  0  0  0
 18 19  1  0  0  0  0
 19 20  1  0  0  0  0
 20 21  2  0  0  0  0
 20 22  1  0  0  0  0
 22 23  2  0  0  0  0
 23 24  1  0  0  0  0
 24 25  2  0  0  0  0
 24 26  1  0  0  0  0
  9 27  1  0  0  0  0
 27 28  2  0  0  0  0
 28  6  1  0  0  0  0
 23 12  1  0  0  0  0
 22 15  1  0  0  0  0
  1 29  1  0  0  0  0
  1 30  1  0  0  0  0
  1 31  1  0  0  0  0
  2 32  1  0  0  0  0
  2 33  1  0  0  0  0
  4 34  1  0  0  0  0
  4 35  1  0  0  0  0
  5 36  1  0  0  0  0
  5 37  1  0  0  0  0
  5 38  1  0  0  0  0
  7 39  1  0  0  0  0
  8 40  1  0  0  0  0
 13 41  1  0  0  0  0
 14 42  1  0  0  0  0
 18 43  1  0  0  0  0
 19 44  1  0  0  0  0
 27 45  1  0  0  0  0
 28 46  1  0  0  0  0
M  CHG  1  24   1
M  CHG  1  26  -1
M  END
