
  xtb     03212210123D
 energy: -21.250013428750 gnorm: 0.000457914770 xtb: 6.4.1 (afa7bdf)
101108  0     0  0            999 V2000
    5.1859   -9.7674   -0.6068 C   0  0  0  0  0  0  0  0  0  0  0  0
    5.2332   -8.8904    0.5625 N   0  0  0  0  0  0  0  0  0  0  0  0
    5.8312   -9.4396    1.7786 C   0  0  0  0  0  0  0  0  0  0  0  0
    4.7348   -7.5771    0.5166 C   0  0  0  0  0  0  0  0  0  0  0  0
    4.8097   -6.7359    1.6319 C   0  0  0  0  0  0  0  0  0  0  0  0
    4.3233   -5.4523    1.5849 C   0  0  0  0  0  0  0  0  0  0  0  0
    3.7398   -4.9496    0.4238 C   0  0  0  0  0  0  0  0  0  0  0  0
    3.2431   -3.6374    0.3750 C   0  0  0  0  0  0  0  0  0  0  0  0
    2.8042   -2.4962    0.3227 C   0  0  0  0  0  0  0  0  0  0  0  0
    2.2838   -1.1971    0.2513 C   0  0  0  0  0  0  0  0  0  0  0  0
    3.1424   -0.1104    0.3378 C   0  0  0  0  0  0  0  0  0  0  0  0
    2.6969    1.2019    0.2698 C   0  0  0  0  0  0  0  0  0  0  0  0
    3.6167    2.2544    0.3695 C   0  0  0  0  0  0  0  0  0  0  0  0
    4.3912    3.1970    0.4656 C   0  0  0  0  0  0  0  0  0  0  0  0
    5.2564    4.2962    0.5828 C   0  0  0  0  0  0  0  0  0  0  0  0
    4.8054    5.5032    1.1134 C   0  0  0  0  0  0  0  0  0  0  0  0
    5.6481    6.5810    1.2325 C   0  0  0  0  0  0  0  0  0  0  0  0
    6.9840    6.5006    0.8251 C   0  0  0  0  0  0  0  0  0  0  0  0
    7.8487    7.6015    0.9504 N   0  0  0  0  0  0  0  0  0  0  0  0
    9.2404    7.5354    0.5066 C   0  0  0  0  0  0  0  0  0  0  0  0
    7.3994    8.8640    1.5358 C   0  0  0  0  0  0  0  0  0  0  0  0
    7.4307    5.2872    0.2910 C   0  0  0  0  0  0  0  0  0  0  0  0
    6.5856    4.2109    0.1737 C   0  0  0  0  0  0  0  0  0  0  0  0
    1.3135    1.4535    0.1036 C   0  0  0  0  0  0  0  0  0  0  0  0
    0.7966    2.7741    0.0232 C   0  0  0  0  0  0  0  0  0  0  0  0
   -0.5299    3.0044   -0.1361 C   0  0  0  0  0  0  0  0  0  0  0  0
   -1.4619    1.9349   -0.2280 C   0  0  0  0  0  0  0  0  0  0  0  0
   -2.8491    2.1624   -0.3929 C   0  0  0  0  0  0  0  0  0  0  0  0
   -3.3622    3.4660   -0.4764 C   0  0  0  0  0  0  0  0  0  0  0  0
   -3.7738    4.6143   -0.5498 C   0  0  0  0  0  0  0  0  0  0  0  0
   -4.2204    5.9468   -0.6330 C   0  0  0  0  0  0  0  0  0  0  0  0
   -5.3488    6.2763   -1.3754 C   0  0  0  0  0  0  0  0  0  0  0  0
   -5.7774    7.5826   -1.4577 C   0  0  0  0  0  0  0  0  0  0  0  0
   -5.0875    8.5836   -0.8063 C   0  0  0  0  0  0  0  0  0  0  0  0
   -5.5731   10.0226   -0.8805 C   0  0  0  0  0  0  0  0  0  0  0  0
   -6.3986   10.2464    0.1645 F   0  0  0  0  0  0  0  0  0  0  0  0
   -6.2334   10.2029   -2.0449 F   0  0  0  0  0  0  0  0  0  0  0  0
   -4.5050   10.8471   -0.8171 F   0  0  0  0  0  0  0  0  0  0  0  0
   -3.9709    8.2686   -0.0608 C   0  0  0  0  0  0  0  0  0  0  0  0
   -3.5379    6.9641    0.0246 C   0  0  0  0  0  0  0  0  0  0  0  0
   -3.7099    1.0782   -0.4725 C   0  0  0  0  0  0  0  0  0  0  0  0
   -3.2651   -0.2351   -0.3983 C   0  0  0  0  0  0  0  0  0  0  0  0
   -4.1893   -1.2861   -0.4797 C   0  0  0  0  0  0  0  0  0  0  0  0
   -4.9864   -2.2128   -0.5401 C   0  0  0  0  0  0  0  0  0  0  0  0
   -5.8967   -3.2802   -0.5968 C   0  0  0  0  0  0  0  0  0  0  0  0
   -5.7963   -4.3511    0.2889 C   0  0  0  0  0  0  0  0  0  0  0  0
   -6.6877   -5.3947    0.2387 C   0  0  0  0  0  0  0  0  0  0  0  0
   -7.7227   -5.4150   -0.7023 C   0  0  0  0  0  0  0  0  0  0  0  0
   -8.6378   -6.4806   -0.7526 N   0  0  0  0  0  0  0  0  0  0  0  0
   -8.5751   -7.5882    0.2002 C   0  0  0  0  0  0  0  0  0  0  0  0
   -9.7062   -6.5251   -1.7501 C   0  0  0  0  0  0  0  0  0  0  0  0
   -7.8175   -4.3380   -1.5900 C   0  0  0  0  0  0  0  0  0  0  0  0
   -6.9248   -3.2956   -1.5371 C   0  0  0  0  0  0  0  0  0  0  0  0
   -1.8808   -0.4881   -0.2370 C   0  0  0  0  0  0  0  0  0  0  0  0
   -1.3621   -1.8081   -0.1573 C   0  0  0  0  0  0  0  0  0  0  0  0
   -0.0351   -2.0378   -0.0021 C   0  0  0  0  0  0  0  0  0  0  0  0
    0.8957   -0.9688    0.0893 C   0  0  0  0  0  0  0  0  0  0  0  0
    0.4140    0.3619    0.0146 C   0  0  0  0  0  0  0  0  0  0  0  0
   -0.9806    0.6037   -0.1509 C   0  0  0  0  0  0  0  0  0  0  0  0
    3.6619   -5.7833   -0.6898 C   0  0  0  0  0  0  0  0  0  0  0  0
    4.1477   -7.0670   -0.6462 C   0  0  0  0  0  0  0  0  0  0  0  0
    5.7294   -9.3151   -1.4342 H   0  0  0  0  0  0  0  0  0  0  0  0
    5.6376  -10.7338   -0.3931 H   0  0  0  0  0  0  0  0  0  0  0  0
    4.1531   -9.9339   -0.9066 H   0  0  0  0  0  0  0  0  0  0  0  0
    6.7159   -8.8668    2.0503 H   0  0  0  0  0  0  0  0  0  0  0  0
    6.1274  -10.4770    1.6383 H   0  0  0  0  0  0  0  0  0  0  0  0
    5.1151   -9.4002    2.5972 H   0  0  0  0  0  0  0  0  0  0  0  0
    5.2574   -7.1005    2.5389 H   0  0  0  0  0  0  0  0  0  0  0  0
    4.3882   -4.8150    2.4504 H   0  0  0  0  0  0  0  0  0  0  0  0
    4.1956   -0.2926    0.4628 H   0  0  0  0  0  0  0  0  0  0  0  0
    3.7794    5.5786    1.4314 H   0  0  0  0  0  0  0  0  0  0  0  0
    5.2762    7.5021    1.6439 H   0  0  0  0  0  0  0  0  0  0  0  0
    9.2825    7.2895   -0.5528 H   0  0  0  0  0  0  0  0  0  0  0  0
    9.7761    6.7747    1.0715 H   0  0  0  0  0  0  0  0  0  0  0  0
    9.7464    8.4873    0.6532 H   0  0  0  0  0  0  0  0  0  0  0  0
    7.0327    8.6968    2.5468 H   0  0  0  0  0  0  0  0  0  0  0  0
    6.6007    9.2912    0.9323 H   0  0  0  0  0  0  0  0  0  0  0  0
    8.2115    9.5862    1.5860 H   0  0  0  0  0  0  0  0  0  0  0  0
    8.4528    5.1963   -0.0303 H   0  0  0  0  0  0  0  0  0  0  0  0
    6.9425    3.2822   -0.2382 H   0  0  0  0  0  0  0  0  0  0  0  0
    1.4826    3.5997    0.0905 H   0  0  0  0  0  0  0  0  0  0  0  0
   -0.8978    4.0137   -0.1955 H   0  0  0  0  0  0  0  0  0  0  0  0
   -5.8849    5.4954   -1.8868 H   0  0  0  0  0  0  0  0  0  0  0  0
   -6.6505    7.8443   -2.0312 H   0  0  0  0  0  0  0  0  0  0  0  0
   -3.4468    9.0609    0.4464 H   0  0  0  0  0  0  0  0  0  0  0  0
   -2.6638    6.7187    0.6031 H   0  0  0  0  0  0  0  0  0  0  0  0
   -4.7622    1.2618   -0.5955 H   0  0  0  0  0  0  0  0  0  0  0  0
   -5.0050   -4.3475    1.0190 H   0  0  0  0  0  0  0  0  0  0  0  0
   -6.5888   -6.2106    0.9321 H   0  0  0  0  0  0  0  0  0  0  0  0
   -9.3891   -8.2920    0.0403 H   0  0  0  0  0  0  0  0  0  0  0  0
   -8.6510   -7.2093    1.2177 H   0  0  0  0  0  0  0  0  0  0  0  0
   -7.6344   -8.1238    0.0878 H   0  0  0  0  0  0  0  0  0  0  0  0
  -10.3813   -5.6830   -1.6105 H   0  0  0  0  0  0  0  0  0  0  0  0
  -10.2845   -7.4429   -1.6672 H   0  0  0  0  0  0  0  0  0  0  0  0
   -9.2833   -6.4818   -2.7520 H   0  0  0  0  0  0  0  0  0  0  0  0
   -8.6046   -4.3253   -2.3224 H   0  0  0  0  0  0  0  0  0  0  0  0
   -7.0102   -2.4720   -2.2253 H   0  0  0  0  0  0  0  0  0  0  0  0
   -2.0477   -2.6342   -0.2235 H   0  0  0  0  0  0  0  0  0  0  0  0
    0.3341   -3.0465    0.0548 H   0  0  0  0  0  0  0  0  0  0  0  0
    3.2125   -5.4031   -1.5914 H   0  0  0  0  0  0  0  0  0  0  0  0
    4.0756   -7.6912   -1.5187 H   0  0  0  0  0  0  0  0  0  0  0  0
  1  2  1  0  0  0  0
  2  3  1  0  0  0  0
  2  4  1  0  0  0  0
  4  5  2  0  0  0  0
  5  6  1  0  0  0  0
  6  7  2  0  0  0  0
  7  8  1  0  0  0  0
  8  9  3  0  0  0  0
  9 10  1  0  0  0  0
 10 11  2  0  0  0  0
 11 12  1  0  0  0  0
 12 13  1  0  0  0  0
 13 14  3  0  0  0  0
 14 15  1  0  0  0  0
 15 16  2  0  0  0  0
 16 17  1  0  0  0  0
 17 18  2  0  0  0  0
 18 19  1  0  0  0  0
 19 20  1  0  0  0  0
 19 21  1  0  0  0  0
 18 22  1  0  0  0  0
 22 23  2  0  0  0  0
 12 24  2  0  0  0  0
 24 25  1  0  0  0  0
 25 26  2  0  0  0  0
 26 27  1  0  0  0  0
 27 28  2  0  0  0  0
 28 29  1  0  0  0  0
 29 30  3  0  0  0  0
 30 31  1  0  0  0  0
 31 32  2  0  0  0  0
 32 33  1  0  0  0  0
 33 34  2  0  0  0  0
 34 35  1  0  0  0  0
 35 36  1  0  0  0  0
 35 37  1  0  0  0  0
 35 38  1  0  0  0  0
 34 39  1  0  0  0  0
 39 40  2  0  0  0  0
 28 41  1  0  0  0  0
 41 42  2  0  0  0  0
 42 43  1  0  0  0  0
 43 44  3  0  0  0  0
 44 45  1  0  0  0  0
 45 46  2  0  0  0  0
 46 47  1  0  0  0  0
 47 48  2  0  0  0  0
 48 49  1  0  0  0  0
 49 50  1  0  0  0  0
 49 51  1  0  0  0  0
 48 52  1  0  0  0  0
 52 53  2  0  0  0  0
 42 54  1  0  0  0  0
 54 55  2  0  0  0  0
 55 56  1  0  0  0  0
 56 57  2  0  0  0  0
 57 58  1  0  0  0  0
 58 59  2  0  0  0  0
  7 60  1  0  0  0  0
 60 61  2  0  0  0  0
 61  4  1  0  0  0  0
 57 10  1  0  0  0  0
 23 15  1  0  0  0  0
 58 24  1  0  0  0  0
 59 27  1  0  0  0  0
 40 31  1  0  0  0  0
 53 45  1  0  0  0  0
 59 54  1  0  0  0  0
  1 62  1  0  0  0  0
  1 63  1  0  0  0  0
  1 64  1  0  0  0  0
  3 65  1  0  0  0  0
  3 66  1  0  0  0  0
  3 67  1  0  0  0  0
  5 68  1  0  0  0  0
  6 69  1  0  0  0  0
 11 70  1  0  0  0  0
 16 71  1  0  0  0  0
 17 72  1  0  0  0  0
 20 73  1  0  0  0  0
 20 74  1  0  0  0  0
 20 75  1  0  0  0  0
 21 76  1  0  0  0  0
 21 77  1  0  0  0  0
 21 78  1  0  0  0  0
 22 79  1  0  0  0  0
 23 80  1  0  0  0  0
 25 81  1  0  0  0  0
 26 82  1  0  0  0  0
 32 83  1  0  0  0  0
 33 84  1  0  0  0  0
 39 85  1  0  0  0  0
 40 86  1  0  0  0  0
 41 87  1  0  0  0  0
 46 88  1  0  0  0  0
 47 89  1  0  0  0  0
 50 90  1  0  0  0  0
 50 91  1  0  0  0  0
 50 92  1  0  0  0  0
 51 93  1  0  0  0  0
 51 94  1  0  0  0  0
 51 95  1  0  0  0  0
 52 96  1  0  0  0  0
 53 97  1  0  0  0  0
 55 98  1  0  0  0  0
 56 99  1  0  0  0  0
 60100  1  0  0  0  0
 61101  1  0  0  0  0
M  END
