
  xtb     03212210133D
 energy: -4.254120157752 gnorm: 0.000267808509 xtb: 6.4.1 (afa7bdf)
 23 23  0     0  0            999 V2000
   -3.8576    0.7651    0.2437 C   0  0  0  0  0  0  0  0  0  0  0  0
   -3.2497   -0.6121    0.4017 C   0  0  0  0  0  0  0  0  0  0  0  0
   -1.8609   -0.5682    0.6342 O   0  0  0  0  0  0  0  0  0  0  0  0
   -1.1951   -0.2059   -0.5070 C   0  0  0  0  0  0  0  0  0  0  0  0
   -1.7472    0.0543   -1.5612 O   0  0  0  0  0  0  0  0  0  0  0  0
    0.2760   -0.1358   -0.4124 C   0  0  0  0  0  0  0  0  0  0  0  0
    1.0307    0.2239   -1.5228 C   0  0  0  0  0  0  0  0  0  0  0  0
    2.3983    0.2900   -1.4465 C   0  0  0  0  0  0  0  0  0  0  0  0
    3.0604   -0.0038   -0.2491 C   0  0  0  0  0  0  0  0  0  0  0  0
    4.4359    0.0591   -0.1690 N   0  0  0  0  0  0  0  0  0  0  0  0
    2.2937   -0.3654    0.8645 C   0  0  0  0  0  0  0  0  0  0  0  0
    0.9263   -0.4295    0.7809 C   0  0  0  0  0  0  0  0  0  0  0  0
   -3.4031    1.2813   -0.6036 H   0  0  0  0  0  0  0  0  0  0  0  0
   -4.9355    0.7247    0.0759 H   0  0  0  0  0  0  0  0  0  0  0  0
   -3.6730    1.3727    1.1302 H   0  0  0  0  0  0  0  0  0  0  0  0
   -3.6979   -1.1533    1.2451 H   0  0  0  0  0  0  0  0  0  0  0  0
   -3.4062   -1.2264   -0.4956 H   0  0  0  0  0  0  0  0  0  0  0  0
    0.5158    0.4472   -2.4417 H   0  0  0  0  0  0  0  0  0  0  0  0
    2.9796    0.5677   -2.3078 H   0  0  0  0  0  0  0  0  0  0  0  0
    5.0267    0.3386   -0.9396 H   0  0  0  0  0  0  0  0  0  0  0  0
    4.9536   -0.1204    0.6799 H   0  0  0  0  0  0  0  0  0  0  0  0
    2.7945   -0.5943    1.7884 H   0  0  0  0  0  0  0  0  0  0  0  0
    0.3343   -0.7093    1.6352 H   0  0  0  0  0  0  0  0  0  0  0  0
  1  2  1  0  0  0  0
  2  3  1  0  0  0  0
  3  4  1  0  0  0  0
  4  5  2  0  0  0  0
  4  6  1  0  0  0  0
  6  7  2  0  0  0  0
  7  8  1  0  0  0  0
  8  9  2  0  0  0  0
  9 10  1  0  0  0  0
  9 11  1  0  0  0  0
 11 12  2  0  0  0  0
 12  6  1  0  0  0  0
  1 13  1  0  0  0  0
  1 14  1  0  0  0  0
  1 15  1  0  0  0  0
  2 16  1  0  0  0  0
  2 17  1  0  0  0  0
  7 18  1  0  0  0  0
  8 19  1  0  0  0  0
 10 20  1  0  0  0  0
 10 21  1  0  0  0  0
 11 22  1  0  0  0  0
 12 23  1  0  0  0  0
M  END
