
  xtb     03212210123D
 energy: -8.391359769588 gnorm: 0.000217220160 xtb: 6.4.1 (afa7bdf)
 43 46  0     0  0            999 V2000
    5.0906   -1.2646   -0.5077 C   0  0  0  0  0  0  0  0  0  0  0  0
    4.1433   -0.1376   -0.1445 C   0  0  0  0  0  0  0  0  0  0  0  0
    3.8656    0.7981   -1.3117 C   0  0  0  0  0  0  0  0  0  0  0  0
    3.0799   -0.0015   -2.6917 S   0  0  0  0  0  0  0  0  0  0  0  0
    1.6041   -0.5776   -1.9397 C   0  0  0  0  0  0  0  0  0  0  0  0
    1.0471   -1.8609   -2.1563 C   0  0  0  0  0  0  0  0  0  0  0  0
   -0.1114   -1.9758   -1.4329 C   0  0  0  0  0  0  0  0  0  0  0  0
   -0.3285   -0.7445   -0.7502 C   0  0  0  0  0  0  0  0  0  0  0  0
    0.7594    0.0508   -1.0819 N   0  0  0  0  0  0  0  0  0  0  0  0
    0.9626    1.4143   -0.4116 B   0  0  0  0  0  4  0  0  0  0  0  0
    1.8936    1.2665    0.6075 F   0  0  0  0  0  0  0  0  0  0  0  0
    1.3617    2.3619   -1.3429 F   0  0  0  0  0  0  0  0  0  0  0  0
   -0.3520    1.8578    0.2220 N   0  0  0  0  0  4  0  0  0  0  0  0
   -0.5870    3.1065    0.6769 C   0  0  0  0  0  0  0  0  0  0  0  0
    0.4991    4.4445    0.4577 S   0  0  0  0  0  0  0  0  0  0  0  0
   -0.1954    5.6152    1.4773 C   0  0  0  0  0  0  0  0  0  0  0  0
   -0.7203    6.3715    2.1810 N   0  0  0  0  0  0  0  0  0  0  0  0
   -1.8486    3.0520    1.3173 C   0  0  0  0  0  0  0  0  0  0  0  0
   -2.3389    1.7735    1.2188 C   0  0  0  0  0  0  0  0  0  0  0  0
   -1.3799    0.9879    0.5108 C   0  0  0  0  0  0  0  0  0  0  0  0
   -1.4067   -0.3430    0.0615 C   0  0  0  0  0  0  0  0  0  0  0  0
   -2.5444   -1.2308    0.3620 C   0  0  0  0  0  0  0  0  0  0  0  0
   -3.1792   -1.9592   -0.6459 C   0  0  0  0  0  0  0  0  0  0  0  0
   -4.2484   -2.7755   -0.3586 C   0  0  0  0  0  0  0  0  0  0  0  0
   -4.7100   -2.8833    0.9373 C   0  0  0  0  0  0  0  0  0  0  0  0
   -4.0992   -2.1684    1.9473 C   0  0  0  0  0  0  0  0  0  0  0  0
   -3.0302   -1.3499    1.6654 C   0  0  0  0  0  0  0  0  0  0  0  0
    5.2804   -1.9313    0.3376 H   0  0  0  0  0  0  0  0  0  0  0  0
    4.6871   -1.8717   -1.3213 H   0  0  0  0  0  0  0  0  0  0  0  0
    6.0547   -0.8767   -0.8443 H   0  0  0  0  0  0  0  0  0  0  0  0
    3.1903   -0.5473    0.2150 H   0  0  0  0  0  0  0  0  0  0  0  0
    4.5444    0.4348    0.7029 H   0  0  0  0  0  0  0  0  0  0  0  0
    4.7976    1.2373   -1.6764 H   0  0  0  0  0  0  0  0  0  0  0  0
    3.2300    1.6337   -1.0056 H   0  0  0  0  0  0  0  0  0  0  0  0
    1.4786   -2.6198   -2.7874 H   0  0  0  0  0  0  0  0  0  0  0  0
   -0.7475   -2.8425   -1.3874 H   0  0  0  0  0  0  0  0  0  0  0  0
   -2.3317    3.8884    1.7947 H   0  0  0  0  0  0  0  0  0  0  0  0
   -3.2893    1.4257    1.5859 H   0  0  0  0  0  0  0  0  0  0  0  0
   -2.8382   -1.8525   -1.6605 H   0  0  0  0  0  0  0  0  0  0  0  0
   -4.7302   -3.3283   -1.1483 H   0  0  0  0  0  0  0  0  0  0  0  0
   -5.5487   -3.5232    1.1601 H   0  0  0  0  0  0  0  0  0  0  0  0
   -4.4601   -2.2522    2.9592 H   0  0  0  0  0  0  0  0  0  0  0  0
   -2.5446   -0.8019    2.4538 H   0  0  0  0  0  0  0  0  0  0  0  0
  1  2  1  0  0  0  0
  2  3  1  0  0  0  0
  3  4  1  0  0  0  0
  4  5  1  0  0  0  0
  5  6  2  0  0  0  0
  6  7  1  0  0  0  0
  7  8  2  0  0  0  0
  8  9  1  0  0  0  0
  9 10  1  0  0  0  0
 10 11  1  0  0  0  0
 10 12  1  0  0  0  0
 10 13  1  0  0  0  0
 13 14  2  0  0  0  0
 14 15  1  0  0  0  0
 15 16  1  0  0  0  0
 16 17  3  0  0  0  0
 14 18  1  0  0  0  0
 18 19  2  0  0  0  0
 19 20  1  0  0  0  0
 20 21  2  0  0  0  0
 21 22  1  0  0  0  0
 22 23  2  0  0  0  0
 23 24  1  0  0  0  0
 24 25  2  0  0  0  0
 25 26  1  0  0  0  0
 26 27  2  0  0  0  0
  9  5  1  0  0  0  0
 20 13  1  0  0  0  0
 27 22  1  0  0  0  0
 21  8  1  0  0  0  0
  1 28  1  0  0  0  0
  1 29  1  0  0  0  0
  1 30  1  0  0  0  0
  2 31  1  0  0  0  0
  2 32  1  0  0  0  0
  3 33  1  0  0  0  0
  3 34  1  0  0  0  0
  6 35  1  0  0  0  0
  7 36  1  0  0  0  0
 18 37  1  0  0  0  0
 19 38  1  0  0  0  0
 23 39  1  0  0  0  0
 24 40  1  0  0  0  0
 25 41  1  0  0  0  0
 26 42  1  0  0  0  0
 27 43  1  0  0  0  0
M  CHG  1  10  -1
M  CHG  1  13   1
M  END
