
  xtb     03212210133D
 energy: -5.913470062461 gnorm: 0.000480990314 xtb: 6.4.1 (afa7bdf)
 27 29  0     0  0            999 V2000
    1.6830    0.8753   -0.7221 C   0  0  0  0  0  0  0  0  0  0  0  0
    2.9033    0.9120   -0.7977 C   0  0  0  0  0  0  0  0  0  0  0  0
    4.2948    0.9500   -0.8841 C   0  0  0  0  0  0  0  0  0  0  0  0
    5.0386    1.3166   -1.9629 C   0  0  0  0  0  0  0  0  0  0  0  0
    6.4431    1.2517   -1.7447 C   0  0  0  0  0  0  0  0  0  0  0  0
    6.7727    0.8374   -0.5034 C   0  0  0  0  0  0  0  0  0  0  0  0
    5.3551    0.5160    0.4294 S   0  0  0  0  0  0  0  0  0  0  0  0
    0.2803    0.8307   -0.6365 C   0  0  0  0  0  0  0  0  0  0  0  0
   -0.5119    1.7789   -1.1283 N   0  0  0  0  0  0  0  0  0  0  0  0
   -1.7544    1.3949   -0.8626 C   0  0  0  0  0  0  0  0  0  0  0  0
   -1.7375    0.1736   -0.1867 C   0  0  0  0  0  0  0  0  0  0  0  0
   -2.8795   -0.6045    0.2927 C   0  0  0  0  0  0  0  0  0  0  0  0
   -4.1938   -0.1828    0.1144 C   0  0  0  0  0  0  0  0  0  0  0  0
   -5.2413   -0.9458    0.5811 C   0  0  0  0  0  0  0  0  0  0  0  0
   -4.9950   -2.1382    1.2312 C   0  0  0  0  0  0  0  0  0  0  0  0
   -3.6964   -2.5679    1.4147 C   0  0  0  0  0  0  0  0  0  0  0  0
   -2.6476   -1.8067    0.9490 C   0  0  0  0  0  0  0  0  0  0  0  0
   -0.4301   -0.1819   -0.0454 O   0  0  0  0  0  0  0  0  0  0  0  0
    4.5948    1.6273   -2.8968 H   0  0  0  0  0  0  0  0  0  0  0  0
    7.1705    1.5095   -2.5007 H   0  0  0  0  0  0  0  0  0  0  0  0
    7.7718    0.7177   -0.1291 H   0  0  0  0  0  0  0  0  0  0  0  0
   -2.6289    1.9626   -1.1399 H   0  0  0  0  0  0  0  0  0  0  0  0
   -4.3875    0.7462   -0.3921 H   0  0  0  0  0  0  0  0  0  0  0  0
   -6.2555   -0.6110    0.4382 H   0  0  0  0  0  0  0  0  0  0  0  0
   -5.8162   -2.7333    1.5954 H   0  0  0  0  0  0  0  0  0  0  0  0
   -3.5027   -3.4985    1.9222 H   0  0  0  0  0  0  0  0  0  0  0  0
   -1.6297   -2.1297    1.0853 H   0  0  0  0  0  0  0  0  0  0  0  0
  1  2  3  0  0  0  0
  2  3  1  0  0  0  0
  3  4  2  0  0  0  0
  4  5  1  0  0  0  0
  5  6  2  0  0  0  0
  6  7  1  0  0  0  0
  1  8  1  0  0  0  0
  8  9  2  0  0  0  0
  9 10  1  0  0  0  0
 10 11  2  0  0  0  0
 11 12  1  0  0  0  0
 12 13  2  0  0  0  0
 13 14  1  0  0  0  0
 14 15  2  0  0  0  0
 15 16  1  0  0  0  0
 16 17  2  0  0  0  0
 11 18  1  0  0  0  0
  7  3  1  0  0  0  0
 18  8  1  0  0  0  0
 17 12  1  0  0  0  0
  4 19  1  0  0  0  0
  5 20  1  0  0  0  0
  6 21  1  0  0  0  0
 10 22  1  0  0  0  0
 13 23  1  0  0  0  0
 14 24  1  0  0  0  0
 15 25  1  0  0  0  0
 16 26  1  0  0  0  0
 17 27  1  0  0  0  0
M  END
