
  xtb     03212210143D
 energy: -12.449935297248 gnorm: 0.000326037237 xtb: 6.4.1 (afa7bdf)
 58 62  0     0  0            999 V2000
   -4.8927   -1.0917   -0.2189 C   0  0  0  0  0  0  0  0  0  0  0  0
   -5.0931   -2.3104    0.3026 C   0  0  0  0  0  0  0  0  0  0  0  0
   -6.3628   -2.9932    0.1806 C   0  0  0  0  0  0  0  0  0  0  0  0
   -6.5160   -4.2625    0.7381 C   0  0  0  0  0  0  0  0  0  0  0  0
   -7.6210   -4.9660    0.6844 N   0  0  0  0  0  0  0  0  0  0  0  0
   -8.5941   -4.3518    0.0427 C   0  0  0  0  0  0  0  0  0  0  0  0
   -8.4657   -3.1012   -0.5136 C   0  0  0  0  0  0  0  0  0  0  0  0
   -7.3611   -2.3903   -0.4642 N   0  0  0  0  0  0  0  0  0  0  0  0
   -3.6666   -0.3227   -0.1533 C   0  0  0  0  0  0  0  0  0  0  0  0
   -3.6037    0.9252   -0.7806 C   0  0  0  0  0  0  0  0  0  0  0  0
   -2.4587    1.6804   -0.7395 C   0  0  0  0  0  0  0  0  0  0  0  0
   -1.3236    1.2235   -0.0714 C   0  0  0  0  0  0  0  0  0  0  0  0
   -0.1328    2.0150   -0.0273 N   0  0  0  0  0  0  0  0  0  0  0  0
   -0.2328    3.4504   -0.0125 C   0  0  0  0  0  0  0  0  0  0  0  0
   -1.1954    4.0887    0.7658 C   0  0  0  0  0  0  0  0  0  0  0  0
   -1.2911    5.4619    0.7768 C   0  0  0  0  0  0  0  0  0  0  0  0
   -0.4282    6.2226    0.0123 C   0  0  0  0  0  0  0  0  0  0  0  0
    0.5320    5.6042   -0.7643 C   0  0  0  0  0  0  0  0  0  0  0  0
    0.6304    4.2311   -0.7774 C   0  0  0  0  0  0  0  0  0  0  0  0
    1.1575    1.3971   -0.0042 C   0  0  0  0  0  0  0  0  0  0  0  0
    1.3947    0.2030   -0.6839 C   0  0  0  0  0  0  0  0  0  0  0  0
    2.6342   -0.3866   -0.6658 C   0  0  0  0  0  0  0  0  0  0  0  0
    3.6965    0.1944    0.0348 C   0  0  0  0  0  0  0  0  0  0  0  0
    5.0195   -0.3966    0.0817 C   0  0  0  0  0  0  0  0  0  0  0  0
    5.3721   -1.5541   -0.5021 C   0  0  0  0  0  0  0  0  0  0  0  0
    6.6884   -2.1637   -0.4680 C   0  0  0  0  0  0  0  0  0  0  0  0
    7.7610   -1.5555    0.1860 C   0  0  0  0  0  0  0  0  0  0  0  0
    8.9719   -2.0544    0.2507 N   0  0  0  0  0  0  0  0  0  0  0  0
    9.0909   -3.2095   -0.3707 C   0  0  0  0  0  0  0  0  0  0  0  0
    8.0515   -3.8289   -1.0217 C   0  0  0  0  0  0  0  0  0  0  0  0
    6.8362   -3.3340   -1.0911 N   0  0  0  0  0  0  0  0  0  0  0  0
    3.4550    1.3951    0.7102 C   0  0  0  0  0  0  0  0  0  0  0  0
    2.2153    1.9827    0.6898 C   0  0  0  0  0  0  0  0  0  0  0  0
   -1.3841   -0.0186    0.5597 C   0  0  0  0  0  0  0  0  0  0  0  0
   -2.5280   -0.7762    0.5200 C   0  0  0  0  0  0  0  0  0  0  0  0
   -5.7196   -0.6411   -0.7376 H   0  0  0  0  0  0  0  0  0  0  0  0
   -4.3008   -2.8116    0.8267 H   0  0  0  0  0  0  0  0  0  0  0  0
   -5.6790   -4.7100    1.2512 H   0  0  0  0  0  0  0  0  0  0  0  0
   -9.5330   -4.8801   -0.0364 H   0  0  0  0  0  0  0  0  0  0  0  0
   -9.3052   -2.6563   -1.0260 H   0  0  0  0  0  0  0  0  0  0  0  0
   -4.4702    1.2911   -1.3039 H   0  0  0  0  0  0  0  0  0  0  0  0
   -2.4192    2.6341   -1.2354 H   0  0  0  0  0  0  0  0  0  0  0  0
   -1.8588    3.4900    1.3652 H   0  0  0  0  0  0  0  0  0  0  0  0
   -2.0397    5.9441    1.3841 H   0  0  0  0  0  0  0  0  0  0  0  0
   -0.5040    7.2972    0.0217 H   0  0  0  0  0  0  0  0  0  0  0  0
    1.2049    6.1975   -1.3618 H   0  0  0  0  0  0  0  0  0  0  0  0
    1.3711    3.7423   -1.3856 H   0  0  0  0  0  0  0  0  0  0  0  0
    0.5899   -0.2441   -1.2402 H   0  0  0  0  0  0  0  0  0  0  0  0
    2.7868   -1.3050   -1.2027 H   0  0  0  0  0  0  0  0  0  0  0  0
    5.7604    0.1488    0.6356 H   0  0  0  0  0  0  0  0  0  0  0  0
    4.6320   -2.1069   -1.0496 H   0  0  0  0  0  0  0  0  0  0  0  0
    7.6138   -0.6091    0.6784 H   0  0  0  0  0  0  0  0  0  0  0  0
   10.0661   -3.6736   -0.3527 H   0  0  0  0  0  0  0  0  0  0  0  0
    8.2172   -4.7763   -1.5115 H   0  0  0  0  0  0  0  0  0  0  0  0
    4.2597    1.8586    1.2544 H   0  0  0  0  0  0  0  0  0  0  0  0
    2.0404    2.9013    1.2214 H   0  0  0  0  0  0  0  0  0  0  0  0
   -0.5199   -0.3695    1.0956 H   0  0  0  0  0  0  0  0  0  0  0  0
   -2.5487   -1.7284    1.0186 H   0  0  0  0  0  0  0  0  0  0  0  0
  1  2  2  0  0  0  0
  2  3  1  0  0  0  0
  3  4  2  0  0  0  0
  4  5  1  0  0  0  0
  5  6  2  0  0  0  0
  6  7  1  0  0  0  0
  7  8  2  0  0  0  0
  1  9  1  0  0  0  0
  9 10  2  0  0  0  0
 10 11  1  0  0  0  0
 11 12  2  0  0  0  0
 12 13  1  0  0  0  0
 13 14  1  0  0  0  0
 14 15  2  0  0  0  0
 15 16  1  0  0  0  0
 16 17  2  0  0  0  0
 17 18  1  0  0  0  0
 18 19  2  0  0  0  0
 13 20  1  0  0  0  0
 20 21  2  0  0  0  0
 21 22  1  0  0  0  0
 22 23  2  0  0  0  0
 23 24  1  0  0  0  0
 24 25  2  0  0  0  0
 25 26  1  0  0  0  0
 26 27  2  0  0  0  0
 27 28  1  0  0  0  0
 28 29  2  0  0  0  0
 29 30  1  0  0  0  0
 30 31  2  0  0  0  0
 23 32  1  0  0  0  0
 32 33  2  0  0  0  0
 12 34  1  0  0  0  0
 34 35  2  0  0  0  0
  8  3  1  0  0  0  0
 35  9  1  0  0  0  0
 19 14  1  0  0  0  0
 33 20  1  0  0  0  0
 31 26  1  0  0  0  0
  1 36  1  0  0  0  0
  2 37  1  0  0  0  0
  4 38  1  0  0  0  0
  6 39  1  0  0  0  0
  7 40  1  0  0  0  0
 10 41  1  0  0  0  0
 11 42  1  0  0  0  0
 15 43  1  0  0  0  0
 16 44  1  0  0  0  0
 17 45  1  0  0  0  0
 18 46  1  0  0  0  0
 19 47  1  0  0  0  0
 21 48  1  0  0  0  0
 22 49  1  0  0  0  0
 24 50  1  0  0  0  0
 25 51  1  0  0  0  0
 27 52  1  0  0  0  0
 29 53  1  0  0  0  0
 30 54  1  0  0  0  0
 32 55  1  0  0  0  0
 33 56  1  0  0  0  0
 34 57  1  0  0  0  0
 35 58  1  0  0  0  0
M  END
