
  xtb     03212210123D
 energy: -11.429240218256 gnorm: 0.000232851340 xtb: 6.4.1 (afa7bdf)
 53 57  0     0  0            999 V2000
    2.4292    3.3901    0.1149 C   0  0  0  0  0  0  0  0  0  0  0  0
    2.6397    1.9265    0.2011 C   0  0  0  0  0  0  0  0  0  0  0  0
    3.8159    1.3833    0.3277 N   0  0  0  0  0  0  0  0  0  0  0  0
    3.6424    0.0415    0.3773 N   0  0  0  0  0  0  0  0  0  0  0  0
    4.7340   -0.8643    0.4981 C   0  0  0  0  0  0  0  0  0  0  0  0
    4.5357   -2.2369    0.5234 C   0  0  0  0  0  0  0  0  0  0  0  0
    5.6035   -3.0974    0.6334 C   0  0  0  0  0  0  0  0  0  0  0  0
    6.8867   -2.5949    0.7207 C   0  0  0  0  0  0  0  0  0  0  0  0
    7.0968   -1.2302    0.6975 C   0  0  0  0  0  0  0  0  0  0  0  0
    6.0270   -0.3712    0.5867 C   0  0  0  0  0  0  0  0  0  0  0  0
    2.2851   -0.3309    0.2850 C   0  0  0  0  0  0  0  0  0  0  0  0
    1.8532   -1.4679    0.3062 O   0  0  0  0  0  0  0  0  0  0  0  0
    1.5913    0.9392    0.1616 C   0  0  0  0  0  0  0  0  0  0  0  0
    0.2580    1.2215    0.0305 C   0  0  0  0  0  0  0  0  0  0  0  0
   -0.8461    0.3105   -0.0250 C   0  0  0  0  0  0  0  0  0  0  0  0
   -0.8196   -1.0576   -0.0420 C   0  0  0  0  0  0  0  0  0  0  0  0
   -2.1210   -1.4682   -0.2081 N   0  0  0  0  0  0  0  0  0  0  0  0
   -2.5760   -2.8324   -0.2877 C   0  0  0  0  0  0  0  0  0  0  0  0
   -3.9030   -3.0852   -0.5940 C   0  0  0  0  0  0  0  0  0  0  0  0
   -4.3738   -4.3761   -0.6743 C   0  0  0  0  0  0  0  0  0  0  0  0
   -3.5161   -5.4330   -0.4459 C   0  0  0  0  0  0  0  0  0  0  0  0
   -2.1916   -5.1965   -0.1374 C   0  0  0  0  0  0  0  0  0  0  0  0
   -1.7245   -3.9038   -0.0584 C   0  0  0  0  0  0  0  0  0  0  0  0
   -2.9688   -0.4413   -0.2985 N   0  0  0  0  0  0  0  0  0  0  0  0
   -2.2403    0.6521   -0.1674 C   0  0  0  0  0  0  0  0  0  0  0  0
   -2.8198    2.0004   -0.1900 C   0  0  0  0  0  0  0  0  0  0  0  0
   -2.3180    3.0347    0.6014 C   0  0  0  0  0  0  0  0  0  0  0  0
   -2.8843    4.2843    0.5544 C   0  0  0  0  0  0  0  0  0  0  0  0
   -3.9640    4.5338   -0.2704 C   0  0  0  0  0  0  0  0  0  0  0  0
   -4.5506    5.8650   -0.3249 N   0  0  0  0  0  4  0  0  0  0  0  0
   -5.5305    6.0500   -1.0603 O   0  0  0  0  0  0  0  0  0  0  0  0
   -4.0459    6.7623    0.3646 O   0  0  0  0  0  1  0  0  0  0  0  0
   -4.4849    3.5116   -1.0396 C   0  0  0  0  0  0  0  0  0  0  0  0
   -3.9264    2.2583   -0.9976 C   0  0  0  0  0  0  0  0  0  0  0  0
    1.9597    3.6614   -0.8304 H   0  0  0  0  0  0  0  0  0  0  0  0
    1.7954    3.7412    0.9290 H   0  0  0  0  0  0  0  0  0  0  0  0
    3.3822    3.9141    0.1804 H   0  0  0  0  0  0  0  0  0  0  0  0
    3.5293   -2.6104    0.4545 H   0  0  0  0  0  0  0  0  0  0  0  0
    5.4380   -4.1618    0.6510 H   0  0  0  0  0  0  0  0  0  0  0  0
    7.7237   -3.2674    0.8067 H   0  0  0  0  0  0  0  0  0  0  0  0
    8.0977   -0.8374    0.7656 H   0  0  0  0  0  0  0  0  0  0  0  0
    6.1726    0.6947    0.5662 H   0  0  0  0  0  0  0  0  0  0  0  0
    0.0055    2.2610   -0.0777 H   0  0  0  0  0  0  0  0  0  0  0  0
    0.0459   -1.6860    0.0251 H   0  0  0  0  0  0  0  0  0  0  0  0
   -4.5586   -2.2476   -0.7658 H   0  0  0  0  0  0  0  0  0  0  0  0
   -5.4074   -4.5601   -0.9133 H   0  0  0  0  0  0  0  0  0  0  0  0
   -3.8818   -6.4455   -0.5074 H   0  0  0  0  0  0  0  0  0  0  0  0
   -1.5242   -6.0222    0.0425 H   0  0  0  0  0  0  0  0  0  0  0  0
   -0.6927   -3.7167    0.1870 H   0  0  0  0  0  0  0  0  0  0  0  0
   -1.5090    2.8367    1.2809 H   0  0  0  0  0  0  0  0  0  0  0  0
   -2.5030    5.0893    1.1625 H   0  0  0  0  0  0  0  0  0  0  0  0
   -5.3352    3.7200   -1.6697 H   0  0  0  0  0  0  0  0  0  0  0  0
   -4.3315    1.4590   -1.5922 H   0  0  0  0  0  0  0  0  0  0  0  0
  1  2  1  0  0  0  0
  2  3  2  0  0  0  0
  3  4  1  0  0  0  0
  4  5  1  0  0  0  0
  5  6  2  0  0  0  0
  6  7  1  0  0  0  0
  7  8  2  0  0  0  0
  8  9  1  0  0  0  0
  9 10  2  0  0  0  0
  4 11  1  0  0  0  0
 11 12  2  0  0  0  0
 11 13  1  0  0  0  0
 13 14  2  0  0  0  0
 14 15  1  0  0  0  0
 15 16  2  0  0  0  0
 16 17  1  0  0  0  0
 17 18  1  0  0  0  0
 18 19  2  0  0  0  0
 19 20  1  0  0  0  0
 20 21  2  0  0  0  0
 21 22  1  0  0  0  0
 22 23  2  0  0  0  0
 17 24  1  0  0  0  0
 24 25  2  0  0  0  0
 25 26  1  0  0  0  0
 26 27  2  0  0  0  0
 27 28  1  0  0  0  0
 28 29  2  0  0  0  0
 29 30  1  0  0  0  0
 30 31  2  0  0  0  0
 30 32  1  0  0  0  0
 29 33  1  0  0  0  0
 33 34  2  0  0  0  0
 13  2  1  0  0  0  0
 25 15  1  0  0  0  0
 34 26  1  0  0  0  0
 10  5  1  0  0  0  0
 23 18  1  0  0  0  0
  1 35  1  0  0  0  0
  1 36  1  0  0  0  0
  1 37  1  0  0  0  0
  6 38  1  0  0  0  0
  7 39  1  0  0  0  0
  8 40  1  0  0  0  0
  9 41  1  0  0  0  0
 10 42  1  0  0  0  0
 14 43  1  0  0  0  0
 16 44  1  0  0  0  0
 19 45  1  0  0  0  0
 20 46  1  0  0  0  0
 21 47  1  0  0  0  0
 22 48  1  0  0  0  0
 23 49  1  0  0  0  0
 27 50  1  0  0  0  0
 28 51  1  0  0  0  0
 33 52  1  0  0  0  0
 34 53  1  0  0  0  0
M  CHG  1  30   1
M  CHG  1  32  -1
M  END
