
  xtb     03212210143D
 energy: -6.965820036543 gnorm: 0.000102733267 xtb: 6.4.1 (afa7bdf)
 33 35  0     0  0            999 V2000
   -6.5552   -0.4924    1.3593 C   0  0  0  0  0  0  0  0  0  0  0  0
   -5.6504   -1.5394    1.1059 O   0  0  0  0  0  0  0  0  0  0  0  0
   -4.3430   -1.1362    0.8455 C   0  0  0  0  0  0  0  0  0  0  0  0
   -3.3956   -2.1364    0.6019 C   0  0  0  0  0  0  0  0  0  0  0  0
   -2.0883   -1.8290    0.3409 C   0  0  0  0  0  0  0  0  0  0  0  0
   -1.6501   -0.5002    0.3062 C   0  0  0  0  0  0  0  0  0  0  0  0
   -0.2842   -0.1156    0.0390 C   0  0  0  0  0  0  0  0  0  0  0  0
    0.7883   -0.9154   -0.2025 C   0  0  0  0  0  0  0  0  0  0  0  0
    0.7257   -2.3108   -0.2327 C   0  0  0  0  0  0  0  0  0  0  0  0
    0.6688   -3.4712   -0.2566 N   0  0  0  0  0  0  0  0  0  0  0  0
    2.0710   -0.3046   -0.4384 C   0  0  0  0  0  0  0  0  0  0  0  0
    2.2750    0.9834   -0.4477 N   0  0  0  0  0  0  0  0  0  0  0  0
    3.5998    1.2931   -0.6956 C   0  0  0  0  0  0  0  0  0  0  0  0
    4.1330    2.5876   -0.7670 C   0  0  0  0  0  0  0  0  0  0  0  0
    5.4712    2.7541   -1.0169 C   0  0  0  0  0  0  0  0  0  0  0  0
    6.3055    1.6532   -1.2001 C   0  0  0  0  0  0  0  0  0  0  0  0
    5.8028    0.3767   -1.1349 C   0  0  0  0  0  0  0  0  0  0  0  0
    4.4511    0.1956   -0.8833 C   0  0  0  0  0  0  0  0  0  0  0  0
    3.5208   -1.2607   -0.7422 S   0  0  0  0  0  0  0  0  0  0  0  0
   -2.5995    0.4995    0.5478 C   0  0  0  0  0  0  0  0  0  0  0  0
   -3.9089    0.1937    0.8105 C   0  0  0  0  0  0  0  0  0  0  0  0
   -6.2343    0.0702    2.2364 H   0  0  0  0  0  0  0  0  0  0  0  0
   -7.5359   -0.9265    1.5555 H   0  0  0  0  0  0  0  0  0  0  0  0
   -6.6231    0.1578    0.4868 H   0  0  0  0  0  0  0  0  0  0  0  0
   -3.7244   -3.1604    0.6272 H   0  0  0  0  0  0  0  0  0  0  0  0
   -1.3917   -2.6267    0.1620 H   0  0  0  0  0  0  0  0  0  0  0  0
   -0.0877    0.9418    0.0338 H   0  0  0  0  0  0  0  0  0  0  0  0
    3.4808    3.4305   -0.6239 H   0  0  0  0  0  0  0  0  0  0  0  0
    5.8835    3.7481   -1.0721 H   0  0  0  0  0  0  0  0  0  0  0  0
    7.3546    1.8055   -1.3946 H   0  0  0  0  0  0  0  0  0  0  0  0
    6.4363   -0.4821   -1.2743 H   0  0  0  0  0  0  0  0  0  0  0  0
   -2.2856    1.5291    0.5261 H   0  0  0  0  0  0  0  0  0  0  0  0
   -4.6103    0.9872    0.9921 H   0  0  0  0  0  0  0  0  0  0  0  0
  1  2  1  0  0  0  0
  2  3  1  0  0  0  0
  3  4  2  0  0  0  0
  4  5  1  0  0  0  0
  5  6  2  0  0  0  0
  6  7  1  0  0  0  0
  7  8  2  0  0  0  0
  8  9  1  0  0  0  0
  9 10  3  0  0  0  0
  8 11  1  0  0  0  0
 11 12  2  0  0  0  0
 12 13  1  0  0  0  0
 13 14  2  0  0  0  0
 14 15  1  0  0  0  0
 15 16  2  0  0  0  0
 16 17  1  0  0  0  0
 17 18  2  0  0  0  0
 18 19  1  0  0  0  0
  6 20  1  0  0  0  0
 20 21  2  0  0  0  0
 21  3  1  0  0  0  0
 19 11  1  0  0  0  0
 18 13  1  0  0  0  0
  1 22  1  0  0  0  0
  1 23  1  0  0  0  0
  1 24  1  0  0  0  0
  4 25  1  0  0  0  0
  5 26  1  0  0  0  0
  7 27  1  0  0  0  0
 14 28  1  0  0  0  0
 15 29  1  0  0  0  0
 16 30  1  0  0  0  0
 17 31  1  0  0  0  0
 20 32  1  0  0  0  0
 21 33  1  0  0  0  0
M  END
