
  xtb     03212210133D
 energy: -7.821761526380 gnorm: 0.000326952800 xtb: 6.4.1 (afa7bdf)
 38 41  0     0  0            999 V2000
   -3.4114   -2.7442   -1.2173 C   0  0  0  0  0  0  0  0  0  0  0  0
   -2.5601   -1.9918   -0.2796 C   0  0  0  0  0  0  0  0  0  0  0  0
   -1.5171   -1.2155   -0.6299 N   0  0  0  0  0  4  0  0  0  0  0  0
   -0.8998   -0.6231    0.4766 C   0  0  0  0  0  0  0  0  0  0  0  0
    0.2305    0.2130    0.3894 C   0  0  0  0  0  0  0  0  0  0  0  0
    0.8433    0.8253    1.5777 C   0  0  0  0  0  0  0  0  0  0  0  0
    2.2320    0.8435    1.7449 C   0  0  0  0  0  0  0  0  0  0  0  0
    2.8034    1.4170    2.8532 C   0  0  0  0  0  0  0  0  0  0  0  0
    2.0119    1.9979    3.8395 C   0  0  0  0  0  0  0  0  0  0  0  0
    2.5942    2.5831    4.9658 C   0  0  0  0  0  0  0  0  0  0  0  0
    3.0800    3.0714    5.9041 N   0  0  0  0  0  0  0  0  0  0  0  0
    0.6294    1.9853    3.6818 C   0  0  0  0  0  0  0  0  0  0  0  0
    0.0562    1.4104    2.5751 C   0  0  0  0  0  0  0  0  0  0  0  0
    0.7351    0.4299   -0.9077 C   0  0  0  0  0  0  0  0  0  0  0  0
    1.7924    1.2378   -1.3754 C   0  0  0  0  0  0  0  0  0  0  0  0
    1.8453    1.1227   -2.7587 C   0  0  0  0  0  0  0  0  0  0  0  0
    0.8277    0.2530   -3.1796 C   0  0  0  0  0  0  0  0  0  0  0  0
    0.4706   -0.1537   -4.5497 C   0  0  0  0  0  0  0  0  0  0  0  0
    0.1833   -0.1344   -2.0625 N   0  0  0  0  0  0  0  0  0  0  0  0
   -1.0464   -1.0380   -2.0707 B   0  0  0  0  0  4  0  0  0  0  0  0
   -0.7027   -2.2769   -2.5983 F   0  0  0  0  0  0  0  0  0  0  0  0
   -2.0552   -0.4344   -2.8119 F   0  0  0  0  0  0  0  0  0  0  0  0
   -1.6302   -1.0945    1.5874 C   0  0  0  0  0  0  0  0  0  0  0  0
   -2.6431   -1.9220    1.1194 C   0  0  0  0  0  0  0  0  0  0  0  0
   -3.4186   -3.8063   -0.9724 H   0  0  0  0  0  0  0  0  0  0  0  0
   -4.4368   -2.3754   -1.1941 H   0  0  0  0  0  0  0  0  0  0  0  0
   -3.0336   -2.6323   -2.2347 H   0  0  0  0  0  0  0  0  0  0  0  0
    2.8522    0.3744    1.0012 H   0  0  0  0  0  0  0  0  0  0  0  0
    3.8722    1.4219    2.9761 H   0  0  0  0  0  0  0  0  0  0  0  0
    0.0164    2.4384    4.4411 H   0  0  0  0  0  0  0  0  0  0  0  0
   -1.0123    1.4306    2.4502 H   0  0  0  0  0  0  0  0  0  0  0  0
    2.4249    1.8614   -0.7665 H   0  0  0  0  0  0  0  0  0  0  0  0
    2.5395    1.6267   -3.4100 H   0  0  0  0  0  0  0  0  0  0  0  0
    0.1008    0.6961   -5.1233 H   0  0  0  0  0  0  0  0  0  0  0  0
    1.3304   -0.5760   -5.0695 H   0  0  0  0  0  0  0  0  0  0  0  0
   -0.3156   -0.9096   -4.5206 H   0  0  0  0  0  0  0  0  0  0  0  0
   -1.4201   -0.8722    2.6199 H   0  0  0  0  0  0  0  0  0  0  0  0
   -3.3688   -2.4394    1.7241 H   0  0  0  0  0  0  0  0  0  0  0  0
  1  2  1  0  0  0  0
  2  3  2  0  0  0  0
  3  4  1  0  0  0  0
  4  5  2  0  0  0  0
  5  6  1  0  0  0  0
  6  7  2  0  0  0  0
  7  8  1  0  0  0  0
  8  9  2  0  0  0  0
  9 10  1  0  0  0  0
 10 11  3  0  0  0  0
  9 12  1  0  0  0  0
 12 13  2  0  0  0  0
  5 14  1  0  0  0  0
 14 15  2  0  0  0  0
 15 16  1  0  0  0  0
 16 17  2  0  0  0  0
 17 18  1  0  0  0  0
 17 19  1  0  0  0  0
 19 20  1  0  0  0  0
 20 21  1  0  0  0  0
 20 22  1  0  0  0  0
  4 23  1  0  0  0  0
 23 24  2  0  0  0  0
 24  2  1  0  0  0  0
 20  3  1  0  0  0  0
 13  6  1  0  0  0  0
 19 14  1  0  0  0  0
  1 25  1  0  0  0  0
  1 26  1  0  0  0  0
  1 27  1  0  0  0  0
  7 28  1  0  0  0  0
  8 29  1  0  0  0  0
 12 30  1  0  0  0  0
 13 31  1  0  0  0  0
 15 32  1  0  0  0  0
 16 33  1  0  0  0  0
 18 34  1  0  0  0  0
 18 35  1  0  0  0  0
 18 36  1  0  0  0  0
 23 37  1  0  0  0  0
 24 38  1  0  0  0  0
M  CHG  1   3   1
M  CHG  1  20  -1
M  END
