
  xtb     03212210143D
 energy: -3.833838212993 gnorm: 0.000539552487 xtb: 6.4.1 (afa7bdf)
 18 19  0     0  0            999 V2000
    3.4356   -0.5636   -0.4727 N   0  0  0  0  0  0  0  0  0  0  0  0
    2.1391   -0.1289   -0.2649 C   0  0  0  0  0  0  0  0  0  0  0  0
    1.1927   -1.0607   -0.2460 N   0  0  0  0  0  0  0  0  0  0  0  0
   -0.0614   -0.6222   -0.0436 C   0  0  0  0  0  0  0  0  0  0  0  0
   -1.1404   -1.5234   -0.0036 C   0  0  0  0  0  0  0  0  0  0  0  0
   -2.4158   -1.0749    0.2055 C   0  0  0  0  0  0  0  0  0  0  0  0
   -2.6637    0.2837    0.3813 C   0  0  0  0  0  0  0  0  0  0  0  0
   -1.6277    1.1800    0.3450 C   0  0  0  0  0  0  0  0  0  0  0  0
   -0.3286    0.7368    0.1335 C   0  0  0  0  0  0  0  0  0  0  0  0
    0.7581    1.6303    0.0887 N   0  0  0  0  0  4  0  0  0  0  0  0
    0.5408    2.8615    0.2448 O   0  0  0  0  0  1  0  0  0  0  0  0
    1.9808    1.1869   -0.1135 N   0  0  0  0  0  0  0  0  0  0  0  0
    4.1865    0.0904   -0.6335 H   0  0  0  0  0  0  0  0  0  0  0  0
    3.6420   -1.5144   -0.7392 H   0  0  0  0  0  0  0  0  0  0  0  0
   -0.9375   -2.5711   -0.1400 H   0  0  0  0  0  0  0  0  0  0  0  0
   -3.2338   -1.7754    0.2350 H   0  0  0  0  0  0  0  0  0  0  0  0
   -3.6706    0.6300    0.5457 H   0  0  0  0  0  0  0  0  0  0  0  0
   -1.7963    2.2352    0.4777 H   0  0  0  0  0  0  0  0  0  0  0  0
  1  2  1  0  0  0  0
  2  3  2  0  0  0  0
  3  4  1  0  0  0  0
  4  5  2  0  0  0  0
  5  6  1  0  0  0  0
  6  7  2  0  0  0  0
  7  8  1  0  0  0  0
  8  9  2  0  0  0  0
  9 10  1  0  0  0  0
 10 11  1  0  0  0  0
 10 12  2  0  0  0  0
 12  2  1  0  0  0  0
  9  4  1  0  0  0  0
  1 13  1  0  0  0  0
  1 14  1  0  0  0  0
  5 15  1  0  0  0  0
  6 16  1  0  0  0  0
  7 17  1  0  0  0  0
  8 18  1  0  0  0  0
M  CHG  1  10   1
M  CHG  1  11  -1
M  END
