
  xtb     03212210143D
 energy: -6.367405462287 gnorm: 0.000357264612 xtb: 6.4.1 (afa7bdf)
 29 31  0     0  0            999 V2000
   -0.4965   -3.4109    0.6691 N   0  0  0  0  0  0  0  0  0  0  0  0
   -0.3676   -2.2823    0.4240 C   0  0  0  0  0  0  0  0  0  0  0  0
   -0.2163   -0.9228    0.1326 C   0  0  0  0  0  0  0  0  0  0  0  0
   -1.2549   -0.0682   -0.0478 C   0  0  0  0  0  0  0  0  0  0  0  0
   -2.6758   -0.3496    0.0196 C   0  0  0  0  0  0  0  0  0  0  0  0
   -3.5804    0.6914   -0.2036 C   0  0  0  0  0  0  0  0  0  0  0  0
   -4.9382    0.4757   -0.1484 C   0  0  0  0  0  0  0  0  0  0  0  0
   -5.4295   -0.7829    0.1306 C   0  0  0  0  0  0  0  0  0  0  0  0
   -4.5556   -1.8265    0.3541 C   0  0  0  0  0  0  0  0  0  0  0  0
   -3.1983   -1.6147    0.2998 C   0  0  0  0  0  0  0  0  0  0  0  0
    1.1293   -0.4151    0.0232 C   0  0  0  0  0  0  0  0  0  0  0  0
    1.4237    0.8265   -0.2436 N   0  0  0  0  0  0  0  0  0  0  0  0
    2.7919    1.0318   -0.2868 C   0  0  0  0  0  0  0  0  0  0  0  0
    3.4216    2.2556   -0.5517 C   0  0  0  0  0  0  0  0  0  0  0  0
    4.7914    2.3212   -0.5660 C   0  0  0  0  0  0  0  0  0  0  0  0
    5.5634    1.1872   -0.3208 C   0  0  0  0  0  0  0  0  0  0  0  0
    4.9661   -0.0215   -0.0599 C   0  0  0  0  0  0  0  0  0  0  0  0
    3.5816   -0.1002   -0.0431 C   0  0  0  0  0  0  0  0  0  0  0  0
    2.5368   -1.4521    0.2467 S   0  0  0  0  0  0  0  0  0  0  0  0
   -0.9893    0.9505   -0.2673 H   0  0  0  0  0  0  0  0  0  0  0  0
   -3.2019    1.6754   -0.4213 H   0  0  0  0  0  0  0  0  0  0  0  0
   -5.6198    1.2919   -0.3235 H   0  0  0  0  0  0  0  0  0  0  0  0
   -6.4930   -0.9506    0.1737 H   0  0  0  0  0  0  0  0  0  0  0  0
   -4.9378   -2.8103    0.5726 H   0  0  0  0  0  0  0  0  0  0  0  0
   -2.5347   -2.4401    0.4777 H   0  0  0  0  0  0  0  0  0  0  0  0
    2.8173    3.1248   -0.7397 H   0  0  0  0  0  0  0  0  0  0  0  0
    5.2777    3.2610   -0.7692 H   0  0  0  0  0  0  0  0  0  0  0  0
    6.6386    1.2601   -0.3366 H   0  0  0  0  0  0  0  0  0  0  0  0
    5.5502   -0.9051    0.1307 H   0  0  0  0  0  0  0  0  0  0  0  0
  1  2  3  0  0  0  0
  2  3  1  0  0  0  0
  3  4  2  0  0  0  0
  4  5  1  0  0  0  0
  5  6  2  0  0  0  0
  6  7  1  0  0  0  0
  7  8  2  0  0  0  0
  8  9  1  0  0  0  0
  9 10  2  0  0  0  0
  3 11  1  0  0  0  0
 11 12  2  0  0  0  0
 12 13  1  0  0  0  0
 13 14  2  0  0  0  0
 14 15  1  0  0  0  0
 15 16  2  0  0  0  0
 16 17  1  0  0  0  0
 17 18  2  0  0  0  0
 18 19  1  0  0  0  0
 10  5  1  0  0  0  0
 19 11  1  0  0  0  0
 18 13  1  0  0  0  0
  4 20  1  0  0  0  0
  6 21  1  0  0  0  0
  7 22  1  0  0  0  0
  8 23  1  0  0  0  0
  9 24  1  0  0  0  0
 10 25  1  0  0  0  0
 14 26  1  0  0  0  0
 15 27  1  0  0  0  0
 16 28  1  0  0  0  0
 17 29  1  0  0  0  0
M  END
