
  xtb     03212210123D
 energy: -16.378189936176 gnorm: 0.000341108759 xtb: 6.4.1 (afa7bdf)
 79 86  0     0  0            999 V2000
   -0.1047    8.6460   -0.1109 C   0  0  0  0  0  0  0  0  0  0  0  0
    0.9185    7.8256    0.6491 C   0  0  0  0  0  0  0  0  0  0  0  0
    1.5089    6.7437   -0.1680 N   0  0  0  0  0  0  0  0  0  0  0  0
    2.8263    7.0150   -0.7906 C   0  0  0  0  0  0  0  0  0  0  0  0
    2.9175    8.3540   -1.4954 C   0  0  0  0  0  0  0  0  0  0  0  0
    0.9506    5.4447   -0.1509 C   0  0  0  0  0  0  0  0  0  0  0  0
    1.7046    4.3180   -0.4998 C   0  0  0  0  0  0  0  0  0  0  0  0
    1.1523    3.0626   -0.4837 C   0  0  0  0  0  0  0  0  0  0  0  0
   -0.1767    2.8714   -0.1126 C   0  0  0  0  0  0  0  0  0  0  0  0
   -0.7686    1.5330   -0.0978 C   0  0  0  0  0  0  0  0  0  0  0  0
   -2.0439    1.4376    0.2420 N   0  0  0  0  0  0  0  0  0  0  0  0
   -2.5377    0.2096    0.2279 C   0  0  0  0  0  0  0  0  0  0  0  0
   -3.8821    0.0822    0.5822 O   0  0  0  0  0  0  0  0  0  0  0  0
   -4.5290   -1.1564    0.5695 C   0  0  0  0  0  0  0  0  0  0  0  0
   -5.8678   -1.1724    0.9720 C   0  0  0  0  0  0  0  0  0  0  0  0
   -6.5900   -2.3374    0.9888 C   0  0  0  0  0  0  0  0  0  0  0  0
   -6.0042   -3.5386    0.6019 C   0  0  0  0  0  0  0  0  0  0  0  0
   -6.7639   -4.7819    0.6145 C   0  0  0  0  0  0  0  0  0  0  0  0
   -8.0271   -4.8601    0.9924 N   0  0  0  0  0  0  0  0  0  0  0  0
   -8.3673   -6.1647    0.8632 C   0  0  0  0  0  0  0  0  0  0  0  0
   -9.5822   -6.8222    1.1246 C   0  0  0  0  0  0  0  0  0  0  0  0
   -9.6619   -8.1687    0.9071 C   0  0  0  0  0  0  0  0  0  0  0  0
   -8.5551   -8.8938    0.4309 C   0  0  0  0  0  0  0  0  0  0  0  0
   -8.7040  -10.5954    0.1679 Cl  0  0  0  0  0  0  0  0  0  0  0  0
   -7.3576   -8.2748    0.1695 C   0  0  0  0  0  0  0  0  0  0  0  0
   -7.2473   -6.8942    0.3838 C   0  0  0  0  0  0  0  0  0  0  0  0
   -6.2284   -5.9953    0.2296 O   0  0  0  0  0  0  0  0  0  0  0  0
   -4.6733   -3.5352    0.1999 C   0  0  0  0  0  0  0  0  0  0  0  0
   -3.9540   -2.3693    0.1857 C   0  0  0  0  0  0  0  0  0  0  0  0
   -1.8397   -0.8600   -0.0927 N   0  0  0  0  0  0  0  0  0  0  0  0
   -0.5717   -0.6630   -0.4029 C   0  0  0  0  0  0  0  0  0  0  0  0
    0.1586   -1.8055   -0.7379 O   0  0  0  0  0  0  0  0  0  0  0  0
    1.5540   -1.7673   -0.7328 C   0  0  0  0  0  0  0  0  0  0  0  0
    2.3058   -0.7907   -0.0777 C   0  0  0  0  0  0  0  0  0  0  0  0
    3.6755   -0.8281   -0.0857 C   0  0  0  0  0  0  0  0  0  0  0  0
    4.3499   -1.8450   -0.7528 C   0  0  0  0  0  0  0  0  0  0  0  0
    5.8066   -1.8791   -0.7574 C   0  0  0  0  0  0  0  0  0  0  0  0
    6.5101   -2.8194   -1.3620 N   0  0  0  0  0  0  0  0  0  0  0  0
    7.8083   -2.5062   -1.1371 C   0  0  0  0  0  0  0  0  0  0  0  0
    8.9877   -3.1549   -1.5433 C   0  0  0  0  0  0  0  0  0  0  0  0
   10.1914   -2.6224   -1.1771 C   0  0  0  0  0  0  0  0  0  0  0  0
   10.2612   -1.4472   -0.4081 C   0  0  0  0  0  0  0  0  0  0  0  0
   11.8063   -0.8097    0.0312 Cl  0  0  0  0  0  0  0  0  0  0  0  0
    9.1236   -0.7953    0.0004 C   0  0  0  0  0  0  0  0  0  0  0  0
    7.8749   -1.3190   -0.3609 C   0  0  0  0  0  0  0  0  0  0  0  0
    6.5852   -0.9286   -0.1264 O   0  0  0  0  0  0  0  0  0  0  0  0
    3.6098   -2.8247   -1.4080 C   0  0  0  0  0  0  0  0  0  0  0  0
    2.2396   -2.7878   -1.3965 C   0  0  0  0  0  0  0  0  0  0  0  0
    0.0145    0.5186   -0.4218 N   0  0  0  0  0  0  0  0  0  0  0  0
   -0.9308    3.9856    0.2465 C   0  0  0  0  0  0  0  0  0  0  0  0
   -0.3802    5.2415    0.2310 C   0  0  0  0  0  0  0  0  0  0  0  0
    0.3476    9.1645   -0.9571 H   0  0  0  0  0  0  0  0  0  0  0  0
   -0.5751    9.4024    0.5217 H   0  0  0  0  0  0  0  0  0  0  0  0
   -0.8974    8.0169   -0.5184 H   0  0  0  0  0  0  0  0  0  0  0  0
    1.7281    8.4573    1.0243 H   0  0  0  0  0  0  0  0  0  0  0  0
    0.4755    7.3725    1.5404 H   0  0  0  0  0  0  0  0  0  0  0  0
    3.5881    6.9277   -0.0110 H   0  0  0  0  0  0  0  0  0  0  0  0
    3.0325    6.2216   -1.5123 H   0  0  0  0  0  0  0  0  0  0  0  0
    3.8879    8.4958   -1.9773 H   0  0  0  0  0  0  0  0  0  0  0  0
    2.1535    8.4400   -2.2702 H   0  0  0  0  0  0  0  0  0  0  0  0
    2.7781    9.1863   -0.8039 H   0  0  0  0  0  0  0  0  0  0  0  0
    2.7438    4.4272   -0.7520 H   0  0  0  0  0  0  0  0  0  0  0  0
    1.7376    2.2030   -0.7577 H   0  0  0  0  0  0  0  0  0  0  0  0
   -6.3178   -0.2419    1.2691 H   0  0  0  0  0  0  0  0  0  0  0  0
   -7.6202   -2.3416    1.3003 H   0  0  0  0  0  0  0  0  0  0  0  0
  -10.4219   -6.2566    1.4887 H   0  0  0  0  0  0  0  0  0  0  0  0
  -10.5784   -8.6994    1.0977 H   0  0  0  0  0  0  0  0  0  0  0  0
   -6.5156   -8.8356   -0.1940 H   0  0  0  0  0  0  0  0  0  0  0  0
   -4.2221   -4.4665   -0.0983 H   0  0  0  0  0  0  0  0  0  0  0  0
   -2.9285   -2.3845   -0.1245 H   0  0  0  0  0  0  0  0  0  0  0  0
    1.7896   -0.0062    0.4415 H   0  0  0  0  0  0  0  0  0  0  0  0
    4.2516   -0.0742    0.4231 H   0  0  0  0  0  0  0  0  0  0  0  0
    8.9212   -4.0537   -2.1311 H   0  0  0  0  0  0  0  0  0  0  0  0
   11.1110   -3.0966   -1.4727 H   0  0  0  0  0  0  0  0  0  0  0  0
    9.1852    0.1022    0.5885 H   0  0  0  0  0  0  0  0  0  0  0  0
    4.1344   -3.6124   -1.9207 H   0  0  0  0  0  0  0  0  0  0  0  0
    1.6631   -3.5452   -1.8970 H   0  0  0  0  0  0  0  0  0  0  0  0
   -1.9568    3.8376    0.5345 H   0  0  0  0  0  0  0  0  0  0  0  0
   -0.9868    6.0842    0.5088 H   0  0  0  0  0  0  0  0  0  0  0  0
  1  2  1  0  0  0  0
  2  3  1  0  0  0  0
  3  4  1  0  0  0  0
  4  5  1  0  0  0  0
  3  6  1  0  0  0  0
  6  7  2  0  0  0  0
  7  8  1  0  0  0  0
  8  9  2  0  0  0  0
  9 10  1  0  0  0  0
 10 11  2  0  0  0  0
 11 12  1  0  0  0  0
 12 13  1  0  0  0  0
 13 14  1  0  0  0  0
 14 15  2  0  0  0  0
 15 16  1  0  0  0  0
 16 17  2  0  0  0  0
 17 18  1  0  0  0  0
 18 19  2  0  0  0  0
 19 20  1  0  0  0  0
 20 21  2  0  0  0  0
 21 22  1  0  0  0  0
 22 23  2  0  0  0  0
 23 24  1  0  0  0  0
 23 25  1  0  0  0  0
 25 26  2  0  0  0  0
 26 27  1  0  0  0  0
 17 28  1  0  0  0  0
 28 29  2  0  0  0  0
 12 30  2  0  0  0  0
 30 31  1  0  0  0  0
 31 32  1  0  0  0  0
 32 33  1  0  0  0  0
 33 34  2  0  0  0  0
 34 35  1  0  0  0  0
 35 36  2  0  0  0  0
 36 37  1  0  0  0  0
 37 38  2  0  0  0  0
 38 39  1  0  0  0  0
 39 40  2  0  0  0  0
 40 41  1  0  0  0  0
 41 42  2  0  0  0  0
 42 43  1  0  0  0  0
 42 44  1  0  0  0  0
 44 45  2  0  0  0  0
 45 46  1  0  0  0  0
 36 47  1  0  0  0  0
 47 48  2  0  0  0  0
 31 49  2  0  0  0  0
  9 50  1  0  0  0  0
 50 51  2  0  0  0  0
 51  6  1  0  0  0  0
 49 10  1  0  0  0  0
 29 14  1  0  0  0  0
 48 33  1  0  0  0  0
 27 18  1  0  0  0  0
 46 37  1  0  0  0  0
 26 20  1  0  0  0  0
 45 39  1  0  0  0  0
  1 52  1  0  0  0  0
  1 53  1  0  0  0  0
  1 54  1  0  0  0  0
  2 55  1  0  0  0  0
  2 56  1  0  0  0  0
  4 57  1  0  0  0  0
  4 58  1  0  0  0  0
  5 59  1  0  0  0  0
  5 60  1  0  0  0  0
  5 61  1  0  0  0  0
  7 62  1  0  0  0  0
  8 63  1  0  0  0  0
 15 64  1  0  0  0  0
 16 65  1  0  0  0  0
 21 66  1  0  0  0  0
 22 67  1  0  0  0  0
 25 68  1  0  0  0  0
 28 69  1  0  0  0  0
 29 70  1  0  0  0  0
 34 71  1  0  0  0  0
 35 72  1  0  0  0  0
 40 73  1  0  0  0  0
 41 74  1  0  0  0  0
 44 75  1  0  0  0  0
 47 76  1  0  0  0  0
 48 77  1  0  0  0  0
 50 78  1  0  0  0  0
 51 79  1  0  0  0  0
M  END
