
  xtb     03212210143D
 energy: -15.215359736933 gnorm: 0.000408469620 xtb: 6.4.1 (afa7bdf)
 72 79  0     0  0            999 V2000
    7.3838   -3.3102   -0.9851 C   0  0  0  0  0  0  0  0  0  0  0  0
    7.0869   -2.8935    0.4379 C   0  0  0  0  0  0  0  0  0  0  0  0
    6.4519   -1.5692    0.4930 N   0  0  0  0  0  0  0  0  0  0  0  0
    7.1309   -0.3427    0.5297 C   0  0  0  0  0  0  0  0  0  0  0  0
    8.4924   -0.0395    0.5989 C   0  0  0  0  0  0  0  0  0  0  0  0
    8.8724    1.2791    0.6154 C   0  0  0  0  0  0  0  0  0  0  0  0
    7.9249    2.3077    0.5626 C   0  0  0  0  0  0  0  0  0  0  0  0
    6.5826    2.0279    0.4904 C   0  0  0  0  0  0  0  0  0  0  0  0
    6.1782    0.6917    0.4731 C   0  0  0  0  0  0  0  0  0  0  0  0
    4.8796    0.0719    0.3847 C   0  0  0  0  0  0  0  0  0  0  0  0
    3.5955    0.5998    0.2886 C   0  0  0  0  0  0  0  0  0  0  0  0
    2.5053   -0.2502    0.1962 C   0  0  0  0  0  0  0  0  0  0  0  0
    1.1648    0.3496    0.0974 C   0  0  0  0  0  0  0  0  0  0  0  0
    0.0264   -0.4218   -0.0058 C   0  0  0  0  0  0  0  0  0  0  0  0
   -1.2018    0.1988   -0.0945 C   0  0  0  0  0  0  0  0  0  0  0  0
   -2.4543   -0.5662   -0.2067 C   0  0  0  0  0  0  0  0  0  0  0  0
   -2.4915   -1.9811   -0.2347 C   0  0  0  0  0  0  0  0  0  0  0  0
   -3.6703   -2.6711   -0.3390 C   0  0  0  0  0  0  0  0  0  0  0  0
   -4.8686   -1.9563   -0.4216 C   0  0  0  0  0  0  0  0  0  0  0  0
   -4.8504   -0.5500   -0.3920 C   0  0  0  0  0  0  0  0  0  0  0  0
   -3.6450    0.1375   -0.2853 C   0  0  0  0  0  0  0  0  0  0  0  0
   -6.2183   -0.1016   -0.4704 C   0  0  0  0  0  0  0  0  0  0  0  0
   -6.7917    1.1713   -0.4662 C   0  0  0  0  0  0  0  0  0  0  0  0
   -8.1589    1.2768   -0.5357 C   0  0  0  0  0  0  0  0  0  0  0  0
   -8.9659    0.1357   -0.6070 C   0  0  0  0  0  0  0  0  0  0  0  0
   -8.4189   -1.1230   -0.6116 C   0  0  0  0  0  0  0  0  0  0  0  0
   -7.0297   -1.2492   -0.5452 C   0  0  0  0  0  0  0  0  0  0  0  0
   -6.1980   -2.3782   -0.5294 N   0  0  0  0  0  0  0  0  0  0  0  0
   -6.6556   -3.7746   -0.4990 C   0  0  0  0  0  0  0  0  0  0  0  0
   -6.8874   -4.2543    0.9163 C   0  0  0  0  0  0  0  0  0  0  0  0
   -1.2883    1.5271   -0.0803 N   0  0  0  0  0  0  0  0  0  0  0  0
   -0.1424    2.1960    0.0213 C   0  0  0  0  0  0  0  0  0  0  0  0
   -0.2369    3.6646    0.0369 C   0  0  0  0  0  0  0  0  0  0  0  0
    0.9083    4.4481    0.1368 C   0  0  0  0  0  0  0  0  0  0  0  0
    0.8193    5.8227    0.1515 C   0  0  0  0  0  0  0  0  0  0  0  0
   -0.4149    6.4364    0.0668 C   0  0  0  0  0  0  0  0  0  0  0  0
   -1.5606    5.6718   -0.0328 C   0  0  0  0  0  0  0  0  0  0  0  0
   -1.4730    4.2971   -0.0477 C   0  0  0  0  0  0  0  0  0  0  0  0
    1.0800    1.6779    0.1106 N   0  0  0  0  0  0  0  0  0  0  0  0
    2.7247   -1.6487    0.1994 C   0  0  0  0  0  0  0  0  0  0  0  0
    3.9829   -2.1825    0.2931 C   0  0  0  0  0  0  0  0  0  0  0  0
    5.0790   -1.3206    0.3897 C   0  0  0  0  0  0  0  0  0  0  0  0
    7.8596   -4.2926   -1.0376 H   0  0  0  0  0  0  0  0  0  0  0  0
    8.0468   -2.5915   -1.4709 H   0  0  0  0  0  0  0  0  0  0  0  0
    6.4680   -3.3506   -1.5782 H   0  0  0  0  0  0  0  0  0  0  0  0
    7.9997   -2.8612    1.0404 H   0  0  0  0  0  0  0  0  0  0  0  0
    6.4255   -3.6117    0.9317 H   0  0  0  0  0  0  0  0  0  0  0  0
    9.2181   -0.8316    0.6366 H   0  0  0  0  0  0  0  0  0  0  0  0
    9.9200    1.5289    0.6694 H   0  0  0  0  0  0  0  0  0  0  0  0
    8.2548    3.3330    0.5768 H   0  0  0  0  0  0  0  0  0  0  0  0
    5.8464    2.8115    0.4450 H   0  0  0  0  0  0  0  0  0  0  0  0
    3.4470    1.6628    0.2837 H   0  0  0  0  0  0  0  0  0  0  0  0
    0.0957   -1.4901   -0.0171 H   0  0  0  0  0  0  0  0  0  0  0  0
   -1.5726   -2.5341   -0.1723 H   0  0  0  0  0  0  0  0  0  0  0  0
   -3.6876   -3.7461   -0.3567 H   0  0  0  0  0  0  0  0  0  0  0  0
   -3.6350    1.2106   -0.2611 H   0  0  0  0  0  0  0  0  0  0  0  0
   -6.1626    2.0424   -0.4071 H   0  0  0  0  0  0  0  0  0  0  0  0
   -8.6182    2.2511   -0.5337 H   0  0  0  0  0  0  0  0  0  0  0  0
  -10.0370    0.2493   -0.6586 H   0  0  0  0  0  0  0  0  0  0  0  0
   -9.0363   -2.0015   -0.6636 H   0  0  0  0  0  0  0  0  0  0  0  0
   -5.9091   -4.3909   -1.0091 H   0  0  0  0  0  0  0  0  0  0  0  0
   -7.5681   -3.8497   -1.0978 H   0  0  0  0  0  0  0  0  0  0  0  0
   -7.6379   -3.6400    1.4176 H   0  0  0  0  0  0  0  0  0  0  0  0
   -7.2277   -5.2920    0.9509 H   0  0  0  0  0  0  0  0  0  0  0  0
   -5.9716   -4.1837    1.5063 H   0  0  0  0  0  0  0  0  0  0  0  0
    1.8643    3.9596    0.2023 H   0  0  0  0  0  0  0  0  0  0  0  0
    1.7133    6.4193    0.2292 H   0  0  0  0  0  0  0  0  0  0  0  0
   -0.4841    7.5121    0.0784 H   0  0  0  0  0  0  0  0  0  0  0  0
   -2.5237    6.1505   -0.0988 H   0  0  0  0  0  0  0  0  0  0  0  0
   -2.3588    3.6919   -0.1249 H   0  0  0  0  0  0  0  0  0  0  0  0
    1.8848   -2.3145    0.1266 H   0  0  0  0  0  0  0  0  0  0  0  0
    4.1391   -3.2463    0.2923 H   0  0  0  0  0  0  0  0  0  0  0  0
  1  2  1  0  0  0  0
  2  3  1  0  0  0  0
  3  4  1  0  0  0  0
  4  5  2  0  0  0  0
  5  6  1  0  0  0  0
  6  7  2  0  0  0  0
  7  8  1  0  0  0  0
  8  9  2  0  0  0  0
  9 10  1  0  0  0  0
 10 11  2  0  0  0  0
 11 12  1  0  0  0  0
 12 13  1  0  0  0  0
 13 14  2  0  0  0  0
 14 15  1  0  0  0  0
 15 16  1  0  0  0  0
 16 17  2  0  0  0  0
 17 18  1  0  0  0  0
 18 19  2  0  0  0  0
 19 20  1  0  0  0  0
 20 21  2  0  0  0  0
 20 22  1  0  0  0  0
 22 23  2  0  0  0  0
 23 24  1  0  0  0  0
 24 25  2  0  0  0  0
 25 26  1  0  0  0  0
 26 27  2  0  0  0  0
 27 28  1  0  0  0  0
 28 29  1  0  0  0  0
 29 30  1  0  0  0  0
 15 31  2  0  0  0  0
 31 32  1  0  0  0  0
 32 33  1  0  0  0  0
 33 34  2  0  0  0  0
 34 35  1  0  0  0  0
 35 36  2  0  0  0  0
 36 37  1  0  0  0  0
 37 38  2  0  0  0  0
 32 39  2  0  0  0  0
 12 40  2  0  0  0  0
 40 41  1  0  0  0  0
 41 42  2  0  0  0  0
 42  3  1  0  0  0  0
  9  4  1  0  0  0  0
 42 10  1  0  0  0  0
 39 13  1  0  0  0  0
 21 16  1  0  0  0  0
 27 22  1  0  0  0  0
 38 33  1  0  0  0  0
 28 19  1  0  0  0  0
  1 43  1  0  0  0  0
  1 44  1  0  0  0  0
  1 45  1  0  0  0  0
  2 46  1  0  0  0  0
  2 47  1  0  0  0  0
  5 48  1  0  0  0  0
  6 49  1  0  0  0  0
  7 50  1  0  0  0  0
  8 51  1  0  0  0  0
 11 52  1  0  0  0  0
 14 53  1  0  0  0  0
 17 54  1  0  0  0  0
 18 55  1  0  0  0  0
 21 56  1  0  0  0  0
 23 57  1  0  0  0  0
 24 58  1  0  0  0  0
 25 59  1  0  0  0  0
 26 60  1  0  0  0  0
 29 61  1  0  0  0  0
 29 62  1  0  0  0  0
 30 63  1  0  0  0  0
 30 64  1  0  0  0  0
 30 65  1  0  0  0  0
 34 66  1  0  0  0  0
 35 67  1  0  0  0  0
 36 68  1  0  0  0  0
 37 69  1  0  0  0  0
 38 70  1  0  0  0  0
 40 71  1  0  0  0  0
 41 72  1  0  0  0  0
M  END
