
  xtb     03212210123D
 energy: -7.891238407892 gnorm: 0.000247599903 xtb: 6.4.1 (afa7bdf)
 39 40  0     0  0            999 V2000
    5.0214   -0.7939   -0.9948 C   0  0  0  0  0  0  0  0  0  0  0  0
    3.5951   -1.0783   -1.4108 C   0  0  0  0  0  0  0  0  0  0  0  0
    2.6819   -0.9960   -0.3408 O   0  0  0  0  0  0  0  0  0  0  0  0
    2.8288   -2.0642    0.4969 C   0  0  0  0  0  0  0  0  0  0  0  0
    3.7268   -2.8748    0.4236 O   0  0  0  0  0  0  0  0  0  0  0  0
    1.7575   -2.2454    1.5165 C   0  0  0  0  0  0  0  0  0  0  0  0
    0.4173   -3.1036    0.7545 S   0  0  0  0  0  0  0  0  0  0  0  0
   -0.3114   -1.6889   -0.0478 C   0  0  0  0  0  0  0  0  0  0  0  0
   -1.0086   -0.8614    0.7225 N   0  0  0  0  0  0  0  0  0  0  0  0
   -1.5318    0.2254    0.1466 C   0  0  0  0  0  0  0  0  0  0  0  0
   -2.2832    1.1437    1.0381 C   0  0  0  0  0  0  0  0  0  0  0  0
   -1.9217    2.4805    1.1752 C   0  0  0  0  0  0  0  0  0  0  0  0
   -2.6183    3.3074    2.0262 C   0  0  0  0  0  0  0  0  0  0  0  0
   -3.6781    2.8157    2.7595 C   0  0  0  0  0  0  0  0  0  0  0  0
   -4.0358    1.4887    2.6444 C   0  0  0  0  0  0  0  0  0  0  0  0
   -3.3428    0.6569    1.7952 C   0  0  0  0  0  0  0  0  0  0  0  0
   -1.4036    0.5031   -1.2221 C   0  0  0  0  0  0  0  0  0  0  0  0
   -2.0315    1.7071   -1.8304 C   0  0  0  0  0  0  0  0  0  0  0  0
   -0.6635   -0.3670   -2.0128 C   0  0  0  0  0  0  0  0  0  0  0  0
   -0.4775   -0.0929   -3.3750 C   0  0  0  0  0  0  0  0  0  0  0  0
   -0.3456    0.1820   -4.4958 N   0  0  0  0  0  0  0  0  0  0  0  0
   -0.1096   -1.5000   -1.4120 C   0  0  0  0  0  0  0  0  0  0  0  0
    0.6598   -2.4032   -2.1586 C   0  0  0  0  0  0  0  0  0  0  0  0
    1.3184   -3.1448   -2.7627 N   0  0  0  0  0  0  0  0  0  0  0  0
    5.7145   -0.8499   -1.8354 H   0  0  0  0  0  0  0  0  0  0  0  0
    5.3420   -1.5161   -0.2424 H   0  0  0  0  0  0  0  0  0  0  0  0
    5.1021    0.1976   -0.5494 H   0  0  0  0  0  0  0  0  0  0  0  0
    3.4885   -2.0888   -1.8354 H   0  0  0  0  0  0  0  0  0  0  0  0
    3.2469   -0.3711   -2.1761 H   0  0  0  0  0  0  0  0  0  0  0  0
    1.4121   -1.2814    1.8904 H   0  0  0  0  0  0  0  0  0  0  0  0
    2.1346   -2.8313    2.3547 H   0  0  0  0  0  0  0  0  0  0  0  0
   -1.0787    2.8546    0.6219 H   0  0  0  0  0  0  0  0  0  0  0  0
   -2.3311    4.3422    2.1248 H   0  0  0  0  0  0  0  0  0  0  0  0
   -4.2211    3.4653    3.4261 H   0  0  0  0  0  0  0  0  0  0  0  0
   -4.8584    1.1010    3.2242 H   0  0  0  0  0  0  0  0  0  0  0  0
   -3.6073   -0.3822    1.7083 H   0  0  0  0  0  0  0  0  0  0  0  0
   -1.3404    2.5497   -1.8229 H   0  0  0  0  0  0  0  0  0  0  0  0
   -2.9350    1.9971   -1.2944 H   0  0  0  0  0  0  0  0  0  0  0  0
   -2.3123    1.5173   -2.8667 H   0  0  0  0  0  0  0  0  0  0  0  0
  1  2  1  0  0  0  0
  2  3  1  0  0  0  0
  3  4  1  0  0  0  0
  4  5  2  0  0  0  0
  4  6  1  0  0  0  0
  6  7  1  0  0  0  0
  7  8  1  0  0  0  0
  8  9  2  0  0  0  0
  9 10  1  0  0  0  0
 10 11  1  0  0  0  0
 11 12  2  0  0  0  0
 12 13  1  0  0  0  0
 13 14  2  0  0  0  0
 14 15  1  0  0  0  0
 15 16  2  0  0  0  0
 10 17  2  0  0  0  0
 17 18  1  0  0  0  0
 17 19  1  0  0  0  0
 19 20  1  0  0  0  0
 20 21  3  0  0  0  0
 19 22  2  0  0  0  0
 22 23  1  0  0  0  0
 23 24  3  0  0  0  0
 22  8  1  0  0  0  0
 16 11  1  0  0  0  0
  1 25  1  0  0  0  0
  1 26  1  0  0  0  0
  1 27  1  0  0  0  0
  2 28  1  0  0  0  0
  2 29  1  0  0  0  0
  6 30  1  0  0  0  0
  6 31  1  0  0  0  0
 12 32  1  0  0  0  0
 13 33  1  0  0  0  0
 14 34  1  0  0  0  0
 15 35  1  0  0  0  0
 16 36  1  0  0  0  0
 18 37  1  0  0  0  0
 18 38  1  0  0  0  0
 18 39  1  0  0  0  0
M  END
