
  xtb     03212210123D
 energy: -4.716808401424 gnorm: 0.000463192369 xtb: 6.4.1 (afa7bdf)
 22 23  0     0  0            999 V2000
    4.8030   -0.9194   -0.6653 C   0  0  0  0  0  0  0  0  0  0  0  0
    3.6249   -0.7211   -0.4501 C   0  0  0  0  0  0  0  0  0  0  0  0
    2.2533   -0.4862   -0.2013 C   0  0  0  0  0  0  0  0  0  0  0  0
    1.5704   -1.2069    0.7831 C   0  0  0  0  0  0  0  0  0  0  0  0
    0.2419   -0.9797    1.0259 C   0  0  0  0  0  0  0  0  0  0  0  0
   -0.4705   -0.0204    0.2970 C   0  0  0  0  0  0  0  0  0  0  0  0
   -1.8660    0.2523    0.5185 C   0  0  0  0  0  0  0  0  0  0  0  0
   -2.6363   -0.4870    1.5554 C   0  0  0  0  0  0  0  0  0  0  0  0
   -2.4615    1.1924   -0.2364 C   0  0  0  0  0  0  0  0  0  0  0  0
   -1.7540    1.9356   -1.2560 C   0  0  0  0  0  0  0  0  0  0  0  0
   -2.3750    2.7720   -1.8975 O   0  0  0  0  0  0  0  0  0  0  0  0
   -0.4196    1.6778   -1.4663 O   0  0  0  0  0  0  0  0  0  0  0  0
    0.2050    0.7118   -0.6976 C   0  0  0  0  0  0  0  0  0  0  0  0
    1.5608    0.4597   -0.9249 C   0  0  0  0  0  0  0  0  0  0  0  0
    5.8376   -1.0929   -0.8545 H   0  0  0  0  0  0  0  0  0  0  0  0
    2.1085   -1.9468    1.3501 H   0  0  0  0  0  0  0  0  0  0  0  0
   -0.2641   -1.5459    1.7877 H   0  0  0  0  0  0  0  0  0  0  0  0
   -3.6708   -0.1452    1.6000 H   0  0  0  0  0  0  0  0  0  0  0  0
   -2.1984   -0.3414    2.5432 H   0  0  0  0  0  0  0  0  0  0  0  0
   -2.6511   -1.5559    1.3405 H   0  0  0  0  0  0  0  0  0  0  0  0
   -3.5017    1.4207   -0.0986 H   0  0  0  0  0  0  0  0  0  0  0  0
    2.0638    1.0261   -1.6869 H   0  0  0  0  0  0  0  0  0  0  0  0
  1  2  3  0  0  0  0
  2  3  1  0  0  0  0
  3  4  2  0  0  0  0
  4  5  1  0  0  0  0
  5  6  2  0  0  0  0
  6  7  1  0  0  0  0
  7  8  1  0  0  0  0
  7  9  2  0  0  0  0
  9 10  1  0  0  0  0
 10 11  2  0  0  0  0
 10 12  1  0  0  0  0
 12 13  1  0  0  0  0
 13 14  2  0  0  0  0
 14  3  1  0  0  0  0
 13  6  1  0  0  0  0
  1 15  1  0  0  0  0
  4 16  1  0  0  0  0
  5 17  1  0  0  0  0
  8 18  1  0  0  0  0
  8 19  1  0  0  0  0
  8 20  1  0  0  0  0
  9 21  1  0  0  0  0
 14 22  1  0  0  0  0
M  END
