
  xtb     03212210123D
 energy: -8.366929174829 gnorm: 0.000446324016 xtb: 6.4.1 (afa7bdf)
 38 41  0     0  0            999 V2000
    2.0640    3.9294   -1.9986 N   0  0  0  0  0  0  0  0  0  0  0  0
    1.3164    3.1202   -1.6174 C   0  0  0  0  0  0  0  0  0  0  0  0
    0.4686    2.1589   -1.1232 C   0  0  0  0  0  0  0  0  0  0  0  0
   -0.7258    2.4409   -0.4874 C   0  0  0  0  0  0  0  0  0  0  0  0
   -1.2714    3.6684   -0.2496 N   0  0  0  0  0  0  0  0  0  0  0  0
   -1.3638    1.2487   -0.1340 N   0  0  0  0  0  0  0  0  0  0  0  0
   -2.6455    1.0728    0.3686 C   0  0  0  0  0  0  0  0  0  0  0  0
   -3.3250    2.0188    0.7330 O   0  0  0  0  0  0  0  0  0  0  0  0
   -3.1440   -0.3013    0.3971 C   0  0  0  0  0  0  0  0  0  0  0  0
   -4.4032   -0.5670    0.9173 C   0  0  0  0  0  0  0  0  0  0  0  0
   -4.9064   -1.8451    0.9142 C   0  0  0  0  0  0  0  0  0  0  0  0
   -4.1610   -2.8833    0.3838 C   0  0  0  0  0  0  0  0  0  0  0  0
   -2.9133   -2.6379   -0.1381 C   0  0  0  0  0  0  0  0  0  0  0  0
   -2.3835   -1.3549   -0.1384 C   0  0  0  0  0  0  0  0  0  0  0  0
   -1.0481   -1.1213   -0.6913 C   0  0  0  0  0  0  0  0  0  0  0  0
   -0.4320   -2.0080   -1.2661 O   0  0  0  0  0  0  0  0  0  0  0  0
   -0.5103    0.1431   -0.5106 N   0  0  0  0  0  0  0  0  0  0  0  0
    0.7049    0.6490   -1.1683 C   0  0  0  0  0  0  0  0  0  0  0  0
    1.9704    0.1767   -0.4879 C   0  0  0  0  0  0  0  0  0  0  0  0
    3.0139    1.0364   -0.1737 C   0  0  0  0  0  0  0  0  0  0  0  0
    4.1509    0.5692    0.4438 C   0  0  0  0  0  0  0  0  0  0  0  0
    4.2747   -0.7693    0.7512 C   0  0  0  0  0  0  0  0  0  0  0  0
    5.4828   -1.2656    1.4091 N   0  0  0  0  0  4  0  0  0  0  0  0
    6.3755   -0.4555    1.6892 O   0  0  0  0  0  0  0  0  0  0  0  0
    5.5623   -2.4754    1.6588 O   0  0  0  0  0  1  0  0  0  0  0  0
    3.2556   -1.6387    0.4266 C   0  0  0  0  0  0  0  0  0  0  0  0
    2.1200   -1.1674   -0.1885 C   0  0  0  0  0  0  0  0  0  0  0  0
   -2.1975    3.7369    0.1602 H   0  0  0  0  0  0  0  0  0  0  0  0
   -0.8870    4.5379   -0.5935 H   0  0  0  0  0  0  0  0  0  0  0  0
   -4.9758    0.2546    1.3139 H   0  0  0  0  0  0  0  0  0  0  0  0
   -5.8863   -2.0388    1.3212 H   0  0  0  0  0  0  0  0  0  0  0  0
   -4.5596   -3.8838    0.3787 H   0  0  0  0  0  0  0  0  0  0  0  0
   -2.3228   -3.4346   -0.5587 H   0  0  0  0  0  0  0  0  0  0  0  0
    0.6959    0.3012   -2.2101 H   0  0  0  0  0  0  0  0  0  0  0  0
    2.9463    2.0785   -0.4288 H   0  0  0  0  0  0  0  0  0  0  0  0
    4.9624    1.2343    0.6923 H   0  0  0  0  0  0  0  0  0  0  0  0
    3.3698   -2.6846    0.6610 H   0  0  0  0  0  0  0  0  0  0  0  0
    1.3281   -1.8438   -0.4560 H   0  0  0  0  0  0  0  0  0  0  0  0
  1  2  3  0  0  0  0
  2  3  1  0  0  0  0
  3  4  2  0  0  0  0
  4  5  1  0  0  0  0
  4  6  1  0  0  0  0
  6  7  1  0  0  0  0
  7  8  2  0  0  0  0
  7  9  1  0  0  0  0
  9 10  2  0  0  0  0
 10 11  1  0  0  0  0
 11 12  2  0  0  0  0
 12 13  1  0  0  0  0
 13 14  2  0  0  0  0
 14 15  1  0  0  0  0
 15 16  2  0  0  0  0
 15 17  1  0  0  0  0
 17 18  1  0  0  0  0
 18 19  1  0  0  0  0
 19 20  2  0  0  0  0
 20 21  1  0  0  0  0
 21 22  2  0  0  0  0
 22 23  1  0  0  0  0
 23 24  2  0  0  0  0
 23 25  1  0  0  0  0
 22 26  1  0  0  0  0
 26 27  2  0  0  0  0
 18  3  1  0  0  0  0
 27 19  1  0  0  0  0
 17  6  1  0  0  0  0
 14  9  1  0  0  0  0
  5 28  1  0  0  0  0
  5 29  1  0  0  0  0
 10 30  1  0  0  0  0
 11 31  1  0  0  0  0
 12 32  1  0  0  0  0
 13 33  1  0  0  0  0
 18 34  1  0  0  0  0
 20 35  1  0  0  0  0
 21 36  1  0  0  0  0
 26 37  1  0  0  0  0
 27 38  1  0  0  0  0
M  CHG  1  23   1
M  CHG  1  25  -1
M  END
