
  xtb     03212210123D
 energy: -5.179248737035 gnorm: 0.000266031992 xtb: 6.4.1 (afa7bdf)
 27 28  0     0  0            999 V2000
   -3.6521    1.4928   -1.4972 C   0  0  0  0  0  0  0  0  0  0  0  0
   -2.5334    0.8793   -0.7346 C   0  0  0  0  0  0  0  0  0  0  0  0
   -1.5822    0.0790   -1.4031 C   0  0  0  0  0  0  0  0  0  0  0  0
   -0.5299   -0.4824   -0.7402 C   0  0  0  0  0  0  0  0  0  0  0  0
   -0.3958   -0.2527    0.6386 C   0  0  0  0  0  0  0  0  0  0  0  0
    0.5527   -0.6825    1.5988 C   0  0  0  0  0  0  0  0  0  0  0  0
    1.7034   -1.6054    1.3808 C   0  0  0  0  0  0  0  0  0  0  0  0
    2.4700   -1.2920    0.1341 C   0  0  0  0  0  0  0  0  0  0  0  0
    2.1320   -1.7463   -0.9393 O   0  0  0  0  0  0  0  0  0  0  0  0
    3.5481   -0.4373    0.2148 N   0  0  0  0  0  0  0  0  0  0  0  0
    3.9319    0.2021   -0.9478 N   0  0  0  0  0  0  0  0  0  0  0  0
    0.1532   -0.1275    2.7913 C   0  0  0  0  0  0  0  0  0  0  0  0
   -0.9749    0.6292    2.6497 O   0  0  0  0  0  0  0  0  0  0  0  0
   -1.3296    0.5566    1.3199 C   0  0  0  0  0  0  0  0  0  0  0  0
   -2.3993    1.1218    0.6097 C   0  0  0  0  0  0  0  0  0  0  0  0
   -3.9549    0.8573   -2.3310 H   0  0  0  0  0  0  0  0  0  0  0  0
   -3.3586    2.4629   -1.9012 H   0  0  0  0  0  0  0  0  0  0  0  0
   -4.5264    1.6426   -0.8617 H   0  0  0  0  0  0  0  0  0  0  0  0
   -1.6947   -0.0817   -2.4608 H   0  0  0  0  0  0  0  0  0  0  0  0
    0.2105   -1.0750   -1.2471 H   0  0  0  0  0  0  0  0  0  0  0  0
    2.3770   -1.5701    2.2420 H   0  0  0  0  0  0  0  0  0  0  0  0
    1.3357   -2.6333    1.3163 H   0  0  0  0  0  0  0  0  0  0  0  0
    3.6393    0.1790    1.0239 H   0  0  0  0  0  0  0  0  0  0  0  0
    3.2466    0.8648   -1.2881 H   0  0  0  0  0  0  0  0  0  0  0  0
    4.0775   -0.4526   -1.7051 H   0  0  0  0  0  0  0  0  0  0  0  0
    0.6588   -0.2690    3.7374 H   0  0  0  0  0  0  0  0  0  0  0  0
   -3.1050    1.7406    1.1305 H   0  0  0  0  0  0  0  0  0  0  0  0
  1  2  1  0  0  0  0
  2  3  2  0  0  0  0
  3  4  1  0  0  0  0
  4  5  2  0  0  0  0
  5  6  1  0  0  0  0
  6  7  1  0  0  0  0
  7  8  1  0  0  0  0
  8  9  2  0  0  0  0
  8 10  1  0  0  0  0
 10 11  1  0  0  0  0
  6 12  2  0  0  0  0
 12 13  1  0  0  0  0
 13 14  1  0  0  0  0
 14 15  2  0  0  0  0
 15  2  1  0  0  0  0
 14  5  1  0  0  0  0
  1 16  1  0  0  0  0
  1 17  1  0  0  0  0
  1 18  1  0  0  0  0
  3 19  1  0  0  0  0
  4 20  1  0  0  0  0
  7 21  1  0  0  0  0
  7 22  1  0  0  0  0
 10 23  1  0  0  0  0
 11 24  1  0  0  0  0
 11 25  1  0  0  0  0
 12 26  1  0  0  0  0
 15 27  1  0  0  0  0
M  END
