
  xtb     03212210133D
 energy: -15.500212949393 gnorm: 0.000364541041 xtb: 6.4.1 (afa7bdf)
 76 81  0     0  0            999 V2000
   -2.5464   -4.9882   -2.7883 C   0  0  0  0  0  0  0  0  0  0  0  0
   -3.2065   -4.2650   -1.6680 C   0  0  0  0  0  0  0  0  0  0  0  0
   -4.4542   -3.6759   -1.8184 C   0  0  0  0  0  0  0  0  0  0  0  0
   -5.0241   -2.9615   -0.7831 C   0  0  0  0  0  0  0  0  0  0  0  0
   -4.3586   -2.8394    0.4142 C   0  0  0  0  0  0  0  0  0  0  0  0
   -5.0415   -1.8416    1.7633 S   0  0  0  0  0  6  0  0  0  0  0  0
   -5.4570   -2.7861    2.8503 O   0  0  0  0  0  0  0  0  0  0  0  0
   -6.0570   -0.9217    1.1400 O   0  0  0  0  0  0  0  0  0  0  0  0
   -3.6041   -1.0533    2.0338 N   0  0  0  0  0  0  0  0  0  0  0  0
   -3.5266    0.1439    1.6353 C   0  0  0  0  0  0  0  0  0  0  0  0
   -2.2920    0.8884    1.6767 C   0  0  0  0  0  0  0  0  0  0  0  0
   -2.2214    2.1646    1.2381 C   0  0  0  0  0  0  0  0  0  0  0  0
   -0.9811    2.8748    1.0126 C   0  0  0  0  0  0  0  0  0  0  0  0
   -0.7790    4.2695    1.0185 C   0  0  0  0  0  0  0  0  0  0  0  0
   -1.7830    5.3042    1.3014 C   0  0  0  0  0  0  0  0  0  0  0  0
   -1.4447    6.3756    2.1221 C   0  0  0  0  0  0  0  0  0  0  0  0
   -2.3570    7.3684    2.3981 C   0  0  0  0  0  0  0  0  0  0  0  0
   -3.6218    7.3148    1.8488 C   0  0  0  0  0  0  0  0  0  0  0  0
   -3.9678    6.2719    1.0138 C   0  0  0  0  0  0  0  0  0  0  0  0
   -3.0569    5.2780    0.7368 C   0  0  0  0  0  0  0  0  0  0  0  0
    0.5297    4.5535    0.7303 O   0  0  0  0  0  0  0  0  0  0  0  0
    1.1673    3.3635    0.5027 C   0  0  0  0  0  0  0  0  0  0  0  0
    2.5817    3.2701    0.1412 C   0  0  0  0  0  0  0  0  0  0  0  0
    3.3405    2.1220    0.3598 C   0  0  0  0  0  0  0  0  0  0  0  0
    4.6723    2.0830    0.0148 C   0  0  0  0  0  0  0  0  0  0  0  0
    5.2739    3.1907   -0.5470 C   0  0  0  0  0  0  0  0  0  0  0  0
    4.5416    4.3414   -0.7564 C   0  0  0  0  0  0  0  0  0  0  0  0
    3.2097    4.3808   -0.4115 C   0  0  0  0  0  0  0  0  0  0  0  0
    0.2617    2.2971    0.6633 C   0  0  0  0  0  0  0  0  0  0  0  0
    0.5014    0.8994    0.3749 C   0  0  0  0  0  0  0  0  0  0  0  0
   -0.1382   -0.1163    0.9856 C   0  0  0  0  0  0  0  0  0  0  0  0
    0.0490   -1.4669    0.5182 C   0  0  0  0  0  0  0  0  0  0  0  0
    0.8091   -1.7792   -0.4425 N   0  0  0  0  0  0  0  0  0  0  0  0
    0.8356   -3.3973   -0.8282 S   0  0  0  0  0  6  0  0  0  0  0  0
    0.2090   -3.7087   -2.1595 O   0  0  0  0  0  0  0  0  0  0  0  0
    0.3767   -4.2506    0.3283 O   0  0  0  0  0  0  0  0  0  0  0  0
    2.6210   -3.5635   -0.9768 C   0  0  0  0  0  0  0  0  0  0  0  0
    3.2435   -3.2288   -2.1554 C   0  0  0  0  0  0  0  0  0  0  0  0
    4.6141   -3.3463   -2.2662 C   0  0  0  0  0  0  0  0  0  0  0  0
    5.3738   -3.7937   -1.1949 C   0  0  0  0  0  0  0  0  0  0  0  0
    6.8485   -3.9456   -1.3193 C   0  0  0  0  0  0  0  0  0  0  0  0
    4.7265   -4.1361   -0.0167 C   0  0  0  0  0  0  0  0  0  0  0  0
    3.3560   -4.0178    0.0919 C   0  0  0  0  0  0  0  0  0  0  0  0
   -1.0693    0.1600    2.1167 C   0  0  0  0  0  0  0  0  0  0  0  0
   -3.1379   -3.4468    0.5889 C   0  0  0  0  0  0  0  0  0  0  0  0
   -2.5611   -4.1481   -0.4480 C   0  0  0  0  0  0  0  0  0  0  0  0
   -1.5391   -4.6006   -2.9500 H   0  0  0  0  0  0  0  0  0  0  0  0
   -2.4659   -6.0528   -2.5680 H   0  0  0  0  0  0  0  0  0  0  0  0
   -3.1023   -4.8758   -3.7190 H   0  0  0  0  0  0  0  0  0  0  0  0
   -4.9679   -3.7615   -2.7605 H   0  0  0  0  0  0  0  0  0  0  0  0
   -5.9777   -2.4744   -0.9052 H   0  0  0  0  0  0  0  0  0  0  0  0
   -4.3993    0.5921    1.1782 H   0  0  0  0  0  0  0  0  0  0  0  0
   -3.1422    2.6662    1.0050 H   0  0  0  0  0  0  0  0  0  0  0  0
   -0.4520    6.4129    2.5393 H   0  0  0  0  0  0  0  0  0  0  0  0
   -2.0827    8.1878    3.0416 H   0  0  0  0  0  0  0  0  0  0  0  0
   -4.3363    8.0917    2.0648 H   0  0  0  0  0  0  0  0  0  0  0  0
   -4.9502    6.2390    0.5724 H   0  0  0  0  0  0  0  0  0  0  0  0
   -3.3116    4.4943    0.0442 H   0  0  0  0  0  0  0  0  0  0  0  0
    2.8855    1.2663    0.8274 H   0  0  0  0  0  0  0  0  0  0  0  0
    5.2463    1.1877    0.1875 H   0  0  0  0  0  0  0  0  0  0  0  0
    6.3166    3.1590   -0.8163 H   0  0  0  0  0  0  0  0  0  0  0  0
    5.0118    5.2094   -1.1879 H   0  0  0  0  0  0  0  0  0  0  0  0
    2.6302    5.2763   -0.5642 H   0  0  0  0  0  0  0  0  0  0  0  0
    1.1883    0.6533   -0.4154 H   0  0  0  0  0  0  0  0  0  0  0  0
   -0.5083   -2.2592    1.0005 H   0  0  0  0  0  0  0  0  0  0  0  0
    2.6492   -2.8814   -2.9844 H   0  0  0  0  0  0  0  0  0  0  0  0
    5.1041   -3.0922   -3.1905 H   0  0  0  0  0  0  0  0  0  0  0  0
    7.2533   -3.2632   -2.0669 H   0  0  0  0  0  0  0  0  0  0  0  0
    7.3460   -3.7326   -0.3729 H   0  0  0  0  0  0  0  0  0  0  0  0
    7.1086   -4.9621   -1.6152 H   0  0  0  0  0  0  0  0  0  0  0  0
    5.3045   -4.4992    0.8158 H   0  0  0  0  0  0  0  0  0  0  0  0
    2.8475   -4.2832    1.0043 H   0  0  0  0  0  0  0  0  0  0  0  0
   -1.3608   -0.7779    2.6003 H   0  0  0  0  0  0  0  0  0  0  0  0
   -0.5512    0.7462    2.8824 H   0  0  0  0  0  0  0  0  0  0  0  0
   -2.6266   -3.3427    1.5320 H   0  0  0  0  0  0  0  0  0  0  0  0
   -1.5731   -4.5608   -0.3317 H   0  0  0  0  0  0  0  0  0  0  0  0
  1  2  1  0  0  0  0
  2  3  2  0  0  0  0
  3  4  1  0  0  0  0
  4  5  2  0  0  0  0
  5  6  1  0  0  0  0
  6  7  2  0  0  0  0
  6  8  2  0  0  0  0
  6  9  1  0  0  0  0
  9 10  2  0  0  0  0
 10 11  1  0  0  0  0
 11 12  2  0  0  0  0
 12 13  1  0  0  0  0
 13 14  2  0  0  0  0
 14 15  1  0  0  0  0
 15 16  2  0  0  0  0
 16 17  1  0  0  0  0
 17 18  2  0  0  0  0
 18 19  1  0  0  0  0
 19 20  2  0  0  0  0
 14 21  1  0  0  0  0
 21 22  1  0  0  0  0
 22 23  1  0  0  0  0
 23 24  2  0  0  0  0
 24 25  1  0  0  0  0
 25 26  2  0  0  0  0
 26 27  1  0  0  0  0
 27 28  2  0  0  0  0
 22 29  2  0  0  0  0
 29 30  1  0  0  0  0
 30 31  2  0  0  0  0
 31 32  1  0  0  0  0
 32 33  2  0  0  0  0
 33 34  1  0  0  0  0
 34 35  2  0  0  0  0
 34 36  2  0  0  0  0
 34 37  1  0  0  0  0
 37 38  2  0  0  0  0
 38 39  1  0  0  0  0
 39 40  2  0  0  0  0
 40 41  1  0  0  0  0
 40 42  1  0  0  0  0
 42 43  2  0  0  0  0
 31 44  1  0  0  0  0
  5 45  1  0  0  0  0
 45 46  2  0  0  0  0
 46  2  1  0  0  0  0
 44 11  1  0  0  0  0
 29 13  1  0  0  0  0
 43 37  1  0  0  0  0
 20 15  1  0  0  0  0
 28 23  1  0  0  0  0
  1 47  1  0  0  0  0
  1 48  1  0  0  0  0
  1 49  1  0  0  0  0
  3 50  1  0  0  0  0
  4 51  1  0  0  0  0
 10 52  1  0  0  0  0
 12 53  1  0  0  0  0
 16 54  1  0  0  0  0
 17 55  1  0  0  0  0
 18 56  1  0  0  0  0
 19 57  1  0  0  0  0
 20 58  1  0  0  0  0
 24 59  1  0  0  0  0
 25 60  1  0  0  0  0
 26 61  1  0  0  0  0
 27 62  1  0  0  0  0
 28 63  1  0  0  0  0
 30 64  1  0  0  0  0
 32 65  1  0  0  0  0
 38 66  1  0  0  0  0
 39 67  1  0  0  0  0
 41 68  1  0  0  0  0
 41 69  1  0  0  0  0
 41 70  1  0  0  0  0
 42 71  1  0  0  0  0
 43 72  1  0  0  0  0
 44 73  1  0  0  0  0
 44 74  1  0  0  0  0
 45 75  1  0  0  0  0
 46 76  1  0  0  0  0
M  END
