
  xtb     03212210143D
 energy: -7.056038790546 gnorm: 0.000079417756 xtb: 6.4.1 (afa7bdf)
 34 36  0     0  0            999 V2000
    6.5352    0.2088   -0.7328 C   0  0  0  0  0  0  0  0  0  0  0  0
    5.5774    0.6241    0.2091 O   0  0  0  0  0  0  0  0  0  0  0  0
    4.2656    0.2305   -0.0710 C   0  0  0  0  0  0  0  0  0  0  0  0
    3.2745    0.6003    0.8426 C   0  0  0  0  0  0  0  0  0  0  0  0
    1.9624    0.2551    0.6467 C   0  0  0  0  0  0  0  0  0  0  0  0
    1.5789   -0.4712   -0.4785 C   0  0  0  0  0  0  0  0  0  0  0  0
    0.2352   -0.8690   -0.6873 N   0  0  0  0  0  0  0  0  0  0  0  0
   -0.9542   -0.2789   -0.3163 C   0  0  0  0  0  0  0  0  0  0  0  0
   -1.0569    0.9924    0.1663 C   0  0  0  0  0  0  0  0  0  0  0  0
   -2.3087    1.5752    0.5445 C   0  0  0  0  0  0  0  0  0  0  0  0
   -2.3700    2.7205    0.9752 O   0  0  0  0  0  0  0  0  0  0  0  0
   -3.5239    0.7608    0.4026 C   0  0  0  0  0  0  0  0  0  0  0  0
   -4.7582    1.2717    0.7746 C   0  0  0  0  0  0  0  0  0  0  0  0
   -5.8983    0.5141    0.6422 C   0  0  0  0  0  0  0  0  0  0  0  0
   -5.8220   -0.7699    0.1327 C   0  0  0  0  0  0  0  0  0  0  0  0
   -4.6060   -1.2914   -0.2427 C   0  0  0  0  0  0  0  0  0  0  0  0
   -3.4481   -0.5397   -0.1136 C   0  0  0  0  0  0  0  0  0  0  0  0
   -2.1515   -1.0983   -0.5121 C   0  0  0  0  0  0  0  0  0  0  0  0
   -2.0477   -2.2104   -0.9930 O   0  0  0  0  0  0  0  0  0  0  0  0
    2.5641   -0.8549   -1.3860 C   0  0  0  0  0  0  0  0  0  0  0  0
    3.8773   -0.5087   -1.1923 C   0  0  0  0  0  0  0  0  0  0  0  0
    6.5523   -0.8802   -0.7881 H   0  0  0  0  0  0  0  0  0  0  0  0
    6.3081    0.6422   -1.7074 H   0  0  0  0  0  0  0  0  0  0  0  0
    7.5134    0.5630   -0.4057 H   0  0  0  0  0  0  0  0  0  0  0  0
    3.5715    1.1582    1.7129 H   0  0  0  0  0  0  0  0  0  0  0  0
    1.2234    0.5041    1.3868 H   0  0  0  0  0  0  0  0  0  0  0  0
    0.0985   -1.7717   -1.1470 H   0  0  0  0  0  0  0  0  0  0  0  0
   -0.1856    1.6130    0.2377 H   0  0  0  0  0  0  0  0  0  0  0  0
   -4.8000    2.2734    1.1678 H   0  0  0  0  0  0  0  0  0  0  0  0
   -6.8520    0.9213    0.9355 H   0  0  0  0  0  0  0  0  0  0  0  0
   -6.7162   -1.3619    0.0300 H   0  0  0  0  0  0  0  0  0  0  0  0
   -4.5278   -2.2881   -0.6413 H   0  0  0  0  0  0  0  0  0  0  0  0
    2.2746   -1.4227   -2.2527 H   0  0  0  0  0  0  0  0  0  0  0  0
    4.6150   -0.8116   -1.9125 H   0  0  0  0  0  0  0  0  0  0  0  0
  1  2  1  0  0  0  0
  2  3  1  0  0  0  0
  3  4  2  0  0  0  0
  4  5  1  0  0  0  0
  5  6  2  0  0  0  0
  6  7  1  0  0  0  0
  7  8  1  0  0  0  0
  8  9  2  0  0  0  0
  9 10  1  0  0  0  0
 10 11  2  0  0  0  0
 10 12  1  0  0  0  0
 12 13  2  0  0  0  0
 13 14  1  0  0  0  0
 14 15  2  0  0  0  0
 15 16  1  0  0  0  0
 16 17  2  0  0  0  0
 17 18  1  0  0  0  0
 18 19  2  0  0  0  0
  6 20  1  0  0  0  0
 20 21  2  0  0  0  0
 21  3  1  0  0  0  0
 18  8  1  0  0  0  0
 17 12  1  0  0  0  0
  1 22  1  0  0  0  0
  1 23  1  0  0  0  0
  1 24  1  0  0  0  0
  4 25  1  0  0  0  0
  5 26  1  0  0  0  0
  7 27  1  0  0  0  0
  9 28  1  0  0  0  0
 13 29  1  0  0  0  0
 14 30  1  0  0  0  0
 15 31  1  0  0  0  0
 16 32  1  0  0  0  0
 20 33  1  0  0  0  0
 21 34  1  0  0  0  0
M  END
