
  xtb     03212210133D
 energy: -18.423835765155 gnorm: 0.000368961725 xtb: 6.4.1 (afa7bdf)
 96102  0     0  0            999 V2000
   -9.7492    0.3298    2.2400 C   0  0  0  0  0  0  0  0  0  0  0  0
   -9.1077    0.2380    0.9896 O   0  0  0  0  0  0  0  0  0  0  0  0
   -7.7236    0.0902    1.0379 C   0  0  0  0  0  0  0  0  0  0  0  0
   -6.9672    0.2319    2.1998 C   0  0  0  0  0  0  0  0  0  0  0  0
   -5.6024    0.0853    2.1862 C   0  0  0  0  0  0  0  0  0  0  0  0
   -4.9226   -0.2184    1.0053 C   0  0  0  0  0  0  0  0  0  0  0  0
   -3.4495   -0.3887    0.9940 C   0  0  0  0  0  0  0  0  0  0  0  0
   -2.9009   -1.6235    0.6343 C   0  0  0  0  0  0  0  0  0  0  0  0
   -1.6028   -1.9444    0.5930 N   0  0  0  0  0  0  0  0  0  0  0  0
   -1.4639   -3.2574    0.2636 C   0  0  0  0  0  0  0  0  0  0  0  0
   -0.3058   -3.9486    0.0757 C   0  0  0  0  0  0  0  0  0  0  0  0
    1.0020   -3.4315    0.2125 C   0  0  0  0  0  0  0  0  0  0  0  0
    2.1739   -4.1578   -0.0379 C   0  0  0  0  0  0  0  0  0  0  0  0
    3.2438   -3.3333    0.2092 C   0  0  0  0  0  0  0  0  0  0  0  0
    2.7508   -2.0867    0.6242 C   0  0  0  0  0  0  0  0  0  0  0  0
    1.3750   -2.1683    0.6116 N   0  0  0  0  0  0  0  0  0  0  0  0
    3.5683   -0.9631    0.9703 C   0  0  0  0  0  0  0  0  0  0  0  0
    5.0415   -1.1312    0.9508 C   0  0  0  0  0  0  0  0  0  0  0  0
    5.6667   -2.0760    1.7663 C   0  0  0  0  0  0  0  0  0  0  0  0
    7.0306   -2.2282    1.7544 C   0  0  0  0  0  0  0  0  0  0  0  0
    7.8389   -1.4481    0.9295 C   0  0  0  0  0  0  0  0  0  0  0  0
    9.2257   -1.5456    0.8746 O   0  0  0  0  0  0  0  0  0  0  0  0
    9.7959   -2.5114    1.7259 C   0  0  0  0  0  0  0  0  0  0  0  0
    7.2215   -0.4833    0.0825 C   0  0  0  0  0  0  0  0  0  0  0  0
    8.0637    0.2773   -0.7344 O   0  0  0  0  0  0  0  0  0  0  0  0
    7.4204    1.2837   -1.5072 C   0  0  0  0  0  0  0  0  0  0  0  0
    8.4277    2.1072   -2.2963 C   0  0  0  0  0  0  0  0  0  0  0  0
    7.7848    3.2129   -3.1173 C   0  0  0  0  0  0  0  0  0  0  0  0
    8.8086    3.9891   -3.8875 C   0  0  0  0  0  0  0  0  0  0  0  0
    9.4329    3.4466   -4.7716 O   0  0  0  0  0  0  0  0  0  0  0  0
    8.9966    5.2812   -3.5386 O   0  0  0  0  0  0  0  0  0  0  0  0
    5.8456   -0.3519    0.1104 C   0  0  0  0  0  0  0  0  0  0  0  0
    3.0191    0.2636    1.3562 C   0  0  0  0  0  0  0  0  0  0  0  0
    1.7197    0.5674    1.4522 N   0  0  0  0  0  0  0  0  0  0  0  0
    1.5773    1.8341    1.9285 C   0  0  0  0  0  0  0  0  0  0  0  0
    0.4188    2.5215    2.1282 C   0  0  0  0  0  0  0  0  0  0  0  0
   -0.8869    2.0358    1.8923 C   0  0  0  0  0  0  0  0  0  0  0  0
   -2.0572    2.7887    2.0572 C   0  0  0  0  0  0  0  0  0  0  0  0
   -3.1255    1.9853    1.7430 C   0  0  0  0  0  0  0  0  0  0  0  0
   -2.6334    0.7200    1.3878 C   0  0  0  0  0  0  0  0  0  0  0  0
   -1.2594    0.7766    1.4803 N   0  0  0  0  0  0  0  0  0  0  0  0
    2.9050    2.4669    2.2312 C   0  0  0  0  0  0  0  0  0  0  0  0
    3.8961    1.4083    1.7935 C   0  0  0  0  0  0  0  0  0  0  0  0
   -2.7948   -3.9327    0.0968 C   0  0  0  0  0  0  0  0  0  0  0  0
   -3.7807   -2.8018    0.3053 C   0  0  0  0  0  0  0  0  0  0  0  0
   -5.6731   -0.3548   -0.1682 C   0  0  0  0  0  0  0  0  0  0  0  0
   -7.0471   -0.2085   -0.1807 C   0  0  0  0  0  0  0  0  0  0  0  0
   -7.8104   -0.3610   -1.3473 O   0  0  0  0  0  0  0  0  0  0  0  0
   -7.1482    0.0075   -2.5538 C   0  0  0  0  0  0  0  0  0  0  0  0
   -8.1398    0.4083   -3.6429 C   0  0  0  0  0  0  0  0  0  0  0  0
   -8.8284    1.7374   -3.3580 C   0  0  0  0  0  0  0  0  0  0  0  0
   -9.6470    1.6703   -2.1051 C   0  0  0  0  0  0  0  0  0  0  0  0
  -10.7199    1.1095   -2.1190 O   0  0  0  0  0  0  0  0  0  0  0  0
   -9.1045    2.2255   -0.9965 O   0  0  0  0  0  0  0  0  0  0  0  0
   -9.4850   -0.5307    2.8556 H   0  0  0  0  0  0  0  0  0  0  0  0
   -9.4695    1.2606    2.7343 H   0  0  0  0  0  0  0  0  0  0  0  0
  -10.8265    0.3265    2.0696 H   0  0  0  0  0  0  0  0  0  0  0  0
   -7.4595    0.4686    3.1263 H   0  0  0  0  0  0  0  0  0  0  0  0
   -5.0370    0.1895    3.0957 H   0  0  0  0  0  0  0  0  0  0  0  0
   -0.3881   -4.9837   -0.2068 H   0  0  0  0  0  0  0  0  0  0  0  0
    2.2200   -5.1825   -0.3706 H   0  0  0  0  0  0  0  0  0  0  0  0
    4.2827   -3.5929    0.0944 H   0  0  0  0  0  0  0  0  0  0  0  0
    0.7199   -1.4129    0.8460 H   0  0  0  0  0  0  0  0  0  0  0  0
    5.0597   -2.6777    2.4197 H   0  0  0  0  0  0  0  0  0  0  0  0
    7.4813   -2.9622    2.3986 H   0  0  0  0  0  0  0  0  0  0  0  0
   10.8775   -2.4898    1.5888 H   0  0  0  0  0  0  0  0  0  0  0  0
    9.5649   -2.2727    2.7646 H   0  0  0  0  0  0  0  0  0  0  0  0
    9.4246   -3.5025    1.4633 H   0  0  0  0  0  0  0  0  0  0  0  0
    6.8529    1.9267   -0.8262 H   0  0  0  0  0  0  0  0  0  0  0  0
    6.7125    0.7935   -2.1839 H   0  0  0  0  0  0  0  0  0  0  0  0
    9.1659    2.5345   -1.6060 H   0  0  0  0  0  0  0  0  0  0  0  0
    9.0060    1.4451   -2.9537 H   0  0  0  0  0  0  0  0  0  0  0  0
    7.2310    3.8982   -2.4695 H   0  0  0  0  0  0  0  0  0  0  0  0
    7.0585    2.7921   -3.8182 H   0  0  0  0  0  0  0  0  0  0  0  0
    9.6918    5.6366   -4.1252 H   0  0  0  0  0  0  0  0  0  0  0  0
    5.3602    0.3435   -0.5472 H   0  0  0  0  0  0  0  0  0  0  0  0
    0.4993    3.5300    2.4947 H   0  0  0  0  0  0  0  0  0  0  0  0
   -2.1031    3.8193    2.3713 H   0  0  0  0  0  0  0  0  0  0  0  0
   -4.1625    2.2759    1.7575 H   0  0  0  0  0  0  0  0  0  0  0  0
   -0.6046    0.0155    1.2642 H   0  0  0  0  0  0  0  0  0  0  0  0
    2.9820    2.6963    3.3017 H   0  0  0  0  0  0  0  0  0  0  0  0
    3.0203    3.4082    1.6786 H   0  0  0  0  0  0  0  0  0  0  0  0
    4.5213    1.7546    0.9637 H   0  0  0  0  0  0  0  0  0  0  0  0
    4.5633    1.0941    2.6047 H   0  0  0  0  0  0  0  0  0  0  0  0
   -2.9113   -4.7328    0.8389 H   0  0  0  0  0  0  0  0  0  0  0  0
   -2.8765   -4.3864   -0.8993 H   0  0  0  0  0  0  0  0  0  0  0  0
   -4.3708   -2.6042   -0.5959 H   0  0  0  0  0  0  0  0  0  0  0  0
   -4.4815   -2.9992    1.1249 H   0  0  0  0  0  0  0  0  0  0  0  0
   -5.1570   -0.5750   -1.0833 H   0  0  0  0  0  0  0  0  0  0  0  0
   -6.4732    0.8415   -2.3339 H   0  0  0  0  0  0  0  0  0  0  0  0
   -6.5388   -0.8491   -2.8637 H   0  0  0  0  0  0  0  0  0  0  0  0
   -8.9028   -0.3768   -3.7195 H   0  0  0  0  0  0  0  0  0  0  0  0
   -7.6359    0.4462   -4.6185 H   0  0  0  0  0  0  0  0  0  0  0  0
   -9.4827    2.0262   -4.1864 H   0  0  0  0  0  0  0  0  0  0  0  0
   -8.0864    2.5332   -3.2495 H   0  0  0  0  0  0  0  0  0  0  0  0
   -9.6417    1.9310   -0.2331 H   0  0  0  0  0  0  0  0  0  0  0  0
  1  2  1  0  0  0  0
  2  3  1  0  0  0  0
  3  4  2  0  0  0  0
  4  5  1  0  0  0  0
  5  6  2  0  0  0  0
  6  7  1  0  0  0  0
  7  8  1  0  0  0  0
  8  9  2  0  0  0  0
  9 10  1  0  0  0  0
 10 11  2  0  0  0  0
 11 12  1  0  0  0  0
 12 13  2  0  0  0  0
 13 14  1  0  0  0  0
 14 15  2  0  0  0  0
 15 16  1  0  0  0  0
 15 17  1  0  0  0  0
 17 18  1  0  0  0  0
 18 19  2  0  0  0  0
 19 20  1  0  0  0  0
 20 21  2  0  0  0  0
 21 22  1  0  0  0  0
 22 23  1  0  0  0  0
 21 24  1  0  0  0  0
 24 25  1  0  0  0  0
 25 26  1  0  0  0  0
 26 27  1  0  0  0  0
 27 28  1  0  0  0  0
 28 29  1  0  0  0  0
 29 30  2  0  0  0  0
 29 31  1  0  0  0  0
 24 32  2  0  0  0  0
 17 33  2  0  0  0  0
 33 34  1  0  0  0  0
 34 35  2  0  0  0  0
 35 36  1  0  0  0  0
 36 37  2  0  0  0  0
 37 38  1  0  0  0  0
 38 39  2  0  0  0  0
 39 40  1  0  0  0  0
 40 41  1  0  0  0  0
 35 42  1  0  0  0  0
 42 43  1  0  0  0  0
 10 44  1  0  0  0  0
 44 45  1  0  0  0  0
  6 46  1  0  0  0  0
 46 47  2  0  0  0  0
 47 48  1  0  0  0  0
 48 49  1  0  0  0  0
 49 50  1  0  0  0  0
 50 51  1  0  0  0  0
 51 52  1  0  0  0  0
 52 53  2  0  0  0  0
 52 54  1  0  0  0  0
 47  3  1  0  0  0  0
 40  7  2  0  0  0  0
 45  8  1  0  0  0  0
 16 12  1  0  0  0  0
 32 18  1  0  0  0  0
 43 33  1  0  0  0  0
 41 37  1  0  0  0  0
  1 55  1  0  0  0  0
  1 56  1  0  0  0  0
  1 57  1  0  0  0  0
  4 58  1  0  0  0  0
  5 59  1  0  0  0  0
 11 60  1  0  0  0  0
 13 61  1  0  0  0  0
 14 62  1  0  0  0  0
 16 63  1  0  0  0  0
 19 64  1  0  0  0  0
 20 65  1  0  0  0  0
 23 66  1  0  0  0  0
 23 67  1  0  0  0  0
 23 68  1  0  0  0  0
 26 69  1  0  0  0  0
 26 70  1  0  0  0  0
 27 71  1  0  0  0  0
 27 72  1  0  0  0  0
 28 73  1  0  0  0  0
 28 74  1  0  0  0  0
 31 75  1  0  0  0  0
 32 76  1  0  0  0  0
 36 77  1  0  0  0  0
 38 78  1  0  0  0  0
 39 79  1  0  0  0  0
 41 80  1  0  0  0  0
 42 81  1  0  0  0  0
 42 82  1  0  0  0  0
 43 83  1  0  0  0  0
 43 84  1  0  0  0  0
 44 85  1  0  0  0  0
 44 86  1  0  0  0  0
 45 87  1  0  0  0  0
 45 88  1  0  0  0  0
 46 89  1  0  0  0  0
 49 90  1  0  0  0  0
 49 91  1  0  0  0  0
 50 92  1  0  0  0  0
 50 93  1  0  0  0  0
 51 94  1  0  0  0  0
 51 95  1  0  0  0  0
 54 96  1  0  0  0  0
M  END
