
  xtb     03212210133D
 energy: -6.038729775459 gnorm: 0.000331118710 xtb: 6.4.1 (afa7bdf)
 31 33  0     0  0            999 V2000
   -4.0183   -1.1520    0.1095 C   0  0  0  0  0  0  0  0  0  0  0  0
   -3.3583    0.1521    0.0620 N   0  0  0  0  0  0  0  0  0  0  0  0
   -4.2231    1.3293   -0.0082 C   0  0  0  0  0  0  0  0  0  0  0  0
   -1.9557    0.2662    0.0692 C   0  0  0  0  0  0  0  0  0  0  0  0
   -1.3349    1.5218   -0.0466 C   0  0  0  0  0  0  0  0  0  0  0  0
    0.0341    1.6556   -0.0415 C   0  0  0  0  0  0  0  0  0  0  0  0
    0.8223    0.5171    0.0813 C   0  0  0  0  0  0  0  0  0  0  0  0
    0.2228   -0.7435    0.1969 C   0  0  0  0  0  0  0  0  0  0  0  0
   -1.1465   -0.8726    0.1916 C   0  0  0  0  0  0  0  0  0  0  0  0
    1.3048   -1.7869    0.3119 C   0  0  0  0  0  0  0  0  0  0  0  0
    2.5898   -1.0005    0.2500 C   0  0  0  0  0  0  0  0  0  0  0  0
    3.9046   -1.4175    0.3059 C   0  0  0  0  0  0  0  0  0  0  0  0
    4.9106   -0.4700    0.2278 C   0  0  0  0  0  0  0  0  0  0  0  0
    4.6084    0.8770    0.0961 C   0  0  0  0  0  0  0  0  0  0  0  0
    3.2972    1.3043    0.0390 C   0  0  0  0  0  0  0  0  0  0  0  0
    2.2818    0.3588    0.1151 C   0  0  0  0  0  0  0  0  0  0  0  0
   -5.0977   -1.0510    0.0144 H   0  0  0  0  0  0  0  0  0  0  0  0
   -3.6654   -1.7792   -0.7072 H   0  0  0  0  0  0  0  0  0  0  0  0
   -3.8037   -1.6448    1.0561 H   0  0  0  0  0  0  0  0  0  0  0  0
   -3.9851    2.0170    0.8015 H   0  0  0  0  0  0  0  0  0  0  0  0
   -4.0849    1.8383   -0.9605 H   0  0  0  0  0  0  0  0  0  0  0  0
   -5.2719    1.0535    0.0827 H   0  0  0  0  0  0  0  0  0  0  0  0
   -1.9472    2.4000   -0.1468 H   0  0  0  0  0  0  0  0  0  0  0  0
    0.5002    2.6212   -0.1317 H   0  0  0  0  0  0  0  0  0  0  0  0
   -1.5845   -1.8483    0.2860 H   0  0  0  0  0  0  0  0  0  0  0  0
    1.2447   -2.5089   -0.5099 H   0  0  0  0  0  0  0  0  0  0  0  0
    1.2239   -2.3356    1.2565 H   0  0  0  0  0  0  0  0  0  0  0  0
    4.1307   -2.4642    0.4088 H   0  0  0  0  0  0  0  0  0  0  0  0
    5.9410   -0.7835    0.2702 H   0  0  0  0  0  0  0  0  0  0  0  0
    5.4066    1.5991    0.0378 H   0  0  0  0  0  0  0  0  0  0  0  0
    3.0535    2.3469   -0.0629 H   0  0  0  0  0  0  0  0  0  0  0  0
  1  2  1  0  0  0  0
  2  3  1  0  0  0  0
  2  4  1  0  0  0  0
  4  5  2  0  0  0  0
  5  6  1  0  0  0  0
  6  7  2  0  0  0  0
  7  8  1  0  0  0  0
  8  9  2  0  0  0  0
  8 10  1  0  0  0  0
 10 11  1  0  0  0  0
 11 12  2  0  0  0  0
 12 13  1  0  0  0  0
 13 14  2  0  0  0  0
 14 15  1  0  0  0  0
 15 16  2  0  0  0  0
  9  4  1  0  0  0  0
 16 11  1  0  0  0  0
 16  7  1  0  0  0  0
  1 17  1  0  0  0  0
  1 18  1  0  0  0  0
  1 19  1  0  0  0  0
  3 20  1  0  0  0  0
  3 21  1  0  0  0  0
  3 22  1  0  0  0  0
  5 23  1  0  0  0  0
  6 24  1  0  0  0  0
  9 25  1  0  0  0  0
 10 26  1  0  0  0  0
 10 27  1  0  0  0  0
 12 28  1  0  0  0  0
 13 29  1  0  0  0  0
 14 30  1  0  0  0  0
 15 31  1  0  0  0  0
M  END
