
  xtb     03212210123D
 energy: -8.480433990895 gnorm: 0.000364710394 xtb: 6.4.1 (afa7bdf)
 43 45  0     0  0            999 V2000
   -7.8690   -0.1194    0.8262 C   0  0  0  0  0  0  0  0  0  0  0  0
   -6.8461   -0.9766    0.1125 C   0  0  0  0  0  0  0  0  0  0  0  0
   -5.5366   -0.4909    0.2746 O   0  0  0  0  0  0  0  0  0  0  0  0
   -4.6598   -1.3035   -0.3940 C   0  0  0  0  0  0  0  0  0  0  0  0
   -5.0151   -2.2885   -1.0222 O   0  0  0  0  0  0  0  0  0  0  0  0
   -3.2508   -0.9483   -0.3408 C   0  0  0  0  0  0  0  0  0  0  0  0
   -2.0068   -1.8554   -1.1756 S   0  0  0  0  0  0  0  0  0  0  0  0
   -0.7303   -0.7998   -0.6182 C   0  0  0  0  0  0  0  0  0  0  0  0
    0.5591   -0.9372   -0.9116 N   0  0  0  0  0  0  0  0  0  0  0  0
    1.3857   -0.0302   -0.3835 C   0  0  0  0  0  0  0  0  0  0  0  0
    2.8246   -0.2158   -0.6872 C   0  0  0  0  0  0  0  0  0  0  0  0
    3.7993   -0.2008    0.3108 C   0  0  0  0  0  0  0  0  0  0  0  0
    5.1218   -0.3995    0.0072 C   0  0  0  0  0  0  0  0  0  0  0  0
    5.5315   -0.6339   -1.3109 C   0  0  0  0  0  0  0  0  0  0  0  0
    6.8528   -0.8373   -1.7110 O   0  0  0  0  0  0  0  0  0  0  0  0
    7.7976   -0.8135   -0.6697 C   0  0  0  0  0  0  0  0  0  0  0  0
    4.5439   -0.6709   -2.3018 C   0  0  0  0  0  0  0  0  0  0  0  0
    3.2226   -0.4734   -1.9971 C   0  0  0  0  0  0  0  0  0  0  0  0
    0.9457    1.0675    0.3977 C   0  0  0  0  0  0  0  0  0  0  0  0
    1.8963    2.1061    0.8810 C   0  0  0  0  0  0  0  0  0  0  0  0
   -0.3989    1.1854    0.7048 C   0  0  0  0  0  0  0  0  0  0  0  0
   -0.8864    2.2441    1.4751 C   0  0  0  0  0  0  0  0  0  0  0  0
   -1.3353    3.1132    2.1030 N   0  0  0  0  0  0  0  0  0  0  0  0
   -1.2658    0.2061    0.1796 C   0  0  0  0  0  0  0  0  0  0  0  0
   -2.7069    0.1112    0.3445 C   0  0  0  0  0  0  0  0  0  0  0  0
   -3.4475    0.9827    1.1196 N   0  0  0  0  0  0  0  0  0  0  0  0
   -7.8407    0.9035    0.4502 H   0  0  0  0  0  0  0  0  0  0  0  0
   -8.8838   -0.4995    0.7005 H   0  0  0  0  0  0  0  0  0  0  0  0
   -7.6532   -0.0754    1.8937 H   0  0  0  0  0  0  0  0  0  0  0  0
   -6.8506   -2.0118    0.4828 H   0  0  0  0  0  0  0  0  0  0  0  0
   -7.0371   -1.0251   -0.9691 H   0  0  0  0  0  0  0  0  0  0  0  0
    3.4967   -0.0564    1.3323 H   0  0  0  0  0  0  0  0  0  0  0  0
    5.8531   -0.3813    0.7955 H   0  0  0  0  0  0  0  0  0  0  0  0
    8.7848   -0.9919   -1.0979 H   0  0  0  0  0  0  0  0  0  0  0  0
    7.7919    0.1641   -0.1857 H   0  0  0  0  0  0  0  0  0  0  0  0
    7.5755   -1.6026    0.0501 H   0  0  0  0  0  0  0  0  0  0  0  0
    4.8516   -0.8638   -3.3153 H   0  0  0  0  0  0  0  0  0  0  0  0
    2.4712   -0.5175   -2.7653 H   0  0  0  0  0  0  0  0  0  0  0  0
    1.4200    3.0866    0.9022 H   0  0  0  0  0  0  0  0  0  0  0  0
    2.2359    1.8818    1.8920 H   0  0  0  0  0  0  0  0  0  0  0  0
    2.7681    2.1822    0.2316 H   0  0  0  0  0  0  0  0  0  0  0  0
   -3.0494    1.8223    1.5235 H   0  0  0  0  0  0  0  0  0  0  0  0
   -4.4597    0.9628    1.1114 H   0  0  0  0  0  0  0  0  0  0  0  0
  1  2  1  0  0  0  0
  2  3  1  0  0  0  0
  3  4  1  0  0  0  0
  4  5  2  0  0  0  0
  4  6  1  0  0  0  0
  6  7  1  0  0  0  0
  7  8  1  0  0  0  0
  8  9  2  0  0  0  0
  9 10  1  0  0  0  0
 10 11  1  0  0  0  0
 11 12  2  0  0  0  0
 12 13  1  0  0  0  0
 13 14  2  0  0  0  0
 14 15  1  0  0  0  0
 15 16  1  0  0  0  0
 14 17  1  0  0  0  0
 17 18  2  0  0  0  0
 10 19  2  0  0  0  0
 19 20  1  0  0  0  0
 19 21  1  0  0  0  0
 21 22  1  0  0  0  0
 22 23  3  0  0  0  0
 21 24  2  0  0  0  0
 24 25  1  0  0  0  0
 25 26  1  0  0  0  0
 25  6  2  0  0  0  0
 24  8  1  0  0  0  0
 18 11  1  0  0  0  0
  1 27  1  0  0  0  0
  1 28  1  0  0  0  0
  1 29  1  0  0  0  0
  2 30  1  0  0  0  0
  2 31  1  0  0  0  0
 12 32  1  0  0  0  0
 13 33  1  0  0  0  0
 16 34  1  0  0  0  0
 16 35  1  0  0  0  0
 16 36  1  0  0  0  0
 17 37  1  0  0  0  0
 18 38  1  0  0  0  0
 20 39  1  0  0  0  0
 20 40  1  0  0  0  0
 20 41  1  0  0  0  0
 26 42  1  0  0  0  0
 26 43  1  0  0  0  0
M  END
