
  xtb     03212210153D
 energy: -7.101751132156 gnorm: 0.000156698610 xtb: 6.4.1 (afa7bdf)
 31 35  0     0  0            999 V2000
   -1.6958    2.6888    0.0819 O   0  0  0  0  0  0  0  0  0  0  0  0
   -1.6397    1.4754    0.0864 C   0  0  0  0  0  0  0  0  0  0  0  0
   -2.7568    0.5279    0.0707 C   0  0  0  0  0  0  0  0  0  0  0  0
   -4.1244    0.7421    0.0475 C   0  0  0  0  0  0  0  0  0  0  0  0
   -4.9613   -0.3535    0.0368 C   0  0  0  0  0  0  0  0  0  0  0  0
   -4.4467   -1.6470    0.0492 C   0  0  0  0  0  0  0  0  0  0  0  0
   -3.0873   -1.8683    0.0723 C   0  0  0  0  0  0  0  0  0  0  0  0
   -2.2357   -0.7702    0.0832 C   0  0  0  0  0  0  0  0  0  0  0  0
   -0.7894   -0.6812    0.1069 C   0  0  0  0  0  0  0  0  0  0  0  0
    0.0604   -1.6733    0.1239 N   0  0  0  0  0  0  0  0  0  0  0  0
    1.3852   -1.3027    0.1447 C   0  0  0  0  0  0  0  0  0  0  0  0
    2.3663   -2.2855    0.1639 C   0  0  0  0  0  0  0  0  0  0  0  0
    3.7170   -1.9625    0.1852 C   0  0  0  0  0  0  0  0  0  0  0  0
    4.1290   -0.6565    0.1882 C   0  0  0  0  0  0  0  0  0  0  0  0
    3.1855    0.3892    0.1694 C   0  0  0  0  0  0  0  0  0  0  0  0
    3.5500    1.7532    0.1714 C   0  0  0  0  0  0  0  0  0  0  0  0
    2.5947    2.7362    0.1527 C   0  0  0  0  0  0  0  0  0  0  0  0
    1.2452    2.4077    0.1314 C   0  0  0  0  0  0  0  0  0  0  0  0
    0.8530    1.0857    0.1288 C   0  0  0  0  0  0  0  0  0  0  0  0
    1.8117    0.0562    0.1477 C   0  0  0  0  0  0  0  0  0  0  0  0
   -0.4765    0.6771    0.1080 N   0  0  0  0  0  0  0  0  0  0  0  0
   -4.5050    1.7480    0.0382 H   0  0  0  0  0  0  0  0  0  0  0  0
   -6.0285   -0.2062    0.0188 H   0  0  0  0  0  0  0  0  0  0  0  0
   -5.1215   -2.4867    0.0405 H   0  0  0  0  0  0  0  0  0  0  0  0
   -2.6761   -2.8620    0.0821 H   0  0  0  0  0  0  0  0  0  0  0  0
    2.0542   -3.3148    0.1617 H   0  0  0  0  0  0  0  0  0  0  0  0
    4.4496   -2.7522    0.1997 H   0  0  0  0  0  0  0  0  0  0  0  0
    5.1774   -0.4152    0.2048 H   0  0  0  0  0  0  0  0  0  0  0  0
    4.5941    2.0123    0.1879 H   0  0  0  0  0  0  0  0  0  0  0  0
    2.8895    3.7722    0.1545 H   0  0  0  0  0  0  0  0  0  0  0  0
    0.4818    3.1661    0.1165 H   0  0  0  0  0  0  0  0  0  0  0  0
  1  2  2  0  0  0  0
  2  3  1  0  0  0  0
  3  4  2  0  0  0  0
  4  5  1  0  0  0  0
  5  6  2  0  0  0  0
  6  7  1  0  0  0  0
  7  8  2  0  0  0  0
  8  9  1  0  0  0  0
  9 10  2  0  0  0  0
 10 11  1  0  0  0  0
 11 12  2  0  0  0  0
 12 13  1  0  0  0  0
 13 14  2  0  0  0  0
 14 15  1  0  0  0  0
 15 16  2  0  0  0  0
 16 17  1  0  0  0  0
 17 18  2  0  0  0  0
 18 19  1  0  0  0  0
 19 20  2  0  0  0  0
 19 21  1  0  0  0  0
 21  2  1  0  0  0  0
  8  3  1  0  0  0  0
 21  9  1  0  0  0  0
 20 11  1  0  0  0  0
 20 15  1  0  0  0  0
  4 22  1  0  0  0  0
  5 23  1  0  0  0  0
  6 24  1  0  0  0  0
  7 25  1  0  0  0  0
 12 26  1  0  0  0  0
 13 27  1  0  0  0  0
 14 28  1  0  0  0  0
 16 29  1  0  0  0  0
 17 30  1  0  0  0  0
 18 31  1  0  0  0  0
M  END
