
  xtb     03212210133D
 energy: -5.632836126378 gnorm: 0.000415197519 xtb: 6.4.1 (afa7bdf)
 29 31  0     0  0            999 V2000
   -4.4326    0.5130   -0.3609 C   0  0  0  0  0  0  0  0  0  0  0  0
   -2.9577    0.5916   -0.4064 C   0  0  0  0  0  0  0  0  0  0  0  0
   -2.2654    1.5850   -1.0587 O   0  0  0  0  0  0  0  0  0  0  0  0
   -0.9316    1.3227   -0.8767 C   0  0  0  0  0  0  0  0  0  0  0  0
    0.2329    1.9986   -1.3231 C   0  0  0  0  0  0  0  0  0  0  0  0
    0.0865    3.4301   -2.2724 Cl  0  0  0  0  0  0  0  0  0  0  0  0
    1.4614    1.5069   -0.9936 C   0  0  0  0  0  0  0  0  0  0  0  0
    1.6216    0.3278   -0.2087 C   0  0  0  0  0  0  0  0  0  0  0  0
    2.9068   -0.1953    0.1405 C   0  0  0  0  0  0  0  0  0  0  0  0
    4.1567    0.4764   -0.3095 C   0  0  0  0  0  0  0  0  0  0  0  0
    2.9610   -1.3183    0.8883 C   0  0  0  0  0  0  0  0  0  0  0  0
    1.7793   -2.0028    1.3455 C   0  0  0  0  0  0  0  0  0  0  0  0
    1.9153   -3.0164    2.0241 O   0  0  0  0  0  0  0  0  0  0  0  0
    0.5457   -1.5027    1.0103 O   0  0  0  0  0  0  0  0  0  0  0  0
    0.4889   -0.3593    0.2469 C   0  0  0  0  0  0  0  0  0  0  0  0
   -0.7913    0.1615   -0.1043 C   0  0  0  0  0  0  0  0  0  0  0  0
   -2.0875   -0.2992    0.1961 C   0  0  0  0  0  0  0  0  0  0  0  0
   -2.4224   -1.5038    0.9884 C   0  0  0  0  0  0  0  0  0  0  0  0
   -4.7821   -0.4668   -0.6850 H   0  0  0  0  0  0  0  0  0  0  0  0
   -4.8002    0.6950    0.6486 H   0  0  0  0  0  0  0  0  0  0  0  0
   -4.8672    1.2639   -1.0199 H   0  0  0  0  0  0  0  0  0  0  0  0
    2.3308    2.0336   -1.3424 H   0  0  0  0  0  0  0  0  0  0  0  0
    4.2132    0.5034   -1.3978 H   0  0  0  0  0  0  0  0  0  0  0  0
    5.0412   -0.0470    0.0539 H   0  0  0  0  0  0  0  0  0  0  0  0
    4.2036    1.5001    0.0621 H   0  0  0  0  0  0  0  0  0  0  0  0
    3.9091   -1.7374    1.1672 H   0  0  0  0  0  0  0  0  0  0  0  0
   -2.8967   -2.2608    0.3639 H   0  0  0  0  0  0  0  0  0  0  0  0
   -3.0998   -1.2585    1.8063 H   0  0  0  0  0  0  0  0  0  0  0  0
   -1.5193   -1.9413    1.4176 H   0  0  0  0  0  0  0  0  0  0  0  0
  1  2  1  0  0  0  0
  2  3  1  0  0  0  0
  3  4  1  0  0  0  0
  4  5  2  0  0  0  0
  5  6  1  0  0  0  0
  5  7  1  0  0  0  0
  7  8  2  0  0  0  0
  8  9  1  0  0  0  0
  9 10  1  0  0  0  0
  9 11  2  0  0  0  0
 11 12  1  0  0  0  0
 12 13  2  0  0  0  0
 12 14  1  0  0  0  0
 14 15  1  0  0  0  0
 15 16  2  0  0  0  0
 16 17  1  0  0  0  0
 17 18  1  0  0  0  0
 17  2  2  0  0  0  0
 16  4  1  0  0  0  0
 15  8  1  0  0  0  0
  1 19  1  0  0  0  0
  1 20  1  0  0  0  0
  1 21  1  0  0  0  0
  7 22  1  0  0  0  0
 10 23  1  0  0  0  0
 10 24  1  0  0  0  0
 10 25  1  0  0  0  0
 11 26  1  0  0  0  0
 18 27  1  0  0  0  0
 18 28  1  0  0  0  0
 18 29  1  0  0  0  0
M  END
