
  xtb     03212210133D
 energy: -7.798982380523 gnorm: 0.000329891972 xtb: 6.4.1 (afa7bdf)
 38 40  0     0  0            999 V2000
   -7.1988   -0.5011    0.0126 C   0  0  0  0  0  0  0  0  0  0  0  0
   -6.3934    0.0916    1.0039 O   0  0  0  0  0  0  0  0  0  0  0  0
   -5.0160   -0.0551    0.8209 C   0  0  0  0  0  0  0  0  0  0  0  0
   -4.4386   -0.6982   -0.2658 C   0  0  0  0  0  0  0  0  0  0  0  0
   -3.0703   -0.8091   -0.3838 C   0  0  0  0  0  0  0  0  0  0  0  0
   -2.2292   -0.2796    0.5822 C   0  0  0  0  0  0  0  0  0  0  0  0
   -0.8333   -0.3954    0.4646 C   0  0  0  0  0  0  0  0  0  0  0  0
    0.3808   -0.4983    0.3686 C   0  0  0  0  0  0  0  0  0  0  0  0
    1.7770   -0.6187    0.2583 C   0  0  0  0  0  0  0  0  0  0  0  0
    2.5284   -1.2459    1.1565 N   0  0  0  0  0  0  0  0  0  0  0  0
    3.7790   -1.1567    0.7202 C   0  0  0  0  0  0  0  0  0  0  0  0
    3.8085   -0.4527   -0.4841 C   0  0  0  0  0  0  0  0  0  0  0  0
    4.9726   -0.1239   -1.3040 C   0  0  0  0  0  0  0  0  0  0  0  0
    6.2590   -0.5383   -0.9697 C   0  0  0  0  0  0  0  0  0  0  0  0
    7.3295   -0.2092   -1.7713 C   0  0  0  0  0  0  0  0  0  0  0  0
    7.1348    0.5368   -2.9164 C   0  0  0  0  0  0  0  0  0  0  0  0
    5.8649    0.9542   -3.2600 C   0  0  0  0  0  0  0  0  0  0  0  0
    4.7932    0.6259   -2.4603 C   0  0  0  0  0  0  0  0  0  0  0  0
    2.5218   -0.1111   -0.7735 O   0  0  0  0  0  0  0  0  0  0  0  0
   -2.7945    0.3687    1.6754 C   0  0  0  0  0  0  0  0  0  0  0  0
   -4.1669    0.4952    1.8205 C   0  0  0  0  0  0  0  0  0  0  0  0
   -4.7838    1.1361    2.9000 O   0  0  0  0  0  0  0  0  0  0  0  0
   -3.9052    1.6564    3.8673 C   0  0  0  0  0  0  0  0  0  0  0  0
   -6.9994   -0.0365   -0.9532 H   0  0  0  0  0  0  0  0  0  0  0  0
   -8.2432   -0.3350    0.2775 H   0  0  0  0  0  0  0  0  0  0  0  0
   -7.0085   -1.5739   -0.0266 H   0  0  0  0  0  0  0  0  0  0  0  0
   -5.0656   -1.1176   -1.0308 H   0  0  0  0  0  0  0  0  0  0  0  0
   -2.6370   -1.3115   -1.2318 H   0  0  0  0  0  0  0  0  0  0  0  0
    4.6264   -1.5736    1.2414 H   0  0  0  0  0  0  0  0  0  0  0  0
    6.4126   -1.1214   -0.0787 H   0  0  0  0  0  0  0  0  0  0  0  0
    8.3212   -0.5355   -1.5044 H   0  0  0  0  0  0  0  0  0  0  0  0
    7.9739    0.7929   -3.5420 H   0  0  0  0  0  0  0  0  0  0  0  0
    5.7117    1.5362   -4.1538 H   0  0  0  0  0  0  0  0  0  0  0  0
    3.7969    0.9436   -2.7174 H   0  0  0  0  0  0  0  0  0  0  0  0
   -2.1348    0.7760    2.4179 H   0  0  0  0  0  0  0  0  0  0  0  0
   -3.3116    0.8505    4.3013 H   0  0  0  0  0  0  0  0  0  0  0  0
   -3.2615    2.4124    3.4154 H   0  0  0  0  0  0  0  0  0  0  0  0
   -4.5005    2.1216    4.6543 H   0  0  0  0  0  0  0  0  0  0  0  0
  1  2  1  0  0  0  0
  2  3  1  0  0  0  0
  3  4  2  0  0  0  0
  4  5  1  0  0  0  0
  5  6  2  0  0  0  0
  6  7  1  0  0  0  0
  7  8  3  0  0  0  0
  8  9  1  0  0  0  0
  9 10  2  0  0  0  0
 10 11  1  0  0  0  0
 11 12  2  0  0  0  0
 12 13  1  0  0  0  0
 13 14  2  0  0  0  0
 14 15  1  0  0  0  0
 15 16  2  0  0  0  0
 16 17  1  0  0  0  0
 17 18  2  0  0  0  0
 12 19  1  0  0  0  0
  6 20  1  0  0  0  0
 20 21  2  0  0  0  0
 21 22  1  0  0  0  0
 22 23  1  0  0  0  0
 21  3  1  0  0  0  0
 19  9  1  0  0  0  0
 18 13  1  0  0  0  0
  1 24  1  0  0  0  0
  1 25  1  0  0  0  0
  1 26  1  0  0  0  0
  4 27  1  0  0  0  0
  5 28  1  0  0  0  0
 11 29  1  0  0  0  0
 14 30  1  0  0  0  0
 15 31  1  0  0  0  0
 16 32  1  0  0  0  0
 17 33  1  0  0  0  0
 18 34  1  0  0  0  0
 20 35  1  0  0  0  0
 23 36  1  0  0  0  0
 23 37  1  0  0  0  0
 23 38  1  0  0  0  0
M  END
