
  xtb     03212210143D
 energy: -5.417028001357 gnorm: 0.000520122340 xtb: 6.4.1 (afa7bdf)
 26 28  0     0  0            999 V2000
   -3.8666   -1.4435   -0.9259 N   0  0  0  0  0  0  0  0  0  0  0  0
   -2.7283   -0.7810   -0.4997 C   0  0  0  0  0  0  0  0  0  0  0  0
   -1.4796   -1.3177   -0.7163 C   0  0  0  0  0  0  0  0  0  0  0  0
   -0.2937   -0.6546   -0.3390 C   0  0  0  0  0  0  0  0  0  0  0  0
    0.8790   -1.2402   -0.5884 N   0  0  0  0  0  0  0  0  0  0  0  0
    1.9472   -0.5392   -0.2008 C   0  0  0  0  0  0  0  0  0  0  0  0
    3.2360   -1.0793   -0.4215 C   0  0  0  0  0  0  0  0  0  0  0  0
    4.3614   -0.4080   -0.0447 C   0  0  0  0  0  0  0  0  0  0  0  0
    5.9133   -1.1026   -0.3331 Cl  0  0  0  0  0  0  0  0  0  0  0  0
    4.2576    0.8526    0.5798 C   0  0  0  0  0  0  0  0  0  0  0  0
    5.6825    1.6987    1.0575 Cl  0  0  0  0  0  0  0  0  0  0  0  0
    3.0316    1.4040    0.8081 C   0  0  0  0  0  0  0  0  0  0  0  0
    1.8422    0.7374    0.4309 C   0  0  0  0  0  0  0  0  0  0  0  0
    0.6682    1.3229    0.6790 N   0  0  0  0  0  0  0  0  0  0  0  0
   -0.3986    0.6217    0.2908 C   0  0  0  0  0  0  0  0  0  0  0  0
   -1.6837    1.1556    0.5183 C   0  0  0  0  0  0  0  0  0  0  0  0
   -2.8347    0.4933    0.1564 C   0  0  0  0  0  0  0  0  0  0  0  0
   -4.0786    1.0312    0.4385 N   0  0  0  0  0  0  0  0  0  0  0  0
   -3.7952   -2.2332   -1.5529 H   0  0  0  0  0  0  0  0  0  0  0  0
   -4.7294   -0.9418   -1.0819 H   0  0  0  0  0  0  0  0  0  0  0  0
   -1.3943   -2.2722   -1.1999 H   0  0  0  0  0  0  0  0  0  0  0  0
    3.3241   -2.0386   -0.8963 H   0  0  0  0  0  0  0  0  0  0  0  0
    2.9619    2.3641    1.2841 H   0  0  0  0  0  0  0  0  0  0  0  0
   -1.7570    2.1118    1.0005 H   0  0  0  0  0  0  0  0  0  0  0  0
   -4.1673    1.8168    1.0681 H   0  0  0  0  0  0  0  0  0  0  0  0
   -4.8977    0.4417    0.4886 H   0  0  0  0  0  0  0  0  0  0  0  0
  1  2  1  0  0  0  0
  2  3  2  0  0  0  0
  3  4  1  0  0  0  0
  4  5  2  0  0  0  0
  5  6  1  0  0  0  0
  6  7  2  0  0  0  0
  7  8  1  0  0  0  0
  8  9  1  0  0  0  0
  8 10  2  0  0  0  0
 10 11  1  0  0  0  0
 10 12  1  0  0  0  0
 12 13  2  0  0  0  0
 13 14  1  0  0  0  0
 14 15  2  0  0  0  0
 15 16  1  0  0  0  0
 16 17  2  0  0  0  0
 17 18  1  0  0  0  0
 17  2  1  0  0  0  0
 15  4  1  0  0  0  0
 13  6  1  0  0  0  0
  1 19  1  0  0  0  0
  1 20  1  0  0  0  0
  3 21  1  0  0  0  0
  7 22  1  0  0  0  0
 12 23  1  0  0  0  0
 16 24  1  0  0  0  0
 18 25  1  0  0  0  0
 18 26  1  0  0  0  0
M  END
