
  xtb     03212210143D
 energy: -15.055259654090 gnorm: 0.000308997338 xtb: 6.4.1 (afa7bdf)
 73 79  0     0  0            999 V2000
   -1.8084    2.4609    1.4522 C   0  0  0  0  0  0  0  0  0  0  0  0
   -2.8939    2.8002    2.4609 C   0  0  0  0  0  0  0  0  0  0  0  0
   -4.2582    2.1635    2.1616 C   0  0  0  0  0  0  0  0  0  0  0  0
   -4.2601    0.6216    2.1914 C   0  0  0  0  0  0  0  0  0  0  0  0
   -3.9851   -0.0464    0.8281 C   0  0  0  0  0  0  0  0  0  0  0  0
   -5.1906    0.0988   -0.1279 C   0  0  0  0  0  0  0  0  0  0  0  0
   -4.8128    0.0503   -1.5993 C   0  0  0  0  0  0  0  0  0  0  0  0
   -3.5877   -1.5151    1.0183 C   0  0  0  0  0  0  0  0  0  0  0  0
   -3.1546   -2.1636   -0.2225 N   0  0  0  0  0  0  0  0  0  0  0  0
   -3.8834   -3.1001   -0.9677 C   0  0  0  0  0  0  0  0  0  0  0  0
   -5.1367   -3.6746   -0.7553 C   0  0  0  0  0  0  0  0  0  0  0  0
   -5.6436   -4.5538   -1.6918 C   0  0  0  0  0  0  0  0  0  0  0  0
   -6.9078   -5.1303   -1.4976 C   0  0  0  0  0  0  0  0  0  0  0  0
   -7.9572   -5.6015   -1.3345 N   0  0  0  0  0  0  0  0  0  0  0  0
   -4.8932   -4.8624   -2.8441 C   0  0  0  0  0  0  0  0  0  0  0  0
   -3.6607   -4.3058   -3.0695 C   0  0  0  0  0  0  0  0  0  0  0  0
   -3.1459   -3.4135   -2.1262 C   0  0  0  0  0  0  0  0  0  0  0  0
   -1.9255   -2.6474   -2.0782 C   0  0  0  0  0  0  0  0  0  0  0  0
   -0.8404   -2.5393   -2.9511 C   0  0  0  0  0  0  0  0  0  0  0  0
    0.1855   -1.6889   -2.6254 C   0  0  0  0  0  0  0  0  0  0  0  0
    0.1713   -0.9305   -1.4360 C   0  0  0  0  0  0  0  0  0  0  0  0
    1.2350   -0.0636   -1.1216 C   0  0  0  0  0  0  0  0  0  0  0  0
    2.1455    0.6935   -0.8169 C   0  0  0  0  0  0  0  0  0  0  0  0
    3.1970    1.5466   -0.4423 C   0  0  0  0  0  0  0  0  0  0  0  0
    3.0088    2.9266   -0.4657 C   0  0  0  0  0  0  0  0  0  0  0  0
    4.0093    3.7977   -0.1026 C   0  0  0  0  0  0  0  0  0  0  0  0
    5.2578    3.3237    0.3063 C   0  0  0  0  0  0  0  0  0  0  0  0
    6.3179    4.2014    0.6912 C   0  0  0  0  0  0  0  0  0  0  0  0
    7.5188    3.7210    1.0849 C   0  0  0  0  0  0  0  0  0  0  0  0
    7.7743    2.3150    1.1309 C   0  0  0  0  0  0  0  0  0  0  0  0
    9.0051    1.7930    1.5326 C   0  0  0  0  0  0  0  0  0  0  0  0
    9.2169    0.4303    1.5658 C   0  0  0  0  0  0  0  0  0  0  0  0
    8.2170   -0.4478    1.2025 C   0  0  0  0  0  0  0  0  0  0  0  0
    6.9682    0.0225    0.7927 C   0  0  0  0  0  0  0  0  0  0  0  0
    5.9084   -0.8563    0.4087 C   0  0  0  0  0  0  0  0  0  0  0  0
    4.7084   -0.3745    0.0155 C   0  0  0  0  0  0  0  0  0  0  0  0
    4.4454    1.0299   -0.0343 C   0  0  0  0  0  0  0  0  0  0  0  0
    5.4769    1.9262    0.3405 C   0  0  0  0  0  0  0  0  0  0  0  0
    6.7430    1.4198    0.7558 C   0  0  0  0  0  0  0  0  0  0  0  0
   -0.8999   -1.0406   -0.5706 C   0  0  0  0  0  0  0  0  0  0  0  0
   -1.9552   -1.8926   -0.8911 C   0  0  0  0  0  0  0  0  0  0  0  0
   -0.8858    3.0149    1.6417 H   0  0  0  0  0  0  0  0  0  0  0  0
   -2.1249    2.6950    0.4339 H   0  0  0  0  0  0  0  0  0  0  0  0
   -1.5530    1.4014    1.4843 H   0  0  0  0  0  0  0  0  0  0  0  0
   -3.0079    3.8920    2.5174 H   0  0  0  0  0  0  0  0  0  0  0  0
   -2.5699    2.4995    3.4661 H   0  0  0  0  0  0  0  0  0  0  0  0
   -4.6142    2.5142    1.1867 H   0  0  0  0  0  0  0  0  0  0  0  0
   -4.9935    2.5441    2.8840 H   0  0  0  0  0  0  0  0  0  0  0  0
   -5.2227    0.2436    2.5594 H   0  0  0  0  0  0  0  0  0  0  0  0
   -3.5230    0.2788    2.9277 H   0  0  0  0  0  0  0  0  0  0  0  0
   -3.1361    0.4700    0.3588 H   0  0  0  0  0  0  0  0  0  0  0  0
   -5.9246   -0.6821    0.1078 H   0  0  0  0  0  0  0  0  0  0  0  0
   -5.7124    1.0415    0.0810 H   0  0  0  0  0  0  0  0  0  0  0  0
   -4.3244   -0.8884   -1.8564 H   0  0  0  0  0  0  0  0  0  0  0  0
   -4.1176    0.8517   -1.8547 H   0  0  0  0  0  0  0  0  0  0  0  0
   -5.6842    0.1512   -2.2496 H   0  0  0  0  0  0  0  0  0  0  0  0
   -4.4251   -2.0761    1.4376 H   0  0  0  0  0  0  0  0  0  0  0  0
   -2.7723   -1.6010    1.7416 H   0  0  0  0  0  0  0  0  0  0  0  0
   -5.7066   -3.4340    0.1225 H   0  0  0  0  0  0  0  0  0  0  0  0
   -5.3128   -5.5508   -3.5578 H   0  0  0  0  0  0  0  0  0  0  0  0
   -3.0936   -4.5389   -3.9529 H   0  0  0  0  0  0  0  0  0  0  0  0
   -0.8242   -3.1147   -3.8593 H   0  0  0  0  0  0  0  0  0  0  0  0
    1.0309   -1.5891   -3.2852 H   0  0  0  0  0  0  0  0  0  0  0  0
    2.0518    3.3089   -0.7774 H   0  0  0  0  0  0  0  0  0  0  0  0
    3.8375    4.8601   -0.1304 H   0  0  0  0  0  0  0  0  0  0  0  0
    6.1421    5.2629    0.6625 H   0  0  0  0  0  0  0  0  0  0  0  0
    8.3060    4.3965    1.3716 H   0  0  0  0  0  0  0  0  0  0  0  0
    9.7918    2.4699    1.8178 H   0  0  0  0  0  0  0  0  0  0  0  0
   10.1743    0.0471    1.8790 H   0  0  0  0  0  0  0  0  0  0  0  0
    8.3920   -1.5094    1.2320 H   0  0  0  0  0  0  0  0  0  0  0  0
    6.0839   -1.9176    0.4382 H   0  0  0  0  0  0  0  0  0  0  0  0
    3.9227   -1.0522   -0.2698 H   0  0  0  0  0  0  0  0  0  0  0  0
   -0.9139   -0.4829    0.3463 H   0  0  0  0  0  0  0  0  0  0  0  0
  1  2  1  0  0  0  0
  2  3  1  0  0  0  0
  3  4  1  0  0  0  0
  4  5  1  0  0  0  0
  5  6  1  0  0  0  0
  6  7  1  0  0  0  0
  5  8  1  0  0  0  0
  8  9  1  0  0  0  0
  9 10  1  0  0  0  0
 10 11  2  0  0  0  0
 11 12  1  0  0  0  0
 12 13  1  0  0  0  0
 13 14  3  0  0  0  0
 12 15  2  0  0  0  0
 15 16  1  0  0  0  0
 16 17  2  0  0  0  0
 17 18  1  0  0  0  0
 18 19  2  0  0  0  0
 19 20  1  0  0  0  0
 20 21  2  0  0  0  0
 21 22  1  0  0  0  0
 22 23  3  0  0  0  0
 23 24  1  0  0  0  0
 24 25  2  0  0  0  0
 25 26  1  0  0  0  0
 26 27  2  0  0  0  0
 27 28  1  0  0  0  0
 28 29  2  0  0  0  0
 29 30  1  0  0  0  0
 30 31  2  0  0  0  0
 31 32  1  0  0  0  0
 32 33  2  0  0  0  0
 33 34  1  0  0  0  0
 34 35  2  0  0  0  0
 35 36  1  0  0  0  0
 36 37  2  0  0  0  0
 37 38  1  0  0  0  0
 38 39  2  0  0  0  0
 21 40  1  0  0  0  0
 40 41  2  0  0  0  0
 41  9  1  0  0  0  0
 17 10  1  0  0  0  0
 41 18  1  0  0  0  0
 37 24  1  0  0  0  0
 38 27  1  0  0  0  0
 39 30  1  0  0  0  0
 39 34  1  0  0  0  0
  1 42  1  0  0  0  0
  1 43  1  0  0  0  0
  1 44  1  0  0  0  0
  2 45  1  0  0  0  0
  2 46  1  0  0  0  0
  3 47  1  0  0  0  0
  3 48  1  0  0  0  0
  4 49  1  0  0  0  0
  4 50  1  0  0  0  0
  5 51  1  0  0  0  0
  6 52  1  0  0  0  0
  6 53  1  0  0  0  0
  7 54  1  0  0  0  0
  7 55  1  0  0  0  0
  7 56  1  0  0  0  0
  8 57  1  0  0  0  0
  8 58  1  0  0  0  0
 11 59  1  0  0  0  0
 15 60  1  0  0  0  0
 16 61  1  0  0  0  0
 19 62  1  0  0  0  0
 20 63  1  0  0  0  0
 25 64  1  0  0  0  0
 26 65  1  0  0  0  0
 28 66  1  0  0  0  0
 29 67  1  0  0  0  0
 31 68  1  0  0  0  0
 32 69  1  0  0  0  0
 33 70  1  0  0  0  0
 35 71  1  0  0  0  0
 36 72  1  0  0  0  0
 40 73  1  0  0  0  0
M  END
