
  xtb     03212210133D
 energy: -8.067208303462 gnorm: 0.000545278823 xtb: 6.4.1 (afa7bdf)
 40 44  0     0  0            999 V2000
   -3.1208    1.7382   -0.9133 C   0  0  0  0  0  0  0  0  0  0  0  0
   -2.9024    1.0004    0.4067 C   0  0  0  0  0  0  0  0  0  0  0  0
   -4.0470    1.6836    1.6216 S   0  0  0  0  0  0  0  0  0  0  0  0
   -2.7974    2.6809    2.3839 C   0  0  0  0  0  0  0  0  0  0  0  0
   -3.0086    3.5742    3.1759 O   0  0  0  0  0  0  0  0  0  0  0  0
   -1.4957    2.2502    1.9375 C   0  0  0  0  0  0  0  0  0  0  0  0
   -1.5203    1.3201    0.9579 C   0  0  0  0  0  0  0  0  0  0  0  0
   -0.3717    0.6050    0.4424 C   0  0  0  0  0  0  0  0  0  0  0  0
    0.9385    0.8741    0.5735 N   0  0  0  0  0  0  0  0  0  0  0  0
    1.5812   -0.0632   -0.1241 C   0  0  0  0  0  0  0  0  0  0  0  0
    3.0309   -0.1192   -0.2424 C   0  0  0  0  0  0  0  0  0  0  0  0
    3.8133    0.8472    0.3870 C   0  0  0  0  0  0  0  0  0  0  0  0
    5.1800    0.8194    0.2901 C   0  0  0  0  0  0  0  0  0  0  0  0
    5.8221   -0.1817   -0.4439 C   0  0  0  0  0  0  0  0  0  0  0  0
    7.1984   -0.1867   -0.5257 O   0  0  0  0  0  0  0  0  0  0  0  0
    5.0377   -1.1519   -1.0754 C   0  0  0  0  0  0  0  0  0  0  0  0
    3.6704   -1.1187   -0.9749 C   0  0  0  0  0  0  0  0  0  0  0  0
    0.6973   -0.9546   -0.7112 N   0  0  0  0  0  0  0  0  0  0  0  0
   -0.5501   -0.5470   -0.3449 C   0  0  0  0  0  0  0  0  0  0  0  0
   -1.8642   -1.0817   -0.6045 C   0  0  0  0  0  0  0  0  0  0  0  0
   -2.1819   -1.9905   -1.5547 C   0  0  0  0  0  0  0  0  0  0  0  0
   -3.5963   -2.2171   -1.7146 C   0  0  0  0  0  0  0  0  0  0  0  0
   -4.0963   -3.0605   -2.4284 O   0  0  0  0  0  0  0  0  0  0  0  0
   -4.5001   -1.0535   -0.7312 S   0  0  0  0  0  0  0  0  0  0  0  0
   -3.0419   -0.5683    0.2126 C   0  0  0  0  0  0  0  0  0  0  0  0
   -3.0943   -1.2846    1.5614 C   0  0  0  0  0  0  0  0  0  0  0  0
   -4.1288    1.5645   -1.2895 H   0  0  0  0  0  0  0  0  0  0  0  0
   -2.9907    2.8120   -0.7776 H   0  0  0  0  0  0  0  0  0  0  0  0
   -2.4108    1.4024   -1.6691 H   0  0  0  0  0  0  0  0  0  0  0  0
   -0.5901    2.5942    2.4019 H   0  0  0  0  0  0  0  0  0  0  0  0
    3.3202    1.6203    0.9521 H   0  0  0  0  0  0  0  0  0  0  0  0
    5.7855    1.5644    0.7738 H   0  0  0  0  0  0  0  0  0  0  0  0
    7.5034   -0.9426   -1.0718 H   0  0  0  0  0  0  0  0  0  0  0  0
    5.5210   -1.9267   -1.6423 H   0  0  0  0  0  0  0  0  0  0  0  0
    3.0775   -1.8710   -1.4650 H   0  0  0  0  0  0  0  0  0  0  0  0
    0.9164   -1.7713   -1.2826 H   0  0  0  0  0  0  0  0  0  0  0  0
   -1.4573   -2.4596   -2.1937 H   0  0  0  0  0  0  0  0  0  0  0  0
   -3.9672   -0.9678    2.1318 H   0  0  0  0  0  0  0  0  0  0  0  0
   -2.2032   -1.0698    2.1513 H   0  0  0  0  0  0  0  0  0  0  0  0
   -3.1574   -2.3636    1.4196 H   0  0  0  0  0  0  0  0  0  0  0  0
  2  1  1  0  0  0  0
  2  3  1  0  0  0  0
  3  4  1  0  0  0  0
  4  5  2  0  0  0  0
  4  6  1  0  0  0  0
  6  7  2  0  0  0  0
  7  8  1  0  0  0  0
  8  9  1  0  0  0  0
  9 10  2  0  0  0  0
 10 11  1  0  0  0  0
 11 12  2  0  0  0  0
 12 13  1  0  0  0  0
 13 14  2  0  0  0  0
 14 15  1  0  0  0  0
 14 16  1  0  0  0  0
 16 17  2  0  0  0  0
 10 18  1  0  0  0  0
 18 19  1  0  0  0  0
 19 20  1  0  0  0  0
 20 21  2  0  0  0  0
 21 22  1  0  0  0  0
 22 23  2  0  0  0  0
 22 24  1  0  0  0  0
 24 25  1  0  0  0  0
 25 26  1  0  0  0  0
  7  2  1  0  0  0  0
 19  8  2  0  0  0  0
 25 20  1  0  0  0  0
 25  2  1  0  0  0  0
 17 11  1  0  0  0  0
  1 27  1  0  0  0  0
  1 28  1  0  0  0  0
  1 29  1  0  0  0  0
  6 30  1  0  0  0  0
 12 31  1  0  0  0  0
 13 32  1  0  0  0  0
 15 33  1  0  0  0  0
 16 34  1  0  0  0  0
 17 35  1  0  0  0  0
 18 36  1  0  0  0  0
 21 37  1  0  0  0  0
 26 38  1  0  0  0  0
 26 39  1  0  0  0  0
 26 40  1  0  0  0  0
M  END
