
  xtb     03212210143D
 energy: -6.814382100139 gnorm: 0.000792298104 xtb: 6.4.1 (afa7bdf)
 32 34  0     0  0            999 V2000
   -6.0964   -1.5351    0.0671 C   0  0  0  0  0  0  0  0  0  0  0  0
   -4.6514   -1.1867    0.1127 C   0  0  0  0  0  0  0  0  0  0  0  0
   -4.1799   -0.0699   -0.5591 C   0  0  0  0  0  0  0  0  0  0  0  0
   -2.8454    0.2588   -0.5327 C   0  0  0  0  0  0  0  0  0  0  0  0
   -1.9234   -0.5216    0.1673 C   0  0  0  0  0  0  0  0  0  0  0  0
   -0.5053   -0.2252    0.2273 C   0  0  0  0  0  0  0  0  0  0  0  0
    0.1672    0.8037   -0.3479 C   0  0  0  0  0  0  0  0  0  0  0  0
   -0.4414    1.7909   -1.1300 C   0  0  0  0  0  0  0  0  0  0  0  0
   -0.9561    2.6112   -1.7724 N   0  0  0  0  0  0  0  0  0  0  0  0
    1.5927    0.8996   -0.1510 C   0  0  0  0  0  0  0  0  0  0  0  0
    2.2937    0.0533    0.5507 N   0  0  0  0  0  0  0  0  0  0  0  0
    3.6366    0.3874    0.5677 C   0  0  0  0  0  0  0  0  0  0  0  0
    4.6432   -0.3268    1.2322 C   0  0  0  0  0  0  0  0  0  0  0  0
    5.9403    0.1137    1.1655 C   0  0  0  0  0  0  0  0  0  0  0  0
    6.2688    1.2612    0.4457 C   0  0  0  0  0  0  0  0  0  0  0  0
    5.2975    1.9750   -0.2123 C   0  0  0  0  0  0  0  0  0  0  0  0
    3.9822    1.5392   -0.1520 C   0  0  0  0  0  0  0  0  0  0  0  0
    2.5453    2.2023   -0.8592 S   0  0  0  0  0  0  0  0  0  0  0  0
   -2.4070   -1.6465    0.8379 C   0  0  0  0  0  0  0  0  0  0  0  0
   -3.7436   -1.9714    0.8086 C   0  0  0  0  0  0  0  0  0  0  0  0
   -6.7111   -0.6851    0.3687 H   0  0  0  0  0  0  0  0  0  0  0  0
   -6.3936   -1.8252   -0.9422 H   0  0  0  0  0  0  0  0  0  0  0  0
   -6.3275   -2.3661    0.7358 H   0  0  0  0  0  0  0  0  0  0  0  0
   -4.8754    0.5430   -1.1067 H   0  0  0  0  0  0  0  0  0  0  0  0
   -2.5146    1.1331   -1.0615 H   0  0  0  0  0  0  0  0  0  0  0  0
    0.0912   -0.9104    0.8027 H   0  0  0  0  0  0  0  0  0  0  0  0
    4.3796   -1.2107    1.7849 H   0  0  0  0  0  0  0  0  0  0  0  0
    6.7160   -0.4339    1.6748 H   0  0  0  0  0  0  0  0  0  0  0  0
    7.2943    1.5904    0.4050 H   0  0  0  0  0  0  0  0  0  0  0  0
    5.5371    2.8626   -0.7718 H   0  0  0  0  0  0  0  0  0  0  0  0
   -1.7169   -2.2665    1.3839 H   0  0  0  0  0  0  0  0  0  0  0  0
   -4.0965   -2.8443    1.3306 H   0  0  0  0  0  0  0  0  0  0  0  0
  1  2  1  0  0  0  0
  2  3  2  0  0  0  0
  3  4  1  0  0  0  0
  4  5  2  0  0  0  0
  5  6  1  0  0  0  0
  6  7  2  0  0  0  0
  7  8  1  0  0  0  0
  8  9  3  0  0  0  0
  7 10  1  0  0  0  0
 10 11  2  0  0  0  0
 11 12  1  0  0  0  0
 12 13  2  0  0  0  0
 13 14  1  0  0  0  0
 14 15  2  0  0  0  0
 15 16  1  0  0  0  0
 16 17  2  0  0  0  0
 17 18  1  0  0  0  0
  5 19  1  0  0  0  0
 19 20  2  0  0  0  0
 20  2  1  0  0  0  0
 18 10  1  0  0  0  0
 17 12  1  0  0  0  0
  1 21  1  0  0  0  0
  1 22  1  0  0  0  0
  1 23  1  0  0  0  0
  3 24  1  0  0  0  0
  4 25  1  0  0  0  0
  6 26  1  0  0  0  0
 13 27  1  0  0  0  0
 14 28  1  0  0  0  0
 15 29  1  0  0  0  0
 16 30  1  0  0  0  0
 19 31  1  0  0  0  0
 20 32  1  0  0  0  0
M  END
