
  xtb     03212210133D
 energy: -12.093929018812 gnorm: 0.000269160800 xtb: 6.4.1 (afa7bdf)
 58 64  0     0  0            999 V2000
    1.8384   -0.6548    0.5727 C   0  0  0  0  0  0  0  0  0  0  0  0
    1.1131   -0.1069    1.7914 C   0  0  0  0  0  0  0  0  0  0  0  0
    1.3137    1.3977    1.9879 C   0  0  0  0  0  0  0  0  0  0  0  0
    0.5455    2.2380    0.9759 C   0  0  0  0  0  0  0  0  0  0  0  0
   -0.9037    2.0019    1.0638 N   0  0  0  0  0  0  0  0  0  0  0  0
   -1.6797    1.2610    0.1740 C   0  0  0  0  0  0  0  0  0  0  0  0
   -1.3240    0.6358   -1.0353 C   0  0  0  0  0  0  0  0  0  0  0  0
   -2.2810   -0.0158   -1.7487 C   0  0  0  0  0  0  0  0  0  0  0  0
   -3.6499    0.0231   -1.3656 C   0  0  0  0  0  0  0  0  0  0  0  0
   -4.6372   -0.6279   -2.1591 C   0  0  0  0  0  0  0  0  0  0  0  0
   -5.9551   -0.4942   -1.8888 C   0  0  0  0  0  0  0  0  0  0  0  0
   -6.4058    0.3718   -0.8517 C   0  0  0  0  0  0  0  0  0  0  0  0
   -7.7771    0.6151   -0.6500 C   0  0  0  0  0  0  0  0  0  0  0  0
   -8.1966    1.5340    0.2698 C   0  0  0  0  0  0  0  0  0  0  0  0
   -7.2638    2.2609    1.0049 C   0  0  0  0  0  0  0  0  0  0  0  0
   -5.9269    2.0319    0.8388 C   0  0  0  0  0  0  0  0  0  0  0  0
   -5.4575    1.0467   -0.0487 C   0  0  0  0  0  0  0  0  0  0  0  0
   -4.0479    0.7465   -0.2167 C   0  0  0  0  0  0  0  0  0  0  0  0
   -3.0038    1.2125    0.6570 C   0  0  0  0  0  0  0  0  0  0  0  0
   -2.9654    1.7457    2.0049 C   0  0  0  0  0  0  0  0  0  0  0  0
   -3.8531    1.7115    3.1374 C   0  0  0  0  0  0  0  0  0  0  0  0
   -3.5706    2.5991    4.2029 C   0  0  0  0  0  0  0  0  0  0  0  0
   -4.5162    2.7492    5.2572 C   0  0  0  0  0  0  0  0  0  0  0  0
   -5.6358    1.9930    5.3092 C   0  0  0  0  0  0  0  0  0  0  0  0
   -5.8662    0.9596    4.3566 C   0  0  0  0  0  0  0  0  0  0  0  0
   -6.9604    0.0835    4.4823 C   0  0  0  0  0  0  0  0  0  0  0  0
   -7.1093   -0.9761    3.6330 C   0  0  0  0  0  0  0  0  0  0  0  0
   -6.1599   -1.2149    2.6428 C   0  0  0  0  0  0  0  0  0  0  0  0
   -5.0968   -0.3699    2.4903 C   0  0  0  0  0  0  0  0  0  0  0  0
   -4.9454    0.7703    3.3002 C   0  0  0  0  0  0  0  0  0  0  0  0
   -2.3355    3.3034    4.2417 C   0  0  0  0  0  0  0  0  0  0  0  0
   -1.3942    3.1411    3.2738 C   0  0  0  0  0  0  0  0  0  0  0  0
   -1.7007    2.3500    2.1516 C   0  0  0  0  0  0  0  0  0  0  0  0
    1.5118   -0.1651   -0.3447 H   0  0  0  0  0  0  0  0  0  0  0  0
    1.6729   -1.7271    0.4453 H   0  0  0  0  0  0  0  0  0  0  0  0
    2.9156   -0.4969    0.6516 H   0  0  0  0  0  0  0  0  0  0  0  0
    0.0373   -0.3163    1.7174 H   0  0  0  0  0  0  0  0  0  0  0  0
    1.4478   -0.6478    2.6884 H   0  0  0  0  0  0  0  0  0  0  0  0
    0.9893    1.6819    2.9969 H   0  0  0  0  0  0  0  0  0  0  0  0
    2.3846    1.6335    1.9474 H   0  0  0  0  0  0  0  0  0  0  0  0
    0.7238    3.3066    1.1303 H   0  0  0  0  0  0  0  0  0  0  0  0
    0.8759    2.0209   -0.0421 H   0  0  0  0  0  0  0  0  0  0  0  0
   -0.3045    0.6613   -1.3733 H   0  0  0  0  0  0  0  0  0  0  0  0
   -2.0163   -0.5322   -2.6553 H   0  0  0  0  0  0  0  0  0  0  0  0
   -4.3139   -1.2363   -2.9863 H   0  0  0  0  0  0  0  0  0  0  0  0
   -6.6877   -0.9990   -2.4950 H   0  0  0  0  0  0  0  0  0  0  0  0
   -8.4950    0.0775   -1.2457 H   0  0  0  0  0  0  0  0  0  0  0  0
   -9.2496    1.7134    0.4136 H   0  0  0  0  0  0  0  0  0  0  0  0
   -7.5991    3.0037    1.7105 H   0  0  0  0  0  0  0  0  0  0  0  0
   -5.2142    2.6146    1.3928 H   0  0  0  0  0  0  0  0  0  0  0  0
   -4.3242    3.4836    6.0205 H   0  0  0  0  0  0  0  0  0  0  0  0
   -6.3431    2.1244    6.1100 H   0  0  0  0  0  0  0  0  0  0  0  0
   -7.6728    0.2493    5.2723 H   0  0  0  0  0  0  0  0  0  0  0  0
   -7.9501   -1.6417    3.7407 H   0  0  0  0  0  0  0  0  0  0  0  0
   -6.2676   -2.0673    1.9919 H   0  0  0  0  0  0  0  0  0  0  0  0
   -4.3561   -0.5766    1.7401 H   0  0  0  0  0  0  0  0  0  0  0  0
   -2.1332    3.9397    5.0860 H   0  0  0  0  0  0  0  0  0  0  0  0
   -0.4435    3.6403    3.3305 H   0  0  0  0  0  0  0  0  0  0  0  0
  1  2  1  0  0  0  0
  1 34  1  0  0  0  0
  1 35  1  0  0  0  0
  1 36  1  0  0  0  0
  2  3  1  0  0  0  0
  2 37  1  0  0  0  0
  2 38  1  0  0  0  0
  3  4  1  0  0  0  0
  3 39  1  0  0  0  0
  3 40  1  0  0  0  0
  4  5  1  0  0  0  0
  4 41  1  0  0  0  0
  4 42  1  0  0  0  0
  5  6  1  0  0  0  0
  6  7  2  0  0  0  0
  7  8  1  0  0  0  0
  7 43  1  0  0  0  0
  8  9  2  0  0  0  0
  8 44  1  0  0  0  0
  9 10  1  0  0  0  0
 10 11  2  0  0  0  0
 10 45  1  0  0  0  0
 11 12  1  0  0  0  0
 11 46  1  0  0  0  0
 12 13  2  0  0  0  0
 13 14  1  0  0  0  0
 13 47  1  0  0  0  0
 14 15  2  0  0  0  0
 14 48  1  0  0  0  0
 15 16  1  0  0  0  0
 15 49  1  0  0  0  0
 16 17  2  0  0  0  0
 16 50  1  0  0  0  0
 17 18  1  0  0  0  0
 17 12  1  0  0  0  0
 18 19  2  0  0  0  0
 18  9  1  0  0  0  0
 19 20  1  0  0  0  0
 19  6  1  0  0  0  0
 20 21  2  0  0  0  0
 21 22  1  0  0  0  0
 22 23  1  0  0  0  0
 22 31  2  0  0  0  0
 23 24  2  0  0  0  0
 23 51  1  0  0  0  0
 24 25  1  0  0  0  0
 24 52  1  0  0  0  0
 25 26  2  0  0  0  0
 26 27  1  0  0  0  0
 26 53  1  0  0  0  0
 27 28  2  0  0  0  0
 27 54  1  0  0  0  0
 28 29  1  0  0  0  0
 28 55  1  0  0  0  0
 29 30  2  0  0  0  0
 29 56  1  0  0  0  0
 30 21  1  0  0  0  0
 30 25  1  0  0  0  0
 31 32  1  0  0  0  0
 31 57  1  0  0  0  0
 32 33  2  0  0  0  0
 32 58  1  0  0  0  0
 33  5  1  0  0  0  0
 33 20  1  0  0  0  0
M  END
