
  xtb     03212210133D
 energy: -7.847168013354 gnorm: 0.000689811609 xtb: 6.4.1 (afa7bdf)
 45 46  0     0  0            999 V2000
    5.9782    1.3231   -0.9762 C   0  0  0  0  0  0  0  0  0  0  0  0
    4.5711    1.0430   -1.3829 C   0  0  0  0  0  0  0  0  0  0  0  0
    4.2489    1.1630   -2.5425 O   0  0  0  0  0  0  0  0  0  0  0  0
    3.7216    0.6540   -0.3948 O   0  0  0  0  0  0  0  0  0  0  0  0
    2.4360    0.4819   -0.9171 C   0  0  0  0  0  0  0  0  0  0  0  0
    1.5134   -0.2086    0.0833 C   0  0  0  0  0  0  0  0  0  0  0  0
    1.2032    0.6668    1.1843 O   0  0  0  0  0  0  0  0  0  0  0  0
   -0.2216    0.7313    1.3774 C   0  0  0  0  0  0  0  0  0  0  0  0
   -0.8092    2.0846    0.9143 C   0  0  0  0  0  0  0  0  0  0  0  0
   -2.1801    2.2994    1.4896 C   0  0  0  0  0  0  0  0  0  0  0  0
   -3.3037    2.2470    0.7662 C   0  0  0  0  0  0  0  0  0  0  0  0
   -4.5081    2.4382    1.3518 F   0  0  0  0  0  0  0  0  0  0  0  0
   -3.2412    2.0265   -0.6579 C   0  0  0  0  0  0  0  0  0  0  0  0
   -4.6219    1.8112   -1.5016 S   0  0  0  0  0  0  0  0  0  0  0  0
   -2.0255    2.0203   -1.2623 N   0  0  0  0  0  0  0  0  0  0  0  0
   -0.8034    2.1491   -0.6002 C   0  0  0  0  0  0  0  0  0  0  0  0
    0.2277    2.2608   -1.2164 O   0  0  0  0  0  0  0  0  0  0  0  0
   -0.8399   -0.4695    0.6101 C   0  0  0  0  0  0  0  0  0  0  0  0
   -0.9427   -1.6244    1.4109 O   0  0  0  0  0  0  0  0  0  0  0  0
   -1.7973   -1.4296    2.4544 C   0  0  0  0  0  0  0  0  0  0  0  0
   -2.0522   -2.6142    3.3248 C   0  0  0  0  0  0  0  0  0  0  0  0
   -2.3382   -0.3780    2.7093 O   0  0  0  0  0  0  0  0  0  0  0  0
    0.1741   -0.6768   -0.5413 C   0  0  0  0  0  0  0  0  0  0  0  0
    0.2157   -2.0005   -1.0124 O   0  0  0  0  0  0  0  0  0  0  0  0
   -0.9166   -2.2506   -1.7211 C   0  0  0  0  0  0  0  0  0  0  0  0
   -1.0792   -3.6340   -2.2426 C   0  0  0  0  0  0  0  0  0  0  0  0
   -1.7715   -1.4245   -1.9507 O   0  0  0  0  0  0  0  0  0  0  0  0
    6.2534    2.3405   -1.2488 H   0  0  0  0  0  0  0  0  0  0  0  0
    6.0928    1.2060    0.1002 H   0  0  0  0  0  0  0  0  0  0  0  0
    6.6604    0.6381   -1.4765 H   0  0  0  0  0  0  0  0  0  0  0  0
    2.5225   -0.0929   -1.8493 H   0  0  0  0  0  0  0  0  0  0  0  0
    2.0500    1.4834   -1.1543 H   0  0  0  0  0  0  0  0  0  0  0  0
    2.0236   -1.0806    0.5181 H   0  0  0  0  0  0  0  0  0  0  0  0
   -0.3864    0.5893    2.4550 H   0  0  0  0  0  0  0  0  0  0  0  0
   -0.1371    2.8767    1.2723 H   0  0  0  0  0  0  0  0  0  0  0  0
   -2.2839    2.4093    2.5564 H   0  0  0  0  0  0  0  0  0  0  0  0
   -1.9779    1.9218   -2.2700 H   0  0  0  0  0  0  0  0  0  0  0  0
   -1.8492   -0.2472    0.2306 H   0  0  0  0  0  0  0  0  0  0  0  0
   -1.7448   -2.4045    4.3482 H   0  0  0  0  0  0  0  0  0  0  0  0
   -3.1139   -2.8567    3.3287 H   0  0  0  0  0  0  0  0  0  0  0  0
   -1.4969   -3.4785    2.9630 H   0  0  0  0  0  0  0  0  0  0  0  0
   -0.0821   -0.0388   -1.4020 H   0  0  0  0  0  0  0  0  0  0  0  0
   -0.2717   -4.2720   -1.8856 H   0  0  0  0  0  0  0  0  0  0  0  0
   -1.0676   -3.6318   -3.3316 H   0  0  0  0  0  0  0  0  0  0  0  0
   -2.0285   -4.0519   -1.9105 H   0  0  0  0  0  0  0  0  0  0  0  0
  1  2  1  0  0  0  0
  2  3  2  0  0  0  0
  2  4  1  0  0  0  0
  4  5  1  0  0  0  0
  5  6  1  0  0  0  0
  6  7  1  0  0  0  0
  7  8  1  0  0  0  0
  8  9  1  0  0  0  0
  9 10  1  0  0  0  0
 10 11  2  0  0  0  0
 11 12  1  0  0  0  0
 11 13  1  0  0  0  0
 13 14  2  0  0  0  0
 13 15  1  0  0  0  0
 15 16  1  0  0  0  0
 16 17  2  0  0  0  0
  8 18  1  0  0  0  0
 18 19  1  0  0  0  0
 19 20  1  0  0  0  0
 20 21  1  0  0  0  0
 20 22  2  0  0  0  0
 18 23  1  0  0  0  0
 23 24  1  0  0  0  0
 24 25  1  0  0  0  0
 25 26  1  0  0  0  0
 25 27  2  0  0  0  0
 23  6  1  0  0  0  0
 16  9  1  0  0  0  0
  1 28  1  0  0  0  0
  1 29  1  0  0  0  0
  1 30  1  0  0  0  0
  5 31  1  0  0  0  0
  5 32  1  0  0  0  0
  6 33  1  0  0  0  0
  8 34  1  0  0  0  0
  9 35  1  0  0  0  0
 10 36  1  0  0  0  0
 15 37  1  0  0  0  0
 18 38  1  0  0  0  0
 21 39  1  0  0  0  0
 21 40  1  0  0  0  0
 21 41  1  0  0  0  0
 23 42  1  0  0  0  0
 26 43  1  0  0  0  0
 26 44  1  0  0  0  0
 26 45  1  0  0  0  0
M  END
