
  xtb     03212210133D
 energy: -18.337317125090 gnorm: 0.000321441621 xtb: 6.4.1 (afa7bdf)
 94100  0     0  0            999 V2000
   -9.0513   -2.4517    2.7214 C   0  0  0  0  0  0  0  0  0  0  0  0
   -8.6360   -2.1214    1.4171 O   0  0  0  0  0  0  0  0  0  0  0  0
   -7.2814   -1.8643    1.2743 C   0  0  0  0  0  0  0  0  0  0  0  0
   -6.3444   -1.9200    2.3072 C   0  0  0  0  0  0  0  0  0  0  0  0
   -5.0223   -1.6303    2.0864 C   0  0  0  0  0  0  0  0  0  0  0  0
   -4.5578   -1.2664    0.8155 C   0  0  0  0  0  0  0  0  0  0  0  0
   -3.1401   -0.9542    0.5728 C   0  0  0  0  0  0  0  0  0  0  0  0
   -2.1272   -1.8381    1.0459 C   0  0  0  0  0  0  0  0  0  0  0  0
   -0.7959   -1.6599    0.9513 N   0  0  0  0  0  0  0  0  0  0  0  0
   -0.2240   -2.7407    1.5372 C   0  0  0  0  0  0  0  0  0  0  0  0
    1.1367   -2.9936    1.7037 C   0  0  0  0  0  0  0  0  0  0  0  0
    2.1613   -2.1988    1.2045 C   0  0  0  0  0  0  0  0  0  0  0  0
    3.5445   -2.4372    1.3814 C   0  0  0  0  0  0  0  0  0  0  0  0
    4.2281   -1.4718    0.7013 C   0  0  0  0  0  0  0  0  0  0  0  0
    3.2910   -0.6151    0.0821 C   0  0  0  0  0  0  0  0  0  0  0  0
    2.0409   -1.0668    0.4178 N   0  0  0  0  0  0  0  0  0  0  0  0
    3.6254    0.4971   -0.7444 C   0  0  0  0  0  0  0  0  0  0  0  0
    5.0549    0.7084   -1.0912 C   0  0  0  0  0  0  0  0  0  0  0  0
    5.7066   -0.1486   -1.9808 C   0  0  0  0  0  0  0  0  0  0  0  0
    7.0332    0.0238   -2.2876 C   0  0  0  0  0  0  0  0  0  0  0  0
    7.7832    1.0428   -1.7027 C   0  0  0  0  0  0  0  0  0  0  0  0
    9.1396    1.2523   -1.9239 O   0  0  0  0  0  0  0  0  0  0  0  0
    9.7478    0.3353   -2.8024 C   0  0  0  0  0  0  0  0  0  0  0  0
    7.1383    1.9166   -0.7807 C   0  0  0  0  0  0  0  0  0  0  0  0
    7.8935    2.9224   -0.1445 O   0  0  0  0  0  0  0  0  0  0  0  0
    7.9176    2.8172    1.2784 C   0  0  0  0  0  0  0  0  0  0  0  0
    9.0669    1.9546    1.7825 C   0  0  0  0  0  0  0  0  0  0  0  0
    8.9813    0.5135    1.2995 C   0  0  0  0  0  0  0  0  0  0  0  0
    7.6955   -0.1549    1.6955 C   0  0  0  0  0  0  0  0  0  0  0  0
    7.2297   -1.0313    1.0002 O   0  0  0  0  0  0  0  0  0  0  0  0
    7.1121    0.2551    2.8439 O   0  0  0  0  0  0  0  0  0  0  0  0
    5.7938    1.7443   -0.5110 C   0  0  0  0  0  0  0  0  0  0  0  0
    2.6544    1.3690   -1.2531 C   0  0  0  0  0  0  0  0  0  0  0  0
    1.3326    1.2946   -1.0771 N   0  0  0  0  0  0  0  0  0  0  0  0
    0.7251    2.3305   -1.7191 C   0  0  0  0  0  0  0  0  0  0  0  0
   -0.6067    2.6143   -1.7637 C   0  0  0  0  0  0  0  0  0  0  0  0
   -1.6424    1.8491   -1.1841 C   0  0  0  0  0  0  0  0  0  0  0  0
   -3.0041    2.1957   -1.2161 C   0  0  0  0  0  0  0  0  0  0  0  0
   -3.7083    1.2126   -0.5746 C   0  0  0  0  0  0  0  0  0  0  0  0
   -2.7978    0.2274   -0.1409 C   0  0  0  0  0  0  0  0  0  0  0  0
   -1.5378    0.6538   -0.5176 N   0  0  0  0  0  0  0  0  0  0  0  0
    1.7216    3.2142   -2.4142 C   0  0  0  0  0  0  0  0  0  0  0  0
    3.0448    2.5360   -2.1209 C   0  0  0  0  0  0  0  0  0  0  0  0
   -1.2325   -3.6457    1.9991 C   0  0  0  0  0  0  0  0  0  0  0  0
   -2.4139   -3.0901    1.6836 C   0  0  0  0  0  0  0  0  0  0  0  0
   -5.4961   -1.2084   -0.2260 C   0  0  0  0  0  0  0  0  0  0  0  0
   -6.8293   -1.5018   -0.0271 C   0  0  0  0  0  0  0  0  0  0  0  0
   -7.7504   -1.4467   -1.0961 O   0  0  0  0  0  0  0  0  0  0  0  0
   -7.9918   -0.1245   -1.5768 C   0  0  0  0  0  0  0  0  0  0  0  0
   -9.4658    0.2330   -1.4721 C   0  0  0  0  0  0  0  0  0  0  0  0
   -9.9781    0.0843   -0.0523 C   0  0  0  0  0  0  0  0  0  0  0  0
  -11.4162    0.4841    0.0685 C   0  0  0  0  0  0  0  0  0  0  0  0
  -11.7831    1.5517   -0.3689 O   0  0  0  0  0  0  0  0  0  0  0  0
  -12.2475   -0.3863    0.6828 O   0  0  0  0  0  0  0  0  0  0  0  0
   -8.8308   -1.6279    3.4011 H   0  0  0  0  0  0  0  0  0  0  0  0
  -10.1291   -2.6179    2.7030 H   0  0  0  0  0  0  0  0  0  0  0  0
   -8.5553   -3.3666    3.0469 H   0  0  0  0  0  0  0  0  0  0  0  0
   -6.6650   -2.1888    3.2981 H   0  0  0  0  0  0  0  0  0  0  0  0
   -4.3243   -1.6504    2.9048 H   0  0  0  0  0  0  0  0  0  0  0  0
    1.4151   -3.8804    2.2446 H   0  0  0  0  0  0  0  0  0  0  0  0
    3.9766   -3.2409    1.9558 H   0  0  0  0  0  0  0  0  0  0  0  0
    5.2996   -1.3529    0.6767 H   0  0  0  0  0  0  0  0  0  0  0  0
    1.1486   -0.6491    0.1255 H   0  0  0  0  0  0  0  0  0  0  0  0
    5.1473   -0.9539   -2.4236 H   0  0  0  0  0  0  0  0  0  0  0  0
    7.5049   -0.6553   -2.9753 H   0  0  0  0  0  0  0  0  0  0  0  0
    9.6575   -0.6756   -2.4030 H   0  0  0  0  0  0  0  0  0  0  0  0
   10.8044    0.5908   -2.8872 H   0  0  0  0  0  0  0  0  0  0  0  0
    9.2859    0.4050   -3.7877 H   0  0  0  0  0  0  0  0  0  0  0  0
    7.9858    3.8394    1.6683 H   0  0  0  0  0  0  0  0  0  0  0  0
    6.9595    2.4095    1.6159 H   0  0  0  0  0  0  0  0  0  0  0  0
    9.0812    1.9647    2.8806 H   0  0  0  0  0  0  0  0  0  0  0  0
   10.0156    2.4021    1.4585 H   0  0  0  0  0  0  0  0  0  0  0  0
    9.0646    0.4840    0.2104 H   0  0  0  0  0  0  0  0  0  0  0  0
    9.8176   -0.0787    1.6832 H   0  0  0  0  0  0  0  0  0  0  0  0
    6.3076   -0.2869    2.9654 H   0  0  0  0  0  0  0  0  0  0  0  0
    5.3071    2.4098    0.1772 H   0  0  0  0  0  0  0  0  0  0  0  0
   -0.9038    3.5009   -2.2963 H   0  0  0  0  0  0  0  0  0  0  0  0
   -3.4145    3.0874   -1.6625 H   0  0  0  0  0  0  0  0  0  0  0  0
   -4.7719    1.2081   -0.4078 H   0  0  0  0  0  0  0  0  0  0  0  0
   -0.6524    0.1737   -0.3177 H   0  0  0  0  0  0  0  0  0  0  0  0
    1.6742    4.2337   -2.0108 H   0  0  0  0  0  0  0  0  0  0  0  0
    1.5050    3.2694   -3.4887 H   0  0  0  0  0  0  0  0  0  0  0  0
    3.7428    3.1953   -1.5928 H   0  0  0  0  0  0  0  0  0  0  0  0
    3.5450    2.1820   -3.0298 H   0  0  0  0  0  0  0  0  0  0  0  0
   -1.0684   -4.5936    2.4868 H   0  0  0  0  0  0  0  0  0  0  0  0
   -3.3869   -3.5192    1.8538 H   0  0  0  0  0  0  0  0  0  0  0  0
   -5.1662   -0.9683   -1.2197 H   0  0  0  0  0  0  0  0  0  0  0  0
   -7.6326   -0.0781   -2.6113 H   0  0  0  0  0  0  0  0  0  0  0  0
   -7.3843    0.5722   -0.9890 H   0  0  0  0  0  0  0  0  0  0  0  0
  -10.0487   -0.4206   -2.1331 H   0  0  0  0  0  0  0  0  0  0  0  0
   -9.6493    1.2567   -1.8251 H   0  0  0  0  0  0  0  0  0  0  0  0
   -9.3796    0.6907    0.6328 H   0  0  0  0  0  0  0  0  0  0  0  0
   -9.8644   -0.9530    0.2772 H   0  0  0  0  0  0  0  0  0  0  0  0
  -13.1366    0.0180    0.6801 H   0  0  0  0  0  0  0  0  0  0  0  0
  1  2  1  0  0  0  0
  2  3  1  0  0  0  0
  3  4  2  0  0  0  0
  4  5  1  0  0  0  0
  5  6  2  0  0  0  0
  6  7  1  0  0  0  0
  7  8  1  0  0  0  0
  8  9  2  0  0  0  0
  9 10  1  0  0  0  0
 10 11  2  0  0  0  0
 11 12  1  0  0  0  0
 12 13  2  0  0  0  0
 13 14  1  0  0  0  0
 14 15  2  0  0  0  0
 15 16  1  0  0  0  0
 15 17  1  0  0  0  0
 17 18  1  0  0  0  0
 18 19  2  0  0  0  0
 19 20  1  0  0  0  0
 20 21  2  0  0  0  0
 21 22  1  0  0  0  0
 22 23  1  0  0  0  0
 21 24  1  0  0  0  0
 24 25  1  0  0  0  0
 25 26  1  0  0  0  0
 26 27  1  0  0  0  0
 27 28  1  0  0  0  0
 28 29  1  0  0  0  0
 29 30  2  0  0  0  0
 29 31  1  0  0  0  0
 24 32  2  0  0  0  0
 17 33  2  0  0  0  0
 33 34  1  0  0  0  0
 34 35  2  0  0  0  0
 35 36  1  0  0  0  0
 36 37  2  0  0  0  0
 37 38  1  0  0  0  0
 38 39  2  0  0  0  0
 39 40  1  0  0  0  0
 40 41  1  0  0  0  0
 35 42  1  0  0  0  0
 42 43  1  0  0  0  0
 10 44  1  0  0  0  0
 44 45  2  0  0  0  0
  6 46  1  0  0  0  0
 46 47  2  0  0  0  0
 47 48  1  0  0  0  0
 48 49  1  0  0  0  0
 49 50  1  0  0  0  0
 50 51  1  0  0  0  0
 51 52  1  0  0  0  0
 52 53  2  0  0  0  0
 52 54  1  0  0  0  0
 47  3  1  0  0  0  0
 40  7  2  0  0  0  0
 45  8  1  0  0  0  0
 16 12  1  0  0  0  0
 32 18  1  0  0  0  0
 43 33  1  0  0  0  0
 41 37  1  0  0  0  0
  1 55  1  0  0  0  0
  1 56  1  0  0  0  0
  1 57  1  0  0  0  0
  4 58  1  0  0  0  0
  5 59  1  0  0  0  0
 11 60  1  0  0  0  0
 13 61  1  0  0  0  0
 14 62  1  0  0  0  0
 16 63  1  0  0  0  0
 19 64  1  0  0  0  0
 20 65  1  0  0  0  0
 23 66  1  0  0  0  0
 23 67  1  0  0  0  0
 23 68  1  0  0  0  0
 26 69  1  0  0  0  0
 26 70  1  0  0  0  0
 27 71  1  0  0  0  0
 27 72  1  0  0  0  0
 28 73  1  0  0  0  0
 28 74  1  0  0  0  0
 31 75  1  0  0  0  0
 32 76  1  0  0  0  0
 36 77  1  0  0  0  0
 38 78  1  0  0  0  0
 39 79  1  0  0  0  0
 41 80  1  0  0  0  0
 42 81  1  0  0  0  0
 42 82  1  0  0  0  0
 43 83  1  0  0  0  0
 43 84  1  0  0  0  0
 44 85  1  0  0  0  0
 45 86  1  0  0  0  0
 46 87  1  0  0  0  0
 49 88  1  0  0  0  0
 49 89  1  0  0  0  0
 50 90  1  0  0  0  0
 50 91  1  0  0  0  0
 51 92  1  0  0  0  0
 51 93  1  0  0  0  0
 54 94  1  0  0  0  0
M  END
