
  xtb     03212210133D
 energy: -9.316499642241 gnorm: 0.000313597530 xtb: 6.4.1 (afa7bdf)
 47 51  0     0  0            999 V2000
    1.0889    3.0806   -0.4721 C   0  0  0  0  0  0  0  0  0  0  0  0
   -0.3221    2.6837   -0.2444 C   0  0  0  0  0  0  0  0  0  0  0  0
   -1.4044    3.5612   -0.2513 C   0  0  0  0  0  0  0  0  0  0  0  0
   -2.5903    2.8303   -0.0961 C   0  0  0  0  0  0  0  0  0  0  0  0
   -3.9773    3.3264   -0.0813 C   0  0  0  0  0  0  0  0  0  0  0  0
   -2.2230    1.5427    0.0054 N   0  0  0  0  0  4  0  0  0  0  0  0
   -0.8388    1.3729   -0.0458 C   0  0  0  0  0  0  0  0  0  0  0  0
   -0.2085    0.1064    0.0349 C   0  0  0  0  0  0  0  0  0  0  0  0
    1.2509   -0.0346    0.1443 C   0  0  0  0  0  0  0  0  0  0  0  0
    1.9388    0.6690    1.1522 C   0  0  0  0  0  0  0  0  0  0  0  0
    3.2794    0.5450    1.2765 C   0  0  0  0  0  0  0  0  0  0  0  0
    3.9661   -0.3010    0.3871 C   0  0  0  0  0  0  0  0  0  0  0  0
    5.3483   -0.4885    0.4540 C   0  0  0  0  0  0  0  0  0  0  0  0
    5.9315   -1.3368   -0.4383 C   0  0  0  0  0  0  0  0  0  0  0  0
    5.1387   -1.9799   -1.3703 C   0  0  0  0  0  0  0  0  0  0  0  0
    3.8359   -1.8393   -1.4737 N   0  0  0  0  0  0  0  0  0  0  0  0
    3.2264   -0.9939   -0.6036 C   0  0  0  0  0  0  0  0  0  0  0  0
    1.8821   -0.8472   -0.7104 N   0  0  0  0  0  0  0  0  0  0  0  0
   -1.0675   -1.0191    0.0420 C   0  0  0  0  0  0  0  0  0  0  0  0
   -0.8112   -2.4169    0.0952 C   0  0  0  0  0  0  0  0  0  0  0  0
    0.5077   -3.0927    0.1226 C   0  0  0  0  0  0  0  0  0  0  0  0
   -2.0436   -3.0672    0.1096 C   0  0  0  0  0  0  0  0  0  0  0  0
   -3.0681   -2.1110    0.0875 C   0  0  0  0  0  0  0  0  0  0  0  0
   -4.5246   -2.3283    0.1215 C   0  0  0  0  0  0  0  0  0  0  0  0
   -2.4595   -0.9145    0.0511 N   0  0  0  0  0  0  0  0  0  0  0  0
   -3.2308    0.4012    0.1001 B   0  0  0  0  0  4  0  0  0  0  0  0
   -4.1044    0.4651   -0.9816 F   0  0  0  0  0  0  0  0  0  0  0  0
   -3.9149    0.4896    1.3086 F   0  0  0  0  0  0  0  0  0  0  0  0
    1.1449    3.9654   -1.1065 H   0  0  0  0  0  0  0  0  0  0  0  0
    1.5873    3.3129    0.4689 H   0  0  0  0  0  0  0  0  0  0  0  0
    1.6441    2.2848   -0.9688 H   0  0  0  0  0  0  0  0  0  0  0  0
   -1.3440    4.6272   -0.3885 H   0  0  0  0  0  0  0  0  0  0  0  0
   -4.6670    2.4988    0.0898 H   0  0  0  0  0  0  0  0  0  0  0  0
   -4.1220    4.0597    0.7120 H   0  0  0  0  0  0  0  0  0  0  0  0
   -4.2349    3.7898   -1.0335 H   0  0  0  0  0  0  0  0  0  0  0  0
    1.3780    1.2876    1.8313 H   0  0  0  0  0  0  0  0  0  0  0  0
    3.8210    1.0712    2.0426 H   0  0  0  0  0  0  0  0  0  0  0  0
    5.9287    0.0280    1.1981 H   0  0  0  0  0  0  0  0  0  0  0  0
    6.9960   -1.5067   -0.4173 H   0  0  0  0  0  0  0  0  0  0  0  0
    5.6000   -2.6522   -2.0759 H   0  0  0  0  0  0  0  0  0  0  0  0
    0.4002   -4.1638    0.2939 H   0  0  0  0  0  0  0  0  0  0  0  0
    1.0315   -2.9519   -0.8234 H   0  0  0  0  0  0  0  0  0  0  0  0
    1.1353   -2.6854    0.9155 H   0  0  0  0  0  0  0  0  0  0  0  0
   -2.1886   -4.1331    0.1475 H   0  0  0  0  0  0  0  0  0  0  0  0
   -4.8165   -2.8757    1.0177 H   0  0  0  0  0  0  0  0  0  0  0  0
   -4.8552   -2.8906   -0.7517 H   0  0  0  0  0  0  0  0  0  0  0  0
   -5.0446   -1.3694    0.1248 H   0  0  0  0  0  0  0  0  0  0  0  0
  1  2  1  0  0  0  0
  2  3  2  0  0  0  0
  3  4  1  0  0  0  0
  4  5  1  0  0  0  0
  4  6  2  0  0  0  0
  6  7  1  0  0  0  0
  7  8  2  0  0  0  0
  8  9  1  0  0  0  0
  9 10  2  0  0  0  0
 10 11  1  0  0  0  0
 11 12  2  0  0  0  0
 12 13  1  0  0  0  0
 13 14  2  0  0  0  0
 14 15  1  0  0  0  0
 15 16  2  0  0  0  0
 16 17  1  0  0  0  0
 17 18  2  0  0  0  0
  8 19  1  0  0  0  0
 19 20  2  0  0  0  0
 20 21  1  0  0  0  0
 20 22  1  0  0  0  0
 22 23  2  0  0  0  0
 23 24  1  0  0  0  0
 23 25  1  0  0  0  0
 25 26  1  0  0  0  0
 26 27  1  0  0  0  0
 26 28  1  0  0  0  0
  7  2  1  0  0  0  0
 18  9  1  0  0  0  0
 25 19  1  0  0  0  0
 26  6  1  0  0  0  0
 17 12  1  0  0  0  0
  1 29  1  0  0  0  0
  1 30  1  0  0  0  0
  1 31  1  0  0  0  0
  3 32  1  0  0  0  0
  5 33  1  0  0  0  0
  5 34  1  0  0  0  0
  5 35  1  0  0  0  0
 10 36  1  0  0  0  0
 11 37  1  0  0  0  0
 13 38  1  0  0  0  0
 14 39  1  0  0  0  0
 15 40  1  0  0  0  0
 21 41  1  0  0  0  0
 21 42  1  0  0  0  0
 21 43  1  0  0  0  0
 22 44  1  0  0  0  0
 24 45  1  0  0  0  0
 24 46  1  0  0  0  0
 24 47  1  0  0  0  0
M  CHG  1   6   1
M  CHG  1  26  -1
M  END
