
  xtb     03212210133D
 energy: -7.679216934626 gnorm: 0.000399408678 xtb: 6.4.1 (afa7bdf)
 36 38  0     0  0            999 V2000
   -5.9327    1.2988   -0.6078 C   0  0  0  0  0  0  0  0  0  0  0  0
   -4.5689    0.7367   -0.4048 C   0  0  0  0  0  0  0  0  0  0  0  0
   -4.3969   -0.5856   -0.0289 C   0  0  0  0  0  0  0  0  0  0  0  0
   -3.1389   -1.1051    0.1815 C   0  0  0  0  0  0  0  0  0  0  0  0
   -1.9959   -0.3204    0.0298 C   0  0  0  0  0  0  0  0  0  0  0  0
   -0.6531   -0.8814    0.2535 C   0  0  0  0  0  0  0  0  0  0  0  0
    0.4955   -0.1305    0.1156 C   0  0  0  0  0  0  0  0  0  0  0  0
    1.7693   -0.6730    0.3260 C   0  0  0  0  0  0  0  0  0  0  0  0
    2.9563    0.1990    0.1614 C   0  0  0  0  0  0  0  0  0  0  0  0
    2.9751    1.4802    0.7113 C   0  0  0  0  0  0  0  0  0  0  0  0
    4.0705    2.2998    0.5551 C   0  0  0  0  0  0  0  0  0  0  0  0
    5.1692    1.8601   -0.1544 C   0  0  0  0  0  0  0  0  0  0  0  0
    5.1690    0.5965   -0.7084 C   0  0  0  0  0  0  0  0  0  0  0  0
    4.0749   -0.2249   -0.5550 C   0  0  0  0  0  0  0  0  0  0  0  0
    1.8924   -2.0210    0.6933 C   0  0  0  0  0  0  0  0  0  0  0  0
    3.1476   -2.5907    0.9296 C   0  0  0  0  0  0  0  0  0  0  0  0
    4.1968   -3.0586    1.1110 N   0  0  0  0  0  0  0  0  0  0  0  0
    0.7208   -2.7929    0.8350 C   0  0  0  0  0  0  0  0  0  0  0  0
    0.7764   -4.4012    1.2677 S   0  0  0  0  0  0  0  0  0  0  0  0
   -0.4863   -2.1940    0.6104 N   0  0  0  0  0  0  0  0  0  0  0  0
   -2.1811    1.0131   -0.3394 C   0  0  0  0  0  0  0  0  0  0  0  0
   -3.4409    1.5285   -0.5488 C   0  0  0  0  0  0  0  0  0  0  0  0
   -5.9064    2.1758   -1.2557 H   0  0  0  0  0  0  0  0  0  0  0  0
   -6.3742    1.5969    0.3438 H   0  0  0  0  0  0  0  0  0  0  0  0
   -6.5939    0.5655   -1.0711 H   0  0  0  0  0  0  0  0  0  0  0  0
   -5.2660   -1.2090    0.0994 H   0  0  0  0  0  0  0  0  0  0  0  0
   -3.0483   -2.1354    0.4696 H   0  0  0  0  0  0  0  0  0  0  0  0
    0.4332    0.9007   -0.1735 H   0  0  0  0  0  0  0  0  0  0  0  0
    2.1244    1.8181    1.2773 H   0  0  0  0  0  0  0  0  0  0  0  0
    4.0717    3.2850    0.9916 H   0  0  0  0  0  0  0  0  0  0  0  0
    6.0274    2.5010   -0.2725 H   0  0  0  0  0  0  0  0  0  0  0  0
    6.0285    0.2495   -1.2580 H   0  0  0  0  0  0  0  0  0  0  0  0
    4.0769   -1.2120   -0.9841 H   0  0  0  0  0  0  0  0  0  0  0  0
   -1.3014   -2.7902    0.7250 H   0  0  0  0  0  0  0  0  0  0  0  0
   -1.3314    1.6584   -0.4642 H   0  0  0  0  0  0  0  0  0  0  0  0
   -3.5599    2.5620   -0.8282 H   0  0  0  0  0  0  0  0  0  0  0  0
  1  2  1  0  0  0  0
  2  3  2  0  0  0  0
  3  4  1  0  0  0  0
  4  5  2  0  0  0  0
  5  6  1  0  0  0  0
  6  7  2  0  0  0  0
  7  8  1  0  0  0  0
  8  9  1  0  0  0  0
  9 10  2  0  0  0  0
 10 11  1  0  0  0  0
 11 12  2  0  0  0  0
 12 13  1  0  0  0  0
 13 14  2  0  0  0  0
  8 15  2  0  0  0  0
 15 16  1  0  0  0  0
 16 17  3  0  0  0  0
 15 18  1  0  0  0  0
 18 19  2  0  0  0  0
 18 20  1  0  0  0  0
  5 21  1  0  0  0  0
 21 22  2  0  0  0  0
 22  2  1  0  0  0  0
 20  6  1  0  0  0  0
 14  9  1  0  0  0  0
  1 23  1  0  0  0  0
  1 24  1  0  0  0  0
  1 25  1  0  0  0  0
  3 26  1  0  0  0  0
  4 27  1  0  0  0  0
  7 28  1  0  0  0  0
 10 29  1  0  0  0  0
 11 30  1  0  0  0  0
 12 31  1  0  0  0  0
 13 32  1  0  0  0  0
 14 33  1  0  0  0  0
 20 34  1  0  0  0  0
 21 35  1  0  0  0  0
 22 36  1  0  0  0  0
M  END
