
  xtb     03212210123D
 energy: -7.422080288355 gnorm: 0.000363404299 xtb: 6.4.1 (afa7bdf)
 40 42  0     0  0            999 V2000
    5.1531    0.3386   -1.1560 C   0  0  0  0  0  0  0  0  0  0  0  0
    4.1538    1.2045   -0.6883 O   0  0  0  0  0  0  0  0  0  0  0  0
    3.0212    0.5946   -0.1152 C   0  0  0  0  0  0  0  0  0  0  0  0
    2.0439    1.4679    0.3790 C   0  0  0  0  0  0  0  0  0  0  0  0
    2.2456    2.9279    0.2837 C   0  0  0  0  0  0  0  0  0  0  0  0
    0.8683    0.9810    0.9496 C   0  0  0  0  0  0  0  0  0  0  0  0
    0.6595   -0.4015    1.0425 C   0  0  0  0  0  0  0  0  0  0  0  0
    1.6442   -1.2847    0.5845 C   0  0  0  0  0  0  0  0  0  0  0  0
    1.4131   -2.7441    0.6847 C   0  0  0  0  0  0  0  0  0  0  0  0
    2.7998   -0.7863    0.0028 C   0  0  0  0  0  0  0  0  0  0  0  0
    3.9573   -1.9257   -0.5798 Cl  0  0  0  0  0  0  0  0  0  0  0  0
   -0.5475   -0.9009    1.5670 O   0  0  0  0  0  0  0  0  0  0  0  0
   -1.6990   -0.5895    0.8295 C   0  0  0  0  0  0  0  0  0  0  0  0
   -2.4765   -1.6593    0.3304 C   0  0  0  0  0  0  0  0  0  0  0  0
   -2.1289   -3.0139    0.6826 C   0  0  0  0  0  0  0  0  0  0  0  0
   -2.6025   -4.0237    0.2292 O   0  0  0  0  0  0  0  0  0  0  0  0
   -3.5639   -1.3983   -0.5212 C   0  0  0  0  0  0  0  0  0  0  0  0
   -4.3064   -2.4127   -1.0586 O   0  0  0  0  0  0  0  0  0  0  0  0
   -3.8824   -0.0671   -0.8204 C   0  0  0  0  0  0  0  0  0  0  0  0
   -5.2109    0.2286   -1.8814 Cl  0  0  0  0  0  0  0  0  0  0  0  0
   -3.1739    0.9922   -0.2883 C   0  0  0  0  0  0  0  0  0  0  0  0
   -3.5816    2.3812   -0.6189 C   0  0  0  0  0  0  0  0  0  0  0  0
   -2.0661    0.7406    0.5477 C   0  0  0  0  0  0  0  0  0  0  0  0
   -1.4039    1.8731    1.2410 C   0  0  0  0  0  0  0  0  0  0  0  0
   -2.1142    2.7994    1.5916 O   0  0  0  0  0  0  0  0  0  0  0  0
   -0.0412    1.9211    1.4688 O   0  0  0  0  0  0  0  0  0  0  0  0
    5.5204   -0.2716   -0.3279 H   0  0  0  0  0  0  0  0  0  0  0  0
    5.9730    0.9383   -1.5568 H   0  0  0  0  0  0  0  0  0  0  0  0
    4.7440   -0.2913   -1.9491 H   0  0  0  0  0  0  0  0  0  0  0  0
    3.2872    3.1853    0.4834 H   0  0  0  0  0  0  0  0  0  0  0  0
    1.6137    3.4494    1.0061 H   0  0  0  0  0  0  0  0  0  0  0  0
    1.9919    3.2866   -0.7147 H   0  0  0  0  0  0  0  0  0  0  0  0
    0.9929   -2.9973    1.6581 H   0  0  0  0  0  0  0  0  0  0  0  0
    0.7176   -3.0774   -0.0857 H   0  0  0  0  0  0  0  0  0  0  0  0
    2.3438   -3.2989    0.5652 H   0  0  0  0  0  0  0  0  0  0  0  0
   -1.3729   -3.1509    1.4440 H   0  0  0  0  0  0  0  0  0  0  0  0
   -3.9169   -3.2529   -0.7424 H   0  0  0  0  0  0  0  0  0  0  0  0
   -4.5378    2.4018   -1.1416 H   0  0  0  0  0  0  0  0  0  0  0  0
   -2.8354    2.8615   -1.2518 H   0  0  0  0  0  0  0  0  0  0  0  0
   -3.6823    2.9744    0.2915 H   0  0  0  0  0  0  0  0  0  0  0  0
  1  2  1  0  0  0  0
  2  3  1  0  0  0  0
  3  4  2  0  0  0  0
  4  5  1  0  0  0  0
  4  6  1  0  0  0  0
  6  7  2  0  0  0  0
  7  8  1  0  0  0  0
  8  9  1  0  0  0  0
  8 10  2  0  0  0  0
 10 11  1  0  0  0  0
  7 12  1  0  0  0  0
 12 13  1  0  0  0  0
 13 14  2  0  0  0  0
 14 15  1  0  0  0  0
 15 16  2  0  0  0  0
 14 17  1  0  0  0  0
 17 18  1  0  0  0  0
 17 19  2  0  0  0  0
 19 20  1  0  0  0  0
 19 21  1  0  0  0  0
 21 22  1  0  0  0  0
 21 23  2  0  0  0  0
 23 24  1  0  0  0  0
 24 25  2  0  0  0  0
 24 26  1  0  0  0  0
 10  3  1  0  0  0  0
 23 13  1  0  0  0  0
 26  6  1  0  0  0  0
  1 27  1  0  0  0  0
  1 28  1  0  0  0  0
  1 29  1  0  0  0  0
  5 30  1  0  0  0  0
  5 31  1  0  0  0  0
  5 32  1  0  0  0  0
  9 33  1  0  0  0  0
  9 34  1  0  0  0  0
  9 35  1  0  0  0  0
 15 36  1  0  0  0  0
 18 37  1  0  0  0  0
 22 38  1  0  0  0  0
 22 39  1  0  0  0  0
 22 40  1  0  0  0  0
M  END
