
  xtb     03212210143D
 energy: -16.328233454661 gnorm: 0.000695632110 xtb: 6.4.1 (afa7bdf)
 71 76  0     0  0            999 V2000
   -8.6446   -4.8431   -1.4839 F   0  0  0  0  0  0  0  0  0  0  0  0
   -7.3655   -4.4265   -1.3214 C   0  0  0  0  0  0  0  0  0  0  0  0
   -6.3165   -5.3137   -1.4779 C   0  0  0  0  0  0  0  0  0  0  0  0
   -5.0157   -4.8924   -1.3192 C   0  0  0  0  0  0  0  0  0  0  0  0
   -4.7355   -3.5703   -0.9985 C   0  0  0  0  0  0  0  0  0  0  0  0
   -3.4121   -3.1205   -0.8310 C   0  0  0  0  0  0  0  0  0  0  0  0
   -2.3064   -2.6269   -0.6681 C   0  0  0  0  0  0  0  0  0  0  0  0
   -1.1122   -1.9097   -0.4576 C   0  0  0  0  0  0  0  0  0  0  0  0
    0.0528   -2.5553   -0.5534 N   0  0  0  0  0  0  0  0  0  0  0  0
    1.1675   -1.8488   -0.3517 C   0  0  0  0  0  0  0  0  0  0  0  0
    2.4121   -2.5010   -0.4470 C   0  0  0  0  0  0  0  0  0  0  0  0
    3.5380   -2.9710   -0.5077 C   0  0  0  0  0  0  0  0  0  0  0  0
    4.8666   -3.4328   -0.5584 C   0  0  0  0  0  0  0  0  0  0  0  0
    5.8428   -2.6959   -1.2179 C   0  0  0  0  0  0  0  0  0  0  0  0
    7.1472   -3.1326   -1.2532 C   0  0  0  0  0  0  0  0  0  0  0  0
    7.5068   -4.3148   -0.6332 C   0  0  0  0  0  0  0  0  0  0  0  0
    8.7929   -4.7403   -0.6635 F   0  0  0  0  0  0  0  0  0  0  0  0
    6.5407   -5.0560    0.0214 C   0  0  0  0  0  0  0  0  0  0  0  0
    5.2357   -4.6208    0.0604 C   0  0  0  0  0  0  0  0  0  0  0  0
    1.1661   -0.4799   -0.0493 C   0  0  0  0  0  0  0  0  0  0  0  0
    2.3754    0.2125    0.1545 C   0  0  0  0  0  0  0  0  0  0  0  0
    3.4160    0.8239    0.3381 C   0  0  0  0  0  0  0  0  0  0  0  0
    4.6142    1.5305    0.5513 C   0  0  0  0  0  0  0  0  0  0  0  0
    4.5952    2.8944    0.8151 C   0  0  0  0  0  0  0  0  0  0  0  0
    5.7676    3.5849    1.0203 C   0  0  0  0  0  0  0  0  0  0  0  0
    6.9841    2.9302    0.9667 C   0  0  0  0  0  0  0  0  0  0  0  0
    8.1388    3.6134    1.1617 F   0  0  0  0  0  0  0  0  0  0  0  0
    7.0109    1.5722    0.7076 C   0  0  0  0  0  0  0  0  0  0  0  0
    5.8402    0.8789    0.5019 C   0  0  0  0  0  0  0  0  0  0  0  0
   -0.0523    0.1943    0.0493 C   0  0  0  0  0  0  0  0  0  0  0  0
   -0.0744    1.5707    0.3463 C   0  0  0  0  0  0  0  0  0  0  0  0
    0.0214    2.7610    0.6010 C   0  0  0  0  0  0  0  0  0  0  0  0
    0.2281    4.1231    0.8917 C   0  0  0  0  0  0  0  0  0  0  0  0
   -0.4609    4.7491    1.9229 C   0  0  0  0  0  0  0  0  0  0  0  0
   -0.2377    6.0765    2.2101 C   0  0  0  0  0  0  0  0  0  0  0  0
    0.6787    6.8086    1.4772 C   0  0  0  0  0  0  0  0  0  0  0  0
    0.9023    8.1135    1.7662 F   0  0  0  0  0  0  0  0  0  0  0  0
    1.3678    6.1917    0.4490 C   0  0  0  0  0  0  0  0  0  0  0  0
    1.1461    4.8651    0.1586 C   0  0  0  0  0  0  0  0  0  0  0  0
   -1.2183   -0.5427   -0.1589 C   0  0  0  0  0  0  0  0  0  0  0  0
   -2.4921    0.0535   -0.0763 C   0  0  0  0  0  0  0  0  0  0  0  0
   -3.6484    0.4434   -0.0319 C   0  0  0  0  0  0  0  0  0  0  0  0
   -5.0178    0.7695   -0.0105 C   0  0  0  0  0  0  0  0  0  0  0  0
   -5.6408    1.2963   -1.1350 C   0  0  0  0  0  0  0  0  0  0  0  0
   -6.9888    1.5734   -1.1255 C   0  0  0  0  0  0  0  0  0  0  0  0
   -7.7462    1.3273    0.0044 C   0  0  0  0  0  0  0  0  0  0  0  0
   -9.0774    1.5846    0.0064 F   0  0  0  0  0  0  0  0  0  0  0  0
   -7.1336    0.8044    1.1279 C   0  0  0  0  0  0  0  0  0  0  0  0
   -5.7857    0.5274    1.1220 C   0  0  0  0  0  0  0  0  0  0  0  0
   -5.7956   -2.6858   -0.8420 C   0  0  0  0  0  0  0  0  0  0  0  0
   -7.0947   -3.1092   -1.0009 C   0  0  0  0  0  0  0  0  0  0  0  0
   -6.5407   -6.3360   -1.7268 H   0  0  0  0  0  0  0  0  0  0  0  0
   -4.2003   -5.5846   -1.4415 H   0  0  0  0  0  0  0  0  0  0  0  0
    5.5631   -1.7780   -1.7065 H   0  0  0  0  0  0  0  0  0  0  0  0
    7.9074   -2.5666   -1.7621 H   0  0  0  0  0  0  0  0  0  0  0  0
    6.8328   -5.9750    0.4985 H   0  0  0  0  0  0  0  0  0  0  0  0
    4.4855   -5.1969    0.5744 H   0  0  0  0  0  0  0  0  0  0  0  0
    3.6484    3.4049    0.8555 H   0  0  0  0  0  0  0  0  0  0  0  0
    5.7598    4.6405    1.2268 H   0  0  0  0  0  0  0  0  0  0  0  0
    7.9635    1.0743    0.6699 H   0  0  0  0  0  0  0  0  0  0  0  0
    5.8620   -0.1779    0.2992 H   0  0  0  0  0  0  0  0  0  0  0  0
   -1.1719    4.1805    2.4971 H   0  0  0  0  0  0  0  0  0  0  0  0
   -0.7687    6.5678    3.0070 H   0  0  0  0  0  0  0  0  0  0  0  0
    2.0772    6.7714   -0.1158 H   0  0  0  0  0  0  0  0  0  0  0  0
    1.6808    4.3877   -0.6445 H   0  0  0  0  0  0  0  0  0  0  0  0
   -5.0547    1.4796   -2.0192 H   0  0  0  0  0  0  0  0  0  0  0  0
   -7.4768    1.9815   -1.9929 H   0  0  0  0  0  0  0  0  0  0  0  0
   -7.7336    0.6177    2.0008 H   0  0  0  0  0  0  0  0  0  0  0  0
   -5.3121    0.1122    1.9952 H   0  0  0  0  0  0  0  0  0  0  0  0
   -5.5859   -1.6604   -0.5924 H   0  0  0  0  0  0  0  0  0  0  0  0
   -7.9183   -2.4274   -0.8810 H   0  0  0  0  0  0  0  0  0  0  0  0
  1  2  1  0  0  0  0
  2  3  2  0  0  0  0
  3  4  1  0  0  0  0
  4  5  2  0  0  0  0
  5  6  1  0  0  0  0
  6  7  3  0  0  0  0
  7  8  1  0  0  0  0
  8  9  2  0  0  0  0
  9 10  1  0  0  0  0
 10 11  1  0  0  0  0
 11 12  3  0  0  0  0
 12 13  1  0  0  0  0
 13 14  2  0  0  0  0
 14 15  1  0  0  0  0
 15 16  2  0  0  0  0
 16 17  1  0  0  0  0
 16 18  1  0  0  0  0
 18 19  2  0  0  0  0
 10 20  2  0  0  0  0
 20 21  1  0  0  0  0
 21 22  3  0  0  0  0
 22 23  1  0  0  0  0
 23 24  2  0  0  0  0
 24 25  1  0  0  0  0
 25 26  2  0  0  0  0
 26 27  1  0  0  0  0
 26 28  1  0  0  0  0
 28 29  2  0  0  0  0
 20 30  1  0  0  0  0
 30 31  1  0  0  0  0
 31 32  3  0  0  0  0
 32 33  1  0  0  0  0
 33 34  2  0  0  0  0
 34 35  1  0  0  0  0
 35 36  2  0  0  0  0
 36 37  1  0  0  0  0
 36 38  1  0  0  0  0
 38 39  2  0  0  0  0
 30 40  2  0  0  0  0
 40 41  1  0  0  0  0
 41 42  3  0  0  0  0
 42 43  1  0  0  0  0
 43 44  2  0  0  0  0
 44 45  1  0  0  0  0
 45 46  2  0  0  0  0
 46 47  1  0  0  0  0
 46 48  1  0  0  0  0
 48 49  2  0  0  0  0
  5 50  1  0  0  0  0
 50 51  2  0  0  0  0
 51  2  1  0  0  0  0
 40  8  1  0  0  0  0
 49 43  1  0  0  0  0
 19 13  1  0  0  0  0
 29 23  1  0  0  0  0
 39 33  1  0  0  0  0
  3 52  1  0  0  0  0
  4 53  1  0  0  0  0
 14 54  1  0  0  0  0
 15 55  1  0  0  0  0
 18 56  1  0  0  0  0
 19 57  1  0  0  0  0
 24 58  1  0  0  0  0
 25 59  1  0  0  0  0
 28 60  1  0  0  0  0
 29 61  1  0  0  0  0
 34 62  1  0  0  0  0
 35 63  1  0  0  0  0
 38 64  1  0  0  0  0
 39 65  1  0  0  0  0
 44 66  1  0  0  0  0
 45 67  1  0  0  0  0
 48 68  1  0  0  0  0
 49 69  1  0  0  0  0
 50 70  1  0  0  0  0
 51 71  1  0  0  0  0
M  END
