
  xtb     03212210133D
 energy: -11.816023684520 gnorm: 0.000261822976 xtb: 6.4.1 (afa7bdf)
 63 67  0     0  0            999 V2000
   -3.2512    1.6589    3.2370 C   0  0  0  0  0  0  0  0  0  0  0  0
   -2.5335    2.2239    2.0009 C   0  0  0  0  0  0  0  0  0  0  0  0
   -3.4746    3.1756    1.2459 C   0  0  0  0  0  0  0  0  0  0  0  0
   -1.3107    3.0272    2.4766 C   0  0  0  0  0  0  0  0  0  0  0  0
   -2.1295    1.0704    1.0755 C   0  0  0  0  0  0  0  0  0  0  0  0
   -0.8143    0.8300    0.7235 C   0  0  0  0  0  0  0  0  0  0  0  0
   -0.4608   -0.2145   -0.1169 C   0  0  0  0  0  0  0  0  0  0  0  0
   -1.4621   -1.0565   -0.6264 C   0  0  0  0  0  0  0  0  0  0  0  0
   -2.8043   -0.8296   -0.2813 C   0  0  0  0  0  0  0  0  0  0  0  0
   -3.8661   -1.7679   -0.8608 C   0  0  0  0  0  0  0  0  0  0  0  0
   -3.5593   -3.2062   -0.4093 C   0  0  0  0  0  0  0  0  0  0  0  0
   -5.2840   -1.3940   -0.3926 C   0  0  0  0  0  0  0  0  0  0  0  0
   -3.8144   -1.6884   -2.3963 C   0  0  0  0  0  0  0  0  0  0  0  0
   -3.1067    0.2254    0.5578 C   0  0  0  0  0  0  0  0  0  0  0  0
   -1.1474   -2.0958   -1.4534 O   0  0  0  0  0  0  0  0  0  0  0  0
    0.2168   -2.3901   -1.9096 B   0  0  0  0  0  4  0  0  0  0  0  0
    0.5584   -3.6878   -1.5414 F   0  0  0  0  0  0  0  0  0  0  0  0
    0.2857   -2.2342   -3.2907 F   0  0  0  0  0  0  0  0  0  0  0  0
    1.2523   -1.4414   -1.2863 N   0  0  0  0  0  4  0  0  0  0  0  0
    0.9295   -0.4361   -0.4625 C   0  0  0  0  0  0  0  0  0  0  0  0
    1.8442    0.3965    0.0785 N   0  0  0  0  0  0  0  0  0  0  0  0
    3.1153    0.1994   -0.2141 C   0  0  0  0  0  0  0  0  0  0  0  0
    4.0932    1.0997    0.4338 C   0  0  0  0  0  0  0  0  0  0  0  0
    3.8425    2.4686    0.4785 C   0  0  0  0  0  0  0  0  0  0  0  0
    4.7223    3.3241    1.1005 C   0  0  0  0  0  0  0  0  0  0  0  0
    5.8619    2.8319    1.7009 C   0  0  0  0  0  0  0  0  0  0  0  0
    6.1135    1.4761    1.6842 C   0  0  0  0  0  0  0  0  0  0  0  0
    5.2385    0.6145    1.0636 C   0  0  0  0  0  0  0  0  0  0  0  0
    3.5390   -0.8175   -1.1230 C   0  0  0  0  0  0  0  0  0  0  0  0
    4.8739   -0.9874   -1.5409 C   0  0  0  0  0  0  0  0  0  0  0  0
    5.2114   -1.9764   -2.4178 C   0  0  0  0  0  0  0  0  0  0  0  0
    4.2336   -2.8344   -2.9218 C   0  0  0  0  0  0  0  0  0  0  0  0
    2.9318   -2.6782   -2.5488 C   0  0  0  0  0  0  0  0  0  0  0  0
    2.5564   -1.6657   -1.6540 C   0  0  0  0  0  0  0  0  0  0  0  0
   -3.5295    2.4571    3.9261 H   0  0  0  0  0  0  0  0  0  0  0  0
   -4.1611    1.1265    2.9598 H   0  0  0  0  0  0  0  0  0  0  0  0
   -2.6054    0.9616    3.7717 H   0  0  0  0  0  0  0  0  0  0  0  0
   -3.7625    4.0199    1.8733 H   0  0  0  0  0  0  0  0  0  0  0  0
   -2.9883    3.5694    0.3528 H   0  0  0  0  0  0  0  0  0  0  0  0
   -4.3865    2.6669    0.9329 H   0  0  0  0  0  0  0  0  0  0  0  0
   -0.7778    3.4684    1.6336 H   0  0  0  0  0  0  0  0  0  0  0  0
   -1.6146    3.8409    3.1361 H   0  0  0  0  0  0  0  0  0  0  0  0
   -0.6173    2.3948    3.0322 H   0  0  0  0  0  0  0  0  0  0  0  0
   -0.0254    1.4546    1.0979 H   0  0  0  0  0  0  0  0  0  0  0  0
   -3.5809   -3.2824    0.6768 H   0  0  0  0  0  0  0  0  0  0  0  0
   -2.5690   -3.5114   -0.7459 H   0  0  0  0  0  0  0  0  0  0  0  0
   -4.2856   -3.9088   -0.8154 H   0  0  0  0  0  0  0  0  0  0  0  0
   -5.3663   -1.4523    0.6919 H   0  0  0  0  0  0  0  0  0  0  0  0
   -5.5468   -0.3846   -0.7065 H   0  0  0  0  0  0  0  0  0  0  0  0
   -6.0218   -2.0741   -0.8167 H   0  0  0  0  0  0  0  0  0  0  0  0
   -4.5465   -2.3553   -2.8494 H   0  0  0  0  0  0  0  0  0  0  0  0
   -4.0195   -0.6745   -2.7370 H   0  0  0  0  0  0  0  0  0  0  0  0
   -2.8276   -1.9704   -2.7624 H   0  0  0  0  0  0  0  0  0  0  0  0
   -4.1306    0.4070    0.8250 H   0  0  0  0  0  0  0  0  0  0  0  0
    2.9464    2.8449    0.0168 H   0  0  0  0  0  0  0  0  0  0  0  0
    4.5177    4.3835    1.1205 H   0  0  0  0  0  0  0  0  0  0  0  0
    6.5487    3.5030    2.1883 H   0  0  0  0  0  0  0  0  0  0  0  0
    6.9974    1.0872    2.1660 H   0  0  0  0  0  0  0  0  0  0  0  0
    5.4167   -0.4465    1.0834 H   0  0  0  0  0  0  0  0  0  0  0  0
    5.6279   -0.3117   -1.1800 H   0  0  0  0  0  0  0  0  0  0  0  0
    6.2362   -2.0951   -2.7283 H   0  0  0  0  0  0  0  0  0  0  0  0
    4.5069   -3.6146   -3.6129 H   0  0  0  0  0  0  0  0  0  0  0  0
    2.1647   -3.3245   -2.9399 H   0  0  0  0  0  0  0  0  0  0  0  0
  1  2  1  0  0  0  0
  2  3  1  0  0  0  0
  2  4  1  0  0  0  0
  2  5  1  0  0  0  0
  5  6  2  0  0  0  0
  6  7  1  0  0  0  0
  7  8  2  0  0  0  0
  8  9  1  0  0  0  0
  9 10  1  0  0  0  0
 10 11  1  0  0  0  0
 10 12  1  0  0  0  0
 10 13  1  0  0  0  0
  9 14  2  0  0  0  0
  8 15  1  0  0  0  0
 15 16  1  0  0  0  0
 16 17  1  0  0  0  0
 16 18  1  0  0  0  0
 16 19  1  0  0  0  0
 19 20  2  0  0  0  0
 20 21  1  0  0  0  0
 21 22  2  0  0  0  0
 22 23  1  0  0  0  0
 23 24  2  0  0  0  0
 24 25  1  0  0  0  0
 25 26  2  0  0  0  0
 26 27  1  0  0  0  0
 27 28  2  0  0  0  0
 22 29  1  0  0  0  0
 29 30  2  0  0  0  0
 30 31  1  0  0  0  0
 31 32  2  0  0  0  0
 32 33  1  0  0  0  0
 33 34  2  0  0  0  0
 14  5  1  0  0  0  0
 34 19  1  0  0  0  0
 20  7  1  0  0  0  0
 28 23  1  0  0  0  0
 34 29  1  0  0  0  0
  1 35  1  0  0  0  0
  1 36  1  0  0  0  0
  1 37  1  0  0  0  0
  3 38  1  0  0  0  0
  3 39  1  0  0  0  0
  3 40  1  0  0  0  0
  4 41  1  0  0  0  0
  4 42  1  0  0  0  0
  4 43  1  0  0  0  0
  6 44  1  0  0  0  0
 11 45  1  0  0  0  0
 11 46  1  0  0  0  0
 11 47  1  0  0  0  0
 12 48  1  0  0  0  0
 12 49  1  0  0  0  0
 12 50  1  0  0  0  0
 13 51  1  0  0  0  0
 13 52  1  0  0  0  0
 13 53  1  0  0  0  0
 14 54  1  0  0  0  0
 24 55  1  0  0  0  0
 25 56  1  0  0  0  0
 26 57  1  0  0  0  0
 27 58  1  0  0  0  0
 28 59  1  0  0  0  0
 30 60  1  0  0  0  0
 31 61  1  0  0  0  0
 32 62  1  0  0  0  0
 33 63  1  0  0  0  0
M  CHG  1  16  -1
M  CHG  1  19   1
M  END
