
  xtb     03212210123D
 energy: -7.298498063275 gnorm: 0.000136804644 xtb: 6.4.1 (afa7bdf)
 39 40  0     0  0            999 V2000
    0.3747   -3.2726    0.7242 C   0  0  0  0  0  0  0  0  0  0  0  0
   -0.6947   -2.2817    0.4441 C   0  0  0  0  0  0  0  0  0  0  0  0
   -2.0134   -2.6741    0.3948 C   0  0  0  0  0  0  0  0  0  0  0  0
   -3.0416   -1.7628    0.1372 C   0  0  0  0  0  0  0  0  0  0  0  0
   -4.3617   -2.1607    0.0841 O   0  0  0  0  0  0  0  0  0  0  0  0
   -2.7152   -0.4112   -0.0700 C   0  0  0  0  0  0  0  0  0  0  0  0
   -3.8196    0.5813   -0.3429 C   0  0  0  0  0  0  0  0  0  0  0  0
   -3.8820    1.6645    0.7349 C   0  0  0  0  0  0  0  0  0  0  0  0
   -3.6984    1.1812   -1.7441 C   0  0  0  0  0  0  0  0  0  0  0  0
   -1.3962   -0.0220   -0.0195 C   0  0  0  0  0  0  0  0  0  0  0  0
   -0.3692   -0.9316    0.2308 C   0  0  0  0  0  0  0  0  0  0  0  0
    0.9616   -0.5219    0.2901 N   0  0  0  0  0  0  0  0  0  0  0  0
    1.4548    0.3874   -0.4663 C   0  0  0  0  0  0  0  0  0  0  0  0
    2.8229    0.8187   -0.3831 C   0  0  0  0  0  0  0  0  0  0  0  0
    3.3301    1.7932   -1.2468 C   0  0  0  0  0  0  0  0  0  0  0  0
    4.6369    2.1958   -1.1583 C   0  0  0  0  0  0  0  0  0  0  0  0
    5.4946    1.6422   -0.2025 C   0  0  0  0  0  0  0  0  0  0  0  0
    6.8071    2.0650   -0.1345 O   0  0  0  0  0  0  0  0  0  0  0  0
    4.9875    0.6669    0.6628 C   0  0  0  0  0  0  0  0  0  0  0  0
    3.6798    0.2674    0.5704 C   0  0  0  0  0  0  0  0  0  0  0  0
    0.3221   -4.1106    0.0285 H   0  0  0  0  0  0  0  0  0  0  0  0
    1.3606   -2.8173    0.6261 H   0  0  0  0  0  0  0  0  0  0  0  0
    0.2852   -3.6644    1.7377 H   0  0  0  0  0  0  0  0  0  0  0  0
   -2.2600   -3.7065    0.5580 H   0  0  0  0  0  0  0  0  0  0  0  0
   -4.4230   -3.1275    0.2476 H   0  0  0  0  0  0  0  0  0  0  0  0
   -4.7642    0.0094   -0.3011 H   0  0  0  0  0  0  0  0  0  0  0  0
   -3.9792    1.2268    1.7291 H   0  0  0  0  0  0  0  0  0  0  0  0
   -4.7258    2.3376    0.5780 H   0  0  0  0  0  0  0  0  0  0  0  0
   -2.9752    2.2687    0.7299 H   0  0  0  0  0  0  0  0  0  0  0  0
   -4.5309    1.8497   -1.9671 H   0  0  0  0  0  0  0  0  0  0  0  0
   -3.6772    0.4016   -2.5066 H   0  0  0  0  0  0  0  0  0  0  0  0
   -2.7788    1.7581   -1.8393 H   0  0  0  0  0  0  0  0  0  0  0  0
   -1.1465    1.0143   -0.1586 H   0  0  0  0  0  0  0  0  0  0  0  0
    0.8246    0.8295   -1.2170 H   0  0  0  0  0  0  0  0  0  0  0  0
    2.6789    2.2268   -1.9878 H   0  0  0  0  0  0  0  0  0  0  0  0
    5.0296    2.9447   -1.8216 H   0  0  0  0  0  0  0  0  0  0  0  0
    7.2754    1.5823    0.5816 H   0  0  0  0  0  0  0  0  0  0  0  0
    5.6367    0.2346    1.4021 H   0  0  0  0  0  0  0  0  0  0  0  0
    3.2897   -0.4828    1.2380 H   0  0  0  0  0  0  0  0  0  0  0  0
  1  2  1  0  0  0  0
  2  3  2  0  0  0  0
  3  4  1  0  0  0  0
  4  5  1  0  0  0  0
  4  6  2  0  0  0  0
  6  7  1  0  0  0  0
  7  8  1  0  0  0  0
  7  9  1  0  0  0  0
  6 10  1  0  0  0  0
 10 11  2  0  0  0  0
 11 12  1  0  0  0  0
 12 13  2  0  0  0  0
 13 14  1  0  0  0  0
 14 15  2  0  0  0  0
 15 16  1  0  0  0  0
 16 17  2  0  0  0  0
 17 18  1  0  0  0  0
 17 19  1  0  0  0  0
 19 20  2  0  0  0  0
 11  2  1  0  0  0  0
 20 14  1  0  0  0  0
  1 21  1  0  0  0  0
  1 22  1  0  0  0  0
  1 23  1  0  0  0  0
  3 24  1  0  0  0  0
  5 25  1  0  0  0  0
  7 26  1  0  0  0  0
  8 27  1  0  0  0  0
  8 28  1  0  0  0  0
  8 29  1  0  0  0  0
  9 30  1  0  0  0  0
  9 31  1  0  0  0  0
  9 32  1  0  0  0  0
 10 33  1  0  0  0  0
 13 34  1  0  0  0  0
 15 35  1  0  0  0  0
 16 36  1  0  0  0  0
 18 37  1  0  0  0  0
 19 38  1  0  0  0  0
 20 39  1  0  0  0  0
M  END
