
  xtb     03212210133D
 energy: -7.921838288049 gnorm: 0.000074776671 xtb: 6.4.1 (afa7bdf)
 40 42  0     0  0            999 V2000
   -6.4733    2.0916   -1.5914 C   0  0  0  0  0  0  0  0  0  0  0  0
   -6.2329    1.0219   -0.7073 O   0  0  0  0  0  0  0  0  0  0  0  0
   -4.8882    0.7178   -0.4912 C   0  0  0  0  0  0  0  0  0  0  0  0
   -3.8300    1.3960   -1.0839 C   0  0  0  0  0  0  0  0  0  0  0  0
   -2.5240    1.0468   -0.8282 C   0  0  0  0  0  0  0  0  0  0  0  0
   -2.2190   -0.0013    0.0361 C   0  0  0  0  0  0  0  0  0  0  0  0
   -0.8571   -0.3966    0.3287 C   0  0  0  0  0  0  0  0  0  0  0  0
    0.2530    0.1671   -0.1727 C   0  0  0  0  0  0  0  0  0  0  0  0
    1.5662   -0.2978    0.1781 C   0  0  0  0  0  0  0  0  0  0  0  0
    1.7936   -1.3096    1.0167 N   0  0  0  0  0  0  0  0  0  0  0  0
    3.1118   -1.4375    1.0853 C   0  0  0  0  0  0  0  0  0  0  0  0
    3.7256   -0.4820    0.2693 C   0  0  0  0  0  0  0  0  0  0  0  0
    5.1544   -0.2721    0.0520 C   0  0  0  0  0  0  0  0  0  0  0  0
    6.1250   -1.0526    0.6754 C   0  0  0  0  0  0  0  0  0  0  0  0
    7.4628   -0.8217    0.4430 C   0  0  0  0  0  0  0  0  0  0  0  0
    7.8537    0.1886   -0.4128 C   0  0  0  0  0  0  0  0  0  0  0  0
    6.9028    0.9701   -1.0376 C   0  0  0  0  0  0  0  0  0  0  0  0
    5.5648    0.7411   -0.8067 C   0  0  0  0  0  0  0  0  0  0  0  0
    2.7284    0.2450   -0.3088 O   0  0  0  0  0  0  0  0  0  0  0  0
   -3.2768   -0.6885    0.6359 C   0  0  0  0  0  0  0  0  0  0  0  0
   -4.5990   -0.3577    0.3952 C   0  0  0  0  0  0  0  0  0  0  0  0
   -5.6897   -1.0178    0.9717 O   0  0  0  0  0  0  0  0  0  0  0  0
   -5.3592   -2.0753    1.8386 C   0  0  0  0  0  0  0  0  0  0  0  0
   -7.5513    2.2285   -1.6765 H   0  0  0  0  0  0  0  0  0  0  0  0
   -6.0667    1.8575   -2.5753 H   0  0  0  0  0  0  0  0  0  0  0  0
   -6.0297    3.0055   -1.1962 H   0  0  0  0  0  0  0  0  0  0  0  0
   -4.0314    2.2098   -1.7558 H   0  0  0  0  0  0  0  0  0  0  0  0
   -1.7291    1.5928   -1.3038 H   0  0  0  0  0  0  0  0  0  0  0  0
   -0.7247   -1.2179    1.0102 H   0  0  0  0  0  0  0  0  0  0  0  0
    0.1918    0.9898   -0.8579 H   0  0  0  0  0  0  0  0  0  0  0  0
    3.6099   -2.1790    1.6899 H   0  0  0  0  0  0  0  0  0  0  0  0
    5.8225   -1.8405    1.3426 H   0  0  0  0  0  0  0  0  0  0  0  0
    8.2060   -1.4311    0.9301 H   0  0  0  0  0  0  0  0  0  0  0  0
    8.9009    0.3673   -0.5930 H   0  0  0  0  0  0  0  0  0  0  0  0
    7.2068    1.7589   -1.7056 H   0  0  0  0  0  0  0  0  0  0  0  0
    4.8128    1.3433   -1.2877 H   0  0  0  0  0  0  0  0  0  0  0  0
   -3.0440   -1.4971    1.3022 H   0  0  0  0  0  0  0  0  0  0  0  0
   -4.8084   -2.8436    1.2942 H   0  0  0  0  0  0  0  0  0  0  0  0
   -6.2857   -2.5068    2.2201 H   0  0  0  0  0  0  0  0  0  0  0  0
   -4.7723   -1.6984    2.6775 H   0  0  0  0  0  0  0  0  0  0  0  0
  1  2  1  0  0  0  0
  2  3  1  0  0  0  0
  3  4  2  0  0  0  0
  4  5  1  0  0  0  0
  5  6  2  0  0  0  0
  6  7  1  0  0  0  0
  7  8  2  0  0  0  0
  8  9  1  0  0  0  0
  9 10  2  0  0  0  0
 10 11  1  0  0  0  0
 11 12  2  0  0  0  0
 12 13  1  0  0  0  0
 13 14  2  0  0  0  0
 14 15  1  0  0  0  0
 15 16  2  0  0  0  0
 16 17  1  0  0  0  0
 17 18  2  0  0  0  0
 12 19  1  0  0  0  0
  6 20  1  0  0  0  0
 20 21  2  0  0  0  0
 21 22  1  0  0  0  0
 22 23  1  0  0  0  0
 21  3  1  0  0  0  0
 19  9  1  0  0  0  0
 18 13  1  0  0  0  0
  1 24  1  0  0  0  0
  1 25  1  0  0  0  0
  1 26  1  0  0  0  0
  4 27  1  0  0  0  0
  5 28  1  0  0  0  0
  7 29  1  0  0  0  0
  8 30  1  0  0  0  0
 11 31  1  0  0  0  0
 14 32  1  0  0  0  0
 15 33  1  0  0  0  0
 16 34  1  0  0  0  0
 17 35  1  0  0  0  0
 18 36  1  0  0  0  0
 20 37  1  0  0  0  0
 23 38  1  0  0  0  0
 23 39  1  0  0  0  0
 23 40  1  0  0  0  0
M  END
