
  xtb     03212210133D
 energy: -14.182824913941 gnorm: 0.000369229751 xtb: 6.4.1 (afa7bdf)
 67 73  0     0  0            999 V2000
   12.9646   -0.1038    0.9514 C   0  0  0  0  0  0  0  0  0  0  0  0
   11.6695   -0.1207    0.2177 C   0  0  0  0  0  0  0  0  0  0  0  0
   11.6577   -0.1144   -1.1948 C   0  0  0  0  0  0  0  0  0  0  0  0
   10.4890   -0.1030   -1.9085 C   0  0  0  0  0  0  0  0  0  0  0  0
    9.2797   -0.0922   -1.2060 C   0  0  0  0  0  0  0  0  0  0  0  0
    7.9607   -0.0727   -1.5922 N   0  0  0  0  0  0  0  0  0  0  0  0
    7.2109   -0.0610   -0.4192 C   0  0  0  0  0  0  0  0  0  0  0  0
    5.7550   -0.0371   -0.3632 C   0  0  0  0  0  0  0  0  0  0  0  0
    5.1098   -0.0283    0.8710 C   0  0  0  0  0  0  0  0  0  0  0  0
    3.7385   -0.0022    0.9505 C   0  0  0  0  0  0  0  0  0  0  0  0
    2.9532    0.0161   -0.2041 C   0  0  0  0  0  0  0  0  0  0  0  0
    1.4782    0.0496   -0.1211 C   0  0  0  0  0  0  0  0  0  0  0  0
    0.8307    0.7518    0.8935 C   0  0  0  0  0  0  0  0  0  0  0  0
   -0.5394    0.7783    0.9657 C   0  0  0  0  0  0  0  0  0  0  0  0
   -1.3277    0.1057    0.0315 C   0  0  0  0  0  0  0  0  0  0  0  0
   -2.8056    0.1518    0.1544 C   0  0  0  0  0  0  0  0  0  0  0  0
   -3.4783    1.3749    0.1855 C   0  0  0  0  0  0  0  0  0  0  0  0
   -4.8466    1.4261    0.2998 C   0  0  0  0  0  0  0  0  0  0  0  0
   -5.5972    0.2551    0.3920 C   0  0  0  0  0  0  0  0  0  0  0  0
   -7.0493    0.2831    0.5081 C   0  0  0  0  0  0  0  0  0  0  0  0
   -7.7991   -0.8088    0.5809 N   0  0  0  0  0  0  0  0  0  0  0  0
   -9.0887   -0.3815    0.6782 C   0  0  0  0  0  0  0  0  0  0  0  0
  -10.2853   -1.1076    0.7795 C   0  0  0  0  0  0  0  0  0  0  0  0
  -11.4823   -0.4346    0.8728 C   0  0  0  0  0  0  0  0  0  0  0  0
  -12.7617   -1.1912    0.9549 C   0  0  0  0  0  0  0  0  0  0  0  0
  -11.4980    0.9777    0.8498 C   0  0  0  0  0  0  0  0  0  0  0  0
  -10.3464    1.7123    0.7506 C   0  0  0  0  0  0  0  0  0  0  0  0
   -9.1278    1.0314    0.6647 C   0  0  0  0  0  0  0  0  0  0  0  0
   -7.8203    1.4411    0.5548 N   0  0  0  0  0  0  0  0  0  0  0  0
   -4.9274   -0.9663    0.3707 C   0  0  0  0  0  0  0  0  0  0  0  0
   -3.5596   -1.0187    0.2568 C   0  0  0  0  0  0  0  0  0  0  0  0
   -0.6903   -0.5918   -1.0105 C   0  0  0  0  0  0  0  0  0  0  0  0
   -1.4705   -1.3104   -2.0542 C   0  0  0  0  0  0  0  0  0  0  0  0
    0.6900   -0.6157   -1.0602 C   0  0  0  0  0  0  0  0  0  0  0  0
    3.6044    0.0058   -1.4398 C   0  0  0  0  0  0  0  0  0  0  0  0
    4.9762   -0.0201   -1.5186 C   0  0  0  0  0  0  0  0  0  0  0  0
    7.9832   -0.0719    0.6595 N   0  0  0  0  0  0  0  0  0  0  0  0
    9.2677   -0.0911    0.2080 C   0  0  0  0  0  0  0  0  0  0  0  0
   10.4814   -0.1012    0.9123 C   0  0  0  0  0  0  0  0  0  0  0  0
   12.8832   -0.6274    1.9047 H   0  0  0  0  0  0  0  0  0  0  0  0
   13.2803    0.9200    1.1553 H   0  0  0  0  0  0  0  0  0  0  0  0
   13.7516   -0.5903    0.3737 H   0  0  0  0  0  0  0  0  0  0  0  0
   12.5995   -0.1167   -1.7158 H   0  0  0  0  0  0  0  0  0  0  0  0
   10.4828   -0.0989   -2.9839 H   0  0  0  0  0  0  0  0  0  0  0  0
    7.6240   -0.0683   -2.5560 H   0  0  0  0  0  0  0  0  0  0  0  0
    5.7094   -0.0443    1.7644 H   0  0  0  0  0  0  0  0  0  0  0  0
    3.2572   -0.0127    1.9129 H   0  0  0  0  0  0  0  0  0  0  0  0
    1.4175    1.2898    1.6182 H   0  0  0  0  0  0  0  0  0  0  0  0
   -1.0267    1.3185    1.7600 H   0  0  0  0  0  0  0  0  0  0  0  0
   -2.9067    2.2838    0.1089 H   0  0  0  0  0  0  0  0  0  0  0  0
   -5.3493    2.3763    0.3165 H   0  0  0  0  0  0  0  0  0  0  0  0
  -10.2546   -2.1813    0.7814 H   0  0  0  0  0  0  0  0  0  0  0  0
  -13.1477   -1.4080   -0.0419 H   0  0  0  0  0  0  0  0  0  0  0  0
  -12.6250   -2.1394    1.4764 H   0  0  0  0  0  0  0  0  0  0  0  0
  -13.5213   -0.6240    1.4941 H   0  0  0  0  0  0  0  0  0  0  0  0
  -12.4471    1.4816    0.9111 H   0  0  0  0  0  0  0  0  0  0  0  0
  -10.3607    2.7875    0.7349 H   0  0  0  0  0  0  0  0  0  0  0  0
   -7.5023    2.4108    0.5273 H   0  0  0  0  0  0  0  0  0  0  0  0
   -5.5049   -1.8710    0.4474 H   0  0  0  0  0  0  0  0  0  0  0  0
   -3.0523   -1.9680    0.2574 H   0  0  0  0  0  0  0  0  0  0  0  0
   -2.4444   -0.8441   -2.2119 H   0  0  0  0  0  0  0  0  0  0  0  0
   -0.9461   -1.3023   -3.0114 H   0  0  0  0  0  0  0  0  0  0  0  0
   -1.6339   -2.3514   -1.7705 H   0  0  0  0  0  0  0  0  0  0  0  0
    1.1713   -1.1754   -1.8424 H   0  0  0  0  0  0  0  0  0  0  0  0
    3.0172    0.0378   -2.3411 H   0  0  0  0  0  0  0  0  0  0  0  0
    5.4596   -0.0235   -2.4789 H   0  0  0  0  0  0  0  0  0  0  0  0
   10.4703   -0.0906    1.9862 H   0  0  0  0  0  0  0  0  0  0  0  0
  1  2  1  0  0  0  0
  2  3  2  0  0  0  0
  3  4  1  0  0  0  0
  4  5  2  0  0  0  0
  5  6  1  0  0  0  0
  6  7  1  0  0  0  0
  7  8  1  0  0  0  0
  8  9  2  0  0  0  0
  9 10  1  0  0  0  0
 10 11  2  0  0  0  0
 11 12  1  0  0  0  0
 12 13  2  0  0  0  0
 13 14  1  0  0  0  0
 14 15  2  0  0  0  0
 15 16  1  0  0  0  0
 16 17  2  0  0  0  0
 17 18  1  0  0  0  0
 18 19  2  0  0  0  0
 19 20  1  0  0  0  0
 20 21  2  0  0  0  0
 21 22  1  0  0  0  0
 22 23  2  0  0  0  0
 23 24  1  0  0  0  0
 24 25  1  0  0  0  0
 24 26  2  0  0  0  0
 26 27  1  0  0  0  0
 27 28  2  0  0  0  0
 28 29  1  0  0  0  0
 19 30  1  0  0  0  0
 30 31  2  0  0  0  0
 15 32  1  0  0  0  0
 32 33  1  0  0  0  0
 32 34  2  0  0  0  0
 11 35  1  0  0  0  0
 35 36  2  0  0  0  0
  7 37  2  0  0  0  0
 37 38  1  0  0  0  0
 38 39  2  0  0  0  0
 39  2  1  0  0  0  0
 38  5  1  0  0  0  0
 36  8  1  0  0  0  0
 34 12  1  0  0  0  0
 31 16  1  0  0  0  0
 29 20  1  0  0  0  0
 28 22  1  0  0  0  0
  1 40  1  0  0  0  0
  1 41  1  0  0  0  0
  1 42  1  0  0  0  0
  3 43  1  0  0  0  0
  4 44  1  0  0  0  0
  6 45  1  0  0  0  0
  9 46  1  0  0  0  0
 10 47  1  0  0  0  0
 13 48  1  0  0  0  0
 14 49  1  0  0  0  0
 17 50  1  0  0  0  0
 18 51  1  0  0  0  0
 23 52  1  0  0  0  0
 25 53  1  0  0  0  0
 25 54  1  0  0  0  0
 25 55  1  0  0  0  0
 26 56  1  0  0  0  0
 27 57  1  0  0  0  0
 29 58  1  0  0  0  0
 30 59  1  0  0  0  0
 31 60  1  0  0  0  0
 33 61  1  0  0  0  0
 33 62  1  0  0  0  0
 33 63  1  0  0  0  0
 34 64  1  0  0  0  0
 35 65  1  0  0  0  0
 36 66  1  0  0  0  0
 39 67  1  0  0  0  0
M  END
