
  xtb     03212210143D
 energy: -12.768581020992 gnorm: 0.000277935306 xtb: 6.4.1 (afa7bdf)
 60 66  0     0  0            999 V2000
    5.8547    1.7605    5.8041 C   0  0  0  0  0  0  0  0  0  0  0  0
    5.5743    0.4311    5.1213 C   0  0  0  0  0  0  0  0  0  0  0  0
    5.1146    0.5956    3.6728 C   0  0  0  0  0  0  0  0  0  0  0  0
    4.8386   -0.7289    2.9795 C   0  0  0  0  0  0  0  0  0  0  0  0
    4.3940   -0.5359    1.5942 N   0  0  0  0  0  0  0  0  0  0  0  0
    5.2378   -0.3753    0.4863 C   0  0  0  0  0  0  0  0  0  0  0  0
    6.6284   -0.4339    0.3670 C   0  0  0  0  0  0  0  0  0  0  0  0
    7.1928   -0.2294   -0.8675 C   0  0  0  0  0  0  0  0  0  0  0  0
    6.4000    0.0350   -1.9896 C   0  0  0  0  0  0  0  0  0  0  0  0
    5.0313    0.1001   -1.8904 C   0  0  0  0  0  0  0  0  0  0  0  0
    4.4409   -0.1060   -0.6424 C   0  0  0  0  0  0  0  0  0  0  0  0
    3.0662   -0.0868   -0.2002 C   0  0  0  0  0  0  0  0  0  0  0  0
    1.8675    0.1453   -0.8727 C   0  0  0  0  0  0  0  0  0  0  0  0
    0.6773    0.1199   -0.1655 C   0  0  0  0  0  0  0  0  0  0  0  0
   -0.5462    0.3484   -0.8216 C   0  0  0  0  0  0  0  0  0  0  0  0
   -1.6191    0.5371   -1.3774 C   0  0  0  0  0  0  0  0  0  0  0  0
   -2.8690    0.7307   -1.9878 C   0  0  0  0  0  0  0  0  0  0  0  0
   -3.0144    1.7058   -2.9720 C   0  0  0  0  0  0  0  0  0  0  0  0
   -4.2214    1.9329   -3.5913 C   0  0  0  0  0  0  0  0  0  0  0  0
   -5.3521    1.1867   -3.2502 C   0  0  0  0  0  0  0  0  0  0  0  0
   -6.6216    1.3990   -3.8712 C   0  0  0  0  0  0  0  0  0  0  0  0
   -7.7040    0.6664   -3.5246 C   0  0  0  0  0  0  0  0  0  0  0  0
   -7.6199   -0.3502   -2.5227 C   0  0  0  0  0  0  0  0  0  0  0  0
   -8.7220   -1.1200   -2.1459 C   0  0  0  0  0  0  0  0  0  0  0  0
   -8.6045   -2.0931   -1.1750 C   0  0  0  0  0  0  0  0  0  0  0  0
   -7.3951   -2.3276   -0.5541 C   0  0  0  0  0  0  0  0  0  0  0  0
   -6.2625   -1.5853   -0.8938 C   0  0  0  0  0  0  0  0  0  0  0  0
   -4.9933   -1.7984   -0.2720 C   0  0  0  0  0  0  0  0  0  0  0  0
   -3.9122   -1.0638   -0.6178 C   0  0  0  0  0  0  0  0  0  0  0  0
   -3.9889   -0.0452   -1.6181 C   0  0  0  0  0  0  0  0  0  0  0  0
   -5.2336    0.1882   -2.2542 C   0  0  0  0  0  0  0  0  0  0  0  0
   -6.3747   -0.5847   -1.8894 C   0  0  0  0  0  0  0  0  0  0  0  0
    0.6979   -0.1367    1.2220 C   0  0  0  0  0  0  0  0  0  0  0  0
    1.8685   -0.3655    1.8972 C   0  0  0  0  0  0  0  0  0  0  0  0
    3.0702   -0.3452    1.1840 C   0  0  0  0  0  0  0  0  0  0  0  0
    6.6330    2.3174    5.2796 H   0  0  0  0  0  0  0  0  0  0  0  0
    6.1840    1.6302    6.8371 H   0  0  0  0  0  0  0  0  0  0  0  0
    4.9643    2.3913    5.8205 H   0  0  0  0  0  0  0  0  0  0  0  0
    6.4699   -0.2040    5.1470 H   0  0  0  0  0  0  0  0  0  0  0  0
    4.8135   -0.1290    5.6813 H   0  0  0  0  0  0  0  0  0  0  0  0
    4.2134    1.2195    3.6355 H   0  0  0  0  0  0  0  0  0  0  0  0
    5.8678    1.1534    3.1034 H   0  0  0  0  0  0  0  0  0  0  0  0
    4.0732   -1.2959    3.5166 H   0  0  0  0  0  0  0  0  0  0  0  0
    5.7329   -1.3583    2.9746 H   0  0  0  0  0  0  0  0  0  0  0  0
    7.2334   -0.6351    1.2331 H   0  0  0  0  0  0  0  0  0  0  0  0
    8.2640   -0.2725   -0.9756 H   0  0  0  0  0  0  0  0  0  0  0  0
    6.8718    0.1917   -2.9459 H   0  0  0  0  0  0  0  0  0  0  0  0
    4.4154    0.3071   -2.7476 H   0  0  0  0  0  0  0  0  0  0  0  0
    1.8683    0.3436   -1.9286 H   0  0  0  0  0  0  0  0  0  0  0  0
   -2.1526    2.2911   -3.2454 H   0  0  0  0  0  0  0  0  0  0  0  0
   -4.3062    2.6932   -4.3483 H   0  0  0  0  0  0  0  0  0  0  0  0
   -6.7025    2.1607   -4.6275 H   0  0  0  0  0  0  0  0  0  0  0  0
   -8.6526    0.8403   -4.0022 H   0  0  0  0  0  0  0  0  0  0  0  0
   -9.6701   -0.9445   -2.6243 H   0  0  0  0  0  0  0  0  0  0  0  0
   -9.4674   -2.6766   -0.8983 H   0  0  0  0  0  0  0  0  0  0  0  0
   -7.3135   -3.0891    0.2022 H   0  0  0  0  0  0  0  0  0  0  0  0
   -4.9121   -2.5606    0.4835 H   0  0  0  0  0  0  0  0  0  0  0  0
   -2.9655   -1.2392   -0.1379 H   0  0  0  0  0  0  0  0  0  0  0  0
   -0.2386   -0.1493    1.7525 H   0  0  0  0  0  0  0  0  0  0  0  0
    1.8756   -0.5566    2.9553 H   0  0  0  0  0  0  0  0  0  0  0  0
  1  2  1  0  0  0  0
  2  3  1  0  0  0  0
  3  4  1  0  0  0  0
  4  5  1  0  0  0  0
  5  6  1  0  0  0  0
  6  7  2  0  0  0  0
  7  8  1  0  0  0  0
  8  9  2  0  0  0  0
  9 10  1  0  0  0  0
 10 11  2  0  0  0  0
 11 12  1  0  0  0  0
 12 13  2  0  0  0  0
 13 14  1  0  0  0  0
 14 15  1  0  0  0  0
 15 16  3  0  0  0  0
 16 17  1  0  0  0  0
 17 18  2  0  0  0  0
 18 19  1  0  0  0  0
 19 20  2  0  0  0  0
 20 21  1  0  0  0  0
 21 22  2  0  0  0  0
 22 23  1  0  0  0  0
 23 24  2  0  0  0  0
 24 25  1  0  0  0  0
 25 26  2  0  0  0  0
 26 27  1  0  0  0  0
 27 28  2  0  0  0  0
 28 29  1  0  0  0  0
 29 30  2  0  0  0  0
 30 31  1  0  0  0  0
 31 32  2  0  0  0  0
 14 33  2  0  0  0  0
 33 34  1  0  0  0  0
 34 35  2  0  0  0  0
 35  5  1  0  0  0  0
 11  6  1  0  0  0  0
 35 12  1  0  0  0  0
 30 17  1  0  0  0  0
 31 20  1  0  0  0  0
 32 23  1  0  0  0  0
 32 27  1  0  0  0  0
  1 36  1  0  0  0  0
  1 37  1  0  0  0  0
  1 38  1  0  0  0  0
  2 39  1  0  0  0  0
  2 40  1  0  0  0  0
  3 41  1  0  0  0  0
  3 42  1  0  0  0  0
  4 43  1  0  0  0  0
  4 44  1  0  0  0  0
  7 45  1  0  0  0  0
  8 46  1  0  0  0  0
  9 47  1  0  0  0  0
 10 48  1  0  0  0  0
 13 49  1  0  0  0  0
 18 50  1  0  0  0  0
 19 51  1  0  0  0  0
 21 52  1  0  0  0  0
 22 53  1  0  0  0  0
 24 54  1  0  0  0  0
 25 55  1  0  0  0  0
 26 56  1  0  0  0  0
 28 57  1  0  0  0  0
 29 58  1  0  0  0  0
 33 59  1  0  0  0  0
 34 60  1  0  0  0  0
M  END
