
  xtb     03212210133D
 energy: -10.408248045447 gnorm: 0.000476326224 xtb: 6.4.1 (afa7bdf)
 52 55  0     0  0            999 V2000
    2.3511    0.1129    4.1810 C   0  0  0  0  0  0  0  0  0  0  0  0
    1.7165    0.9920    3.1258 C   0  0  0  0  0  0  0  0  0  0  0  0
    1.1347    0.2388    2.0936 O   0  0  0  0  0  0  0  0  0  0  0  0
    0.5137    1.0799    1.2123 C   0  0  0  0  0  0  0  0  0  0  0  0
    0.5718    2.2926    1.2999 O   0  0  0  0  0  0  0  0  0  0  0  0
   -0.2429    0.4432    0.0963 C   0  0  0  0  0  0  0  0  0  0  0  0
    0.2853   -0.2157   -1.0522 C   0  0  0  0  0  0  0  0  0  0  0  0
    1.6857   -0.4646   -1.3777 C   0  0  0  0  0  0  0  0  0  0  0  0
    2.6557   -0.3652   -0.4391 C   0  0  0  0  0  0  0  0  0  0  0  0
    4.0145   -0.6051   -0.7492 C   0  0  0  0  0  0  0  0  0  0  0  0
    5.0304   -0.4994    0.2044 C   0  0  0  0  0  0  0  0  0  0  0  0
    6.3347   -0.7395   -0.1357 C   0  0  0  0  0  0  0  0  0  0  0  0
    6.6601   -1.0928   -1.4384 C   0  0  0  0  0  0  0  0  0  0  0  0
    5.6799   -1.2031   -2.3882 C   0  0  0  0  0  0  0  0  0  0  0  0
    4.3414   -0.9625   -2.0661 C   0  0  0  0  0  0  0  0  0  0  0  0
    3.3807   -1.0839   -3.0512 O   0  0  0  0  0  0  0  0  0  0  0  0
    2.0594   -0.8398   -2.7510 C   0  0  0  0  0  0  0  0  0  0  0  0
    1.1917   -0.9259   -3.6052 O   0  0  0  0  0  0  0  0  0  0  0  0
   -0.7057   -0.5677   -1.8487 N   0  0  0  0  0  0  0  0  0  0  0  0
   -1.8359   -0.1598   -1.2969 N   0  0  0  0  0  0  0  0  0  0  0  0
   -3.0389   -0.4131   -2.0559 C   0  0  0  0  0  0  0  0  0  0  0  0
   -2.8860   -0.7631   -3.3879 C   0  0  0  0  0  0  0  0  0  0  0  0
   -3.9781   -1.0708   -4.1636 C   0  0  0  0  0  0  0  0  0  0  0  0
   -5.2409   -1.0444   -3.6164 C   0  0  0  0  0  0  0  0  0  0  0  0
   -5.4131   -0.7059   -2.2875 C   0  0  0  0  0  0  0  0  0  0  0  0
   -6.6507   -0.7223   -1.7352 F   0  0  0  0  0  0  0  0  0  0  0  0
   -4.3141   -0.3854   -1.5171 C   0  0  0  0  0  0  0  0  0  0  0  0
   -1.6104    0.4745   -0.0752 C   0  0  0  0  0  0  0  0  0  0  0  0
   -2.5857    1.0572    0.8616 C   0  0  0  0  0  0  0  0  0  0  0  0
   -3.6896    1.3880    0.4750 O   0  0  0  0  0  0  0  0  0  0  0  0
   -2.1818    1.1807    2.1626 O   0  0  0  0  0  0  0  0  0  0  0  0
   -3.1653    1.8356    2.9285 C   0  0  0  0  0  0  0  0  0  0  0  0
   -4.3746    0.9679    3.2058 C   0  0  0  0  0  0  0  0  0  0  0  0
    1.6078   -0.5562    4.6169 H   0  0  0  0  0  0  0  0  0  0  0  0
    3.1290   -0.5140    3.7431 H   0  0  0  0  0  0  0  0  0  0  0  0
    2.7990    0.6955    4.9887 H   0  0  0  0  0  0  0  0  0  0  0  0
    2.4460    1.6704    2.6635 H   0  0  0  0  0  0  0  0  0  0  0  0
    0.9182    1.6198    3.5455 H   0  0  0  0  0  0  0  0  0  0  0  0
    2.3925   -0.1201    0.5723 H   0  0  0  0  0  0  0  0  0  0  0  0
    4.7731   -0.2230    1.2143 H   0  0  0  0  0  0  0  0  0  0  0  0
    7.1103   -0.6531    0.6076 H   0  0  0  0  0  0  0  0  0  0  0  0
    7.6872   -1.2800   -1.7022 H   0  0  0  0  0  0  0  0  0  0  0  0
    5.9152   -1.4753   -3.4024 H   0  0  0  0  0  0  0  0  0  0  0  0
   -1.8881   -0.8020   -3.7902 H   0  0  0  0  0  0  0  0  0  0  0  0
   -3.8441   -1.3400   -5.2005 H   0  0  0  0  0  0  0  0  0  0  0  0
   -6.1075   -1.2874   -4.2047 H   0  0  0  0  0  0  0  0  0  0  0  0
   -4.4700   -0.0825   -0.5006 H   0  0  0  0  0  0  0  0  0  0  0  0
   -2.6762    2.1554    3.8589 H   0  0  0  0  0  0  0  0  0  0  0  0
   -3.4379    2.7479    2.3774 H   0  0  0  0  0  0  0  0  0  0  0  0
   -4.8468    0.6748    2.2677 H   0  0  0  0  0  0  0  0  0  0  0  0
   -5.1201    1.4818    3.8138 H   0  0  0  0  0  0  0  0  0  0  0  0
   -4.0810    0.0544    3.7221 H   0  0  0  0  0  0  0  0  0  0  0  0
  1  2  1  0  0  0  0
  2  3  1  0  0  0  0
  3  4  1  0  0  0  0
  4  5  2  0  0  0  0
  4  6  1  0  0  0  0
  6  7  1  0  0  0  0
  7  8  1  0  0  0  0
  8  9  2  0  0  0  0
  9 10  1  0  0  0  0
 10 11  2  0  0  0  0
 11 12  1  0  0  0  0
 12 13  2  0  0  0  0
 13 14  1  0  0  0  0
 14 15  2  0  0  0  0
 15 16  1  0  0  0  0
 16 17  1  0  0  0  0
 17 18  2  0  0  0  0
  7 19  2  0  0  0  0
 19 20  1  0  0  0  0
 20 21  1  0  0  0  0
 21 22  2  0  0  0  0
 22 23  1  0  0  0  0
 23 24  2  0  0  0  0
 24 25  1  0  0  0  0
 25 26  1  0  0  0  0
 25 27  2  0  0  0  0
 20 28  1  0  0  0  0
 28 29  1  0  0  0  0
 29 30  2  0  0  0  0
 29 31  1  0  0  0  0
 31 32  1  0  0  0  0
 32 33  1  0  0  0  0
 28  6  2  0  0  0  0
 17  8  1  0  0  0  0
 27 21  1  0  0  0  0
 15 10  1  0  0  0  0
  1 34  1  0  0  0  0
  1 35  1  0  0  0  0
  1 36  1  0  0  0  0
  2 37  1  0  0  0  0
  2 38  1  0  0  0  0
  9 39  1  0  0  0  0
 11 40  1  0  0  0  0
 12 41  1  0  0  0  0
 13 42  1  0  0  0  0
 14 43  1  0  0  0  0
 22 44  1  0  0  0  0
 23 45  1  0  0  0  0
 24 46  1  0  0  0  0
 27 47  1  0  0  0  0
 32 48  1  0  0  0  0
 32 49  1  0  0  0  0
 33 50  1  0  0  0  0
 33 51  1  0  0  0  0
 33 52  1  0  0  0  0
M  END
