
  xtb     03212210143D
 energy: -4.412665064314 gnorm: 0.000244944912 xtb: 6.4.1 (afa7bdf)
 22 23  0     0  0            999 V2000
   -4.0576   -0.3630   -0.0943 C   0  0  0  0  0  0  0  0  0  0  0  0
   -2.9336   -1.1606    0.1756 O   0  0  0  0  0  0  0  0  0  0  0  0
   -1.7028   -0.5104    0.0431 C   0  0  0  0  0  0  0  0  0  0  0  0
   -1.5428    0.8330   -0.3492 C   0  0  0  0  0  0  0  0  0  0  0  0
   -0.3015    1.3925   -0.4539 C   0  0  0  0  0  0  0  0  0  0  0  0
    0.8555    0.6447   -0.1734 C   0  0  0  0  0  0  0  0  0  0  0  0
    2.0779    1.1973   -0.2776 N   0  0  0  0  0  0  0  0  0  0  0  0
    3.1006    0.4010    0.0053 C   0  0  0  0  0  0  0  0  0  0  0  0
    4.3681    0.9550   -0.0931 N   0  0  0  0  0  0  0  0  0  0  0  0
    3.0494   -0.8753    0.3911 N   0  0  0  0  0  0  0  0  0  0  0  0
    1.8604   -1.4277    0.4961 N   0  0  0  0  0  4  0  0  0  0  0  0
    1.7418   -2.6343    0.8522 O   0  0  0  0  0  1  0  0  0  0  0  0
    0.6995   -0.6857    0.2149 C   0  0  0  0  0  0  0  0  0  0  0  0
   -0.5616   -1.2481    0.3194 C   0  0  0  0  0  0  0  0  0  0  0  0
   -4.0273   -0.0198   -1.1294 H   0  0  0  0  0  0  0  0  0  0  0  0
   -4.0856    0.4821    0.5953 H   0  0  0  0  0  0  0  0  0  0  0  0
   -4.9506   -0.9724    0.0529 H   0  0  0  0  0  0  0  0  0  0  0  0
   -2.4100    1.4273   -0.5707 H   0  0  0  0  0  0  0  0  0  0  0  0
   -0.1831    2.4187   -0.7548 H   0  0  0  0  0  0  0  0  0  0  0  0
    4.4936    1.9522   -0.1770 H   0  0  0  0  0  0  0  0  0  0  0  0
    5.1660    0.4692    0.2875 H   0  0  0  0  0  0  0  0  0  0  0  0
   -0.6564   -2.2756    0.6204 H   0  0  0  0  0  0  0  0  0  0  0  0
  1  2  1  0  0  0  0
  2  3  1  0  0  0  0
  3  4  2  0  0  0  0
  4  5  1  0  0  0  0
  5  6  2  0  0  0  0
  6  7  1  0  0  0  0
  7  8  2  0  0  0  0
  8  9  1  0  0  0  0
  8 10  1  0  0  0  0
 10 11  2  0  0  0  0
 11 12  1  0  0  0  0
 11 13  1  0  0  0  0
 13 14  2  0  0  0  0
 14  3  1  0  0  0  0
 13  6  1  0  0  0  0
  1 15  1  0  0  0  0
  1 16  1  0  0  0  0
  1 17  1  0  0  0  0
  4 18  1  0  0  0  0
  5 19  1  0  0  0  0
  9 20  1  0  0  0  0
  9 21  1  0  0  0  0
 14 22  1  0  0  0  0
M  CHG  1  11   1
M  CHG  1  12  -1
M  END
