
  xtb     03212210123D
 energy: -6.597938792889 gnorm: 0.000256319077 xtb: 6.4.1 (afa7bdf)
 35 35  0     0  0            999 V2000
    6.8590   -0.9957   -0.0884 C   0  0  0  0  0  0  0  0  0  0  0  0
    5.6893   -0.0462    0.0560 C   0  0  0  0  0  0  0  0  0  0  0  0
    4.4785   -0.6375   -0.3448 O   0  0  0  0  0  0  0  0  0  0  0  0
    3.4593    0.2528   -0.1868 C   0  0  0  0  0  0  0  0  0  0  0  0
    3.5960    1.3795    0.2381 O   0  0  0  0  0  0  0  0  0  0  0  0
    2.1045   -0.2399   -0.5542 C   0  0  0  0  0  0  0  0  0  0  0  0
    1.2600   -0.7680    0.9056 S   0  0  0  0  0  0  0  0  0  0  0  0
   -0.4038   -0.3049    0.4537 C   0  0  0  0  0  0  0  0  0  0  0  0
   -1.0296    0.5340    1.2739 N   0  0  0  0  0  0  0  0  0  0  0  0
   -2.2729    0.8979    0.9626 C   0  0  0  0  0  0  0  0  0  0  0  0
   -2.9391    1.8363    1.9028 C   0  0  0  0  0  0  0  0  0  0  0  0
   -2.9346    0.4504   -0.1796 C   0  0  0  0  0  0  0  0  0  0  0  0
   -4.3446    0.8615   -0.4929 C   0  0  0  0  0  0  0  0  0  0  0  0
   -5.3623   -0.1963   -0.0963 C   0  0  0  0  0  0  0  0  0  0  0  0
   -2.2776   -0.4367   -1.0285 C   0  0  0  0  0  0  0  0  0  0  0  0
   -2.9286   -0.9217   -2.1708 C   0  0  0  0  0  0  0  0  0  0  0  0
   -3.5238   -1.2965   -3.0953 N   0  0  0  0  0  0  0  0  0  0  0  0
   -0.9778   -0.8234   -0.7033 C   0  0  0  0  0  0  0  0  0  0  0  0
   -0.2541   -1.7021   -1.5217 C   0  0  0  0  0  0  0  0  0  0  0  0
    0.4047   -2.3998   -2.1752 N   0  0  0  0  0  0  0  0  0  0  0  0
    7.8011   -0.5404    0.2206 H   0  0  0  0  0  0  0  0  0  0  0  0
    6.7001   -1.8908    0.5133 H   0  0  0  0  0  0  0  0  0  0  0  0
    6.9612   -1.3203   -1.1242 H   0  0  0  0  0  0  0  0  0  0  0  0
    5.8204    0.8600   -0.5526 H   0  0  0  0  0  0  0  0  0  0  0  0
    5.5560    0.2835    1.0964 H   0  0  0  0  0  0  0  0  0  0  0  0
    1.5406    0.5558   -1.0414 H   0  0  0  0  0  0  0  0  0  0  0  0
    2.1895   -1.0822   -1.2438 H   0  0  0  0  0  0  0  0  0  0  0  0
   -3.9024    1.4492    2.2339 H   0  0  0  0  0  0  0  0  0  0  0  0
   -3.0904    2.8119    1.4412 H   0  0  0  0  0  0  0  0  0  0  0  0
   -2.3173    1.9809    2.7862 H   0  0  0  0  0  0  0  0  0  0  0  0
   -4.5727    1.8159   -0.0072 H   0  0  0  0  0  0  0  0  0  0  0  0
   -4.4172    1.0683   -1.5676 H   0  0  0  0  0  0  0  0  0  0  0  0
   -5.1763   -1.1338   -0.6231 H   0  0  0  0  0  0  0  0  0  0  0  0
   -6.3845    0.1110   -0.3246 H   0  0  0  0  0  0  0  0  0  0  0  0
   -5.3104   -0.4126    0.9716 H   0  0  0  0  0  0  0  0  0  0  0  0
  1  2  1  0  0  0  0
  2  3  1  0  0  0  0
  3  4  1  0  0  0  0
  4  5  2  0  0  0  0
  4  6  1  0  0  0  0
  6  7  1  0  0  0  0
  7  8  1  0  0  0  0
  8  9  2  0  0  0  0
  9 10  1  0  0  0  0
 10 11  1  0  0  0  0
 10 12  2  0  0  0  0
 12 13  1  0  0  0  0
 13 14  1  0  0  0  0
 12 15  1  0  0  0  0
 15 16  1  0  0  0  0
 16 17  3  0  0  0  0
 15 18  2  0  0  0  0
 18 19  1  0  0  0  0
 19 20  3  0  0  0  0
 18  8  1  0  0  0  0
  1 21  1  0  0  0  0
  1 22  1  0  0  0  0
  1 23  1  0  0  0  0
  2 24  1  0  0  0  0
  2 25  1  0  0  0  0
  6 26  1  0  0  0  0
  6 27  1  0  0  0  0
 11 28  1  0  0  0  0
 11 29  1  0  0  0  0
 11 30  1  0  0  0  0
 13 31  1  0  0  0  0
 13 32  1  0  0  0  0
 14 33  1  0  0  0  0
 14 34  1  0  0  0  0
 14 35  1  0  0  0  0
M  END
