
  xtb     03212210133D
 energy: -10.279037783994 gnorm: 0.000330066272 xtb: 6.4.1 (afa7bdf)
 52 55  0     0  0            999 V2000
    1.7675    3.8766    1.0866 C   0  0  0  0  0  0  0  0  0  0  0  0
    1.2310    2.9410    2.1511 C   0  0  0  0  0  0  0  0  0  0  0  0
    0.8799    1.6967    1.6029 O   0  0  0  0  0  0  0  0  0  0  0  0
   -0.2306    1.8305    0.8123 C   0  0  0  0  0  0  0  0  0  0  0  0
   -0.9076    2.8418    0.7829 O   0  0  0  0  0  0  0  0  0  0  0  0
   -0.5595    0.6680   -0.0443 C   0  0  0  0  0  0  0  0  0  0  0  0
    0.3741   -0.2019   -0.6757 C   0  0  0  0  0  0  0  0  0  0  0  0
    1.8391   -0.1189   -0.6186 C   0  0  0  0  0  0  0  0  0  0  0  0
    2.5718   -1.2529   -0.3885 C   0  0  0  0  0  0  0  0  0  0  0  0
    1.7789   -2.7559   -0.1860 Cl  0  0  0  0  0  0  0  0  0  0  0  0
    3.9885   -1.1961   -0.2943 C   0  0  0  0  0  0  0  0  0  0  0  0
    4.7622   -2.3306   -0.0481 C   0  0  0  0  0  0  0  0  0  0  0  0
    6.1254   -2.2403    0.0519 C   0  0  0  0  0  0  0  0  0  0  0  0
    6.7508   -1.0099   -0.0906 C   0  0  0  0  0  0  0  0  0  0  0  0
    6.0105    0.1170   -0.3323 C   0  0  0  0  0  0  0  0  0  0  0  0
    4.6187    0.0506   -0.4399 C   0  0  0  0  0  0  0  0  0  0  0  0
    3.9061    1.2083   -0.6943 O   0  0  0  0  0  0  0  0  0  0  0  0
    2.5355    1.1456   -0.8362 C   0  0  0  0  0  0  0  0  0  0  0  0
    1.8890    2.1364   -1.1502 O   0  0  0  0  0  0  0  0  0  0  0  0
   -0.2642   -1.1705   -1.3066 N   0  0  0  0  0  0  0  0  0  0  0  0
   -1.5620   -0.9524   -1.1371 N   0  0  0  0  0  0  0  0  0  0  0  0
   -2.4694   -1.9609   -1.6280 C   0  0  0  0  0  0  0  0  0  0  0  0
   -3.8104   -1.7238   -1.8915 C   0  0  0  0  0  0  0  0  0  0  0  0
   -4.6139   -2.7240   -2.3931 C   0  0  0  0  0  0  0  0  0  0  0  0
   -4.0937   -3.9753   -2.6368 C   0  0  0  0  0  0  0  0  0  0  0  0
   -2.7576   -4.2219   -2.3755 C   0  0  0  0  0  0  0  0  0  0  0  0
   -2.0814   -5.7827   -2.6653 Cl  0  0  0  0  0  0  0  0  0  0  0  0
   -1.9539   -3.2184   -1.8779 C   0  0  0  0  0  0  0  0  0  0  0  0
   -1.8102    0.1835   -0.3659 C   0  0  0  0  0  0  0  0  0  0  0  0
   -3.1031    0.7001    0.1313 C   0  0  0  0  0  0  0  0  0  0  0  0
   -4.0739    0.7624   -0.6008 O   0  0  0  0  0  0  0  0  0  0  0  0
   -3.1278    1.0863    1.4427 O   0  0  0  0  0  0  0  0  0  0  0  0
   -4.3599    1.6920    1.7387 C   0  0  0  0  0  0  0  0  0  0  0  0
   -4.3520    2.3463    3.1031 C   0  0  0  0  0  0  0  0  0  0  0  0
    2.0501    4.8530    1.4850 H   0  0  0  0  0  0  0  0  0  0  0  0
    1.0148    4.0200    0.3068 H   0  0  0  0  0  0  0  0  0  0  0  0
    2.6345    3.4323    0.5924 H   0  0  0  0  0  0  0  0  0  0  0  0
    1.9744    2.7504    2.9357 H   0  0  0  0  0  0  0  0  0  0  0  0
    0.3321    3.3474    2.6349 H   0  0  0  0  0  0  0  0  0  0  0  0
    4.2653   -3.2803    0.0641 H   0  0  0  0  0  0  0  0  0  0  0  0
    6.7120   -3.1244    0.2419 H   0  0  0  0  0  0  0  0  0  0  0  0
    7.8227   -0.9418   -0.0124 H   0  0  0  0  0  0  0  0  0  0  0  0
    6.4826    1.0769   -0.4494 H   0  0  0  0  0  0  0  0  0  0  0  0
   -4.2150   -0.7525   -1.6830 H   0  0  0  0  0  0  0  0  0  0  0  0
   -5.6562   -2.5258   -2.5923 H   0  0  0  0  0  0  0  0  0  0  0  0
   -4.7084   -4.7680   -3.0266 H   0  0  0  0  0  0  0  0  0  0  0  0
   -0.9147   -3.4083   -1.6842 H   0  0  0  0  0  0  0  0  0  0  0  0
   -4.5502    2.4241    0.9393 H   0  0  0  0  0  0  0  0  0  0  0  0
   -5.1319    0.9142    1.6548 H   0  0  0  0  0  0  0  0  0  0  0  0
   -4.1470    1.6086    3.8785 H   0  0  0  0  0  0  0  0  0  0  0  0
   -5.3009    2.8318    3.3340 H   0  0  0  0  0  0  0  0  0  0  0  0
   -3.5616    3.0952    3.1552 H   0  0  0  0  0  0  0  0  0  0  0  0
  1  2  1  0  0  0  0
  2  3  1  0  0  0  0
  3  4  1  0  0  0  0
  4  5  2  0  0  0  0
  4  6  1  0  0  0  0
  6  7  1  0  0  0  0
  7  8  1  0  0  0  0
  8  9  2  0  0  0  0
  9 10  1  0  0  0  0
  9 11  1  0  0  0  0
 11 12  2  0  0  0  0
 12 13  1  0  0  0  0
 13 14  2  0  0  0  0
 14 15  1  0  0  0  0
 15 16  2  0  0  0  0
 16 17  1  0  0  0  0
 17 18  1  0  0  0  0
 18 19  2  0  0  0  0
  7 20  2  0  0  0  0
 20 21  1  0  0  0  0
 21 22  1  0  0  0  0
 22 23  2  0  0  0  0
 23 24  1  0  0  0  0
 24 25  2  0  0  0  0
 25 26  1  0  0  0  0
 26 27  1  0  0  0  0
 26 28  2  0  0  0  0
 21 29  1  0  0  0  0
 29 30  1  0  0  0  0
 30 31  2  0  0  0  0
 30 32  1  0  0  0  0
 32 33  1  0  0  0  0
 33 34  1  0  0  0  0
 29  6  2  0  0  0  0
 18  8  1  0  0  0  0
 28 22  1  0  0  0  0
 16 11  1  0  0  0  0
  1 35  1  0  0  0  0
  1 36  1  0  0  0  0
  1 37  1  0  0  0  0
  2 38  1  0  0  0  0
  2 39  1  0  0  0  0
 12 40  1  0  0  0  0
 13 41  1  0  0  0  0
 14 42  1  0  0  0  0
 15 43  1  0  0  0  0
 23 44  1  0  0  0  0
 24 45  1  0  0  0  0
 25 46  1  0  0  0  0
 28 47  1  0  0  0  0
 33 48  1  0  0  0  0
 33 49  1  0  0  0  0
 34 50  1  0  0  0  0
 34 51  1  0  0  0  0
 34 52  1  0  0  0  0
M  END
