
  xtb     03212210133D
 energy: -4.686407965875 gnorm: 0.000098045466 xtb: 6.4.1 (afa7bdf)
 21 22  0     0  0            999 V2000
    5.0880    1.9873    0.0593 N   0  0  0  0  0  0  0  0  0  0  0  0
    4.0063    1.5643    0.0463 C   0  0  0  0  0  0  0  0  0  0  0  0
    2.6995    1.0534    0.0305 C   0  0  0  0  0  0  0  0  0  0  0  0
    2.3188    0.0543    0.9183 C   0  0  0  0  0  0  0  0  0  0  0  0
    1.0372   -0.4457    0.9028 C   0  0  0  0  0  0  0  0  0  0  0  0
    0.1019    0.0386   -0.0004 C   0  0  0  0  0  0  0  0  0  0  0  0
   -1.2430   -0.4857   -0.0155 N   0  0  0  0  0  0  0  0  0  0  0  0
   -2.4006    0.2432   -0.2212 C   0  0  0  0  0  0  0  0  0  0  0  0
   -3.4654   -0.6104   -0.1595 C   0  0  0  0  0  0  0  0  0  0  0  0
   -2.9666   -1.8977    0.0888 C   0  0  0  0  0  0  0  0  0  0  0  0
   -1.6063   -1.8068    0.1753 C   0  0  0  0  0  0  0  0  0  0  0  0
    0.4798    1.0357   -0.8882 C   0  0  0  0  0  0  0  0  0  0  0  0
    1.7609    1.5368   -0.8733 C   0  0  0  0  0  0  0  0  0  0  0  0
    3.0432   -0.3221    1.6202 H   0  0  0  0  0  0  0  0  0  0  0  0
    0.7434   -1.2128    1.5974 H   0  0  0  0  0  0  0  0  0  0  0  0
   -2.4358    1.3074   -0.3887 H   0  0  0  0  0  0  0  0  0  0  0  0
   -4.5039   -0.3428   -0.2795 H   0  0  0  0  0  0  0  0  0  0  0  0
   -3.5527   -2.7977    0.1933 H   0  0  0  0  0  0  0  0  0  0  0  0
   -0.9156   -2.6154    0.3518 H   0  0  0  0  0  0  0  0  0  0  0  0
   -0.2418    1.4062   -1.5948 H   0  0  0  0  0  0  0  0  0  0  0  0
    2.0528    2.3102   -1.5631 H   0  0  0  0  0  0  0  0  0  0  0  0
  1  2  3  0  0  0  0
  2  3  1  0  0  0  0
  3  4  2  0  0  0  0
  4  5  1  0  0  0  0
  5  6  2  0  0  0  0
  6  7  1  0  0  0  0
  7  8  1  0  0  0  0
  8  9  2  0  0  0  0
  9 10  1  0  0  0  0
 10 11  2  0  0  0  0
  6 12  1  0  0  0  0
 12 13  2  0  0  0  0
 13  3  1  0  0  0  0
 11  7  1  0  0  0  0
  4 14  1  0  0  0  0
  5 15  1  0  0  0  0
  8 16  1  0  0  0  0
  9 17  1  0  0  0  0
 10 18  1  0  0  0  0
 11 19  1  0  0  0  0
 12 20  1  0  0  0  0
 13 21  1  0  0  0  0
M  END
