
  xtb     03212210133D
 energy: -10.910445631082 gnorm: 0.000311244384 xtb: 6.4.1 (afa7bdf)
 56 59  0     0  0            999 V2000
   -4.4101   -2.8081   -0.9963 C   0  0  0  0  0  0  0  0  0  0  0  0
   -3.2202   -2.6983   -0.0678 C   0  0  0  0  0  0  0  0  0  0  0  0
   -2.3216   -1.7107   -0.4965 O   0  0  0  0  0  0  0  0  0  0  0  0
   -1.2818   -1.6075    0.3834 C   0  0  0  0  0  0  0  0  0  0  0  0
   -1.1810   -2.2978    1.3815 O   0  0  0  0  0  0  0  0  0  0  0  0
   -0.2568   -0.5930    0.0628 C   0  0  0  0  0  0  0  0  0  0  0  0
   -0.3817    0.5393   -0.7918 C   0  0  0  0  0  0  0  0  0  0  0  0
   -1.5996    0.9746   -1.4928 C   0  0  0  0  0  0  0  0  0  0  0  0
   -2.7847    1.1453   -0.8245 C   0  0  0  0  0  0  0  0  0  0  0  0
   -2.8397    1.0059    0.8808 Cl  0  0  0  0  0  0  0  0  0  0  0  0
   -3.9616    1.5231   -1.5246 C   0  0  0  0  0  0  0  0  0  0  0  0
   -5.1923    1.6688   -0.8834 C   0  0  0  0  0  0  0  0  0  0  0  0
   -6.3095    2.0324   -1.5879 C   0  0  0  0  0  0  0  0  0  0  0  0
   -6.2244    2.2613   -2.9539 C   0  0  0  0  0  0  0  0  0  0  0  0
   -5.0256    2.1264   -3.6031 C   0  0  0  0  0  0  0  0  0  0  0  0
   -3.8717    1.7568   -2.9073 C   0  0  0  0  0  0  0  0  0  0  0  0
   -2.6782    1.6374   -3.5959 O   0  0  0  0  0  0  0  0  0  0  0  0
   -1.5376    1.2550   -2.9220 C   0  0  0  0  0  0  0  0  0  0  0  0
   -0.4629    1.1376   -3.4971 O   0  0  0  0  0  0  0  0  0  0  0  0
    0.7702    1.1884   -0.8632 N   0  0  0  0  0  0  0  0  0  0  0  0
    1.6223    0.5327   -0.0891 N   0  0  0  0  0  0  0  0  0  0  0  0
    2.9942    0.9583    0.0220 C   0  0  0  0  0  0  0  0  0  0  0  0
    3.7607    0.6645    1.1384 C   0  0  0  0  0  0  0  0  0  0  0  0
    5.0581    1.0984    1.2300 C   0  0  0  0  0  0  0  0  0  0  0  0
    5.6369    1.8483    0.1996 C   0  0  0  0  0  0  0  0  0  0  0  0
    6.9480    2.3321    0.2057 O   0  0  0  0  0  0  0  0  0  0  0  0
    7.7002    1.9971    1.3465 C   0  0  0  0  0  0  0  0  0  0  0  0
    4.8484    2.1375   -0.9197 C   0  0  0  0  0  0  0  0  0  0  0  0
    3.5516    1.7010   -1.0044 C   0  0  0  0  0  0  0  0  0  0  0  0
    1.0457   -0.5792    0.5118 C   0  0  0  0  0  0  0  0  0  0  0  0
    1.6935   -1.5844    1.3937 C   0  0  0  0  0  0  0  0  0  0  0  0
    2.0115   -2.6755    0.9531 O   0  0  0  0  0  0  0  0  0  0  0  0
    1.8693   -1.2239    2.7063 O   0  0  0  0  0  0  0  0  0  0  0  0
    2.1063   -2.3775    3.4754 C   0  0  0  0  0  0  0  0  0  0  0  0
    0.8737   -3.2598    3.5345 C   0  0  0  0  0  0  0  0  0  0  0  0
   -4.9394   -1.8555   -1.0528 H   0  0  0  0  0  0  0  0  0  0  0  0
   -5.1184   -3.5737   -0.6728 H   0  0  0  0  0  0  0  0  0  0  0  0
   -4.0823   -3.0520   -2.0081 H   0  0  0  0  0  0  0  0  0  0  0  0
   -3.5227   -2.4364    0.9553 H   0  0  0  0  0  0  0  0  0  0  0  0
   -2.6571   -3.6398   -0.0089 H   0  0  0  0  0  0  0  0  0  0  0  0
   -5.2454    1.4913    0.1781 H   0  0  0  0  0  0  0  0  0  0  0  0
   -7.2542    2.1433   -1.0807 H   0  0  0  0  0  0  0  0  0  0  0  0
   -7.1039    2.5487   -3.5048 H   0  0  0  0  0  0  0  0  0  0  0  0
   -4.9431    2.3036   -4.6615 H   0  0  0  0  0  0  0  0  0  0  0  0
    3.3190    0.0849    1.9282 H   0  0  0  0  0  0  0  0  0  0  0  0
    5.6353    0.8565    2.1056 H   0  0  0  0  0  0  0  0  0  0  0  0
    8.6993    2.4180    1.2339 H   0  0  0  0  0  0  0  0  0  0  0  0
    7.2330    2.4223    2.2346 H   0  0  0  0  0  0  0  0  0  0  0  0
    7.7790    0.9133    1.4314 H   0  0  0  0  0  0  0  0  0  0  0  0
    5.2882    2.7141   -1.7166 H   0  0  0  0  0  0  0  0  0  0  0  0
    2.9441    1.9251   -1.8634 H   0  0  0  0  0  0  0  0  0  0  0  0
    2.9590   -2.9004    3.0191 H   0  0  0  0  0  0  0  0  0  0  0  0
    2.4192   -2.0451    4.4741 H   0  0  0  0  0  0  0  0  0  0  0  0
    0.0396   -2.7212    3.9842 H   0  0  0  0  0  0  0  0  0  0  0  0
    1.0421   -4.1775    4.0990 H   0  0  0  0  0  0  0  0  0  0  0  0
    0.5595   -3.5259    2.5224 H   0  0  0  0  0  0  0  0  0  0  0  0
  1  2  1  0  0  0  0
  2  3  1  0  0  0  0
  3  4  1  0  0  0  0
  4  5  2  0  0  0  0
  4  6  1  0  0  0  0
  6  7  1  0  0  0  0
  7  8  1  0  0  0  0
  8  9  2  0  0  0  0
  9 10  1  0  0  0  0
  9 11  1  0  0  0  0
 11 12  2  0  0  0  0
 12 13  1  0  0  0  0
 13 14  2  0  0  0  0
 14 15  1  0  0  0  0
 15 16  2  0  0  0  0
 16 17  1  0  0  0  0
 17 18  1  0  0  0  0
 18 19  2  0  0  0  0
  7 20  2  0  0  0  0
 20 21  1  0  0  0  0
 21 22  1  0  0  0  0
 22 23  2  0  0  0  0
 23 24  1  0  0  0  0
 24 25  2  0  0  0  0
 25 26  1  0  0  0  0
 26 27  1  0  0  0  0
 25 28  1  0  0  0  0
 28 29  2  0  0  0  0
 21 30  1  0  0  0  0
 30 31  1  0  0  0  0
 31 32  2  0  0  0  0
 31 33  1  0  0  0  0
 33 34  1  0  0  0  0
 34 35  1  0  0  0  0
 30  6  2  0  0  0  0
 18  8  1  0  0  0  0
 29 22  1  0  0  0  0
 16 11  1  0  0  0  0
  1 36  1  0  0  0  0
  1 37  1  0  0  0  0
  1 38  1  0  0  0  0
  2 39  1  0  0  0  0
  2 40  1  0  0  0  0
 12 41  1  0  0  0  0
 13 42  1  0  0  0  0
 14 43  1  0  0  0  0
 15 44  1  0  0  0  0
 23 45  1  0  0  0  0
 24 46  1  0  0  0  0
 27 47  1  0  0  0  0
 27 48  1  0  0  0  0
 27 49  1  0  0  0  0
 28 50  1  0  0  0  0
 29 51  1  0  0  0  0
 34 52  1  0  0  0  0
 34 53  1  0  0  0  0
 35 54  1  0  0  0  0
 35 55  1  0  0  0  0
 35 56  1  0  0  0  0
M  END
