
  xtb     03212210133D
 energy: -8.055972188892 gnorm: 0.000345855900 xtb: 6.4.1 (afa7bdf)
 40 44  0     0  0            999 V2000
   -2.7905    0.9913   -1.9907 C   0  0  0  0  0  0  0  0  0  0  0  0
   -2.8064    0.9683   -0.4642 C   0  0  0  0  0  0  0  0  0  0  0  0
   -4.1278    2.0623    0.0917 S   0  0  0  0  0  0  0  0  0  0  0  0
   -3.0049    3.3755    0.4847 C   0  0  0  0  0  0  0  0  0  0  0  0
   -3.3295    4.5178    0.7281 O   0  0  0  0  0  0  0  0  0  0  0  0
   -1.6531    2.8723    0.4951 C   0  0  0  0  0  0  0  0  0  0  0  0
   -1.5288    1.5941    0.0758 C   0  0  0  0  0  0  0  0  0  0  0  0
   -0.3227    0.7969    0.1353 C   0  0  0  0  0  0  0  0  0  0  0  0
    0.9551    1.1766    0.3159 N   0  0  0  0  0  0  0  0  0  0  0  0
    1.6860    0.0628    0.2400 C   0  0  0  0  0  0  0  0  0  0  0  0
    3.1309    0.0249    0.3720 C   0  0  0  0  0  0  0  0  0  0  0  0
    3.8271    1.2065    0.5912 C   0  0  0  0  0  0  0  0  0  0  0  0
    5.1957    1.2132    0.7193 C   0  0  0  0  0  0  0  0  0  0  0  0
    5.8984    0.0266    0.6294 C   0  0  0  0  0  0  0  0  0  0  0  0
    5.2385   -1.1590    0.4132 C   0  0  0  0  0  0  0  0  0  0  0  0
    3.8478   -1.1939    0.2795 C   0  0  0  0  0  0  0  0  0  0  0  0
    3.1882   -2.3848    0.0628 O   0  0  0  0  0  0  0  0  0  0  0  0
    0.8939   -1.0451    0.0168 N   0  0  0  0  0  0  0  0  0  0  0  0
   -0.3907   -0.5986   -0.0375 C   0  0  0  0  0  0  0  0  0  0  0  0
   -1.6498   -1.2758   -0.2119 C   0  0  0  0  0  0  0  0  0  0  0  0
   -1.8205   -2.5397   -0.6624 C   0  0  0  0  0  0  0  0  0  0  0  0
   -3.1931   -2.9020   -0.9155 C   0  0  0  0  0  0  0  0  0  0  0  0
   -3.5805   -4.0088   -1.2236 O   0  0  0  0  0  0  0  0  0  0  0  0
   -4.2305   -1.4761   -0.7380 S   0  0  0  0  0  0  0  0  0  0  0  0
   -2.9378   -0.5182    0.0765 C   0  0  0  0  0  0  0  0  0  0  0  0
   -3.2227   -0.5269    1.5764 C   0  0  0  0  0  0  0  0  0  0  0  0
   -2.6645    2.0110   -2.3568 H   0  0  0  0  0  0  0  0  0  0  0  0
   -3.7266    0.6014   -2.3918 H   0  0  0  0  0  0  0  0  0  0  0  0
   -1.9718    0.3855   -2.3810 H   0  0  0  0  0  0  0  0  0  0  0  0
   -0.8316    3.4516    0.8737 H   0  0  0  0  0  0  0  0  0  0  0  0
    3.2681    2.1251    0.6587 H   0  0  0  0  0  0  0  0  0  0  0  0
    5.7182    2.1392    0.8887 H   0  0  0  0  0  0  0  0  0  0  0  0
    6.9723    0.0321    0.7296 H   0  0  0  0  0  0  0  0  0  0  0  0
    5.7910   -2.0780    0.3441 H   0  0  0  0  0  0  0  0  0  0  0  0
    3.8331   -3.1231    0.0259 H   0  0  0  0  0  0  0  0  0  0  0  0
    1.2360   -2.0072   -0.0638 H   0  0  0  0  0  0  0  0  0  0  0  0
   -1.0079   -3.2046   -0.8880 H   0  0  0  0  0  0  0  0  0  0  0  0
   -4.1724   -0.0358    1.7910 H   0  0  0  0  0  0  0  0  0  0  0  0
   -3.2796   -1.5504    1.9494 H   0  0  0  0  0  0  0  0  0  0  0  0
   -2.4367   -0.0071    2.1256 H   0  0  0  0  0  0  0  0  0  0  0  0
  2  1  1  0  0  0  0
  2  3  1  0  0  0  0
  3  4  1  0  0  0  0
  4  5  2  0  0  0  0
  4  6  1  0  0  0  0
  6  7  2  0  0  0  0
  7  8  1  0  0  0  0
  8  9  1  0  0  0  0
  9 10  2  0  0  0  0
 10 11  1  0  0  0  0
 11 12  2  0  0  0  0
 12 13  1  0  0  0  0
 13 14  2  0  0  0  0
 14 15  1  0  0  0  0
 15 16  2  0  0  0  0
 16 17  1  0  0  0  0
 10 18  1  0  0  0  0
 18 19  1  0  0  0  0
 19 20  1  0  0  0  0
 20 21  2  0  0  0  0
 21 22  1  0  0  0  0
 22 23  2  0  0  0  0
 22 24  1  0  0  0  0
 24 25  1  0  0  0  0
 25 26  1  0  0  0  0
  7  2  1  0  0  0  0
 19  8  2  0  0  0  0
 25 20  1  0  0  0  0
 25  2  1  0  0  0  0
 16 11  1  0  0  0  0
  1 27  1  0  0  0  0
  1 28  1  0  0  0  0
  1 29  1  0  0  0  0
  6 30  1  0  0  0  0
 12 31  1  0  0  0  0
 13 32  1  0  0  0  0
 14 33  1  0  0  0  0
 15 34  1  0  0  0  0
 17 35  1  0  0  0  0
 18 36  1  0  0  0  0
 21 37  1  0  0  0  0
 26 38  1  0  0  0  0
 26 39  1  0  0  0  0
 26 40  1  0  0  0  0
M  END
