
  xtb     03212210133D
 energy: -9.944596916394 gnorm: 0.000137819670 xtb: 6.4.1 (afa7bdf)
 45 50  0     0  0            999 V2000
    6.4015   -0.5201   -0.0176 C   0  0  0  0  0  0  0  0  0  0  0  0
    4.9868   -0.2734   -0.1061 N   0  0  0  0  0  0  0  0  0  0  0  0
    4.5652    0.9323   -0.6800 C   0  0  0  0  0  0  0  0  0  0  0  0
    5.3696    1.7586   -1.0716 O   0  0  0  0  0  0  0  0  0  0  0  0
    3.1229    1.1649   -0.7928 C   0  0  0  0  0  0  0  0  0  0  0  0
    2.6444    2.3200   -1.3619 C   0  0  0  0  0  0  0  0  0  0  0  0
    1.2767    2.5408   -1.4855 C   0  0  0  0  0  0  0  0  0  0  0  0
    0.3832    1.6110   -1.0322 C   0  0  0  0  0  0  0  0  0  0  0  0
    0.8230    0.4202   -0.4286 C   0  0  0  0  0  0  0  0  0  0  0  0
   -0.0886   -0.5712    0.0460 C   0  0  0  0  0  0  0  0  0  0  0  0
   -1.5041   -0.3570   -0.0184 N   0  0  0  0  0  0  0  0  0  0  0  0
   -2.2252    0.7020    0.5765 C   0  0  0  0  0  0  0  0  0  0  0  0
   -1.7911    1.7737    1.3549 C   0  0  0  0  0  0  0  0  0  0  0  0
   -2.7189    2.6667    1.8288 C   0  0  0  0  0  0  0  0  0  0  0  0
   -4.0772    2.5067    1.5450 C   0  0  0  0  0  0  0  0  0  0  0  0
   -4.5257    1.4489    0.7892 C   0  0  0  0  0  0  0  0  0  0  0  0
   -3.5923    0.5355    0.3034 C   0  0  0  0  0  0  0  0  0  0  0  0
   -3.7287   -0.6718   -0.4781 C   0  0  0  0  0  0  0  0  0  0  0  0
   -4.8366   -1.3156   -1.0255 C   0  0  0  0  0  0  0  0  0  0  0  0
   -4.6361   -2.4737   -1.7397 C   0  0  0  0  0  0  0  0  0  0  0  0
   -3.3542   -2.9992   -1.9187 C   0  0  0  0  0  0  0  0  0  0  0  0
   -2.2563   -2.3743   -1.3828 C   0  0  0  0  0  0  0  0  0  0  0  0
   -2.4405   -1.2028   -0.6512 C   0  0  0  0  0  0  0  0  0  0  0  0
    0.4111   -1.7477    0.5722 C   0  0  0  0  0  0  0  0  0  0  0  0
    1.7741   -1.9697    0.6724 C   0  0  0  0  0  0  0  0  0  0  0  0
    2.6800   -1.0255    0.2434 C   0  0  0  0  0  0  0  0  0  0  0  0
    2.2130    0.1871   -0.3205 C   0  0  0  0  0  0  0  0  0  0  0  0
    4.1175   -1.2696    0.3568 C   0  0  0  0  0  0  0  0  0  0  0  0
    4.5455   -2.3039    0.8388 O   0  0  0  0  0  0  0  0  0  0  0  0
    6.9329    0.4279    0.0539 H   0  0  0  0  0  0  0  0  0  0  0  0
    6.7334   -1.0516   -0.9070 H   0  0  0  0  0  0  0  0  0  0  0  0
    6.6103   -1.1276    0.8618 H   0  0  0  0  0  0  0  0  0  0  0  0
    3.3540    3.0483   -1.7180 H   0  0  0  0  0  0  0  0  0  0  0  0
    0.9230    3.4487   -1.9444 H   0  0  0  0  0  0  0  0  0  0  0  0
   -0.6734    1.7750   -1.1415 H   0  0  0  0  0  0  0  0  0  0  0  0
   -0.7428    1.8811    1.5754 H   0  0  0  0  0  0  0  0  0  0  0  0
   -2.3969    3.5002    2.4296 H   0  0  0  0  0  0  0  0  0  0  0  0
   -4.7856    3.2221    1.9299 H   0  0  0  0  0  0  0  0  0  0  0  0
   -5.5705    1.3151    0.5750 H   0  0  0  0  0  0  0  0  0  0  0  0
   -5.8201   -0.9048   -0.8866 H   0  0  0  0  0  0  0  0  0  0  0  0
   -5.4817   -2.9843   -2.1711 H   0  0  0  0  0  0  0  0  0  0  0  0
   -3.2266   -3.9051   -2.4865 H   0  0  0  0  0  0  0  0  0  0  0  0
   -1.2627   -2.7646   -1.5222 H   0  0  0  0  0  0  0  0  0  0  0  0
   -0.2839   -2.4880    0.9274 H   0  0  0  0  0  0  0  0  0  0  0  0
    2.1520   -2.8855    1.0934 H   0  0  0  0  0  0  0  0  0  0  0  0
  1  2  1  0  0  0  0
  2  3  1  0  0  0  0
  3  4  2  0  0  0  0
  3  5  1  0  0  0  0
  5  6  1  0  0  0  0
  6  7  2  0  0  0  0
  7  8  1  0  0  0  0
  8  9  2  0  0  0  0
  9 10  1  0  0  0  0
 10 11  1  0  0  0  0
 11 12  1  0  0  0  0
 12 13  2  0  0  0  0
 13 14  1  0  0  0  0
 14 15  2  0  0  0  0
 15 16  1  0  0  0  0
 16 17  2  0  0  0  0
 17 18  1  0  0  0  0
 18 19  2  0  0  0  0
 19 20  1  0  0  0  0
 20 21  2  0  0  0  0
 21 22  1  0  0  0  0
 22 23  2  0  0  0  0
 10 24  2  0  0  0  0
 24 25  1  0  0  0  0
 25 26  2  0  0  0  0
 26 27  1  0  0  0  0
 26 28  1  0  0  0  0
 28 29  2  0  0  0  0
 28  2  1  0  0  0  0
 27  5  2  0  0  0  0
 27  9  1  0  0  0  0
 23 11  1  0  0  0  0
 17 12  1  0  0  0  0
 23 18  1  0  0  0  0
  1 30  1  0  0  0  0
  1 31  1  0  0  0  0
  1 32  1  0  0  0  0
  6 33  1  0  0  0  0
  7 34  1  0  0  0  0
  8 35  1  0  0  0  0
 13 36  1  0  0  0  0
 14 37  1  0  0  0  0
 15 38  1  0  0  0  0
 16 39  1  0  0  0  0
 19 40  1  0  0  0  0
 20 41  1  0  0  0  0
 21 42  1  0  0  0  0
 22 43  1  0  0  0  0
 24 44  1  0  0  0  0
 25 45  1  0  0  0  0
M  END
