
  xtb     03212210143D
 energy: -7.667306640843 gnorm: 0.000724772548 xtb: 6.4.1 (afa7bdf)
 37 39  0     0  0            999 V2000
   -6.2918   -1.5441    0.6569 C   0  0  0  0  0  0  0  0  0  0  0  0
   -5.6131   -0.5418   -0.1631 N   0  0  0  0  0  0  0  0  0  0  0  0
   -6.4561    0.3208   -0.9889 C   0  0  0  0  0  0  0  0  0  0  0  0
   -4.2134   -0.4054   -0.1495 C   0  0  0  0  0  0  0  0  0  0  0  0
   -3.5696    0.5112   -0.9865 C   0  0  0  0  0  0  0  0  0  0  0  0
   -2.2031    0.6423   -0.9728 C   0  0  0  0  0  0  0  0  0  0  0  0
   -1.4187   -0.1325   -0.1228 C   0  0  0  0  0  0  0  0  0  0  0  0
   -0.0223    0.0103   -0.1209 C   0  0  0  0  0  0  0  0  0  0  0  0
    1.1900    0.1617   -0.1696 C   0  0  0  0  0  0  0  0  0  0  0  0
    2.5645    0.3816   -0.3000 C   0  0  0  0  0  0  0  0  0  0  0  0
    3.4317    0.0119    0.6659 C   0  0  0  0  0  0  0  0  0  0  0  0
    4.8260    0.2376    0.5221 C   0  0  0  0  0  0  0  0  0  0  0  0
    5.7519   -0.1322    1.5047 C   0  0  0  0  0  0  0  0  0  0  0  0
    7.0902    0.1008    1.3247 C   0  0  0  0  0  0  0  0  0  0  0  0
    7.5413    0.7087    0.1605 C   0  0  0  0  0  0  0  0  0  0  0  0
    6.6525    1.0795   -0.8129 C   0  0  0  0  0  0  0  0  0  0  0  0
    5.2811    0.8549   -0.6565 C   0  0  0  0  0  0  0  0  0  0  0  0
    4.4162    1.2470   -1.6641 O   0  0  0  0  0  0  0  0  0  0  0  0
    3.0616    1.0301   -1.5190 C   0  0  0  0  0  0  0  0  0  0  0  0
    2.2532    1.3616   -2.3751 O   0  0  0  0  0  0  0  0  0  0  0  0
   -2.0535   -1.0474    0.7125 C   0  0  0  0  0  0  0  0  0  0  0  0
   -3.4198   -1.1822    0.7003 C   0  0  0  0  0  0  0  0  0  0  0  0
   -6.1613   -1.3140    1.7125 H   0  0  0  0  0  0  0  0  0  0  0  0
   -7.3578   -1.5720    0.4416 H   0  0  0  0  0  0  0  0  0  0  0  0
   -5.8831   -2.5321    0.4540 H   0  0  0  0  0  0  0  0  0  0  0  0
   -7.5114    0.1322   -0.8036 H   0  0  0  0  0  0  0  0  0  0  0  0
   -6.2562    1.3665   -0.7624 H   0  0  0  0  0  0  0  0  0  0  0  0
   -6.2560    0.1388   -2.0431 H   0  0  0  0  0  0  0  0  0  0  0  0
   -4.1537    1.1156   -1.6563 H   0  0  0  0  0  0  0  0  0  0  0  0
   -1.7159    1.3461   -1.6262 H   0  0  0  0  0  0  0  0  0  0  0  0
    3.0631   -0.4617    1.5583 H   0  0  0  0  0  0  0  0  0  0  0  0
    5.3986   -0.6031    2.4057 H   0  0  0  0  0  0  0  0  0  0  0  0
    7.7949   -0.1877    2.0870 H   0  0  0  0  0  0  0  0  0  0  0  0
    8.5946    0.8891    0.0230 H   0  0  0  0  0  0  0  0  0  0  0  0
    6.9879    1.5514   -1.7195 H   0  0  0  0  0  0  0  0  0  0  0  0
   -1.4534   -1.6519    1.3709 H   0  0  0  0  0  0  0  0  0  0  0  0
   -3.8887   -1.8915    1.3579 H   0  0  0  0  0  0  0  0  0  0  0  0
  1  2  1  0  0  0  0
  2  3  1  0  0  0  0
  2  4  1  0  0  0  0
  4  5  2  0  0  0  0
  5  6  1  0  0  0  0
  6  7  2  0  0  0  0
  7  8  1  0  0  0  0
  8  9  3  0  0  0  0
  9 10  1  0  0  0  0
 10 11  2  0  0  0  0
 11 12  1  0  0  0  0
 12 13  2  0  0  0  0
 13 14  1  0  0  0  0
 14 15  2  0  0  0  0
 15 16  1  0  0  0  0
 16 17  2  0  0  0  0
 17 18  1  0  0  0  0
 18 19  1  0  0  0  0
 19 20  2  0  0  0  0
  7 21  1  0  0  0  0
 21 22  2  0  0  0  0
 22  4  1  0  0  0  0
 19 10  1  0  0  0  0
 17 12  1  0  0  0  0
  1 23  1  0  0  0  0
  1 24  1  0  0  0  0
  1 25  1  0  0  0  0
  3 26  1  0  0  0  0
  3 27  1  0  0  0  0
  3 28  1  0  0  0  0
  5 29  1  0  0  0  0
  6 30  1  0  0  0  0
 11 31  1  0  0  0  0
 13 32  1  0  0  0  0
 14 33  1  0  0  0  0
 15 34  1  0  0  0  0
 16 35  1  0  0  0  0
 21 36  1  0  0  0  0
 22 37  1  0  0  0  0
M  END
