
  xtb     03212210123D
 energy: -12.078554101605 gnorm: 0.000546888689 xtb: 6.4.1 (afa7bdf)
 58 61  0     0  0            999 V2000
   -2.8637    2.6736    0.3176 C   0  0  0  0  0  0  0  0  0  0  0  0
   -3.7835    1.5663   -0.2202 C   0  0  0  0  0  0  0  0  0  0  0  0
   -4.7317    2.1664   -1.2707 C   0  0  0  0  0  0  0  0  0  0  0  0
   -2.9274    0.4361   -0.8720 C   0  0  0  0  0  0  0  0  0  0  0  0
   -2.1215   -0.3470    0.1313 C   0  0  0  0  0  0  0  0  0  0  0  0
   -0.7434   -0.5959   -0.1602 C   0  0  0  0  0  0  0  0  0  0  0  0
    0.1709   -1.2071    0.6248 C   0  0  0  0  0  0  0  0  0  0  0  0
    1.5682   -1.3144    0.2717 C   0  0  0  0  0  0  0  0  0  0  0  0
    2.5019   -2.1406    0.8363 C   0  0  0  0  0  0  0  0  0  0  0  0
    3.6710   -1.9000    0.1433 N   0  0  0  0  0  0  0  0  0  0  0  0
    4.9456   -2.5364    0.3749 C   0  0  0  0  0  0  0  0  0  0  0  0
    5.0515   -3.7312    1.0734 C   0  0  0  0  0  0  0  0  0  0  0  0
    6.2842   -4.3134    1.2748 C   0  0  0  0  0  0  0  0  0  0  0  0
    7.4229   -3.7105    0.7801 C   0  0  0  0  0  0  0  0  0  0  0  0
    7.3285   -2.5249    0.0806 C   0  0  0  0  0  0  0  0  0  0  0  0
    6.0961   -1.9436   -0.1209 C   0  0  0  0  0  0  0  0  0  0  0  0
    3.5350   -0.9653   -0.8015 N   0  0  0  0  0  0  0  0  0  0  0  0
    2.2754   -0.5768   -0.7464 C   0  0  0  0  0  0  0  0  0  0  0  0
    1.6679    0.5020   -1.5603 C   0  0  0  0  0  0  0  0  0  0  0  0
    1.2712    0.2638   -2.8797 C   0  0  0  0  0  0  0  0  0  0  0  0
    0.4181    1.1339   -3.5157 C   0  0  0  0  0  0  0  0  0  0  0  0
   -0.0452    2.2598   -2.8583 C   0  0  0  0  0  0  0  0  0  0  0  0
   -1.1460    3.0361   -3.4264 N   0  0  0  0  0  4  0  0  0  0  0  0
   -2.0491    3.4075   -2.6638 O   0  0  0  0  0  0  0  0  0  0  0  0
   -1.1462    3.2659   -4.6422 O   0  0  0  0  0  1  0  0  0  0  0  0
    0.4141    2.5555   -1.5881 C   0  0  0  0  0  0  0  0  0  0  0  0
    1.2614    1.6893   -0.9431 C   0  0  0  0  0  0  0  0  0  0  0  0
   -2.6673   -0.6233    1.3431 C   0  0  0  0  0  0  0  0  0  0  0  0
   -3.7536    0.1250    1.8875 C   0  0  0  0  0  0  0  0  0  0  0  0
   -3.9515    0.1602    3.2398 C   0  0  0  0  0  0  0  0  0  0  0  0
   -4.9247    0.9823    3.7980 C   0  0  0  0  0  0  0  0  0  0  0  0
   -5.7483    1.6914    4.2147 N   0  0  0  0  0  0  0  0  0  0  0  0
   -3.1545   -0.6183    4.0737 C   0  0  0  0  0  0  0  0  0  0  0  0
   -2.4442   -1.2910    4.7044 N   0  0  0  0  0  0  0  0  0  0  0  0
   -4.6004    0.9496    0.9574 C   0  0  0  0  0  0  0  0  0  0  0  0
   -3.4404    3.4506    0.8174 H   0  0  0  0  0  0  0  0  0  0  0  0
   -2.3078    3.1403   -0.4939 H   0  0  0  0  0  0  0  0  0  0  0  0
   -2.1485    2.2720    1.0341 H   0  0  0  0  0  0  0  0  0  0  0  0
   -4.1661    2.6094   -2.0908 H   0  0  0  0  0  0  0  0  0  0  0  0
   -5.3534    2.9460   -0.8326 H   0  0  0  0  0  0  0  0  0  0  0  0
   -5.3897    1.4047   -1.6864 H   0  0  0  0  0  0  0  0  0  0  0  0
   -3.5842   -0.2499   -1.4150 H   0  0  0  0  0  0  0  0  0  0  0  0
   -2.2682    0.8793   -1.6242 H   0  0  0  0  0  0  0  0  0  0  0  0
   -0.4053   -0.2292   -1.1095 H   0  0  0  0  0  0  0  0  0  0  0  0
   -0.1330   -1.6365    1.5626 H   0  0  0  0  0  0  0  0  0  0  0  0
    2.3552   -2.8360    1.6426 H   0  0  0  0  0  0  0  0  0  0  0  0
    4.1619   -4.2049    1.4491 H   0  0  0  0  0  0  0  0  0  0  0  0
    6.3591   -5.2407    1.8178 H   0  0  0  0  0  0  0  0  0  0  0  0
    8.3865   -4.1670    0.9387 H   0  0  0  0  0  0  0  0  0  0  0  0
    8.2163   -2.0549   -0.3082 H   0  0  0  0  0  0  0  0  0  0  0  0
    6.0043   -1.0215   -0.6680 H   0  0  0  0  0  0  0  0  0  0  0  0
    1.5831   -0.6457   -3.3623 H   0  0  0  0  0  0  0  0  0  0  0  0
    0.0618    0.9313   -4.5117 H   0  0  0  0  0  0  0  0  0  0  0  0
    0.0575    3.4457   -1.0986 H   0  0  0  0  0  0  0  0  0  0  0  0
    1.5645    1.8796    0.0715 H   0  0  0  0  0  0  0  0  0  0  0  0
   -2.1372   -1.2710    2.0159 H   0  0  0  0  0  0  0  0  0  0  0  0
   -5.0953    1.7517    1.5132 H   0  0  0  0  0  0  0  0  0  0  0  0
   -5.4023    0.3222    0.5567 H   0  0  0  0  0  0  0  0  0  0  0  0
  1  2  1  0  0  0  0
  2  3  1  0  0  0  0
  2  4  1  0  0  0  0
  4  5  1  0  0  0  0
  5  6  1  0  0  0  0
  6  7  2  0  0  0  0
  7  8  1  0  0  0  0
  8  9  2  0  0  0  0
  9 10  1  0  0  0  0
 10 11  1  0  0  0  0
 11 12  2  0  0  0  0
 12 13  1  0  0  0  0
 13 14  2  0  0  0  0
 14 15  1  0  0  0  0
 15 16  2  0  0  0  0
 10 17  1  0  0  0  0
 17 18  2  0  0  0  0
 18 19  1  0  0  0  0
 19 20  2  0  0  0  0
 20 21  1  0  0  0  0
 21 22  2  0  0  0  0
 22 23  1  0  0  0  0
 23 24  2  0  0  0  0
 23 25  1  0  0  0  0
 22 26  1  0  0  0  0
 26 27  2  0  0  0  0
  5 28  2  0  0  0  0
 28 29  1  0  0  0  0
 29 30  2  0  0  0  0
 30 31  1  0  0  0  0
 31 32  3  0  0  0  0
 30 33  1  0  0  0  0
 33 34  3  0  0  0  0
 29 35  1  0  0  0  0
 35  2  1  0  0  0  0
 18  8  1  0  0  0  0
 27 19  1  0  0  0  0
 16 11  1  0  0  0  0
  1 36  1  0  0  0  0
  1 37  1  0  0  0  0
  1 38  1  0  0  0  0
  3 39  1  0  0  0  0
  3 40  1  0  0  0  0
  3 41  1  0  0  0  0
  4 42  1  0  0  0  0
  4 43  1  0  0  0  0
  6 44  1  0  0  0  0
  7 45  1  0  0  0  0
  9 46  1  0  0  0  0
 12 47  1  0  0  0  0
 13 48  1  0  0  0  0
 14 49  1  0  0  0  0
 15 50  1  0  0  0  0
 16 51  1  0  0  0  0
 20 52  1  0  0  0  0
 21 53  1  0  0  0  0
 26 54  1  0  0  0  0
 27 55  1  0  0  0  0
 28 56  1  0  0  0  0
 35 57  1  0  0  0  0
 35 58  1  0  0  0  0
M  CHG  1  23   1
M  CHG  1  25  -1
M  END
