
  xtb     03212210133D
 energy: -5.019655257438 gnorm: 0.000637762661 xtb: 6.4.1 (afa7bdf)
 27 27  0     0  0            999 V2000
   -5.0598   -0.6410   -0.3568 C   0  0  0  0  0  0  0  0  0  0  0  0
   -4.1495    0.1517    0.4511 N   0  0  0  0  0  0  0  0  0  0  0  0
   -2.7651    0.1546    0.3338 C   0  0  0  0  0  0  0  0  0  0  0  0
   -2.1088   -0.6223   -0.6243 C   0  0  0  0  0  0  0  0  0  0  0  0
   -0.7412   -0.6070   -0.7249 C   0  0  0  0  0  0  0  0  0  0  0  0
    0.0355    0.1858    0.1270 C   0  0  0  0  0  0  0  0  0  0  0  0
    1.4807    0.2277    0.0476 C   0  0  0  0  0  0  0  0  0  0  0  0
    2.2400   -0.4553   -0.8161 C   0  0  0  0  0  0  0  0  0  0  0  0
    3.6933   -0.3439   -0.8157 C   0  0  0  0  0  0  0  0  0  0  0  0
    4.3516   -0.9760   -1.6236 O   0  0  0  0  0  0  0  0  0  0  0  0
    4.2421    0.4901    0.1219 O   0  0  0  0  0  0  0  0  0  0  0  0
    5.6271    0.4863   -0.0056 C   0  0  0  0  0  0  0  0  0  0  0  0
   -0.6256    0.9617    1.0847 C   0  0  0  0  0  0  0  0  0  0  0  0
   -1.9925    0.9475    1.1865 C   0  0  0  0  0  0  0  0  0  0  0  0
   -6.0992   -0.4681   -0.0799 H   0  0  0  0  0  0  0  0  0  0  0  0
   -4.9410   -0.3859   -1.4082 H   0  0  0  0  0  0  0  0  0  0  0  0
   -4.8441   -1.7001   -0.2287 H   0  0  0  0  0  0  0  0  0  0  0  0
   -4.6001    0.7151    1.1726 H   0  0  0  0  0  0  0  0  0  0  0  0
   -2.6894   -1.2377   -1.2874 H   0  0  0  0  0  0  0  0  0  0  0  0
   -0.2599   -1.2136   -1.4707 H   0  0  0  0  0  0  0  0  0  0  0  0
    1.9901    0.8665    0.7478 H   0  0  0  0  0  0  0  0  0  0  0  0
    1.8035   -1.1104   -1.5436 H   0  0  0  0  0  0  0  0  0  0  0  0
    6.0604    1.1461    0.7477 H   0  0  0  0  0  0  0  0  0  0  0  0
    5.9918   -0.5333    0.1334 H   0  0  0  0  0  0  0  0  0  0  0  0
    5.8917    0.8344   -1.0061 H   0  0  0  0  0  0  0  0  0  0  0  0
   -0.0438    1.5778    1.7486 H   0  0  0  0  0  0  0  0  0  0  0  0
   -2.4880    1.5493    1.9274 H   0  0  0  0  0  0  0  0  0  0  0  0
  1  2  1  0  0  0  0
  2  3  1  0  0  0  0
  3  4  2  0  0  0  0
  4  5  1  0  0  0  0
  5  6  2  0  0  0  0
  6  7  1  0  0  0  0
  7  8  2  0  0  0  0
  8  9  1  0  0  0  0
  9 10  2  0  0  0  0
  9 11  1  0  0  0  0
 11 12  1  0  0  0  0
  6 13  1  0  0  0  0
 13 14  2  0  0  0  0
 14  3  1  0  0  0  0
  1 15  1  0  0  0  0
  1 16  1  0  0  0  0
  1 17  1  0  0  0  0
  2 18  1  0  0  0  0
  4 19  1  0  0  0  0
  5 20  1  0  0  0  0
  7 21  1  0  0  0  0
  8 22  1  0  0  0  0
 12 23  1  0  0  0  0
 12 24  1  0  0  0  0
 12 25  1  0  0  0  0
 13 26  1  0  0  0  0
 14 27  1  0  0  0  0
M  END
