57

C         -6.13620        1.40630        2.51190
C         -6.17670        1.19030        1.00340
C         -4.78930        1.22390        0.36240
C         -3.90750        0.05090        0.82320
N         -2.77220       -0.22670       -0.03400
C         -2.95950       -1.05920       -1.13920
C         -4.23970       -1.33910       -1.62450
C         -4.44160       -2.16700       -2.71560
C         -3.36990       -2.73320       -3.37740
C         -2.09230       -2.47000       -2.91820
C         -1.89050       -1.66140       -1.81230
S         -0.21880       -1.49940       -1.25650
C         -0.34980       -0.01410       -0.30900
C          0.83320        0.64860       -0.05380
C          0.86890        1.78550        0.75150
C          2.11590        2.47220        1.05700
C          3.29600        1.88180        1.26180
C          3.50890        0.43830        1.37690
C          2.76780       -0.31350        2.22740
C          2.98740       -1.73160        2.41810
O          2.35420       -2.43900        3.16330
O          4.00730       -2.29940        1.70050
C          4.75920       -1.58110        0.83750
C          5.75950       -2.25690        0.13870
C          6.54340       -1.57630       -0.76390
C          6.35320       -0.21180       -1.00420
C          7.21470        0.49660       -2.00420
C          5.36570        0.45280       -0.30750
C          4.56290       -0.20840        0.62870
C         -0.34290        2.25620        1.24490
C         -1.52770        1.59740        0.98070
C         -1.57390        0.43600        0.20370
H         -5.61070        0.59540        3.00950
H         -5.63370        2.34160        2.74940
H         -7.14600        1.45130        2.91270
H         -6.65700        0.23260        0.78820
H         -6.78730        1.97370        0.54890
H         -4.89270        1.18900       -0.72370
H         -4.31300        2.17590        0.60200
H         -4.51220       -0.85950        0.87190
H         -3.52470        0.23630        1.82940
H         -5.10900       -0.91610       -1.15220
H         -5.45100       -2.36060       -3.04630
H         -3.52010       -3.37430       -4.23150
H         -1.23040       -2.90800       -3.39800
H          1.74060        0.26360       -0.49340
H          2.05440        3.55250        1.10410
H          4.17970        2.48960        1.40900
H          1.97350        0.11920        2.81460
H          5.89350       -3.31110        0.32080
H          7.31630       -2.10340       -1.30350
H          7.12430        0.02580       -2.98200
H          8.26090        0.44380       -1.70600
H          6.93090        1.54180       -2.09370
H          5.19470        1.50380       -0.48750
H         -0.36060        3.14130        1.86420
H         -2.43010        2.00800        1.39870
