39

C         -5.88280       -1.94820        1.47060
N         -5.47380       -0.94440        0.52030
C         -6.48980       -0.23670       -0.21800
C         -4.15010       -0.66160        0.33140
C         -3.15430       -1.23190        1.14200
C         -1.82610       -0.94060        0.94410
C         -1.39980       -0.06800       -0.06460
C          0.00490        0.20050       -0.22000
C          0.57890        1.01840       -1.12450
C          1.98660        1.23170       -1.21150
C          2.73570        2.02130       -2.06170
N          4.04320        1.89250       -1.75310
C          4.08520        1.05420       -0.75070
C          5.27280        0.60080       -0.06990
C          6.53070        1.05860       -0.47000
C          7.64160        0.59710        0.21150
N          7.58040       -0.25530        1.22320
C          6.38800       -0.68700        1.59980
C          5.20530       -0.29810        0.99660
O          2.86180        0.61690       -0.37600
C         -2.39370        0.49730       -0.87200
C         -3.72460        0.21230       -0.68400
H         -6.94280       -2.15590        1.34520
H         -5.71650       -1.61980        2.50280
H         -5.33580       -2.88040        1.30880
H         -6.49570       -0.52490       -1.27510
H         -6.33630        0.84340       -0.15170
H         -7.46710       -0.46240        0.20230
H         -3.42100       -1.90170        1.94310
H         -1.08840       -1.39580        1.59040
H          0.65610       -0.31740        0.47390
H         -0.00150        1.56980       -1.84830
H          2.40680        2.65740       -2.85730
H          6.60830        1.75270       -1.29040
H          8.63710        0.92250       -0.06110
H          6.38590       -1.38170        2.43010
H          4.25320       -0.67490        1.33570
H         -2.11790        1.17180       -1.66820
H         -4.44440        0.66780       -1.34430
