46

C         -0.25030       -3.63990        2.68010
O         -0.54020       -2.46010        1.94360
C          0.35280       -2.07100        1.02560
O          1.41860       -2.60750        0.84710
C         -0.15790       -0.90390        0.29270
C          0.51910        0.23770       -0.22690
C          1.93120        0.58120       -0.19240
C          2.92420       -0.32960       -0.33540
C          4.29230        0.08010       -0.30740
C          5.36480       -0.80860       -0.44770
C          6.65920       -0.34330       -0.42750
C          6.91180        1.01790       -0.27040
C          5.87310        1.91390       -0.12940
C          4.56030        1.44820       -0.14440
O          3.56380        2.35000        0.00750
C          2.24200        2.00650        0.01040
O          1.43770        2.88060        0.20180
N         -0.35860        1.07650       -0.74420
N         -1.56140        0.54540       -0.59130
C         -2.68280        1.22630       -1.08260
C         -2.65080        2.61740       -1.09790
C         -3.74260        3.32140       -1.57030
C         -4.86870        2.65470       -2.02530
C         -4.86660        1.27150       -2.01710
F         -5.94890        0.61040       -2.47140
C         -3.78750        0.53560       -1.56420
C         -1.50220       -0.65240        0.04200
C         -2.67530       -1.47550        0.41750
O         -2.81730       -2.63580        0.13780
O         -3.54920       -0.74890        1.12080
C         -4.73160       -1.41750        1.54070
H         -0.76350       -4.48390        2.21540
H          0.82580       -3.82280        2.68740
H         -0.62190       -3.48550        3.69120
H          2.69760       -1.37620       -0.47150
H          5.15270       -1.86010       -0.56750
H          7.48360       -1.03150       -0.53440
H          7.93000        1.37580       -0.25710
H          6.04940        2.97030       -0.00470
H         -1.76380        3.11640       -0.74100
H         -3.72070        4.39970       -1.57940
H         -5.73320        3.18570       -2.39000
H         -3.81370       -0.54160       -1.61240
H         -5.41760       -1.52830        0.69810
H         -5.17750       -0.79330        2.31040
H         -4.48700       -2.40560        1.93410
