80

O         -2.49190        2.29560       -0.00400
C         -3.11470        1.11450        0.07290
C         -4.50300        1.10830        0.12160
C         -5.21820       -0.08180        0.19230
N         -6.60930       -0.07020        0.24820
C         -7.28200        0.95900        0.92190
C         -6.77710        1.46970        2.11680
C         -7.44820        2.47880        2.77950
C         -8.63180        2.98720        2.27000
C         -9.13920        2.48010        1.08510
C         -8.47110        1.47630        0.41070
C         -7.34750       -1.08310       -0.37660
C         -8.50680       -1.58100        0.21750
C         -9.23590       -2.57510       -0.40560
C         -8.82050       -3.09330       -1.62140
C         -7.66850       -2.60340       -2.21470
C         -6.93720       -1.60360       -1.60370
C         -4.51870       -1.29450        0.21100
C         -3.14570       -1.29790        0.16350
C         -2.41020       -0.11100        0.09670
C         -0.96920       -0.10110        0.05490
N         -0.24010        0.99600       -0.05340
C          1.06060        0.59690       -0.05350
C          2.24050        1.38410       -0.15660
C          2.18670        2.77650       -0.28360
C          3.33730        3.51260       -0.39340
C          4.58400        2.87260       -0.37530
C          5.82290        3.65590       -0.49530
C          6.92920        3.36500        0.29950
C          8.09210        4.10370        0.18610
C          8.17120        5.14240       -0.72640
C          7.07810        5.43950       -1.52300
C          5.91260        4.70520       -1.40710
C          4.63780        1.49630       -0.24500
C          3.48530        0.70920       -0.13150
C          3.54140       -0.73710        0.00910
C          4.75110       -1.43740        0.06810
C          4.80910       -2.81320        0.20440
C          6.10610       -3.50230        0.26950
C          7.15620       -2.97160        1.01550
C          8.37340       -3.62330        1.08060
C          8.56410       -4.81320        0.39820
C          7.52800       -5.34880       -0.34830
C          6.30830       -4.70130       -0.41030
C          3.61580       -3.54290        0.28390
C          2.41020       -2.89390        0.23630
C          2.34780       -1.50000        0.10190
C          1.12500       -0.78820        0.06110
N         -0.17520       -1.21230        0.12670
H         -1.51520        2.12840       -0.04520
H         -5.01570        2.05690        0.09530
H         -5.85920        1.06840        2.52000
H         -7.04770        2.86510        3.70520
H         -9.15490        3.77350        2.79260
H        -10.05840        2.87440        0.67750
H         -8.86370        1.08800       -0.51770
H         -8.82780       -1.18380        1.16930
H        -10.13090       -2.95350        0.06600
H         -9.39140       -3.87210       -2.10380
H         -7.34150       -2.99620       -3.16630
H         -6.04610       -1.21360       -2.07330
H         -5.06260       -2.22440        0.27380
H         -2.63220       -2.24830        0.18530
H          1.21710        3.25040       -0.29190
H          3.29160        4.58850       -0.47470
H          6.86720        2.56800        1.02670
H          8.94010        3.87050        0.81390
H          9.08060        5.71820       -0.81570
H          7.13530        6.24660       -2.23910
H          5.06870        4.93110       -2.04270
H          5.61080        1.03120       -0.25850
H          5.68490       -0.90420       -0.01210
H          7.00750       -2.05360        1.56570
H          9.17670       -3.20300        1.66830
H          9.51580       -5.32110        0.44840
H          7.67220       -6.27490       -0.88590
H          5.50950       -5.11570       -1.00840
H          3.65230       -4.61510        0.40740
H          1.49200       -3.46010        0.30910
H         -0.48750       -2.16300        0.21840
