41

O         -3.88780       -2.76250       -0.54160
C         -3.41590       -1.64760       -0.40730
C         -4.25280       -0.43600       -0.49200
C         -5.61670       -0.56770       -0.74050
C         -6.42560        0.54920       -0.83010
C         -5.87700        1.81390       -0.67120
C         -4.52500        1.95500       -0.42240
C         -3.69850        0.83700       -0.32980
C         -2.26050        1.03860       -0.05540
O         -1.82810        2.18850        0.07720
C         -1.42250       -0.14790        0.03210
C         -0.02430       -0.03700        0.28240
N          0.51730        1.17710        0.52130
C          1.90940        1.45110        0.70820
C          2.68200        1.45890       -0.63260
N          4.10810        1.49390       -0.43140
C          4.80610        0.41690       -0.08620
N          6.12400        0.56820        0.12870
C          6.76400       -0.53380        0.43310
Cl         8.42820       -0.41120        0.71390
N          6.23350       -1.74310        0.54630
C          4.93110       -1.77940        0.32590
Cl         4.17650       -3.28990        0.47020
N          4.16580       -0.76080        0.01530
C          0.76130       -1.20860        0.29700
C          0.19390       -2.44410        0.10860
C         -1.17350       -2.56280       -0.10820
C         -1.97430       -1.43380       -0.15410
H         -6.01850       -1.56290       -0.86070
H         -7.48220        0.43770       -1.02330
H         -6.50600        2.68900       -0.74110
H         -4.08070        2.93100       -0.29420
H         -0.13330        1.95500        0.40590
H          2.36130        0.69880        1.36130
H          2.00220        2.42550        1.19300
H          2.38920        2.32100       -1.23240
H          2.43800        0.54230       -1.17480
H          4.60390        2.37160       -0.42310
H          1.82630       -1.13960        0.44730
H          0.81740       -3.32530        0.12680
H         -1.63600       -3.52670       -0.25340
