50

C         -8.13920        0.21650        0.63260
C         -6.97320        0.70290       -0.22030
N         -5.95650       -0.32340       -0.36170
C         -5.28120       -0.60650        0.89620
C         -3.91760       -1.25300        0.67530
N         -3.04060       -0.33780       -0.02510
C         -1.69460       -0.35240        0.13310
C         -0.89730        0.72080       -0.32410
C          0.46060        0.71210       -0.16730
C          1.10840       -0.37120        0.45840
N          2.45080       -0.47990        0.64520
N          3.18420        0.49690        0.29010
C          4.53770        0.36080        0.28490
C          5.32440        1.49150        0.55190
C          6.69490        1.42430        0.40790
C          7.55880        2.61590        0.71450
F          6.85900        3.72060        1.00440
F          8.36530        2.93640       -0.31250
F          8.36910        2.39540        1.76650
C          7.32410        0.25890       -0.02150
C          6.53840       -0.85370       -0.29900
C          7.22810       -2.11260       -0.74700
F          6.38110       -3.06060       -1.16970
F          8.08600       -1.89200       -1.75800
F          7.95460       -2.66900        0.24080
C          5.16710       -0.82120       -0.14340
C          0.32050       -1.43980        0.91850
C         -1.03930       -1.43300        0.76100
C         -3.70200        0.56340       -0.94560
C         -5.00230       -0.08640       -1.43010
H         -8.95370        0.93430        0.58220
H         -7.84870        0.10190        1.67320
H         -8.49110       -0.74120        0.25980
H         -6.56390        1.63270        0.21660
H         -7.34700        0.93390       -1.22040
H         -5.90300       -1.29070        1.48020
H         -5.13940        0.31390        1.48990
H         -4.04110       -2.19000        0.11740
H         -3.48780       -1.48370        1.65250
H         -1.36410        1.57860       -0.78180
H          1.06280        1.54080       -0.50810
H          4.84430        2.39870        0.88340
H          8.39500        0.22360       -0.14350
H          4.55700       -1.68550       -0.35700
H          0.81630       -2.27500        1.38830
H         -1.60730       -2.28440        1.09930
H         -3.05520        0.74850       -1.80620
H         -3.92530        1.52550       -0.46360
H         -4.75780       -1.04870       -1.89480
H         -5.45920        0.54290       -2.19500
