72

C          7.42670       -3.24260       -0.99290
C          7.12500       -2.79470        0.43710
N          6.48910       -1.50550        0.46690
C          7.13670       -0.29070        0.50920
C          8.49340       -0.01140        0.59360
C          8.87890        1.31510        0.63360
C          7.94410        2.34670        0.58920
C          6.59280        2.07700        0.50100
C          6.18150        0.75210        0.45860
C          4.89630        0.11820        0.36100
C          3.60340        0.59860        0.27240
C          2.54160       -0.29840        0.17980
C          1.18030        0.24110        0.08820
C          0.03630       -0.55240       -0.00650
C         -1.20090        0.08820       -0.08600
C         -2.48120       -0.62080       -0.19020
C         -2.56570       -2.02140       -0.21060
C         -3.77220       -2.68120       -0.30850
C         -4.93350       -1.92360       -0.39090
C         -4.87000       -0.50820       -0.36790
C         -3.64990        0.13330       -0.26920
C         -6.22640       -0.04370       -0.45600
C         -6.80510        1.21770       -0.47490
C         -8.17990        1.31250       -0.56140
C         -8.97380        0.16990       -0.62690
C         -8.42040       -1.09630       -0.60990
C         -7.03910       -1.19980       -0.52730
N         -6.24020       -2.32150       -0.50600
C         -6.70510       -3.68210       -0.49750
C         -6.94830       -4.18670        0.92460
N         -1.26910        1.42070       -0.07050
C         -0.13640        2.10390        0.02190
C         -0.23170        3.56910        0.03780
C          0.91750        4.34810        0.14820
C          0.82550        5.72640        0.16190
C         -0.41220        6.34220        0.06570
C         -1.55990        5.57320       -0.04380
C         -1.47250        4.19460       -0.05780
N          1.07540        1.57130        0.10090
C          2.80600       -1.67660        0.17650
C          4.08760       -2.17690        0.26340
C          5.14180       -1.27730        0.35890
H          7.90580       -4.21810       -0.98840
H          8.08780       -2.52860       -1.47860
H          6.50640       -3.30570       -1.56890
H          8.05120       -2.73760        1.01530
H          6.46570       -3.51810        0.92510
H          9.23290       -0.79780        0.62490
H          9.92960        1.55720        0.69870
H          8.28680        3.37020        0.62240
H          5.86710        2.87510        0.46420
H          3.39670        1.65610        0.27200
H          0.10600       -1.62520       -0.01780
H         -1.66850       -2.61700       -0.14570
H         -3.80100       -3.76080       -0.31720
H         -3.58130        1.20840       -0.25060
H         -6.18840        2.10190       -0.42190
H         -8.65170        2.28370       -0.57700
H        -10.04700        0.27570       -0.69030
H         -9.05240       -1.97070       -0.65690
H         -5.95770       -4.30710       -0.99430
H         -7.63030       -3.73570       -1.07770
H         -7.69620       -3.57090        1.41890
H         -7.29810       -5.21540        0.90430
H         -6.02810       -4.13960        1.50240
H          1.87340        3.85440        0.22250
H          1.72040        6.32610        0.24790
H         -0.48240        7.42050        0.07600
H         -2.52500        6.05350       -0.11870
H         -2.35640        3.58270       -0.14260
H          1.99280       -2.38170        0.10240
H          4.25550       -3.24380        0.25420
