56

C          3.34900        3.26070       -0.22110
C          2.29680        2.66360       -0.27550
C          1.12960        1.87940       -0.29760
N         -0.00520        2.44280       -0.68840
C         -1.11550        1.71840       -0.71120
C         -2.30860        2.33340       -1.13180
C         -3.34930        2.83410       -1.49530
C         -4.55610        3.38440       -1.90660
C         -4.80590        4.66610       -2.32680
C         -6.15280        4.87530       -2.67310
C         -6.91710        3.76150       -2.51620
S         -6.01180        2.42120       -1.93930
C         -1.15570        0.35330       -0.33240
C         -2.34710       -0.37660       -0.36480
C         -3.38280       -1.00480       -0.39430
C         -4.54790       -1.75770       -0.41110
C         -5.81330       -1.35970       -0.76060
C         -6.75870       -2.39610       -0.65880
C         -6.21530       -3.56870       -0.23600
S         -4.52670       -3.44230        0.05160
C          0.04550       -0.25200        0.08070
C          0.07120       -1.59960        0.46460
C          0.06630       -2.76570        0.79000
C          0.09040       -4.10070        1.16880
C         -0.95720       -4.98550        1.20960
C         -0.57130       -6.26610        1.64430
C          0.75580       -6.34990        1.92980
S          1.57670       -4.86350        1.67580
C          1.22010        0.52160        0.10080
C          2.43550       -0.03930        0.50270
C          3.46220       -0.57590        0.85780
C          4.64780       -1.17340        1.26070
C          4.83780       -2.47150        1.66390
C          6.17420       -2.74680        2.00420
C          6.98960       -1.66800        1.86050
S          6.14690       -0.27930        1.30340
C          4.54280        3.96810       -0.16800
C          5.77310        3.50080        0.22300
C          6.77360        4.48620        0.15970
C          6.30360        5.68700       -0.27510
S          4.62260        5.65100       -0.62080
H         -4.03990        5.41860       -2.37990
H         -6.53880        5.81540       -3.02480
H         -7.96560        3.64240       -2.70510
H         -6.03930       -0.35730       -1.07700
H         -7.80190       -2.27520       -0.89060
H         -6.70400       -4.50890       -0.07360
H         -1.95990       -4.71070        0.93470
H         -1.25230       -7.09270        1.74130
H          1.30940       -7.19980        2.27680
H          4.03720       -3.18800        1.70840
H          6.51670       -3.70850        2.34250
H          8.04280       -1.59940        2.04800
H          5.93550        2.48650        0.54060
H          7.80060        4.31080        0.42640
H          6.84680        6.60080       -0.41510
