58

C         -4.84610       -1.10420       -0.17670
C         -5.06420       -2.32530        0.34010
C         -6.33180       -3.00680        0.21190
C         -6.53120       -4.28630        0.75490
N         -7.67710       -4.92940        0.64840
C         -8.65770       -4.31520       -0.00130
C         -8.47720       -3.04820       -0.54240
N         -7.33260       -2.40080       -0.43980
C         -3.62660       -0.33520       -0.11330
C         -3.56570        0.89760       -0.77490
C         -2.42670        1.66930       -0.75620
C         -1.29270        1.23820       -0.06350
N         -0.13650        2.01700       -0.03680
C         -0.23920        3.41720       -0.02020
C         -1.22310        4.04320        0.74310
C         -1.32030        5.42130        0.75370
C         -0.43850        6.19240        0.01420
C          0.54280        5.57380       -0.74310
C          0.64320        4.19620       -0.76660
C          1.12220        1.41800       -0.02450
C          1.35850        0.23420       -0.72950
C          2.60070       -0.35640       -0.71520
C          3.66430        0.20780       -0.00110
C          4.98690       -0.37220        0.05230
C          5.37310       -1.53120       -0.50560
C          6.70020       -2.10050       -0.43900
C          7.79780       -1.52100        0.21780
N          8.98540       -2.09250        0.24450
C          9.11870       -3.25560       -0.38060
C          8.04470       -3.84250       -1.03700
N          6.85430       -3.27480       -1.06600
C          3.41830        1.39910        0.69250
C          2.17760        1.99390        0.68660
C         -1.34500        0.01420        0.60980
C         -2.48580       -0.75400        0.58180
H         -5.67000       -0.64290       -0.70600
H         -4.29810       -2.86550        0.87780
H         -5.74210       -4.80070        1.28820
H         -9.59210       -4.85210       -0.08320
H         -9.26880       -2.53540       -1.07320
H         -4.43070        1.24320       -1.32210
H         -2.39970        2.61120       -1.28430
H         -1.90470        3.44280        1.32760
H         -2.08490        5.89610        1.35050
H         -0.51560        7.26880        0.02780
H          1.23060        6.16750       -1.32680
H          1.40240        3.71370       -1.36480
H          0.55530       -0.21110       -1.29830
H          2.75230       -1.26360       -1.27830
H          5.70770        0.21070        0.61140
H          4.67790       -2.14170       -1.06380
H          7.72410       -0.57470        0.73520
H         10.09850       -3.71050       -0.34800
H          8.13550       -4.78950       -1.55250
H          4.21910        1.85670        1.25590
H          2.01050        2.90670        1.23930
H         -0.48090       -0.32150        1.16430
H         -2.49690       -1.68880        1.12000
