46

F          0.59140       -1.96610       -1.89300
B          0.17940       -1.54210       -0.64430
F          1.09750       -1.93850        0.31560
N         -1.20040       -2.14810       -0.31150
C         -1.53350       -3.44800       -0.25640
Cl        -0.41910       -4.67860       -0.56470
C         -2.87900       -3.59480        0.08070
C         -3.38430       -2.31620        0.23850
C         -2.32880       -1.42440       -0.00420
C         -2.29260       -0.02180        0.00800
C         -3.52170        0.72710        0.34080
C         -4.24210        1.40440       -0.64140
Cl        -3.67930        1.35740       -2.27210
C         -5.40280        2.09650       -0.33560
C         -5.85670        2.11860        0.97160
C         -5.16170        1.45680        1.96870
C         -4.00390        0.76640        1.64800
Cl        -3.11930       -0.04700        2.88560
C         -1.13210        0.65340       -0.29820
C         -0.91040        2.05590       -0.34680
C          0.38460        2.24410       -0.71800
C          0.97460        0.95080       -0.89240
N          2.24010        0.81680       -1.29580
C          3.10760       -0.34030       -1.40390
C          4.27150       -0.17110       -0.46030
C          5.44990        0.42580       -0.88810
C          6.49830        0.61800       -0.00480
C          6.37220        0.22170        1.31550
C          5.19730       -0.37000        1.74900
C          4.14980       -0.56460        0.86630
N          0.05580        0.00690       -0.63130
H         -3.39460       -4.52690        0.18890
H         -4.38790       -2.04000        0.49640
H         -5.94050        2.60750       -1.11770
H         -6.75970        2.65600        1.21500
H         -5.50800        1.47190        2.98930
H         -1.65030        2.80050       -0.12730
H          0.90340        3.17200       -0.86090
H          2.72620        1.69530       -1.41510
H          3.46040       -0.40690       -2.43890
H          2.55880       -1.24310       -1.16600
H          5.55280        0.73160       -1.92030
H          7.41420        1.07650       -0.34790
H          7.19020        0.37140        2.00460
H          5.09820       -0.68310        2.77760
H          3.23530       -1.03190        1.19690
