66

C         -7.07510       -3.40030       -0.01180
C         -7.00200       -2.16550        0.88600
N         -6.37430       -1.05830        0.21700
C         -7.01590       -0.13430       -0.57750
C         -8.36590       -0.00190       -0.87070
C         -8.74850        1.03520       -1.70010
C         -7.81700        1.92390       -2.23200
C         -6.47190        1.79670       -1.94780
C         -6.06350        0.76240       -1.11720
C         -4.78270        0.33210       -0.63000
C         -3.49270        0.79300       -0.81340
C         -2.43220        0.13020       -0.19930
C         -1.07290        0.63260       -0.42170
C          0.06260        0.11140        0.19260
C          1.30230        0.66600       -0.13520
C          2.57710        0.19430        0.41350
C          2.66720       -0.93480        1.24190
C          3.87120       -1.37740        1.74720
C          5.02310       -0.67400        1.41790
C          4.95330        0.46470        0.57690
C          3.73620        0.89330        0.08180
C          6.30260        0.93380        0.42380
C          6.87370        1.98750       -0.27600
C          8.24340        2.15310       -0.21790
C          9.03950        1.28370        0.52410
C          8.49330        0.22780        1.22900
C          7.11720        0.05700        1.17850
N          6.32520       -0.89240        1.78620
C          6.79850       -1.99110        2.58380
C          7.11700       -3.21560        1.72610
N          1.38040        1.68420       -0.99420
C          0.24730        2.12960       -1.50970
O          0.38040        3.16060       -2.34930
C         -0.81530        3.65880       -2.91450
N         -0.96440        1.65520       -1.27850
C         -2.69480       -0.99730        0.59420
C         -3.97390       -1.47220        0.79150
C         -5.02770       -0.80450        0.18000
H         -7.64790       -3.17890       -0.90930
H         -7.55300       -4.22130        0.51610
H         -6.07540       -3.70830       -0.30930
H         -6.43100       -2.39290        1.79050
H         -8.00800       -1.86200        1.18850
H         -9.10190       -0.68390       -0.47170
H         -9.79370        1.15780       -1.94350
H         -8.15710        2.72040       -2.87690
H         -5.74820        2.48290       -2.36100
H         -3.28760        1.65550       -1.42610
H         -0.01300       -0.69140        0.90290
H          1.77790       -1.49180        1.49260
H          3.90630       -2.25400        2.37720
H          3.65790        1.75520       -0.56020
H          6.25470        2.65790       -0.85230
H          8.70990        2.96520       -0.75560
H         10.10870        1.43630        0.54720
H          9.12690       -0.43910        1.79480
H          6.03080       -2.23990        3.32190
H          7.69340       -1.66790        3.12240
H          7.88460       -2.97260        0.99510
H          6.22700       -3.54300        1.19370
H          7.47250       -4.03070        2.35100
H         -1.32620        2.88180       -3.48820
H         -0.51790        4.47740       -3.56670
H         -1.49040        4.02100       -2.13520
H         -1.87990       -1.52570        1.06360
H         -4.13960       -2.34640        1.40370
