52

C          3.60070        1.08070        2.89900
C          2.29450        1.79100        2.59300
O          1.62160        1.07750        1.55550
C          0.29390        1.22990        1.47480
O         -0.35070        1.91130        2.23560
C         -0.28780        0.49580        0.34780
C          0.31790       -0.17620       -0.75210
C          1.73080       -0.42340       -1.01100
C          2.55650       -1.00270       -0.11110
C          3.93800       -1.20300       -0.41760
C          4.85280       -1.77890        0.47130
C          6.17050       -1.93730        0.10870
C          6.60360       -1.52820       -1.15050
C          5.72230       -0.95950       -2.04550
C          4.38720       -0.79290       -1.68290
O          3.55140       -0.22900       -2.58310
C          2.22650       -0.00720       -2.33170
O          1.57000        0.52120       -3.18920
N         -0.60550       -0.55740       -1.61060
N         -1.78090       -0.17050       -1.12500
C         -2.95540       -0.43900       -1.83990
C         -2.88970       -0.48380       -3.22880
C         -4.03530       -0.73780       -3.95950
C         -5.24680       -0.94840       -3.32140
C         -5.28090       -0.91420       -1.93900
F         -6.44730       -1.13940       -1.30450
C         -4.15330       -0.67130       -1.17730
C         -1.64850        0.46970        0.05740
C         -2.75350        1.14720        0.79080
O         -3.38030        2.06520        0.33230
O         -2.92870        0.60560        1.98810
C         -3.88310        1.23720        2.84860
C         -5.30270        0.78640        2.53590
H          3.40730        0.08010        3.27690
H          4.20410        1.00280        1.99810
H          4.15130        1.64030        3.64950
H          2.47660        2.81450        2.24650
H          1.64290        1.83600        3.47260
H          2.18530       -1.32580        0.84990
H          4.50550       -2.09330        1.44390
H          6.87200       -2.38030        0.79880
H          7.63820       -1.65710       -1.42910
H          6.03860       -0.63680       -3.02430
H         -1.93800       -0.31470       -3.70650
H         -3.98740       -0.76620       -5.03670
H         -6.15210       -1.14130       -3.87400
H         -4.22000       -0.68130       -0.10180
H         -3.58430        0.94310        3.85600
H         -3.79050        2.32090        2.73360
H         -5.58870        1.10840        1.53730
H         -5.98800        1.22880        3.25300
H         -5.38030       -0.29690        2.59790
