79

C          1.41680       -4.84780        0.95480
C          1.32960       -4.94610       -0.42350
C          0.77520       -3.91720       -1.17270
C          0.31540       -2.79390       -0.51660
C          0.40210       -2.69540        0.86950
C          0.95080       -3.71880        1.61480
C         -0.16510       -1.39040        1.34200
C         -0.22390       -0.53190        0.05600
C         -0.31590       -1.56290       -1.09430
C          1.00480        0.33270       -0.07970
C          2.32380       -0.05840       -0.12820
C          3.30220        0.92730       -0.25030
N          4.68060        0.56890       -0.30040
C          5.31970        0.26730        0.89890
C          4.58920        0.20890        2.08700
C          5.19430       -0.09210        3.29420
C          6.54970       -0.35370        3.35130
C          7.29430       -0.28790        2.18680
C          6.69500        0.03120        0.98010
S          7.77220        0.19080       -0.41720
C          6.61020        0.16470       -1.75330
C          7.12790       -0.03550       -3.02190
C          6.30370       -0.01680       -4.13330
C          4.94910        0.19360       -3.95950
C          4.42640        0.37640       -2.69170
C          5.24220        0.37120       -1.55880
C          2.95730        2.27150       -0.32910
C          1.62980        2.66360       -0.28500
C          0.65390        1.68940       -0.15760
C         -0.79430        1.79120       -0.07980
C         -1.63050        2.89450       -0.11330
C         -2.99800        2.69600       -0.01990
C         -3.51890        1.41410        0.10690
N         -4.93160        1.24540        0.19930
C         -5.49250        1.24070        1.47310
C         -4.66480        1.31510        2.59510
C         -5.18310        1.31740        3.87790
C         -6.54710        1.23260        4.08050
C         -7.38430        1.15460        2.98140
C         -6.87010        1.16730        1.69570
S         -8.05070        1.12970        0.37610
C         -7.01000        0.80810       -1.02070
C         -7.65260        0.46970       -2.19970
C         -6.93460        0.26290       -3.36440
C         -5.56020        0.40060       -3.33610
C         -4.91340        0.72310       -2.15630
C         -5.61850        0.92720       -0.96860
C         -2.68150        0.30040        0.14350
C         -1.32230        0.49620        0.04810
H          1.85470       -5.65540        1.52250
H          1.70000       -5.82970       -0.92170
H          0.71130       -3.99330       -2.24830
H          1.02260       -3.64210        2.68990
H         -1.17020       -1.53940        1.74660
H          0.44180       -0.91780        2.11530
H         -1.36170       -1.75790       -1.34800
H          0.18820       -1.20880       -1.99450
H          2.60710       -1.09940       -0.07180
H          3.53060        0.41460        2.06800
H          4.59420       -0.12050        4.19120
H          7.02850       -0.59500        4.28720
H          8.35870       -0.46690        2.20100
H          8.19100       -0.19150       -3.12510
H          6.71950       -0.16210       -5.11790
H          4.28560        0.21440       -4.81080
H          3.36520        0.53370       -2.57730
H          3.74230        3.00640       -0.42720
H          1.36650        3.70840       -0.34630
H         -1.22900        3.89130       -0.21170
H         -3.67690        3.53520       -0.04370
H         -3.59630        1.38030        2.46040
H         -4.50850        1.38420        4.71800
H         -6.96020        1.23080        5.07670
H         -8.45490        1.09480        3.10610
H         -8.72860        0.38440       -2.19220
H         -7.44700        0.00660       -4.27810
H         -4.97750        0.25710       -4.23340
H         -3.83970        0.82870       -2.15920
H         -3.10940       -0.68710        0.24310
