36

C         -6.03680       -1.27890        0.19270
O         -5.08940       -0.24120        0.23060
C         -3.77140       -0.56500        0.15830
C         -3.26730       -1.85120        0.04790
C         -1.90270       -2.07700       -0.01910
C         -1.01330       -1.01130        0.02360
C          0.41200       -1.23110       -0.04530
C          1.17650       -2.36910       -0.15380
N          2.48550       -2.02740       -0.17920
C          2.50890       -0.72470       -0.08870
C          3.68990        0.10740       -0.07510
C          3.59010        1.49480        0.02710
C          4.73390        2.26950        0.03780
C          5.98140        1.67290       -0.05260
C          6.08480        0.29360       -0.15430
C          4.94820       -0.48950       -0.16590
O          1.27530       -0.18230       -0.00420
C         -1.51380        0.29200        0.13510
C         -2.87200        0.52690        0.20250
O         -3.45000        1.75390        0.31150
C         -2.61410        2.88280        0.36090
H         -5.98270       -1.84090       -0.74560
H         -5.91530       -1.96750        1.03560
H         -7.00780       -0.79160        0.26410
H         -3.93570       -2.69630        0.01260
H         -1.53440       -3.08610       -0.10480
H          0.87330       -3.39330       -0.21410
H          2.61550        1.95410        0.09720
H          4.65410        3.34390        0.11710
H          6.87270        2.28270       -0.04380
H          7.05780       -0.16970       -0.22480
H          5.00400       -1.56340       -0.24420
H         -0.81000        1.10760        0.16690
H         -2.01550        2.98210       -0.55070
H         -1.94910        2.85490        1.23070
H         -3.28240        3.73820        0.44690
