52

C          1.01990        4.72700       -0.15110
C          0.09460        4.09800        0.87970
O         -0.38800        2.84050        0.40550
C          0.30770        1.75990        0.74920
O          1.23490        1.74130        1.52120
C         -0.20880        0.55020        0.08420
C          0.58400       -0.50570       -0.41940
C          2.03660       -0.55160       -0.43780
C          2.75860       -1.65940       -0.12680
Cl         1.97060       -3.11900        0.29680
C          4.19420       -1.62430       -0.11500
C          5.00910       -2.71370        0.21230
C          6.37860       -2.58140        0.21800
C          6.96720       -1.36060       -0.10030
C          6.18590       -0.27310       -0.42750
C          4.79840       -0.39830       -0.43880
O          4.07520        0.68980       -0.78210
C          2.71800        0.69060       -0.82270
O          2.16240        1.69100       -1.20030
N         -0.18990       -1.46120       -0.90560
N         -1.44670       -1.06270       -0.76550
C         -2.46570       -1.95440       -1.15480
C         -3.62820       -1.51740       -1.77560
C         -4.58360       -2.44600       -2.15140
C         -4.37910       -3.79720       -1.92910
C         -3.20670       -4.22910       -1.32970
C         -2.24840       -3.31270       -0.94230
C         -1.51850        0.15440       -0.15870
C         -2.73040        0.88940        0.26250
O         -3.72670        1.05870       -0.39360
O         -2.54310        1.37570        1.48810
C         -3.58000        2.19900        2.02480
C         -4.69180        1.36310        2.64240
H          1.82250        4.03240       -0.38780
H          0.47300        4.94170       -1.06540
H          1.44070        5.64820        0.24200
H         -0.79460        4.71130        1.04740
H          0.62230        3.93810        1.82580
H          4.54300       -3.65400        0.46050
H          6.99930       -3.42670        0.47160
H          8.04180       -1.26310       -0.09210
H          6.61910        0.68150       -0.67870
H         -3.78590       -0.46790       -1.95930
H         -5.48960       -2.10750       -2.63040
H         -5.12890       -4.51410       -2.22820
H         -3.03910       -5.28210       -1.16090
H         -1.32750       -3.62990       -0.47900
H         -3.08510        2.81590        2.77730
H         -3.97870        2.83030        1.22420
H         -5.42860        2.01860        3.09750
H         -5.17820        0.76500        1.87570
H         -4.28570        0.70140        3.40360
