39

C         -6.37170       -1.21800       -1.13210
N         -5.66230       -0.84010        0.06450
C         -6.40760       -0.67330        1.28700
C         -4.30850       -0.65350        0.04180
C         -3.57820       -0.42820        1.22150
C         -2.21730       -0.24150        1.19690
C         -1.49170       -0.26420       -0.00060
C         -0.06900       -0.07040       -0.08500
C          0.78810        0.10510        0.94410
C          2.20210        0.30380        0.84070
C          2.91100        0.45520       -0.29810
C          4.33430        0.66330       -0.40180
C          5.20260        0.65010        0.69920
C          6.55330        0.85980        0.54410
C          7.08720        1.09150       -0.72680
C          8.47080        1.30970       -0.88620
N          9.59710        1.48940       -1.01530
C          6.23910        1.10420       -1.83720
C          4.89060        0.89170       -1.66980
C         -2.22390       -0.48610       -1.17430
C         -3.58450       -0.67620       -1.16190
H         -6.41160       -0.39530       -1.85480
H         -5.89620       -2.07870       -1.60950
H         -7.39120       -1.49730       -0.87690
H         -6.19360       -1.47410        2.00380
H         -7.47260       -0.68770        1.06750
H         -6.17370        0.28600        1.75580
H         -4.08080       -0.40860        2.17480
H         -1.70510       -0.07310        2.13190
H          0.32480       -0.08010       -1.09330
H          0.40300        0.09030        1.95470
H          2.72220        0.34620        1.78880
H          2.38890        0.43940       -1.24540
H          4.81410        0.46870        1.68910
H          7.21190        0.84660        1.40070
H          6.65160        1.28130       -2.82010
H          4.24040        0.90350       -2.53320
H         -1.70230       -0.50690       -2.12140
H         -4.09150       -0.83250       -2.10010
