61

C          2.62510        2.60640        2.02720
C          1.11090        2.68920        1.93520
O          0.59510        1.42530        1.51750
C         -0.44800        1.42310        0.68060
O         -0.98270        2.41830        0.25660
C         -0.82950        0.04560        0.33040
C          0.01850       -1.03210       -0.02480
C          1.46520       -1.00820       -0.14390
C          2.11810        0.05450       -0.67860
C          3.54070        0.08870       -0.74930
C          4.21450       -1.03500       -0.27430
C          5.62070       -1.11480       -0.30710
C          6.34490       -0.07210       -0.79910
C          5.71220        1.09970       -1.27980
C          6.46920        2.18030       -1.77200
C          5.85800        3.31590       -2.22920
C          4.46210        3.40930       -2.21240
C          3.69930        2.37210       -1.74240
C          4.29620        1.19110       -1.26340
O          3.56700       -2.09930        0.24040
C          2.20380       -2.16560        0.36330
O          1.73160       -3.14120        0.88310
N         -0.70500       -2.11060       -0.25960
N         -1.97760       -1.79000       -0.08790
C         -2.92600       -2.82770       -0.19260
C         -2.52170       -4.10010        0.20100
C         -3.41280       -5.15060        0.09850
C         -4.69160       -4.93850       -0.38820
C         -5.09500       -3.67220       -0.79480
C         -6.46650       -3.44710       -1.35300
C         -4.19780       -2.61610       -0.70390
C         -2.11650       -0.48590        0.27480
C         -3.34430        0.25650        0.63440
O         -4.40190        0.21290        0.05810
O         -3.09450        1.01540        1.69910
C         -4.11200        1.93970        2.09370
C         -4.13870        3.15000        1.17190
H          3.06170        2.42350        1.04860
H          2.91210        1.79620        2.69210
H          3.01580        3.54180        2.41740
H          0.67570        2.92060        2.91360
H          0.79300        3.45510        1.21930
H          1.54110        0.87990       -1.06740
H          6.08710       -2.01200        0.06690
H          7.42330       -0.12290       -0.82640
H          7.54600        2.09480       -1.77930
H          6.44460        4.14130       -2.60350
H          3.98410        4.30750       -2.57390
H          2.62520        2.47220       -1.74370
H         -1.51980       -4.24070        0.57430
H         -3.10970       -6.14000        0.40570
H         -5.38430       -5.76470       -0.45850
H         -6.48510       -3.70990       -2.41110
H         -7.19900       -4.06740       -0.84120
H         -6.75360       -2.40340       -1.25700
H         -4.49590       -1.63250       -1.02730
H         -3.84370        2.22190        3.11360
H         -5.07990        1.42710        2.09010
H         -3.13080        3.53870        1.04910
H         -4.77820        3.91990        1.59380
H         -4.52010        2.86620        0.19450
