72

C          8.58970       -2.03310        1.60570
C          8.33250       -1.54010        0.17930
N          7.58520       -0.30450        0.14460
C          8.37120        0.90860        0.13640
C          8.69680        1.38870       -1.27960
C          6.21690       -0.27910        0.11760
C          5.50120        0.91030       -0.10410
C          4.12920        0.91670       -0.12330
C          3.37150       -0.24240        0.06230
C          1.93310       -0.14820        0.02130
N          1.27200        0.97910       -0.15090
C         -0.04380        0.64270       -0.13120
C         -1.18530        1.48060       -0.26830
C         -1.05970        2.86200       -0.45260
C         -2.16940        3.65520       -0.58110
C         -3.44880        3.08520       -0.52220
C         -4.64530        3.93060       -0.64910
C         -5.75220        3.72470        0.17170
C         -6.87480        4.52290        0.05530
C         -6.91320        5.53850       -0.88530
C         -5.81970        5.75150       -1.70790
C         -4.69470        4.95690       -1.58980
C         -3.57430        1.71950       -0.34070
C         -2.46450        0.87560       -0.20990
C         -2.59640       -0.56020       -0.02200
C         -3.84000       -1.19870        0.03200
C         -3.96890       -2.56440        0.21440
C         -5.29910       -3.18800        0.26310
C         -6.30400       -2.79160       -0.61700
C         -7.55350       -3.38100       -0.57180
C         -7.82280       -4.37380        0.35530
C         -6.83250       -4.77490        1.23630
C         -5.58120       -4.18950        1.18960
C         -2.81460       -3.34690        0.35150
C         -1.57760       -2.76040        0.29970
C         -1.44310       -1.37690        0.11630
C         -0.18480       -0.73260        0.05750
N          1.08830       -1.21540        0.15260
C          4.07630       -1.43420        0.27920
O          3.38880       -2.60740        0.47290
C          5.45890       -1.44220        0.31050
H          9.14880       -2.96510        1.58610
H          7.65240       -2.19490        2.13150
H          9.16420       -1.29610        2.16170
H          7.80500       -2.30520       -0.39600
H          9.29120       -1.36990       -0.31870
H          7.84190        1.69010        0.68620
H          9.30350        0.71010        0.67300
H          7.78400        1.58870       -1.83410
H          9.29000        2.29840       -1.23870
H          9.26180        0.63050       -1.81720
H          6.01750        1.83940       -0.27430
H          3.58790        1.83320       -0.29390
H         -0.06350        3.27520       -0.48570
H         -2.06760        4.72350       -0.70450
H         -5.72140        2.94640        0.92060
H         -7.72290        4.35460        0.70370
H         -7.79100        6.16150       -0.97620
H         -5.84530        6.54010       -2.44640
H         -3.85120        5.11790       -2.24560
H         -4.57140        1.30810       -0.32150
H         -4.74550       -0.61860       -0.04970
H         -6.09500       -2.03090       -1.35540
H         -8.32060       -3.06670       -1.26500
H         -8.79980       -4.83320        0.39080
H         -7.03780       -5.54620        1.96480
H         -4.81870       -4.49500        1.89170
H         -2.90580       -4.41620        0.47460
H         -0.68770       -3.36660        0.39730
H          1.38520       -2.16580        0.29630
H          4.02090       -3.32200        0.61850
H          5.94330       -2.38910        0.50180
