47

N          4.25480        2.84930       -0.48460
C          5.17580        2.25740       -0.82950
C          6.32930        1.56430       -1.25180
C          7.48800        2.35150       -1.40850
N          8.43390        2.98820       -1.53580
C          6.35130        0.22000       -1.49870
C          5.23720       -0.63570       -1.36570
C          5.12100       -2.00420       -1.57640
C          3.79720       -2.33820       -1.29530
C          3.16050       -1.16050       -0.92570
C          1.80570       -0.88520       -0.52790
C          0.84200       -1.89810       -0.46330
C         -0.44680       -1.61720       -0.07740
C         -0.82480       -0.31080        0.25830
N         -2.12550       -0.03090        0.64670
C         -2.88630       -0.98860        1.33570
C         -4.24070       -1.14760        1.04840
C         -4.99190       -2.07910        1.73890
C         -4.40630       -2.86630        2.71690
C         -3.06000       -2.71200        3.00460
C         -2.30200       -1.77830        2.32470
C         -2.70360        1.21800        0.36620
C         -2.47360        1.84580       -0.85670
C         -3.05210        3.07100       -1.12680
C         -3.87200        3.68080       -0.19150
C         -4.10890        3.05630        1.02200
C         -3.52820        1.83500        1.30490
C          0.13870        0.70330        0.19150
C          1.42750        0.42230       -0.19240
O          4.03670       -0.14390       -0.97240
H          7.27710       -0.23750       -1.81810
H          5.90520       -2.66220       -1.89270
H          3.35790       -3.31250       -1.35310
H          1.10780       -2.90950       -0.72810
H         -1.18320       -2.40630       -0.04290
H         -4.69610       -0.53790        0.28180
H         -6.04010       -2.19530        1.50670
H         -4.99590       -3.59410        3.25310
H         -2.59790       -3.31600        3.77140
H         -1.25540       -1.64900        2.55870
H         -1.84400        1.36570       -1.59150
H         -2.86720        3.54830       -2.07750
H         -4.32410        4.63670       -0.40730
H         -4.74410        3.52650        1.75790
H         -3.70680        1.35220        2.25460
H         -0.13400        1.71310        0.45830
H          2.16390        1.21090       -0.22860
