27

C          3.00020        0.02670       -0.78600
C          1.84870       -0.33980       -0.85240
C          0.52130       -0.76700       -0.92940
N          0.07030       -1.78120       -1.62210
C         -1.26070       -1.80540       -1.38770
C         -1.59450       -0.77710       -0.53500
C         -2.84790       -0.33920        0.03640
C         -2.88400        0.77390        0.87820
C         -4.08050        1.19570        1.42370
C         -5.25430        0.51670        1.13960
C         -5.22610       -0.59000        0.30520
C         -4.03450       -1.01900       -0.24500
O         -0.44540       -0.11560       -0.24620
C          4.33260        0.43630       -0.71870
C          5.44580       -0.07560       -1.34760
C          6.53010        0.71780       -0.92140
C          6.00630        1.64740       -0.07150
O          4.68430        1.48860        0.05880
H         -1.88330       -2.54880       -1.84020
H         -1.96700        1.30030        1.09700
H         -4.09860        2.05830        2.07360
H         -6.18890        0.84830        1.56690
H         -6.14010       -1.12080        0.08310
H         -4.01630       -1.88090       -0.89370
H          5.46580       -0.90760       -2.02080
H          7.55680        0.61250       -1.20630
H          6.46000        2.44570        0.48220
