58

F          0.72690       -3.76630        1.83310
B         -0.12060       -3.37390        0.83400
F         -0.00690       -4.19660       -0.26800
O         -1.46180       -3.30710        1.33520
C         -2.33710       -2.55900        0.67530
C         -3.69620       -2.94670        0.67320
C         -4.61520       -2.22100       -0.01890
C         -4.22650       -1.10820       -0.80250
C         -5.15870       -0.42090       -1.60240
C         -4.77100        0.62340       -2.39630
C         -3.42300        0.99570       -2.44030
C         -2.49750        0.35580       -1.66000
C         -2.87110       -0.68880       -0.79360
C         -1.94520       -1.37330        0.05430
C         -0.58240       -0.91680        0.27610
C         -0.19580        0.43820        0.32650
C          1.15000        0.72700        0.04010
C          2.10600       -0.28790        0.10840
C          1.66530       -1.60560        0.28120
N          0.36270       -1.88510        0.34760
C          2.67350       -2.70720        0.21550
C          3.72090       -2.35180       -0.84370
C          4.37770       -1.06640       -0.44640
C          5.74780       -0.87730       -0.50270
C          6.31850        0.28780       -0.01850
C          5.51720        1.24940        0.57240
C          4.14610        1.07590        0.62300
C          3.55610       -0.05710        0.06770
C          1.42890        2.08960       -0.52310
C          0.82380        3.17840        0.34540
C         -0.60490        2.86780        0.69360
C         -1.43020        3.90940        1.09090
C         -2.71230        3.67480        1.54950
C         -3.15080        2.36800        1.67520
C         -2.34210        1.32370        1.27630
C         -1.08080        1.54730        0.71620
H         -3.96380       -3.83120        1.22870
H         -5.65690       -2.50720       -0.01010
H         -6.18920       -0.74540       -1.58580
H         -5.49200        1.14760       -3.00550
H         -3.11200        1.79150       -3.10120
H         -1.45860        0.63840       -1.73170
H          3.15290       -2.82480        1.19110
H          2.19080       -3.64800       -0.03330
H          4.45770       -3.15070       -0.92250
H          3.23050       -2.24620       -1.81650
H          6.37410       -1.65530       -0.91460
H          7.38760        0.42850       -0.06970
H          5.96090        2.13410        1.00440
H          3.53940        1.80590        1.13690
H          2.49060        2.25280       -0.69300
H          0.93460        2.11640       -1.50280
H          0.89110        4.14410       -0.15890
H          1.38540        3.26080        1.28400
H         -1.05080        4.92060        1.04730
H         -3.34780        4.49860        1.83670
H         -4.12440        2.15710        2.09060
H         -2.69130        0.31750        1.43170
