77

C          7.71350       -1.29400       -2.82090
C          7.70600       -1.03760       -1.31410
N          6.50950       -1.53940       -0.69490
C          6.33020       -2.81430       -0.21030
C          7.22480       -3.87340       -0.14610
C          6.78440       -5.06000        0.40810
C          5.48450       -5.20080        0.88830
C          4.58750       -4.15320        0.82470
C          5.00650       -2.95040        0.27260
C          4.36050       -1.68910        0.04140
C          3.08240       -1.21660        0.29280
C          2.76290        0.08700       -0.06450
C          1.43070        0.65000        0.18700
C          0.29140       -0.14440        0.31370
C         -0.91740        0.50510        0.56280
C         -2.19040       -0.20820        0.72170
C         -2.23230       -1.55760        1.09890
C         -3.42340       -2.23460        1.25680
C         -4.60710       -1.54340        1.03290
C         -4.58370       -0.17820        0.65590
C         -3.37770        0.48290        0.50580
C         -5.95480        0.22180        0.50680
C         -6.56960        1.41640        0.15820
C         -7.94850        1.45910        0.10320
C         -8.71180        0.32960        0.38950
C         -8.12280       -0.87050        0.73920
C         -6.73710       -0.92050        0.80040
N         -5.90870       -1.96820        1.13200
C         -6.33320       -3.31060        1.42260
C         -6.45080       -4.15260        0.15220
N         -0.97830        1.83090        0.65080
C          0.15840        2.51470        0.49810
N          0.09630        3.85880        0.62960
C          1.21590        4.69360        0.26900
C          0.99540        5.30550       -1.11670
C         -0.32630        6.07100       -1.14080
C         -1.47120        5.15140       -0.72050
C         -1.17240        4.54500        0.65280
N          1.36000        1.97490        0.27420
C          3.73460        0.90150       -0.66520
C          5.00940        0.45100       -0.92730
C          5.32700       -0.85350       -0.56880
H          6.86020       -0.80810       -3.28840
H          7.65360       -2.36140       -3.02080
H          8.62600       -0.90440       -3.26440
H          8.56760       -1.52260       -0.84710
H          7.77390        0.03590       -1.11670
H          8.23490       -3.78420       -0.51760
H          7.46290       -5.89850        0.46840
H          5.17880       -6.14520        1.31370
H          3.57950       -4.26300        1.19560
H          2.36180       -1.85400        0.78170
H          0.33850       -1.21060        0.17750
H         -1.30990       -2.08340        1.29330
H         -3.42330       -3.27400        1.55050
H         -3.33880        1.52200        0.22090
H         -5.97640        2.29050       -0.06460
H         -8.44770        2.37810       -0.16630
H         -9.78890        0.39280        0.33550
H         -8.73070       -1.73670        0.95450
H         -7.29900       -3.26630        1.93360
H         -5.60940       -3.76290        2.10610
H         -5.48950       -4.20430       -0.35390
H         -7.17360       -3.70730       -0.52760
H         -6.77370       -5.16100        0.39700
H          2.11500        4.07830        0.28970
H          1.30410        5.49130        1.01580
H          0.96660        4.50210       -1.85570
H          1.82550        5.96930       -1.36400
H         -0.51170        6.46950       -2.14050
H         -0.26780        6.91500       -0.44870
H         -1.57710        4.34290       -1.44680
H         -2.41110        5.70460       -0.68390
H         -1.93860        3.82630        0.94190
H         -1.11860        5.34080        1.40490
H          3.45080        1.90910       -0.92590
H          5.73280        1.09960       -1.39860
