41

C          1.06830        0.95210       -1.16780
C         -0.16650        0.64720       -0.73190
C         -1.27640        1.57930       -0.54470
C         -2.55710        1.26420       -0.99430
C         -3.59850        2.15550       -0.81850
C         -3.37880        3.37110       -0.19180
C         -2.10750        3.69630        0.25120
C         -1.06270        2.80880        0.07420
C         -0.24210       -0.80500       -0.51580
C         -1.40970       -1.51080        0.00800
C         -1.80610       -2.72520       -0.54720
C         -2.90740       -3.39750       -0.05140
C         -3.62510       -2.86990        1.00910
C         -3.23120       -1.66900        1.57580
C         -2.13260       -0.99240        1.08060
C          0.94550       -1.34850       -0.83600
C          1.90740       -0.28500       -1.27190
C          3.13360       -0.22750       -0.39320
C          4.40640       -0.39090       -0.92010
C          5.51860       -0.33440       -0.09690
C          5.36830       -0.11320        1.26040
C          4.09980        0.05070        1.79280
C          2.98950       -0.00640        0.97150
H          1.43830        1.92510       -1.43460
H         -2.73100        0.32160       -1.49240
H         -4.58720        1.90060       -1.17160
H         -4.19560        4.06360       -0.05020
H         -1.93100        4.64440        0.73870
H         -0.07210        3.05620        0.42850
H         -1.25140       -3.13010       -1.38150
H         -3.20930       -4.33550       -0.49480
H         -4.48760       -3.39400        1.39390
H         -3.78380       -1.25700        2.40770
H         -1.82430       -0.06070        1.53210
H          1.22820       -2.38170       -0.74910
H          2.22230       -0.44770       -2.30860
H          4.53280       -0.56370       -1.97990
H          6.50470       -0.46370       -0.51890
H          6.23590       -0.06890        1.90210
H          3.97620        0.22340        2.85200
H          1.99910        0.11910        1.38460
