76

C          0.92320        4.07780       -0.90250
C          0.94420        3.25470        0.38510
N          0.59730        1.86660        0.19900
C         -0.67700        1.38920        0.09850
C         -1.84560        2.27430        0.00410
C         -2.65260        2.48060        1.11430
C         -3.77380        3.28970        1.04690
C         -4.10980        3.91070       -0.15030
O         -5.18410        4.72780       -0.33480
C         -6.04980        4.95450        0.75010
C         -3.30930        3.69810       -1.27430
C         -2.19670        2.89010       -1.19700
C         -0.64840        0.00590        0.18910
C         -1.80150       -0.88090        0.08830
C         -1.83640       -2.10250        0.79910
C         -2.91610       -2.93260        0.72460
C         -4.04140       -2.59720       -0.05650
C         -5.17850       -3.42460       -0.14600
C         -6.25020       -3.05770       -0.91120
C         -6.23190       -1.84630       -1.62090
C         -5.14260       -1.02420       -1.55620
C         -4.01980       -1.37420       -0.77580
C         -2.88620       -0.54640       -0.69190
C          0.71480       -0.35690        0.36980
C          1.28210       -1.71170        0.46110
C          1.43880       -2.32880        1.72170
C          1.98620       -3.57390        1.82840
C          2.41060       -4.27690        0.68120
C          2.98430       -5.56220        0.75660
C          3.38630       -6.21510       -0.37490
C          3.23150       -5.61170       -1.63270
C          2.67790       -4.36660       -1.73800
C          2.25370       -3.66590       -0.58990
C          1.68450       -2.37900       -0.66610
C          1.45670        0.80740        0.36280
C          2.90650        0.93750        0.46820
C          3.60730        0.24760        1.45990
C          4.97730        0.33540        1.55010
C          5.70120        1.12090        0.65150
O          7.05240        1.14410        0.83370
C          7.83570        1.90460       -0.05170
C          5.01610        1.80800       -0.34290
C          3.63860        1.70890       -0.42870
H         -0.09660        4.24920       -1.23360
H          1.39440        5.04090       -0.72360
H          1.46410        3.56950       -1.69660
H          0.23900        3.69550        1.09890
H          1.94530        3.28380        0.82340
H         -2.40300        1.99510        2.04650
H         -4.37620        3.42320        1.93160
H         -5.53380        5.44700        1.58110
H         -6.83020        5.61300        0.37190
H         -6.50300        4.02290        1.10430
H         -3.59060        4.17420       -2.20070
H         -1.60560        2.70590       -2.08300
H         -0.99480       -2.37530        1.41530
H         -2.92490       -3.86390        1.27430
H         -5.18750       -4.35590        0.40340
H         -7.11970       -3.69620       -0.97580
H         -7.08900       -1.57110       -2.21890
H         -5.12350       -0.08880       -2.09840
H         -2.88180        0.36780       -1.26530
H          1.11330       -1.79660        2.60620
H          2.10430       -4.04050        2.79680
H          3.10100       -6.02260        1.72790
H          3.82600       -7.19990       -0.31020
H          3.55460       -6.14190       -2.51710
H          2.55630       -3.89820       -2.70460
H          1.56810       -1.91500       -1.63550
H          3.06620       -0.35770        2.16900
H          5.51920       -0.19680        2.31590
H          7.73660        1.55040       -1.08310
H          8.86560        1.77120        0.27590
H          7.57790        2.96820       -0.00650
H          5.54070        2.41660       -1.06310
H          3.13180        2.22630       -1.22870
