44

C          5.17770       -0.37830        0.58380
C          4.10820       -1.44320        0.75850
O          2.85960       -0.92380        0.29150
C          1.81920       -0.95850        1.11390
O          1.78880       -1.51200        2.18330
C          0.67560       -0.19380        0.52330
C          0.78040        1.15170        0.35070
C         -0.31430        1.87200       -0.19130
C          0.02080        3.23140       -0.27200
C         -0.90080        4.11660       -0.78020
C         -2.13460        3.58930       -1.18680
C         -2.45700        2.24950       -1.09980
C         -1.52770        1.32930       -0.58370
C         -1.66240       -0.09940       -0.39840
C         -2.81910       -0.77720       -0.73570
C         -2.95790       -2.15760       -0.55270
C         -4.14360       -2.84860       -0.89410
C         -4.24560       -4.19460       -0.69810
C         -3.16970       -4.92090       -0.15170
C         -2.01100       -4.28760        0.18780
C         -1.86940       -2.89210       -0.00120
C         -0.69640       -2.21220        0.33560
C         -0.55950       -0.84200        0.15900
N          1.30760        3.37650        0.22200
C          2.01920        4.61970        0.33180
C          1.83260        2.16150        0.63190
O          2.93200        2.02650        1.12390
H          5.34020       -0.17700       -0.47190
H          4.85130        0.54080        1.06410
H          6.10850       -0.71340        1.03250
H          4.33220       -2.33740        0.16720
H          3.99620       -1.72340        1.81090
H         -0.70250        5.17320       -0.86880
H         -2.86900        4.27300       -1.58750
H         -3.43000        1.92350       -1.43180
H         -3.65260       -0.23290       -1.15410
H         -4.96750       -2.28780       -1.31190
H         -5.15430       -4.71680       -0.95940
H         -3.27420       -5.98570       -0.00470
H         -1.18160       -4.83690        0.60910
H          0.12140       -2.77420        0.76110
H          2.15780        5.07280       -0.65240
H          2.99240        4.40200        0.77090
H          1.47910        5.31780        0.97530
