106

C         -6.76490        9.27430        0.03330
N         -7.38100        7.97920        0.17260
C         -8.81160        7.92090        0.33110
C         -6.62870        6.83360        0.12870
C         -7.22950        5.57040        0.00970
C         -6.47270        4.42220       -0.03080
C         -5.07860        4.47690        0.04230
C         -4.30580        3.30350       -0.00240
C         -3.63140        2.29940       -0.04000
C         -2.86280        1.12350       -0.08910
C         -3.50080       -0.10410       -0.23300
C         -2.77810       -1.29120       -0.28850
C         -3.46350       -2.50980       -0.43410
C         -4.06660       -3.55150       -0.55910
C         -4.75620       -4.76800       -0.70320
C         -6.14700       -4.79570       -0.82750
C         -6.82300       -5.98610       -0.96800
C         -6.14120       -7.21290       -0.99520
N         -6.80820       -8.40210       -1.16960
C         -6.11620       -9.64980       -0.95660
C         -8.24880       -8.42320       -1.21360
C         -4.74380       -7.17610       -0.86430
C         -4.07000       -5.98470       -0.72410
C         -1.36590       -1.26640       -0.19980
C         -0.59170       -2.45290       -0.25550
C          0.76270       -2.41240       -0.16960
C          1.45170       -1.18250       -0.01980
C          2.86280       -1.12340        0.07160
C          3.63200       -2.29830        0.00980
C          4.30760       -3.30080       -0.04490
C          5.08190       -4.47210       -0.11270
C          6.47310       -4.42130        0.00560
C          7.23190       -5.56660       -0.06500
C          6.63590       -6.82330       -0.25520
N          7.39160       -7.96530       -0.32630
C          8.78260       -7.95820        0.04860
C          6.81690       -9.20900       -0.77150
C          5.23760       -6.86650       -0.37050
C          4.48130       -5.71930       -0.30250
C          3.50050        0.10360        0.22200
C          2.77740        1.29030        0.28330
C          3.46180        2.50820        0.43850
C          4.06500        3.54830        0.57540
C          4.75430        4.76280        0.73740
C          6.14820        4.79140        0.82650
C          6.82300        5.97910        0.99010
C          6.13630        7.20100        1.06970
N          6.80740        8.38560        1.23210
C          6.09950        9.59890        1.55210
C          8.24030        8.44870        1.09640
C          4.73600        7.16420        0.97630
C          4.06340        5.97480        0.81590
C          1.36530        1.26570        0.19110
C          0.59130        2.45230        0.24570
C         -0.76280        2.41220        0.15590
C         -1.45190        1.18230        0.00550
C         -0.70800       -0.02120       -0.05160
C          0.70770        0.02080        0.04020
C         -4.47300        5.73070        0.15960
C         -5.22760        6.88020        0.20320
H         -6.26800        9.59300        0.95770
H         -6.02810        9.26500       -0.77290
H         -7.52570       10.01090       -0.21780
H         -9.31840        7.64510       -0.60210
H         -9.17950        8.89570        0.64580
H         -9.08220        7.19620        1.10180
H         -8.30140        5.48330       -0.06830
H         -6.95890        3.46170       -0.12680
H         -4.57920       -0.13620       -0.30320
H         -6.69730       -3.86570       -0.80860
H         -7.89710       -5.95510       -1.05170
H         -6.81900      -10.47460       -1.04550
H         -5.33510       -9.79170       -1.70850
H         -5.65650       -9.69720        0.03720
H         -8.61340       -7.77550       -2.01390
H         -8.69900       -8.09820       -0.26720
H         -8.58880       -9.43480       -1.42480
H         -4.17040       -8.08860       -0.87570
H         -2.99360       -5.98710       -0.62680
H         -1.11190       -3.39330       -0.36910
H          1.34790       -3.31990       -0.21270
H          6.95590       -3.46500        0.14860
H          8.30390       -5.47980        0.01250
H          8.92930       -7.38540        0.96660
H          9.11100       -8.97900        0.23560
H          9.41750       -7.52960       -0.73660
H          7.61370       -9.88800       -1.06970
H          6.17450       -9.04510       -1.63900
H          6.22590       -9.69400        0.01520
H          4.73170       -7.80990       -0.49930
H          3.40580       -5.78060       -0.39130
H          4.57890        0.13580        0.29210
H          6.69980        3.86360        0.77180
H          7.89780        5.95300        1.07230
H          5.59180       10.02050        0.67590
H          6.80290       10.33890        1.92900
H          5.35590        9.41620        2.33100
H          8.75420        8.04390        1.97700
H          8.54560        9.48540        0.96840
H          8.56750        7.89180        0.21560
H          4.16410        8.07750        1.01450
H          2.98500        5.97480        0.74390
H          1.11140        3.39250        0.36060
H         -1.34800        3.31980        0.19750
H         -3.39590        5.79430        0.22220
H         -4.72010        7.82530        0.31230
