39

C         -3.57710       -3.27340       -0.52960
O         -3.88980       -1.90990       -0.38870
C         -2.86490       -1.00580       -0.26010
C         -1.52860       -1.38020       -0.29990
C         -0.51400       -0.43510       -0.18580
C          0.86950       -0.84220       -0.23190
C          1.48430       -2.06580       -0.38290
N          2.82480       -1.89750       -0.35680
C          3.01320       -0.61530       -0.19520
C          4.28890        0.05440       -0.10410
C          4.37740        1.43510        0.08070
C          5.63620        2.00460        0.16010
N          6.76010        1.31340        0.07040
C          6.67340        0.00420       -0.10540
C          5.47410       -0.67820       -0.19950
O          1.85790        0.07890       -0.11290
C         -0.83990        0.91170       -0.02840
C         -2.16480        1.30000        0.02120
O         -2.59000        2.58260        0.17870
C         -1.62310        3.59720        0.28970
C         -3.20230        0.34680       -0.08950
O         -4.44520        0.89250       -0.03320
C         -5.59700        0.09350        0.10400
H         -3.02630       -3.65440        0.33630
H         -3.00400       -3.46520       -1.44220
H         -4.53770       -3.78260       -0.59610
H         -1.25870       -2.41360       -0.42720
H          1.05560       -3.03820       -0.50660
H          3.48540        2.03640        0.15930
H          5.75570        3.07080        0.30390
H          7.61850       -0.51850       -0.17300
H          5.43060       -1.74520       -0.34240
H         -0.04370        1.63150        0.05720
H         -0.98420        3.45290        1.16750
H         -0.99890        3.66050       -0.60770
H         -2.18400        4.52350        0.40280
H         -5.53090       -0.56620        0.97170
H         -6.41300        0.80170        0.24830
H         -5.78720       -0.50450       -0.78920
