78

O          2.04760        2.80530       -3.10180
C          1.68880        1.95480       -2.31010
C          0.25880        1.74410       -1.98110
C         -0.26140        0.47530       -1.72730
C         -1.58950        0.32460       -1.39170
C         -2.42880        1.43480       -1.28720
C         -3.82890        1.28400       -0.86340
C         -4.16620        0.52700        0.20560
C         -3.15090       -0.04020        1.10970
C         -2.09860        0.73910        1.58790
C         -1.14910        0.19430        2.43070
C         -1.23640       -1.13400        2.81460
C         -2.29070       -1.91040        2.36350
C         -3.24480       -1.36740        1.52360
C         -5.56240        0.21070        0.54520
C         -6.46420       -0.20200       -0.43400
C         -7.76680       -0.51650       -0.09820
C         -8.19010       -0.42510        1.21790
C         -7.29800       -0.02890        2.20030
C         -5.99210        0.27940        1.86920
C         -4.81810        2.02410       -1.66320
C         -4.73220        2.02170       -3.05410
C         -5.64710        2.72470       -3.81500
C         -6.65150        3.45250       -3.19900
C         -6.73240        3.47780       -1.81620
C         -5.82390        2.77080       -1.05240
C         -1.92130        2.69380       -1.60820
C         -0.59520        2.84510       -1.95450
C          2.66740        1.08790       -1.60630
C          2.42390        0.56520       -0.33660
C          3.37750       -0.20750        0.29400
C          4.59700       -0.46970       -0.32950
N          5.56110       -1.25390        0.30790
C          5.99850       -1.10280        1.61160
C          5.64430       -0.15470        2.56050
C          6.26680       -0.21100        3.79320
C          7.22730       -1.17770        4.08050
C          7.60450       -2.10610        3.13090
C          6.99270       -2.06930        1.88510
C          7.15440       -2.84190        0.68480
C          7.95590       -3.92500        0.34950
C          7.84670       -4.46090       -0.91810
C          6.93980       -3.94140       -1.83860
C          6.13140       -2.86450       -1.52740
C          6.25740       -2.30310       -0.26490
C          4.85080        0.06540       -1.59240
C          3.89670        0.83940       -2.21640
H          0.37400       -0.39440       -1.81210
H         -1.98850       -0.66140       -1.20490
H         -2.03540        1.77940        1.30340
H         -0.33920        0.81020        2.79480
H         -0.49050       -1.55980        3.46940
H         -2.36970       -2.94400        2.66780
H         -4.06470       -1.97580        1.16850
H         -6.13440       -0.28600       -1.45910
H         -8.45530       -0.83710       -0.86630
H         -9.21010       -0.66730        1.47740
H         -7.62100        0.03850        3.22910
H         -5.29690        0.59060        2.63630
H         -3.94940        1.45280       -3.53610
H         -5.57500        2.70670       -4.89280
H         -7.36510        4.00300       -3.79400
H         -7.50600        4.05450       -1.33040
H         -5.88230        2.80320        0.02560
H         -2.57230        3.55510       -1.56190
H         -0.19210        3.81920       -2.18870
H          1.49000        0.77270        0.16500
H          3.17720       -0.62850        1.26780
H          4.91830        0.61410        2.34330
H          6.00530        0.51490        4.54910
H          7.68870       -1.18980        5.05670
H          8.36310       -2.84350        3.34520
H          8.64520       -4.33830        1.07010
H          8.46340       -5.30090       -1.20110
H          6.86330       -4.39210       -2.81710
H          5.41820       -2.48420       -2.24300
H          5.80630       -0.11050       -2.06290
H          4.08630        1.27060       -3.18810
