48

N          0.19810       -1.31630        3.59420
C          0.69910       -0.85750        2.67040
C          1.30040       -0.29010        1.52300
C          0.61890       -0.06830        0.36880
C         -0.74900       -0.37250        0.10540
C         -1.63090       -1.18150        0.81190
N         -2.78120       -1.23060        0.11360
C         -3.96370       -1.91430        0.42860
C         -5.04970       -1.79270       -0.43440
C         -6.22870       -2.45530       -0.15400
C         -6.33420       -3.24080        0.98250
C         -5.25300       -3.35940        1.83980
C         -4.06670       -2.70080        1.57160
N         -2.70900       -0.50640       -1.00430
C         -1.50430        0.03150       -1.04260
C         -1.11450        0.90150       -2.13970
C         -1.60260        0.63330       -3.42190
C         -1.24900        1.43240       -4.48640
C         -0.40080        2.51440       -4.27200
N         -0.02000        3.34750       -5.38170
O          0.72220        4.28100       -5.15770
O         -0.46450        3.06750       -6.47540
C          0.07430        2.81070       -2.99950
C         -0.28650        2.00830       -1.93740
C          2.69130        0.05200        1.67870
N          3.36990       -0.16120        2.74530
C          4.65650        0.25590        2.64080
C          5.63100        0.15730        3.63180
C          6.89710        0.63030        3.36620
C          7.21070        1.19960        2.13220
C          6.26250        1.30930        1.13400
C          4.98800        0.83640        1.39290
S          3.59900        0.83210        0.35420
H          1.16830        0.37760       -0.45100
H         -1.48090       -1.70740        1.72970
H         -4.94750       -1.17500       -1.31190
H         -7.06830       -2.35730       -0.82510
H         -7.25570       -3.75830        1.20040
H         -5.33040       -3.96930        2.72690
H         -3.23710       -2.80440        2.25220
H         -2.25760       -0.21200       -3.56010
H         -1.61210        1.23780       -5.48390
H          0.71420        3.66900       -2.86280
H          0.04780        2.26000       -0.94280
H          5.37240       -0.28510        4.58010
H          7.66250        0.56060        4.12420
H          8.21160        1.56150        1.95250
H          6.50240        1.74940        0.17870
