74

O          3.53710        2.04830       -1.21530
C          4.15370        0.95520       -0.65260
C          3.35090       -0.06110       -0.11710
C          1.90810       -0.02660       -0.09580
N          1.15820       -1.00320        0.37640
C         -0.12650       -0.58840        0.22820
C         -1.33200       -1.26090        0.57290
C         -1.31810       -2.53650        1.14780
C         -2.48820       -3.17270        1.46930
C         -3.71740       -2.54340        1.22810
C         -4.97740       -3.21840        1.57360
C         -6.02250       -2.51580        2.16940
C         -7.20480       -3.15280        2.49670
C         -7.36580       -4.50230        2.23130
C         -6.33450       -5.21110        1.63810
C         -5.15000       -4.57630        1.31430
C         -3.73250       -1.28120        0.66200
C         -2.55850       -0.60060        0.31600
C         -2.57450        0.72660       -0.27780
C         -3.76190        1.42200       -0.53000
C         -3.77960        2.68570       -1.09390
C         -5.05390        3.37860       -1.33220
C         -5.26420        4.09840       -2.50630
C         -6.46260        4.75040       -2.72870
C         -7.47050        4.69920       -1.78040
C         -7.27210        3.98920       -0.60810
C         -6.07590        3.33330       -0.38610
C         -2.56630        3.30000       -1.43160
C         -1.38120        2.65500       -1.19450
C         -1.35910        1.37590       -0.62060
C         -0.15690        0.68050       -0.35130
N          1.15060        1.01710       -0.54940
C          3.99250       -1.17180        0.43120
C          5.36040       -1.30690        0.44040
C          6.16450       -0.28680       -0.10300
C          5.54280        0.86130       -0.62630
C          6.36960        2.00610       -1.17060
C          7.80480        1.92790       -0.66870
C          8.32350        0.51390       -0.87660
N          7.53510       -0.39580       -0.08490
C          8.14670       -1.65770        0.25500
C          7.41800       -2.28410        1.43490
C          5.97800       -2.54990        1.02340
H          4.20140        2.62270       -1.61160
H         -0.35830       -2.99520        1.32830
H         -2.47150       -4.15020        1.92890
H         -5.89630       -1.46680        2.39650
H         -8.00410       -2.59530        2.96400
H         -8.29030       -4.99940        2.48630
H         -6.45550       -6.26370        1.42550
H         -4.35550       -5.13140        0.83680
H         -4.69420       -0.83330        0.46620
H         -4.71130        0.96410       -0.30170
H         -4.48880        4.12850       -3.25840
H         -6.61280        5.29980       -3.64710
H         -8.40590        5.21070       -1.95390
H         -8.05290        3.94940        0.13780
H         -5.92040        2.79720        0.53910
H         -2.57050        4.29320       -1.85640
H         -0.44520        3.13430       -1.44570
H          1.52320        1.86040       -0.95140
H          3.36620       -1.94590        0.84460
H          5.94870        2.96620       -0.85130
H          6.36900        1.98180       -2.26770
H          8.43420        2.64580       -1.19610
H          7.83350        2.15820        0.39770
H          9.36450        0.44000       -0.54950
H          8.28510        0.25310       -1.94670
H          9.19290       -1.46550        0.51310
H          8.13200       -2.35060       -0.60140
H          7.43930       -1.58870        2.27590
H          7.91610       -3.20670        1.73460
H          5.38780       -2.88270        1.87860
H          5.95220       -3.35090        0.27750
