104

C          3.74880        0.60090       -0.40210
C          2.84670       -0.27940        0.05720
C          1.40730       -0.14010       -0.05380
C          0.80140        1.11150       -0.15520
C         -0.57360        1.27120       -0.20310
C         -1.12600        2.63500       -0.26280
C         -2.10770        3.05200        0.63310
C         -2.60860        4.33950        0.57650
C         -2.13730        5.22970       -0.37410
C         -1.15620        4.82710       -1.26470
C         -0.65130        3.54130       -1.20750
C         -1.40660        0.13680       -0.15220
C         -2.84690        0.27460       -0.25590
C         -3.74240       -0.59690        0.23220
C         -5.18270       -0.47990        0.15500
C         -5.97530       -1.53660        0.61700
C         -7.34980       -1.48240        0.56990
C         -7.99450       -0.35190        0.06500
N         -9.38840       -0.28600        0.02230
C        -10.14810       -0.86830        1.04400
C        -11.34920       -1.51410        0.75180
C        -12.09750       -2.08280        1.76400
C        -11.66070       -2.02560        3.07730
C        -10.46650       -1.38860        3.37250
C         -9.71510       -0.80960        2.36860
C        -10.03000        0.36230       -1.03920
C        -11.18970        1.10450       -0.81680
C        -11.82330        1.73740       -1.86840
C        -11.31070        1.64970       -3.15240
C        -10.15680        0.91710       -3.37800
C         -9.52060        0.27340       -2.33470
C         -7.21440        0.71350       -0.39050
C         -5.84020        0.64760       -0.34830
C         -0.80080       -1.11500       -0.05190
C          0.57420       -1.27450       -0.00400
C          1.12640       -2.63830        0.06030
C          0.65680       -3.53810        1.01350
C          1.16330       -4.82300        1.07800
C          2.14080       -5.23100        0.18590
C          2.60660       -4.34750       -0.77360
C          2.10440       -3.06080       -0.83720
C          5.18790        0.48020       -0.30520
C          5.83640       -0.66160        0.17700
C          7.20950       -0.72640        0.24800
C          7.99690        0.35080       -0.16400
N          9.39020        0.28540       -0.09260
C         10.05030       -0.91920       -0.36010
C          9.58230       -1.77570       -1.35660
C         10.23550       -2.96480       -1.61520
C         11.36590       -3.31610       -0.89580
C         11.83750       -2.46690        0.09190
C         11.18630       -1.27970        0.36420
C         10.12700        1.42640        0.24510
C         11.35520        1.68210       -0.36420
C         12.08030        2.80710       -0.02300
C         11.59320        3.69720        0.92010
C         10.37170        3.45010        1.52510
C          9.64300        2.32370        1.19700
C          7.36160        1.49380       -0.65250
C          5.98810        1.55030       -0.72090
H          3.40560        1.49370       -0.90990
H          3.18280       -1.18350        0.54560
H          1.42050        1.99660       -0.14770
H         -2.46740        2.36370        1.38470
H         -3.36980        4.64980        1.27780
H         -2.53190        6.23410       -0.41940
H         -0.78480        5.51790       -2.00800
H          0.10460        3.22430       -1.91190
H         -3.18780        1.16960       -0.75770
H         -3.39000       -1.47710        0.75550
H         -5.49600       -2.42330        1.00790
H         -7.93870       -2.31750        0.92050
H        -11.68710       -1.56830       -0.27280
H        -13.02480       -2.58190        1.52360
H        -12.24680       -2.47410        3.86510
H        -10.12080       -1.33390        4.39440
H         -8.78930       -0.30440        2.60220
H        -11.58620        1.18280        0.18500
H        -12.71970        2.31040       -1.68170
H        -11.80700        2.14840       -3.97100
H         -9.75270        0.83830       -4.37660
H         -8.62700       -0.30600       -2.51520
H         -7.70100        1.59990       -0.77100
H         -5.26880        1.49510       -0.69480
H         -1.42040       -1.99990       -0.05880
H         -0.09630       -3.21650        1.71890
H          0.79610       -5.50850        1.82820
H          2.53680       -6.23460        0.23710
H          3.36500       -4.66230       -1.47590
H          2.46030       -2.37730       -1.59490
H          5.25910       -1.51350        0.50200
H          7.68910       -1.61590        0.63020
H          8.70730       -1.49900       -1.92640
H          9.86360       -3.61780       -2.39120
H         11.87580       -4.24470       -1.10330
H         12.71520       -2.73470        0.66170
H         11.55030       -0.62410        1.14180
H         11.73260        0.99480       -1.10730
H         13.02910        2.99420       -0.50400
H         12.16140        4.57690        1.18180
H          9.98640        4.13540        2.26580
H          8.69580        2.12750        1.67770
H          7.95760        2.33170       -0.98410
H          5.51570        2.44220       -1.10830
