31

N          0.96690       -0.89780       -3.16240
C          0.70580       -0.56060       -2.09740
C          0.47450       -0.14480       -0.76600
C         -0.74040        0.09890       -0.20780
C         -2.05760        0.00830       -0.78310
C         -2.31330       -0.37060       -2.10910
C         -3.60470       -0.43250       -2.58550
C         -4.66490       -0.11600       -1.74270
N         -6.01520       -0.18050       -2.24140
O         -6.91060        0.10610       -1.47500
O         -6.17330       -0.51690       -3.39540
C         -4.43960        0.26280       -0.42300
C         -3.14760        0.32260        0.04670
C          1.67150        0.02090        0.03010
N          1.67150        0.39280        1.26220
C          2.92310        0.47080        1.77600
C          3.25040        0.84450        3.07970
C          4.57630        0.87380        3.44720
C          5.58480        0.53840        2.54190
C          5.28740        0.16550        1.24690
C          3.95570        0.13260        0.86670
S          3.27070       -0.28930       -0.66960
H         -0.70410        0.40860        0.82940
H         -1.49740       -0.61680       -2.76750
H         -3.81070       -0.72290       -3.60430
H         -5.28200        0.50260        0.20770
H         -2.96420        0.61560        1.06940
H          2.46190        1.10110        3.76850
H          4.84540        1.16100        4.45230
H          6.61560        0.57100        2.86010
H          6.06460       -0.09430        0.54550
