66

C         -2.86110        4.31930        0.26380
C         -2.78030        3.41630        1.48630
O         -2.93220        2.04550        1.11860
C         -1.81300        1.38830        0.77050
O         -0.71070        1.87900        0.81450
C         -2.11850        0.02570        0.33740
C         -1.21890       -1.04030        0.03780
C          0.23460       -1.06420        0.13960
C          1.02860       -0.10860       -0.40020
C          2.44470       -0.19320       -0.27400
C          3.33110        0.74750       -0.80630
C          4.69500        0.62200       -0.66540
C          5.21030       -0.48580        0.03470
C          4.34570       -1.44120        0.56010
C          2.97560       -1.29940        0.41220
O          2.17580       -2.24700        0.95060
C          0.81150       -2.19640        0.87420
O          0.18570       -3.06360        1.42740
O          6.52530       -0.71010        0.22300
C          7.45230        0.33320       -0.09910
C          8.80060       -0.36390       -0.28170
C          7.52100        1.31280        1.07720
C          7.02820        1.02760       -1.39810
C          5.63550        1.63330       -1.26010
N         -1.89640       -2.10330       -0.33350
N         -3.19140       -1.79390       -0.28370
C         -4.13280       -2.75600       -0.67650
C         -5.45000       -2.72990       -0.23470
C         -6.33330       -3.70280       -0.66920
C         -5.92020       -4.70730       -1.52600
C         -4.59600       -4.73620       -1.93940
Cl        -4.05930       -5.98990       -2.99350
C         -3.69760       -3.77030       -1.52470
C         -3.38100       -0.51730        0.12870
C         -4.69160        0.19050        0.18570
O         -5.19810        0.71940       -0.76760
O         -5.21830        0.13830        1.40620
C         -6.48630        0.77460        1.59610
C         -6.32960        2.25480        1.90220
H         -2.01700        4.12930       -0.39460
H         -2.83940        5.36000        0.57460
H         -3.78080        4.12810       -0.28420
H         -3.59450        3.62310        2.18330
H         -1.81690        3.54230        1.99120
H          0.60290        0.72550       -0.93630
H          2.92670        1.59460       -1.34080
H          4.74850       -2.29010        1.08680
H          9.58090        0.36990       -0.46110
H          8.75720       -1.05110       -1.12260
H          9.04280       -0.93150        0.61250
H          6.52980        1.67990        1.33090
H          8.16160        2.15500        0.83010
H          7.92560        0.80620        1.94990
H          7.01760        0.28070       -2.19560
H          7.75870        1.79400       -1.65750
H          5.67130        2.52430       -0.62670
H          5.26530        1.94900       -2.23770
H         -5.78380       -1.98040        0.46140
H         -7.35640       -3.68230       -0.32730
H         -6.60940       -5.46460       -1.86310
H         -2.66510       -3.79070       -1.83260
H         -6.94390        0.24410        2.43440
H         -7.08740        0.63680        0.69010
H         -5.71590        2.38870        2.78880
H         -5.85640        2.75540        1.06230
H         -7.30720        2.69620        2.07410
