37

C         -6.22440       -1.50510        0.73750
N         -5.59390       -0.56170       -0.15140
C         -6.43250        0.21290       -1.03180
C         -4.23580       -0.40400       -0.15920
C         -3.59620        0.36370       -1.14850
C         -2.23140        0.52300       -1.15560
C         -1.43390       -0.07760       -0.17550
C         -0.04240        0.09320       -0.19480
C          1.15870        0.24500       -0.21840
C          2.54370        0.44190       -0.27530
C          3.41010       -0.09260        0.63040
C          4.81040        0.14510        0.51640
C          5.75920       -0.37060        1.40870
C          7.09700       -0.10070        1.23800
C          7.52250        0.69000        0.17340
C          6.60970        1.21080       -0.72010
C          5.25460        0.94150       -0.55290
O          4.38840        1.47080       -1.45090
C          3.03930        1.27280       -1.38480
O          2.34990        1.78530       -2.22960
C         -2.06020       -0.84380        0.81210
C         -3.42580       -1.00280        0.82140
H         -6.24230       -1.14160        1.77160
H         -7.25000       -1.67420        0.41650
H         -5.70330       -2.46470        0.71360
H         -7.46680        0.13960       -0.70270
H         -6.14660        1.26680       -1.00790
H         -6.37380       -0.14260       -2.06710
H         -4.17190        0.83020       -1.93090
H         -1.75790        1.11320       -1.92610
H          3.04290       -0.70210        1.44400
H          5.41910       -0.98270        2.23100
H          7.82170       -0.50200        1.93010
H          8.57380        0.89770        0.04530
H          6.91830        1.82520       -1.55080
H         -1.45990       -1.31140        1.57940
H         -3.86980       -1.58830        1.61020
