21

C         -2.27790        1.26930       -0.28090
N         -1.57150        0.07320        0.10600
C         -2.32770       -1.05760        0.58460
C         -0.21130        0.01010        0.01480
C          0.49890       -1.12150        0.45560
C          1.86910       -1.18450        0.36430
C          2.59680       -0.11950       -0.17130
C          3.99930       -0.18390       -0.26400
N          5.14420       -0.23590       -0.34020
C          1.90560        1.01080       -0.61320
C          0.53540        1.07420       -0.52310
H         -3.33270        1.16200       -0.04070
H         -2.18960        1.45690       -1.35630
H         -1.89630        2.14080        0.25850
H         -2.11330       -1.26530        1.63820
H         -2.10480       -1.95420       -0.00080
H         -3.39060       -0.85050        0.48920
H         -0.02380       -1.96190        0.88120
H          2.39250       -2.06390        0.71100
H          2.45720        1.84050       -1.03130
H          0.04050        1.96130       -0.88180
