41

C         -4.39490       -1.81730       -1.10880
C         -4.20280       -0.34330       -1.47070
N         -3.60060        0.44180       -0.41540
C         -4.49270        1.02260        0.56640
C         -4.53420        0.24510        1.88330
C         -2.24600        0.47740       -0.24890
C         -1.64760        1.30590        0.73170
C         -0.29030        1.37160        0.88710
C          0.57230        0.61430        0.08240
C          1.98490        0.61810        0.18990
C          2.75420       -0.15510       -0.62770
C          4.20630       -0.18870       -0.52640
C          5.04450       -0.47900       -1.55680
S          6.71290       -0.42450       -1.11020
C          6.30050       -0.00940        0.52110
N          7.26240        0.25360        1.45120
C          4.93330        0.08410        0.68820
C          4.39160        0.34410        1.95020
N          4.01490        0.54580        3.01860
C          2.11630       -0.98680       -1.64880
O          2.69100       -1.69870       -2.43970
O          0.75270       -0.96670       -1.71390
C         -0.01340       -0.20740       -0.89420
C         -1.38570       -0.27900       -1.05550
H         -4.75540       -2.36560       -1.97520
H         -5.12220       -1.92510       -0.30840
H         -3.45600       -2.25660       -0.78280
H         -5.17530        0.09900       -1.70510
H         -3.58660       -0.25700       -2.36860
H         -4.20320        2.06080        0.75740
H         -5.49480        1.04410        0.13320
H         -3.54190        0.17370        2.32020
H         -5.19130        0.74920        2.58740
H         -4.90760       -0.76240        1.72240
H         -2.25970        1.91560        1.37400
H          0.13780        2.01140        1.64430
H          2.43930        1.25740        0.93260
H          4.78360       -0.72580       -2.56420
H          8.18550       -0.10760        1.27890
H          6.96380        0.26700        2.41420
H         -1.74590       -0.94700       -1.81790
