79

C         -0.92070       -5.76350        5.52460
C          0.03730       -4.59360        5.72000
C         -0.13800       -3.49280        4.67430
C          0.30310       -3.93800        3.27600
N          0.25020       -2.82670        2.34630
C          1.34510       -2.53460        1.54230
C          2.23650       -3.52740        1.12780
C          3.32970       -3.22510        0.34480
C          3.58660       -1.91960       -0.08300
C          4.75700       -1.65840       -0.88960
C          5.16860       -0.46220       -1.33820
C          6.36500       -0.25840       -2.13270
C          7.43820       -1.09050       -2.03940
C          8.65800       -0.90040       -2.78850
O          9.62310       -1.62490       -2.74350
O          8.71610        0.20030       -3.60310
C          7.67190        1.04820       -3.72970
C          7.84480        2.12090       -4.60270
C          6.82660        3.02870       -4.81610
C          7.00500        4.19120       -5.74010
C          5.61460        2.84360       -4.14480
C          5.43680        1.79210       -3.27840
C          6.46460        0.87270       -3.03440
C          2.67450       -0.93100        0.29720
C          1.58800       -1.23200        1.09010
S          0.51860        0.09440        1.57640
C         -0.98840       -0.82450        1.74030
C         -2.17710       -0.16360        1.51710
C         -3.40500       -0.80690        1.69750
C         -4.68150       -0.15860        1.50030
C         -4.88260        1.10500        1.09500
C         -6.19240        1.70600        0.92860
C         -7.26160        1.30950        1.67160
C         -8.57130        1.90760        1.55990
O         -9.54500        1.57580        2.19240
O         -8.70310        2.94110        0.66940
C         -7.66960        3.36060       -0.09310
C         -7.93250        4.40640       -0.97620
C         -6.94570        4.88870       -1.81280
C         -7.21260        6.01670       -2.75810
C         -5.67870        4.30010       -1.76120
C         -5.40890        3.27220       -0.89040
C         -6.39210        2.78240       -0.02170
C         -3.37250       -2.14700        2.09290
C         -2.18320       -2.81100        2.30260
C         -0.95470       -2.16580        2.13950
H         -0.71210       -6.29680        4.60050
H         -0.82330       -6.46850        6.34650
H         -1.94980       -5.41160        5.49810
H         -0.13690       -4.15830        6.70600
H          1.06710       -4.95710        5.69780
H          0.46680       -2.62820        4.95850
H         -1.18110       -3.17360        4.65760
H         -0.30170       -4.78050        2.92380
H          1.34030       -4.26820        3.34290
H          2.06510       -4.55460        1.40900
H          4.00030       -4.01970        0.05230
H          5.32680       -2.53960       -1.15490
H          4.59500        0.42320       -1.11060
H          7.44510       -1.93270       -1.36660
H          8.79340        2.21470       -5.10790
H          7.03070        5.11960       -5.16960
H          6.17240        4.25490       -6.43860
H          7.93130        4.10530       -6.30100
H          4.80640        3.53960       -4.31450
H          4.48390        1.67040       -2.78820
H          2.81040        0.09460       -0.00630
H         -2.13260        0.87330        1.22520
H         -5.54120       -0.79100        1.68110
H         -4.03880        1.73800        0.86680
H         -7.17650        0.53580        2.41740
H         -8.92880        4.82020       -0.98890
H         -6.64610        6.89760       -2.45730
H         -6.89980        5.75050       -3.76640
H         -8.26820        6.27250       -2.77210
H         -4.90290        4.66080       -2.42030
H         -4.42520        2.83030       -0.88640
H         -4.30160       -2.67930        2.23520
H         -2.21100       -3.84950        2.58990
