45

C          3.05710        4.06900       -1.08540
C          2.98580        2.59310       -0.83560
O          3.79180        1.94030       -0.22810
O          1.89680        2.05550       -1.41830
C          1.73480        0.65530       -1.29260
C          1.27110        0.26370        0.12230
O          0.10990        0.98670        0.49720
C         -1.03430        0.16310        0.50140
C         -2.19570        0.85950       -0.26970
C         -1.79640        1.16100       -1.67070
C         -1.30170        2.35260       -2.01520
C         -1.25030        3.43540       -1.06820
S         -0.54950        4.87880       -1.40470
N         -1.88670        3.24830        0.12620
C         -2.48760        2.09670        0.56150
O         -3.13920        2.07010        1.57570
C         -0.61210       -1.19250       -0.08120
O         -1.28000       -2.26330        0.54450
C         -1.93070       -3.14170       -0.25410
C         -2.41200       -4.31160        0.54440
O         -2.07560       -2.97280       -1.43220
C          0.90620       -1.21830        0.19800
O          1.16560       -1.69900        1.50370
C          1.23010       -3.03560        1.65860
C          1.41310       -3.38800        3.10560
O          1.15150       -3.81510        0.74880
H          3.52960        4.23570       -2.05150
H          3.65750        4.54340       -0.31560
H          2.05810        4.49390       -1.11700
H          2.68680        0.15400       -1.50090
H          0.98540        0.38300       -2.03740
H          2.05990        0.51450        0.83930
H         -1.36740        0.01260        1.54000
H         -3.05640        0.18550       -0.22760
H         -1.87740        0.35980       -2.39110
H         -0.94270        2.56720       -3.00900
H         -1.95220        4.05300        0.74330
H         -0.79000       -1.24790       -1.16120
H         -1.55850       -4.96860        0.70860
H         -3.17820       -4.84780       -0.00650
H         -2.78360       -3.98210        1.51000
H          1.44180       -1.84080       -0.52670
H          0.44360       -3.33900        3.59780
H          2.07540       -2.67140        3.58160
H          1.80640       -4.39620        3.19190
