46

C          0.34150       -2.43040        3.81260
O         -0.03560       -1.48130        2.82500
C          0.37470       -1.68960        1.58070
O          1.13070       -2.56430        1.23530
C         -0.20520       -0.67310        0.67270
C          0.45370        0.27810       -0.14490
C          1.88320        0.50460       -0.29820
C          2.77940       -0.50970       -0.35540
C          4.17190       -0.23690       -0.52360
C          5.14950       -1.23610       -0.59610
C          6.47160       -0.90190       -0.77800
C          6.84640        0.43500       -0.89360
C          5.90280        1.43810       -0.82470
C          4.56250        1.10660       -0.63740
O          3.66320        2.11360       -0.56420
C          2.32390        1.90630       -0.38070
O          1.61590        2.87180       -0.27410
N         -0.44040        1.02220       -0.77610
N         -1.63770        0.59750       -0.41960
C         -2.77300        1.28310       -0.88380
C         -3.80670        1.61610       -0.01680
C         -4.90030        2.30930       -0.50230
C         -4.96510        2.68640       -1.83290
C         -3.91130        2.37340       -2.67820
Cl        -3.97170        2.85470       -4.33240
C         -2.80920        1.67470       -2.21510
C         -1.56180       -0.43620        0.46610
C         -2.67470       -1.29570        0.89710
O         -2.62790       -2.05970        1.82670
O         -3.73770       -1.18220        0.08490
C         -4.84590       -2.01390        0.39620
H         -0.47090       -3.14860        3.93500
H          1.25220       -2.95040        3.50880
H          0.50000       -1.88160        4.73880
H          2.45580       -1.53800       -0.28350
H          4.84320       -2.26710       -0.50470
H          7.22260       -1.67490       -0.83290
H          7.88530        0.68960       -1.03780
H          6.17390        2.47810       -0.91040
H         -3.74650        1.34690        1.02610
H         -5.70790        2.56930        0.16440
H         -5.81740        3.22790       -2.21120
H         -1.98100        1.44010       -2.86350
H         -4.56380       -3.06600        0.32140
H         -5.61590       -1.77010       -0.33080
H         -5.19590       -1.81580        1.41130
