53

C         -4.48920        4.25260       -2.39410
C         -3.75710        3.20630       -1.61120
C         -2.44670        3.42340       -1.19830
C         -1.75490        2.46640       -0.48440
C         -2.36080        1.25090       -0.17160
N         -1.66910        0.27450        0.56540
C         -2.36440       -0.43550        1.55860
C         -2.15840       -1.80260        1.73150
C         -2.85190       -2.49210        2.70590
C         -3.77270       -1.84880        3.52500
C         -4.54000       -2.61070        4.56160
C         -3.97960       -0.48720        3.33960
C         -3.28600        0.21600        2.37460
C         -0.33300        0.01860        0.31730
C          0.51620       -0.41940        1.34250
C          1.84280       -0.67740        1.09590
C          2.38020       -0.51100       -0.18630
C          3.76620       -0.78560       -0.45760
C          4.78310       -1.24780        0.36710
C          5.92970       -1.33770       -0.41880
C          5.56780       -0.92590       -1.69620
C          6.27330       -0.79710       -2.91090
C          7.59450       -1.07510       -3.11970
C          8.48240       -1.54620       -2.13330
N          9.23000       -1.93060       -1.35150
C          8.16780       -0.89640       -4.39610
N          8.63280       -0.74970       -5.43460
O          4.24700       -0.59410       -1.69820
C          1.53070       -0.07000       -1.20930
C          0.20450        0.19050       -0.96500
C         -3.67190        1.02550       -0.58210
C         -4.35610        1.99530       -1.28910
H         -5.55500        4.04140       -2.42520
H         -4.33760        5.23710       -1.95570
H         -4.11660        4.28390       -3.41830
H         -1.96520        4.36220       -1.43160
H         -0.74270        2.65620       -0.15830
H         -1.45520       -2.32010        1.09540
H         -2.68070       -3.55200        2.82730
H         -5.43910       -3.04110        4.11880
H         -4.84530       -1.95840        5.37610
H         -3.94290       -3.42530        4.96500
H         -4.68920        0.03380        3.96600
H         -3.45240        1.27570        2.24830
H          0.12020       -0.54130        2.33950
H          2.47810       -1.00190        1.90470
H          4.70430       -1.49040        1.40650
H          6.90230       -1.66010       -0.10880
H          5.69210       -0.44000       -3.75190
H          1.92880        0.05400       -2.20470
H         -0.43830        0.51690       -1.76880
H         -4.15010        0.08700       -0.34300
H         -5.37270        1.80310       -1.60050
