28

Cl         7.27920        0.07500       -0.03070
C          5.55770       -0.04920       -0.06150
C          4.95650       -1.13180       -0.68620
C          3.58000       -1.22200       -0.70550
C          2.77690       -0.24420       -0.10790
C          1.33960       -0.39390       -0.16080
C          0.42550        0.44410        0.35680
C         -0.98510        0.24070        0.27160
N         -1.85470        1.04600        0.76890
C         -3.13150        0.63900        0.56000
C         -4.28200        1.30390        0.98130
C         -5.51150        0.75650        0.68830
C         -5.61770       -0.44180       -0.01700
C         -4.49340       -1.11990       -0.44540
C         -3.25370       -0.57690       -0.15530
S         -1.67810       -1.18320       -0.55250
C          3.41140        0.83620        0.51460
C          4.78670        0.93590        0.53950
H          5.56440       -1.89240       -1.15050
H          3.11210       -2.06530       -1.19210
H          0.98670       -1.28020       -0.67570
H          0.70400        1.34550        0.88250
H         -4.18530        2.22940        1.52570
H         -6.41060        1.26120        1.00870
H         -6.59490       -0.84710       -0.23230
H         -4.57260       -2.04710       -0.99130
H          2.82410        1.60830        0.98530
H          5.26610        1.77310        1.02220
