73

C         11.07510       -1.15050        1.57750
C         10.61210       -0.26130        0.42960
C         10.33400        1.16430        0.90140
C         10.01360        2.13460       -0.23690
C          8.76090        1.78920       -1.04470
C          7.48390        1.81320       -0.20670
C          6.21430        1.69140       -1.04760
C          6.09380        0.32830       -1.73450
O          4.84340        0.15380       -2.37240
C          3.74530       -0.14310       -1.63990
C          2.54760       -0.25190       -2.36240
C          1.38160       -0.57000       -1.71930
C          1.33750       -0.79260       -0.33500
C          0.08080       -1.13280        0.29100
N         -0.99300       -1.21780       -0.38110
C         -2.19810       -1.61390        0.15980
C         -2.28520       -2.66020        1.09590
C         -3.49990       -3.10400        1.57950
C         -4.63500       -2.46500        1.12010
N         -5.97900       -2.63450        1.37750
C         -6.63080       -1.71400        0.60210
O         -7.95950       -1.68370        0.64740
C         -8.58090       -0.70950       -0.19050
C         -8.47850        0.69590        0.39920
C         -9.18890        1.75430       -0.45330
C        -10.59760        2.11190        0.02750
C        -11.62760        0.98420       -0.03980
C        -11.93700        0.53850       -1.46400
N         -5.84350       -0.97400       -0.11610
C         -4.56930       -1.41410        0.17460
C         -3.35010       -0.99320       -0.32220
C          2.53870       -0.67910        0.38280
O          2.63510       -0.86710        1.72400
C          3.72470       -0.35900       -0.26960
H         11.99350       -0.76410        2.01450
H         11.26170       -2.16320        1.22740
H         10.31760       -1.19140        2.35760
H          9.70900       -0.68990       -0.00830
H         11.38130       -0.24010       -0.34600
H         11.21900        1.53640        1.42420
H          9.51430        1.15440        1.62180
H          9.89400        3.13580        0.18480
H         10.86660        2.16550       -0.91950
H          8.88510        0.80900       -1.50510
H          8.66380        2.52050       -1.85100
H          7.44380        2.75470        0.34600
H          7.50460        1.00110        0.52230
H          5.34260        1.83730       -0.40590
H          6.19430        2.47200       -1.81060
H          6.27760       -0.48220       -1.01870
H          6.82230        0.24610       -2.54480
H          2.57590       -0.08260       -3.42650
H          0.45360       -0.65890       -2.26080
H          0.08330       -1.29830        1.38370
H         -1.37700       -3.15430        1.41050
H         -3.55610       -3.91980        2.28500
H         -6.41010       -3.30140        1.99300
H         -8.10210       -0.73190       -1.17470
H         -9.61640       -1.04270       -0.27160
H         -7.41560        0.93250        0.46840
H         -8.89010        0.69080        1.41060
H         -8.59810        2.67180       -0.42940
H         -9.22150        1.42310       -1.49160
H        -10.96150        2.94780       -0.57550
H        -10.53150        2.46060        1.06120
H        -11.28300        0.13310        0.54920
H        -12.55160        1.34240        0.42150
H        -12.71770       -0.21900       -1.46190
H        -12.28190        1.38260       -2.05750
H        -11.05790        0.11820       -1.94560
H         -3.27780       -0.19750       -1.04420
H          1.76880       -1.07420        2.09650
H          4.60880       -0.29190        0.34260
