68

C          5.96830        3.62440       -2.00800
C          7.01510        2.80090       -1.56690
C          6.75110        1.61780       -0.93210
C          5.42260        1.20460       -0.71520
C          5.07000       -0.00620       -0.05800
C          6.13440       -0.91980        0.40520
C          6.92890       -1.60970       -0.50700
C          7.91350       -2.45470       -0.02240
N          8.14650       -2.64080        1.26570
C          7.39450       -1.98370        2.13190
C          6.37890       -1.11760        1.76110
C          3.74110       -0.30740        0.12640
C          2.76490        0.60760       -0.35830
N          3.07070        1.72880       -0.96390
C          4.36280        2.04630       -1.15000
C          4.66770        3.25900       -1.80260
C          1.34800        0.29390       -0.17890
C          0.38690        1.29710       -0.27170
C         -0.95530        1.01330       -0.11200
C         -1.34620       -0.30600        0.14630
C         -0.38490       -1.30960        0.23720
C          0.95700       -1.02530        0.07780
C          2.01040       -2.09220        0.13990
C          3.26610       -1.55060        0.82070
C         -2.76190       -0.62010        0.33270
N         -3.06750       -1.75230        0.91810
C         -4.35950       -2.06440        1.11560
C         -4.66860       -3.28590        1.74950
C         -5.97020       -3.63510        1.97720
C         -7.01490       -2.78430        1.58460
C         -6.74750       -1.59370        0.96580
C         -5.41800       -1.20520        0.71410
C         -5.06560        0.01010        0.06900
C         -6.13380        0.93050       -0.37930
C         -6.59110        1.95120        0.44900
C         -7.59800        2.78040       -0.01730
N         -8.15260        2.65460       -1.21080
C         -7.71870        1.68380       -1.99630
C         -6.71720        0.79730       -1.63520
C         -3.73900        0.30750       -0.12560
C         -3.27150        1.54490       -0.83350
C         -2.00460        2.08490       -0.17340
H          6.20100        4.55320       -2.50790
H          8.03730        3.10950       -1.72940
H          7.56180        0.99230       -0.58640
H          6.77260       -1.48960       -1.56870
H          8.55100       -3.01070       -0.69770
H          7.61890       -2.16330        3.17540
H          5.79330       -0.59850        2.50450
H          3.84480        3.87720       -2.12560
H          0.71910        2.30440       -0.47130
H         -0.71720       -2.31680        0.43640
H          2.26050       -2.40740       -0.87920
H          1.63530       -2.96510        0.67600
H          3.02570       -1.30260        1.86050
H          4.05090       -2.30930        0.83050
H         -3.84900       -3.92210        2.04470
H         -6.20560       -4.57040        2.46360
H         -8.03710       -3.07680        1.77490
H         -7.55290       -0.93900        0.66330
H         -6.16870        2.08790        1.43320
H         -7.98290        3.58640        0.59420
H         -8.20050        1.61500       -2.96300
H         -6.39510        0.01720       -2.30840
H         -3.04950        1.28830       -1.87550
H         -4.05570        2.30450       -0.83800
H         -1.63000        2.95050       -0.72160
H         -2.24050        2.41140        0.84570
