53

C          2.49230        3.31470        0.00550
C          2.66030        1.84560        0.12780
N          3.81700        1.29870        0.28110
N          3.66010       -0.05700        0.36810
C          4.80000       -0.85700        0.52390
C          4.71770       -2.24430        0.59060
C          5.87290       -2.99030        0.73890
C          7.10850       -2.37230        0.82200
C          7.18700       -0.99070        0.75650
C          6.04270       -0.23240        0.60840
C          2.33760       -0.43220        0.27290
O          1.91520       -1.57570        0.31500
C          1.60490        0.84710        0.10590
C          0.28500        1.12740       -0.03400
C         -0.83050        0.24700       -0.06820
C         -0.86860       -1.14270       -0.11190
N         -2.15460       -1.50660       -0.23970
C         -2.68460       -2.80160       -0.31360
C         -4.04240       -2.95200       -0.58130
C         -4.59080       -4.21740       -0.66000
C         -3.79400       -5.33550       -0.47370
C         -2.44400       -5.18240       -0.20380
C         -1.88200       -3.92160       -0.12080
N         -2.96790       -0.44590       -0.29020
C         -2.21000        0.62690       -0.17680
C         -2.80050        1.95540       -0.17510
C         -2.32050        2.96450        0.66350
C         -2.89050        4.21990        0.63890
C         -3.95270        4.47090       -0.22250
N         -4.54010        5.78380       -0.25680
O         -5.48050        5.96180       -1.00230
O         -4.05860        6.63560        0.46120
C         -4.46260        3.46910       -1.04240
C         -3.88710        2.21800       -1.01400
H          2.01200        3.56630       -0.93940
H          1.87390        3.69620        0.81740
H          3.46760        3.79000        0.04830
H          3.76040       -2.73280        0.52680
H          5.80280       -4.06690        0.78910
H          8.00510       -2.96290        0.93690
H          8.14650       -0.49910        0.82090
H          6.09050        0.84310        0.55510
H          0.03470        2.17560       -0.15550
H         -0.04830       -1.82770       -0.06690
H         -4.64500       -2.06900       -0.71980
H         -5.64380       -4.33090       -0.86810
H         -4.22370       -6.32360       -0.53630
H         -1.82110       -6.05100       -0.05370
H         -0.83160       -3.81820        0.09830
H         -1.52350        2.75310        1.35980
H         -2.53430        5.01250        1.27930
H         -5.29820        3.69210       -1.68800
H         -4.26280        1.42420       -1.63960
