36

C         -2.92820        2.91230        1.11810
O         -3.86530        1.91560        0.78220
C         -3.40540        0.71990        0.34170
C         -4.40340       -0.22870        0.02390
C         -4.06590       -1.46940       -0.43000
C         -2.71440       -1.83990       -0.59460
C         -2.33690       -3.11840       -1.06300
C         -1.02380       -3.46410       -1.21750
C         -0.02790       -2.52610       -0.90340
O          1.26860       -2.87810       -1.05930
C          2.28980       -2.01460       -0.77250
O          3.41240       -2.42240       -0.94320
C          1.88370       -0.67620       -0.28530
C          2.86800        0.35070        0.05670
C          2.39740        1.59380        0.49870
C          3.27330        2.60290        0.83640
C          4.64170        2.39620        0.74110
C          5.11990        1.17200        0.30560
C          4.24760        0.15420       -0.03500
N          0.63040       -0.36110       -0.14280
C         -0.34780       -1.25160       -0.43840
C         -1.71850       -0.88600       -0.27500
C         -2.07720        0.38620        0.19080
H         -2.31670        3.19240        0.25490
H         -2.27690        2.58860        1.93580
H         -3.51410        3.77140        1.44070
H         -5.43330        0.06430        0.15320
H         -4.83530       -2.18810       -0.67050
H         -3.11350       -3.83020       -1.30100
H         -0.72400       -4.43660       -1.57380
H          1.33200        1.74380        0.56860
H          2.89300        3.55570        1.17540
H          5.32930        3.18620        1.00510
H          6.18430        1.00560        0.22950
H          4.63550       -0.79210       -0.37190
H         -1.27860        1.07160        0.41890
