66

C         -3.24990        0.68890       -5.58650
C         -1.93950        0.37690       -4.88970
O         -2.21800        0.05550       -3.52680
C         -1.15650       -0.14160       -2.73560
O         -0.01620       -0.04620       -3.12280
C         -1.58350       -0.47510       -1.37270
C         -0.97080       -0.18940       -0.11590
C          0.27610        0.49570        0.18180
C          1.40300        0.35440       -0.56220
C          2.59540        1.04570       -0.20780
C          3.79580        0.95280       -0.92800
C          4.90940        1.63500       -0.51960
C          4.87500        2.44260        0.63320
O          6.02920        3.06610        0.93580
C          6.10170        3.86780        2.10730
C          5.86860        3.13080        3.39910
C          6.33760        1.92720        3.70930
C          7.18580        1.09760        2.79460
C          6.01940        1.28560        5.02530
C          3.69690        2.55050        1.35790
C          2.56720        1.85740        0.93630
O          1.44170        1.99920        1.67030
C          0.26380        1.37210        1.36010
O         -0.68770        1.60600        2.05940
N         -1.75790       -0.59280        0.86350
N         -2.84170       -1.12100        0.31510
C         -3.84540       -1.65750        1.13180
C         -4.07500       -1.06960        2.37110
C         -5.06670       -1.57960        3.18780
C         -5.82850       -2.66390        2.78330
C         -5.57070       -3.25050        1.55420
Cl        -6.49070       -4.61940        1.04570
C         -4.57490       -2.76610        0.72330
C         -2.79520       -1.07100       -1.03750
C         -3.91510       -1.47430       -1.92130
O         -5.03180       -1.03610       -1.82880
O         -3.51490       -2.37060       -2.82220
C         -4.49480       -2.81530       -3.76430
C         -5.36090       -3.92540       -3.18580
H         -3.75330        1.50960       -5.08260
H         -3.90220       -0.18000       -5.56890
H         -3.05690        0.96770       -6.61840
H         -1.43010       -0.47510       -5.35510
H         -1.25830        1.23520       -4.91640
H          1.40980       -0.28050       -1.43460
H          3.82180        0.33540       -1.81250
H          5.83750        1.57340       -1.06490
H          5.39430        4.70240        2.02460
H          7.11800        4.27810        2.07710
H          5.26530        3.66580        4.11970
H          7.93600        0.55700        3.36870
H          6.56540        0.36280        2.27970
H          7.68100        1.70530        2.04340
H          5.54480        0.31880        4.86230
H          5.35470        1.90570        5.62050
H          6.93540        1.11360        5.58970
H          3.62010        3.15070        2.24830
H         -3.46880       -0.22770        2.66550
H         -5.25580       -1.12550        4.14780
H         -6.60930       -3.05740        3.41450
H         -4.36610       -3.25630       -0.21380
H         -3.91960       -3.16960       -4.62200
H         -5.11750       -1.96230       -4.05220
H         -4.73940       -4.74640       -2.83510
H         -5.95330       -3.54580       -2.35660
H         -6.03430       -4.29640       -3.95300
