50

C         -8.11560        0.06800        1.11630
C         -7.04350       -0.54380        0.21840
N         -5.72700       -0.39040        0.81510
C         -4.77150       -1.43150        0.50040
C         -4.16170       -1.25180       -0.90180
N         -3.52350        0.04190       -1.00930
C         -2.18200        0.22190       -0.80160
C         -1.57050        1.45290       -1.11140
C         -0.22210        1.63970       -0.95840
C          0.60030        0.60640       -0.48480
N          1.93350        0.88320       -0.37150
N          2.68100       -0.02350        0.11590
C          4.03430        0.14170        0.09210
C          4.69830        0.74750       -0.98880
C          6.07070        0.76330       -1.03470
C          6.82240        0.18460       -0.00870
C          8.29090        0.23580       -0.10260
O          8.90660        0.72780       -1.02010
O          8.90290       -0.33000        0.95800
C         10.31920       -0.31090        0.92820
C          6.16620       -0.42170        1.06690
C          4.79370       -0.45410        1.11200
C          0.00120       -0.62840       -0.18330
C         -1.34680       -0.81480       -0.33930
C         -4.48630        1.09590       -0.77210
C         -5.12220        0.91100        0.62380
H         -9.10230       -0.15160        0.71710
H         -8.00600        1.14700        1.18390
H         -8.03750       -0.34840        2.11650
H         -7.24310       -1.61320        0.11910
H         -7.11250       -0.09690       -0.78570
H         -3.97030       -1.37870        1.24540
H         -5.25680       -2.40530        0.58320
H         -4.96480       -1.28440       -1.64780
H         -3.45760       -2.04780       -1.13600
H         -2.16260        2.26330       -1.50770
H          0.23410        2.58470       -1.20980
H          4.10160        1.18210       -1.77700
H          6.59580        1.22830       -1.85600
H         10.65060       -0.81090        1.83490
H         10.68870       -0.83480        0.04360
H         10.68570        0.71790        0.90170
H          6.75010       -0.86880        1.85620
H          4.27610       -0.91430        1.94010
H          0.62850       -1.42440        0.18930
H         -1.76490       -1.77260       -0.07140
H         -5.25810        1.04430       -1.54800
H         -4.01620        2.07490       -0.81820
H         -5.87190        1.68430        0.79050
H         -4.33510        1.02500        1.37710
