109

C         -9.34710       -5.46710        1.31660
C         -8.00490       -5.41440        0.59790
C         -6.82980       -5.46840        1.57200
C         -5.49460       -5.33140        0.84490
C         -4.27480       -5.40990        1.76560
C         -4.21530       -4.34660        2.86870
C         -4.48300       -2.91510        2.39990
C         -3.46180       -2.42490        1.37910
C         -3.81780       -1.08690        0.68000
C         -4.00270        0.04690        1.70260
C         -3.88100        1.45610        1.11700
C         -5.05740        1.86770        0.23260
C         -4.75250        3.11140       -0.60370
C         -3.82150        2.80660       -1.77740
C         -3.66310        3.97990       -2.74430
C         -2.93100        5.17480       -2.13730
C         -2.69520        6.27040       -3.17000
C         -2.70570       -0.82830       -0.31270
C         -1.39070       -0.51410       -0.06530
C         -0.51900       -0.34940       -1.15100
C          0.82880       -0.02730       -0.92520
C          1.99940        0.23350       -0.73220
C          3.30140        0.51630       -0.52970
C          4.47800        0.75740       -0.34800
C          5.83950        1.02990       -0.14430
C          6.42100        0.85140        1.11560
C          7.75850        1.10920        1.31030
C          8.55780        1.56080        0.25580
N          9.91150        1.82420        0.45490
C         10.83760        1.57870       -0.56780
C         10.71000        0.45640       -1.38540
C         11.62790        0.22090       -2.39050
C         12.68770        1.09020       -2.59120
C         12.82140        2.20380       -1.77810
C         11.90420        2.45240       -0.77570
C         10.35860        2.33780        1.67960
C         11.56940        1.90940        2.22260
C         12.01190        2.42290        3.42610
C         11.25560        3.36100        4.10940
C         10.05080        3.78790        3.57510
C          9.60380        3.28680        2.36800
C          7.97510        1.74360       -1.00190
C          6.63930        1.47960       -1.20050
C         -0.98520       -0.51300       -2.46240
C         -2.30160       -0.84430       -2.70620
C         -3.16290       -1.00410       -1.62880
C         -4.57520       -1.31740       -1.58640
C         -5.47100       -1.56560       -2.61800
C         -6.79550       -1.79220       -2.30540
C         -7.23570       -1.74010       -0.97950
C         -8.65040       -1.95590       -0.67610
O         -9.51290       -2.20390       -1.48260
C         -6.32960       -1.48420        0.05670
C         -4.99880       -1.30100       -0.24180
H         -9.43970       -4.63730        2.01450
H         -9.44650       -6.39540        1.87530
H        -10.16370       -5.40420        0.60170
H         -7.94570       -4.49290        0.01230
H         -7.93440       -6.25020       -0.10170
H         -6.94060       -4.66510        2.30260
H         -6.85230       -6.41510        2.11710
H         -5.41470       -6.13570        0.10870
H         -5.48290       -4.39070        0.29010
H         -3.37580       -5.34210        1.14870
H         -4.25820       -6.39160        2.24580
H         -3.22850       -4.39530        3.33620
H         -4.94990       -4.59250        3.63840
H         -5.47940       -2.87670        1.96730
H         -4.47090       -2.25880        3.27290
H         -2.49160       -2.30930        1.86810
H         -3.34650       -3.17630        0.59550
H         -4.97700       -0.06100        2.18200
H         -3.23780       -0.06780        2.47450
H         -3.80180        2.16590        1.94480
H         -2.95600        1.52190        0.54440
H         -5.92750        2.05850        0.86590
H         -5.31810        1.05450       -0.44420
H         -5.69040        3.50760       -1.00030
H         -4.31080        3.87670        0.03670
H         -2.83500        2.51690       -1.40930
H         -4.22720        1.95350       -2.32810
H         -3.10360        3.63630       -3.61820
H         -4.64950        4.29900       -3.08970
H         -1.97110        4.84170       -1.73570
H         -3.51500        5.58380       -1.31130
H         -2.08890        5.89660       -3.99250
H         -2.18010        7.11680       -2.72140
H         -3.64180        6.62090       -3.57600
H         -1.01900       -0.38220        0.94070
H          5.81230        0.49700        1.93470
H          8.20200        0.95580        2.28320
H          9.89120       -0.22940       -1.22360
H         11.51950       -0.65320       -3.01560
H         13.40470        0.90080       -3.37540
H         13.64200        2.88940       -1.93020
H         12.00510        3.32560       -0.14780
H         12.15620        1.17150        1.69520
H         12.95040        2.08130        3.83710
H         11.60300        3.75740        5.05130
H          9.45780        4.52400        4.09760
H          8.66970        3.63010        1.94780
H          8.58230        2.10180       -1.82030
H          6.19620        1.62820       -2.17440
H         -0.29400       -0.37840       -3.28170
H         -2.65400       -0.97420       -3.71850
H         -5.13660       -1.57910       -3.64440
H         -7.52390       -1.99830       -3.07520
H         -8.89210       -1.87170        0.40410
H         -6.70150       -1.41150        1.06850
