42

C          6.90660       -0.49930        0.05540
C          5.41670       -0.36840        0.04910
C          4.61630       -1.38970       -0.45600
C          3.24260       -1.28360       -0.44720
C          2.62380       -0.14260        0.07060
C          1.18070       -0.07020        0.05420
N          0.39580       -1.03030       -0.39500
C         -0.87050       -0.58820       -0.24500
C         -0.86560        0.69730        0.30930
N          0.45060        0.99910        0.50090
C         -2.04790        1.43010        0.59090
C         -2.23450        2.48780        1.40140
C         -3.61140        2.89160        1.61680
O         -4.02730        3.79560        2.28550
S         -4.68710        1.75850        0.72980
C         -3.28780        0.89380       -0.08800
C         -3.28330        1.30650       -1.56270
C         -3.33290       -0.63900        0.06150
C         -3.41350       -1.05360        1.53300
S         -4.74440       -1.41930       -0.81640
C         -3.69680       -2.60470       -1.67470
O         -4.14130       -3.47460       -2.36750
C         -2.30830       -2.27610       -1.39980
C         -2.10110       -1.24190       -0.57220
C          3.42230        0.88220        0.57990
C          4.79780        0.76420        0.56640
H          7.25110       -1.04050       -0.82280
H          7.38510        0.47650        0.08240
H          7.22460       -1.05670        0.93710
H          5.08170       -2.27630       -0.86100
H          2.61760       -2.07040       -0.83760
H          0.81140        1.86130        0.87370
H         -1.45800        3.01540        1.92960
H         -3.21570        2.38910       -1.64590
H         -2.43940        0.85720       -2.08380
H         -4.20560        0.97840       -2.03550
H         -4.33370       -0.67430        1.97090
H         -3.41090       -2.13830        1.61140
H         -2.56570       -0.65970        2.09120
H         -1.52560       -2.83110       -1.88710
H          2.97980        1.77840        0.99100
H          5.40340        1.56600        0.96360
