62

O         -2.97090       -5.45440       -0.85650
C         -1.96620       -5.50860       -0.18730
C         -1.14810       -4.35930        0.19380
C         -1.44070       -3.14050       -0.30340
C         -0.62740       -1.97550       -0.11420
C         -1.02770       -0.64900       -0.13650
C         -2.34280       -0.05010       -0.14560
C         -3.46800       -0.76040        0.28030
C         -4.71590       -0.17570        0.24250
C         -4.88310        1.13550       -0.20230
C         -6.21640        1.75030       -0.23930
C         -6.40110        3.07550        0.14970
C         -7.65830        3.64920        0.11740
C         -8.74990        2.91190       -0.30990
C         -8.57730        1.59490       -0.70230
C         -7.32240        1.01680       -0.66460
C         -3.75380        1.85010       -0.60290
C         -2.50480        1.26990       -0.57700
O          0.05590        0.15340       -0.11000
C          1.16800       -0.61150       -0.11480
C          2.43850        0.09050       -0.07290
C          3.59600       -0.40330       -0.67610
C          4.77560        0.30810       -0.61650
C          4.84240        1.53850        0.03600
C          6.10430        2.28730        0.10010
C          6.12110        3.66920       -0.07660
C          7.31070        4.37070       -0.01950
C          8.50110        3.70540        0.22220
C          8.49550        2.33230        0.40290
C          7.30810        1.62750        0.33880
C          3.67970        2.04210        0.61770
C          2.49930        1.33340        0.56440
C          0.81150       -1.95460       -0.08440
C          1.65720       -3.11030       -0.07290
C          1.30200       -4.31380        0.42620
C          2.21260       -5.44670        0.30130
O          1.98560       -6.56870        0.68620
C          0.00200       -4.55390        1.14080
H         -1.58970       -6.47610        0.19670
H         -2.31970       -3.03630       -0.92740
H         -3.35580       -1.76160        0.66630
H         -5.57360       -0.73230        0.58970
H         -5.55680        3.65050        0.50140
H         -7.78800        4.67560        0.42850
H         -9.73120        3.36170       -0.33690
H         -9.42450        1.01630       -1.04030
H         -7.19090       -0.00530       -0.98850
H         -3.86460        2.86290       -0.96140
H         -1.63900        1.82600       -0.90440
H          3.56620       -1.32820       -1.22930
H          5.65580       -0.08030       -1.10730
H          5.19810        4.19130       -0.28300
H          7.31020        5.44110       -0.16530
H          9.42950        4.25480        0.26970
H          9.42050        1.80890        0.59580
H          7.30730        0.55890        0.49770
H          3.71060        2.98950        1.13540
H          1.60850        1.73010        1.02800
H          2.64720       -3.00610       -0.49310
H          3.17190       -5.19980       -0.19650
H         -0.09060       -3.84670        1.97060
H          0.00670       -5.57050        1.53710
