39

C         -2.75000       -0.94450        1.80520
C         -2.74030       -0.77300        0.28390
S         -4.14500       -1.74080       -0.39610
C         -3.07610       -3.00840       -1.09480
O         -3.50410       -3.99640       -1.61840
C         -1.69420       -2.58520       -0.93580
C         -1.50550       -1.42280       -0.29560
C         -0.29490       -0.67600       -0.13090
N          0.98420       -1.08580       -0.26180
C          1.73950       -0.03500       -0.00860
C          3.18490       -0.05040       -0.04400
C          3.95650        1.07550        0.24930
C          5.33480        1.01230        0.19900
C          5.95610       -0.17970       -0.14590
Cl         7.67660       -0.25460       -0.20910
C          5.20470       -1.31040       -0.43940
C          3.82900       -1.24270       -0.38750
N          0.97770        1.06360        0.28960
C         -0.32860        0.68200        0.20680
C         -1.53350        1.40400        0.41700
C         -1.73920        2.57000        1.05470
C         -3.12610        2.94900        1.25990
O         -3.55800        3.93240        1.79140
S         -4.17840        1.64620        0.61180
C         -2.77050        0.71550       -0.11380
C         -2.83670        0.88140       -1.63470
H         -2.69500       -2.00080        2.05780
H         -1.90220       -0.43160        2.25650
H         -3.67070       -0.53560        2.21440
H         -0.90530       -3.18150       -1.36000
H          3.49280        2.01210        0.52120
H          5.93010        1.88260        0.42590
H          5.69930       -2.23100       -0.70530
H          3.22170       -2.10500       -0.60990
H          1.30970        1.98930        0.50280
H         -0.97020        3.20670        1.45900
H         -3.75940        0.44470       -2.00880
H         -2.82150        1.93760       -1.89490
H         -1.99240        0.38620       -2.11170
