40

C          5.78480        1.61130        1.14660
C          4.76640        0.80710        0.39700
C          3.45510        1.23800        0.27880
C          2.50260        0.48800       -0.39220
C          2.85880       -0.72440       -0.96610
O          2.01190       -1.55270       -1.65800
C          0.68210       -1.14650       -1.84150
C         -0.15710       -1.18910       -0.58690
C          0.29480       -1.79960        0.53100
C         -0.46890       -1.83320        1.75860
O         -0.12930       -2.35740        2.78890
O         -1.68520       -1.19500        1.73280
C         -2.16660       -0.60070        0.62590
C         -1.45970       -0.57130       -0.57330
C         -2.05260        0.05390       -1.69920
C         -3.27890        0.63460       -1.61460
C         -4.00610        0.63700       -0.39980
C         -5.27090        1.24340       -0.28590
C         -5.95060        1.22580        0.90260
C         -5.39670        0.59940        2.02710
C         -4.16880       -0.00060        1.95020
C         -3.44910        0.00750        0.74010
C          4.17570       -1.16730       -0.85430
C          5.11070       -0.41070       -0.18170
H          5.46010        2.64270        1.25890
H          5.93400        1.19130        2.14150
H          6.74300        1.59710        0.63130
H          3.15950        2.17850        0.72160
H          1.49140        0.86140       -0.44700
H          0.64840       -0.14020       -2.28240
H          0.26890       -1.85420       -2.57010
H          1.25750       -2.28440        0.56390
H         -1.52020        0.05750       -2.63680
H         -3.71970        1.10630       -2.48030
H         -5.69530        1.72450       -1.15510
H         -6.92000        1.69550        0.98030
H         -5.94590        0.59360        2.95660
H         -3.73000       -0.48600        2.80770
H          4.43950       -2.11130       -1.30440
H          6.12660       -0.76940       -0.10240
