58

C        -11.44890        1.37020       -0.03840
C        -11.56610        0.17230       -0.74830
C        -10.45730       -0.56680       -1.10880
C         -9.22160       -0.06620       -0.73420
N         -7.94080       -0.51480       -0.91160
C         -7.10660        0.40390       -0.31850
C         -5.66340        0.28680       -0.28860
C         -4.97990       -0.79440       -0.84580
C         -3.60270       -0.85630       -0.78760
C         -2.86430        0.15070       -0.16830
C         -1.40010        0.07670       -0.10020
C         -0.65260       -0.37200       -1.18760
C          0.72420       -0.43680       -1.12100
C          1.40230       -0.05520        0.03540
C          2.86670       -0.11910        0.10890
C          3.59470        0.89290        0.73670
C          4.96840        0.83310        0.80870
C          5.66480       -0.24650        0.25940
C          7.10870       -0.26540        0.36950
N          7.80500        0.65920        0.98040
C          9.11380        0.28730        0.87190
C         10.27030        0.90340        1.34080
C         11.47460        0.28710        1.07770
C         11.54770       -0.91360        0.36670
C         10.41500       -1.54370       -0.10830
C          9.20090       -0.93070        0.15260
N          7.90710       -1.25620       -0.15260
C          4.93990       -1.26020       -0.36800
C          3.56380       -1.19250       -0.44290
C          0.65430        0.39140        1.12370
C         -0.72190        0.45630        1.05710
C         -3.55120        1.23040        0.38900
C         -4.92500        1.30000        0.32790
N         -7.76830        1.39720        0.21870
C         -9.08980        1.14750       -0.01460
C        -10.22290        1.87490        0.33750
H        -12.34810        1.91010        0.21950
H        -12.54930       -0.18220       -1.02040
H        -10.54950       -1.49270       -1.65750
H         -7.66910       -1.35650       -1.38920
H         -5.51720       -1.60030       -1.32560
H         -3.09000       -1.70940       -1.20790
H         -1.15650       -0.64750       -2.10280
H          1.28570       -0.76220       -1.98480
H          3.07320        1.74270        1.15150
H          5.53880        1.61320        1.28690
H         10.21200        1.82960        1.88920
H         12.39100        0.73900        1.42790
H         12.51530       -1.35790        0.18560
H         10.47320       -2.47200       -0.65760
H          7.60570       -2.06640       -0.66560
H          5.44320       -2.11440       -0.79870
H          3.01650       -1.99510       -0.91590
H          1.15880        0.66720        2.03820
H         -1.28410        0.78240        1.92000
H         -2.99450        2.03030        0.85440
H         -5.46300        2.13320        0.75070
H        -10.13060        2.79880        0.88530
