64

N          2.06300        3.66630       -3.05520
C          2.67780        2.88620       -2.47600
C          3.51540        1.99310       -1.78470
C          4.88000        2.19170       -2.09100
N          5.97700        2.35500       -2.38630
C          3.12990        0.99880       -0.91490
C          1.78670        0.60340       -0.62120
C          0.66610        1.03040       -1.24710
C         -0.68110        0.62180       -0.96180
C         -1.72580        1.17690       -1.71720
C         -3.03540        0.82420       -1.50230
C         -3.36690       -0.10900       -0.51220
N         -4.68480       -0.47550       -0.29370
C         -5.12170       -0.84720        0.98760
C         -6.01920       -1.90200        1.14330
C         -6.45940       -2.25810        2.40350
C         -6.00950       -1.57570        3.52200
C         -5.11750       -0.52660        3.37130
C         -4.67710       -0.15810        2.11470
C         -5.60940       -0.48220       -1.35090
C         -5.23850       -0.94430       -2.61250
C         -6.15650       -0.95390       -3.64490
C         -7.45330       -0.51450       -3.43410
C         -7.82750       -0.06150       -2.17970
C         -6.91470       -0.04070       -1.14280
C         -2.33200       -0.66600        0.25020
C         -1.02410       -0.30950        0.02920
C          4.19580        0.24130       -0.23540
C          4.23700       -1.13210       -0.37340
C          5.25070       -1.92970        0.18250
C          6.23900       -1.32010        0.90530
C          6.18750        0.07210        1.08050
C          7.25200        0.54570        1.86560
C          7.32190        1.88100        2.14590
C          6.31180        2.72570        1.64780
C          5.27410        2.26620        0.87730
C          5.18980        0.89780        0.54290
C          8.12640       -0.61520        2.24820
C          7.44900       -1.85610        1.61440
H          1.70790       -0.12310        0.17700
H          0.75870        1.74180       -2.05590
H         -1.49070        1.90770       -2.47740
H         -3.82110        1.27570       -2.08950
H         -6.36490       -2.43850        0.27180
H         -7.15280       -3.07870        2.51290
H         -6.35350       -1.85860        4.50520
H         -4.76850        0.01570        4.23750
H         -3.99190        0.66860        1.99670
H         -4.23110       -1.29890       -2.77430
H         -5.85890       -1.31530       -4.61800
H         -8.16820       -0.52620       -4.24250
H         -8.83560        0.28550       -2.00810
H         -7.20450        0.31940       -0.16650
H         -2.57020       -1.39630        1.00960
H         -0.25340       -0.77030        0.62740
H          3.47300       -1.61460       -0.96850
H          5.23610       -2.99750        0.02160
H          8.12160        2.29620        2.74130
H          6.36050        3.77840        1.88590
H          4.51890        2.95880        0.53510
H          8.19780       -0.70800        3.33350
H          9.13850       -0.47470        1.86470
H          8.11490       -2.36060        0.91200
H          7.16110       -2.58650        2.37310
