72

C         -3.53950       -2.33720        2.03460
C         -2.45750       -2.02230        1.59910
C         -1.23080       -1.59300        1.05740
C         -0.10760       -2.41470        1.05580
C          1.08940       -1.97570        0.49940
C          2.22810       -2.80420        0.46710
C          3.22330       -3.48530        0.39590
C          4.39500       -4.26410        0.29820
C          4.71730       -5.19830        1.28390
C          5.87610       -5.94220        1.17640
C          6.72140       -5.76700        0.09190
C          6.40310       -4.84410       -0.89230
C          5.24740       -4.09460       -0.79530
C          1.17720       -0.68340       -0.06060
C          2.39850       -0.22270       -0.57970
C          3.46370        0.17630       -0.98800
C          4.70530        0.64040       -1.46420
C          4.80300        1.89500       -2.07030
C          6.02280        2.34250       -2.53740
C          7.15390        1.55170       -2.40600
C          7.06370        0.30870       -1.79850
C          5.84930       -0.14950       -1.32730
C          0.04580        0.14730       -0.06970
C          0.10490        1.43390       -0.63630
C          0.11340        2.53970       -1.12270
C          0.11060        3.83060       -1.68820
C          1.00460        4.16020       -2.70860
C          0.98510        5.42590       -3.26080
C          0.08030        6.37240       -2.80590
C         -0.80940        6.05010       -1.79270
C         -0.79900        4.78780       -1.23280
C         -1.16050       -0.30360        0.49100
C         -2.28900        0.53370        0.48770
C         -3.25270        1.26270        0.48680
C         -4.37400        2.11590        0.48270
C         -5.39940        1.93710        1.41390
C         -6.49500        2.77790        1.40250
C         -6.58130        3.80090        0.47090
C         -5.56500        3.98320       -0.45440
C         -4.46510        3.14830       -0.45390
C         -4.81270       -2.68380        2.53080
C         -5.94010       -2.00180        2.06620
C         -7.19120       -2.32640        2.55180
C         -7.33420       -3.32810        3.49960
C         -6.21880       -4.00930        3.96130
C         -4.96210       -3.69370        3.48270
H         -0.16810       -3.40540        1.48280
H          4.05570       -5.32870        2.12810
H          6.12370       -6.66320        1.94200
H          7.62690       -6.35050        0.01310
H          7.06000       -4.70960       -1.73960
H          4.98700       -3.37910       -1.56230
H          3.91760        2.50730       -2.16190
H          6.09500        3.31360       -3.00570
H          8.10590        1.90540       -2.77380
H          7.94650       -0.30490       -1.69110
H          5.77270       -1.11330       -0.84510
H          1.70030        3.41370       -3.06400
H          1.67730        5.67770       -4.05130
H          0.06820        7.36080       -3.24130
H         -1.51440        6.78820       -1.43830
H         -1.48540        4.52930       -0.43920
H         -5.32150        1.14220        2.14180
H         -7.28670        2.63670        2.12410
H         -7.43990        4.45620        0.46620
H         -5.63250        4.78080       -1.18010
H         -3.67130        3.27960       -1.17540
H         -5.81930       -1.22720        1.32250
H         -8.06080       -1.79710        2.18970
H         -8.31460       -3.57850        3.87730
H         -6.33130       -4.79080        4.69880
H         -4.08880       -4.21990        3.84020
