59

N         -5.46110        0.14680        2.32400
C         -5.34940       -0.04460        1.19910
S         -5.15970       -0.34860       -0.44180
C         -3.40100       -0.11580       -0.48700
C         -2.78170        0.82650       -1.28320
C         -1.41460        0.75660       -0.99370
C         -0.34850        1.44260       -1.58550
C         -0.60720        2.43100       -2.64310
C         -1.33450        2.08960       -3.78020
C         -1.57110        3.02930       -4.76690
C         -1.09030        4.32080       -4.62940
C         -0.36420        4.66770       -3.50200
C         -0.11910        3.72940       -2.51660
C          0.95750        1.15120       -1.22000
C          2.16020        1.59500       -1.81060
C          3.18510        0.94220       -1.18280
C          2.61660        0.10690       -0.18400
N          3.30420       -0.74810        0.61730
C          4.73930       -0.86310        0.45170
C          5.45000        0.10620        1.43740
O          4.51730        0.97820        2.02390
C          3.54700        0.29490        2.79000
C          2.98820       -0.92450        2.02050
N          1.27100        0.23370       -0.22750
B          0.17340       -0.41960        0.63470
F          0.40930       -1.77810        0.76400
F          0.18940        0.17780        1.90150
N         -1.21490       -0.19260       -0.00430
C         -2.41020       -0.74870        0.31130
N         -2.61100       -1.75460        1.19070
C         -2.03690       -1.85250        2.51660
C         -1.49920       -3.26610        2.74530
O         -2.50890       -4.23240        2.53900
C         -3.02600       -4.13330        1.23790
C         -3.64130       -2.74970        0.97960
H         -3.25610        1.49070       -1.97730
H         -1.69190        1.07720       -3.89660
H         -2.13180        2.75220       -5.64750
H         -1.27940        5.05390       -5.39920
H          0.01200        5.67380       -3.38970
H          0.43590        4.00020       -1.63080
H          2.23270        2.30300       -2.61220
H          4.22910        1.07680       -1.37900
H          5.00980       -1.89910        0.68020
H          5.01570       -0.66500       -0.58080
H          6.16580        0.74590        0.91910
H          5.98140       -0.46050        2.21630
H          3.97680       -0.02630        3.75050
H          2.75910        1.02650        2.97430
H          1.92530       -1.01990        2.18790
H          3.46910       -1.85060        2.34600
H         -1.24990       -1.12090        2.64930
H         -2.83590       -1.65050        3.24410
H         -1.16890       -3.38410        3.77790
H         -0.65880       -3.45140        2.06420
H         -3.78920       -4.90840        1.14670
H         -2.22800       -4.31240        0.50050
H         -4.47540       -2.59380        1.67690
H         -4.00520       -2.71140       -0.04650
