84

C         -9.79930        1.87070        0.11750
O         -9.09800        0.82290       -0.50210
C         -7.74460        0.78110       -0.36300
C         -6.98220        1.69590        0.34250
C         -5.60360        1.55660        0.42280
C         -4.96550        0.50200       -0.20290
C         -3.49250        0.34560       -0.11780
C         -2.73560        0.62890       -1.24320
N         -1.40600        0.54640       -1.32860
C         -1.00940        0.93440       -2.54230
C          0.28160        0.96790       -3.02220
C          1.46810        0.62050       -2.38020
C          2.76180        0.65000       -2.96170
C          3.65920        0.23420       -2.01700
C          2.93450       -0.05220       -0.83240
N          1.62020        0.19040       -1.09770
C          3.45110       -0.50520        0.38830
C          4.92190       -0.68420        0.46210
C          5.49290       -1.94150        0.52080
C          6.87170       -2.08900        0.57720
C          7.70180       -0.98120        0.57530
O          9.06160       -1.01490        0.62660
C          9.69480       -2.26710        0.69540
C          7.12540        0.30680        0.50930
O          8.01570        1.34380        0.50280
C          7.51210        2.64660        0.40610
C          8.65650        3.64650        0.46030
O          8.59380        4.74980       -0.01090
O          9.71240        3.18610        1.11440
C          5.75110        0.43790        0.45220
C          2.69690       -0.76270        1.52180
N          1.37170       -0.63480        1.62050
C          0.98480       -0.92080        2.86520
C         -0.30310       -0.92260        3.35470
C         -1.49560       -0.63230        2.69560
C         -2.79270       -0.69320        3.26720
C         -3.69680       -0.34510        2.30170
C         -2.97130       -0.05560        1.11840
N         -1.65160       -0.24490        1.40010
C          2.15130       -1.27490        3.77380
C          3.34480       -1.19460        2.82710
C         -2.16870        1.36490       -3.42700
C         -3.37820        1.12030       -2.53020
C         -5.72640       -0.42800       -0.91160
C         -7.09940       -0.30150       -1.00120
O         -7.92720       -1.15940       -1.66970
C         -7.35350       -2.24320       -2.34410
C         -8.42650       -3.00410       -3.10730
O         -8.31270       -4.15370       -3.43720
O         -9.47930       -2.25620       -3.40130
H         -9.67020        1.85640        1.20510
H        -10.84810        1.70280       -0.12170
H         -9.49270        2.84810       -0.27060
H         -7.45140        2.52960        0.84000
H         -5.02470        2.27940        0.97740
H          0.39740        1.30390       -4.04400
H          2.97130        0.94640       -3.97120
H          4.72050        0.12830       -2.12820
H          0.88400        0.05700       -0.41950
H          4.86470       -2.81930        0.50420
H          7.28810       -3.08280        0.61670
H          9.40640       -2.81710        1.59770
H          9.47800       -2.87930       -0.18670
H         10.76200       -2.05410        0.73090
H          6.84140        2.88390        1.24810
H          6.96000        2.80950       -0.53020
H         10.42520        3.84540        1.12410
H          5.28900        1.41110        0.39740
H         -0.41230       -1.19490        4.39600
H         -3.00040       -0.97170        4.28210
H         -4.76380       -0.29420        2.39430
H         -0.91510       -0.11120        0.72240
H          2.21890       -0.56090        4.59630
H          2.01660       -2.26920        4.20140
H          3.84750       -2.15430        2.70870
H          4.09330       -0.46510        3.13980
H         -2.05950        2.41400       -3.70670
H         -2.19350        0.77290       -4.34280
H         -3.96350        2.02140       -2.34170
H         -4.05250        0.36700       -2.93780
H         -5.21750       -1.26030       -1.37240
H         -6.86030       -2.94590       -1.65750
H         -6.61140       -1.91000       -3.08790
H        -10.14540       -2.77380       -3.88200
