58

C         -3.67290        2.65070        0.65520
C         -4.23230        1.32660        0.13060
C         -5.28190        1.61440       -0.94300
C         -3.10320        0.47500       -0.46520
C         -2.13460       -0.01810        0.56950
C         -0.80060       -0.29060        0.11370
C          0.23110       -0.73240        0.85950
C          1.55710       -0.96360        0.35850
C          2.47380       -1.85270        0.89660
N          3.56400       -1.85110        0.10010
C          4.75050       -2.58330        0.23510
C          4.87620       -3.59810        1.17810
C          6.06750       -4.29360        1.27790
C          7.13130       -3.98970        0.44510
C          7.00140       -2.98240       -0.49750
C          5.81790       -2.27880       -0.60570
N          3.41780       -1.00160       -0.91520
C          2.22660       -0.44250       -0.79220
C          1.81480        0.59520       -1.72630
C          2.15840        0.47980       -3.07500
C          1.78220        1.45170       -3.97730
C          1.06070        2.55330       -3.52960
N          0.64320        3.55880       -4.46820
O         -0.05460        4.46170       -4.05290
O          1.00660        3.44300       -5.62010
C          0.73960        2.70010       -2.18350
C          1.12070        1.72590       -1.28710
C         -2.53920       -0.17700        1.85790
C         -3.86440        0.10230        2.29030
C         -4.21660       -0.04270        3.60930
C         -5.51520        0.23250        4.07910
N         -6.57220        0.46030        4.46460
C         -3.30380       -0.48100        4.58900
N         -2.55700       -0.83920        5.38400
C         -4.87500        0.53320        1.27590
H         -4.46510        3.24180        1.10900
H         -3.24200        3.22800       -0.15990
H         -2.90020        2.48380        1.40250
H         -4.83810        2.16320       -1.77050
H         -6.09070        2.21350       -0.53150
H         -5.70530        0.69060       -1.33230
H         -3.53840       -0.39610       -0.96860
H         -2.56930        1.05070       -1.22510
H         -0.62910       -0.11340       -0.94020
H          0.09090       -0.98100        1.90280
H          2.38750       -2.46350        1.77090
H          4.05530       -3.85600        1.82800
H          6.16200       -5.08020        2.01100
H          8.05720       -4.53740        0.53000
H          7.82650       -2.74190       -1.15040
H          5.69660       -1.49030       -1.33060
H          2.71740       -0.38410       -3.39710
H          2.02910        1.37510       -5.02520
H          0.20090        3.57900       -1.86350
H          0.89120        1.83890       -0.23880
H         -1.84400       -0.51760        2.61170
H         -5.66570        1.11910        1.75020
H         -5.34390       -0.36760        0.86240
