33

N          8.28850       -0.47730       -1.15970
C          7.16670       -0.35240       -0.95680
C          5.78520       -0.19950       -0.70770
C          4.86760       -1.08440       -1.27770
C          3.52240       -0.92690       -1.02880
C          3.04940        0.10790       -0.21100
C          1.62590        0.22260        0.01360
C          1.00950        1.15090        0.76630
C         -0.40600        1.20800        0.94710
N         -1.03820        2.09710        1.67210
C         -2.34700        1.78640        1.56790
C         -2.48860        0.68110        0.75710
C         -3.64340       -0.06500        0.31300
C         -4.92710        0.30790        0.71740
C         -6.02550       -0.41020        0.28850
C         -5.86410       -1.50570       -0.54570
C         -4.59390       -1.88190       -0.95120
C         -3.48950       -1.16940       -0.52720
O         -1.24120        0.31870        0.36500
C          3.98380        0.98610        0.35250
C          5.33090        0.83810        0.11040
H          5.22150       -1.88560       -1.90980
H          2.81570       -1.61370       -1.47190
H          1.01450       -0.52140       -0.48170
H          1.54160        1.92690        1.29330
H         -3.09300        2.36440        2.07200
H         -5.05650        1.15970        1.36650
H         -7.01480       -0.11540        0.60570
H         -6.72640       -2.06390       -0.87820
H         -4.46480       -2.73480       -1.60110
H         -2.49820       -1.45960       -0.84110
H          3.64990        1.79210        0.98620
H          6.04500        1.51970        0.54890
