43

C          4.47740        0.56110       -3.13090
C          3.82760       -0.76060       -3.51270
O          3.57890       -1.56680       -2.35730
C          2.49310       -1.28620       -1.64060
O          1.67340       -0.45460       -1.92610
C          2.45870       -2.12650       -0.38340
S          3.29230       -1.13060        0.89990
C          1.97200       -0.04950        1.32660
N          0.75270       -0.42570        1.02000
C         -0.29440        0.34630        1.29110
C         -1.57890       -0.20250        0.84300
C         -1.83420       -1.56350        1.02440
C         -3.01630       -2.11990        0.59830
C         -3.97660       -1.33590       -0.04880
O         -5.10740       -1.98020       -0.42910
C         -6.11140       -1.25340       -1.09720
C         -3.71450        0.01450       -0.26060
C         -2.52930        0.57020        0.18570
C         -0.16070        1.56440        1.98090
C         -1.32480        2.40870        2.39040
C          1.13660        1.95520        2.32730
C          1.35780        3.16700        3.02790
N          1.52510        4.14900        3.59340
C          2.24370        1.15910        1.98790
C          3.56000        1.55790        2.29120
N          4.63530        1.88180        2.52210
H          3.79130        1.15520       -2.53190
H          5.38250        0.38260       -2.55540
H          4.72980        1.11650       -4.02940
H          4.49050       -1.36260       -4.13660
H          2.87960       -0.58530       -4.03190
H          3.03700       -3.03950       -0.49590
H          1.43750       -2.30230       -0.05190
H         -1.09470       -2.17310        1.52040
H         -3.22750       -3.16690        0.74690
H         -6.90870       -1.96770       -1.29560
H         -5.74770       -0.84530       -2.04540
H         -6.50080       -0.44110       -0.47540
H         -4.42190        0.64310       -0.77800
H         -2.33180        1.61050       -0.02100
H         -2.22670        1.80740        2.47590
H         -1.50200        3.19650        1.65730
H         -1.12240        2.89290        3.34470
