44

C         -4.97050       -1.47500        0.27360
C         -3.75950       -2.28420       -0.16030
O         -2.57210       -1.53710        0.12490
C         -1.77340       -1.22190       -0.88560
O         -1.87840       -1.61810       -2.01710
C         -0.70680       -0.27720       -0.41910
C         -1.03550        1.00200       -0.10360
C         -0.02760        1.91010        0.31640
C         -0.63270        3.15080        0.57370
C          0.14490        4.19940        1.00520
C          1.50820        3.94420        1.15830
C          2.09200        2.71430        0.89820
Cl         3.80270        2.65790        1.16960
C          1.32720        1.61310        0.45050
C          1.69940        0.25070        0.10550
C          2.99900       -0.22050        0.16440
C          3.34780       -1.53310       -0.17700
C          4.68430       -1.99040       -0.11320
C          4.99600       -3.27370       -0.45610
C          3.99150       -4.16560       -0.87980
C          2.69190       -3.75880       -0.95160
C          2.33400       -2.43500       -0.60320
C          1.01830       -1.97290       -0.66140
C          0.67270       -0.67000       -0.32810
N         -1.98620        3.03590        0.31520
C         -2.94800        4.09590        0.44130
C         -2.30990        1.75880       -0.11050
O         -3.42620        1.40200       -0.41770
H         -5.88090       -1.98160       -0.03350
H         -4.92940       -0.49030       -0.18550
H         -4.97500       -1.35240        1.35350
H         -3.78910       -2.49310       -1.23440
H         -3.68680       -3.22550        0.39370
H         -0.25530        5.17660        1.22050
H          2.14690        4.74600        1.49710
H          3.79600        0.42930        0.48020
H          5.45210       -1.30290        0.21100
H          6.01850       -3.61820       -0.40710
H          4.26360       -5.17590       -1.14750
H          1.91490       -4.43510       -1.27700
H          0.24630       -2.65180       -0.99200
H         -2.99390        4.45420        1.47190
H         -3.91820        3.69150        0.15440
H         -2.69290        4.92830       -0.21790
