33

C         -4.60630       -0.41850        1.31840
C         -3.60820       -0.08330        0.20490
C         -4.34100        0.28070       -1.09690
N         -2.67870       -1.18100        0.00650
C         -1.38250       -0.75010        0.03540
C         -0.21940       -1.40660       -0.21500
C          0.99680       -0.69280       -0.06240
N          2.14180       -1.31780       -0.29840
C          3.27600       -0.62460       -0.15030
C          4.51430       -1.26070       -0.38820
C          5.67050       -0.55580       -0.23580
F          6.85810       -1.14920       -0.45740
C          5.65060        0.80230        0.15480
F          6.81990        1.45470        0.29140
C          4.47460        1.44890        0.39100
C          3.25580        0.75020        0.24520
N          2.10210        1.38510        0.47920
C          0.97640        0.69950        0.33820
C         -0.25990        1.35190        0.57890
C         -1.40280        0.63150        0.43310
N         -2.71030        0.97660        0.62760
H         -4.06600       -0.67230        2.22610
H         -5.22390       -1.26310        1.02690
H         -5.24830        0.43500        1.51620
H         -4.98190        1.14420       -0.93920
H         -4.95660       -0.55160       -1.42770
H         -3.61790        0.51580       -1.87550
H         -2.96380       -2.01860       -0.46700
H         -0.18200       -2.43830       -0.52290
H          4.52860       -2.29630       -0.68580
H          4.45840        2.48440        0.68900
H         -0.25290        2.39010        0.86670
H         -3.02160        1.92970        0.66920
