72

C         -6.70530       -7.32620       -0.19760
C         -5.35330       -7.62220       -0.14920
C         -4.41880       -6.60380       -0.12880
C         -4.82180       -5.27050       -0.15000
C         -3.82880       -4.18730       -0.12590
C         -4.02730       -3.05360        0.65910
C         -3.09480       -2.03630        0.68090
C         -1.93250       -2.11740       -0.08260
C         -0.94040       -1.03260       -0.06570
C          0.42000       -1.32110       -0.04260
C          1.36680       -0.30230       -0.02260
C          2.80210       -0.61840        0.00550
C          3.67830        0.11300        0.80430
C          5.02600       -0.18260        0.83060
C          5.54390       -1.22140        0.06020
C          6.97910       -1.53670        0.08890
C          7.41540       -2.85920        0.12220
C          8.76550       -3.15460        0.15280
C          9.70220       -2.13460        0.14430
C          9.27990       -0.81630        0.10810
C          7.93020       -0.51880        0.08380
C          4.66780       -1.95370       -0.73790
C          3.32040       -1.65670       -0.76530
C          0.93610        1.02020       -0.02850
C         -0.41940        1.33090       -0.05560
C         -0.86300        2.73240       -0.06290
C         -1.92550        3.14330       -0.86480
C         -2.34400        4.45850       -0.86410
C         -1.71350        5.40790       -0.06280
C         -2.15970        6.80830       -0.06030
C         -1.23340        7.84870       -0.05670
C         -1.65360        9.16560       -0.05560
C         -3.00560        9.46530       -0.05170
C         -3.93540        8.43900       -0.05240
C         -3.51700        7.12160       -0.05990
C         -0.64980        4.99730        0.73770
C         -0.23250        3.68200        0.73810
C         -1.34910        0.29670       -0.07300
C         -1.73410       -3.25110       -0.86760
C         -2.66570       -4.26900       -0.88850
C         -6.18440       -4.98450       -0.19530
C         -7.11720       -6.00430       -0.22210
H         -7.43480       -8.12250       -0.21610
H         -5.02630       -8.65180       -0.12560
H         -3.36590       -6.84040       -0.07470
H         -4.91190       -2.98180        1.27540
H         -3.25650       -1.17620        1.31480
H          0.74490       -2.35020        0.00200
H          3.29330        0.90680        1.42810
H          5.68550        0.38230        1.47380
H          6.68880       -3.65860        0.14550
H          9.08930       -4.18490        0.18530
H         10.75690       -2.36620        0.16580
H         10.00640       -0.01650        0.09700
H          7.60660        0.51110        0.03910
H          5.05350       -2.74850       -1.36020
H          2.66190       -2.22110       -1.40970
H          1.66500        1.81690       -0.05350
H         -2.41250        2.42750       -1.51120
H         -3.15580        4.76200       -1.50950
H         -0.17740        7.62070       -0.07590
H         -0.92380        9.96230       -0.05940
H         -3.33330       10.49450       -0.04810
H         -4.99160        8.66720       -0.04520
H         -4.24680        6.32490       -0.04420
H         -0.16240        5.71390        1.38310
H          0.57830        3.37890        1.38480
H         -2.40370        0.52930       -0.09230
H         -0.85030       -3.32280       -1.48500
H         -2.50400       -5.12970       -1.52140
H         -6.51090       -3.95520       -0.23090
H         -8.17060       -5.76760       -0.26410
