50

C          6.28720       -3.88340        0.22370
O          6.12620       -2.49820        0.03220
C          4.87390       -1.97700        0.04590
C          3.70320       -2.70890        0.23070
C          2.48140       -2.06720        0.23000
C          2.38780       -0.68600        0.05190
C          1.09490       -0.04270        0.07570
O         -0.00450       -0.78240       -0.18520
C         -1.09110        0.01730       -0.12400
C         -2.39130       -0.55480       -0.38480
C         -3.47160        0.23250       -0.80020
C         -4.70350       -0.33530       -1.02200
C         -4.90190       -1.70850       -0.84740
O         -6.15740       -2.16080       -1.09020
C         -6.42570       -3.53420       -0.93790
C         -3.82560       -2.50210       -0.45750
C         -2.59070       -1.92800       -0.23380
C         -0.70170        1.31830        0.16470
C          0.73100        1.27910        0.29550
C          1.55120        2.35140        0.76480
C          1.28190        3.66180        0.57280
C          2.12730        4.66230        1.21390
O          3.11310        4.42780        1.87300
C          0.13980        4.11030       -0.29730
C         -1.16350        3.72880        0.34970
C         -2.05520        4.77700        0.83240
O         -3.15500        4.59960        1.30140
C         -1.53380        2.43600        0.48330
C          3.56660        0.03920       -0.15730
C          4.78560       -0.59600       -0.15520
H          5.78970       -4.45870       -0.56360
H          7.35980       -4.06390        0.17720
H          5.90980       -4.20020        1.20110
H          3.73330       -3.77670        0.37960
H          1.57920       -2.63980        0.38200
H         -3.33270        1.28760       -0.97380
H         -5.54110        0.26360       -1.34180
H         -6.24900       -3.86630        0.09010
H         -5.82620       -4.13960       -1.62510
H         -7.48050       -3.65620       -1.17840
H         -3.94010       -3.56610       -0.32210
H         -1.76340       -2.54820        0.07600
H          2.42290        2.09340        1.35300
H          1.79630        5.70750        1.04720
H          0.21490        3.61360       -1.26930
H          0.18370        5.18930       -0.45430
H         -1.64290        5.80170        0.73410
H         -2.51020        2.22850        0.90280
H          3.51910        1.09940       -0.34810
H          5.69860       -0.04520       -0.31520
