56

C          1.04090        3.27380       -1.85180
C          0.24810        2.17790       -2.54990
O          0.05630        1.06260       -1.68080
C         -1.06160        1.04380       -0.94080
O         -1.94290        1.86030       -1.02940
C         -1.06340       -0.08490        0.00270
C         -0.01080       -0.54380        0.83880
C          1.35810       -0.04960        0.93280
C          2.20320        0.01950       -0.12030
C          3.51570        0.56420        0.03830
C          4.41920        0.69090       -1.02450
C          5.67270        1.23310       -0.81060
O          6.62300        1.40700       -1.76350
C          6.33660        1.00450       -3.08220
C          6.03090        1.65130        0.48270
C          5.15550        1.53180        1.53360
C          3.88770        0.98920        1.32010
O          3.04700        0.89150        2.37600
C          1.77980        0.39810        2.27020
O          1.09380        0.37750        3.25850
N         -0.46230       -1.46790        1.66630
N         -1.74890       -1.63780        1.40640
C         -2.47910       -2.59550        2.12710
C         -2.19250       -2.76200        3.47720
C         -2.89650       -3.70060        4.20820
C         -3.87720       -4.47190        3.60730
C         -4.13550       -4.30620        2.25520
Cl        -5.33450       -5.27960        1.48850
C         -3.43770       -3.37920        1.49970
C         -2.17440       -0.81750        0.41470
C         -3.58270       -0.65700       -0.00600
O         -4.52200       -0.71910        0.74620
O         -3.65520       -0.42950       -1.31370
C         -4.93670       -0.06870       -1.83850
C         -5.26270        1.38330       -1.52340
H          0.48370        3.64590       -0.99540
H          1.99750        2.88770       -1.50560
H          1.21530        4.09500       -2.54100
H         -0.73000        2.55440       -2.86590
H          0.79140        1.78610       -3.41310
H          1.89860       -0.33410       -1.09360
H          4.10220        0.35620       -1.99950
H          6.13160       -0.06910       -3.13810
H          5.48940        1.56060       -3.49600
H          7.23140        1.23050       -3.65930
H          7.01440        2.06930        0.62390
H          5.42530        1.85140        2.52690
H         -1.42580       -2.15070        3.92570
H         -2.68560       -3.83040        5.25820
H         -4.43440       -5.19930        4.17590
H         -3.63690       -3.27750        0.44500
H         -5.69550       -0.73680       -1.41700
H         -4.84880       -0.23350       -2.91400
H         -4.41750        2.01280       -1.79020
H         -6.14110        1.69330       -2.08190
H         -5.45680        1.49900       -0.46030
