56

C         -2.64520        4.05350        0.10310
C         -3.18420        2.69300       -0.31500
O         -2.24680        1.65430       -0.03750
C         -1.25330        1.48880       -0.92180
O         -1.13240        2.13730       -1.93220
C         -0.35090        0.40470       -0.51410
C         -0.65170       -0.82480        0.12130
C         -1.95210       -1.32340        0.53750
C         -3.05880       -1.20550       -0.23190
C         -4.31980       -1.69570        0.22710
C         -5.50410       -1.60190       -0.51270
C         -6.68130       -2.10520       -0.00870
C         -6.70220       -2.71520        1.24330
C         -5.54910       -2.82040        1.99230
C         -4.35440       -2.31010        1.48900
O         -3.24410       -2.42630        2.25150
C         -2.02010       -1.95770        1.86280
O         -1.10230       -2.07780        2.62950
N          0.45750       -1.51740        0.30000
N          1.46300       -0.80880       -0.19260
C          2.76250       -1.32320       -0.02840
C          2.99750       -2.12700        1.08810
C          4.24220       -2.67400        1.28930
C          5.28010       -2.43460        0.38230
O          6.47020       -3.01560        0.67780
C          7.55780       -2.81370       -0.19320
C          5.03300       -1.64340       -0.73550
C          3.77850       -1.09650       -0.94420
C          1.03110        0.37480       -0.69980
C          1.81600        1.49160       -1.27280
O          2.67360        1.40120       -2.11490
O          1.40290        2.63220       -0.73080
C          1.92280        3.84870       -1.27320
C          1.88190        4.91750       -0.19680
H         -3.40230        4.81450       -0.06330
H         -2.37430        4.04140        1.15610
H         -1.76460        4.29530       -0.48700
H         -4.07660        2.42680        0.25560
H         -3.41040        2.69130       -1.38700
H         -3.00410       -0.75260       -1.21210
H         -5.47510       -1.12850       -1.48280
H         -7.59170       -2.02980       -0.58330
H         -7.62860       -3.10960        1.63180
H         -5.54560       -3.28900        2.96330
H          2.18870       -2.30880        1.77800
H          4.44460       -3.29390        2.14760
H          7.35080       -3.20880       -1.19260
H          8.39050       -3.36180        0.24460
H          7.82140       -1.75400       -0.26760
H          5.80550       -1.44990       -1.46210
H          3.60130       -0.49620       -1.82110
H          2.94370        3.67130       -1.62780
H          1.29510        4.12310       -2.12810
H          0.86380        5.05050        0.15870
H          2.50790        4.63130        0.64430
H          2.24210        5.85780       -0.60400
