49

C          9.90680        0.58360       -0.34290
C          9.18340        0.62410        0.99610
O          7.82030        0.22580        0.86550
C          6.94970        1.16600        0.45630
O          7.25520        2.30910        0.22220
C          5.59640        0.59960        0.35190
C          4.55930        1.35840       -0.02660
C          3.18730        0.93020       -0.17220
C          2.73930       -0.33840        0.04070
C          1.36800       -0.67310       -0.12950
C          0.84910       -1.96180        0.07250
C         -0.48470       -2.21400       -0.11350
C         -1.35640       -1.18650       -0.50920
C         -2.75830       -1.49170       -0.70390
C         -3.81610       -0.68560       -1.10080
N         -4.87910       -1.51270       -1.12350
C         -6.25100       -1.19370       -1.41860
C         -6.86000       -0.38600       -0.29770
C         -7.39260        0.87360       -0.52860
C         -7.93420        1.60300        0.51640
C         -7.93740        1.08150        1.79840
C         -7.40140       -0.17400        2.03460
C         -6.86620       -0.90630        0.99090
N         -4.51060       -2.73600       -0.75870
N         -3.26190       -2.73820       -0.51160
C         -0.86280        0.09580       -0.71150
C          0.48900        0.35150       -0.52410
O          0.92840        1.61260       -0.73520
C          2.23670        1.97720       -0.58650
O          2.52590        3.12530       -0.80330
H         10.95390        0.83420       -0.19950
H          9.83420       -0.40940       -0.78040
H          9.46190        1.30430       -1.02470
H          9.62080       -0.08470        1.70250
H          9.21810        1.63680        1.41180
H          5.51600       -0.44780        0.59880
H          4.73960        2.40300       -0.25090
H          3.42090       -1.12010        0.34310
H          1.52160       -2.75010        0.37580
H         -0.89700       -3.19900        0.03620
H         -3.88920        0.35050       -1.35320
H         -6.77200       -2.14910       -1.52900
H         -6.30060       -0.64310       -2.36240
H         -7.39040        1.28460       -1.52830
H         -8.35100        2.58100        0.32780
H         -8.35690        1.65250        2.61280
H         -7.40120       -0.58410        3.03320
H         -6.44700       -1.88620        1.16990
H         -1.50420        0.90760       -1.01370
