43

F         -0.50240        2.53360       -1.95300
B         -0.30180        2.17320       -0.64000
F         -0.50460        3.23480        0.20740
O          1.08630        1.73380       -0.49700
C          1.41020        0.52300       -0.16050
C          2.85850        0.24430       -0.14620
C          3.41810       -0.75500        0.64830
C          4.78020       -0.98540        0.62570
C          5.59550       -0.21190       -0.19020
C          7.07340       -0.47720       -0.25160
F          7.53610       -1.13050        0.82420
F          7.79750        0.64740       -0.35720
F          7.40230       -1.23400       -1.31870
C          5.05340        0.79600       -0.97870
C          3.69240        1.02350       -0.94940
C          0.48100       -0.43960        0.13690
C         -0.91260       -0.18490        0.10320
C         -1.85340       -1.22440        0.46730
C         -1.43380       -2.48230        0.93160
C         -2.33910       -3.45730        1.27000
C         -3.70420       -3.20740        1.15740
C         -4.14160       -1.98330        0.71670
C         -3.23850       -0.96830        0.36630
C         -3.66860        0.33360       -0.08180
C         -5.02140        0.66980       -0.23170
C         -5.40820        1.92300       -0.63830
C         -4.44250        2.88820       -0.90720
C         -3.10810        2.58990       -0.77780
C         -2.69160        1.31330       -0.37140
N         -1.34580        1.01990       -0.27080
H          2.79770       -1.34020        1.30820
H          5.21390       -1.75560        1.24510
H          5.69730        1.39740       -1.60190
H          3.25200        1.80410       -1.54930
H          0.82860       -1.42690        0.36860
H         -0.38590       -2.70480        1.03960
H         -1.99250       -4.41570        1.62520
H         -4.41680       -3.97390        1.42220
H         -5.20210       -1.80770        0.64730
H         -5.78230       -0.06520       -0.02740
H         -6.45630        2.15690       -0.74690
H         -4.73900        3.87650       -1.22230
H         -2.38160        3.34980       -0.99580
