34

C         -5.16890        1.18950        0.30830
N         -4.32410        0.07150       -0.03410
C         -4.94350       -1.17110       -0.42550
C         -2.96820        0.18720       -0.01330
C         -2.34280        1.36810        0.45560
C         -0.98120        1.49560        0.48500
C         -0.15410        0.45050        0.04770
N          1.19320        0.56530        0.07230
C          1.94710       -0.41280       -0.33850
C          3.39480       -0.20290       -0.27650
C          3.86090        1.02460        0.21090
C          5.21210        1.28470        0.29450
C          6.13180        0.32680       -0.10590
C          5.68350       -0.89050       -0.58910
C          4.32970       -1.15960       -0.67630
C          1.36500       -1.67500       -0.84420
O          1.95970       -2.64390       -1.25260
O         -0.00220       -1.75310       -0.85070
C         -0.77270       -0.72390       -0.41780
C         -2.14670       -0.86010       -0.45140
H         -6.20510        0.93810        0.09620
H         -4.90860        2.07150       -0.28210
H         -5.08870        1.44140        1.37060
H         -6.01510       -1.11420       -0.25180
H         -4.77700       -1.38430       -1.48630
H         -4.54870       -2.00200        0.16380
H         -2.94370        2.18890        0.80870
H         -0.51480        2.39810        0.84620
H          3.13630        1.76140        0.51910
H          5.55440        2.23720        0.67290
H          7.19100        0.52980       -0.04090
H          6.39460       -1.64090       -0.90250
H          3.99780       -2.11160       -1.05450
H         -2.54560       -1.78460       -0.83050
