54

O         -0.96760        2.33020        0.87420
C         -1.62870        1.19370        0.47040
C         -0.94360        0.09570       -0.06580
C          0.49990        0.02880       -0.14460
N          1.17300       -0.62190       -1.06330
C          2.48860       -0.46370       -0.75010
C          3.63550       -0.96360       -1.42930
C          3.51310       -1.72950       -2.59330
C          4.62990       -2.20360       -3.23460
C          5.89100       -1.91580       -2.71580
C          6.02480       -1.16360       -1.57250
C          4.90830       -0.65940       -0.88760
C          5.02870        0.14100        0.31870
C          6.26810        0.46430        0.88910
C          6.36630        1.22920        2.02790
C          5.22150        1.71270        2.65680
C          3.98810        1.41710        2.13320
C          3.87090        0.63710        0.97430
C          2.61920        0.30430        0.40250
N          1.33870        0.62650        0.77160
C         -1.69800       -0.98010       -0.53660
C         -3.06800       -1.01310       -0.43270
C         -3.75230        0.07320        0.15080
C         -3.01090        1.18370        0.58820
C         -3.71230        2.36340        1.20260
C         -4.97380        1.88050        1.90270
C         -5.83910        1.13760        0.89550
N         -5.11150        0.05530        0.27500
C         -5.91290       -1.02170       -0.25850
C         -5.21360       -1.71620       -1.41850
C         -3.84630       -2.19170       -0.94770
H         -0.10620        2.35820        0.44020
H          2.51870       -1.92870       -2.96150
H          4.53830       -2.79470       -4.13400
H          6.77360       -2.28700       -3.21690
H          7.02020       -0.96500       -1.20750
H          7.17930        0.11080        0.43370
H          7.33900        1.45800        2.43820
H          5.30660        2.31460        3.54960
H          3.09360        1.78770        2.61480
H          1.06000        1.06530        1.63400
H         -1.16710       -1.80840       -0.97890
H         -3.97190        3.08970        0.42640
H         -3.04080        2.85860        1.90400
H         -4.70270        1.20390        2.71550
H         -5.53460        2.71690        2.32150
H         -6.71610        0.71460        1.39800
H         -6.19810        1.84060        0.12770
H         -6.13050       -1.75550        0.53300
H         -6.86690       -0.60280       -0.59700
H         -5.82340       -2.55060       -1.76680
H         -5.08810       -1.01080       -2.24220
H         -3.29910       -2.66820       -1.76210
H         -3.97120       -2.93370       -0.15270
