55

C          3.37470        2.61340        2.62530
C          2.88730        3.14440        1.28490
O          2.16380        2.13580        0.58090
C          0.82820        2.14070        0.69490
O          0.19930        2.98260        1.28660
C          0.20960        0.98950        0.02760
C          0.65090       -0.35500       -0.11280
C          1.91870       -0.94730        0.29440
C          3.12240       -0.45450       -0.07540
C          4.32960       -1.06570        0.38600
C          5.60690       -0.59450        0.06230
C          6.72680       -1.23330        0.54250
C          6.59680       -2.35830        1.35370
C          5.34970       -2.84290        1.68740
C          4.21170       -2.19800        1.20720
O          3.00460       -2.69600        1.55730
C          1.82360       -2.13530        1.15640
O          0.80260       -2.63560        1.54810
N         -0.31670       -1.09480       -0.61950
N         -1.35950       -0.30030       -0.82010
C         -2.53970       -0.81770       -1.37640
C         -3.34080       -0.04400       -2.20500
C         -4.50100       -0.59660       -2.71800
C         -4.84570       -1.90350       -2.42280
C         -4.03140       -2.69120       -1.61480
C         -4.40980       -4.10360       -1.29420
C         -2.87400       -2.13550       -1.09160
C         -1.10200        0.96910       -0.43440
C         -2.06440        2.10050       -0.46230
O         -1.89350        3.11720       -1.07990
O         -3.11830        1.82720        0.30400
C         -4.11350        2.84630        0.42590
C         -5.09910        2.80560       -0.73290
H          3.98930        1.72760        2.47860
H          2.52550        2.35130        3.25190
H          3.96210        3.37540        3.12940
H          2.23670        4.01320        1.42680
H          3.72770        3.41020        0.63910
H          3.18930        0.40450       -0.72530
H          5.69390        0.27810       -0.56780
H          7.70970       -0.86520        0.29100
H          7.47940       -2.85580        1.72530
H          5.22910       -3.71170        2.31430
H         -3.05240        0.96340       -2.46150
H         -5.13430       -0.00420       -3.36140
H         -5.75360       -2.32270       -2.83140
H         -4.85600       -4.59010       -2.15870
H         -3.54150       -4.67210       -0.97320
H         -5.14250       -4.11710       -0.48710
H         -2.21400       -2.70820       -0.45850
H         -3.61490        3.81960        0.47110
H         -4.61120        2.63700        1.37440
H         -5.89650        3.52130       -0.55430
H         -5.52640        1.80980       -0.82730
H         -4.59710        3.06650       -1.66120
