55

C         -4.39650        5.10160       -2.57120
O         -4.70470        3.73190       -2.66350
C         -3.90090        2.83880       -2.02440
C         -4.25840        1.49460       -2.15420
C         -3.51280        0.50700       -1.55240
C         -2.38810        0.83420       -0.79430
N         -1.63860       -0.17410       -0.16280
C         -2.32940       -1.23250        0.45250
C         -3.49980       -0.99030        1.16250
C         -4.20100       -2.02630        1.75250
C         -3.73540       -3.33280        1.64930
O         -4.33950       -4.42540        2.19070
C         -5.53430       -4.24650        2.91150
C         -2.55890       -3.57700        0.93670
C         -1.86930       -2.54550        0.34220
C         -0.25870       -0.12130       -0.14460
C          0.47170       -0.68830        0.90850
C          1.84270       -0.62370        0.92340
C          2.55790        0.00330       -0.10600
C          3.99290        0.07040       -0.07230
C          4.85020        0.70100       -0.95810
C          6.19430        0.58310       -0.62930
C          6.41620       -0.14790        0.52650
C          7.60990       -0.49010        1.19330
C          8.88580       -0.15570        0.83170
C          9.24470        0.60850       -0.29460
N          9.57750        1.22720       -1.20300
C          9.97650       -0.58200        1.61860
N         10.86150       -0.93130        2.25980
S          4.89450       -0.69000        1.19790
C          1.82220        0.56210       -1.16100
C          0.45050        0.50320       -1.17950
C         -2.03810        2.17300       -0.65820
C         -2.77960        3.16760       -1.27000
H         -5.16030        5.61490       -3.15300
H         -4.43430        5.45390       -1.53530
H         -3.41120        5.32190       -2.99480
H         -5.12810        1.25120       -2.74310
H         -3.79520       -0.52900       -1.66430
H         -3.86730        0.02110        1.25270
H         -5.10500       -1.79810        2.29430
H         -5.38390       -3.60860        3.78860
H         -6.32350       -3.82110        2.28300
H         -5.83260       -5.24140        3.23820
H         -2.21130       -4.59440        0.85590
H         -0.96930       -2.75000       -0.21830
H         -0.05390       -1.16530        1.72190
H          2.38510       -1.05410        1.75320
H          4.50960        1.24040       -1.82300
H          6.98830        1.01540       -1.21030
H          7.49870       -1.08350        2.09330
H          2.33510        1.03640       -1.98250
H         -0.09360        0.92920       -2.00910
H         -1.17660        2.44060       -0.06400
H         -2.47570        4.19420       -1.14120
