67

C         -9.58920       -0.99810       -1.79860
C         -9.25200        0.45630       -1.47180
N         -8.59560        0.57550       -0.19760
C         -9.22970        0.69840        1.01920
C        -10.58350        0.79970        1.30700
C        -10.95380        0.92900        2.63200
C        -10.00740        0.95570        3.65390
C         -8.65920        0.85160        3.37610
C         -8.26340        0.72070        2.05190
C         -6.98530        0.58530        1.41120
C         -5.68720        0.53680        1.88530
C         -4.64810        0.38910        0.96760
C         -3.31800        0.33910        1.42250
C         -2.17530        0.29890        1.81580
C         -0.84410        0.25240        2.27330
C          0.22040        0.11620        1.37770
C          1.50720        0.07830        1.92230
C          2.63970       -0.05970        1.09650
C          3.61010       -0.18150        0.38550
C          4.74030       -0.32760       -0.43900
C          4.57930       -0.40900       -1.83370
C          5.66050       -0.55490       -2.67340
C          6.92900       -0.62380       -2.10630
C          7.10370       -0.53800       -0.70040
C          6.01020       -0.39080        0.13320
C          8.51720       -0.63010       -0.46390
C          9.29740       -0.60330        0.68400
C         10.66740       -0.71090        0.55250
C         11.25880       -0.84270       -0.70190
C         10.50250       -0.87180       -1.85810
C          9.12430       -0.76730       -1.73420
N          8.14960       -0.77990       -2.70760
C          8.38650       -0.83680       -4.12520
C          8.58790        0.55690       -4.71910
N          1.70650        0.16990        3.24250
C          0.62470        0.29660        3.99550
C          0.84270        0.39400        5.40630
N          1.01750        0.47150        6.53440
N         -0.63570        0.34300        3.59230
C         -4.91820        0.28890       -0.40890
C         -6.20650        0.33500       -0.89240
C         -7.24610        0.48740        0.01950
H         -8.68150       -1.59600       -1.83740
H        -10.24200       -1.41330       -1.03430
H        -10.09150       -1.06010       -2.76030
H        -10.16550        1.05660       -1.44760
H         -8.59540        0.87150       -2.24120
H        -11.33140        0.77680        0.52860
H        -12.00170        1.00970        2.88120
H        -10.33850        1.05810        4.67640
H         -7.92530        0.87000        4.16730
H         -5.47250        0.61030        2.94040
H          0.05630        0.04310        0.31450
H          3.58180       -0.35230       -2.24410
H          5.51650       -0.61080       -3.74200
H          6.12630       -0.32510        1.20410
H          8.83830       -0.49950        1.65530
H         11.29420       -0.69150        1.43130
H         12.33360       -0.92180       -0.77280
H         10.97870       -0.97030       -2.82210
H          9.27250       -1.45210       -4.30330
H          7.53300       -1.32790       -4.60050
H          7.70610        1.17020       -4.54780
H          8.76430        0.48740       -5.78910
H          9.44130        1.04430       -4.25340
H         -4.09000        0.17150       -1.09220
H         -6.39360        0.25190       -1.95250
