18

N          3.46640       -0.32890        0.38330
C          2.17280       -0.05070        0.16750
N          1.26190       -0.93600        0.52120
C         -0.01350       -0.58960        0.27510
C         -1.07300       -1.45890        0.61140
C         -2.36750       -1.09930        0.35750
C         -2.64650        0.13810       -0.23970
F         -3.93250        0.45570       -0.47360
C         -1.65860        1.02030       -0.58660
C         -0.33590        0.65040       -0.32590
N          0.71470        1.50250       -0.65470
O          0.49070        2.59050       -1.17770
N          1.93150        1.14780       -0.40860
H          4.16180        0.34190        0.11370
H          3.71360       -1.20380        0.80660
H         -0.82640       -2.40250        1.06890
H         -3.19030       -1.75080        0.60750
H         -1.86910        1.97320       -1.04610
