58

C         -4.89020        2.53950        0.23270
C         -3.84920        2.44270        1.33730
O         -2.79160        1.56970        0.93900
C         -1.56170        2.09260        0.83130
O         -1.26550        3.21400        1.15970
C         -0.60600        1.09210        0.34160
C         -0.85500       -0.14130       -0.31400
C         -2.12730       -0.63180       -0.81750
C         -2.54450       -1.90390       -0.62410
C         -3.82200       -2.32850       -1.10380
C         -4.33160       -3.61880       -0.91980
C         -5.58630       -3.94470       -1.38090
C         -6.36240       -2.98960       -2.03310
C         -5.88330       -1.71150       -2.22920
C         -4.61140       -1.37750       -1.76980
O         -4.16720       -0.11960       -1.99620
C         -2.94010        0.31610       -1.59050
O         -2.60000        1.42460       -1.91590
N          0.26980       -0.82010       -0.45450
N          1.23950       -0.07610        0.07160
C          2.57010       -0.51880        0.04330
C          3.62290        0.37970       -0.05000
C          4.91800       -0.10260       -0.05960
C          5.18770       -1.46290        0.00440
C          6.60160       -1.95340       -0.00620
C          4.12070       -2.36680        0.06850
C          4.37260       -3.84150        0.12090
C          2.82300       -1.88390        0.08890
C          0.76630        1.09360        0.55920
C          1.56270        2.07240        1.34910
O          2.04380        1.81340        2.42300
O          1.63300        3.23880        0.72950
C          2.25640        4.31600        1.43150
C          3.76960        4.28490        1.26650
H         -5.34950        1.56960        0.05690
H         -4.41900        2.87120       -0.68920
H         -5.66030        3.25030        0.51930
H         -4.28160        2.01940        2.25000
H         -3.42170        3.42620        1.55830
H         -1.92370       -2.60270       -0.08300
H         -3.72270       -4.34980       -0.40920
H         -5.97380       -4.94150       -1.23640
H         -7.34680       -3.25110       -2.39000
H         -6.46760       -0.95950       -2.73510
H          3.43600        1.43790       -0.13550
H          5.73880        0.59640       -0.12680
H          6.77610       -2.60210       -0.86400
H          7.29870       -1.12120       -0.05390
H          6.81250       -2.53160        0.89270
H          4.96080       -4.09830        1.00120
H          4.93210       -4.16510       -0.75590
H          3.43590       -4.39050        0.15680
H          1.98440       -2.56070        0.13890
H          1.98690        4.24800        2.48980
H          1.82530        5.21800        0.99470
H          4.03440        4.29980        0.21150
H          4.17710        3.38650        1.72490
H          4.20520        5.15380        1.75130
