15

N          3.51550       -1.59880        0.56120
C          2.51460       -1.04590        0.47400
C          1.27970       -0.36550        0.36900
C          1.02190        0.73380        1.18850
C         -0.19430        1.38210        1.07270
C         -1.14060        0.95090        0.16350
C         -0.89030       -0.14930       -0.66290
N         -1.80360       -0.53280       -1.61470
C          0.33330       -0.80720       -0.54980
H          1.76480        1.06350        1.89810
H         -0.40900        2.23340        1.70150
H         -2.08790        1.46420        0.08150
H         -1.70280       -1.45470       -2.00550
H         -2.75050       -0.21350       -1.49970
H          0.54930       -1.66010       -1.17730
