42

O          7.11410       -0.82880        0.00460
C          5.80600       -0.48300        0.09570
C          4.96840       -0.76070       -0.98220
C          3.63230       -0.43230       -0.92900
C          3.09450        0.19170        0.19980
C          1.70040        0.57620        0.30260
N          0.64550       -0.11150       -0.16300
C         -0.50450        0.58060        0.16200
C         -1.78330        0.07370       -0.06390
C         -2.96000        0.87900        0.28200
C         -3.95120        0.36690        1.11640
C         -5.05590        1.13300        1.43900
C         -5.19110        2.41270        0.92600
C         -4.21130        2.92760        0.09300
C         -3.09890        2.17020       -0.22340
C         -1.93730       -1.21730       -0.58040
C         -3.09230       -1.97610       -0.86950
C         -2.65860       -3.19970       -1.33810
C         -1.26260       -3.16190       -1.34080
N         -0.83830       -1.98370       -0.88960
B          0.61600       -1.46730       -0.91610
F          0.97180       -1.28010       -2.24430
F          1.45610       -2.37810       -0.32030
C         -0.13010        1.76060        0.85040
C          1.23570        1.74800        0.94750
C          3.94720        0.48320        1.26860
C          5.28240        0.14350        1.22300
H          7.57650       -0.59590        0.81900
H          5.38800       -1.23890       -1.85250
H          3.00550       -0.64420       -1.77660
H         -3.83490       -0.62320        1.53110
H         -5.81450        0.73020        2.09370
H         -6.05720        3.00720        1.17550
H         -4.31410        3.92370       -0.31130
H         -2.34110        2.56360       -0.88450
H         -4.10480       -1.64380       -0.75160
H         -3.26430       -4.02800       -1.64850
H         -0.56310       -3.91630       -1.64500
H         -0.80910        2.49520        1.23680
H          1.86130        2.49300        1.39830
H          3.55060        0.95080        2.15720
H          5.92640        0.35950        2.06600
