60

C          5.67110        1.42090        5.92770
C          5.51820        0.15970        5.08680
C          5.03310        0.47980        3.67610
C          4.87730       -0.78560        2.82580
N          4.44240       -0.47950        1.49100
C          5.26580       -0.15290        0.43810
C          6.65190       -0.12030        0.37300
C          7.23480        0.22890       -0.82990
C          6.46560        0.54320       -1.94810
C          5.08650        0.51760       -1.89050
C          4.47790        0.16920       -0.69250
C          3.10880        0.04510       -0.27860
C          1.90070        0.23130       -0.92750
C          0.72090        0.01900       -0.21760
C         -0.52370        0.19130       -0.85520
C         -1.59150        0.33030       -1.40620
C         -2.82020        0.50110       -2.06850
C         -2.86850        1.26810       -3.23650
C         -4.05280        1.45390       -3.91240
C         -5.24080        0.87610       -3.45350
C         -6.47930        1.04630       -4.13480
C         -7.61740        0.47220       -3.67860
C         -7.62040       -0.32540       -2.49690
C         -8.78040       -0.93100       -2.01110
C         -8.74770       -1.69930       -0.86180
C         -7.56450       -1.88190       -0.17020
C         -6.37930       -1.29580       -0.61860
C         -5.14070       -1.46330        0.06610
C         -4.00190       -0.89000       -0.39000
C         -3.99740       -0.09610       -1.57170
C         -5.21180        0.09220       -2.27300
C         -6.40250       -0.50820       -1.79590
C          0.76410       -0.37000        1.13250
C          1.95990       -0.55140        1.79170
C          3.13850       -0.34790        1.08310
H          6.38890        2.09890        5.47130
H          6.01980        1.17380        6.92740
H          4.71890        1.93940        6.01430
H          6.47890       -0.35760        5.03000
H          4.80750       -0.51520        5.56960
H          4.07110        0.99530        3.72520
H          5.74320        1.15000        3.18610
H          4.14790       -1.45760        3.28690
H          5.83270       -1.31520        2.76860
H          7.26410       -0.35720        1.23030
H          8.31200        0.26040       -0.90500
H          6.96000        0.81120       -2.86990
H          4.48960        0.76260       -2.75610
H          1.86510        0.53050       -1.96420
H         -1.95590        1.71760       -3.60120
H         -4.07270        2.05230       -4.81250
H         -6.48680        1.64890       -5.03250
H         -8.55260        0.60650       -4.20400
H         -9.70980       -0.79360       -2.54550
H         -9.65550       -2.16150       -0.50110
H         -7.54770       -2.48380        0.72730
H         -5.13280       -2.06550        0.96390
H         -3.06480       -1.02330        0.13150
H         -0.16780       -0.52150        1.65770
H          1.96990       -0.84310        2.83140
