72

C        -10.51420       -0.55650        2.07530
C        -10.17010       -0.36600        0.59860
N         -8.89930        0.28720        0.43070
C         -8.69780        1.64920        0.41010
C         -9.62160        2.68300        0.47260
C         -9.14560        3.97900        0.41750
C         -7.78390        4.25060        0.30510
C         -6.85850        3.22780        0.24600
C         -7.31310        1.91720        0.29950
C         -6.65660        0.64020        0.27110
C         -5.33090        0.25590        0.18040
C         -5.03060       -1.10550        0.18340
C         -3.69760       -1.54180        0.08790
C         -2.55510       -1.93060        0.00360
C         -1.23320       -2.39600       -0.10220
C         -0.14840       -1.51410       -0.12040
C          1.12520       -2.07300       -0.23860
C          2.27640       -1.26460       -0.26760
C          3.26680       -0.57040       -0.29170
C          4.41060        0.24760       -0.31870
C          4.28850        1.61850       -0.02820
C          5.38200        2.45450       -0.03940
C          6.62310        1.91020       -0.35520
C          6.75820        0.52810       -0.65010
C          5.65320       -0.30310       -0.62980
C          8.15170        0.30850       -0.91900
C          8.89430       -0.81420       -1.25910
C         10.25480       -0.67320       -1.44570
C         10.87430        0.56560       -1.29540
C         10.15590        1.69650       -0.95760
C          8.78690        1.56380       -0.77250
N          7.84640        2.51730       -0.45030
C          8.12510        3.89830       -0.15930
C          8.46640        4.10530        1.31590
N          1.29000       -3.40640       -0.32910
C          0.19470       -4.12710       -0.29450
S          0.45510       -5.92350       -0.40470
C          2.25710       -6.07610       -0.56450
O          0.05080       -6.52200        0.83870
O         -0.15720       -6.40820       -1.61180
N         -1.04350       -3.72460       -0.18850
C         -6.05530       -2.06520        0.28040
C         -7.37700       -1.69440        0.37440
C         -7.68200       -0.33650        0.36610
H        -11.47800       -1.04830        2.17560
H         -9.75700       -1.16620        2.56290
H        -10.55740        0.40640        2.57910
H        -10.93760        0.23980        0.10930
H        -10.13170       -1.33500        0.09400
H        -10.68020        2.49150        0.56380
H         -9.84520        4.80050        0.46440
H         -7.45270        5.27750        0.26560
H         -5.80300        3.43800        0.16050
H         -4.54150        0.98860        0.10720
H         -0.28910       -0.44740       -0.04860
H          3.31170        2.01120        0.21260
H          5.26860        3.50240        0.19410
H          5.74060       -1.35590       -0.85020
H          8.41400       -1.77400       -1.37370
H         10.85230       -1.53250       -1.71050
H         11.94110        0.64340       -1.44480
H         10.65350        2.64750       -0.84150
H          8.96010        4.22210       -0.78660
H          7.24900        4.49380       -0.42940
H          9.34020        3.51690        1.58600
H          7.63430        3.79280        1.94270
H          8.67640        5.15380        1.50900
H          2.55750       -5.54970       -1.45980
H          2.48170       -7.13270       -0.63810
H          2.70760       -5.64090        0.31660
H         -5.78250       -3.10960        0.28260
H         -8.14860       -2.44510        0.45390
