57

C          5.77940       -1.48810        1.22370
C          5.78450        0.00520        1.53250
O          4.50050        0.58330        1.41420
C          3.89720        0.59300        0.17020
C          4.55460        0.63820       -1.04680
C          3.82100        0.68510       -2.22310
C          2.44280        0.65320       -2.18870
C          1.76470        0.57080       -0.97570
C          0.29570        0.50210       -0.94170
N         -0.34200        1.35390       -1.73860
C         -1.64580        1.49030       -1.63590
C         -2.40590        0.84130       -0.64590
C         -1.78060       -0.19200        0.04930
C         -0.40530       -0.40240       -0.13220
C          0.23110       -1.53530        0.54380
C          1.34600       -2.18880        0.02580
C          1.95250       -3.21100        0.73210
C          1.44580       -3.60520        1.95870
C          0.29770       -3.00690        2.45010
C         -0.32330       -1.98940        1.74700
C         -1.62010       -1.38150        2.19490
C         -2.48450       -1.16390        0.95270
C         -3.78880        1.29800       -0.46570
C         -4.39540        1.40600        0.78220
C         -5.69970        1.85360        0.89410
C         -6.40970        2.21490       -0.23720
C         -5.78980        2.18200       -1.47550
C         -4.48220        1.74590       -1.59780
C         -3.73620        1.79770       -2.89910
C         -2.34660        2.37450       -2.62400
C          2.49510        0.57940        0.21290
O          1.86800        0.58100        1.41760
H          5.49990       -1.66050        0.18660
H          5.06110       -1.99750        1.86240
H          6.76790       -1.90340        1.39820
H          6.50750        0.53000        0.89640
H          6.05940        0.17740        2.57670
H          5.63260        0.64930       -1.08970
H          4.33980        0.73800       -3.16800
H          1.86350        0.67560       -3.09780
H          1.73520       -1.90350       -0.93980
H          2.82200       -3.70380        0.32110
H          1.92640       -4.39490        2.51810
H         -0.12640       -3.34180        3.38670
H         -1.43400       -0.42020        2.68510
H         -2.12240       -2.03720        2.90810
H         -3.48710       -0.83260        1.20990
H         -2.57780       -2.11870        0.42110
H         -3.83420        1.18040        1.67670
H         -6.15930        1.92780        1.86900
H         -7.43210        2.55250       -0.15290
H         -6.32450        2.51230       -2.35500
H         -4.27420        2.41040       -3.62370
H         -3.63260        0.79010       -3.31480
H         -2.44370        3.38350       -2.21130
H         -1.74760        2.43800       -3.53230
H          2.55990        0.56340        2.09550
