55

C         -1.03920        4.33850       -0.71210
C         -0.64340        3.78900        0.65000
O         -0.34950        2.39250        0.58580
C         -1.39390        1.55800        0.62950
O         -2.53930        1.89760        0.79420
C         -0.97480        0.15690        0.50490
C          0.18630       -0.40760       -0.08240
C          1.25590        0.32180       -0.74860
C          2.57260        0.14300       -0.47430
Cl         3.06540       -1.01410        0.69220
C          3.57350        0.94130       -1.12610
C          4.94750        0.82930       -0.89050
C          5.85200        1.64840       -1.53410
C          7.32370        1.52570       -1.28920
C          5.37220        2.60610       -2.43350
C          4.02520        2.73810       -2.68520
C          3.11550        1.90550       -2.03710
O          1.80330        2.05880       -2.32800
C          0.83050        1.29130       -1.76490
O         -0.30180        1.43610       -2.14630
N          0.15920       -1.72100        0.02990
N         -0.96940       -2.03790        0.66420
C         -1.27120       -3.38400        0.91890
C         -2.10590       -3.75130        1.96740
C         -2.38510       -5.09010        2.17690
C         -1.82920       -6.05950        1.35900
C         -0.98040       -5.68950        0.32830
C         -0.69920       -4.35550        0.10380
C         -1.69030       -0.93520        0.97210
C         -3.01490       -0.86210        1.65130
O         -3.16330       -0.49420        2.78590
O         -3.97890       -1.23840        0.82050
C         -5.32650       -1.02230        1.25260
C         -5.78900        0.36660        0.84040
H         -1.21470        5.40820       -0.63650
H         -0.25330        4.15200       -1.43940
H         -1.94700        3.85000       -1.05620
H          0.27610        4.25250        1.01530
H         -1.45220        3.94430        1.37220
H          5.28810        0.08420       -0.18840
H          7.73790        2.48330       -0.97890
H          7.83260        1.22510       -2.20400
H          7.53040        0.78850       -0.51890
H          6.07400        3.25180       -2.93980
H          3.65020        3.47230       -3.37980
H         -2.51700       -3.00520        2.62820
H         -3.03480       -5.37540        2.99050
H         -2.05190       -7.10180        1.52960
H         -0.53840       -6.44270       -0.30610
H         -0.04160       -4.04450       -0.69190
H         -5.91450       -1.80510        0.76860
H         -5.37120       -1.13700        2.34050
H         -5.78540        0.45710       -0.24260
H         -6.79290        0.54730        1.21360
H         -5.11160        1.11310        1.24880
