28

N          5.44990       -0.18870       -0.10780
C          4.09550       -0.05180       -0.01730
C          3.54070        1.02490        0.70220
C          2.18600        1.21120        0.76010
C          1.32180        0.32560        0.09840
N         -0.02070        0.49850        0.15290
C         -0.82030       -0.32250       -0.46010
C         -2.25570       -0.05780       -0.34590
C         -3.23650       -0.86280       -0.92820
C         -4.57510       -0.55010       -0.77560
C         -4.96200        0.56100       -0.04600
C         -3.99610        1.36780        0.53720
C         -2.65970        1.06350        0.38980
C         -0.29930       -1.47150       -1.23660
O         -0.93990       -2.29300       -1.84610
O          1.06200       -1.61430       -1.26450
C          1.88040       -0.74780       -0.62020
C          3.24890       -0.93970       -0.67850
H          5.82200       -1.05250       -0.46190
H          6.02900        0.32990        0.52890
H          4.20620        1.70700        1.21040
H          1.75330        2.03120        1.30990
H         -2.95290       -1.73080       -1.49880
H         -5.32270       -1.18220       -1.23200
H         -6.00960        0.79870        0.06860
H         -4.29040        2.23660        1.10790
H         -1.89940        1.68300        0.83810
H          3.64430       -1.77310       -1.23770
