64

C         12.86080        0.41480        0.48180
C         11.52970        0.16250       -0.16330
C         11.49740       -0.29270       -1.49070
C         10.31710       -0.54660       -2.15630
C          9.14190       -0.33220       -1.45540
N          7.81890       -0.47280       -1.77750
C          7.09430       -0.10720       -0.66750
C          5.64750       -0.11960       -0.60690
C          5.02360        0.29890        0.57110
C          3.65040        0.30690        0.67450
C          2.85050       -0.10960       -0.39060
C          1.38700       -0.10460       -0.27990
C          0.62590       -1.14840       -0.80330
C         -0.74970       -1.14310       -0.69720
C         -1.41390       -0.09340       -0.06480
C         -2.87720       -0.08550        0.04830
C         -3.67640       -0.51020       -1.01180
C         -5.05250       -0.49900       -0.91360
C         -5.67500       -0.06570        0.25750
C         -7.11420       -0.03420        0.41510
N         -7.72200        0.39180        1.49380
C         -9.05970        0.26380        1.25460
C        -10.15290        0.56860        2.06070
C        -11.42020        0.33650        1.56410
C        -12.63640        0.64100        2.38870
C        -11.59240       -0.19450        0.27620
C        -10.52810       -0.50470       -0.54350
C         -9.25890       -0.26990       -0.04130
N         -8.00100       -0.44830       -0.55070
C         -4.87580        0.35700        1.32280
C         -3.50290        0.34940        1.21770
C         -0.65250        0.95070        0.45820
C          0.72300        0.94510        0.35300
C          3.47510       -0.53070       -1.56340
C          4.85030       -0.53350       -1.67470
N          7.86430        0.25220        0.32860
C          9.14860        0.12750       -0.11660
C         10.35550        0.37540        0.53130
H         12.73770        0.72580        1.51600
H         13.47240       -0.48690        0.45930
H         13.40030        1.19590       -0.05390
H         12.43560       -0.44820       -2.00380
H         10.31080       -0.89720       -3.17800
H          7.45400       -0.78090       -2.66190
H          5.64900        0.61170        1.39180
H          3.18450        0.61780        1.59800
H          1.12200       -1.98440       -1.27490
H         -1.31810       -1.97550       -1.08650
H         -3.21150       -0.83150       -1.93270
H         -5.63720       -0.82690       -1.76160
H        -10.00020        0.97600        3.04760
H        -13.29860        1.32240        1.85490
H        -13.19430       -0.27300        2.59320
H        -12.35840        1.09600        3.33600
H        -12.59850       -0.36360       -0.07990
H        -10.67910       -0.91210       -1.53250
H         -7.77620       -0.81650       -1.45850
H         -5.36680        0.68590        2.22470
H         -2.89990        0.66290        2.05710
H         -1.14890        1.78600        0.93020
H          1.29250        1.77560        0.74390
H          2.87230       -0.83870       -2.40550
H          5.29630       -0.86110       -2.60310
H         10.35970        0.72480        1.55170
