84

C         -2.10630       -3.11590       -2.98680
C         -3.08300       -1.95290       -2.85760
C         -4.42590       -2.35330       -2.24650
C         -4.32750       -2.77270       -0.77230
C         -3.82920       -1.64620        0.06850
C         -4.56020       -0.48220        0.39960
C         -3.70500        0.35240        1.07630
C         -3.90870        1.65230        1.68010
C         -2.85160        2.31070        2.31240
C         -3.05300        3.54200        2.90340
C         -4.30500        4.13400        2.88220
C         -5.36480        3.49590        2.25020
C         -6.73760        4.12590        2.20630
O         -7.79220        3.20030        2.34540
C         -7.86580        2.62830        3.62720
C         -5.16150        2.26380        1.65090
O         -2.48630       -0.23030        1.16410
C         -2.56200       -1.44210        0.56670
C         -1.36470       -2.27340        0.53590
C         -1.43220       -3.63530        0.82930
C         -0.28830       -4.41020        0.77640
C          0.92970       -3.84690        0.44580
C          1.02050       -2.48140        0.17360
C          2.28210       -1.85730       -0.19080
O          2.22360       -0.79020       -1.02360
C          3.48420       -0.36200       -1.25030
C          3.69830        0.75380       -2.14780
C          2.61010        1.40540       -2.73140
C          2.81370        2.46230       -3.59690
C          4.09750        2.87980       -3.90010
C          5.19260        2.24340       -3.32540
C          6.58850        2.70700       -3.67060
O          6.72370        4.10990       -3.71640
C          6.59600        4.72170       -2.45770
C          4.98900        1.19160       -2.44970
C          4.36090       -1.14700       -0.54090
C          3.59640       -2.11620        0.14460
C          4.15430       -3.12360        1.09570
C          3.58860       -2.96470        2.51250
C          3.80410       -1.57030        3.10110
C          5.27310       -1.22900        3.32140
C         -0.13590       -1.70580        0.21960
H         -1.81440       -3.49430       -2.01060
H         -1.20440       -2.79230       -3.50150
H         -2.55340       -3.92820       -3.55640
H         -3.26910       -1.53660       -3.85070
H         -2.62950       -1.16700       -2.25030
H         -4.84870       -3.18180       -2.81940
H         -5.11270       -1.50740       -2.32480
H         -3.66550       -3.63250       -0.68620
H         -5.32110       -3.06830       -0.42640
H         -5.58850       -0.29830        0.16400
H         -1.87900        1.84360        2.33690
H         -2.23080        4.04360        3.39260
H         -4.45970        5.09330        3.35500
H         -6.89640        4.59030        1.22680
H         -6.81360        4.90780        2.97810
H         -8.71730        1.95090        3.61480
H         -6.95630        2.06800        3.87300
H         -8.02320        3.39790        4.39380
H         -5.99540        1.77720        1.16940
H         -2.37430       -4.07620        1.11770
H         -0.34680       -5.46650        0.99550
H          1.80720       -4.46880        0.37980
H          1.61030        1.07240       -2.49880
H          1.96630        2.96190       -4.04290
H          4.26630        3.70400       -4.57690
H          6.84890        2.36530       -4.67830
H          7.31160        2.27820       -2.95920
H          5.60790        4.54090       -2.01880
H          7.36210        4.35560       -1.76210
H          6.73280        5.78920       -2.61760
H          5.83870        0.69890       -2.00150
H          5.42740       -1.05270       -0.50660
H          5.23910       -3.01000        1.11940
H          3.94490       -4.13660        0.74270
H          4.06020       -3.70630        3.16170
H          2.51640       -3.17060        2.49090
H          3.28060       -1.51840        4.05870
H          3.35390       -0.82730        2.43960
H          5.80280       -1.15690        2.37540
H          5.36500       -0.27270        3.83130
H          5.75480       -1.99030        3.93180
H         -0.07770       -0.65010        0.00190
