19

Cl         4.46900        1.71030       -0.25140
C          3.14120        0.63290       -0.08340
C          3.38630       -0.74120        0.14350
N          2.42590       -1.61840        0.28110
C          1.18340       -1.12410        0.19200
N          0.03070       -1.79650        0.29470
N         -0.91750       -0.88990        0.13990
C         -2.23780       -1.16290        0.17610
C         -3.14080       -0.15300        0.00470
C         -2.70620        1.16650       -0.20880
C         -1.36250        1.44230       -0.24530
C         -0.45490        0.40010       -0.06850
C          0.94920        0.27380       -0.03870
N          1.94180        1.15370       -0.17650
H          4.39870       -1.11240        0.21090
H         -2.50160       -2.19450        0.34350
H         -4.19480       -0.37610        0.03440
H         -3.43130        1.95280       -0.34240
H         -0.97890        2.43650       -0.40580
