73

C         -1.86890        2.55480        1.62680
C         -3.19520        3.12460        2.11530
C         -4.41870        2.56040        1.38960
C         -4.62440        1.05380        1.60420
C         -4.13420        0.19830        0.42650
C         -5.12720        0.26120       -0.74500
C         -4.46570        0.14460       -2.11460
C         -3.91170       -1.24390        0.91740
N         -3.35090       -2.10830       -0.08440
C         -4.01000       -3.06130       -0.81900
C         -5.32960       -3.47550       -0.75590
C         -5.73700       -4.47880       -1.63170
C         -7.07790       -4.91920       -1.59210
N         -8.16870       -5.27260       -1.55620
C         -4.85050       -5.06050       -2.55250
C         -3.53770       -4.65000       -2.61040
C         -3.10640       -3.64970       -1.74590
C         -1.84670       -3.00110       -1.54830
C         -0.59450       -3.13150       -2.14260
C          0.43290       -2.32480       -1.71180
C          0.23140       -1.38280       -0.68670
C          1.28830       -0.54930       -0.27210
C          2.17290        0.18960        0.09460
C          3.17800        1.07400        0.52430
C          2.81430        2.22540        1.22920
C          3.76670        3.12060        1.65980
C          5.12480        2.90140        1.40710
C          6.13220        3.80960        1.84010
C          7.44210        3.57870        1.58800
C          7.86470        2.41620        0.87900
C          9.20960        2.15720        0.60910
C          9.58480        1.01910       -0.08100
C          8.63430        0.11490       -0.51780
C          7.27740        0.33250       -0.27140
C          6.26960       -0.57680       -0.70570
C          4.95900       -0.34580       -0.45610
C          4.53680        0.81550        0.25090
C          5.51300        1.73730        0.69770
C          6.88340        1.49550        0.43510
C         -1.01280       -1.24490       -0.07510
C         -2.04630       -2.05340       -0.51360
H         -1.04130        3.05840        2.12200
H         -1.75970        2.69550        0.55340
H         -1.79530        1.49360        1.85000
H         -3.18460        4.20830        1.97570
H         -3.29500        2.93400        3.18670
H         -4.32630        2.77220        0.32290
H         -5.29670        3.09880        1.75220
H         -5.68450        0.84270        1.76050
H         -4.10310        0.75530        2.51640
H         -3.17420        0.59020        0.08150
H         -5.87690       -0.52510       -0.63500
H         -5.65590        1.21560       -0.70520
H         -3.97530       -0.81530       -2.24770
H         -3.72140        0.92780       -2.24560
H         -5.21230        0.25050       -2.89860
H         -4.86060       -1.66800        1.25280
H         -3.22940       -1.23030        1.77570
H         -6.03800       -3.05190       -0.05960
H         -5.21590       -5.83360       -3.21150
H         -2.85190       -5.09510       -3.31500
H         -0.43670       -3.85300       -2.93000
H          1.41220       -2.40070       -2.16050
H          1.76690        2.40380        1.42720
H          3.46910        4.00780        2.20070
H          5.82150        4.69380        2.37900
H          8.19920        4.27440        1.92130
H          9.95920        2.85870        0.94680
H         10.63060        0.83480       -0.28060
H          8.93620       -0.77220       -1.05620
H          6.58010       -1.46200       -1.24270
H          4.19950       -1.03980       -0.78650
H         -1.14070       -0.52400        0.71710
