56

C         -4.50730       -2.21820       -0.87560
C         -3.26270       -2.63620       -0.11490
O         -2.29120       -1.60250       -0.25860
C         -1.10720       -1.80350        0.33590
O         -0.84250       -2.79440        0.97410
C         -0.18280       -0.69730        0.08830
C         -0.35960        0.45790       -0.71820
C         -1.57830        0.86870       -1.41330
C         -2.71280        1.21800       -0.76090
Cl        -2.74060        1.26130        0.95580
C         -3.90750        1.55470       -1.48280
C         -5.12180        1.90690       -0.88490
C         -6.22040        2.20000       -1.66010
C         -6.13150        2.15060       -3.04840
C         -4.94490        1.80810       -3.66090
C         -3.82720        1.50800       -2.88460
O         -2.68870        1.17600       -3.52950
C         -1.53440        0.84320       -2.87890
O         -0.57670        0.53890       -3.53640
N          0.76210        1.14340       -0.78540
N          1.66460        0.48780       -0.06040
C          2.97080        0.98790        0.04910
C          3.72900        0.78680        1.19200
C          5.02120        1.27580        1.26460
C          5.56210        1.98470        0.19540
O          6.81460        2.50230        0.16120
C          7.66870        2.28690        1.26010
C          4.77870        2.20650       -0.94210
C          3.49740        1.71380       -1.01730
C          1.14780       -0.62810        0.49520
C          1.90510       -1.64250        1.27760
O          2.80030       -2.30370        0.82170
O          1.44560       -1.70160        2.52050
C          1.91140       -2.76280        3.36140
C          0.72430       -3.60160        3.80420
H         -4.90750       -1.29430       -0.46550
H         -5.26040       -2.99700       -0.80020
H         -4.26700       -2.05560       -1.92320
H         -3.47350       -2.77990        0.95120
H         -2.84700       -3.57060       -0.50850
H         -5.17920        1.94420        0.19160
H         -7.15360        2.47000       -1.19070
H         -6.99610        2.38230       -3.65100
H         -4.85310        1.76480       -4.73410
H          3.31420        0.26120        2.03780
H          5.59170        1.10200        2.16260
H          8.61300        2.75920        0.99480
H          7.27660        2.75060        2.17080
H          7.83470        1.21960        1.43570
H          5.20890        2.76430       -1.75790
H          2.88570        1.87230       -1.89070
H          2.63200       -3.36270        2.79680
H          2.41310       -2.29720        4.21590
H          0.06270       -3.01450        4.43560
H          1.07240       -4.46920        4.35730
H          0.16740       -3.92530        2.92880
