91

C         -5.29150        0.11510        2.01390
C         -4.23000        1.15520        2.35210
C         -3.97390        2.13550        1.20600
C         -3.14400        1.51950        0.08200
C         -2.89920        2.47700       -1.08450
C         -4.13350        2.81400       -1.92590
C         -4.77360        1.59970       -2.61540
C         -6.01770        1.08520       -1.89310
C         -6.58490       -0.17120       -2.55080
C         -7.75780       -0.73170       -1.74940
C         -8.41890       -1.95420       -2.38840
C         -7.52100       -3.19150       -2.45100
O         -7.13020       -3.62210       -1.14640
C         -5.90600       -3.27210       -0.76340
N         -4.96770       -2.74020       -1.48610
C         -3.90410       -2.56370       -0.62710
C         -2.66260       -2.00310       -0.86560
C         -1.77490       -1.90790        0.20650
N         -0.50230       -1.37900        0.10080
C         -0.21450       -0.46630       -0.73820
C          1.11830        0.08080       -0.83520
C          2.14580       -0.34530        0.00400
C          3.41200        0.19640       -0.05270
C          3.68930        1.20230       -0.97810
O          4.87530        1.84370       -1.12730
C          5.96330        1.51850       -0.28480
C          6.69050        0.24400       -0.72220
C          7.72760       -0.21420        0.30230
C          8.88270        0.77280        0.46440
C         10.01290        0.23940        1.34650
C          9.61130        0.09560        2.81350
C         10.76380       -0.36240        3.70920
C         11.83590        0.70340        3.90540
C          2.67540        1.63280       -1.83480
C          1.40500        1.09180       -1.77170
O          0.41770        1.52000       -2.60040
C         -2.13030       -2.40300        1.47390
C         -3.36560       -2.96320        1.72100
C         -4.25080       -3.03190        0.66050
N         -5.54700       -3.48860        0.53930
H         -5.44620       -0.55540        2.85690
H         -6.23910        0.59880        1.78230
H         -4.98610       -0.48350        1.15990
H         -4.55590        1.71430        3.23310
H         -3.29670        0.64740        2.60600
H         -4.93280        2.48460        0.81860
H         -3.43920        3.00660        1.59440
H         -3.62180        0.61220       -0.28640
H         -2.17510        1.22600        0.49550
H         -2.48270        3.40910       -0.69150
H         -2.14480        2.03850       -1.74230
H         -4.87890        3.31340       -1.30460
H         -3.81990        3.53410       -2.68590
H         -5.05700        1.86730       -3.63630
H         -4.04190        0.79290       -2.68510
H         -6.77980        1.87000       -1.88440
H         -5.76950        0.85490       -0.85750
H         -6.91290        0.06020       -3.56730
H         -5.79490       -0.92140       -2.60740
H         -7.41200       -0.99430       -0.74660
H         -8.51830        0.04580       -1.63720
H         -8.72470       -1.71670       -3.40900
H         -9.31380       -2.20960       -1.81610
H         -6.62470       -2.99970       -3.04320
H         -8.07650       -4.02840       -2.88420
H         -2.39130       -1.67240       -1.85520
H         -0.95280       -0.01250       -1.40580
H          1.91260       -1.12140        0.71550
H          4.16830       -0.16520        0.62450
H          5.63050        1.43350        0.75700
H          6.63080        2.38010       -0.36480
H          5.95310       -0.54860       -0.86760
H          7.17110        0.42550       -1.68550
H          8.13010       -1.17740       -0.01950
H          7.23320       -0.36580        1.26360
H          9.28850        0.99800       -0.52490
H          8.51310        1.70630        0.89260
H         10.34350       -0.73010        0.96630
H         10.85540        0.92900        1.27300
H          9.23280        1.05320        3.17910
H          8.80350       -0.63410        2.89360
H         11.21670       -1.25990        3.28180
H         10.35750       -0.63210        4.68700
H         11.39660        1.61500        4.30490
H         12.33000        0.94220        2.96720
H         12.59190        0.35300        4.60450
H          2.90750        2.41240       -2.54700
H          0.75780        2.21550       -3.17680
H         -1.40460       -2.31310        2.26680
H         -3.63060       -3.32950        2.70150
H         -6.12510       -3.90070        1.25010
