18

N          3.41250       -0.53440       -0.50280
C          2.13740       -0.16330       -0.30520
N          1.20020       -1.08820       -0.28390
C         -0.05120       -0.64320       -0.06490
C         -1.13750       -1.53920       -0.01690
C         -2.40360       -1.07070        0.20930
C         -2.65140        0.29750        0.39660
C         -1.61890        1.19690        0.35460
C         -0.31950        0.73290        0.12440
N          0.75470        1.61330        0.07170
O          0.57900        2.82120        0.22180
N          1.94830        1.16450       -0.13760
H          4.12370        0.17120       -0.55120
H          3.61850       -1.50200       -0.66650
H         -0.93340       -2.58750       -0.16180
H         -3.23160       -1.76320        0.24580
H         -3.65970        0.63760        0.57390
H         -1.76760        2.25690        0.49300
