74

C         10.07960       -3.64700        1.02200
C         10.22920       -2.68930        0.03180
C          9.23140       -1.76080       -0.19690
C          8.07000       -1.77930        0.57260
C          6.98930       -0.83130        0.34130
N          5.68740       -1.21540        0.48370
C          4.96790       -0.18430        0.14430
C          3.52600       -0.11900        0.12920
C          2.78180       -1.23980        0.50100
C          1.40530       -1.19110        0.48810
C          0.73340       -0.02640        0.11170
C         -0.73320        0.02300        0.10180
C         -1.41140        1.16000        0.54560
C         -2.78790        1.20870        0.54030
C         -3.52580        0.11610        0.08200
C         -4.96780        0.18200        0.07810
N         -5.69170        1.20100        0.44400
C         -6.99170        0.81800        0.28380
C         -8.07820        1.70760        0.66950
C         -9.25390        1.21820        1.23480
C        -10.25770        2.09070        1.61040
C        -10.10030        3.45590        1.43290
C         -8.92540        3.94920        0.88980
C         -7.91670        3.08230        0.51490
C         -7.00270       -0.47350       -0.21240
C         -8.04750       -1.38020       -0.64630
C         -9.25950       -0.89920       -1.14370
C        -10.23610       -1.78200       -1.56060
C        -10.01950       -3.14970       -1.49640
C         -8.81180       -3.63350       -1.02110
C         -7.82940       -2.75770       -0.60140
O         -5.70710       -0.87010       -0.32760
C         -2.85640       -1.02280       -0.36610
C         -1.47860       -1.06590       -0.35170
C          1.48500        1.09040       -0.25510
C          2.86290        1.04790       -0.25090
O          5.71190        0.88130       -0.21490
C          7.00620        0.48590       -0.08190
C          8.05660        1.45390       -0.33020
C          9.27930        1.37850        0.33840
C         10.26100        2.31870        0.09450
C         10.03900        3.34710       -0.80810
C          8.82110        3.43830       -1.46160
C          7.83360        2.50190       -1.22400
C          7.91610       -2.75830        1.55130
C          8.91860       -3.68230        1.77670
H         10.86360       -4.36870        1.19870
H         11.12670       -2.66920       -0.56920
H          9.34330       -1.02610       -0.98080
H          3.30870       -2.13330        0.79570
H          0.83640       -2.05620        0.79490
H         -0.84770        2.00170        0.91970
H         -3.31980        2.07950        0.88930
H         -9.37220        0.15570        1.38960
H        -11.16640        1.70410        2.04850
H        -10.88920        4.13340        1.72500
H         -8.79550        5.01380        0.76020
H         -6.99310        3.45300        0.09770
H         -9.42300        0.16550       -1.21210
H        -11.17120       -1.40110       -1.94410
H        -10.78770       -3.83540       -1.82150
H         -8.63540       -4.69830       -0.97660
H         -6.88750       -3.13140       -0.22810
H         -3.42570       -1.86610       -0.72730
H         -0.96760       -1.94410       -0.71800
H          0.97910        1.99180       -0.56840
H          3.43720        1.91480       -0.54150
H          9.44730        0.58960        1.05560
H         11.20430        2.25300        0.61650
H         10.81100        4.07820       -0.99650
H          8.64070        4.24230       -2.15990
H          6.88360        2.56860       -1.73330
H          7.00320       -2.77880        2.12620
H          8.79460       -4.43450        2.54210
