74

C          9.31130        2.25610        2.85000
C          8.44150        1.72660        1.71600
C          9.04670        0.47620        1.08110
C          8.15680       -0.15090        0.00860
C          8.01730        0.72280       -1.23650
C          7.28300        0.00470       -2.36860
N          5.92460       -0.36100       -1.98320
C          5.68090       -1.68390       -1.65830
O          6.56110       -2.51940       -1.72190
C          4.30770       -2.01650       -1.24070
C          3.99780       -3.32260       -0.92410
C          2.69280       -3.66440       -0.56890
C          1.71810       -2.70200       -0.48390
C          2.00560       -1.34740       -0.74370
C          1.03280       -0.30590       -0.65450
C         -0.27980       -0.53770       -0.09240
C         -0.63730       -1.29150        0.99890
C         -2.00500       -1.23430        1.29500
C         -2.71110       -0.43690        0.43090
C         -4.11830       -0.16690        0.43700
C         -4.84300        0.68740       -0.42140
C         -6.15210        0.60150        0.00180
C         -7.30780        1.35930       -0.46160
C         -8.17880        1.96540        0.44240
C         -9.24920        2.70890       -0.01640
C         -9.46230        2.86090       -1.37690
C         -8.59280        2.27320       -2.28050
C         -7.51870        1.52980       -1.82780
N         -6.15690       -0.27590        1.04850
C         -7.24950       -0.77340        1.77210
C         -8.47280       -1.01240        1.15500
C         -9.52560       -1.50920        1.90080
C         -9.36250       -1.78560        3.24830
C         -8.13410       -1.57400        3.85270
C         -7.07670       -1.06930        3.12000
N         -4.93700       -0.73610        1.31610
S         -1.67010        0.27410       -0.75680
C          1.36220        0.96540       -1.09790
C          2.64000        1.27120       -1.54730
C          3.62700        0.30440       -1.56000
C          3.31690       -1.01510       -1.17480
C          4.98590        0.65850       -1.99010
O          5.29380        1.78090       -2.34070
H         10.30200        2.51330        2.48130
H          9.42210        1.50540        3.62990
H          8.86780        3.14600        3.29090
H          7.44760        1.48830        2.10260
H          8.32690        2.50600        0.96120
H         10.01660        0.72640        0.64460
H          9.22050       -0.26420        1.86610
H          8.57990       -1.11430       -0.28510
H          7.16860       -0.34460        0.43440
H          7.47750        1.64000       -0.99940
H          9.00870        0.99710       -1.60240
H          7.21530        0.66230       -3.23860
H          7.79910       -0.91900       -2.63550
H          4.77480       -4.06960       -0.98250
H          2.44930       -4.69690       -0.36870
H          0.70620       -2.98750       -0.24280
H          0.07540       -1.82930        1.59880
H         -2.47780       -1.75190        2.10900
H         -4.44850        1.29530       -1.20960
H         -8.00930        1.86030        1.50430
H         -9.91840        3.17530        0.69150
H        -10.30150        3.44030       -1.73160
H         -8.75200        2.39400       -3.34180
H         -6.84200        1.06510       -2.52970
H         -8.59640       -0.81950        0.10050
H        -10.47620       -1.69040        1.42210
H        -10.18920       -2.17390        3.82370
H         -7.99970       -1.79990        4.89990
H         -6.11050       -0.90170        3.56920
H          0.61240        1.74230       -1.06090
H          2.88840        2.27080       -1.87020
