32

C          4.82170       -0.11950       -2.22360
C          3.95580        0.29020       -1.08490
C          2.63880        0.08030       -1.05650
C          1.68160        0.41360       -0.03500
N          0.43500        0.06840       -0.18940
C         -0.25840        0.50620        0.91560
C         -1.57880        0.37210        1.19770
C         -2.58970       -0.27110        0.41090
C         -2.30610       -0.88000       -0.82100
C         -3.29850       -1.49190       -1.54930
C         -4.60940       -1.51560       -1.07100
O         -5.55740       -2.13070       -1.82060
C         -4.90580       -0.91410        0.14980
C         -3.90970       -0.30180        0.87840
C          0.69250        1.18820        1.81580
O          0.52760        1.72750        2.89000
N          1.90750        1.08950        1.15170
C          3.10830        1.64930        1.70240
H          5.34900        0.74680       -2.62330
H          4.23950       -0.57820       -3.01830
H          5.57650       -0.82860       -1.88270
H          4.47430        0.77120       -0.27050
H          2.16520       -0.41460       -1.89450
H         -1.89370        0.80830        2.13820
H         -1.29010       -0.85540       -1.18040
H         -3.08940       -1.96300       -2.49670
H         -6.41480       -2.07740       -1.38040
H         -5.92230       -0.93130        0.52220
H         -4.14940        0.16170        1.82440
H          2.82070        2.12260        2.64370
H          3.84810        0.87300        1.90770
H          3.53180        2.40450        1.03750
