54

C         -6.08350        1.40960        2.38940
C         -4.88630        0.63540        1.85240
C         -4.41040        1.23180        0.51920
N         -3.25880        0.57900       -0.07030
C         -3.46910       -0.51990       -0.90920
C         -4.69020       -1.19780       -0.92240
C         -4.91640       -2.27860       -1.75740
C         -3.92280       -2.73730       -2.59980
C         -2.70300       -2.08630       -2.60310
C         -2.48540       -0.99050       -1.78540
S         -0.92470       -0.17770       -1.95980
C         -0.83540        0.63840       -0.39480
C          0.42530        0.99340        0.03550
C          0.61240        1.73560        1.20130
C          1.93410        2.11170        1.67630
C          3.05090        1.38620        1.55810
C          3.12890        0.00930        1.07510
C          2.29650       -0.95470        1.54360
C          2.38110       -2.33790        1.13010
O          1.65640       -3.22510        1.50720
O          3.37990       -2.65720        0.24160
C          4.22780       -1.72650       -0.24160
C          5.19770       -2.15580       -1.14620
C          6.10040       -1.27140       -1.70440
C          7.14330       -1.72790       -2.67020
C          6.00430        0.07850       -1.33810
Cl         7.10500        1.22350       -2.02490
C          5.05610        0.52340       -0.44590
C          4.15490       -0.37590        0.13220
C         -0.52880        2.14140        1.88550
C         -1.78890        1.75360        1.47410
C         -1.98890        0.97170        0.33130
H         -5.82220        2.45180        2.56100
H         -6.42110        0.98180        3.32980
H         -6.90980        1.37820        1.68220
H         -5.15750       -0.41230        1.71810
H         -4.07630        0.65830        2.58230
H         -4.16170        2.28790        0.66060
H         -5.22540        1.19410       -0.20930
H         -5.49520       -0.88970       -0.27840
H         -5.88080       -2.76340       -1.73680
H         -4.09020       -3.58320       -3.24730
H         -1.90580       -2.40670       -3.25610
H          1.27010        0.72480       -0.57990
H          1.99460        3.08050        2.15700
H          3.99230        1.80940        1.88390
H          1.52120       -0.72820        2.25800
H          5.22440       -3.20280       -1.40400
H          7.03050       -1.20590       -3.61950
H          8.13630       -1.49700       -2.28670
H          7.06900       -2.79740       -2.84200
H          5.00210        1.57100       -0.19620
H         -0.43150        2.74430        2.77650
H         -2.62500        2.08100        2.06680
