51

C         -3.99910       -4.62760       -2.04940
O         -3.27360       -3.48730       -2.44110
C         -2.69960       -2.71690       -1.47920
C         -1.98760       -1.60490       -1.93410
C         -1.36860       -0.75800       -1.04290
C         -1.43650       -0.99830        0.32640
C         -0.78060       -0.05010        1.29710
C         -1.54090        1.28580        1.40470
C         -0.50730        2.27430        0.89900
C         -0.72880        3.69140        0.75900
C         -1.95600        4.27200        1.08340
C         -2.14980        5.63180        0.94510
C         -1.12190        6.44430        0.47940
O         -1.27010        7.78530        0.32920
C          0.10840        5.87420        0.15200
C          0.29880        4.51990        0.29050
N          0.60630        1.70640        0.60240
N          0.54160        0.38630        0.82160
C          1.61710       -0.42710        0.60990
C          2.82260        0.13210        0.15520
C          3.92240       -0.66830       -0.05390
C          3.83500       -2.02780        0.18790
S          5.23880       -3.06240       -0.11620
N          5.01110       -3.45150       -1.74750
O          5.12150       -4.28090        0.63410
O          6.44710       -2.29330       -0.01870
C          2.65900       -2.59680        0.63580
C          1.54880       -1.80650        0.85010
C         -2.14530       -2.10080        0.77480
C         -2.77550       -2.95750       -0.11190
H         -4.85630       -4.36300       -1.42170
H         -4.35670       -5.08030       -2.97270
H         -3.36530       -5.34430       -1.51750
H         -1.93670       -1.42930       -2.99670
H         -0.82170        0.09750       -1.41100
H         -0.66980       -0.53100        2.27600
H         -2.43300        1.29010        0.77610
H         -1.83500        1.51620        2.42950
H         -2.76770        3.66010        1.44630
H         -3.10620        6.07030        1.19980
H         -2.16050        8.05140        0.58940
H          0.89530        6.51780       -0.20720
H          1.24610        4.07010        0.04110
H          2.86130        1.19480       -0.01930
H          4.86180       -0.26010       -0.39000
H          4.91400       -4.44560       -1.87550
H          5.75310       -3.08150       -2.31910
H          2.63630       -3.65820        0.82330
H          0.63230       -2.25590        1.19480
H         -2.21160       -2.30100        1.83520
H         -3.31680       -3.80560        0.27640
