43

C         -7.74760       -0.70780       -0.11770
N         -6.57340       -1.44740       -0.50890
C         -6.74340       -2.71270       -1.17830
C         -5.32490       -0.93830       -0.28790
C         -5.13470        0.23800        0.45840
C         -3.87860        0.74440        0.68870
C         -2.73050        0.11630        0.19150
C         -1.39510        0.60260        0.41000
C         -1.03340        1.68850        1.12310
C          0.32170        2.09610        1.29490
C          0.87220        3.15660        1.99200
N          2.21370        3.12950        1.86490
C          2.46840        2.08650        1.11490
C          3.72890        1.65130        0.70700
C          4.82090        1.27020        0.35070
C          6.09850        0.84720       -0.05190
C          7.23350        1.54540        0.37810
C          8.48800        1.13550       -0.01410
C          8.62910        0.01950       -0.84390
C          9.91530       -0.40130       -1.24730
N         10.95950       -0.74490       -1.57460
C          7.49930       -0.68080       -1.27560
C          6.24510       -0.27010       -0.88250
O          1.35240        1.41530        0.73560
C         -2.92290       -1.05200       -0.55630
C         -4.17430       -1.56800       -0.79180
H         -7.71400        0.31300       -0.50800
H         -7.84850       -0.66210        0.97210
H         -8.63330       -1.19240       -0.52130
H         -6.12940       -3.48440       -0.70740
H         -6.47390       -2.64990       -2.23870
H         -7.78310       -3.02340       -1.10810
H         -5.98150        0.75940        0.87380
H         -3.78560        1.64890        1.27020
H         -0.60660        0.01930       -0.05020
H         -1.75720        2.31940        1.61600
H          0.37920        3.91600        2.56300
H          7.11140        2.40570        1.01870
H          9.36780        1.66920        0.31410
H          7.61970       -1.54160       -1.91700
H          5.36620       -0.80430       -1.21120
H         -2.06060       -1.56250       -0.96240
H         -4.25830       -2.46530       -1.38280
