61

F          0.10270       -0.62400        1.20290
B          0.01440        0.22020        0.09620
F         -0.15900       -0.55460       -1.05090
N         -1.19480        1.16200        0.25760
C         -2.50340        0.87550        0.40080
N         -3.09850       -0.32970        0.43380
C         -2.54260       -1.64080        0.15640
C         -3.57200       -2.68680        0.47870
C         -3.42410       -3.51950        1.57910
C         -4.38900       -4.46630        1.87770
C         -5.51510       -4.58610        1.08170
C         -5.67230       -3.75770       -0.01690
C         -4.70580       -2.81440       -0.31600
C         -3.23550        2.08210        0.54710
C         -2.33820        3.11580        0.48300
C         -1.06370        2.54530        0.29510
C          0.16900        3.16800        0.15980
C          0.24820        4.64290        0.18700
C         -0.20940        5.40920       -0.88320
Cl        -0.86480        4.60730       -2.26270
C         -0.13430        6.79260       -0.86830
C          0.40660        7.43170        0.23340
C          0.86880        6.69930        1.31270
C          0.78660        5.31670        1.28170
Cl         1.34420        4.40040        2.63280
C          1.33040        2.42590       -0.00250
C          2.65840        2.86760       -0.16560
C          3.44330        1.74930       -0.27150
C          2.58860        0.62090       -0.17690
N          3.05520       -0.63760       -0.26300
C          2.36570       -1.89480       -0.04070
C          3.26500       -3.02110       -0.46580
C          4.35360       -3.37820        0.32160
C          5.20480       -4.39440       -0.07410
C          4.97670       -5.06500       -1.26410
C          3.89560       -4.71470       -2.05470
C          3.04590       -3.69620       -1.65850
N          1.31640        1.03620       -0.02250
H         -4.10650       -0.29540        0.46430
H         -1.65050       -1.79070        0.76300
H         -2.25410       -1.71040       -0.90030
H         -2.54670       -3.42530        2.20160
H         -4.26250       -5.11110        2.73480
H         -6.26800       -5.32450        1.31460
H         -6.54750       -3.84990       -0.64340
H         -4.82590       -2.17600       -1.18050
H         -4.29820        2.14020        0.68100
H         -2.54050        4.16670        0.55650
H         -0.49480        7.35540       -1.71420
H          0.46870        8.50850        0.25090
H          1.28950        7.18940        2.17590
H          2.96960        3.89360       -0.19490
H          4.50700        1.70170       -0.40180
H          4.06190       -0.70640       -0.27960
H          2.10380       -1.99860        1.02010
H          1.44570       -1.90830       -0.62250
H          4.52870       -2.86170        1.25530
H          6.04530       -4.66620        0.54760
H          5.63930       -5.86000       -1.57260
H          3.71440       -5.23590       -2.98320
H          2.20340       -3.42190       -2.27580
