54

C         -5.68270       -1.29190        3.59710
C         -5.87490       -1.58550        2.25660
C         -4.91280       -1.24760        1.32350
C         -3.74510       -0.60340        1.72680
C         -2.70110       -0.25000        0.77460
N         -1.38790       -0.32600        1.13190
C         -0.71270       -0.01280        0.06270
C          0.71260        0.03710       -0.05580
N          1.38790        0.34770       -1.12580
C          2.70130        0.25170       -0.77410
C          3.74670        0.47440       -1.76360
C          4.93020       -0.26080       -1.75270
C          5.89340       -0.03680       -2.71820
C          5.68690        0.91390       -3.70500
C          4.50270        1.63190       -3.73330
C          3.53420        1.41110       -2.77250
C          2.76410       -0.11360        0.56180
C          3.84460       -0.30830        1.50930
C          5.06410        0.35500        1.36700
C          6.07190        0.15430        2.29000
C          5.87860       -0.69850        3.36560
C          4.66270       -1.34320        3.52390
C          3.64870       -1.14900        2.60610
O          1.48760       -0.25650        1.00090
O         -1.48770        0.27760       -0.99500
C         -2.76420        0.14120       -0.55390
C         -3.84620        0.45170       -1.46840
C         -5.07830        0.91510       -1.00550
C         -6.08730        1.20910       -1.90180
C         -5.88280        1.05420       -3.26410
C         -4.65460        0.61500       -3.73080
C         -3.63940        0.31830       -2.84230
C         -3.54660       -0.33320        3.07890
C         -4.51380       -0.67130        4.00620
H         -6.43950       -1.55450        4.32170
H         -6.77790       -2.08480        1.93700
H         -5.05680       -1.49380        0.28180
H          5.08580       -1.01510       -0.99540
H          6.80880       -0.61020       -2.70380
H          6.44460        1.08780       -4.45490
H          4.33370        2.36500       -4.50840
H          2.60340        1.95650       -2.78670
H          5.20990        1.03470        0.54150
H          7.01320        0.67070        2.17300
H          6.67160       -0.85420        4.08190
H          4.50440       -2.00040        4.36620
H          2.69840       -1.64730        2.72440
H         -5.23330        1.05540        0.05330
H         -7.03850        1.56680       -1.53610
H         -6.67670        1.28230       -3.95960
H         -4.48770        0.50290       -4.79200
H         -2.67960       -0.02310       -3.19960
H         -2.62740        0.14260        3.38360
H         -4.35590       -0.45220        5.05210
