56

C          8.94740       -2.49700       -0.16510
O          8.71700       -1.11330       -0.05490
C          7.43670       -0.66960        0.04480
C          6.30470       -1.48060        0.05210
C          5.04830       -0.91810        0.15760
C          4.87010        0.46340        0.25840
C          3.57630        1.09520        0.36780
C          2.37390        0.48930        0.42600
C          1.14810        1.21350        0.53220
C         -0.06320        0.63130        0.61190
C         -1.27730        1.40440        0.69020
N         -1.30420        2.67050        0.48510
C         -2.67220        3.12980        0.64280
C         -3.00990        4.08860       -0.48130
O         -2.79490        5.27390       -0.45260
N         -3.55490        3.48650       -1.58440
C         -4.08840        2.19750       -1.58080
N         -4.64290        1.79720       -2.75690
N         -4.16160        1.45840       -0.55100
C         -3.52980        1.83810        0.67750
N         -2.50580        0.84430        1.00960
C         -2.74140       -0.55530        1.13190
C         -4.09990       -0.92990        1.73360
C         -4.40330       -2.28600        1.08430
O         -3.86740       -3.37450        1.78710
C         -3.77550       -2.10580       -0.30680
C         -4.75040       -1.48790       -1.32090
O         -4.04230       -1.01740       -2.44410
O         -2.66010       -1.24130       -0.12490
C          6.02060        1.26470        0.24850
C          7.27550        0.71510        0.14540
H          8.58320       -3.03680        0.71490
H          8.48210       -2.91160       -1.06520
H         10.02800       -2.61110       -0.23450
H          6.39230       -2.55330       -0.02480
H          4.19040       -1.57230        0.15800
H          3.59740        2.17770        0.40850
H          2.29540       -0.58890        0.39540
H          1.19380        2.29320        0.55230
H         -0.16000       -0.44400        0.58630
H         -2.73940        3.69050        1.58380
H         -3.73740        4.08700       -2.37950
H         -4.34570        2.27280       -3.59290
H         -4.76380        0.79320       -2.84500
H         -4.28920        1.87700        1.46890
H         -1.92720       -0.94960        1.76510
H         -4.85500       -0.21000        1.43080
H         -4.06290       -0.99380        2.81850
H         -5.47470       -2.48490        1.02160
H         -2.90720       -3.28830        1.81840
H         -3.38480       -3.05200       -0.70110
H         -5.28170       -0.65100       -0.85050
H         -5.46440       -2.23630       -1.67020
H         -3.21700       -0.65530       -2.08540
H          5.91590        2.33730        0.32450
H          8.15900        1.33380        0.13860
