30

O         -3.36100       -2.68810        0.21760
C         -2.50540       -1.81910        0.27090
C         -1.08900       -2.12470        0.26320
C         -0.10640       -1.18940        0.30660
N          1.20940       -1.55250        0.27980
C          2.30530       -0.76720       -0.05490
C          2.21200        0.28450       -0.96630
C          3.32870        1.02770       -1.29010
C          4.55630        0.71690       -0.73070
F          5.64080        1.43840       -1.05940
C          4.66210       -0.35100        0.15140
F          5.84970       -0.67850        0.68480
C          3.54740       -1.09230        0.48830
C         -0.44420        0.23680        0.60270
O          0.38490        1.01350        1.03150
C         -1.86250        0.60030        0.43770
C         -2.22020        1.94630        0.46460
C         -3.54600        2.32020        0.33700
C         -4.52830        1.35220        0.19290
C         -4.18350        0.01120        0.17590
C         -2.85430       -0.37590        0.29210
H         -0.83610       -3.17380        0.18190
H          1.40780       -2.52340        0.48320
H          1.26500        0.51810       -1.42560
H          3.26610        1.84810       -1.98650
H          3.65420       -1.91120        1.18260
H         -1.44090        2.68410        0.58630
H         -3.81450        3.36570        0.35530
H         -5.56390        1.64290        0.09830
H         -4.93300       -0.75960        0.07440
