57

C         -5.98140        1.51610       -2.41730
C         -5.89000        0.77170       -1.08350
C         -4.53830        0.93660       -0.46670
C         -4.11470        1.94900        0.38550
C         -4.95740        3.07100        0.88190
C         -2.74560        1.69130        0.68010
N         -2.38230        0.54430        0.00080
C         -3.43680        0.09340       -0.69210
C         -3.35370       -1.11720       -1.54060
B         -0.99110       -0.09780       -0.00120
F         -1.07930       -1.41930        0.40990
F         -0.46270       -0.04990       -1.28550
N         -0.08880        0.69310        0.97300
C          1.17550        0.43640        1.34560
N          1.97570       -0.56680        0.98100
C          1.79580       -1.58620       -0.03370
C          3.11430       -2.24660       -0.31850
C          4.23570       -1.48240       -0.61190
C          5.46110       -2.07410       -0.86550
C          5.58210       -3.45910       -0.83800
O          6.73270       -4.14880       -1.07080
C          7.90170       -3.42420       -1.36770
C          4.45560       -4.23190       -0.55160
C          3.24270       -3.63070       -0.29210
C          1.57850        1.45150        2.26380
S          3.14600        1.52450        3.08560
C          4.09240        1.67270        1.70370
N          4.72730        1.74140        0.75090
C          0.52650        2.31780        2.43430
C         -0.52780        1.84460        1.62890
C         -1.81680        2.35730        1.48340
C         -2.19380        3.61180        2.20470
H         -5.80910        2.57970       -2.26990
H         -5.23100        1.14290       -3.11000
H         -6.96450        1.38150       -2.86280
H         -6.65760        1.14830       -0.40440
H         -6.08990       -0.28890       -1.24550
H         -4.59330        4.02750        0.50770
H         -5.98150        2.94680        0.54090
H         -4.96040        3.11100        1.96970
H         -2.53850       -1.00730       -2.25380
H         -3.12300       -1.98480       -0.92380
H         -4.28300       -1.28740       -2.07490
H          2.88290       -0.57830        1.42750
H          1.40580       -1.12210       -0.94330
H          1.06340       -2.32490        0.30530
H          4.16290       -0.40470       -0.64610
H          6.30670       -1.44230       -1.08470
H          7.78870       -2.83650       -2.28430
H          8.68160       -4.17020       -1.51270
H          8.18440       -2.76130       -0.54350
H          4.56140       -5.30500       -0.53490
H          2.38100       -4.24230       -0.06940
H          0.52390        3.17650        3.07480
H         -2.93310        3.39540        2.97440
H         -1.33260        4.07080        2.67570
H         -2.62900        4.32720        1.51200
