32

C         -6.10010       -1.58170        0.10130
C         -4.65190       -1.21040        0.12800
C         -4.20380       -0.08060       -0.55320
C         -2.87340        0.27680       -0.55000
C         -1.92920       -0.49210        0.14350
C         -0.52470       -0.19460        0.20030
C          0.17790        0.82580       -0.36180
C         -0.36090        1.85850       -1.15920
N         -0.72620        2.72730       -1.81490
C          1.60750        0.90560       -0.15520
N          2.28790        0.06350        0.53890
C          3.60980        0.36960        0.57160
C          4.59940       -0.35060        1.23870
C          5.90150        0.09320        1.17360
C          6.23770        1.24140        0.45670
C          5.27570        1.97200       -0.21210
C          3.96390        1.53340       -0.15240
S          2.54740        2.22620       -0.87890
C         -2.38620       -1.62790        0.82760
C         -3.71940       -1.97730        0.81840
H         -6.71580       -0.73360        0.39660
H         -6.39440       -1.86670       -0.90870
H         -6.30450       -2.41460        0.76900
H         -4.91530        0.52640       -1.09410
H         -2.56100        1.15710       -1.08710
H          0.07590       -0.88660        0.77850
H          4.32660       -1.23650        1.78940
H          6.67830       -0.45490        1.68530
H          7.26700        1.56490        0.42360
H          5.53220        2.86050       -0.76760
H         -1.67710       -2.23640        1.37030
H         -4.04480       -2.85760        1.35420
