56

C          9.19750        0.47660       -0.00430
C          7.96910        0.60910       -0.89710
N          6.87690       -0.22160       -0.42170
C          5.93240       -0.54790       -1.47640
C          4.63240       -1.08960       -0.89300
N          3.96780       -0.04980       -0.13680
C          2.61630        0.00110        0.00330
C          1.80800       -1.11350       -0.30320
C          0.44700       -1.06030       -0.16900
C         -0.18830        0.10630        0.29440
N         -1.53270        0.24650        0.48050
N         -2.27540       -0.73240        0.13200
C         -3.63410       -0.55120        0.26450
C         -4.43440       -1.69660        0.27820
C         -5.81760       -1.58800        0.33710
C         -6.61820       -2.83850        0.35790
O         -6.14730       -3.94970        0.35160
O         -7.93740       -2.60340        0.38390
C         -8.77040       -3.75140        0.40290
C         -6.41870       -0.33330        0.36630
C         -5.62720        0.81290        0.34070
C         -6.30930        2.13120        0.37520
O         -7.50600        2.27960        0.42150
O         -5.44690        3.15890        0.35310
C         -6.02780        4.45230        0.39350
C         -4.24460        0.70980        0.29160
C          0.61190        1.21390        0.61200
C          1.97370        1.16760        0.46310
C          4.84690        0.92920        0.46370
C          6.20120        0.27950        0.76510
H          9.01370        0.87350        0.99050
H          9.46890       -0.57080        0.08940
H         10.03100        1.02050       -0.44120
H          8.22910        0.25760       -1.89860
H          7.67590        1.67050       -0.98060
H          5.69580        0.32730       -2.10710
H          6.38670       -1.30940       -2.11800
H          4.85290       -1.96190       -0.26350
H          3.98730       -1.40580       -1.71600
H          2.26520       -2.03640       -0.62370
H         -0.16680       -1.91930       -0.39390
H         -3.97640       -2.67360        0.25520
H         -9.79280       -3.38450        0.44040
H         -8.54970       -4.36670        1.27790
H         -8.61030       -4.35170       -0.49550
H         -7.49160       -0.23290        0.40470
H         -5.20190        5.15820        0.36030
H         -6.60600        4.58040        1.31120
H         -6.69260        4.59760       -0.46080
H         -3.62200        1.59020        0.26530
H          0.12800        2.11410        0.95860
H          2.55230        2.05070        0.68300
H          4.41250        1.28330        1.40150
H          4.98850        1.79410       -0.20100
H          6.83730        1.00630        1.27120
H          6.03980       -0.55900        1.45280
