57

C         -6.61210       -1.37610        1.13770
C         -6.26680        0.10210        0.99570
C         -4.76580        0.35610        0.85560
C         -4.20660       -0.18200       -0.47060
N         -2.84260        0.21740       -0.75460
C         -2.62620        1.43780       -1.40110
C         -3.63290        2.40300       -1.48490
C         -3.43500        3.60970       -2.13410
C         -2.21590        3.90820       -2.71000
C         -1.20170        2.97110       -2.63880
C         -1.40730        1.75470       -2.01050
S         -0.07160        0.59780       -2.08420
C         -0.48300       -0.42510       -0.70270
C          0.55140       -1.15390       -0.15510
C          0.32850       -2.07480        0.86770
C          1.40990       -2.84630        1.46150
C          2.65830       -2.41510        1.66310
C          3.12330       -1.04200        1.46860
C          2.45560        0.00960        2.00610
C          2.91160        1.37600        1.87950
O          2.34700        2.34350        2.32950
O          4.08540        1.57510        1.19830
C          4.77590        0.55150        0.65010
C          5.94810        0.86940       -0.03370
C          6.70240       -0.11980       -0.63390
C          7.96070        0.20700       -1.37430
C          6.26580       -1.44630       -0.55170
C          5.11360       -1.77090        0.12160
C          4.34810       -0.78090        0.74940
C         -0.98610       -2.25700        1.28300
C         -2.01570       -1.49870        0.76060
C         -1.80120       -0.54320       -0.23810
H         -7.67720       -1.49690        1.32040
H         -6.36120       -1.92790        0.23540
H         -6.07220       -1.81470        1.97430
H         -6.78920        0.51470        0.12920
H         -6.62510        0.63390        1.87980
H         -4.57630        1.42890        0.91620
H         -4.24450       -0.10100        1.69780
H         -4.24010       -1.27390       -0.47980
H         -4.83330        0.16370       -1.29770
H         -4.59900        2.22840       -1.04450
H         -4.24770        4.31910       -2.17890
H         -2.05350        4.84950       -3.21040
H         -0.23900        3.16120       -3.08800
H          1.53970       -1.03110       -0.57100
H          1.15550       -3.85970        1.74710
H          3.40220       -3.10190        2.04630
H          1.54120       -0.12840        2.56080
H          6.24400        1.90570       -0.08290
H          8.79110       -0.38150       -0.98740
H          7.84710       -0.03490       -2.43040
H          8.20480        1.26150       -1.28360
H          6.84650       -2.22180       -1.02900
H          4.78250       -2.79720        0.16630
H         -1.20770       -2.98160        2.05300
H         -3.00400       -1.67250        1.14840
