84

C         -8.25080       -0.38600        2.55650
C         -8.97940       -0.88200        1.31300
C         -8.14940       -0.73520        0.03730
C         -6.92360       -1.64590        0.02320
C         -6.21550       -1.70000       -1.33100
C         -5.59680       -0.36520       -1.77630
N         -4.52710        0.09920       -0.91870
C         -4.86820        0.84900        0.21980
C         -4.38200        0.48000        1.47610
C         -4.72650        1.19970        2.60230
C         -5.56540        2.29840        2.50140
C         -6.04810        2.67450        1.26000
C         -5.70270        1.96060        0.12680
C         -3.21740       -0.27990       -1.13400
C         -2.87810       -1.35110       -1.97300
C         -1.56160       -1.70580       -2.19490
C         -0.54860       -0.99180       -1.57490
C         -0.87530        0.10160       -0.75370
C         -2.17950        0.46300       -0.54250
C          0.37410        0.74350       -0.19840
C          0.38490        0.69850        1.34040
C          0.25430       -0.71690        1.88970
C          0.51580        2.20130       -0.67300
C          0.50710        2.33120       -2.19120
C          1.45390       -0.13420       -0.78930
C          2.81130       -0.04620       -0.62270
C          3.65310       -0.97030       -1.26680
C          5.08500       -0.95310       -1.12990
C          5.81110       -0.11750       -0.35460
C          7.22900       -0.14740       -0.24210
C          8.15870       -0.96600       -0.86820
C          9.47110       -0.70730       -0.50340
C          9.60020        0.32180        0.41930
C         10.73400        0.88260        1.04050
C         12.04470        0.53250        0.87450
C         12.48120       -0.48990        0.01020
N         12.84470       -1.32230       -0.69200
C         13.11560        1.22380        1.61250
O         14.29220        0.97470        1.52430
O         12.65670        2.19600        2.42890
S          8.02440        0.96600        0.82110
C          3.07140       -1.95840       -2.07680
C          1.70630       -2.05210       -2.24690
C          0.88720       -1.13820       -1.59790
H         -8.90790       -0.43290        3.42200
H         -7.92820        0.64430        2.42330
H         -7.37330       -0.99230        2.76440
H         -9.90280       -0.31000        1.19430
H         -9.25640       -1.93030        1.44690
H         -7.83990        0.30760       -0.05390
H         -8.78020       -0.97760       -0.82230
H         -7.24090       -2.66050        0.27770
H         -6.21620       -1.32020        0.78560
H         -5.43270       -2.45890       -1.27650
H         -6.92860       -2.00910       -2.09930
H         -5.20850       -0.46510       -2.79390
H         -6.38080        0.39240       -1.79770
H         -3.73440       -0.38140        1.55820
H         -4.34680        0.89600        3.56670
H         -5.83860        2.85670        3.38370
H         -6.69460        3.53530        1.16940
H         -6.06710        2.28420       -0.83740
H         -3.64920       -1.92850       -2.45600
H         -1.33300       -2.54140       -2.83990
H         -2.41850        1.32070        0.06810
H         -0.44110        1.30920        1.71210
H          1.31620        1.14190        1.69950
H         -0.67210       -1.17490        1.55050
H          1.08350       -1.33660        1.55550
H          0.25330       -0.69910        2.97730
H         -0.30690        2.78540       -0.25460
H          1.44940        2.60950       -0.27960
H          0.60590        3.37540       -2.47880
H         -0.42340        1.94620       -2.60250
H          1.33190        1.77340       -2.62910
H          3.23220        0.72910       -0.00140
H          5.60920       -1.70190       -1.70930
H          5.32020        0.63610        0.24460
H          7.88390       -1.73000       -1.57220
H         10.31570       -1.24630       -0.89090
H         10.53810        1.68880        1.73580
H         13.40880        2.60670        2.88160
H          3.71860       -2.66650       -2.57530
H          1.28340       -2.82400       -2.87260
