46

C         -4.63280       -0.51960       -3.42390
C         -4.45880        0.98750       -3.22750
N         -4.06600        1.34780       -1.88100
C         -5.09790        1.86660       -1.00970
C         -5.87660        0.78200       -0.26300
C         -2.82540        1.04280       -1.40050
C         -1.78310        0.63010       -2.26630
C         -0.52640        0.35770       -1.80020
C         -0.21540        0.46760       -0.43760
C          1.05840        0.20170        0.12230
C          1.28020        0.32400        1.46200
C          2.57660        0.05000        2.06550
C          3.02380        0.57980        3.24030
S          4.61250        0.07680        3.67850
C          4.70760       -0.89010        2.25980
N          5.82760       -1.64240        1.97670
C          6.92110       -1.64590        2.79980
C          8.03940       -2.53360        2.32370
O          6.94290       -0.97930        3.81000
C          3.56670       -0.81690        1.48600
C          3.46800       -1.57520        0.31490
N          3.47950       -2.23660       -0.62660
C          0.18660        0.74950        2.33850
O          0.25700        0.89560        3.53630
O         -1.02370        0.99760        1.75790
C         -1.24490        0.87190        0.42760
C         -2.51750        1.15080       -0.03790
H         -5.42270       -0.90130       -2.78300
H         -3.71460       -1.04830       -3.18260
H         -4.89510       -0.72800       -4.45800
H         -3.72370        1.37260       -3.94130
H         -5.40590        1.48670       -3.44200
H         -5.79150        2.45030       -1.62170
H         -4.64110        2.55630       -0.29640
H         -5.19860        0.13050        0.28180
H         -6.56300        1.24150        0.44330
H         -6.45370        0.17640       -0.95680
H         -1.96180        0.53550       -3.32360
H          0.24920        0.04720       -2.48430
H          1.85600       -0.09060       -0.54490
H          2.48730        1.24900        3.88040
H          5.80770       -2.20170        1.13410
H          7.70070       -3.56680        2.27950
H          8.36260       -2.23040        1.33010
H          8.87460       -2.45910        3.01350
H         -3.24660        1.43980        0.69840
