91

C         -0.00470        0.84880        0.43030
O          0.83640        1.26670       -0.61630
C          0.91360        2.59580       -0.90080
C          0.21670        3.59740       -0.23050
C          0.37520        4.91760       -0.60510
C          1.23000        5.26610       -1.65070
C          1.38440        6.61990       -2.00410
C          1.50810        7.78890       -2.28500
C          1.59190        9.17500       -2.52760
N          2.07050        9.59500       -3.69070
C          2.12820       10.89760       -3.93210
C          2.66210       11.33940       -5.15990
C          3.12150       11.80390       -6.17660
C          3.65250       12.35930       -7.35620
C          4.03920       13.70420       -7.38020
C          4.54850       14.25810       -8.53060
C          4.68890       13.48880       -9.68950
O          5.20060       14.13920      -10.77100
C          5.38060       13.42130      -11.96680
C          4.31050       12.14940       -9.66810
C          3.79850       11.59340       -8.51110
C          1.68490       11.87460       -3.00870
C          1.73940       13.24040       -3.32040
C          1.77610       14.41940       -3.58550
C          1.82060       15.79160       -3.89440
C          1.85560       16.74780       -2.87360
C          1.89960       18.08730       -3.18020
C          1.91010       18.51330       -4.51160
O          1.95520       19.86150       -4.69960
C          1.97970       20.35770       -6.01520
C          1.87390       17.56560       -5.53040
C          1.82870       16.21960       -5.22130
C          1.18960       11.43610       -1.76880
C          0.74510       12.36170       -0.80980
C          0.36150       13.16380        0.00860
C         -0.08480       14.10230        0.95720
C         -0.25180       13.73640        2.29700
C         -0.68760       14.66020        3.21710
C         -0.97010       15.97350        2.82940
O         -1.39520       16.80290        3.82150
C         -1.69150       18.14020        3.50230
C         -0.80570       16.34130        1.49670
C         -0.36690       15.41250        0.57290
C          1.14710       10.05570       -1.51190
C          0.67560        9.56330       -0.28690
C          0.27900        9.14360        0.77530
C         -0.19130        8.65480        2.00830
C          0.19810        7.39250        2.46910
C         -0.27150        6.91920        3.67160
C         -1.14010        7.68930        4.45050
O         -1.54490        7.12100        5.62030
C         -2.41200        7.84570        6.45700
C         -1.52570        8.94810        3.99850
C         -1.05390        9.42260        2.78960
C          1.92370        4.25640       -2.32520
C          1.76650        2.94200       -1.95310
H          0.09180       -0.23500        0.47130
H         -1.05000        1.11090        0.23620
H          0.30460        1.27510        1.39030
H         -0.45160        3.36220        0.58320
H         -0.17220        5.69310       -0.08920
H          3.94010       14.29880       -6.48390
H          4.85230       15.29270       -8.56500
H          6.07960       12.58890      -11.83520
H          4.43030       13.04020      -12.35490
H          5.79910       14.13230      -12.67740
H          4.41010       11.53020      -10.54590
H          3.50490       10.55420       -8.49790
H          1.85600       16.42240       -1.84350
H          1.92930       18.83690       -2.40480
H          2.86260       20.00880       -6.56070
H          1.07680       20.07820       -6.56810
H          2.02140       21.44170       -5.92080
H          1.87940       17.86290       -6.56740
H          1.79240       15.48710       -6.01470
H         -0.02840       12.72430        2.60140
H         -0.81980       14.39570        4.25460
H         -0.81330       18.66520        3.11260
H         -2.50850       18.20950        2.77650
H         -2.00160       18.60460        4.43710
H         -1.01640       17.34670        1.16720
H         -0.24540       15.69820       -0.46200
H          0.87630        6.79730        1.87550
H          0.01980        5.94840        4.04090
H         -1.95720        8.78340        6.79280
H         -3.36430        8.06070        5.96120
H         -2.59290        7.20590        7.31930
H         -2.19310        9.56670        4.57820
H         -1.36000       10.39740        2.43780
H          2.58470        4.51890       -3.13750
H          2.29520        2.15110       -2.46160
