50

N         -6.55810        2.61400        0.62380
C         -5.45370        2.36960        0.43990
C         -4.08450        2.08160        0.22350
C         -3.28160        3.24080        0.17520
N         -2.68720        4.22150        0.11620
C         -3.68110        0.79290        0.04440
C         -2.35430        0.30310       -0.17330
C         -1.23620        1.04810        0.00310
C          0.09400        0.53640       -0.12030
C          1.23600        1.26230       -0.42520
C          1.40560        2.63080       -0.86280
C          0.37000        3.32710       -1.48960
C          0.54380        4.64720       -1.85680
C          1.75230        5.28390       -1.62520
C          2.79630        4.59060       -1.03220
C          2.62840        3.27470       -0.65220
O          2.32390        0.48200       -0.27520
C          1.93890       -0.73000        0.17070
C          2.98940       -1.71620        0.36410
C          2.93850       -2.68700        1.36470
C          3.97090       -3.59360        1.50990
C          5.06970       -3.54650        0.66750
C          5.14020       -2.57270       -0.31560
C          4.11300       -1.66260       -0.46550
C          0.55050       -0.77600        0.26230
C         -0.27620       -1.84390        0.71800
C         -1.58990       -1.99990        0.39190
C         -2.31020       -3.04910        1.03510
C         -3.63560       -3.36360        0.97570
C         -4.11240       -4.47620        1.70970
N         -4.48660       -5.38200        2.30400
C         -4.65470       -2.68380        0.28020
N         -5.53150       -2.15970       -0.24520
C         -2.20640       -1.11970       -0.66230
H         -4.47070        0.05040        0.04040
H         -1.31120        2.08620        0.29190
H         -0.56000        2.82710       -1.71010
H         -0.26830        5.17900       -2.32760
H          1.88350        6.31600       -1.91300
H          3.74260        5.08150       -0.85960
H          3.43310        2.73480       -0.17570
H          2.11220       -2.71050        2.05710
H          3.92130       -4.33780        2.29080
H          5.87120       -4.26020        0.78290
H          5.99910       -2.52340       -0.96800
H          4.16440       -0.90530       -1.23340
H          0.17720       -2.56730        1.37890
H         -1.71470       -3.68760        1.67950
H         -3.16620       -1.51490       -0.98590
H         -1.53460       -1.11190       -1.52720
