64

C         -1.18320        1.34990       -2.26080
C         -0.59720        0.63060       -1.08170
C          0.77930        0.58420       -0.92900
C          1.39260       -0.07590        0.13060
C          2.86320       -0.04480        0.21800
C          3.51330        0.41280        1.36310
C          4.88910        0.45980        1.41930
C          5.66140        0.04480        0.33180
C          7.10440        0.10650        0.44320
N          7.73720        0.53730        1.50460
C          9.06920        0.44060        1.22140
C         10.18310        0.76160        1.99160
C         11.42680        0.55490        1.43480
C         11.58020        0.04190        0.14430
C         10.49100       -0.28400       -0.63880
C          9.23790       -0.07890       -0.08620
N          7.96800       -0.28080       -0.55450
C          5.01210       -0.40790       -0.81700
C          3.63340       -0.44500       -0.87090
C          0.60010       -0.75500        1.06020
C          1.18860       -1.53760        2.19650
C         -0.77600       -0.71990        0.89990
C         -1.39080       -0.02600       -0.13700
C         -2.86260       -0.02730       -0.20690
C         -3.56330       -1.23260       -0.21040
C         -4.93980       -1.24710       -0.26520
C         -5.66250       -0.05220       -0.30570
C         -7.10820       -0.11910       -0.36870
N         -7.78620       -1.23770       -0.41090
C         -9.10370       -0.88460       -0.46870
C        -10.24910       -1.67270       -0.53070
C        -11.46650       -1.02870       -0.58200
C        -11.56360        0.36510       -0.57270
C        -10.44230        1.16800       -0.51160
C         -9.21520        0.52810       -0.46020
N         -7.92700        0.98550       -0.39630
C         -4.96330        1.15480       -0.28490
C         -3.58380        1.16320       -0.23910
H         -1.29320        2.41260       -2.04310
H         -0.52540        1.25640       -3.12270
H         -2.16140        0.95170       -2.51860
H          1.40350        1.09280       -1.65110
H          2.92820        0.75110        2.20490
H          5.40190        0.81630        2.29830
H         10.06350        1.15750        2.98710
H         12.31150        0.79420        2.00640
H         12.57590       -0.10250       -0.24830
H         10.61060       -0.68080       -1.63640
H          7.72100       -0.64570       -1.45800
H          5.57600       -0.73450       -1.67940
H          3.14010       -0.80430       -1.76280
H          1.21470       -0.93210        3.10270
H          0.57900       -2.41500        2.40340
H          2.20340       -1.85680        1.97240
H         -1.40030       -1.23850        1.61460
H         -3.01310       -2.16210       -0.18670
H         -5.49100       -2.17360       -0.27900
H        -10.17280       -2.74800       -0.53820
H        -12.37460       -1.61150       -0.63120
H        -12.54050        0.82350       -0.61440
H        -10.51840        2.24550       -0.50460
H         -7.64120        1.94890       -0.37080
H         -5.48870        2.09920       -0.30490
H         -3.05520        2.10450       -0.20900
