76

C          2.50990        2.67490       -0.26530
O          2.31280        1.44050        0.37280
C          1.17460        0.73720        0.11350
C          0.12210        1.21680       -0.64740
C         -1.07740        0.51730       -0.78470
C         -2.14510        1.12400       -1.55570
C         -3.45620        1.14800       -1.21090
C         -4.41950        1.77070       -2.03360
C         -5.26700        2.29150       -2.71970
C         -6.24720        2.90260       -3.52850
C         -7.55320        3.05060       -3.05580
C         -8.51160        3.64790       -3.85020
C         -8.18430        4.10260       -5.11830
C         -6.88960        3.95890       -5.59210
C         -5.92260        3.36380       -4.80620
C         -3.94170        0.63070        0.00810
C         -4.37080        0.24490        1.06940
C         -4.78410       -0.27420        2.31280
C         -3.82610       -0.60310        3.27580
C         -4.21930       -1.12820        4.49070
C         -5.56390       -1.33030        4.76150
C         -6.51840       -1.00290        3.81110
C         -6.13670       -0.47710        2.59230
C         -1.20230       -0.74240       -0.16520
O         -2.34260       -1.44360       -0.42190
C         -2.54130       -2.67600        0.21950
C         -0.14960       -1.22250        0.59430
C          1.05010       -0.52270        0.73270
C          2.11280       -1.13090        1.50820
C          3.43000       -1.14530        1.18560
C          3.94070       -0.61360       -0.01640
C          4.39770       -0.21630       -1.06180
C          4.85300        0.31000       -2.28740
C          3.93080        0.64390       -3.28290
C          4.36800        1.17450       -4.48030
C          5.72160        1.37740       -4.70110
C          6.64080        1.04530       -3.71820
C          6.21490        0.51400       -2.51660
C          4.37900       -1.77440        2.02020
C          5.21620       -2.30370        2.71250
C          6.18200       -2.92780        3.52860
C          5.81600       -3.49310        4.75220
C          6.76910       -4.10170        5.54470
C          8.09130       -4.15480        5.13160
C          8.46020       -3.59480        3.91830
C          7.51570       -2.98380        3.11760
H          1.75400        3.41040        0.03150
H          3.49140        3.01660        0.05970
H          2.51150        2.57080       -1.35520
H          0.19310        2.18100       -1.12690
H         -1.84860        1.65990       -2.44930
H         -7.80080        2.69360       -2.06650
H         -9.52080        3.76060       -3.48100
H         -8.93760        4.56850       -5.73640
H         -6.63460        4.31320       -6.58060
H         -4.91200        3.24800       -5.17020
H         -2.78030       -0.43580        3.05810
H         -3.47560       -1.38100        5.23290
H         -5.86730       -1.74120        5.71320
H         -7.56620       -1.15930        4.02370
H         -6.87550       -0.22140        1.84650
H         -3.52590       -3.01430       -0.09970
H         -1.79000       -3.41500       -0.08000
H         -2.53680       -2.56980        1.30920
H         -0.22070       -2.18690        1.07350
H          1.80660       -1.67900        2.39110
H          2.87770        0.47580       -3.10460
H          3.65190        1.43100       -5.24790
H          6.05950        1.79220       -5.63940
H          7.69570        1.20220       -3.89180
H          6.92590        0.25470       -1.74550
H          4.78410       -3.44790        5.06920
H          6.48180       -4.53800        6.49060
H          8.83340       -4.63200        5.75460
H          9.49090       -3.63620        3.59660
H          7.79570       -2.54520        2.17070
