72

C          4.17830        0.75420       -0.14670
C          3.87160       -0.51030        0.19090
C          2.52840       -0.98240        0.31270
N          2.17520       -2.20260        0.63140
C          0.82300       -2.20040        0.62700
C          0.36980       -0.94380        0.29680
C         -0.94950       -0.37850        0.14680
C         -1.10920        0.96170       -0.18100
C         -2.37480        1.50790       -0.32100
C         -3.50080        0.72490       -0.13760
O         -4.78830        1.14100       -0.23710
C         -5.05460        2.47690       -0.59220
C         -6.54720        2.67740       -0.67020
C         -7.40300        1.59530       -0.81900
C         -8.77030        1.79520       -0.89820
C         -9.29240        3.07550       -0.83840
C         -8.44120        4.15870       -0.69560
C         -7.07510        3.96080       -0.60860
C         -3.34780       -0.64520        0.18890
O         -4.51700       -1.32080        0.33210
C         -4.48620       -2.68080        0.69450
C         -5.90080       -3.18660        0.82580
C         -6.95600       -2.30560        1.01580
C         -8.24820       -2.78430        1.14400
C         -8.49600       -4.14490        1.09270
C         -7.44510       -5.02800        0.90890
C         -6.15390       -4.55130        0.77270
C         -2.08490       -1.17960        0.33020
O          1.46900       -0.17030        0.09750
C          5.50150        1.32220       -0.29440
C          5.61420        2.67660       -0.62560
C          6.86300        3.24690       -0.77430
C          8.01100        2.50030       -0.59860
C          7.93100        1.13810       -0.26920
N          9.05740        0.38990       -0.09450
C         10.39500        0.86490       -0.37330
C         11.25320       -0.39780       -0.32880
C         10.52300       -1.25980        0.69700
C          9.05500       -0.97470        0.38660
C          6.66140        0.57010       -0.12460
H          3.35980        1.43950       -0.32980
H          4.61730       -1.26190        0.39430
H          0.27110       -3.08760        0.85880
H         -0.23860        1.58160       -0.32530
H         -2.46890        2.55240       -0.57270
H         -4.60470        2.70810       -1.57210
H         -4.62580        3.16720        0.14980
H         -6.99050        0.59980       -0.86420
H         -9.42910        0.94640       -1.00940
H        -10.35940        3.23100       -0.90170
H         -8.84280        5.16020       -0.64750
H         -6.41290        4.80730       -0.49230
H         -3.94960       -3.27100       -0.06350
H         -3.96340       -2.80690        1.65710
H         -6.75690       -1.24620        1.05450
H         -9.06380       -2.09050        1.28740
H         -9.50450       -4.51810        1.19440
H         -7.63220       -6.09110        0.86670
H         -5.33580       -5.24220        0.62380
H         -1.95240       -2.21890        0.57990
H          4.72380        3.27180       -0.76260
H          6.94870        4.29390       -1.02790
H          8.97220        2.97620       -0.70920
H         10.44100        1.35570       -1.35030
H         10.72170        1.58390        0.39210
H         12.28430       -0.18900       -0.05160
H         11.24440       -0.88970       -1.30210
H         10.76380       -0.92250        1.70580
H         10.76650       -2.31680        0.61410
H          8.68100       -1.66080       -0.38700
H          8.42270       -1.07570        1.27390
H          6.57420       -0.47630        0.11350
