30

O         -0.05040        0.29160        1.82840
C          0.40400        0.14030        0.68840
C         -0.43450       -0.05620       -0.49640
C         -1.89840       -0.06080       -0.37700
C         -2.68890        0.56990       -1.33800
C         -4.06280        0.57770       -1.23230
C         -4.68210       -0.04880       -0.15380
O         -6.03870       -0.01940       -0.08380
C         -3.90230       -0.67720        0.80950
C         -2.52550       -0.68100        0.69950
C          0.16530       -0.21420       -1.69770
O          1.48070       -0.20260       -1.92960
C          2.32320       -0.01100       -0.88630
C          3.68260        0.00710       -1.15710
C          4.57920        0.20010       -0.11310
O          5.89720        0.21360       -0.40580
C          4.11970        0.37330        1.18890
C          2.76140        0.35700        1.47090
O          2.35430        0.52620        2.72580
C          1.83160        0.16010        0.41760
H         -2.21870        1.08070       -2.16510
H         -4.67770        1.06960       -1.96910
H         -6.33530       -0.46880        0.71700
H         -4.37740       -1.16470        1.65080
H         -1.93480       -1.17210        1.45550
H         -0.39480       -0.38630       -2.60690
H          4.04050       -0.12600       -2.16310
H          6.41390        0.35540        0.39760
H          4.81100        0.52460        2.00480
H          1.35770        0.48790        2.72050
