85

C         -3.73400       -0.09260        0.26040
C         -2.92140        0.32160       -0.73070
C         -1.48550        0.27800       -0.70650
C         -0.75440        0.75520       -1.78610
C          0.63640        0.75440       -1.82990
C          1.43340        0.27440       -0.79930
C          2.86500        0.31400       -0.91490
C          3.73780       -0.12400        0.01270
C          5.17730       -0.09200       -0.07280
C          5.88600        0.41640       -1.16820
C          7.26170        0.42080       -1.19020
C          7.99480       -0.08310       -0.11230
N          9.38940       -0.07840       -0.13320
C         10.10230       -1.12820        0.45970
C          9.63980       -2.44020        0.36100
C         10.34420       -3.47190        0.95000
C         11.52010       -3.21690        1.63680
C         11.98630       -1.91600        1.73320
C         11.28480       -0.87620        1.15440
C         10.08200        0.97650       -0.73900
C          9.60820        2.28450       -0.63890
C         10.29540        3.32090       -1.23990
C         11.46540        3.07530       -1.93980
C         11.94300        1.77860       -2.03770
C         11.25860        0.73400       -1.44760
C          7.29970       -0.59340        0.98690
C          5.92450       -0.59620        1.00010
C          0.73050       -0.23230        0.32920
N          1.25700       -0.74890        1.43760
S          0.07350       -1.18660        2.43460
N         -1.16980       -0.74470        1.51530
C         -0.71350       -0.22970        0.37540
C         -5.17580       -0.05170        0.26860
C         -5.95220        0.43000       -0.79250
C         -7.32620        0.45050       -0.72160
C         -7.98940       -0.01360        0.41750
N         -9.38190        0.01100        0.49310
C        -10.01170        0.27620        1.71570
C         -9.47920        1.21930        2.59450
C        -10.10160        1.47530        3.80050
C        -11.26410        0.80590        4.14660
C        -11.79980       -0.12800        3.27490
C        -11.18040       -0.39710        2.06990
C        -10.15500       -0.22990       -0.64870
C         -9.75260       -1.17830       -1.58890
C        -10.51890       -1.41050       -2.71430
C        -11.69800       -0.71230       -2.91750
C        -12.10480        0.22690       -1.98400
C        -11.34120        0.47280       -0.85960
C         -7.22660       -0.50070        1.48180
C         -5.85360       -0.51600        1.40390
H         -3.27710       -0.49690        1.15260
H         -3.33820        0.73510       -1.64040
H         -1.29340        1.15060       -2.63570
H          1.12130        1.14920       -2.71180
H          3.22430        0.74160       -1.84240
H          3.33720       -0.54560        0.92390
H          5.35240        0.80640       -2.02120
H          7.78760        0.80920       -2.05050
H          8.72840       -2.64220       -0.18260
H          9.97630       -4.48380        0.86450
H         12.06920       -4.02620        2.09340
H         12.89940       -1.70710        2.27100
H         11.64510        0.13870        1.23910
H          8.70240        2.48000       -0.08380
H          9.91880        4.32950       -1.15280
H         12.00140        3.88850       -2.40510
H         12.85200        1.57690       -2.58520
H         11.62790       -0.27750       -1.53330
H          7.85250       -0.97880        1.83130
H          5.40350       -0.98780        1.86200
H         -5.47320        0.80400       -1.68400
H         -7.90460        0.83700       -1.54840
H         -8.57840        1.74950        2.32190
H         -9.68000        2.20960        4.47120
H        -11.74920        1.01080        5.08890
H        -12.70300       -0.65830        3.53870
H        -11.59460       -1.13260        1.39580
H         -8.83950       -1.73220       -1.42680
H        -10.19690       -2.14930       -3.43340
H        -12.29580       -0.89920       -3.79660
H        -13.02030        0.77950       -2.13630
H        -11.65570        1.21260       -0.13800
H         -7.72540       -0.87210        2.36520
H         -5.27980       -0.90210        2.23420
