66

C         -6.89950       -2.23500        3.74780
S         -8.57380       -2.75550        3.27080
C         -8.54540       -2.34050        1.57630
N         -9.66020       -2.60430        0.90360
C         -9.64940       -2.29210       -0.38040
C         -8.54960       -1.72340       -0.99970
C         -7.42240       -1.48720       -0.20140
C         -6.21950       -0.89950       -0.74700
C         -5.12550       -0.66900       -0.00130
C         -3.87600       -0.09440       -0.43660
C         -3.63070        0.31130       -1.75390
C         -2.42000        0.85140       -2.12040
C         -1.39630        1.01070       -1.18160
N         -0.17250        1.56270       -1.55450
C         -0.13300        2.57070       -2.53170
C          0.87670        2.58100       -3.49230
C          0.91410        3.57770       -4.44840
C         -0.05360        4.56880       -4.46620
C         -1.06110        4.55950       -3.51540
C         -1.10260        3.57170       -2.55030
C          1.01530        1.12030       -0.97330
C          2.06620        2.01200       -0.74040
C          3.24390        1.57680       -0.17810
C          3.42580        0.23530        0.17860
C          4.64040       -0.27410        0.76690
C          5.76700        0.40980        1.02990
C          6.92600       -0.21930        1.62140
C          8.09730        0.50730        1.89300
C          9.14830       -0.18790        2.45710
N          9.08030       -1.48090        2.73850
C          7.93120       -2.07850        2.44480
S          7.79350       -3.78230        2.79580
C          9.43980       -4.09740        3.49470
N          6.86290       -1.52080        1.90720
C          2.36440       -0.64800       -0.05630
C          1.18480       -0.22120       -0.62110
C         -1.63050        0.61230        0.13730
C         -2.84380        0.07190        0.49550
N         -7.43880       -1.80540        1.09700
H         -6.79300       -1.17120        3.56250
H         -6.17550       -2.79530        3.16560
H         -6.79670       -2.45410        4.80510
H        -10.56140       -2.51030       -0.92140
H         -8.55560       -1.47300       -2.04790
H         -6.25720       -0.65800       -1.79950
H         -5.17930       -0.94400        1.04430
H         -4.39630        0.19300       -2.50460
H         -2.24840        1.14880       -3.14460
H          1.62570        1.80270       -3.48450
H          1.69960        3.57480       -5.18940
H         -0.02270        5.34390       -5.21650
H         -1.81600        5.33160       -3.51930
H         -1.88270        3.57010       -1.80310
H          1.94290        3.05330       -1.00010
H          4.03250        2.29170       -0.00270
H          4.64210       -1.32670        1.01970
H          5.86710        1.46350        0.81210
H          8.16910        1.55930        1.67000
H         10.08910        0.29040        2.70030
H         10.19270       -3.84770        2.75490
H          9.57100       -3.48900        4.38320
H          9.47440       -5.15330        3.74090
H          2.48240       -1.69020        0.20200
H          0.38580       -0.92390       -0.80660
H         -0.85390        0.74150        0.87680
H         -3.00920       -0.22310        1.52170
