53

C         -5.47070        2.79160        0.93750
C         -5.21960        2.00150       -0.34750
N         -4.57090        0.73280       -0.09210
C         -5.46120       -0.39360        0.10690
C         -5.75340       -1.13970       -1.19430
C         -3.22580        0.60210       -0.04800
C         -2.36970        1.73600       -0.09050
C         -1.01940        1.58900       -0.03760
C         -0.40810        0.31650        0.05620
N          0.91890        0.14370        0.09190
N          1.70680        1.15420        0.15620
C          3.02080        0.83700        0.03720
C          4.01110        1.76410        0.36060
C          5.35150        1.43390        0.24080
C          6.36550        2.44670        0.59890
O          6.13080        3.56900        0.99730
N          7.65140        2.02420        0.44670
N          8.02100        0.76220        0.00470
C          7.14390       -0.22380       -0.34410
O          7.55370       -1.30140       -0.72480
C          5.73050        0.15850       -0.20830
C          4.74700       -0.77300       -0.54870
C          3.42030       -0.43770       -0.44400
N          2.39840       -1.36560       -0.84570
O          2.18630       -2.32740       -0.11050
O          1.92220       -1.23230       -1.96110
C         -1.25520       -0.83430        0.09760
N         -0.67430       -2.07920        0.18230
C         -1.27990       -3.31080        0.23300
C         -0.27380       -4.43100        0.22540
O         -2.47800       -3.48440        0.27350
C         -2.62470       -0.66400        0.04660
H         -4.53440        3.00970        1.44430
H         -6.10020        2.22220        1.61700
H         -5.97040        3.72830        0.70590
H         -4.61940        2.59090       -1.04350
H         -6.17440        1.79510       -0.83760
H         -5.03090       -1.07700        0.84090
H         -6.39520       -0.00780        0.52370
H         -6.44460       -1.95520       -1.00220
H         -4.84000       -1.55230       -1.61280
H         -6.19830       -0.47160       -1.92850
H         -2.77730        2.73110       -0.15080
H         -0.36430        2.44650       -0.06460
H          3.73680        2.74430        0.71690
H          8.39760        2.66700        0.67510
H          9.01090        0.57030       -0.06490
H          5.05600       -1.74460       -0.90490
H          0.34390       -2.10230        0.17000
H          0.48900       -4.26830        0.98230
H          0.22160       -4.45900       -0.74300
H         -0.77810       -5.37700        0.39830
H         -3.22420       -1.55510        0.06380
