65

C          8.38490        4.06910       -0.39270
O          9.44450        3.16400       -0.20530
C          9.15150        1.85200       -0.02210
C          7.88300        1.30700       -0.00430
C          7.66920       -0.06770        0.19190
C          6.31160       -0.55450        0.19470
C          5.92090       -1.83180        0.36600
C          4.55740       -2.31330        0.36650
O          4.43910       -3.58670        0.56270
B          3.11450       -4.28370        0.59860
F          2.95950       -4.86090        1.82820
F          3.08700       -5.21650       -0.40090
O          1.97850       -3.32890        0.38050
C          2.16770       -2.06560        0.18800
C          0.99940       -1.23620       -0.01740
C         -0.24240       -1.75800       -0.01180
C         -1.49030       -1.06130       -0.20660
C         -1.57260        0.31400       -0.43230
C         -2.80040        0.91870       -0.61710
C         -3.96520        0.17120       -0.57890
O         -5.19080        0.74810       -0.77100
S         -5.47660        2.19300       -0.05120
O         -4.85640        2.17570        1.23670
O         -5.12660        3.24590       -0.95300
C         -7.23560        2.02040        0.06740
C         -8.04040        2.56100       -0.91290
C         -9.41100        2.38050       -0.83100
C         -9.96960        1.66130        0.22050
C        -11.45090        1.47290        0.32340
C         -9.13050        1.12420        1.19510
C         -7.76120        1.30070        1.12170
C         -3.91370       -1.21640       -0.33570
O         -5.10690       -1.86020       -0.29000
C         -5.10790       -3.25060       -0.05770
C         -2.67540       -1.80990       -0.16320
C          3.44150       -1.49590        0.17130
C          8.78010       -0.89180        0.37300
C         10.05350       -0.35890        0.35730
C         10.26260        0.99830        0.16300
O         11.49590        1.55050        0.14200
H          8.85230        5.04440       -0.51540
H          7.71850        4.09440        0.47580
H          7.80550        3.83070       -1.29080
H          7.02280        1.94270       -0.14370
H          5.55980        0.20850        0.04160
H          6.64490       -2.61740        0.52360
H          1.18550       -0.18570       -0.17500
H         -0.31440       -2.82560        0.15620
H         -0.67920        0.91510       -0.46380
H         -2.88390        1.98000       -0.78990
H         -7.58230        3.11670       -1.71500
H        -10.05290        2.80090       -1.59080
H        -11.95070        1.79020       -0.58750
H        -11.84330        2.05930        1.15370
H        -11.69150        0.42890        0.51320
H         -9.55880        0.56500        2.01370
H         -7.09120        0.90070        1.86540
H         -4.57300       -3.79010       -0.84520
H         -4.67040       -3.49540        0.91510
H         -6.15540       -3.54660       -0.06670
H         -2.60140       -2.86990        0.02220
H          3.54880       -0.44010        0.00730
H          8.65640       -1.95050        0.52660
H         10.90970       -1.00490        0.49850
H         12.16590        0.86870        0.27940
