76

O         -9.01830        1.73970        1.37010
C         -9.70070        1.52350        0.41140
O        -11.02510        1.33460        0.47560
C         -9.21540        1.44290       -1.02960
O         -7.82200        1.44100       -1.13740
C         -7.12320        0.38280       -0.61750
C         -7.69110       -0.77510       -0.10260
C         -6.86920       -1.78610        0.36900
C         -5.49500       -1.65730        0.33770
C         -4.91930       -0.49700       -0.17160
C         -3.44330       -0.34260       -0.19820
C         -2.86120        0.50310        0.73230
N         -1.55340        0.74070        0.85670
C         -1.34590        1.57410        1.87840
C         -0.13340        2.06430        2.31260
C          1.14240        1.81780        1.81060
C          2.34910        2.38070        2.30010
C          3.37910        1.89620        1.54180
C          2.82530        1.02060        0.57370
N          1.47730        1.00550        0.77080
C          3.51550        0.30590       -0.41280
C          4.99000        0.47280       -0.44840
C          5.59260        1.23400       -1.44680
C          6.96430        1.38380       -1.46460
C          7.76050        0.78620       -0.49930
C          7.16550        0.03230        0.50410
O          7.83580       -0.60100        1.51350
C          9.22690       -0.45900        1.58580
C          9.75790       -1.14260        2.83560
O         10.91540       -1.42310        2.99070
O          8.81830       -1.36840        3.74250
C          5.78000       -0.11900        0.52190
C          2.93310       -0.54640       -1.33620
N          1.62870       -0.81110       -1.43910
C          1.42790       -1.70350       -2.41060
C          0.21850       -2.21520       -2.82820
C         -1.06070       -1.93960       -2.35070
C         -2.26910       -2.49220       -2.84810
C         -3.30270       -1.97220       -2.11870
C         -2.74870       -1.09270       -1.15420
N         -1.39780       -1.10190       -1.33200
C          2.72150       -2.14740       -3.07500
C          3.77200       -1.32110       -2.33950
C         -2.63380        1.97430        2.57890
C         -3.69560        1.24110        1.76480
C         -5.73730        0.51140       -0.65190
H        -11.33570        1.41440        1.39220
H         -9.67880        0.57530       -1.51890
H         -9.55230        2.34720       -1.54710
H         -8.76140       -0.90490       -0.05540
H         -7.31680       -2.68490        0.76740
H         -4.86110       -2.44770        0.71030
H         -0.17010        2.73850        3.15780
H          2.41360        3.06730        3.12180
H          4.42290        2.12130        1.63930
H          0.83590        0.46320        0.21050
H          4.98020        1.71490       -2.19470
H          7.43160        1.97590       -2.23780
H          8.83000        0.91860       -0.54420
H          9.73400       -0.90190        0.71660
H          9.52230        0.60020        1.65250
H          9.19430       -1.80240        4.52550
H          5.33680       -0.70700        1.31010
H          0.26030       -2.92690       -3.64180
H         -2.33260       -3.19190       -3.65880
H         -4.34970       -2.17300       -2.23490
H         -0.75730       -0.55370       -0.77670
H          2.69330       -1.93970       -4.14550
H          2.86440       -3.22120       -2.94380
H          4.51310       -1.93240       -1.82230
H          4.30750       -0.64070       -3.00190
H         -2.61080        1.65710        3.62280
H         -2.76000        3.05750        2.55940
H         -4.39650        1.92130        1.28140
H         -4.27850        0.53500        2.35790
H         -5.31490        1.41270       -1.06790
