41

F          1.68980       -3.46170        0.49620
B          1.26040       -2.56440       -0.44090
F          1.54890       -3.00240       -1.70880
O         -0.19000       -2.33740       -0.30120
C         -0.77660       -1.18480       -0.16280
C         -2.24550       -1.26000       -0.07180
C         -2.92370       -2.17250       -0.87810
C         -4.29990       -2.27690       -0.80570
C         -5.01010       -1.48830        0.08460
C         -4.33800       -0.60110        0.91050
C         -2.96320       -0.48350        0.83640
C         -0.09630        0.02260       -0.08130
C         -0.75150        1.34430       -0.05630
C         -0.38870        2.30060        0.88670
C         -0.99470        3.54410        0.89010
C         -1.96600        3.84860       -0.04790
C         -2.32580        2.90440       -0.99570
C         -1.72110        1.66190       -1.00440
C          1.30950       -0.05060       -0.08780
O          2.12120        1.00640        0.02490
C          3.39460        0.51040       -0.02400
C          4.60170        1.17460        0.05570
C          5.74110        0.38930       -0.02160
C          5.67220       -0.99400       -0.17210
C          4.46310       -1.66110       -0.25150
C          3.32100       -0.88280       -0.17350
N          1.98050       -1.19280       -0.21040
H         -2.35680       -2.78550       -1.56170
H         -4.81950       -2.97840       -1.44110
H         -6.08520       -1.57160        0.14300
H         -4.88790       -0.00050        1.61960
H         -2.44280        0.19230        1.49670
H          0.36110        2.06470        1.62710
H         -0.70840        4.27710        1.62990
H         -2.43870        4.81930       -0.04320
H         -3.07680        3.13940       -1.73530
H         -1.99390        0.93000       -1.74990
H          4.64780        2.24470        0.17140
H          6.70800        0.86470        0.03670
H          6.58940       -1.55970       -0.22740
H          4.39070       -2.72920       -0.36630
