81

C         -8.30820        1.03600        5.59330
C         -7.53590        0.99210        4.28030
C         -6.04690        0.74370        4.51540
C         -5.20910        0.81070        3.23980
C         -5.50710       -0.33900        2.27170
N         -4.63670       -0.32110        1.11380
C         -5.18890       -0.01910       -0.13520
C         -6.17970        0.95200       -0.27560
C         -6.73890        1.20850       -1.51400
C         -6.32100        0.51050       -2.63330
C         -5.33950       -0.45940       -2.50240
C         -4.78310       -0.72830       -1.26870
C         -3.27730       -0.54800        1.25280
C         -2.75870       -1.30050        2.31480
C         -1.40400       -1.54150        2.42900
C         -0.53470       -1.00900        1.49010
C         -1.03530       -0.20430        0.45040
C         -2.38330        0.01470        0.32510
C          0.09180        0.29010       -0.42760
C          0.34960        1.80380       -0.24110
C         -0.80400        2.72620       -0.61220
C         -0.12810       -0.07030       -1.90370
C         -0.24730       -1.57450       -2.12030
C          1.27900       -0.43520        0.17340
C          2.58490       -0.42710       -0.24320
C          3.55090       -1.14820        0.48020
C          4.93650       -1.20350        0.09570
C          5.49090       -0.64560       -1.00320
C          6.86830       -0.72920       -1.34910
C          7.91880       -1.35030       -0.68730
C          9.13200       -1.21580       -1.34070
C          9.05720       -0.48900       -2.52440
C         10.14650       -0.21260       -3.37220
C         10.14860        0.48860       -4.54480
C          8.99020        1.06650       -5.10080
N          8.05140        1.54050       -5.56080
C         11.38590        0.68770       -5.31620
O         11.46870        1.29060       -6.35720
O         12.46720        0.11720       -4.74080
S          7.41800        0.03130       -2.80920
C          3.14800       -1.84660        1.62940
C          1.83650       -1.85620        2.05420
C          0.89150       -1.15080        1.32120
H         -7.93620        1.83630        6.22900
H         -8.20080        0.09590        6.12980
H         -9.36620        1.20710        5.41000
H         -7.95010        0.20220        3.65130
H         -7.66390        1.94090        3.75430
H         -5.91370       -0.23400        4.98490
H         -5.67450        1.49640        5.21410
H         -5.38470        1.76360        2.73550
H         -4.14990        0.77090        3.50450
H         -5.40390       -1.29420        2.79820
H         -6.53490       -0.28050        1.91240
H         -6.50620        1.52140        0.58140
H         -7.50220        1.96760       -1.60430
H         -6.75690        0.71740       -3.59870
H         -5.01300       -1.01890       -3.36680
H         -4.03170       -1.49760       -1.16820
H         -3.41980       -1.73210        3.04890
H         -1.03300       -2.15140        3.23950
H         -2.77420        0.61260       -0.48310
H          1.22370        2.06760       -0.84080
H          0.60800        1.97150        0.80810
H         -0.49040        3.76080       -0.48910
H         -1.66120        2.55440        0.03290
H         -1.10690        2.58760       -1.64660
H          0.70630        0.31700       -2.49210
H         -1.04100        0.41170       -2.25630
H          0.66370       -2.08210       -1.81100
H         -0.42210       -1.79010       -3.17200
H         -1.07560       -1.97860       -1.54230
H          2.87070        0.12570       -1.12440
H          5.57580       -1.76080        0.76820
H          4.88060       -0.09060       -1.70100
H          7.79900       -1.88100        0.23950
H         10.05820       -1.62900       -0.98090
H         11.09820       -0.61140       -3.04340
H         13.24260        0.28560       -5.29700
H          3.89180       -2.39610        2.18960
H          1.55020       -2.40520        2.93890
