49

C          5.42840        0.58480       -0.31480
C          3.98360        0.41750        0.15910
C          3.98040       -0.19590        1.56070
C          3.28190        1.77810        0.17860
C          1.80970        1.69510        0.53030
O          1.25310        2.58320        1.14940
C          1.10560        0.50760        0.06540
C          1.75620       -0.50720       -0.53360
C          3.22530       -0.48820       -0.81880
O          1.16710       -1.65440       -0.91240
C         -0.14620       -1.86750       -0.56260
C         -0.63090       -3.15950       -0.83530
C         -1.91040       -3.49120       -0.50480
C         -2.76020       -2.54840        0.11010
C         -4.08730       -2.87660        0.44720
C         -4.91650       -1.95090        1.02690
O         -6.20430       -2.22210        1.36740
C         -4.43610       -0.65260        1.28870
C         -3.15300       -0.31340        0.97460
C         -2.26890       -1.24250        0.38080
C         -0.93320       -0.91520        0.04000
C         -0.39450        0.47470        0.26320
C         -1.01040        1.42320       -0.74750
C         -1.44400        2.69450       -0.38740
C         -1.97280        3.51390       -1.36920
C         -2.05390        3.03760       -2.66880
C         -1.58570        1.75870       -2.92350
N         -1.07540        0.97280       -1.99340
H          5.98000        1.22470        0.36960
H          5.92830       -0.38020       -0.35830
H          5.46270        1.03390       -1.30500
H          4.48050       -1.16200        1.55470
H          4.50240        0.45510        2.25800
H          2.96420       -0.33500        1.92120
H          3.34000        2.23260       -0.81570
H          3.76580        2.45920        0.88110
H          3.36970       -0.12340       -1.84110
H          3.60440       -1.51150       -0.78030
H          0.03590       -3.86290       -1.30880
H         -2.28990       -4.48040       -0.71410
H         -4.44600       -3.87630        0.23670
H         -6.41900       -3.13460        1.13910
H         -5.11200        0.05640        1.73970
H         -2.81370        0.68910        1.17820
H         -0.61780        0.83540        1.27320
H         -1.34670        3.03470        0.63140
H         -2.31690        4.50890       -1.12500
H         -2.46360        3.64310       -3.46250
H         -1.61610        1.33680       -3.92030
