90

C         -7.06490        2.72530       -4.27060
C         -7.26250        2.97620       -2.77980
C         -6.07520        2.52230       -1.93250
C         -5.90020        0.99930       -1.91460
N         -4.81750        0.60370       -1.05670
C         -3.49450        0.56100       -1.41780
C         -2.91100        0.80510       -2.65430
C         -1.53610        0.77910       -2.74430
C         -0.73230        0.55430       -1.61840
C          0.73450        0.56940       -1.72530
C          1.38580        1.52490       -2.51700
C          2.76010        1.60620       -2.56360
C          3.50140        0.68420       -1.83510
C          2.86790       -0.35830       -1.11240
C          1.47990       -0.36750       -1.02440
C          3.91870       -1.12070       -0.48930
C          3.96430       -2.27200        0.32900
C          5.16590       -2.50670        1.03910
C          5.18930       -3.49060        2.06640
C          4.09770       -4.23860        2.35060
C          2.94770       -4.17640        1.51620
C          1.88890       -5.08600        1.67470
C          0.85740       -5.13070        0.77200
C          0.88340       -4.29550       -0.34710
C          1.88830       -3.37240       -0.50160
C          2.90630       -3.23820        0.45640
C          6.33020       -1.76770        0.74370
C          6.33560       -0.77960       -0.20250
C          5.11430       -0.43100       -0.78550
N          4.85840        0.60880       -1.64380
C          5.83880        1.55310       -2.10610
C          6.19060        2.60270       -1.04360
C          5.01850        3.52260       -0.71140
C          5.38870        4.52890        0.37090
C         -1.32280        0.30550       -0.38810
C         -2.70790        0.25180       -0.28010
C         -3.62620        0.07690        0.81520
C         -3.49130       -0.25010        2.18320
C         -4.59850        0.02670        3.02020
C         -4.43800       -0.03570        4.43230
C         -3.25450       -0.38020        4.99180
C         -2.18450       -0.85090        4.18170
C         -1.01640       -1.37790        4.75710
C         -0.05400       -1.96950        3.98020
C         -0.26270       -2.10580        2.60640
C         -1.38240       -1.57080        2.01950
C         -2.33130       -0.86190        2.77390
C         -5.84560        0.38410        2.46670
C         -6.02610        0.50940        1.11620
C         -4.90150        0.38900        0.29600
H         -6.14140        3.18650       -4.61410
H         -7.89010        3.15170       -4.83600
H         -7.02300        1.66130       -4.48930
H         -8.16620        2.46420       -2.44100
H         -7.41060        4.04630       -2.61960
H         -6.21490        2.86310       -0.90370
H         -5.15750        2.97930       -2.30960
H         -5.68920        0.62910       -2.92040
H         -6.82000        0.52270       -1.56350
H         -3.51130        1.02210       -3.52550
H         -1.06500        0.94230       -3.70250
H          0.79530        2.24720       -3.06100
H          3.23920        2.38650       -3.13560
H          0.97530       -1.09070       -0.40410
H          6.10110       -3.60670        2.63580
H          4.10400       -4.94690        3.16680
H          1.91550       -5.77190        2.50980
H          0.04660       -5.83240        0.90190
H          0.11260       -4.38360       -1.09900
H          1.93010       -2.77480       -1.39770
H          7.23890       -2.01010        1.27590
H          7.24640       -0.25850       -0.45520
H          5.44790        2.04620       -2.99910
H          6.74240        1.00400       -2.39140
H          6.51210        2.09240       -0.13320
H          7.02960        3.19840       -1.41030
H          4.17030        2.92470       -0.37230
H          4.71020        4.05820       -1.61230
H          4.54520        5.17840        0.59110
H          6.22460        5.14730        0.05020
H          5.67370        4.01570        1.28670
H         -0.70050        0.20070        0.48640
H         -5.28360        0.23190        5.05070
H         -3.12170       -0.36910        6.06440
H         -0.90230       -1.33110        5.83130
H          0.84450       -2.36970        4.42690
H          0.45560       -2.64640        2.00960
H         -1.56690       -1.73960        0.97060
H         -6.67490        0.55060        3.13910
H         -6.99650        0.74460        0.70590
