21

O         -0.39920       -2.93810       -0.18880
C         -0.31050       -1.73830       -0.11530
C          0.92460       -0.91370       -0.00780
C          2.23980       -1.32710        0.03220
C          3.20630       -0.33410        0.13640
F          4.50230       -0.69410        0.17860
C          2.89120        1.01260        0.19880
C          1.56140        1.41610        0.15750
C          0.58070        0.44990        0.05410
C         -0.87620        0.55800       -0.01040
C         -1.74330        1.63420        0.00960
N         -3.05870        1.46920       -0.06380
C         -3.55860        0.25360       -0.15820
C         -2.78410       -0.90950       -0.18760
C         -1.41910       -0.73710       -0.11140
H          2.51180       -2.36960       -0.01470
H          3.68810        1.73520        0.27910
H          1.31030        2.46410        0.20570
H         -1.40020        2.65710        0.08520
H         -4.63760        0.20070       -0.21360
H         -3.22870       -1.88890       -0.26570
