40

C         -0.35480       -3.28570        0.84940
C         -1.25170       -2.11930        0.59000
C         -2.62330       -2.23520        0.67150
C         -3.46830       -1.15880        0.41460
O         -4.79930       -1.38840        0.56140
C         -2.93790        0.08540        0.04230
C         -3.85510        1.26860       -0.19190
C         -3.26210        2.32290       -1.12570
C         -4.22290        1.90570        1.15430
C         -1.56350        0.19390       -0.05570
C         -0.70780       -0.88040        0.20580
N          0.65960       -0.76270        0.18960
C          1.30150        0.00350       -0.59540
C          2.74250        0.12240       -0.50010
C          3.44300        0.92150       -1.40970
C          4.81310        1.03990       -1.32660
C          5.49620        0.35500       -0.32630
N          6.92490        0.47650       -0.23730
O          7.49050       -0.13360        0.64730
O          7.48430        1.18180       -1.05260
C          4.81660       -0.44590        0.58910
C          3.44840       -0.55770        0.50000
H         -0.84110       -4.01090        1.49630
H         -0.10050       -3.77880       -0.08920
H          0.57170       -2.94440        1.30410
H         -3.07880       -3.17170        0.95430
H         -5.30430       -0.58910        0.36990
H         -4.77480        0.90730       -0.67540
H         -2.44570        2.85750       -0.64690
H         -2.89650        1.86400       -2.04150
H         -4.02740        3.05070       -1.38740
H         -4.67130        1.17930        1.82930
H         -4.92520        2.72380        1.00880
H         -3.32810        2.29900        1.63180
H         -1.11990        1.14710       -0.29740
H          0.82370        0.58660       -1.39350
H          2.90360        1.44820       -2.18320
H          5.37060        1.65180       -2.01930
H          5.37850       -0.96290        1.35200
H          2.89170       -1.16700        1.19340
