50

O         -2.25650       -1.80530        2.66110
C         -2.95380       -1.85810        1.49620
C         -4.24790       -2.36050        1.44210
C         -4.95310       -2.35760        0.25230
C         -4.37310       -1.84790       -0.89590
C         -3.08460       -1.34830       -0.84880
C         -2.36150       -1.34460        0.33650
C         -0.96350       -0.86910        0.36270
N         -0.07020       -1.77920        0.73400
C          1.20840       -1.47100        0.73780
C          1.70560       -0.22500        0.31760
C          0.78260        0.69670       -0.17820
C         -0.58720        0.40120       -0.08710
C         -1.55190        1.42990       -0.49140
C         -2.78570        1.58980        0.13100
C         -3.66340        2.56820       -0.29790
C         -3.31730        3.40420       -1.34590
C         -2.07140        3.28440       -1.93820
C         -1.18260        2.31360       -1.51090
C          0.20420        2.18380       -2.06570
C          1.17100        1.95600       -0.90130
C          3.15360       -0.00840        0.40920
C          3.71350        1.23920        0.67130
C          5.08600        1.39680        0.74540
C          5.92060        0.30820        0.56710
C          5.37280       -0.94810        0.36690
C          4.00110       -1.12040        0.30380
C          3.37840       -2.48050        0.18060
C          2.17950       -2.54560        1.12580
H         -2.76040       -2.23840        3.36080
H         -4.70160       -2.75570        2.34250
H         -5.95750       -2.75350        0.22620
H         -4.92070       -1.84380       -1.82590
H         -2.62170       -0.95730       -1.74290
H         -3.05160        0.95860        0.96430
H         -4.62030        2.68020        0.19020
H         -4.00700        4.16210       -1.68740
H         -1.78360        3.95660       -2.73470
H          0.25670        1.33030       -2.75030
H          0.48160        3.08060       -2.62210
H          2.19370        1.87740       -1.27220
H          1.11180        2.81480       -0.22450
H          3.07420        2.08770        0.85700
H          5.50290        2.37270        0.94760
H          6.99270        0.43030        0.61200
H          6.02000       -1.80870        0.27050
H          4.10690       -3.25530        0.42390
H          3.03750       -2.64640       -0.84680
H          2.51520       -2.38340        2.15470
H          1.67730       -3.51110        1.07720
