67

C         12.92120       -0.19090        0.98950
C         11.60680       -0.12160        0.26880
C         11.60820       -0.01450       -1.13070
C         10.44490        0.05370       -1.86760
C          9.25240        0.01190       -1.16460
N          7.93800        0.05350       -1.54440
C          7.18540       -0.02560       -0.39630
C          5.73750       -0.01070       -0.37760
C          5.08300       -0.07530        0.85520
C          3.70780       -0.05720        0.92250
C          2.93560        0.01920       -0.23750
C          1.46950        0.04160       -0.16500
C          0.81530        0.78240        0.81700
C         -0.56230        0.80020        0.86820
C         -1.33050        0.07060       -0.03680
C         -2.79780        0.11930        0.08790
C         -3.45270        1.34810        0.10460
C         -4.82520        1.41940        0.23320
C         -5.58340        0.25540        0.36140
C         -7.02560        0.26990        0.49510
N         -7.75980       -0.80890        0.60240
C         -9.05270       -0.38270        0.70370
C        -10.23310       -1.10820        0.83730
C        -11.42450       -0.41500        0.91820
C        -12.72900       -1.14300        1.06070
C        -11.43530        0.98760        0.86610
C        -10.28170        1.73100        0.73450
C         -9.08920        1.03140        0.65370
N         -7.78250        1.41740        0.52040
C         -4.92510       -0.97690        0.36190
C         -3.55590       -1.04280        0.22510
C         -0.68730       -0.67040       -1.03330
C         -1.45040       -1.44540       -2.06680
C          0.69890       -0.66740       -1.08090
C          3.59040        0.07800       -1.46630
C          4.96820        0.06650       -1.53900
N          7.92990       -0.11420        0.67710
C          9.22520       -0.09490        0.24670
C         10.41530       -0.16220        0.96550
H         12.77100       -0.27800        2.06230
H         13.51060        0.70420        0.79240
H         13.49760       -1.05010        0.64780
H         12.55900        0.01500       -1.64330
H         10.46450        0.13590       -2.94450
H          7.59600        0.13020       -2.48640
H          5.68710       -0.14020        1.74600
H          3.21700       -0.12330        1.88240
H          1.38920        1.36280        1.52410
H         -1.06420        1.37560        1.63320
H         -2.87540        2.25560       -0.00180
H         -5.29850        2.39110        0.23130
H        -10.20440       -2.18570        0.87550
H        -13.37890       -0.92750        0.21270
H        -12.56990       -2.21700        1.11130
H        -13.24620       -0.82440        1.96540
H        -12.38580        1.49740        0.93220
H        -10.30850        2.81030        0.69630
H         -7.44780        2.36300        0.45720
H         -5.52090       -1.86880        0.47200
H         -3.05870       -2.00090        0.24330
H         -2.44610       -1.03440       -2.21380
H         -0.91830       -1.43150       -3.01610
H         -1.55390       -2.48660       -1.76110
H          1.19360       -1.25160       -1.84430
H          3.01050        0.15640       -2.37460
H          5.43810        0.12030       -2.51100
H         10.39390       -0.24410        2.04080
