50

C         -6.05780       -1.24550        0.86880
C         -5.98430       -0.60500       -0.51900
N         -5.12580        0.55930       -0.56910
C         -5.77320        1.85260       -0.56330
C         -6.06930        2.38690        0.83970
C         -3.76910        0.44720       -0.43780
C         -2.94470        1.56730       -0.22760
C         -1.58570        1.42430       -0.12580
C         -0.93120        0.18710       -0.21790
C          0.49200        0.17250       -0.08960
C          1.34320       -0.88110       -0.13670
C          2.74110       -0.70010        0.00660
N          3.35490        0.41700        0.19160
C          4.69110        0.27120        0.28750
N          5.53860        1.24760        0.47500
C          6.84330        0.91640        0.54490
C          7.80140        1.93050        0.74580
C          9.12920        1.61390        0.81860
C          9.55920        0.28200        0.69540
C          8.65760       -0.72780        0.50000
C          7.28400       -0.43520        0.42070
N          6.40090       -1.44280        0.22740
C          5.15230       -1.09830        0.16380
S          3.80380       -2.15360       -0.07480
C         -1.75810       -0.94510       -0.43410
O         -1.14180       -2.15110       -0.53460
C         -1.90280       -3.31100       -0.76510
C         -3.12960       -0.79980       -0.53350
H         -5.06520       -1.50870        1.22430
H         -6.50160       -0.55920        1.58460
H         -6.66680       -2.14510        0.82850
H         -5.64520       -1.34450       -1.25220
H         -6.98650       -0.29400       -0.82100
H         -5.14730        2.56260       -1.10860
H         -6.71160        1.76130       -1.11810
H         -6.46250        3.39810        0.77430
H         -5.16440        2.40060        1.44150
H         -6.80650        1.76470        1.34040
H         -3.36160        2.55480       -0.13020
H         -0.98170        2.30400        0.04140
H          0.94770        1.14310        0.06490
H          1.00060       -1.89050       -0.28490
H          7.44930        2.94610        0.83740
H          9.86320        2.39150        0.97250
H         10.61460        0.06040        0.75670
H          8.96390       -1.75770        0.40260
H         -2.44620       -3.25710       -1.71400
H         -1.18230       -4.12640       -0.81300
H         -2.60690       -3.50340        0.05110
H         -3.72210       -1.67990       -0.70590
