76

C          0.71690       -5.20750       -0.60680
C          0.06740       -3.86140       -0.32650
O          1.04730       -2.85330       -0.05360
C          1.66740       -2.31600       -1.08320
O          1.57650       -2.66000       -2.22930
C          2.66870       -1.24550       -0.61510
C          3.44540       -1.87580        0.55050
O          3.56870       -1.40850        1.64670
O          3.96340       -3.03600        0.15380
C          4.69090       -3.79170        1.12670
C          6.12400       -3.29740        1.25780
C          2.18100        0.11060       -0.22230
N          0.93200        0.58490       -0.14920
C          0.99960        1.90090        0.27770
C         -0.13490        2.69970        0.43240
C         -0.01120        4.08390        0.90000
C         -0.76130        4.52300        1.98890
C         -0.64630        5.82360        2.43980
C          0.20180        6.72660        1.80970
C          0.30730        8.14390        2.27880
C          0.93690        6.28850        0.71310
C          0.84030        4.98610        0.26530
C         -1.39540        2.19830        0.10450
C         -2.64610        2.84960        0.02380
C         -3.53960        1.93060       -0.47700
C         -2.83310        0.73800       -0.69600
C         -3.35750       -0.52620       -1.28790
C         -3.15700       -1.70400       -0.32420
O         -2.86950       -2.82870       -0.61250
O         -3.43320       -1.28260        0.90660
C         -3.26140       -2.22030        1.97430
C         -4.07710       -1.74740        3.16310
C         -2.76350       -0.70150       -2.70150
O         -2.48380        0.25060       -3.38160
O         -2.71000       -1.95790       -3.07690
C         -2.20340       -2.23410       -4.38930
C         -0.71220       -1.96850       -4.51440
N         -1.55340        0.90710       -0.34560
B         -0.42620       -0.15340       -0.29590
F         -0.45190       -0.91250       -1.43790
F         -0.62610       -0.94780        0.82050
C          2.35630        2.23060        0.48850
C          3.08840        1.11790        0.15770
H         -0.05740       -5.95310       -0.76120
H          1.33240       -5.14610       -1.50070
H          1.34060       -5.50940        0.23230
H         -0.54760       -3.53910       -1.17020
H         -0.54980       -3.89430        0.57170
H          3.37470       -1.11880       -1.44640
H          4.17360       -3.71900        2.08850
H          4.66020       -4.82000        0.76110
H          6.13250       -2.27880        1.63730
H          6.61970       -3.32070        0.29020
H          6.66660       -3.93480        1.94990
H         -1.41250        3.82770        2.49680
H         -1.22440        6.14340        3.29470
H         -0.31030        8.78880        1.65300
H          1.33360        8.49820        2.21040
H         -0.03360        8.24140        3.30640
H          1.59350        6.97970        0.20450
H          1.40050        4.66710       -0.60060
H         -2.83380        3.87290        0.28270
H         -4.58110        2.07930       -0.68290
H         -4.44140       -0.42260       -1.42580
H         -2.19490       -2.25780        2.21560
H         -3.58370       -3.20920        1.63040
H         -3.75430       -0.75370        3.46070
H         -3.93730       -2.43100        3.99550
H         -5.13320       -1.70930        2.90830
H         -2.43300       -3.29030       -4.54330
H         -2.75890       -1.62220       -5.11000
H         -0.36640       -2.31360       -5.48500
H         -0.16100       -2.48320       -3.73300
H         -0.51470       -0.90450       -4.42290
H          2.72180        3.17220        0.84630
H          4.15350        1.00410        0.19200
