78

C        -11.91610        0.52360       -0.91580
C        -10.74480       -0.43790       -1.07910
C        -10.71000       -1.46920        0.04740
C         -9.66200       -2.56580       -0.15540
C         -8.23690       -2.05690       -0.36680
C         -7.72530       -1.22930        0.81070
N         -6.37760       -0.73650        0.55110
C         -6.27870        0.41730       -0.20450
O         -7.27690        0.98380       -0.60640
C         -4.92050        0.91260       -0.47980
C         -4.75690        2.04290       -1.25300
C         -3.47480        2.49980       -1.55800
C         -2.36930        1.86310       -1.05240
C         -2.49410        0.74000       -0.21070
C         -1.37680        0.05720        0.35870
C         -0.03730        0.59840        0.27970
C          0.37020        1.90380        0.41120
C          1.75960        2.06270        0.33540
C          2.42760        0.87970        0.14280
C          3.83830        0.67250        0.00240
C          4.86520        1.64170       -0.02470
C          6.03440        0.92700       -0.17810
C          7.40340        1.42510       -0.16800
C          7.72790        2.57730       -0.88490
C          9.00740        3.08300       -0.85860
C         10.00250        2.45680       -0.10450
O         11.23140        3.03620       -0.14880
C         12.27700        2.46180        0.59720
C          9.68130        1.31600        0.62490
C          8.39450        0.81130        0.59110
N          5.67220       -0.38830       -0.24390
C          6.47340       -1.51490       -0.47450
C          7.57860       -1.45480       -1.31680
C          8.33950       -2.59070       -1.52240
C          7.99730       -3.78570       -0.91100
C          6.87790       -3.84890       -0.09750
C          6.11400       -2.71860        0.12280
N          4.35550       -0.54280       -0.13040
S          1.33330       -0.45830        0.07640
C         -1.58610       -1.14010        1.02480
C         -2.86340       -1.64700        1.22560
C         -3.97080       -0.95850        0.76770
C         -3.79690        0.23190        0.03370
C         -5.31590       -1.48570        1.03400
O         -5.51050       -2.51530        1.64940
H        -11.84150        1.05600        0.03000
H        -11.92420        1.25590       -1.71980
H        -12.86240       -0.01430       -0.93110
H        -10.83180       -0.95480       -2.03790
H         -9.81750        0.13590       -1.08730
H        -10.53540       -0.95980        0.99690
H        -11.69020       -1.94940        0.11660
H         -9.93990       -3.16040       -1.02910
H         -9.67640       -3.22900        0.71300
H         -8.19240       -1.44800       -1.27080
H         -7.57210       -2.91350       -0.50310
H         -8.36040       -0.35670        0.96720
H         -7.68580       -1.83710        1.71590
H         -5.63410        2.54430       -1.63310
H         -3.35530        3.35660       -2.20400
H         -1.38390        2.20710       -1.32470
H         -0.30710        2.71610        0.60760
H          2.25590        3.01230        0.42290
H          4.76710        2.70200        0.08080
H          6.96750        3.06580       -1.47560
H          9.26870        3.96870       -1.41550
H         12.49110        1.43950        0.26910
H         13.14820        3.08820        0.41290
H         12.05310        2.46090        1.66880
H         10.42150        0.81370        1.22720
H          8.15880       -0.06780        1.17310
H          7.83450       -0.53110       -1.81230
H          9.19940       -2.54270       -2.17360
H          8.59660       -4.66810       -1.07710
H          6.59980       -4.78160        0.36960
H          5.23420       -2.74730        0.74600
H         -0.73390       -1.67110        1.42270
H         -3.01350       -2.57100        1.76320
