49

C          6.03330       -2.67710       -0.21530
O          4.63470       -2.54140       -0.21770
C          4.09450       -1.28830       -0.17090
C          4.84210       -0.11650       -0.11520
C          4.17980        1.10690       -0.07120
O          4.80910        2.31670       -0.01470
C          6.21370        2.35080        0.00480
C          2.79250        1.15550       -0.08270
C          2.03640       -0.01500       -0.13650
C          0.58880        0.03350       -0.14660
C         -0.21960        1.11920       -0.09590
C         -1.60480        0.72140       -0.11980
C         -2.69720        1.68720       -0.00670
C         -2.66870        2.86820       -0.74480
C         -3.68780        3.79520       -0.62630
C         -4.74320        3.56230        0.23910
C         -4.77440        2.39580        0.98660
C         -3.76070        1.46510        0.86660
C         -1.67450       -0.63870       -0.19760
C         -2.84450       -1.48600       -0.33440
C         -3.97450       -1.04490       -1.02920
C         -5.08010       -1.85940       -1.16930
C         -5.08530       -3.13390       -0.62500
C         -3.96780       -3.58990        0.05400
C         -2.85820       -2.77920        0.19410
C         -0.27830       -1.18990       -0.19960
C          2.70660       -1.23710       -0.18100
H          6.48800       -2.19400       -1.08680
H          6.47760       -2.27060        0.69970
H          6.22550       -3.74800       -0.26010
H          5.91800       -0.15540       -0.10620
H          6.64180        1.91280       -0.90330
H          6.61880        1.83680        0.88320
H          6.48200        3.40510        0.05310
H          2.32210        2.12300       -0.04740
H          0.08460        2.14750       -0.02440
H         -1.85080        3.04760       -1.42800
H         -3.65810        4.70380       -1.21040
H         -5.53780        4.28790        0.33300
H         -5.59260        2.21310        1.66810
H         -3.78200        0.55840        1.45330
H         -3.97140       -0.06070       -1.47250
H         -5.94340       -1.50060       -1.71100
H         -5.95230       -3.76870       -0.73330
H         -3.96180       -4.58410        0.47790
H         -1.99910       -3.14510        0.73700
H         -0.10220       -1.82550        0.67020
H         -0.09100       -1.79240       -1.09010
H          2.17280       -2.17150       -0.22480
