58

F          1.27560        1.13640       -2.19310
C          0.65580        0.59890       -1.11880
C         -0.72330        0.57500       -1.12460
C         -1.41450        0.01790       -0.05190
C         -2.88160       -0.01160       -0.04010
C         -3.59280        0.21710        1.13900
C         -4.96950        0.18700        1.14880
C         -5.68520       -0.07850       -0.02130
C         -7.13190       -0.10490        0.04270
N         -7.81520        0.03420        1.15030
C         -9.13190       -0.04950        0.80040
C        -10.28160        0.02890        1.58110
C        -11.49700       -0.09150        0.94300
C        -11.58800       -0.28560       -0.43800
C        -10.46280       -0.36740       -1.23310
C         -9.23730       -0.24800       -0.59890
N         -7.94630       -0.28040       -1.05140
C         -4.97690       -0.31080       -1.20070
C         -3.59770       -0.27440       -1.20690
C         -0.67600       -0.51460        1.00420
C          0.70310       -0.49350        0.98590
C          1.41260        0.06930       -0.07490
C          2.88120        0.08830       -0.07740
C          3.59260       -1.03990        0.32760
C          4.97190       -1.04040        0.34000
C          5.68220        0.09630       -0.04800
C          7.12960        0.15220       -0.05010
N          7.81840        1.21390       -0.38310
C          9.13370        0.87190       -0.25750
C         10.28730        1.61730       -0.48340
C         11.50010        0.99900       -0.26930
C         11.58490       -0.32840        0.15930
C         10.45560       -1.08800        0.38960
C          9.23290       -0.47350        0.17640
N          7.93950       -0.90310        0.29990
C          4.96900        1.22790       -0.45040
C          3.59160        1.22360       -0.46750
H         -1.24850        1.01140       -1.95980
H         -3.05590        0.44330        2.04820
H         -5.52710        0.36780        2.05370
H        -10.20980        0.17870        2.64620
H        -12.40830       -0.03530        1.51990
H        -12.56380       -0.37370       -0.89220
H        -10.53440       -0.51760       -2.30040
H         -7.65680       -0.39660       -2.00700
H         -5.49540       -0.53050       -2.12300
H         -3.06500       -0.47680       -2.12440
H         -1.19070       -0.96830        1.83750
H          1.25470       -0.90380        1.81860
H          3.05560       -1.93260        0.61440
H          5.48850       -1.93620        0.65430
H         10.22030        2.64110       -0.81420
H         12.41430        1.54970       -0.43540
H         12.55890       -0.76880        0.31360
H         10.52250       -2.11400        0.72080
H          7.64550       -1.82080        0.58580
H          5.52800        2.10110       -0.74570
H          3.05880        2.11100       -0.77270
