47

N          5.55300       -1.56820       -2.43500
S          5.67710       -1.72210       -0.75520
O          5.87380       -3.11410       -0.46770
O          6.64660       -0.76680       -0.29790
C          4.05540       -1.22190       -0.24770
C          3.82420        0.09690        0.08960
C          2.55840        0.50140        0.46220
C          1.51090       -0.42880        0.49490
N          0.24760       -0.06660        0.86860
N         -0.75800       -0.95200        0.89630
C         -1.83840       -0.40460        1.32380
C         -3.08430       -1.11740        1.45110
C         -4.23830       -0.48930        1.92220
C         -5.42260       -1.18890        2.03820
C         -5.48240       -2.53300        1.68600
O         -6.62530       -3.25730        1.78380
C         -4.33450       -3.17020        1.21410
C         -3.15640       -2.47150        1.09980
C         -1.64300        1.06010        1.67070
C         -0.16540        1.27970        1.29100
C         -0.01830        2.28630        0.17800
C         -0.34540        1.93780       -1.12710
C         -0.24510        2.86210       -2.14950
C          0.17950        4.15000       -1.86330
Cl         0.30550        5.31160       -3.13620
C          0.50400        4.51700       -0.56700
C          0.40410        3.58170        0.44650
C          1.76630       -1.76520        0.14780
C          3.03370       -2.15460       -0.22120
H          5.72920       -2.44580       -2.89660
H          6.16130       -0.84510       -2.78320
H          4.64970        0.78980        0.06700
H          2.38260        1.53280        0.72040
H         -4.21480        0.55300        2.20140
H         -6.31090       -0.69090        2.40510
H         -7.34100       -2.70530        2.12190
H         -4.39740       -4.21250        0.94570
H         -2.26410       -2.95510        0.73710
H         -1.83090        1.23970        2.72990
H         -2.30720        1.69800        1.08530
H          0.43310        1.58680        2.15630
H         -0.67720        0.93410       -1.34800
H         -0.49530        2.58780       -3.16200
H          0.83290        5.52210       -0.35550
H          0.65820        3.86520        1.45780
H          0.95130       -2.46930        0.18360
H          3.25770       -3.17720       -0.47800
