66

C         -8.87630        0.21500        2.64350
C         -8.80900        0.91950        1.28890
N         -8.26470        0.06210        0.27060
C         -8.98620       -0.81660       -0.50590
C        -10.35450       -1.04460       -0.54890
C        -10.82450       -1.98850       -1.44180
C         -9.96130       -2.69600       -2.27550
C         -8.59870       -2.47760       -2.23650
C         -8.10310       -1.53410       -1.34690
C         -6.78120       -1.06630       -1.03680
C         -5.52380       -1.38710       -1.51650
C         -4.41760       -0.73400       -0.97610
C         -3.12550       -1.03920       -1.44580
C         -2.01660       -1.29830       -1.85130
C         -0.72390       -1.59450       -2.33190
C          0.40850       -1.04740       -1.72490
C          1.64370       -1.38950       -2.27840
C          2.84490       -0.88450       -1.73730
C          3.87760       -0.45730       -1.27680
C          5.08370        0.03980       -0.74570
C          6.27050       -0.10800       -1.48530
C          7.47540        0.35890       -1.01010
C          7.49450        0.98400        0.23230
C          6.30520        1.13240        0.99080
C          5.09900        0.66440        0.49950
C          6.68350        1.79350        2.20800
C          5.98020        2.20040        3.33370
C          6.67170        2.81530        4.35810
C          8.04610        3.02500        4.26970
C          8.76730        2.62920        3.15960
C          8.07890        2.01280        2.12400
N          8.54450        1.53630        0.91950
C          9.91990        1.52810        0.49930
C         10.64720        0.26930        0.97090
N          1.73100       -2.20430       -3.33900
C          0.59570       -2.66370       -3.82220
N         -0.62170       -2.41260       -3.38860
C         -4.58050        0.22890        0.03520
C         -5.82710        0.55910        0.51860
C         -6.93360       -0.08820       -0.02080
H         -9.50410       -0.67050        2.57590
H         -7.88150       -0.09210        2.95790
H         -9.29090        0.88270        3.39410
H         -8.18300        1.81320        1.36140
H         -9.80970        1.23240        0.97890
H        -11.03820       -0.50910        0.09270
H        -11.88560       -2.18400       -1.49290
H        -10.36890       -3.42600       -2.95880
H         -7.92890       -3.02680       -2.88060
H         -5.39160       -2.12720       -2.29080
H          0.33250       -0.39070       -0.87250
H          6.22100       -0.60050       -2.44490
H          8.37600        0.23350       -1.59240
H          4.18660        0.77260        1.06650
H          4.91550        2.03550        3.40270
H          6.14500        3.13830        5.24370
H          8.56020        3.50570        5.08900
H          9.83300        2.79570        3.11060
H          9.94970        1.59190       -0.59180
H         10.41020        2.41810        0.90330
H         10.62410        0.20590        2.05640
H         11.68300        0.28890        0.64260
H         10.16690       -0.61760        0.56430
H          0.67230       -3.32510       -4.67750
H         -3.70190        0.71400        0.43450
H         -5.93070        1.29980        1.29740
