48

C         -7.80300        0.44070        0.51430
C         -6.62710        0.92620       -0.32540
N         -5.63990       -0.12190       -0.51040
C         -4.96960       -0.47330        0.73250
C         -3.62950       -1.15620        0.48010
N         -2.72420       -0.24460       -0.18900
C         -1.38080       -0.30550       -0.03250
C         -0.54970        0.75700       -0.45630
C          0.80630        0.70260       -0.29800
C          1.42000       -0.41870        0.29610
N          2.75520       -0.57180        0.48440
N          3.52470        0.38890        0.16700
C          4.87160        0.21030        0.15940
C          5.46980       -0.96720       -0.32680
C          6.84250       -1.02940       -0.48490
N          7.43680       -2.24790       -0.99550
O          6.68660       -3.13480       -1.33760
O          8.64420       -2.30200       -1.04910
C          7.66980        0.03660       -0.15630
C          7.06790        1.19210        0.33220
N          7.90100        2.32210        0.68300
O          9.09040        2.22420        0.48240
O          7.35490        3.29560        1.15380
C          5.69700        1.29850        0.47910
C          0.59910       -1.47830        0.72040
C         -0.75880       -1.42560        0.56110
C         -3.35930        0.71380       -1.06970
C         -4.68280        0.12810       -1.57300
H         -8.59690        1.18260        0.49510
H         -8.18340       -0.49180        0.10720
H         -7.51200        0.27860        1.54840
H         -6.99810        1.20500       -1.31430
H         -6.19010        1.82700        0.14430
H         -4.79490        0.41900        1.35950
H         -5.61120       -1.15810        1.29390
H         -3.20490       -1.43950        1.44540
H         -3.78640       -2.06530       -0.11400
H         -0.98900        1.64230       -0.88770
H          1.43350        1.52340       -0.61200
H          4.85090       -1.81300       -0.58480
H          8.73990       -0.02720       -0.27720
H          5.26450        2.21390        0.85260
H          1.06880       -2.34250        1.16350
H         -1.35250       -2.27040        0.87020
H         -3.54750        1.66260       -0.54840
H         -2.71060        0.91100       -1.92620
H         -4.47250       -0.82120       -2.07950
H         -5.12100        0.80430       -2.30810
