51

C          5.84010       -3.37600       -0.30690
C          5.52770       -2.94900        1.12140
C          4.72450       -1.65750        1.16790
S          3.04750       -1.94710        0.46670
C          2.37870       -0.36340        0.55480
N          1.13930       -0.11330        0.10180
C          0.86880        1.22440        0.29350
C         -0.35840        1.78320       -0.06620
C         -0.61830        3.21030        0.15810
C         -1.74300        3.61950        0.87110
C         -1.98500        4.96410        1.08340
C         -1.11470        5.91710        0.58060
C          0.00310        5.51860       -0.13380
C          0.25380        4.17500       -0.34160
C         -1.33970        0.97410       -0.64510
C         -2.62000        1.30460       -1.14020
C         -3.17620        0.15100       -1.63930
C         -2.23060       -0.87600       -1.45130
S         -2.28930       -2.53490       -1.94040
C         -4.08250       -2.90680       -1.81880
C         -4.47100       -3.38200       -0.42460
C         -4.26340       -2.32080        0.64820
N         -1.13450       -0.36980       -0.86390
B          0.13560       -1.15080       -0.45410
F          0.67540       -1.79790       -1.54460
F         -0.18420       -2.06230        0.53650
C          1.99730        1.81240        0.90700
C          2.94110        0.82580        1.06350
H          4.91920       -3.53280       -0.86250
H          6.40790       -4.30280       -0.30990
H          6.42480       -2.61210       -0.81500
H          6.45900       -2.79440        1.67230
H          4.96580       -3.73720        1.62540
H          4.59710       -1.31720        2.19510
H          5.20670       -0.88300        0.57260
H         -2.41110        2.87470        1.27720
H         -2.85600        5.26990        1.64420
H         -1.30710        6.96680        0.74450
H          0.68180        6.25830       -0.53230
H          1.11450        3.86360       -0.91450
H         -3.05450        2.28500       -1.14040
H         -4.13460        0.05510       -2.10910
H         -4.64280       -2.02350       -2.11210
H         -4.25230       -3.69590       -2.55070
H         -5.52390       -3.67640       -0.45240
H         -3.88060       -4.26530       -0.17530
H         -3.20670       -2.08860        0.75710
H         -4.79800       -1.40620        0.39790
H         -4.62880       -2.68230        1.60610
H          2.08210        2.83980        1.20180
H          3.91470        0.93200        1.49710
