85

C          4.62200        6.71990        1.54780
C          3.95650        6.81700        0.17380
N          2.51290        6.76530        0.25270
C          1.84680        8.04440        0.37180
C          1.46720        8.63430       -0.98750
C          1.82590        5.58920        0.22510
C          2.48770        4.34620        0.28800
C          1.79370        3.16280        0.25820
C          0.39870        3.14780        0.16950
C         -0.33210        1.90550        0.14190
N         -1.66240        1.94550        0.09070
C         -2.27960        0.77550        0.07220
O         -3.60090        0.88480        0.00820
C         -4.50700       -0.14460       -0.00250
C         -5.82650        0.26470       -0.21660
C         -6.84610       -0.65670       -0.23940
C         -6.57800       -2.01600       -0.04630
C         -7.68290       -2.95060       -0.08080
N         -8.92600       -2.60820       -0.29470
C         -9.65470       -3.75980       -0.25080
C        -11.01570       -3.96900       -0.41280
C        -11.46410       -5.27700       -0.31080
N        -12.86730       -5.54250       -0.47220
O        -13.60050       -4.60130       -0.69430
O        -13.24240       -6.69410       -0.37830
C        -10.60710       -6.35800       -0.05650
C         -9.25470       -6.16240        0.10570
C         -8.78740       -4.85880        0.00640
N         -7.54540       -4.31000        0.10850
C         -5.25980       -2.41300        0.17050
C         -4.22900       -1.49220        0.19410
N         -1.67310       -0.40490        0.09920
C         -0.34580       -0.34080        0.14160
O          0.24070       -1.53690        0.20360
C          1.60390       -1.67990        0.09840
C          2.39930       -0.91020       -0.74160
C          3.75330       -1.16760       -0.82880
C          4.33460       -2.19830       -0.09060
C          5.74850       -2.50480       -0.15380
N          6.32230       -3.45920        0.53010
C          7.64390       -3.43080        0.19560
C          8.69780       -4.22210        0.62670
C          9.94700       -3.94430        0.09400
N         11.07070       -4.73820        0.51180
O         12.15750       -4.47870        0.03570
O         10.87060       -5.62340        1.31700
C         10.16680       -2.91930       -0.83810
C          9.12880       -2.12750       -1.27290
C          7.87010       -2.39110       -0.74960
N          6.64780       -1.82390       -0.94760
C          3.52080       -2.97490        0.73910
C          2.17120       -2.72030        0.83220
N          0.36790        0.76180        0.16370
C         -0.27120        4.37360        0.10960
C          0.41950        5.55830        0.13220
H          4.35670        5.78680        2.03770
H          5.70270        6.76740        1.44340
H          4.29950        7.54040        2.18420
H          4.23320        7.76550       -0.29450
H          4.31700        6.01810       -0.47820
H          0.95900        7.93890        0.99910
H          2.52600        8.73010        0.88580
H          2.35440        8.78110       -1.59910
H          0.79400        7.96820       -1.52030
H          0.97710        9.59490       -0.85310
H          3.56060        4.30320        0.37750
H          2.31890        2.22180        0.31740
H         -6.02020        1.31550       -0.36250
H         -7.86780       -0.35620       -0.40550
H        -11.70010       -3.16010       -0.60890
H        -11.03710       -7.34530        0.00810
H         -8.58860       -6.98820        0.30150
H         -6.69000       -4.80700        0.28900
H         -5.01260       -3.45310        0.32490
H         -3.21500       -1.81460        0.35730
H          1.96130       -0.11380       -1.32060
H          4.34840       -0.55280       -1.48810
H          8.56230       -5.01740        1.34120
H         11.17050       -2.76960       -1.20400
H          9.28880       -1.33730       -1.98980
H          6.44340       -1.05600       -1.56390
H          3.97880       -3.77200        1.30180
H          1.53460       -3.31490        1.46790
H         -1.34710        4.36620        0.03680
H         -0.14270        6.47480        0.06550
