94

C         -8.77070       -2.02010        3.86100
O         -8.43070       -1.70750        2.53400
C         -7.11480       -1.51800        2.23280
C         -6.06940       -1.56660        3.13830
C         -4.76370       -1.34780        2.72410
C         -4.48120       -1.07440        1.39600
C         -3.09950       -0.81780        0.95250
C         -2.12400       -1.79970        1.17870
N         -0.81040       -1.67860        0.88640
C         -0.23510       -2.84520        1.25270
C          1.11020       -3.18520        1.16020
C          2.15070       -2.43110        0.64880
C          3.51880       -2.81290        0.57300
C          4.21130       -1.78950       -0.00910
C          3.27960       -0.75540       -0.30690
N          2.05940       -1.18020        0.10760
C          3.55710        0.47800       -0.90920
C          4.97990        0.75860       -1.22840
C          5.60460        0.18630       -2.32170
C          6.94350        0.43480       -2.57670
C          7.68730        1.23660       -1.72650
O          9.02030        1.49290       -1.85750
C          9.71260        0.88510       -2.91940
C          7.06040        1.82170       -0.60740
O          7.82770        2.63550        0.18770
C          7.70250        2.50070        1.58980
C          8.73710        1.52520        2.17660
C          8.90890        0.26000        1.33760
C          7.65770       -0.54360        1.08990
O          7.53990       -1.33990        0.19390
O          6.68290       -0.32980        1.97940
C          5.71410        1.58990       -0.38900
C          2.60900        1.44030       -1.21030
N          1.30150        1.35270       -0.95520
C          0.68700        2.45110       -1.39850
C         -0.65120        2.75500       -1.28390
C         -1.67760        2.01420       -0.69900
C         -3.02240        2.45710       -0.55840
C         -3.72670        1.47560        0.07640
C         -2.83330        0.39880        0.32640
N         -1.60980        0.77560       -0.15300
C          1.64090        3.42560       -2.07020
C          2.99000        2.73240       -1.91000
C         -1.22660       -3.75850        1.78430
C         -2.40750       -3.10860        1.73480
C         -5.53120       -1.02760        0.47600
C         -6.83630       -1.24570        0.87390
O         -7.92090       -1.21860        0.05320
C         -7.74510       -0.85690       -1.29920
C         -9.12700       -0.79810       -1.94140
C        -10.00050        0.25020       -1.26000
C        -11.40480        0.25710       -1.79860
O        -11.86500       -0.51600       -2.59360
O        -12.12540        1.26250       -1.27680
H         -8.49930       -1.21200        4.54900
H         -9.85220       -2.14680        3.86520
H         -8.29710       -2.95080        4.19070
H         -6.25760       -1.76910        4.18060
H         -3.96340       -1.37240        3.44780
H          1.37650       -4.16560        1.53180
H          3.91100       -3.75080        0.91620
H          5.25770       -1.76080       -0.24720
H          1.20860       -0.64180        0.01830
H          5.04690       -0.46600       -2.97640
H          7.40600       -0.03280       -3.43070
H          9.66030       -0.20700       -2.85740
H         10.74860        1.20460       -2.81530
H          9.33060        1.21410       -3.89120
H          7.86800        3.49890        2.00610
H          6.69900        2.17080        1.86900
H          8.42470        1.27100        3.18990
H          9.70820        2.01960        2.22530
H          9.33180        0.51570        0.36390
H          9.61820       -0.41020        1.83160
H          5.90480       -0.87130        1.76030
H          5.21710        2.03920        0.45890
H         -0.95420        3.71210       -1.68710
H         -3.38800        3.40880       -0.89250
H         -4.76020        1.49710        0.36120
H         -0.79700        0.17620       -0.06830
H          1.60350        4.39900       -1.57970
H          1.36220        3.56440       -3.11600
H          3.68890        3.30730       -1.30200
H          3.47950        2.51770       -2.86080
H         -1.01920       -4.75310        2.13090
H         -3.37960       -3.46260        2.01740
H         -5.29810       -0.83950       -0.55990
H         -7.12220       -1.59900       -1.81730
H         -7.25260        0.12400       -1.36930
H         -9.60660       -1.77240       -1.84730
H         -9.02230       -0.57120       -3.00270
H         -9.58420        1.25310       -1.37530
H        -10.05140        0.03780       -0.18950
H        -13.03070        1.24380       -1.62490
