47

C          6.69290        0.44120       -0.13100
O          5.33080        0.76640        0.00430
C          4.41410       -0.24540        0.09290
C          4.76970       -1.58570        0.13960
C          3.81230       -2.58050        0.26430
C          2.48050       -2.24620        0.33560
C          2.08970       -0.90730        0.27090
C          0.67830       -0.57090        0.30050
N          0.10380        0.45200       -0.29310
C         -1.21680        0.35070       -0.03220
C         -1.46480       -0.77590        0.76130
N         -0.24380       -1.35510        0.94550
C         -2.76150       -1.15420        1.19510
C         -3.20750       -2.34000        1.64950
C         -4.64130       -2.45550        1.83260
O         -5.27080       -3.39820        2.22380
S         -5.41110       -0.91470        1.31890
C         -3.80230       -0.06490        1.06700
C         -3.62630        0.94680        2.20300
C         -3.66900        0.61450       -0.30960
C         -3.91940       -0.37810       -1.44800
S         -4.81320        2.03150       -0.54170
C         -3.49850        3.15140       -1.05070
O         -3.71370        4.26860       -1.42540
C         -2.22540        2.47350       -0.88150
C         -2.28600        1.20690       -0.44520
C          3.04920        0.11510        0.15560
O          2.55820        1.37010        0.18720
C          3.28740        2.47130       -0.31160
H          6.87790       -0.15870       -1.02740
H          7.07170       -0.08740        0.74940
H          7.20870        1.39560       -0.22480
H          5.80790       -1.87000        0.09090
H          4.12010       -3.61350        0.30180
H          1.73410       -3.02310        0.40110
H         -0.04770       -2.16680        1.50740
H         -2.59570       -3.20660        1.83660
H         -2.65910        1.44110        2.12850
H         -3.69350        0.44180        3.16420
H         -4.41210        1.69630        2.14830
H         -4.93580       -0.75940       -1.38530
H         -3.79170        0.11990       -2.40620
H         -3.22230       -1.21240       -1.39070
H         -1.30910        3.00660       -1.06560
H          3.68950        2.26940       -1.30600
H          4.10070        2.75900        0.35770
H          2.56060        3.28070       -0.37310
