36

C         -4.65050       -2.14570        0.52900
C         -3.68800       -1.01250        0.39400
C         -4.13970        0.29590        0.38340
C         -3.21750        1.33210        0.25680
C         -3.69760        2.76130        0.22330
F         -4.27850        3.06020       -0.95500
F         -4.63220        2.99520        1.16250
F         -2.72530        3.65100        0.41200
N         -1.91980        1.15220        0.13920
C         -1.47020       -0.09720        0.14850
C         -2.29980       -1.24050        0.27370
C         -1.69850       -2.53500        0.27080
C         -0.35390       -2.68260        0.14980
C          0.46690       -1.54280        0.02450
N          1.76790       -1.44630       -0.10350
C          2.05210       -0.11700       -0.18460
C          3.41900        0.34960       -0.33480
C          3.72670        1.70810       -0.40310
C          5.03570        2.12470       -0.54650
C          6.04890        1.18110       -0.62290
Cl         7.68690        1.70280       -0.80250
C          5.76390       -0.17450       -0.55680
C          4.45370       -0.58320       -0.41320
C          0.88370        0.62110       -0.10340
N         -0.12330       -0.28080        0.02890
H         -4.58990       -2.80080       -0.33890
H         -5.66750       -1.77360        0.61370
H         -4.42050       -2.73670        1.41430
H         -5.19030        0.52180        0.47500
H         -2.33100       -3.40200        0.36670
H          0.12060       -3.64960        0.14540
H          2.94090        2.44450       -0.34340
H          5.27390        3.17560       -0.59910
H          6.56280       -0.89700       -0.61750
H          4.20460       -1.63090       -0.35900
H          0.68560        1.67140       -0.12750
