55

C         -3.41750        5.34570       -3.19810
O         -3.97310        4.61720       -2.13050
C         -3.34330        3.48340       -1.71800
C         -2.17100        2.97380       -2.26630
C         -1.62130        1.80640       -1.76820
C         -2.21760        1.13090       -0.70930
N         -1.66440       -0.06210       -0.21120
C         -2.53900       -1.11330        0.11630
C         -2.34930       -1.86570        1.27000
C         -3.21480       -2.89360        1.59850
C         -4.30070       -3.18130        0.77840
O         -5.21500       -4.16390        1.00450
C         -5.07530       -4.96220        2.15440
C         -4.49760       -2.41910       -0.37560
C         -3.62960       -1.40330       -0.70410
C         -0.29940       -0.19910       -0.05210
C          0.50900        0.91480        0.21310
C          1.86600        0.77510        0.36910
C          2.48000       -0.48010        0.26580
C          3.90310       -0.61080        0.42840
C          4.72620       -1.72900        0.40300
C          6.02620       -1.27750        0.61720
C          5.94720        0.10250        0.76580
C          6.90560        1.11000        1.00080
C          8.25320        0.93620        1.14630
C          8.91510       -0.30490        1.08300
N          9.48470       -1.30060        1.03650
C          9.09280        2.04550        1.37830
N          9.77250        2.95050        1.56620
O          4.64610        0.48790        0.64770
C          1.67150       -1.59250        0.00090
C          0.31350       -1.45600       -0.15310
C         -3.39330        1.64420       -0.16090
C         -3.94800        2.80010       -0.66040
H         -3.38050        4.74970       -4.11570
H         -4.07940        6.19680       -3.34950
H         -2.41250        5.70820       -2.95860
H         -1.67880        3.46910       -3.08800
H         -0.71790        1.41250       -2.21040
H         -1.51640       -1.64260        1.92050
H         -3.03450       -3.45440        2.50170
H         -5.14200       -4.36490        3.06960
H         -5.90400       -5.66780        2.12520
H         -4.13020       -5.51490        2.14860
H         -5.34220       -2.65130       -1.00420
H         -3.78940       -0.82360       -1.60080
H          0.05220        1.88830        0.30920
H          2.47450        1.63990        0.58500
H          4.42270       -2.74380        0.25010
H          6.91730       -1.86930        0.66110
H          6.51540        2.11780        1.06960
H          2.11960       -2.56860       -0.09600
H         -0.29340       -2.32190       -0.37080
H         -3.86740        1.12700        0.65950
H         -4.85580        3.20460       -0.24230
