59

C          6.93500       -0.47300        0.51920
C          6.36970       -0.80050       -0.86090
O          4.98880       -1.09010       -0.82890
C          4.08940       -0.08400       -0.70690
C          4.37130        1.27050       -0.70500
C          3.34590        2.21040       -0.62910
C          2.03990        1.81630       -0.48660
C          1.72590        0.45070       -0.43880
C          2.73710       -0.49880       -0.62340
O          2.44950       -1.79830       -0.67970
B          1.23730       -2.19460       -1.31760
F          0.87520       -3.44660       -0.90390
F          1.28920       -2.12180       -2.69490
N          0.02100       -1.17460       -0.86680
C         -1.24840       -1.58030       -0.92880
C         -2.27240       -0.87630       -0.28220
C         -1.94260        0.29930        0.40110
C         -0.59730        0.67990        0.48920
C          0.36560       -0.02900       -0.24310
C         -0.26020        1.77630        1.40670
C          0.88780        1.75730        2.19460
C          1.14230        2.79320        3.07290
C          0.25380        3.85090        3.18190
C         -0.91650        3.84810        2.44230
C         -1.18690        2.80970        1.56780
C         -2.47240        2.68590        0.80810
C         -2.96520        1.24410        0.96320
C         -3.62950       -1.43630       -0.35540
C         -4.54510       -1.33340        0.68880
C         -5.81490       -1.86930        0.56790
C         -6.18680       -2.52260       -0.59370
C         -5.26260       -2.68780       -1.61160
C         -3.98510       -2.16830       -1.49530
C         -2.92370       -2.41100       -2.52270
C         -1.61690       -2.73900       -1.79840
H          6.47870        0.42660        0.92510
H          6.73410       -1.29620        1.19980
H          8.00930       -0.32450        0.45020
H          6.58290        0.00730       -1.57270
H          6.82740       -1.71930       -1.23730
H          5.38660        1.62180       -0.79720
H          3.59020        3.26040       -0.67950
H          1.25230        2.55080       -0.43800
H          1.57300        0.92690        2.12400
H          2.03630        2.77360        3.67760
H          0.46110        4.66520        3.85990
H         -1.62970        4.65250        2.55200
H         -2.31100        2.90340       -0.25230
H         -3.21740        3.38470        1.18940
H         -3.91710        1.11120        0.44790
H         -3.11740        1.04510        2.02870
H         -4.25620       -0.87280        1.61950
H         -6.51260       -1.78000        1.38710
H         -7.18180       -2.92910       -0.69460
H         -5.53150       -3.23880       -2.50110
H         -2.78150       -1.51930       -3.14140
H         -3.20580       -3.23420       -3.17850
H         -0.82470       -2.93800       -2.51480
H         -1.74290       -3.63450       -1.18390
