36

C          4.91060        1.12750        0.55990
C          4.37390        0.05510       -0.37520
O          3.56620        0.61900       -1.41530
C          2.30470        0.89800       -1.12870
O          1.78800        0.76190       -0.04620
C          1.54280        1.31020       -2.36610
S          0.79210       -0.24950       -2.96430
C         -0.23940       -0.52330       -1.53220
N         -1.23930        0.30660       -1.36130
C         -2.03900        0.18510       -0.31080
C         -1.87000       -0.82580        0.64280
C         -0.79280       -1.69910        0.47010
C         -0.53440       -2.72190        1.41490
N         -0.33650       -3.54930        2.18180
C          0.05650       -1.55700       -0.64040
C          1.21320       -2.34840       -0.79340
N          2.18650       -2.94410       -0.89950
C         -2.77020       -0.95520        1.83370
C         -4.07200       -0.18050        1.65350
C         -3.76480        1.23460        1.17660
C         -3.15250        1.18050       -0.21840
H          4.08950        1.61490        1.08010
H          5.46760        1.87370       -0.00200
H          5.56870        0.67030        1.29290
H          3.77530       -0.67520        0.17860
H          5.18220       -0.45510       -0.90140
H          0.74260        2.01340       -2.14460
H          2.20180        1.66310       -3.15380
H         -2.97280       -2.01140        2.02960
H         -2.23340       -0.56870        2.70730
H         -4.70260       -0.68350        0.91720
H         -4.61390       -0.15710        2.59970
H         -3.06520        1.70710        1.86920
H         -4.67420        1.83620        1.15410
H         -3.91540        0.89120       -0.94820
H         -2.77390        2.15620       -0.52720
