40

C         -4.71730        2.06010       -0.30090
N         -3.32750        1.68060       -0.35680
C         -2.36570        2.63230       -0.85540
C         -2.91520        0.45320        0.07390
C         -3.85500       -0.52830        0.48320
C         -3.45450       -1.75980        0.91210
C         -2.09220       -2.11570        0.96700
C         -1.65760       -3.38210        1.40620
C         -0.32880       -3.70660        1.45100
C          0.61910       -2.75430        1.04960
O          1.93040       -3.08520        1.09750
C          2.91020       -2.20840        0.71930
O          4.05030       -2.59980        0.80000
C          2.44450       -0.88450        0.25790
C          3.37940        0.15310       -0.17910
C          2.85480        1.38470       -0.59040
C          3.68390        2.40120       -1.01370
C          5.05810        2.21400       -1.03710
C          5.58930        1.00110       -0.63300
C          4.76410       -0.02380       -0.20710
N          1.17700       -0.58780        0.22200
C          0.24220       -1.48630        0.60600
C         -1.14620       -1.14140        0.55730
C         -1.56570        0.11420        0.12370
H         -4.81590        3.11220       -0.55660
H         -5.12280        1.91960        0.70470
H         -5.32120        1.47970       -1.00670
H         -1.69960        2.98220       -0.05980
H         -1.75810        2.18810       -1.64790
H         -2.88570        3.49230       -1.27020
H         -4.90950       -0.30930        0.45080
H         -4.19270       -2.48810        1.21610
H         -2.39910       -4.10560        1.71250
H          0.01580       -4.67190        1.78510
H          1.78520        1.51930       -0.56790
H          3.26220        3.34540       -1.32770
H          5.70900        3.01000       -1.36840
H          6.65860        0.84920       -0.64900
H          5.19250       -0.96150        0.10400
H         -0.79560        0.80830       -0.16240
