43

C          7.17880       -1.06220       -1.02180
O          5.76720       -0.91500       -1.00200
C          5.24580       -0.44920        0.14290
O          5.91570       -0.16810        1.10630
C          3.76900       -0.32240        0.08710
C          3.04080       -0.64640       -1.05490
C          1.66660       -0.51610       -1.05670
C          0.99680       -0.05260        0.07520
C         -0.46490        0.08650        0.06640
C         -1.05430        1.30650        0.39830
C         -0.46850        2.55020        0.73070
C         -1.50110        3.43340        0.94420
C         -2.70390        2.73490        0.73410
C         -4.08850        3.24230        0.83280
N         -2.42440        1.47000        0.40510
B         -3.44420        0.36920        0.04190
F         -4.19770        0.76670       -1.04920
F         -4.28280        0.12410        1.11520
N         -2.64430       -0.90570       -0.30230
C         -3.15130       -2.09680       -0.63490
C         -4.60480       -2.33570       -0.75590
C         -2.09810       -3.00940       -0.82540
C         -0.92140       -2.33460       -0.59690
C         -1.26830       -1.00210       -0.27440
C          1.73040        0.27580        1.21470
C          3.10290        0.13770        1.22120
H          7.42950       -1.46440       -1.99990
H          7.50050       -1.74350       -0.23140
H          7.66310       -0.09550       -0.86830
H          3.55790       -0.99810       -1.93360
H          1.10030       -0.75160       -1.94530
H          0.58390        2.74760        0.78770
H         -1.42640        4.46800        1.21620
H         -4.65590        2.63230        1.53450
H         -4.58230        3.15250       -0.13440
H         -4.09680        4.27980        1.15400
H         -5.03690       -1.62990       -1.46430
H         -5.08790       -2.15520        0.20400
H         -4.80230       -3.35330       -1.08030
H         -2.21460       -4.04080       -1.09480
H          0.07600       -2.72630       -0.63620
H          1.21240        0.61670        2.09820
H          3.68370        0.38090        2.09800
