51

N          5.81860       -2.69240       -0.16980
C          4.76430       -2.24060       -0.18400
C          3.44860       -1.72670       -0.23240
C          2.51180       -2.67410       -0.69060
N          1.79190       -3.47130       -1.09750
C          3.17590       -0.40940        0.03440
C          1.87150        0.18620       -0.03050
C          0.69990       -0.47520        0.06780
C         -0.58880        0.14260        0.01710
C         -0.91320        1.49230        0.01080
N         -2.25780        1.58660        0.02710
C         -3.05550        2.73800        0.01320
C         -4.42180        2.59530       -0.21350
C         -5.23570        3.71100       -0.23470
C         -4.69760        4.97180       -0.03220
C         -3.33950        5.11120        0.19890
C         -2.51410        4.00170        0.22530
N         -2.83130        0.38230        0.04390
C         -1.86110       -0.51260        0.03360
C         -2.16610       -1.93550        0.04760
C         -3.26860       -2.37670        0.78550
C         -3.58560       -3.71590        0.83500
C         -2.79790       -4.62740        0.13810
N         -3.12450       -6.02820        0.19470
O         -2.46200       -6.79150       -0.47510
O         -4.04600       -6.36270        0.91110
C         -1.71270       -4.20410       -0.61960
C         -1.40330       -2.86010       -0.66810
C          4.29270        0.48170        0.39620
C          4.50540        1.66720       -0.30330
C          5.56030        2.49460        0.03280
C          6.40340        2.15850        1.07900
C          6.19130        0.98670        1.78570
C          5.14580        0.14910        1.44570
H          1.86470        1.26530       -0.10700
H          0.69690       -1.54230        0.23210
H         -0.27660        2.35180       -0.00450
H         -4.81920        1.60550       -0.36990
H         -6.29390        3.59600       -0.41230
H         -5.33420        5.84290       -0.05130
H         -2.91660        6.09070        0.36380
H         -1.46110        4.12800        0.42130
H         -3.86220       -1.64980        1.31680
H         -4.42980       -4.07530        1.40340
H         -1.12200       -4.92790       -1.15920
H         -0.57950       -2.53520       -1.28360
H          3.86500        1.92260       -1.13570
H          5.72550        3.40400       -0.52580
H          7.22450        2.80820        1.34160
H          6.84360        0.72060        2.60340
H          4.97710       -0.75760        2.00810
