92

C         -9.05670        2.43530       -2.99500
O         -8.44740        2.31950       -1.73440
C         -7.14270        1.92950       -1.67990
C         -6.36080        1.59610       -2.77250
C         -5.04550        1.18930       -2.60400
C         -4.49240        1.10910       -1.33740
C         -3.10700        0.64940       -1.13230
C         -2.88630       -0.48370       -0.33980
N         -1.67540       -0.97350        0.00070
C         -1.90870       -2.05510        0.77360
C         -0.96960       -2.86990        1.39110
C          0.41370       -2.80550        1.32210
C          1.32170       -3.64340        2.03320
C          2.58930       -3.26750        1.70220
C          2.48930       -2.20000        0.76530
N          1.16440       -1.95320        0.57580
C          3.52070       -1.50080        0.13660
C          4.91310       -1.86190        0.45130
C          5.40370       -3.14370        0.26830
C          6.72560       -3.43680        0.57140
C          7.57650       -2.45980        1.06100
O          8.88640       -2.64890        1.38450
C          9.42690       -3.93860        1.25230
C          7.08420       -1.14780        1.25150
O          7.98310       -0.25030        1.74770
C          7.61630        1.11060        1.81990
C          7.64820        1.79010        0.44340
C          6.93540        3.14860        0.44560
C          5.43630        2.96300        0.44320
O          4.80530        2.36160        1.27200
O          4.86450        3.53560       -0.61670
C          5.76510       -0.87200        0.94620
C          3.28890       -0.44910       -0.75990
N          2.08270        0.07950       -1.05460
C          2.31000        1.07250       -1.94030
C          1.37520        1.93210       -2.50290
C         -0.00250        1.93330       -2.34870
C         -0.90420        2.87260       -2.92830
C         -2.16870        2.53180       -2.54940
C         -2.07380        1.36570       -1.73830
N         -0.75370        1.05080       -1.63780
C          3.72690        1.16450       -2.25160
C          4.33640        0.21000       -1.52170
C         -3.33750       -2.28330        0.91320
C         -3.94900       -1.30900        0.21280
C         -5.27100        1.45880       -0.23260
C         -6.58260        1.86530       -0.38340
O         -7.42030        2.24170        0.62580
C         -7.07900        1.95050        1.96180
C         -7.09540        0.44910        2.26650
C         -8.44450       -0.16770        1.88270
C         -8.36080       -1.66960        1.82940
O         -9.00550       -2.43440        2.49410
O         -7.46020       -2.08820        0.92790
H         -8.54820        3.17420       -3.62320
H        -10.07430        2.77000       -2.79930
H         -9.08760        1.47380       -3.51900
H         -6.76990        1.63580       -3.76940
H         -4.45910        0.90780       -3.46540
H         -1.36850       -3.65780        2.01600
H          1.02860       -4.42000        2.71300
H          3.50890       -3.67570        2.07200
H          0.83510       -1.20710       -0.02800
H          4.76540       -3.91430       -0.13680
H          7.08430       -4.44120        0.41130
H          8.90350       -4.66320        1.88530
H         10.46220       -3.85780        1.58000
H          9.40380       -4.28310        0.21260
H          8.36420        1.56310        2.47690
H          6.63080        1.23030        2.28110
H          8.68630        1.92630        0.13690
H          7.17260        1.13300       -0.28740
H          7.20800        3.72310       -0.43900
H          7.21910        3.70820        1.33890
H          3.91000        3.35210       -0.63540
H          5.35100        0.10980        1.10580
H          1.77220        2.70110       -3.15280
H         -0.60930        3.69870       -3.54630
H         -3.08250        3.03530       -2.79610
H         -0.42670        0.26440       -1.08590
H          4.15850        1.85980       -2.94680
H          5.37360       -0.06250       -1.50650
H         -3.77470       -3.09160        1.46810
H         -4.99810       -1.16260        0.04440
H         -4.81380        1.42000        0.74370
H         -6.10350        2.37930        2.22510
H         -7.84980        2.45830        2.54800
H         -6.30780       -0.04670        1.69910
H         -6.89810        0.30230        3.32920
H         -9.22230        0.11870        2.59020
H         -8.71680        0.19240        0.88750
H         -7.41660       -3.05690        0.91580
