51

C         -4.53260       -2.55330        1.09210
C         -3.92350       -1.58580        2.09930
C         -3.89340       -0.11140        1.65640
N         -2.87600        0.20580        0.66920
C         -3.22770        0.27000       -0.68480
C         -4.48090       -0.15800       -1.13380
C         -4.85540       -0.09540       -2.46480
C         -3.98350        0.38700       -3.41970
C         -2.73620        0.81530       -3.00800
C         -2.37010        0.77060       -1.67240
S         -0.77290        1.43530       -1.31730
C         -0.52170        0.82720        0.32030
C          0.77720        0.90850        0.77770
C          1.11430        0.57130        2.08710
C          2.48190        0.63470        2.57790
C          3.58100        0.34890        1.87320
C          3.60230       -0.23270        0.53220
C          2.85590       -1.32330        0.22630
C          2.88830       -1.96030       -1.07200
O          2.23460       -2.92300       -1.39140
O          3.74230       -1.42360       -2.00120
C          4.50280       -0.34040       -1.73160
C          5.32690        0.12970       -2.75390
C          6.11440        1.24000       -2.54290
C          6.08560        1.89970       -1.31760
C          5.27650        1.44010       -0.30370
C          4.47910        0.30470       -0.48500
C          0.07040        0.20280        2.92710
C         -1.22350        0.08460        2.45740
C         -1.57180        0.36310        1.12860
H         -4.49030       -3.56460        1.49100
H         -5.57650       -2.31610        0.89780
H         -3.98370       -2.53760        0.15400
H         -4.49350       -1.63830        3.03010
H         -2.90660       -1.91810        2.31020
H         -4.86860        0.18410        1.27020
H         -3.71090        0.52120        2.53110
H         -5.20420       -0.55740       -0.44730
H         -5.84040       -0.43650       -2.74590
H         -4.26230        0.43280       -4.46020
H         -2.02400        1.20730       -3.71810
H          1.53070        1.28620        0.10320
H          2.59150        0.95460        3.60700
H          4.55370        0.50380        2.32210
H          2.19490       -1.77240        0.95050
H          5.32380       -0.39210       -3.69740
H          6.75220        1.60290       -3.33430
H          6.69780        2.77520       -1.16380
H          5.24450        1.95890        0.64210
H          0.27260       -0.03060        3.96230
H         -1.96500       -0.22780        3.17060
