60

O          0.19550        4.98630       -3.59130
C         -0.48060        4.26750       -2.90890
O         -1.78590        4.62360       -2.68680
C         -2.68770        3.91060       -1.95510
O         -3.80420        4.33640       -1.83950
C         -2.22050        2.65000       -1.35750
C         -3.09160        1.88690       -0.61550
C         -2.69500        0.65900       -0.07580
O         -3.56190       -0.04750        0.68600
C         -4.92890        0.07770        0.51370
C         -5.71660        0.08220        1.65720
C         -7.09370        0.11900        1.53610
C         -7.68410        0.14990        0.28370
C         -6.89350        0.13140       -0.85310
C         -5.51550        0.09020       -0.74620
C         -1.37340        0.19300       -0.24090
C         -0.91150       -1.10470        0.22070
C         -1.78280       -2.11710        0.62090
C         -1.33270       -3.32740        1.12070
C          0.02270       -3.55120        1.27820
C          0.93820       -2.57260        0.84720
C          2.31940       -2.81300        0.98770
C          3.22830       -1.86490        0.57970
C          2.80840       -0.68000       -0.03340
O          3.72710        0.22360       -0.44870
C          4.97080        0.29350        0.15470
C          5.12730        0.26700        1.53490
C          6.39080        0.41460        2.07730
C          7.49010        0.59600        1.25480
C          7.32500        0.63840       -0.11950
C          6.06770        0.48760       -0.67470
C          1.43740       -0.44200       -0.26630
C          0.93900        0.69650       -1.01230
C          1.75920        1.46910       -1.83340
C          1.29900        2.61060       -2.46910
C         -0.00760        3.02500       -2.28840
C         -0.88520        2.23370       -1.52210
C         -0.44220        1.03150       -0.91280
C          0.49010       -1.36200        0.25880
C          2.80000       -4.06690        1.58820
O          3.95880       -4.32950        1.75960
O          1.85790       -4.97210        1.97630
C          0.50140       -4.80810        1.86420
O         -0.21120       -5.69520        2.24490
H         -4.09600        2.25080       -0.45700
H         -5.23840        0.05650        2.62370
H         -7.70610        0.12700        2.42460
H         -8.75860        0.18340        0.19270
H         -7.34850        0.14480       -1.83160
H         -4.89600        0.06160       -1.63100
H         -2.84510       -1.97360        0.54520
H         -2.02860       -4.09690        1.41660
H          4.28190       -2.06510        0.70840
H          4.26570        0.13820        2.17360
H          6.51340        0.39030        3.14920
H          8.47320        0.70790        1.68510
H          8.17790        0.78450       -0.76440
H          5.92220        0.51580       -1.74330
H          2.78140        1.17880       -1.99280
H          1.95300        3.19930       -3.09340
