59

C         -0.82060       -3.60160        3.39230
C         -1.36680       -3.83080        1.99030
O         -1.41160       -2.61530        1.24530
C         -0.29470       -2.25920        0.59530
O          0.73480       -2.88920        0.63720
C         -0.51900       -1.01890       -0.15400
C          0.37470        0.04120       -0.48500
C          1.79310        0.18820       -0.20290
C          2.67230       -0.84470       -0.25030
C          4.05360       -0.63340        0.02430
C          5.01890       -1.65090        0.00060
C          6.33320       -1.37300        0.26230
C          6.74260       -0.05960        0.55700
O          8.06290        0.09920        0.79710
C          8.54840        1.38760        1.09920
C          5.80500        0.96190        0.58630
C          4.46890        0.67210        0.32400
O          3.59010        1.69640        0.37490
C          2.24740        1.54070        0.14320
O          1.55080        2.51470        0.26590
N         -0.29020        1.00990       -1.08680
N         -1.55920        0.63990       -1.16320
C         -2.49090        1.48720       -1.78270
C         -3.58640        0.98160       -2.46990
C         -4.47390        1.86720       -3.05490
C         -4.26350        3.23210       -2.96990
C         -3.15250        3.74210       -2.30580
C         -2.92550        5.21850       -2.20900
C         -2.26710        2.85640       -1.71070
C         -1.75900       -0.57680       -0.60650
C         -3.07450       -1.24810       -0.47620
O         -3.33980       -2.33040       -0.92910
O         -3.91810       -0.47540        0.21090
C         -5.22360       -1.00180        0.45480
C         -5.22170       -1.94580        1.64770
H         -1.41070       -2.84720        3.90760
H          0.21180       -3.26470        3.33680
H         -0.85900       -4.53000        3.95490
H         -0.74330       -4.55260        1.45290
H         -2.39970       -4.18430        2.02110
H          2.33670       -1.84100       -0.49270
H          4.70320       -2.65790       -0.22350
H          7.08540       -2.14510        0.24980
H          9.62010        1.26960        1.25040
H          8.37240        2.08420        0.27430
H          8.09400        1.78160        2.01300
H          6.06500        1.98330        0.80870
H         -3.73190       -0.08320       -2.56830
H         -5.33040        1.48660       -3.59120
H         -4.96420        3.91090       -3.43380
H         -3.29870        5.72800       -3.09440
H         -1.86790        5.43710       -2.08880
H         -3.45350        5.61800       -1.34270
H         -1.38980        3.20590       -1.18830
H         -5.84910       -0.12610        0.63890
H         -5.56810       -1.52600       -0.44300
H         -4.59110       -2.80480        1.43370
H         -4.83670       -1.43640        2.52730
H         -6.23320       -2.28840        1.84580
