74

O         10.99290        1.55630        0.69790
C          9.92790        1.46340        0.15070
O          9.01320        2.42880        0.15030
C          9.48940        0.24020       -0.64690
O          8.10920        0.14390       -0.85500
C          7.29590       -0.03330        0.23240
C          7.73570       -0.15520        1.54440
C          6.80790       -0.33730        2.55860
C          5.45710       -0.40020        2.28380
C          5.00790       -0.27680        0.96970
C          3.56510       -0.32560        0.66460
C          2.84390       -1.47960        1.00100
N          1.51520       -1.64800        0.82250
C          1.23330       -2.89600        1.25610
C         -0.01110       -3.51630        1.28270
C         -1.22990       -3.01690        0.86070
C         -2.48410       -3.68580        0.92140
C         -3.43130       -2.85080        0.40430
C         -2.77880       -1.65070        0.00810
N         -1.46230       -1.79190        0.30330
C         -3.36990       -0.52180       -0.57360
C         -4.83130       -0.58250       -0.82470
C         -5.33520       -1.38960       -1.84170
C         -6.69570       -1.44110       -2.06900
C         -7.57720       -0.69980       -1.29730
C         -7.08180        0.10450       -0.27860
O         -7.84200        0.87840        0.55270
C         -9.23200        0.88100        0.38030
C         -9.87770        1.85360        1.35410
O        -11.05010        1.84270        1.61420
O         -9.02000        2.72750        1.86150
C         -5.70830        0.15510       -0.04830
C         -2.68230        0.61960       -0.95080
N         -1.36980        0.81810       -0.80690
C         -1.04100        2.01030       -1.30750
C          0.20850        2.59000       -1.32480
C          1.42160        2.09600       -0.84790
C          2.65440        2.80800       -0.86850
C          3.61260        2.01310       -0.31050
C          2.99160        0.78740        0.05470
N          1.67120        0.88940       -0.28400
C         -2.23340        2.74820       -1.89430
C         -3.38500        1.78540       -1.62420
C          2.43590       -3.55900        1.71960
C          3.44320       -2.67680        1.55820
C          5.93300       -0.09420       -0.04650
H          9.32430        3.19900        0.65200
H          9.90490       -0.65650       -0.16700
H          9.93050        0.32810       -1.64600
H          8.78470       -0.10710        1.79400
H          7.15450       -0.42850        3.57750
H          4.74190       -0.53010        3.08170
H         -0.02880       -4.51960        1.68670
H         -2.63020       -4.67360        1.31360
H         -4.48270       -3.03710        0.30430
H         -0.76530       -1.07970        0.13250
H         -4.65550       -1.96980       -2.44730
H         -7.08630       -2.06710       -2.85770
H         -8.63490       -0.76420       -1.49850
H         -9.67140       -0.11170        0.55310
H         -9.51300        1.20950       -0.63300
H         -9.46910        3.32970        2.47700
H         -5.34750        0.77350        0.75870
H          0.26210        3.57800       -1.76240
H          2.77690        3.80100       -1.25570
H          4.64750        2.24880       -0.15880
H          1.01800        0.13560       -0.10170
H         -2.36530        3.71330       -1.40380
H         -2.07750        2.92960       -2.95880
H         -3.88690        1.45100       -2.53340
H         -4.14120        2.21190       -0.96550
H          2.47330       -4.56090        2.10310
H          4.48710       -2.80530        1.76840
H          5.61380       -0.00960       -1.07330
