42

C          7.39550        0.74010        0.85520
O          6.21310        1.04110        1.55620
C          5.02570        0.62250        1.04630
C          4.87440       -0.10100       -0.13350
C          3.61220       -0.47360       -0.55510
C          2.47740       -0.13810        0.17900
C          1.16300       -0.54070       -0.27910
N          0.11220       -0.20860        0.34730
C         -1.16150       -0.60310       -0.00690
C         -2.13530        0.39710       -0.05330
C         -3.45670        0.13650       -0.35690
C         -4.48520        1.23850       -0.43520
C         -4.11890        2.24780       -1.52470
C         -4.63770        1.93330        0.91890
C         -3.82420       -1.19460       -0.57960
O         -5.12930       -1.48430       -0.87220
C         -2.87410       -2.20030       -0.48930
C         -1.53970       -1.93660       -0.21800
C         -0.57570       -3.08220       -0.10810
C          2.63910        0.58830        1.36400
C          3.88970        0.96210        1.79020
H          8.20430        1.17200        1.44240
H          7.39560        1.18780       -0.14380
H          7.54870       -0.34060        0.77010
H          5.73030       -0.37810       -0.72900
H          3.50720       -1.03510       -1.47310
H          1.14280       -1.11750       -1.21380
H         -1.81270        1.41000        0.13090
H         -5.44210        0.77930       -0.69780
H         -4.89730        3.00260       -1.61370
H         -3.18150        2.74660       -1.29060
H         -4.01130        1.74720       -2.48440
H         -5.41840        2.68930        0.86710
H         -3.70870        2.41620        1.21180
H         -4.90560        1.21080        1.68630
H         -5.22190       -2.43690       -0.98870
H         -3.18170       -3.22860       -0.64190
H         -0.21540       -3.37900       -1.09410
H          0.28420       -2.81440        0.50280
H         -1.06690       -3.94480        0.33920
H          1.75820        0.84610        1.93010
H          4.02820        1.52250        2.70150
