100

C         -0.00270       -3.01310        2.36290
C          0.43290       -2.65010        0.94430
N          0.34160       -1.23200        0.70550
C         -0.83010       -0.54080        0.58730
C         -2.16430       -1.13590        0.67140
C         -3.04680       -0.69510        1.65570
C         -4.34380       -1.16470        1.69850
C         -4.79840       -2.07190        0.74690
C         -6.19600       -2.54150        0.76940
C         -6.66290       -3.24590        1.85210
C         -7.97430       -3.73770        1.88420
C         -8.81830       -3.51750        0.83250
C         -8.39060       -2.77380       -0.28700
C         -9.25310       -2.50790       -1.37150
C         -8.83350       -1.75950       -2.43440
C         -7.53270       -1.23430       -2.45540
C         -6.66940       -1.48230       -1.42550
C         -7.06390       -2.26880       -0.32210
C         -3.91350       -2.52550       -0.22700
C         -2.61130       -2.06670       -0.26320
C         -0.53920        0.79990        0.40150
C         -1.52800        1.86420        0.26620
C         -1.34570        3.09320        0.93960
C         -2.27440        4.08720        0.84250
C         -3.45120        3.91230        0.08320
C         -4.43850        4.91240       -0.02280
C         -5.57360        4.69920       -0.75440
C         -5.77220        3.47590       -1.41400
C         -4.83030        2.48930       -1.33620
C         -3.64780        2.67830       -0.59010
C         -2.66210        1.67970       -0.48980
C          0.87620        0.91620        0.39340
C          1.64290        2.14080        0.19310
C          2.78340        2.40510        0.98450
C          3.50400        3.55000        0.81140
C          3.12680        4.50700       -0.15470
C          3.84280        5.70500       -0.35030
C          3.44100        6.61370       -1.28920
C          2.30410        6.36500       -2.07450
C          1.58990        5.21170       -1.91040
C          1.97910        4.25330       -0.95070
C          1.26270        3.05790       -0.75920
C          1.38870       -0.35620        0.59700
C          2.79530       -0.74500        0.62000
C          3.34250       -1.49980        1.65630
C          4.68530       -1.82290        1.65930
C          5.52050       -1.40700        0.62740
C          6.95580       -1.73760        0.65590
C          7.70470       -1.37150        1.74940
C          9.08090       -1.62350        1.80500
C          9.70820       -2.24670        0.76350
C          8.97650       -2.66410       -0.36740
C          9.60120       -3.33210       -1.44180
C          8.87820       -3.75800       -2.51940
C          7.49220       -3.54600       -2.56260
C          6.85780       -2.89550       -1.54140
C          7.57850       -2.41840       -0.42560
C          4.97890       -0.63670       -0.39990
C          3.63900       -0.31090       -0.40370
H          0.58590       -2.46920        3.09800
H         -1.05070       -2.76250        2.51040
H          0.12830       -4.07900        2.52930
H          1.46700       -2.95800        0.77230
H         -0.20580       -3.17690        0.22960
H         -2.70730        0.03040        2.38020
H         -5.02450       -0.80860        2.45810
H         -6.00080       -3.44100        2.68400
H         -8.30730       -4.29830        2.74560
H         -9.82800       -3.90230        0.84530
H        -10.25840       -2.90380       -1.34010
H         -9.50110       -1.55890       -3.25970
H         -7.21970       -0.62750       -3.29290
H         -5.67290       -1.06600       -1.43830
H         -4.25630       -3.23840       -0.96380
H         -1.94850       -2.40140       -1.04930
H         -0.45910        3.23130        1.54070
H         -2.12460        5.02570        1.35800
H         -4.28230        5.85180        0.48910
H         -6.32750        5.46950       -0.82930
H         -6.67780        3.32190       -1.98300
H         -4.97920        1.54510       -1.84130
H         -2.80950        0.75350       -1.02660
H          3.07060        1.68850        1.74020
H          4.37470        3.74480        1.42200
H          4.71640        5.89270        0.25860
H          3.99400        7.53060       -1.43340
H          1.99920        7.09560       -2.81000
H          0.71180        5.01580       -2.50970
H          0.39790        2.86580       -1.37840
H          2.72120       -1.81160        2.48310
H          5.09520       -2.41210        2.46750
H          7.22610       -0.85710        2.57070
H          9.64060       -1.31200        2.67490
H         10.77200       -2.43480        0.79220
H         10.66690       -3.50590       -1.39080
H          9.36410       -4.26910       -3.33770
H          6.92690       -3.90620       -3.41000
H          5.78820       -2.75030       -1.57500
H          5.62210       -0.28010       -1.19150
H          3.23010        0.28730       -1.20440
