27

C         -5.05120       -0.62570       -0.28130
N         -4.14220        0.24940        0.41270
C         -2.78360        0.17830        0.29830
C         -2.14820       -0.59500       -0.68190
C         -0.77730       -0.60130       -0.79270
C          0.03050        0.15660        0.06280
C          1.46930        0.18080       -0.01470
C          2.24690       -0.49440       -0.87750
C          3.70460       -0.41120       -0.88930
O          4.41570       -1.01760       -1.65910
O          4.20410        0.41990        0.05330
C          5.61560        0.53460        0.07800
C         -0.61260        0.92630        1.04250
C         -1.98000        0.93780        1.16100
H         -6.07110       -0.35180       -0.02140
H         -4.93060       -0.51130       -1.36000
H         -4.89370       -1.67940       -0.02220
H         -4.48830        0.68130        1.25430
H         -2.73530       -1.19560       -1.35830
H         -0.32030       -1.20900       -1.55790
H          1.96160        0.81840        0.70880
H          1.84510       -1.15380       -1.63150
H          5.85130        1.22940        0.88050
H          6.07450       -0.43880        0.26630
H          5.98440        0.91370       -0.87800
H         -0.01590        1.52020        1.72010
H         -2.45380        1.53810        1.92570
