38

O          2.59440       -0.06680        1.74180
C          2.88630       -0.10010        0.56030
C          1.98680        0.00380       -0.58010
C          0.65620        0.09810       -0.77280
C         -0.48040        0.14520        0.10880
C         -0.37790        0.16970        1.51400
C         -1.49250        0.21400        2.32390
C         -2.73810        0.23020        1.71470
O         -3.94110        0.26720        2.33010
C         -4.88310        0.26620        1.34140
C         -6.25480        0.29420        1.51240
C         -7.03400        0.28440        0.36830
C         -6.46300        0.24830       -0.90100
C         -5.09200        0.22100       -1.06990
C         -4.29140        0.22990        0.06380
C         -2.87150        0.20640        0.30710
C         -1.74680        0.16840       -0.49230
S          2.95560       -0.03550       -2.10270
O          2.89930        1.23840       -2.76680
O          2.61510       -1.19250       -2.88540
C          4.52200       -0.25490       -1.26670
C          5.78590       -0.39850       -1.79140
C          6.85030       -0.55530       -0.91190
C          6.63730       -0.56480        0.45990
C          5.36150       -0.41830        0.97720
C          4.29150       -0.26200        0.10140
H          0.39120        0.13410       -1.82730
H          0.60080        0.15300        1.96350
H         -1.40520        0.23430        3.39810
H         -6.69040        0.32180        2.49790
H         -8.10890        0.30470        0.46320
H         -7.10670        0.24130       -1.76760
H         -4.65050        0.19280       -2.05390
H         -1.84110        0.15120       -1.56750
H          5.93310       -0.38820       -2.85960
H          7.85090       -0.67030       -1.30040
H          7.47550       -0.68780        1.12910
H          5.17590       -0.42330        2.04050
