56

O          1.67000        1.28260       -2.22850
C          2.59170        0.57780       -1.51150
C          3.96080        0.69590       -1.80430
C          4.88740       -0.02140       -1.10380
C          4.48990       -0.90120       -0.07840
C          5.42920       -1.65200        0.65870
C          5.02510       -2.49420        1.65530
C          3.66050       -2.61820        1.95870
C          2.72560       -1.90400        1.26350
C          3.10770       -1.03190        0.22160
C          2.16110       -0.26620       -0.50330
C          0.71180       -0.37690       -0.23910
N          0.18040       -1.58330       -0.40940
C         -1.11860       -1.74600       -0.27340
C         -2.00810       -0.69180       -0.00320
C         -1.46800        0.59210        0.08770
C         -0.07340        0.74290        0.05400
C          0.49460        2.07290        0.29150
C          1.70590        2.26750        0.94680
C          2.20520        3.54510        1.12480
C          1.49670        4.64100        0.66240
C          0.26630        4.45790        0.05300
C         -0.24480        3.18440       -0.12450
C         -1.59460        2.92300       -0.72020
C         -2.29410        1.84750        0.11510
C         -3.42970       -1.02580        0.13750
C         -4.28740       -0.32760        0.98350
C         -5.62290       -0.67530        1.08070
C         -6.12090       -1.73240        0.34040
C         -5.26380       -2.47230       -0.45730
C         -3.92330       -2.14220       -0.55280
C         -2.95500       -2.98140       -1.33420
C         -1.67230       -3.11870       -0.51520
H          2.12300        1.82640       -2.88390
H          4.26840        1.36590       -2.59750
H          5.93880        0.07680       -1.33210
H          6.47780       -1.54510        0.41860
H          5.74980       -3.06640        2.21610
H          3.35380       -3.28470        2.75170
H          1.67710       -2.00620        1.49550
H          2.25340        1.42070        1.33210
H          3.14990        3.68450        1.62980
H          1.89140        5.63800        0.79380
H         -0.30450        5.31330       -0.28150
H         -1.47970        2.56120       -1.74700
H         -2.19080        3.83650       -0.74380
H         -3.28980        1.65090       -0.28450
H         -2.39750        2.21250        1.14260
H         -3.90390        0.46950        1.60040
H         -6.27400       -0.12070        1.74060
H         -7.16560       -1.99860        0.40470
H         -5.63950       -3.32610       -1.00370
H         -3.38620       -3.96060       -1.54730
H         -2.72270       -2.49760       -2.28880
H         -0.92340       -3.71720       -1.03280
H         -1.89940       -3.60060        0.44100
