52

C          2.04690        3.64100        1.50650
C          1.10200        2.72550        2.27020
O          0.70700        1.60510        1.47590
C         -0.39750        1.75330        0.73300
O         -1.10670        2.72570        0.74630
C         -0.66420        0.54090       -0.05790
C          0.26440       -0.36560       -0.62440
C          1.71490       -0.26530       -0.58710
C          2.53410       -1.31130       -0.30670
Cl         1.88380       -2.86150        0.02210
C          3.95860       -1.13420       -0.24540
C          4.87020       -2.15440        0.04710
C          6.21880       -1.88760        0.10610
C          6.68960       -0.59760       -0.12260
C          5.81150        0.42450       -0.41400
C          4.44500        0.16240       -0.48050
O          3.62510        1.19350       -0.78380
C          2.27430        1.05710       -0.89000
O          1.63170        2.01230       -1.23900
N         -0.37510       -1.34140       -1.24080
N         -1.67720       -1.09910       -1.12730
C         -2.57140       -2.03610       -1.67470
C         -3.80510       -1.66760       -2.19650
C         -4.62710       -2.64200       -2.73670
C         -4.23260       -3.96770       -2.77780
C         -2.98960       -4.31620       -2.27060
Cl        -2.47440       -5.96260       -2.32120
C         -2.15360       -3.36350       -1.71800
C         -1.90860        0.03110       -0.40830
C         -3.21020        0.60890        0.01630
O         -4.12200        0.89210       -0.71760
O         -3.19880        0.77840        1.33050
C         -4.27540        1.51090        1.92800
C         -3.70490        2.69180        2.69520
H          2.29080        4.50480        2.11870
H          1.57180        3.97420        0.58720
H          2.96330        3.11600        1.24850
H          1.58720        2.29670        3.15070
H          0.20280        3.27420        2.56970
H          4.49530       -3.14980        0.22520
H          6.91440       -2.68090        0.33110
H          7.74810       -0.39440       -0.07370
H          6.15350        1.43010       -0.59870
H         -4.11820       -0.63690       -2.18560
H         -5.58680       -2.35940       -3.14030
H         -4.87410       -4.72320       -3.20250
H         -1.18420       -3.62980       -1.32960
H         -4.95280        1.84340        1.13560
H         -4.80280        0.81920        2.59230
H         -3.09240        2.34290        3.52260
H         -4.51490        3.30320        3.08220
H         -3.08430        3.28850        2.03130
