81

C         -5.79750       -0.39510        0.89420
O         -6.72250        0.45520        0.24140
C         -6.39610        1.75660        0.07580
C         -5.22560        2.35030        0.51840
C         -4.95760        3.69680        0.25350
C         -3.75520        4.38140        0.67540
C         -2.48770        3.96240        0.89180
C         -1.86360        2.67730        0.67730
C         -0.50110        2.53850        0.96700
C          0.14400        1.33590        0.67650
C          1.56770        1.20740        0.88380
C          2.22750        0.06640        0.60010
C          3.63580       -0.19790        0.75770
C          4.13460       -1.43690        0.34570
C          5.48150       -1.72880        0.44750
C          6.35030       -0.79820        0.99140
O          7.68620       -1.05450        1.07840
S          8.72390        0.07310        0.45930
O          9.51060        0.65600        1.49470
O          7.99410        0.91300       -0.44050
C          9.71660       -1.08290       -0.45840
C          9.30940       -1.45220       -1.72390
C         10.05660       -2.38010       -2.42850
C         11.20250       -2.93880       -1.87010
C         11.99980       -3.95800       -2.62250
C         11.58880       -2.54980       -0.59000
C         10.84710       -1.62270        0.12050
C          5.86610        0.44440        1.44710
O          6.80260        1.23850        2.00770
C          6.51230        2.60310        2.20710
C          4.52210        0.73800        1.31020
O         -0.49220        0.31110        0.20070
B         -1.97590        0.31550        0.08500
F         -2.49830       -0.40970        1.13970
F         -2.34730       -0.23510       -1.10340
O         -2.53980        1.69750        0.17510
C         -5.92110        4.45560       -0.42180
C         -7.09640        3.87760       -0.85500
C         -7.34150        2.53430       -0.61810
O         -8.50740        1.97370       -1.05670
S         -9.48080        1.23580        0.03330
O         -9.10730        1.65500        1.34870
O        -10.80530        1.52380       -0.41810
C         -9.19040       -0.50080       -0.21770
C         -9.08040       -1.33380        0.87480
C         -8.90040       -2.69220        0.66980
C         -8.83050       -3.21140       -0.61800
C         -8.63130       -4.67710       -0.85090
C         -8.95170       -2.34550       -1.70260
C         -9.13840       -0.98930       -1.50660
H         -5.65580       -0.09950        1.93650
H         -6.24320       -1.38730        0.85550
H         -4.83410       -0.40530        0.38110
H         -4.51560        1.77060        1.07930
H         -3.90930        5.44730        0.81260
H         -1.78350        4.71150        1.23000
H          0.05540        3.36300        1.37510
H          2.06330        2.08180        1.27530
H          1.63560       -0.74900        0.20350
H          3.46060       -2.16640       -0.07620
H          5.87570       -2.67400        0.10880
H          8.42400       -0.99840       -2.14000
H          9.74990       -2.67330       -3.42170
H         11.82720       -3.87680       -3.69230
H         11.70910       -4.96020       -2.30710
H         13.06240       -3.84150       -2.42390
H         12.47790       -2.97720       -0.15060
H         11.12890       -1.29980        1.10950
H          6.16840        3.07050        1.28040
H          7.45460        3.05280        2.51350
H          5.76520        2.73930        2.99640
H          4.14710        1.69190        1.64130
H         -5.73810        5.50120       -0.61920
H         -7.84360        4.45270       -1.37840
H         -9.12500       -0.90630        1.86350
H         -8.81080       -3.35440        1.51860
H         -9.49320       -5.09610       -1.36840
H         -7.75580       -4.84520       -1.47560
H         -8.49830       -5.20840        0.08740
H         -8.89880       -2.74260       -2.70560
H         -9.23780       -0.30490       -2.33350
