84

C        -12.24250       -3.37440       -1.60660
C        -12.41430       -2.45680       -0.58260
C        -11.40850       -1.56120       -0.27240
C        -10.21610       -1.57220       -0.99330
C         -9.12630       -0.66040       -0.67530
N         -7.82830       -1.06870       -0.78280
C         -7.10090       -0.07300       -0.36370
C         -5.65990       -0.04540       -0.28220
C         -4.98850        1.07030        0.21790
C         -3.61180        1.07400        0.29140
C         -2.86900       -0.03020       -0.12730
C         -1.40390       -0.02550       -0.04000
C         -0.70850       -1.17070        0.34580
C          0.66810       -1.16680        0.43440
C          1.40170       -0.02100        0.12950
C          2.86680       -0.02200        0.21600
C          3.63730        0.64600       -0.73630
C          5.01400        0.64040       -0.66350
C          5.65760       -0.03610        0.37270
C          7.09810       -0.06020        0.46470
N          7.80140       -0.70470        1.35130
C          9.10900       -0.44250        1.06030
C         10.17290       -0.96530        1.90600
C         11.33170       -0.23370        2.15740
C         12.31330       -0.75170        2.98100
C         12.14990       -1.99690        3.56660
C         10.99070       -2.71950        3.33660
C         10.00450       -2.20620        2.51590
C          9.14660        0.37710       -0.05370
C         10.21140        0.93200       -0.86640
C         11.44370        0.28740       -0.98180
C         12.43900        0.83180       -1.76940
C         12.22140        2.01570       -2.45690
C         10.99410        2.65080       -2.36190
C          9.99310        2.11370       -1.57590
O          7.85860        0.62140       -0.41580
C          4.89460       -0.70350        1.33210
C          3.51960       -0.69500        1.25060
C          0.70650        1.12260       -0.26110
C         -0.67100        1.12210       -0.33880
C         -3.54950       -1.14180       -0.62840
C         -4.92460       -1.15290       -0.70740
O         -7.83550        0.99220        0.01560
C         -9.13180        0.63550       -0.19040
C        -10.16850        1.61820        0.05680
C        -11.36580        1.60030       -0.66010
C        -12.33310        2.55540       -0.41690
C        -12.12150        3.54270        0.53290
C        -10.92820        3.57720        1.23520
C         -9.95540        2.62520        0.99910
C        -10.04090       -2.51180       -2.00640
C        -11.05150       -3.40310       -2.31320
H        -13.03270       -4.07060       -1.84680
H        -13.33590       -2.44260       -0.01890
H        -11.53850       -0.85900        0.53810
H         -5.55550        1.92740        0.54920
H         -3.10190        1.93410        0.70010
H         -1.25670       -2.06630        0.59880
H          1.18640       -2.06940        0.72300
H          3.14870        1.15410       -1.55470
H          5.60260        1.15260       -1.41000
H         11.45430        0.74470        1.71640
H         13.20920       -0.17870        3.17130
H         12.92150       -2.39860        4.20690
H         10.85550       -3.68570        3.80050
H          9.09330       -2.75480        2.33360
H         11.60910       -0.64430       -0.46270
H         13.38990        0.32650       -1.85270
H         13.00410        2.43810       -3.06930
H         10.81690        3.56930       -2.90220
H          9.03590        2.60750       -1.49740
H          5.40570       -1.21670        2.13110
H          2.93640       -1.19710        2.00830
H          1.25260        2.02730       -0.48560
H         -1.18740        2.01640       -0.65600
H         -2.98720       -1.99520       -0.97760
H         -5.45690       -2.00670       -1.09530
H        -11.52500        0.84440       -1.41390
H        -13.25670        2.53390       -0.97640
H        -12.88210        4.28610        0.71990
H        -10.75540        4.34930        1.97060
H         -9.02480        2.64790        1.54640
H         -9.10500       -2.52800       -2.54320
H        -10.91020       -4.12470       -3.10470
