76

C         -2.10470       -5.61230       -2.64210
C         -2.78190       -4.73770       -1.63750
C         -3.02040       -3.39920       -1.94340
C         -3.65030       -2.57170       -1.03410
C         -4.04430       -3.08690        0.18630
S         -4.80660       -1.99370        1.36340
O         -5.20910       -2.71810        2.53360
O         -5.77960       -1.14670        0.72110
N         -3.44430       -1.08530        1.75690
C         -3.45500        0.15790        1.50440
C         -2.26110        0.95360        1.61710
C         -2.23360        2.24680        1.22540
C         -1.01150        2.97850        1.06180
C         -0.80810        4.35060        1.10850
C         -1.67230        5.42540        1.54540
C         -1.42020        6.73480        1.12690
C         -2.24520        7.76640        1.52690
C         -3.33150        7.51170        2.34950
C         -3.58000        6.21890        2.78210
C         -2.75660        5.18080        2.39150
O          0.44260        4.64270        0.69580
C          1.06780        3.49700        0.35800
C          2.43790        3.55350       -0.10170
C          3.26730        2.43060       -0.04460
C          4.56500        2.50250       -0.51280
C          5.06040        3.68940       -1.02890
C          4.25130        4.81420       -1.06800
C          2.95140        4.75060       -0.60890
C          0.22000        2.41690        0.56900
C          0.40770        1.04960        0.19170
C         -0.19920        0.01740        0.82420
C         -0.14220       -1.32110        0.30070
N          0.55270       -1.63790       -0.71660
S          0.54960       -3.24560       -1.18790
O          0.17900       -3.28860       -2.57500
O         -0.18980       -4.05890       -0.26040
C          2.29390       -3.58560       -1.04140
C          3.16530       -2.98430       -1.92760
C          4.52380       -3.20960       -1.79460
C          5.01150       -4.03030       -0.78150
C          6.47990       -4.29510       -0.65510
C          4.11160       -4.62250        0.09990
C          2.75160       -4.39890       -0.02480
C         -1.00340        0.26500        2.06920
C         -3.80470       -4.40320        0.52000
C         -3.17940       -5.22780       -0.39940
H         -1.18320       -5.13200       -2.96530
H         -1.87280       -6.58660       -2.22120
H         -2.74170       -5.74720       -3.51590
H         -2.69000       -3.01050       -2.89450
H         -3.84890       -1.53370       -1.25560
H         -4.36450        0.64440        1.13800
H         -3.15130        2.75210        0.95430
H         -0.57800        6.92750        0.47990
H         -2.04380        8.77400        1.19490
H         -3.97720        8.31950        2.65920
H         -4.41650        6.02010        3.43530
H         -2.93200        4.18250        2.76120
H          2.89950        1.51380        0.38880
H          5.19720        1.62820       -0.46670
H          6.07590        3.74030       -1.39160
H          4.63650        5.74320       -1.46140
H          2.31580        5.62220       -0.64580
H          1.01680        0.83770       -0.67590
H         -0.73780       -2.08190        0.81410
H          2.76350       -2.35810       -2.70740
H          5.21540       -2.74660       -2.48330
H          7.06130       -3.48460       -1.08690
H          6.76350       -4.42110        0.38690
H          6.73530       -5.21310       -1.18480
H          4.48140       -5.26200        0.88790
H          2.03450       -4.84770        0.64420
H         -1.26380       -0.66880        2.56240
H         -0.44670        0.91140        2.75130
H         -4.11600       -4.75700        1.49010
H         -2.98770       -6.26020       -0.14760
