43

C          7.13880       -0.27230       -0.04290
C          5.64540       -0.33970       -0.10150
C          4.99190       -1.49860       -0.50430
C          3.61460       -1.55830       -0.53840
C          2.83690       -0.45700       -0.16930
C          1.37440       -0.58500       -0.22970
C          0.51320        0.43280        0.11320
C         -0.89050        0.29950        0.05160
C         -1.74890        1.40890        0.42630
C         -1.23210        2.64050        0.85950
C         -2.05710        3.68090        1.21050
C         -3.43810        3.52580        1.14040
C         -3.97040        2.33210        0.72040
C         -3.15020        1.25390        0.35620
C         -3.68550       -0.01080       -0.08830
C         -5.06240       -0.25310       -0.18860
C         -5.54910       -1.46480       -0.61390
C         -4.66190       -2.48050       -0.95500
C         -3.30640       -2.27610       -0.86810
C         -2.78900       -1.04590       -0.43610
N         -1.42410       -0.85680       -0.35480
B         -0.47480       -2.07030       -0.76390
F         -0.72140       -2.39490       -2.08050
F         -0.74580       -3.13730        0.06540
O          0.93850       -1.74090       -0.63400
C          3.49450        0.70650        0.23560
C          4.87280        0.75780        0.26690
H          7.58840       -1.05410       -0.64970
H          7.49620        0.69550       -0.38820
H          7.47530       -0.40420        0.98590
H          5.57090       -2.36300       -0.79550
H          3.11280       -2.45960       -0.85310
H          0.92910        1.36390        0.44020
H         -0.16870        2.79590        0.92620
H         -1.63390        4.61750        1.54040
H         -4.08880        4.34220        1.41580
H         -5.04210        2.23290        0.67340
H         -5.76420        0.52230        0.07150
H         -6.61440       -1.62620       -0.68250
H         -5.03610       -3.43550       -1.29000
H         -2.64120       -3.07490       -1.13670
H          2.93930        1.58330        0.52870
H          5.36430        1.66740        0.58220
