103

C          2.67270       -3.01560        2.14510
C          2.88690       -3.61800        0.76220
C          1.70090       -3.35120       -0.18300
C          2.06180       -3.58090       -1.67360
C          3.00180       -2.58540       -2.33800
C          0.63630       -4.37410        0.13410
C          0.79510       -5.74500        0.15090
C         -0.27720       -6.54790        0.49980
C         -1.48370       -5.96320        0.84080
C         -1.64990       -4.58920        0.79860
C         -0.59360       -3.77130        0.41190
C         -0.43650       -2.32300        0.22850
C          0.93690       -2.04500       -0.01120
C          1.34780       -0.71960       -0.13760
C          0.37420        0.31000       -0.23050
C         -0.97610        0.02750       -0.09490
C         -1.37390       -1.30060        0.20040
C         -2.87310       -1.36320        0.39820
C         -3.57030       -2.27240       -0.63430
C         -3.28860       -1.83660       -2.06930
C         -3.24760       -1.70360        1.85670
C         -2.68660       -0.69330        2.85340
C         -3.28730        0.05890        0.13020
C         -4.57200        0.54460        0.16020
C         -4.81530        1.89290       -0.12150
C         -6.13160        2.48780       -0.10720
C         -7.28820        1.86290        0.17780
C         -8.57420        2.49000        0.18510
C         -8.93690        3.78910       -0.07270
C        -10.32010        4.01440        0.04070
C        -11.01150        2.89460        0.38310
S         -9.98130        1.53610        0.57460
C         -3.71300        2.69370       -0.43630
C         -2.42280        2.20250       -0.46150
C         -2.17830        0.86480       -0.16530
C          1.03570        1.64630       -0.48380
C          0.74750        2.66390        0.63890
C          1.18320        2.15250        2.00900
C          0.70840        2.19250       -1.88980
C          1.16920        1.25560       -3.00250
C          2.49430        1.28840       -0.43480
C          3.55390        2.15360       -0.56190
C          4.86660        1.68430       -0.43680
C          5.95950        2.61560       -0.59530
C          7.27150        2.32010       -0.57030
C          8.32680        3.27120       -0.73980
C          8.28420        4.62750       -0.95010
C          9.55690        5.21330       -1.06900
C         10.56710        4.31080       -0.95040
S          9.98060        2.71960       -0.68970
C          5.03940        0.32850       -0.14310
C          3.97090       -0.53660       -0.02650
C          2.66940       -0.08260       -0.20650
H          1.74860       -3.39390        2.57790
H          2.60890       -1.93130        2.09610
H          3.49570       -3.28270        2.80510
H          2.99520       -4.69940        0.86820
H          3.82060       -3.26750        0.32800
H          1.12170       -3.58930       -2.23320
H          2.49630       -4.58030       -1.75230
H          3.11730       -2.85400       -3.38660
H          2.60420       -1.57640       -2.28960
H          3.98760       -2.59310       -1.88260
H          1.74340       -6.19830       -0.10070
H         -0.16820       -7.62200        0.51920
H         -2.31470       -6.58440        1.14250
H         -2.60870       -4.19850        1.08770
H         -3.23970       -3.30180       -0.52670
H         -4.64680       -2.24300       -0.45190
H         -3.77800       -2.51430       -2.76560
H         -2.21910       -1.85470       -2.26830
H         -3.65540       -0.82960       -2.25450
H         -2.86720       -2.68420        2.13130
H         -4.33670       -1.72760        1.93870
H         -1.60160       -0.65250        2.78230
H         -2.95240       -0.98630        3.86680
H         -3.08100        0.30330        2.66950
H         -5.39090       -0.11600        0.39890
H         -6.15830        3.54180       -0.35150
H         -7.29520        0.81070        0.42580
H         -8.23450        4.55910       -0.33500
H        -10.78470        4.97040       -0.12520
H        -12.06640        2.78180        0.53550
H         -3.87640        3.73710       -0.66870
H         -1.63990        2.89270       -0.72110
H         -0.31490        2.88710        0.68880
H          1.27790        3.59170        0.41280
H          0.94380        2.88860        2.77330
H          0.66450        1.22720        2.25100
H          2.25400        1.96370        2.03690
H         -0.36280        2.33780       -2.00260
H          1.19790        3.16210       -2.00680
H          2.24830        1.11950       -2.98190
H          0.89440        1.66770       -3.97110
H          0.69490        0.28170       -2.89910
H          3.38220        3.20360       -0.75390
H          5.66240        3.64340       -0.75960
H          7.59890        1.30120       -0.41820
H          7.36960        5.18790       -1.01720
H          9.71730        6.26380       -1.23610
H         11.62410        4.48140       -1.00010
H          6.03420       -0.06250        0.00590
H          4.18000       -1.55700        0.22260
