31

C         -0.81700        0.96020        1.90170
C         -0.31780        0.27150        0.67020
C         -1.07580       -0.28470       -0.29490
C         -2.52270       -0.39560       -0.34430
C         -3.15460       -0.35240       -1.59140
C         -4.52630       -0.44430       -1.70440
C         -5.29280       -0.60710       -0.55990
Cl        -7.01190       -0.72850       -0.69060
C         -4.69040       -0.68860        0.68550
C         -3.31690       -0.58100        0.78930
C          1.11960        0.26800        0.51720
N          1.96170        0.83330        1.32740
C          3.20160        0.57900        0.80430
C          4.47610        0.92960        1.23210
C          5.53860        0.50750        0.45980
C          5.35280       -0.24030       -0.70370
C          4.09270       -0.59960       -1.14640
C          3.02750       -0.17810       -0.37450
O          1.69650       -0.36890       -0.54490
H         -0.11280        1.73990        2.17950
H         -1.80080        1.39020        1.73340
H         -0.87240        0.26050        2.73470
H         -0.56410       -0.66650       -1.16960
H         -2.55640       -0.22800       -2.48220
H         -5.00310       -0.39670       -2.67090
H         -5.29460       -0.83880        1.56670
H         -2.85610       -0.68400        1.75760
H          4.61500        1.50710        2.13120
H          6.54450        0.76050        0.75990
H          6.21660       -0.54690       -1.27390
H          3.94370       -1.17750       -2.04430
