32

C         -2.80860       -1.78450       -0.71000
C         -2.41750       -1.33690        0.70140
N         -1.71670       -0.07580        0.75470
C         -2.51690        1.12840        0.70420
C         -2.51800        1.80810       -0.66710
C         -0.35020       -0.01620        0.58000
C          0.36070        1.17930        0.77130
C          1.73340        1.24320        0.64790
C          2.48830        0.11910        0.32370
O          3.83220        0.10710        0.18840
C          4.55060        1.29440        0.40280
C          1.79960       -1.09370        0.11880
C          2.49790       -2.32760       -0.23590
O          3.68140       -2.48370       -0.39720
C          0.41150       -1.13620        0.24450
H         -3.23160       -2.78550       -0.67700
H         -3.55170       -1.11320       -1.13270
H         -1.94020       -1.79220       -1.36370
H         -3.32340       -1.24100        1.30880
H         -1.79500       -2.09980        1.17530
H         -3.54050        0.85560        0.96940
H         -2.16630        1.83570        1.46400
H         -1.50520        2.06300       -0.96810
H         -2.94050        1.15030       -1.42160
H         -3.11120        2.71830       -0.62820
H         -0.15640        2.08640        1.03720
H          2.21490        2.19460        0.81230
H          4.41930        1.66820        1.42420
H          5.59610        1.03320        0.24780
H          4.26440        2.07580       -0.30970
H          1.79890       -3.18560       -0.35790
H         -0.05900       -2.08910        0.06330
