74

C         -4.56600        0.28580        0.31460
C         -4.42830       -0.90480        0.15170
C         -4.13380       -2.26860       -0.04800
C         -2.91970       -2.63600       -0.63510
C         -2.62220       -3.97060       -0.82590
C         -3.52430       -4.94960       -0.43850
C         -4.73090       -4.58990        0.14170
C         -5.03960       -3.25820        0.33850
C         -4.84270        1.65780        0.48360
C         -6.18300        1.94570        0.82270
C         -7.33410        2.16110        1.12100
C         -8.67300        2.42840        1.47190
C         -9.59450        1.38300        1.56760
C        -10.90540        1.64750        1.91140
C        -11.31310        2.94840        2.16330
C        -10.40270        3.98960        2.07000
C         -9.08920        3.73720        1.72660
C         -3.94820        2.66660        0.30500
C         -2.54940        2.55950       -0.02440
C         -1.89890        3.70280       -0.55830
C         -0.58410        3.67100       -0.90920
C          0.18650        2.49800       -0.73420
C          1.54160        2.42960       -1.08290
C          2.29230        1.28280       -0.87760
C          3.68340        1.29500       -1.24760
C          4.66180        0.40710       -0.92390
C          5.97610        0.60460       -1.40400
C          7.10830        0.74510       -1.80270
C          8.42440        0.91980       -2.27660
C          8.72570        1.95800       -3.16120
C         10.01780        2.12080       -3.62030
C         11.02060        1.25760       -3.20640
C         10.72710        0.22550       -2.32830
C          9.43860        0.05270       -1.86290
C          4.52610       -0.72590       -0.09660
C          4.54370       -1.69990        0.62100
C          4.45170       -2.82610        1.46350
C          5.54540       -3.68010        1.62050
C          5.44790       -4.78080        2.44860
C          4.26730       -5.04280        3.12650
C          3.17870       -4.19800        2.97450
C          3.26430       -3.09420        2.14940
C          1.64630        0.14710       -0.32630
C          0.32790        0.18520        0.01240
C         -0.44460        1.35500       -0.17280
C         -1.80240        1.41170        0.17070
H         -2.22450       -1.86710       -0.94100
H         -1.68260       -4.25100       -1.27980
H         -3.28760       -5.99240       -0.59020
H         -5.43380       -5.35360        0.44170
H         -5.97740       -2.97060        0.79160
H         -9.26940        0.37190        1.36930
H        -11.61530        0.83630        1.98410
H        -12.33940        3.15060        2.43220
H        -10.72060        5.00340        2.26650
H         -8.37490        4.54450        1.65240
H         -4.33420        3.67550        0.39180
H         -2.47490        4.60730       -0.69690
H         -0.10610        4.54750       -1.32400
H          2.00970        3.30650       -1.51020
H          3.99270        2.14380       -1.84680
H          7.93990        2.62730       -3.48050
H         10.24670        2.92440       -4.30530
H         12.02970        1.38890       -3.56810
H         11.50900       -0.44640       -2.00510
H          9.20230       -0.74810       -1.17730
H          6.46210       -3.46950        1.08880
H          6.29620       -5.43900        2.56860
H          4.19600       -5.90430        3.77390
H          2.25930       -4.40170        3.50410
H          2.42040       -2.42970        2.03050
H          2.21330       -0.76010       -0.19320
H         -0.15420       -0.68910        0.42830
H         -2.25650        0.54030        0.61580
