53

C         -4.88390        0.81150        2.31370
C         -5.28420       -0.14780        1.19930
C         -4.20220       -1.16720        0.80110
N         -3.09530       -0.60390        0.04790
C         -3.29640       -0.40670       -1.32410
C         -4.55890       -0.58480       -1.90230
C         -4.79060       -0.39530       -3.25450
C         -3.76940       -0.00650       -4.09680
C         -2.51060        0.17290       -3.55630
C         -2.27530       -0.03060       -2.20580
S         -0.59150        0.17110       -1.71520
C         -0.73090        0.07880        0.04120
C          0.43480        0.37730        0.71860
C          0.51620        0.30930        2.10730
C          1.74120        0.59920        2.83450
C          2.98510        0.36970        2.40550
C          3.34810       -0.36100        1.18940
C          2.87220       -1.60670        0.95010
C          3.25780       -2.38390       -0.20990
O          2.85890       -3.49380       -0.46330
O          4.15400       -1.80600       -1.06840
C          4.63860       -0.56340       -0.86320
C          5.53170       -0.06140       -1.82010
O          5.88280       -0.81960       -2.88240
C          6.04260        1.22740       -1.65570
O          6.90970        1.66640       -2.62250
C          5.67120        2.00580       -0.56530
C          4.79870        1.50770        0.37470
C          4.27930        0.21700        0.24760
C         -0.65160       -0.02310        2.78400
C         -1.81790       -0.31490        2.10520
C         -1.90980       -0.28940        0.70760
H         -4.69240        0.27920        3.24290
H         -5.69270        1.51630        2.49470
H         -3.99650        1.37700        2.04060
H         -6.16820       -0.70830        1.51260
H         -5.55670        0.44590        0.32580
H         -4.65590       -1.95210        0.18820
H         -3.81490       -1.66760        1.68800
H         -5.40420       -0.88530       -1.30980
H         -5.78670       -0.55480       -3.63910
H         -3.94060        0.14850       -5.15010
H         -1.67730        0.46150       -4.17890
H          1.29220        0.67960        0.13710
H          1.60270        1.05420        3.80770
H          3.82370        0.69660        3.00720
H          2.17810       -2.08270        1.62430
H          6.49190       -0.30560       -3.43110
H          7.19120        2.56500       -2.41990
H          6.07160        3.00480       -0.46440
H          4.50290        2.11740        1.21290
H         -0.65010       -0.07440        3.86310
H         -2.67180       -0.56350        2.70800
