64

C          5.55710       -5.09940       -2.40140
C          4.35430       -4.68800       -3.23950
O          3.80240       -3.45250       -2.79180
C          2.95690       -3.50870       -1.74600
O          2.63870       -4.53560       -1.19420
C          2.48500       -2.16750       -1.38770
C          1.61590       -2.00240       -0.37720
C          1.07090       -0.76520        0.11730
C          1.30340        0.43210       -0.46600
C          0.68110        1.65360       -0.04880
C          1.13990        2.95030       -0.23510
C          2.41210        3.45410       -0.70510
C          2.49570        4.74620       -1.23120
C          3.69910        5.23490       -1.69750
C          4.83850        4.44730       -1.64690
C          4.76940        3.17160       -1.11040
C          3.57030        2.67640       -0.63570
O          0.18720        3.83220        0.13420
C         -0.89670        3.14510        0.55330
C         -2.04480        3.88440        1.03130
C         -2.23200        5.21050        0.63170
C         -3.32450        5.92730        1.07590
C         -4.24740        5.33720        1.92520
C         -4.06250        4.02780        2.33870
C         -2.96880        3.30460        1.90360
C         -0.65370        1.78120        0.46670
C         -1.58170        0.70280        0.63820
C         -1.21700       -0.55580        0.97720
C         -2.20300       -1.60270        0.97540
C         -1.99820       -2.91340        1.18140
C         -3.07380       -3.91060        1.16440
O         -2.90470       -5.08290        1.40710
O         -4.27360       -3.38740        0.84610
C         -5.37670       -4.28930        0.82560
C         -5.93380       -4.52700        2.22250
C          0.21620       -0.82050        1.35880
H          5.99180       -6.00790       -2.80820
H          5.24590       -5.28530       -1.37640
H          6.30670       -4.31150       -2.40670
H          4.63980       -4.51240       -4.27910
H          3.57990       -5.46100       -3.18980
H          2.88810       -1.35840       -1.97530
H          1.30150       -2.90590        0.13200
H          1.95890        0.50190       -1.32200
H          1.60480        5.35410       -1.27610
H          3.75080        6.23360       -2.10560
H          5.77850        4.82970       -2.01570
H          5.65890        2.56160       -1.05360
H          3.53120        1.69760       -0.18320
H         -1.51470        5.66490       -0.03480
H         -3.46010        6.95060        0.75810
H         -5.10250        5.89880        2.27040
H         -4.77100        3.57050        3.01360
H         -2.80930        2.29870        2.25980
H         -2.62010        0.92400        0.42850
H         -3.21680       -1.28180        0.77070
H         -1.02550       -3.33760        1.37790
H         -5.05240       -5.23800        0.38460
H         -6.11930       -3.81370        0.18090
H         -6.20860       -3.58150        2.68460
H         -5.18530       -5.01820        2.83920
H         -6.81250       -5.16270        2.16140
H          0.31730       -1.78230        1.85500
H          0.54250       -0.03860        2.05070
