27

C         -4.58690        0.74120       -0.31830
N         -3.22710        1.12310       -0.03920
C         -2.15240        0.30000       -0.20630
C         -2.29690       -1.06720       -0.47510
C         -1.19160       -1.88940       -0.60330
C          0.07410       -1.34980       -0.46550
C          0.23140        0.02550       -0.19430
C         -0.86000        0.84540       -0.06610
C          1.66400        0.31270       -0.10580
C          2.34860        1.48490        0.13890
C          3.73990        1.44830        0.16030
C          4.42890        0.26780       -0.05780
C          3.74410       -0.91820       -0.30380
C          2.36630       -0.88560       -0.32520
C          1.39430       -1.99290       -0.56210
O          1.65090       -3.15740       -0.78420
H         -5.24060        1.58400       -0.10700
H         -4.88320       -0.09180        0.32220
H         -4.72530        0.44330       -1.36400
H         -3.02930        2.11000       -0.01270
H         -3.28280       -1.48810       -0.58690
H         -1.31120       -2.94160       -0.81280
H         -0.74860        1.90090        0.13990
H          1.82400        2.41320        0.31080
H          4.29040        2.35860        0.35030
H          5.50880        0.26810       -0.03640
H          4.27060       -1.84500       -0.47470
