46

C         -6.33430       -2.31960       -0.32920
C         -6.03200       -1.01010       -1.06020
N         -5.29980       -0.07310       -0.23670
C         -6.10600        0.85020        0.53120
C         -6.37690        2.15530       -0.21980
C         -3.93740       -0.05980       -0.18970
C         -3.22940        0.96270        0.47230
C         -1.85850        0.97590        0.51940
C         -1.09010       -0.02370       -0.09490
C          0.34030       -0.05120       -0.08380
C          1.16960        0.83160        0.52220
C          2.57900        0.70140        0.45190
N          3.22840       -0.21540       -0.17700
C          4.56480       -0.07550       -0.07000
N          5.44640       -0.86850       -0.61850
C          6.74440       -0.57410       -0.40870
C          7.73780       -1.39420       -0.98130
C          9.05970       -1.11040       -0.78000
C          9.44860       -0.00540       -0.00360
C          8.51250        0.81180        0.56730
C          7.14360        0.54830        0.37790
N          6.22550        1.36580        0.94360
C          4.98400        1.06260        0.72410
S          3.59770        1.91730        1.30540
C         -1.79430       -1.04120       -0.75590
C         -3.16520       -1.06620       -0.80130
H         -5.41380       -2.80940       -0.02320
H         -6.88960       -2.99010       -0.97970
H         -6.92940       -2.12890        0.56090
H         -5.47110       -1.20990       -1.97600
H         -6.97240       -0.53570       -1.35420
H         -7.05700        0.35930        0.75560
H         -5.61710        1.05830        1.48560
H         -6.90510        1.95590       -1.14930
H         -6.98690        2.81650        0.38990
H         -5.44510        2.65970       -0.46080
H         -3.75910        1.77100        0.94910
H         -1.36720        1.78600        1.03580
H          0.80840       -0.86720       -0.61920
H          0.80140        1.67480        1.08650
H          7.41660       -2.23690       -1.57320
H          9.82080       -1.73820       -1.21970
H         10.50040        0.19460        0.13910
H          8.78720        1.66580        1.16670
H         -1.23770       -1.83310       -1.23640
H         -3.64160       -1.88730       -1.31090
