52

C          3.50140        3.27360        0.72250
C          2.05420        3.24470        1.18040
O          1.38200        2.18850        0.49340
C          0.30040        1.66760        1.08010
O         -0.14140        2.02690        2.14280
C         -0.26930        0.57600        0.27580
C          0.39090       -0.39170       -0.53030
C          1.82510       -0.49910       -0.75730
C          2.71680       -0.44620        0.25800
C          4.12040       -0.50610       -0.00280
C          5.09820       -0.44430        0.99690
C          6.43320       -0.49700        0.66850
C          6.82120       -0.61630       -0.66400
C          5.87760       -0.68250       -1.66730
C          4.52380       -0.62650       -1.34210
O          3.62600       -0.69000       -2.34990
C          2.27420       -0.62620       -2.15140
O          1.55940       -0.65810       -3.11630
N         -0.48880       -1.22070       -1.05310
N         -1.68960       -0.83380       -0.63580
C         -2.83850       -1.50120       -1.08040
C         -4.03830       -0.82280       -1.25880
C         -5.15340       -1.51920       -1.69000
C         -5.08140       -2.87480       -1.95960
C         -3.86900       -3.53180       -1.80590
Cl        -3.76090       -5.21560       -2.15920
C         -2.74270       -2.85770       -1.36780
C         -1.61300        0.24890        0.17820
C         -2.75310        0.89630        0.87760
O         -3.04920        2.05430        0.76570
O         -3.37000        0.01060        1.66050
C         -4.46140        0.49330        2.44990
C         -5.75810        0.52100        1.65440
H          4.00410        2.34520        0.98240
H          3.54630        3.39950       -0.35590
H          4.01710        4.10220        1.19900
H          1.54870        4.18710        0.94280
H          1.97310        3.07300        2.25950
H          2.38170       -0.36410        1.28290
H          4.78520       -0.35470        2.02680
H          7.18310       -0.44730        1.44290
H          7.87000       -0.65810       -0.91450
H          6.15900       -0.77580       -2.70380
H         -4.09410        0.24030       -1.08750
H         -6.08780       -0.99720       -1.82790
H         -5.95020       -3.41670       -2.29700
H         -1.79460       -3.35750       -1.25530
H         -4.52750       -0.20340        3.28740
H         -4.21400        1.49530        2.81420
H         -5.69270        1.25580        0.85580
H         -6.57830        0.79360        2.31200
H         -5.95580       -0.45790        1.22340
