110

C          3.43790        2.84780       -6.29010
C          2.72080        2.27700       -5.10460
C          1.71040        2.98630       -4.46820
C          1.06400        2.46480       -3.36360
C          1.41800        1.21810       -2.85640
C          0.71560        0.65940       -1.68950
C         -0.66920        0.63270       -1.68740
C         -1.41180        0.08730       -0.64000
C         -2.86010        0.17880       -0.71350
C         -3.68980        0.30400        0.33160
C         -5.13380        0.39090        0.27340
C         -5.86430        0.26780        1.46020
C         -7.24030        0.31140        1.46710
C         -7.94650        0.49870        0.27740
N         -9.34230        0.54800        0.27350
C        -10.05740        0.00870       -0.80260
C        -11.20850        0.63910       -1.27430
C        -11.91250        0.10050       -2.33350
C        -11.47980       -1.06540       -2.94390
C        -10.33480       -1.69350       -2.48170
C         -9.62840       -1.16730       -1.41790
C        -10.02930        1.14420        1.33680
C        -11.24120        0.61430        1.77980
C        -11.92110        1.20980        2.82410
C        -11.40420        2.33290        3.44900
C        -10.19840        2.86010        3.01640
C         -9.51510        2.27730        1.96700
C         -7.22710        0.63880       -0.91120
C         -5.85180        0.58110       -0.91100
C         -0.71220       -0.49820        0.43050
C         -1.38690       -1.22020        1.52450
C         -2.25960       -2.27060        1.24930
C         -2.86610       -2.96500        2.27550
C         -2.62040       -2.63730        3.60530
C         -3.30450       -3.38760        4.70770
C         -1.73940       -1.60050        3.87750
C         -1.12420       -0.90410        2.85250
C          0.67240       -0.45210        0.43890
C          1.41450        0.12270       -0.59180
C          2.86150        0.20820       -0.53380
C          3.66350       -0.60140        0.17330
C          5.10890       -0.53170        0.22850
C          5.87450        0.26780       -0.62640
C          7.24840        0.29300       -0.54010
C          7.91710       -0.48340        0.40820
N          9.31210       -0.45980        0.49540
C         10.08420       -0.37510       -0.66800
C         11.26760        0.36320       -0.68160
C         12.02940        0.43600       -1.83130
C         11.62370       -0.21430       -2.98530
C         10.44610       -0.94380       -2.97910
C          9.68170       -1.03010       -1.83210
C          9.93250       -0.52420        1.74780
C          9.36720        0.11900        2.84900
C          9.98050        0.05190        4.08460
C         11.16630       -0.64650        4.24320
C         11.73310       -1.28520        3.15240
C         11.12310       -1.23150        1.91440
C          7.16450       -1.28870        1.26420
C          5.79140       -1.31140        1.16880
C          2.42680        0.50280       -3.49790
C          3.06610        1.02670       -4.60420
H          3.65170        2.07190       -7.02250
H          4.38800        3.28340       -5.97790
H          2.84720        3.62800       -6.76410
H          1.42630        3.96010       -4.84220
H          0.28730        3.03550       -2.87460
H         -1.19660        1.05310       -2.53320
H         -3.25830        0.19650       -1.72020
H         -3.27640        0.32540        1.33080
H         -5.33290        0.11330        2.38880
H         -7.78330        0.19640        2.39400
H        -11.54240        1.55380       -0.80640
H        -12.80100        0.60030       -2.69070
H        -12.03090       -1.48140       -3.77360
H         -9.99290       -2.60600       -2.94780
H         -8.74110       -1.66360       -1.05290
H        -11.64180       -0.26710        1.30060
H        -12.85810        0.78830        3.15770
H        -11.93710        2.79380        4.26670
H         -9.78990        3.73860        3.49390
H         -8.58070        2.69730        1.62450
H         -7.76150        0.80080       -1.83630
H         -5.32650        0.70730       -1.84520
H         -2.45810       -2.53890        0.22190
H         -3.54180       -3.77690        2.04620
H         -2.88150       -3.13130        5.67590
H         -4.36790       -3.14770        4.72240
H         -3.20950       -4.46170        4.55670
H         -1.53010       -1.33260        4.90400
H         -0.44760       -0.09260        3.08170
H          1.19100       -0.88110        1.28380
H          3.29530        0.99750       -1.13240
H          3.22770       -1.39880        0.76220
H          5.38910        0.87560       -1.37470
H          7.82100        0.92000       -1.20820
H         11.58140        0.87980        0.21370
H         12.94310        1.01220       -1.82810
H         12.22080       -0.15290       -3.88250
H         10.12410       -1.45840       -3.87260
H          8.76960       -1.60870       -1.82710
H          8.44810        0.67300        2.72560
H          9.53330        0.55700        4.92810
H         11.64490       -0.69300        5.20960
H         12.65420       -1.83760        3.26770
H         11.56190       -1.73940        1.06790
H          7.66950       -1.90150        1.99680
H          5.22610       -1.94780        1.83510
H          2.69730       -0.47760       -3.13230
H          3.84510        0.45630       -5.09050
