48

N          0.99330       -5.14970        1.01510
C          1.70340       -4.25310        0.94400
S          2.75960       -2.95030        0.84050
C          1.54750       -1.70010        0.50410
C          0.22130       -1.77990        0.84620
C         -0.40530       -0.62560        0.33690
C         -1.72540       -0.23030        0.51820
C         -2.67940       -1.13580        1.16770
C         -3.44150       -0.70440        2.25180
C         -4.33780       -1.56310        2.86040
C         -4.49160       -2.85770        2.39190
C         -3.74030       -3.29330        1.31270
C         -2.83690       -2.44160        0.70540
C         -2.12940        1.04940        0.11090
C         -3.37830        1.69410        0.16720
C         -3.21210        2.95990       -0.36090
C         -1.86940        3.05730       -0.73880
S         -1.01870        4.39510       -1.47860
C         -2.30830        5.47670       -1.54080
N         -3.16490        6.23650       -1.59480
N         -1.22280        1.91400       -0.45570
B          0.21360        1.55640       -0.87100
F          1.09940        2.48630       -0.36020
F          0.26840        1.56410       -2.25710
N          0.55400        0.14690       -0.31160
C          1.74550       -0.48550       -0.22760
N          2.91310       -0.06190       -0.73580
C          3.04420        0.89730       -1.81910
C          4.35510        0.64430       -2.55420
O          5.49070        0.82730       -1.72880
C          5.22160        0.58850       -0.36670
C          4.17600       -0.50880       -0.17410
H         -0.25660       -2.56170        1.40180
H         -3.30440        0.29720        2.63080
H         -4.91700       -1.22120        3.70510
H         -5.19400       -3.52540        2.86720
H         -3.85690       -4.30060        0.94250
H         -2.26440       -2.77550       -0.14700
H         -4.28770        1.26770        0.54010
H         -3.94960        3.72910       -0.47210
H          3.02580        1.92360       -1.44030
H          2.21740        0.77140       -2.51500
H          4.35850       -0.37760       -2.96250
H          4.45510        1.34720       -3.38440
H          4.87300        1.51000        0.12240
H          6.16890        0.28900        0.08820
H          4.52590       -1.42400       -0.66850
H          4.06150       -0.70310        0.89460
