38

C          5.15200        0.92800        0.36340
O          4.13800        0.15970        0.96530
C          2.96620       -0.01280        0.29860
C          2.67700        0.53530       -0.94260
C          1.45020        0.32080       -1.55490
C          1.14450        0.92110       -2.89190
C          0.50390       -0.46720       -0.90770
C          0.79350       -1.03660        0.33080
C          2.02090       -0.81930        0.94840
C          2.35350       -1.42950        2.27320
O         -0.05670       -1.92470        0.95610
C         -1.39130       -1.83620        1.04230
O         -1.96840       -2.72180        1.61610
C         -2.12320       -0.68460        0.43760
C         -3.25650       -0.18380        1.10020
C         -3.58230       -0.59090        2.49940
C         -4.07860        0.71170        0.42770
Cl        -5.48530        1.37470        1.17160
C         -3.83230        1.09680       -0.89330
O         -4.67820        1.92750       -1.51510
C         -2.68640        0.60640       -1.51460
Cl        -2.37310        1.08370       -3.15440
C         -1.81730       -0.26140       -0.86050
O         -0.71630       -0.68640       -1.54700
H          5.98460        0.91360        1.06470
H          4.83260        1.96270        0.20400
H          5.47430        0.49450       -0.58840
H          3.40280        1.14220       -1.45950
H          2.05500        1.25160       -3.38350
H          0.48460        1.78100       -2.77500
H          0.63990        0.19490       -3.52430
H          1.60170       -2.15720        2.56040
H          2.41440       -0.65340        3.03510
H          3.32720       -1.91140        2.22000
H         -2.68180       -0.78730        3.07380
H         -4.16800        0.18120        2.99030
H         -4.16480       -1.51080        2.48290
H         -4.35600        2.08790       -2.41810
