54

C         -4.48130       -0.78750       -2.65220
C         -5.16520       -0.29280       -1.38340
C         -4.56360        0.98250       -0.76280
N         -3.34030        0.77870       -0.00690
C         -3.47440        0.30800        1.30570
C         -4.70600       -0.14650        1.79040
C         -4.86500       -0.61500        3.08390
C         -3.79430       -0.66410        3.95300
C         -2.56680       -0.21460        3.50510
C         -2.41270        0.27360        2.21790
S         -0.80760        0.90710        1.84390
C         -0.89380        0.98670        0.08250
C          0.32330        1.12130       -0.55330
C          0.41360        1.29680       -1.93240
C          1.69140        1.41820       -2.61700
C          2.81480        0.77280       -2.29030
C          2.92170       -0.28550       -1.28630
C          2.06660       -1.33890       -1.28140
C          2.16920       -2.42870       -0.33680
O          1.42640       -3.37900       -0.28570
O          3.20320       -2.37130        0.56270
C          4.07430       -1.33920        0.58490
C          5.07960       -1.37680        1.54950
C          6.00020       -0.35160        1.64650
C          7.08100       -0.37690        2.68060
C          5.90210        0.73020        0.76500
C          4.91720        0.77590       -0.19120
C          3.98770       -0.26390       -0.31230
C         -0.78420        1.38280       -2.63180
C         -1.99930        1.21030       -1.99850
C         -2.10840        0.97940       -0.62190
H         -3.44180       -1.04220       -2.46260
H         -4.98760       -1.68180       -3.00950
H         -4.52750       -0.04100       -3.44270
H         -6.21450       -0.08510       -1.60770
H         -5.13250       -1.09910       -0.65010
H         -5.29550        1.42630       -0.08060
H         -4.38370        1.72730       -1.53830
H         -5.58290       -0.14170        1.16820
H         -5.84230       -0.94680        3.40080
H         -3.90710       -1.03630        4.95870
H         -1.70500       -0.21850        4.15510
H          1.21500        1.13010        0.05510
H          1.70750        2.10400       -3.45520
H          3.72980        0.99340       -2.82500
H          1.25990       -1.41160       -1.99320
H          5.11360       -2.22380        2.21680
H          6.93620        0.43460        3.39300
H          8.05510       -0.23800        2.21460
H          7.08120       -1.31820        3.22250
H          6.61290        1.53950        0.84390
H          4.84700        1.62260       -0.85680
H         -0.77150        1.55270       -3.69850
H         -2.87570        1.26230       -2.61730
