53

C         -5.38160        2.75910       -0.66850
C         -5.27200        2.00500        0.65790
N         -4.55270        0.75310        0.54010
C         -5.34520       -0.45940        0.49200
C         -5.73580       -0.87260       -0.92690
C         -3.21010        0.72480        0.35300
C         -2.42190        1.90200        0.47500
C         -1.07230        1.85850        0.31230
C         -0.39570        0.65380        0.01230
N          0.93090        0.55280       -0.12870
N          1.67340        1.60210       -0.07830
C          3.00820        1.35460       -0.08690
C          3.89120        2.42600       -0.30260
C          5.24810        2.22930       -0.28620
C          5.78390        0.96330       -0.03320
C          7.24480        0.80210       -0.02350
O          8.05320        1.68410       -0.23430
N          7.66700       -0.46770        0.24380
N          6.82110       -1.53530        0.50110
C          5.46280       -1.46130        0.52630
O          4.79880       -2.43870        0.80080
C          4.92600       -0.12180        0.20580
C          3.55210        0.07410        0.16950
N          2.64160       -1.02190        0.40700
O          2.38380       -1.74600       -0.54230
O          2.21660       -1.16430        1.53370
C         -1.17380       -0.53870       -0.11690
N         -0.52140       -1.71290       -0.40900
C         -1.03090       -2.98560       -0.49340
C          0.05360       -4.00930       -0.69500
O         -2.20910       -3.25690       -0.41460
C         -2.54350       -0.47380        0.05070
H         -4.39690        2.96000       -1.08180
H         -5.89480        3.70430       -0.51150
H         -5.94290        2.17770       -1.39450
H         -4.78860        2.63840        1.40770
H         -6.27590        1.78170        1.02430
H         -6.25010       -0.29180        1.08190
H         -4.78950       -1.26760        0.97160
H         -6.26220       -1.82240       -0.89640
H         -4.85250       -0.98800       -1.54860
H         -6.38800       -0.13120       -1.38150
H         -2.87860        2.84720        0.71520
H         -0.47030        2.74870        0.41420
H          3.46590        3.39900       -0.48890
H          5.93790        3.04050       -0.46180
H          8.66020       -0.65480        0.25060
H          7.25170       -2.41930        0.73630
H          0.48990       -1.64270       -0.51500
H          0.70580       -4.02100        0.17610
H          0.66310       -3.75250       -1.55800
H         -0.38930       -4.99170       -0.82960
H         -3.08630       -1.39290       -0.06840
