36

C         -5.95740        0.95510       -0.02850
N         -5.19090       -0.19190        0.38990
C         -5.88940       -1.36190        0.86060
C         -3.82600       -0.17210        0.33960
C         -3.12640        0.92610       -0.19170
C         -1.75380        0.94410       -0.24150
C         -0.98650       -0.12750        0.23210
C          0.44890       -0.15950        0.20130
C          1.27620        0.80270       -0.25840
C          2.69190        0.65320       -0.23870
N          3.34900       -0.36480        0.19300
C          4.69180       -0.21170        0.07840
C          5.65600       -1.14270        0.45960
C          6.98760       -0.83850        0.27720
C          7.37960        0.37790       -0.27860
C          6.44380        1.31820       -0.66480
C          5.10490        1.02040       -0.48530
S          3.71160        1.98200       -0.86620
C         -1.68600       -1.22060        0.76040
C         -3.05810       -1.24870        0.81620
H         -5.64370        1.85300        0.51130
H         -5.85030        1.13820       -1.10310
H         -7.01030        0.78630        0.18390
H         -6.95970       -1.22560        0.72610
H         -5.69840       -1.54140        1.92410
H         -5.58850       -2.24980        0.29760
H         -3.66420        1.77630       -0.57810
H         -1.26350        1.80900       -0.66120
H          0.91300       -1.05630        0.59100
H          0.90750        1.73310       -0.66380
H          5.34130       -2.08070        0.88850
H          7.74290       -1.55320        0.56900
H          8.43010        0.59000       -0.41000
H          6.74320        2.26130       -1.09560
H         -1.12720       -2.06540        1.13760
H         -3.53830       -2.11490        1.24090
