28

C          3.96340       -0.73890        0.73300
C          3.62710       -0.39340       -0.71790
N          2.64820        0.66190       -0.82580
C          1.31670        0.51920       -0.61530
C          0.50500        1.67540       -0.58270
C         -0.84850        1.59380       -0.41780
C         -1.48080        0.34730       -0.27160
C         -2.88350        0.14080       -0.08970
C         -3.80270        1.33540       -0.05170
F         -3.75050        2.05650       -1.18650
F         -5.08570        1.00190        0.12170
F         -3.49580        2.18430        0.94650
C         -3.39070       -1.10630        0.04710
C         -2.52970       -2.27770        0.01510
O         -2.90340       -3.41560        0.13330
O         -1.19330       -2.04890       -0.16430
C         -0.67290       -0.80900       -0.30270
C          0.69870       -0.72400       -0.46940
H          3.07170       -1.06600        1.26150
H          4.36930        0.12960        1.24660
H          4.70040       -1.53620        0.76430
H          3.25040       -1.27740       -1.23680
H          4.52850       -0.05940       -1.23710
H          3.00350        1.60360       -0.76690
H          0.97350        2.64210       -0.69310
H         -1.43360        2.49870       -0.39760
H         -4.44290       -1.29380        0.18530
H          1.25770       -1.64380       -0.48010
