109

C         -4.98150        8.54460        0.33130
C         -5.11940        7.02740        0.35490
C         -3.98740        6.34130       -0.40600
C         -4.12220        4.82060       -0.38910
C         -2.98560        4.14140       -1.15030
C         -3.15380        2.62640       -1.26520
C         -3.01070        1.90130        0.07070
C         -3.13120        0.38830       -0.10050
C         -3.00920       -0.36230        1.23270
C         -3.02190       -1.89590        1.02760
C         -4.31940       -2.48440        0.48310
C         -4.23640       -4.00110        0.29370
C         -3.20600       -4.47590       -0.73380
C         -3.37290       -3.88990       -2.13720
C         -4.73060       -4.15530       -2.79110
C         -5.09010       -5.63270       -2.95470
C         -4.12380       -6.39100       -3.85710
C         -4.04690        0.08110        2.23860
C         -5.41390        0.15070        2.11110
C         -6.18010        0.59140        3.19750
C         -7.63510        0.66700        3.08370
O         -8.39300        1.02150        3.95360
C         -5.55820        0.96460        4.39330
C         -4.18490        0.92900        4.51690
C         -3.42950        0.49500        3.43500
C         -1.99470        0.41830        3.26380
C         -0.95310        0.72280        4.12840
C          0.34340        0.57910        3.67940
C          0.63350        0.14710        2.37750
C          2.02080        0.03400        1.98010
C          2.47670       -0.14480        0.72930
C          3.86110       -0.25870        0.32730
C          4.17220       -0.28240       -1.03750
C          5.47040       -0.39040       -1.48070
C          6.52310       -0.48480       -0.56770
N          7.84140       -0.59730       -1.00710
C          8.75450       -1.38640       -0.29610
C          8.35000       -2.59050        0.27980
C          9.25430       -3.36470        0.98020
C         10.57250       -2.95930        1.11080
C         10.98030       -1.76640        0.53650
C         10.08160       -0.98090       -0.15870
C          8.25800        0.07470       -2.16310
C          7.77780        1.35230       -2.45000
C          8.19270        2.01110       -3.59090
C          9.09520        1.41530       -4.45680
C          9.57820        0.14820       -4.17400
C          9.16280       -0.52250       -3.04010
C          6.22490       -0.46750        0.79730
C          4.92410       -0.35740        1.23180
C         -0.43020       -0.17030        1.52080
C         -1.72350       -0.03340        1.96220
H         -5.79690        9.01250        0.87810
H         -4.99860        8.91340       -0.69220
H         -4.04230        8.84930        0.78810
H         -6.07610        6.74340       -0.08960
H         -5.12070        6.67890        1.39030
H         -3.03050        6.62320        0.04000
H         -3.98500        6.69310       -1.44070
H         -4.13160        4.47730        0.64700
H         -5.07660        4.53930       -0.84100
H         -2.93920        4.56420       -2.15720
H         -2.03630        4.36200       -0.65650
H         -2.39860        2.24170       -1.95590
H         -4.13460        2.40620       -1.69390
H         -3.78380        2.24220        0.76100
H         -2.04060        2.14250        0.51150
H         -4.09630        0.16120       -0.55620
H         -2.35040        0.03580       -0.77840
H         -2.20150       -2.13610        0.35000
H         -2.80390       -2.36650        1.99060
H         -5.12670       -2.28160        1.18930
H         -4.57660       -2.01580       -0.46670
H         -5.22380       -4.36420        0.00190
H         -3.99430       -4.46110        1.25540
H         -2.20240       -4.23220       -0.37840
H         -3.26310       -5.56470       -0.79040
H         -3.21920       -2.80920       -2.09700
H         -2.58450       -4.29820       -2.77280
H         -4.72760       -3.68710       -3.77920
H         -5.51400       -3.66990       -2.20550
H         -5.12880       -6.11550       -1.97680
H         -6.09320       -5.69150       -3.38510
H         -4.04070       -5.89930       -4.82430
H         -3.13360       -6.44590       -3.41230
H         -4.47760       -7.40680       -4.01900
H         -5.90950       -0.11080        1.18740
H         -8.02020        0.35820        2.08930
H         -6.18400        1.29510        5.20890
H         -3.70510        1.24010        5.43260
H         -1.15100        1.06350        5.13380
H          1.16370        0.81390        4.34310
H          2.72890        0.13260        2.79220
H          1.77050       -0.19170       -0.08970
H          3.37210       -0.21820       -1.76160
H          5.68270       -0.41260       -2.53970
H          7.32520       -2.91390        0.16970
H          8.92880       -4.29620        1.41940
H         11.27710       -3.56890        1.65580
H         12.00500       -1.44020        0.63730
H         10.39970       -0.04670       -0.59810
H          7.08290        1.82360       -1.77030
H          7.81530        3.00120       -3.80020
H          9.42010        1.93510       -5.34520
H         10.27830       -0.32620       -4.84590
H          9.53390       -1.51420       -2.82640
H          7.02990       -0.53590        1.51460
H          4.73120       -0.34820        2.29330
H         -0.23110       -0.52830        0.52240
