52

C         -5.49860       -1.93690       -0.63700
C         -4.41640       -2.51630        0.26620
C         -3.75660       -1.50480        1.22050
N         -2.84640       -0.57510        0.57470
C         -3.29590        0.70870        0.24260
C         -4.64600        1.05850        0.35150
C         -5.11760        2.32160        0.03840
C         -4.25810        3.30120       -0.41530
C         -2.91920        2.98520       -0.54100
C         -2.44570        1.72420       -0.21390
S         -0.69900        1.53190       -0.38800
C         -0.51730       -0.20440       -0.13630
C          0.75250       -0.68600       -0.38450
C          1.08580       -2.02150       -0.17170
C          2.42460       -2.53880       -0.40610
C          3.56710       -1.86890       -0.23240
C          3.69280       -0.54270        0.37480
C          3.15840       -0.27340        1.59210
C          3.31030        1.00620        2.24780
O          2.85530        1.29600        3.32670
O          4.04480        1.95890        1.58320
C          4.58440        1.72790        0.36940
C          5.29010        2.77030       -0.21960
C          5.85600        2.60020       -1.47340
O          6.53680        3.63590       -2.01430
C          5.70850        1.38150       -2.14400
C          5.01330        0.35050       -1.55940
C          4.44670        0.49310       -0.28900
C          0.06410       -2.85860        0.26050
C         -1.20850       -2.37750        0.50090
C         -1.55540       -1.03170        0.31770
H         -5.10390       -1.13050       -1.25000
H         -5.87380       -2.71420       -1.29940
H         -6.33800       -1.56100       -0.05620
H         -4.85070       -3.31200        0.87610
H         -3.65060       -2.96220       -0.36980
H         -3.19000       -2.04770        1.98330
H         -4.52070       -0.94490        1.75830
H         -5.37540        0.34410        0.68580
H         -6.17150        2.52690        0.15120
H         -4.61440        4.28770       -0.66500
H         -2.20760        3.72020       -0.88590
H          1.49000        0.00660       -0.76020
H          2.46910       -3.55990       -0.76480
H          4.50420       -2.33450       -0.51050
H          2.59050       -1.01320        2.13320
H          5.39090        3.70980        0.29700
H          6.87260        3.39670       -2.88730
H          6.14190        1.25640       -3.12700
H          4.89240       -0.58300       -2.08690
H          0.26630       -3.90540        0.43460
H         -1.93180       -3.09450        0.84540
