53

C         -5.71420       -0.94600        2.18530
C         -4.47070       -1.77960        1.91350
O         -3.38350       -0.96580        1.46570
C         -3.34820       -0.66950        0.17310
O         -4.19050       -0.97540       -0.63170
C         -2.09140        0.05810       -0.13660
C         -0.80910       -0.38280        0.18620
C         -0.48480       -1.64990        0.84570
O         -1.15690       -2.65010        0.78580
O          0.66800       -1.57390        1.53170
C          1.06390       -2.75530        2.20930
C          0.04690        0.65730       -0.26050
C          1.49890        0.72420       -0.19240
C          2.29540       -0.30590       -0.55880
C          3.71650       -0.19560       -0.46360
C          4.58810       -1.23150       -0.82300
C          5.95530       -1.05940       -0.71370
O          6.88940       -1.99160       -1.03090
C          6.45740       -3.23910       -1.52090
C          6.46020        0.16400       -0.24070
C          5.61720        1.18800        0.11440
C          4.23650        1.01720        0.00760
O          3.43490        2.04560        0.36920
C          2.07330        1.98160        0.30880
O          1.44380        2.93660        0.68190
N         -0.66990        1.62870       -0.78860
N         -1.94680        1.27140       -0.72270
C         -2.91270        2.20560       -1.14590
C         -2.60560        3.55420       -0.98640
C         -3.51110        4.51310       -1.39750
C         -4.71760        4.13420       -1.96460
C         -5.01090        2.79130       -2.13160
C         -4.11050        1.81840       -1.73220
H         -5.49340       -0.16360        2.90740
H         -6.06500       -0.48780        1.26390
H         -6.49880       -1.58420        2.58130
H         -4.10460       -2.25690        2.82400
H         -4.67570       -2.53810        1.15210
H          2.05200       -2.55450        2.61540
H          0.36060       -2.98650        3.01190
H          1.09320       -3.59980        1.51740
H          1.86840       -1.22240       -0.94150
H          4.15820       -2.15290       -1.18240
H          5.89680       -3.13090       -2.45460
H          7.36440       -3.81070       -1.70990
H          5.84340       -3.76820       -0.78530
H          7.52990        0.27380       -0.16580
H          5.99950        2.12820        0.47710
H         -1.65890        3.82350       -0.54490
H         -3.27540        5.55890       -1.27180
H         -5.42590        4.88480       -2.28180
H         -5.94410        2.49340       -2.58510
H         -4.33600        0.77520       -1.88120
