
  xtb     03022215463D
 energy: -116.868357734804 gnorm: 0.000137981819 xtb: 6.4.1 (afa7bdf)
 78 82  0     0  0            999 V2000
   -2.8827   -5.4885    0.6669 C   0  0  0  0  0  0  0  0  0  0  0  0
   -4.0124   -4.6160    1.2179 C   0  0  0  0  0  0  0  0  0  0  0  0
   -4.5476   -3.7123    0.2243 N   0  0  0  0  0  0  0  0  0  0  0  0
   -5.6694   -4.2080   -0.5413 C   0  0  0  0  0  0  0  0  0  0  0  0
   -7.0151   -3.8520    0.0935 C   0  0  0  0  0  0  0  0  0  0  0  0
   -4.0287   -2.4672    0.0237 C   0  0  0  0  0  0  0  0  0  0  0  0
   -2.8301   -2.0547    0.6444 C   0  0  0  0  0  0  0  0  0  0  0  0
   -2.3214   -0.8029    0.4343 C   0  0  0  0  0  0  0  0  0  0  0  0
   -2.9473    0.1302   -0.4078 C   0  0  0  0  0  0  0  0  0  0  0  0
   -2.3617    1.4234   -0.6062 C   0  0  0  0  0  0  0  0  0  0  0  0
   -1.2996    1.7812    0.0003 N   0  0  0  0  0  0  0  0  0  0  0  0
   -0.7516    3.0286   -0.0797 C   0  0  0  0  0  0  0  0  0  0  0  0
   -1.4821    4.1897   -0.0286 C   0  0  0  0  0  0  0  0  0  0  0  0
   -0.8435    5.4482   -0.0140 C   0  0  0  0  0  0  0  0  0  0  0  0
   -1.5760    6.5567    0.0209 N   0  0  0  0  0  0  0  0  0  0  0  0
   -0.9287    7.7248    0.0198 C   0  0  0  0  0  0  0  0  0  0  0  0
   -1.6639    8.9329    0.0546 C   0  0  0  0  0  0  0  0  0  0  0  0
   -1.0121   10.1300    0.0508 C   0  0  0  0  0  0  0  0  0  0  0  0
    0.3968   10.1861    0.0099 C   0  0  0  0  0  0  0  0  0  0  0  0
    1.1406    9.0444   -0.0255 C   0  0  0  0  0  0  0  0  0  0  0  0
    0.5027    7.7819   -0.0201 C   0  0  0  0  0  0  0  0  0  0  0  0
    1.2396    6.6685   -0.0560 N   0  0  0  0  0  0  0  0  0  0  0  0
    0.5966    5.5059   -0.0529 C   0  0  0  0  0  0  0  0  0  0  0  0
    1.3318    4.3011   -0.0962 C   0  0  0  0  0  0  0  0  0  0  0  0
    0.6920    3.0886   -0.1116 C   0  0  0  0  0  0  0  0  0  0  0  0
    1.3214    1.8761   -0.0592 N   0  0  0  0  0  0  0  0  0  0  0  0
    2.4562    1.5931   -0.5854 C   0  0  0  0  0  0  0  0  0  0  0  0
    3.0563    0.3124   -0.3944 C   0  0  0  0  0  0  0  0  0  0  0  0
    4.3138    0.0192   -0.9382 C   0  0  0  0  0  0  0  0  0  0  0  0
    4.9152   -1.1987   -0.7710 C   0  0  0  0  0  0  0  0  0  0  0  0
    4.2806   -2.2256   -0.0373 C   0  0  0  0  0  0  0  0  0  0  0  0
    4.8724   -3.4428    0.1361 N   0  0  0  0  0  0  0  0  0  0  0  0
    4.1667   -4.5601    0.7225 C   0  0  0  0  0  0  0  0  0  0  0  0
    4.2844   -4.5939    2.2475 C   0  0  0  0  0  0  0  0  0  0  0  0
    6.2480   -3.6918   -0.2325 C   0  0  0  0  0  0  0  0  0  0  0  0
    6.3893   -4.1764   -1.6770 C   0  0  0  0  0  0  0  0  0  0  0  0
    3.0188   -1.9442    0.4981 C   0  0  0  0  0  0  0  0  0  0  0  0
    2.4048   -0.7120    0.3366 C   0  0  0  0  0  0  0  0  0  0  0  0
    1.1988   -0.5341    0.8848 O   0  0  0  0  0  0  0  0  0  0  0  0
   -4.1431   -0.2754   -1.0325 C   0  0  0  0  0  0  0  0  0  0  0  0
   -4.8656    0.5274   -1.8580 O   0  0  0  0  0  0  0  0  0  0  0  0
   -4.6615   -1.5384   -0.8117 C   0  0  0  0  0  0  0  0  0  0  0  0
   -2.0608   -4.8706    0.3154 H   0  0  0  0  0  0  0  0  0  0  0  0
   -2.5150   -6.1565    1.4414 H   0  0  0  0  0  0  0  0  0  0  0  0
   -3.2388   -6.0879   -0.1678 H   0  0  0  0  0  0  0  0  0  0  0  0
   -3.6605   -4.0457    2.0804 H   0  0  0  0  0  0  0  0  0  0  0  0
   -4.8279   -5.2574    1.5638 H   0  0  0  0  0  0  0  0  0  0  0  0
   -5.6182   -3.8150   -1.5591 H   0  0  0  0  0  0  0  0  0  0  0  0
   -5.5778   -5.2959   -0.6077 H   0  0  0  0  0  0  0  0  0  0  0  0
   -7.8286   -4.2475   -0.5089 H   0  0  0  0  0  0  0  0  0  0  0  0
   -7.0869   -4.2739    1.0934 H   0  0  0  0  0  0  0  0  0  0  0  0
   -7.1270   -2.7741    0.1707 H   0  0  0  0  0  0  0  0  0  0  0  0
   -2.2824   -2.7246    1.2847 H   0  0  0  0  0  0  0  0  0  0  0  0
   -1.3979   -0.5069    0.9052 H   0  0  0  0  0  0  0  0  0  0  0  0
   -2.8338    2.0991   -1.3401 H   0  0  0  0  0  0  0  0  0  0  0  0
   -2.5595    4.1655    0.0421 H   0  0  0  0  0  0  0  0  0  0  0  0
   -2.7407    8.8674    0.0865 H   0  0  0  0  0  0  0  0  0  0  0  0
   -1.5719   11.0538    0.0791 H   0  0  0  0  0  0  0  0  0  0  0  0
    0.8821   11.1516    0.0071 H   0  0  0  0  0  0  0  0  0  0  0  0
    2.2193    9.0645   -0.0559 H   0  0  0  0  0  0  0  0  0  0  0  0
    2.4097    4.3627   -0.0811 H   0  0  0  0  0  0  0  0  0  0  0  0
    2.9932    2.3001   -1.2292 H   0  0  0  0  0  0  0  0  0  0  0  0
    4.8204    0.7869   -1.5066 H   0  0  0  0  0  0  0  0  0  0  0  0
    5.8780   -1.3614   -1.2249 H   0  0  0  0  0  0  0  0  0  0  0  0
    3.1159   -4.5211    0.4272 H   0  0  0  0  0  0  0  0  0  0  0  0
    4.5882   -5.4798    0.3068 H   0  0  0  0  0  0  0  0  0  0  0  0
    3.7465   -5.4508    2.6447 H   0  0  0  0  0  0  0  0  0  0  0  0
    5.3272   -4.6703    2.5466 H   0  0  0  0  0  0  0  0  0  0  0  0
    3.8717   -3.6875    2.6816 H   0  0  0  0  0  0  0  0  0  0  0  0
    6.8390   -2.7860   -0.0799 H   0  0  0  0  0  0  0  0  0  0  0  0
    6.6455   -4.4544    0.4433 H   0  0  0  0  0  0  0  0  0  0  0  0
    5.9944   -3.4369   -2.3685 H   0  0  0  0  0  0  0  0  0  0  0  0
    5.8397   -5.1036   -1.8218 H   0  0  0  0  0  0  0  0  0  0  0  0
    7.4358   -4.3536   -1.9112 H   0  0  0  0  0  0  0  0  0  0  0  0
    2.4728   -2.6695    1.0767 H   0  0  0  0  0  0  0  0  0  0  0  0
    0.9000    0.3904    0.6645 H   0  0  0  0  0  0  0  0  0  0  0  0
   -4.4449    1.3922   -1.9376 H   0  0  0  0  0  0  0  0  0  0  0  0
   -5.5893   -1.7592   -1.3109 H   0  0  0  0  0  0  0  0  0  0  0  0
  1  2  1  0  0  0  0
  2  3  1  0  0  0  0
  3  4  1  0  0  0  0
  4  5  1  0  0  0  0
  3  6  1  0  0  0  0
  6  7  2  0  0  0  0
  7  8  1  0  0  0  0
  8  9  2  0  0  0  0
  9 10  1  0  0  0  0
 10 11  2  0  0  0  0
 11 12  1  0  0  0  0
 12 13  2  0  0  0  0
 13 14  1  0  0  0  0
 14 15  2  0  0  0  0
 15 16  1  0  0  0  0
 16 17  2  0  0  0  0
 17 18  1  0  0  0  0
 18 19  2  0  0  0  0
 19 20  1  0  0  0  0
 20 21  2  0  0  0  0
 21 22  1  0  0  0  0
 22 23  2  0  0  0  0
 23 24  1  0  0  0  0
 24 25  2  0  0  0  0
 25 26  1  0  0  0  0
 26 27  2  0  0  0  0
 27 28  1  0  0  0  0
 28 29  2  0  0  0  0
 29 30  1  0  0  0  0
 30 31  2  0  0  0  0
 31 32  1  0  0  0  0
 32 33  1  0  0  0  0
 33 34  1  0  0  0  0
 32 35  1  0  0  0  0
 35 36  1  0  0  0  0
 31 37  1  0  0  0  0
 37 38  2  0  0  0  0
 38 39  1  0  0  0  0
  9 40  1  0  0  0  0
 40 41  1  0  0  0  0
 40 42  2  0  0  0  0
 42  6  1  0  0  0  0
 25 12  1  0  0  0  0
 38 28  1  0  0  0  0
 23 14  1  0  0  0  0
 21 16  1  0  0  0  0
  1 43  1  0  0  0  0
  1 44  1  0  0  0  0
  1 45  1  0  0  0  0
  2 46  1  0  0  0  0
  2 47  1  0  0  0  0
  4 48  1  0  0  0  0
  4 49  1  0  0  0  0
  5 50  1  0  0  0  0
  5 51  1  0  0  0  0
  5 52  1  0  0  0  0
  7 53  1  0  0  0  0
  8 54  1  0  0  0  0
 10 55  1  0  0  0  0
 13 56  1  0  0  0  0
 17 57  1  0  0  0  0
 18 58  1  0  0  0  0
 19 59  1  0  0  0  0
 20 60  1  0  0  0  0
 24 61  1  0  0  0  0
 27 62  1  0  0  0  0
 29 63  1  0  0  0  0
 30 64  1  0  0  0  0
 33 65  1  0  0  0  0
 33 66  1  0  0  0  0
 34 67  1  0  0  0  0
 34 68  1  0  0  0  0
 34 69  1  0  0  0  0
 35 70  1  0  0  0  0
 35 71  1  0  0  0  0
 36 72  1  0  0  0  0
 36 73  1  0  0  0  0
 36 74  1  0  0  0  0
 37 75  1  0  0  0  0
 39 76  1  0  0  0  0
 41 77  1  0  0  0  0
 42 78  1  0  0  0  0
M  END
