
  xtb     03022214153D
 energy: -118.075272561204 gnorm: 0.000106073454 xtb: 6.4.1 (afa7bdf)
 83 86  0     0  0            999 V2000
   -4.0676    6.6140   -1.2086 C   0  0  0  0  0  0  0  0  0  0  0  0
   -4.3325    6.3703    0.2726 C   0  0  0  0  0  0  0  0  0  0  0  0
   -3.6682    5.0990    0.8021 C   0  0  0  0  0  0  0  0  0  0  0  0
   -4.2600    3.8177    0.2191 C   0  0  0  0  0  0  0  0  0  0  0  0
   -3.6442    2.5720    0.8508 C   0  0  0  0  0  0  0  0  0  0  0  0
   -4.2153    1.2917    0.2447 C   0  0  0  0  0  0  0  0  0  0  0  0
   -3.6861    0.0335    0.9391 C   0  0  0  0  0  0  0  0  0  0  0  0
   -4.2798   -1.2477    0.3465 C   0  0  0  0  0  0  0  0  0  0  0  0
   -3.8038   -2.4982    1.0838 C   0  0  0  0  0  0  0  0  0  0  0  0
   -4.3821   -3.7870    0.4974 C   0  0  0  0  0  0  0  0  0  0  0  0
   -3.7350   -4.1694   -0.8330 C   0  0  0  0  0  0  0  0  0  0  0  0
   -4.3828   -5.3883   -1.4907 C   0  0  0  0  0  0  0  0  0  0  0  0
   -4.1617   -6.6819   -0.7150 C   0  0  0  0  0  0  0  0  0  0  0  0
   -2.2163   -0.0064    0.9183 N   0  0  0  0  0  0  0  0  0  0  0  0
   -1.5815    0.0407    2.1510 C   0  0  0  0  0  0  0  0  0  0  0  0
   -2.2144    0.1221    3.1858 O   0  0  0  0  0  0  0  0  0  0  0  0
   -0.1096   -0.0140    2.1501 C   0  0  0  0  0  0  0  0  0  0  0  0
    0.5686   -0.0037    3.3511 C   0  0  0  0  0  0  0  0  0  0  0  0
    1.9618   -0.0905    3.3693 C   0  0  0  0  0  0  0  0  0  0  0  0
    2.6734   -0.1544    2.1982 C   0  0  0  0  0  0  0  0  0  0  0  0
    2.0209   -0.1258    0.9483 C   0  0  0  0  0  0  0  0  0  0  0  0
    2.7130   -0.1808   -0.2941 C   0  0  0  0  0  0  0  0  0  0  0  0
    4.1798   -0.1377   -0.3572 C   0  0  0  0  0  0  0  0  0  0  0  0
    4.8877    0.8757    0.2834 C   0  0  0  0  0  0  0  0  0  0  0  0
    6.2666    0.9294    0.1818 C   0  0  0  0  0  0  0  0  0  0  0  0
    7.0471    1.8881    0.7508 O   0  0  0  0  0  0  0  0  0  0  0  0
    6.4250    2.8942    1.5099 C   0  0  0  0  0  0  0  0  0  0  0  0
    6.9746   -0.0477   -0.5511 C   0  0  0  0  0  0  0  0  0  0  0  0
    8.3246    0.1211   -0.5309 O   0  0  0  0  0  0  0  0  0  0  0  0
    9.1479   -0.4982   -1.4924 C   0  0  0  0  0  0  0  0  0  0  0  0
    6.2556   -1.0740   -1.1822 C   0  0  0  0  0  0  0  0  0  0  0  0
    6.9679   -2.0316   -1.8593 O   0  0  0  0  0  0  0  0  0  0  0  0
    6.2665   -3.0361   -2.5486 C   0  0  0  0  0  0  0  0  0  0  0  0
    4.8682   -1.0916   -1.0932 C   0  0  0  0  0  0  0  0  0  0  0  0
    1.9881   -0.2613   -1.4677 C   0  0  0  0  0  0  0  0  0  0  0  0
    0.5965   -0.2395   -1.4682 C   0  0  0  0  0  0  0  0  0  0  0  0
   -0.1011   -0.1354   -0.2813 C   0  0  0  0  0  0  0  0  0  0  0  0
    0.6024   -0.0876    0.9368 C   0  0  0  0  0  0  0  0  0  0  0  0
   -1.5718   -0.0873   -0.3055 C   0  0  0  0  0  0  0  0  0  0  0  0
   -2.1897   -0.1188   -1.3519 O   0  0  0  0  0  0  0  0  0  0  0  0
   -4.4929    7.5667   -1.5166 H   0  0  0  0  0  0  0  0  0  0  0  0
   -2.9976    6.6371   -1.4045 H   0  0  0  0  0  0  0  0  0  0  0  0
   -4.5125    5.8324   -1.8185 H   0  0  0  0  0  0  0  0  0  0  0  0
   -5.4098    6.3110    0.4433 H   0  0  0  0  0  0  0  0  0  0  0  0
   -3.9549    7.2230    0.8425 H   0  0  0  0  0  0  0  0  0  0  0  0
   -2.5981    5.1344    0.5834 H   0  0  0  0  0  0  0  0  0  0  0  0
   -3.7806    5.0723    1.8891 H   0  0  0  0  0  0  0  0  0  0  0  0
   -5.3398    3.8111    0.3863 H   0  0  0  0  0  0  0  0  0  0  0  0
   -4.0884    3.7865   -0.8580 H   0  0  0  0  0  0  0  0  0  0  0  0
   -2.5612    2.5972    0.7021 H   0  0  0  0  0  0  0  0  0  0  0  0
   -3.8280    2.5775    1.9282 H   0  0  0  0  0  0  0  0  0  0  0  0
   -3.9792    1.2487   -0.8187 H   0  0  0  0  0  0  0  0  0  0  0  0
   -5.3020    1.2955    0.3501 H   0  0  0  0  0  0  0  0  0  0  0  0
   -3.9486    0.0842    2.0014 H   0  0  0  0  0  0  0  0  0  0  0  0
   -5.3666   -1.1770    0.4221 H   0  0  0  0  0  0  0  0  0  0  0  0
   -4.0178   -1.3064   -0.7086 H   0  0  0  0  0  0  0  0  0  0  0  0
   -2.7124   -2.5549    1.0500 H   0  0  0  0  0  0  0  0  0  0  0  0
   -4.0946   -2.4169    2.1343 H   0  0  0  0  0  0  0  0  0  0  0  0
   -4.2276   -4.5943    1.2154 H   0  0  0  0  0  0  0  0  0  0  0  0
   -5.4589   -3.6676    0.3567 H   0  0  0  0  0  0  0  0  0  0  0  0
   -2.6730   -4.3704   -0.6702 H   0  0  0  0  0  0  0  0  0  0  0  0
   -3.8074   -3.3273   -1.5232 H   0  0  0  0  0  0  0  0  0  0  0  0
   -3.9646   -5.5048   -2.4936 H   0  0  0  0  0  0  0  0  0  0  0  0
   -5.4550   -5.2101   -1.5999 H   0  0  0  0  0  0  0  0  0  0  0  0
   -4.6481   -6.6435    0.2560 H   0  0  0  0  0  0  0  0  0  0  0  0
   -4.5711   -7.5267   -1.2648 H   0  0  0  0  0  0  0  0  0  0  0  0
   -3.0987   -6.8560   -0.5616 H   0  0  0  0  0  0  0  0  0  0  0  0
    0.0014    0.0533    4.2678 H   0  0  0  0  0  0  0  0  0  0  0  0
    2.4788   -0.1150    4.3169 H   0  0  0  0  0  0  0  0  0  0  0  0
    3.7485   -0.2473    2.2229 H   0  0  0  0  0  0  0  0  0  0  0  0
    4.3430    1.6361    0.8185 H   0  0  0  0  0  0  0  0  0  0  0  0
    5.7372    3.4932    0.9036 H   0  0  0  0  0  0  0  0  0  0  0  0
    5.8843    2.4794    2.3673 H   0  0  0  0  0  0  0  0  0  0  0  0
    7.2327    3.5298    1.8690 H   0  0  0  0  0  0  0  0  0  0  0  0
    9.2299   -1.5744   -1.3270 H   0  0  0  0  0  0  0  0  0  0  0  0
   10.1264   -0.0349   -1.3660 H   0  0  0  0  0  0  0  0  0  0  0  0
    8.7891   -0.3164   -2.5083 H   0  0  0  0  0  0  0  0  0  0  0  0
    5.6802   -3.6614   -1.8678 H   0  0  0  0  0  0  0  0  0  0  0  0
    5.6098   -2.6173   -3.3178 H   0  0  0  0  0  0  0  0  0  0  0  0
    7.0323   -3.6469   -3.0249 H   0  0  0  0  0  0  0  0  0  0  0  0
    4.3042   -1.8781   -1.5666 H   0  0  0  0  0  0  0  0  0  0  0  0
    2.5170   -0.3092   -2.4081 H   0  0  0  0  0  0  0  0  0  0  0  0
    0.0422   -0.2868   -2.3935 H   0  0  0  0  0  0  0  0  0  0  0  0
  1  2  1  0  0  0  0
  2  3  1  0  0  0  0
  3  4  1  0  0  0  0
  4  5  1  0  0  0  0
  5  6  1  0  0  0  0
  6  7  1  0  0  0  0
  7  8  1  0  0  0  0
  8  9  1  0  0  0  0
  9 10  1  0  0  0  0
 10 11  1  0  0  0  0
 11 12  1  0  0  0  0
 12 13  1  0  0  0  0
  7 14  1  0  0  0  0
 14 15  1  0  0  0  0
 15 16  2  0  0  0  0
 15 17  1  0  0  0  0
 17 18  1  0  0  0  0
 18 19  2  0  0  0  0
 19 20  1  0  0  0  0
 20 21  2  0  0  0  0
 21 22  1  0  0  0  0
 22 23  1  0  0  0  0
 23 24  2  0  0  0  0
 24 25  1  0  0  0  0
 25 26  1  0  0  0  0
 26 27  1  0  0  0  0
 25 28  2  0  0  0  0
 28 29  1  0  0  0  0
 29 30  1  0  0  0  0
 28 31  1  0  0  0  0
 31 32  1  0  0  0  0
 32 33  1  0  0  0  0
 31 34  2  0  0  0  0
 22 35  2  0  0  0  0
 35 36  1  0  0  0  0
 36 37  2  0  0  0  0
 37 38  1  0  0  0  0
 37 39  1  0  0  0  0
 39 40  2  0  0  0  0
 39 14  1  0  0  0  0
 38 17  2  0  0  0  0
 38 21  1  0  0  0  0
 34 23  1  0  0  0  0
  1 41  1  0  0  0  0
  1 42  1  0  0  0  0
  1 43  1  0  0  0  0
  2 44  1  0  0  0  0
  2 45  1  0  0  0  0
  3 46  1  0  0  0  0
  3 47  1  0  0  0  0
  4 48  1  0  0  0  0
  4 49  1  0  0  0  0
  5 50  1  0  0  0  0
  5 51  1  0  0  0  0
  6 52  1  0  0  0  0
  6 53  1  0  0  0  0
  7 54  1  0  0  0  0
  8 55  1  0  0  0  0
  8 56  1  0  0  0  0
  9 57  1  0  0  0  0
  9 58  1  0  0  0  0
 10 59  1  0  0  0  0
 10 60  1  0  0  0  0
 11 61  1  0  0  0  0
 11 62  1  0  0  0  0
 12 63  1  0  0  0  0
 12 64  1  0  0  0  0
 13 65  1  0  0  0  0
 13 66  1  0  0  0  0
 13 67  1  0  0  0  0
 18 68  1  0  0  0  0
 19 69  1  0  0  0  0
 20 70  1  0  0  0  0
 24 71  1  0  0  0  0
 27 72  1  0  0  0  0
 27 73  1  0  0  0  0
 27 74  1  0  0  0  0
 30 75  1  0  0  0  0
 30 76  1  0  0  0  0
 30 77  1  0  0  0  0
 33 78  1  0  0  0  0
 33 79  1  0  0  0  0
 33 80  1  0  0  0  0
 34 81  1  0  0  0  0
 35 82  1  0  0  0  0
 36 83  1  0  0  0  0
M  END
