
  xtb     03022214573D
 energy: -113.497419458364 gnorm: 0.000328073841 xtb: 6.4.1 (afa7bdf)
 70 75  0     0  0            999 V2000
   -8.8604    3.7175    1.4133 C   0  0  0  0  0  0  0  0  0  0  0  0
   -8.0624    2.4650    1.7529 C   0  0  0  0  0  0  0  0  0  0  0  0
   -8.9520    1.3888    2.3708 C   0  0  0  0  0  0  0  0  0  0  0  0
   -8.1649    0.1590    2.8223 C   0  0  0  0  0  0  0  0  0  0  0  0
   -7.4742   -0.4854    1.7096 N   0  0  0  0  0  0  0  0  0  0  0  0
   -8.2564   -1.2570    0.8656 C   0  0  0  0  0  0  0  0  0  0  0  0
   -9.4433   -1.3990    1.0772 O   0  0  0  0  0  0  0  0  0  0  0  0
   -7.5722   -1.8852   -0.2783 C   0  0  0  0  0  0  0  0  0  0  0  0
   -8.2922   -2.6486   -1.1738 C   0  0  0  0  0  0  0  0  0  0  0  0
   -7.6537   -3.2511   -2.2623 C   0  0  0  0  0  0  0  0  0  0  0  0
   -6.3059   -3.0939   -2.4531 C   0  0  0  0  0  0  0  0  0  0  0  0
   -5.5353   -2.3209   -1.5576 C   0  0  0  0  0  0  0  0  0  0  0  0
   -4.1506   -2.1379   -1.7138 C   0  0  0  0  0  0  0  0  0  0  0  0
   -3.4295   -1.3758   -0.8113 C   0  0  0  0  0  0  0  0  0  0  0  0
   -2.0428   -1.2050   -0.9751 C   0  0  0  0  0  0  0  0  0  0  0  0
   -0.8462   -1.0669   -1.1239 C   0  0  0  0  0  0  0  0  0  0  0  0
    0.4820   -0.9181   -1.3049 C   0  0  0  0  0  0  0  0  0  0  0  0
    1.6765   -0.7933   -1.4796 C   0  0  0  0  0  0  0  0  0  0  0  0
    3.0603   -0.6566   -1.6921 C   0  0  0  0  0  0  0  0  0  0  0  0
    3.9294   -0.5342   -0.5874 C   0  0  0  0  0  0  0  0  0  0  0  0
    5.2848   -0.4085   -0.7806 C   0  0  0  0  0  0  0  0  0  0  0  0
    5.8210   -0.3965   -2.0858 C   0  0  0  0  0  0  0  0  0  0  0  0
    7.2081   -0.2691   -2.2899 C   0  0  0  0  0  0  0  0  0  0  0  0
    7.7196   -0.2561   -3.5711 C   0  0  0  0  0  0  0  0  0  0  0  0
    6.8675   -0.3702   -4.6739 C   0  0  0  0  0  0  0  0  0  0  0  0
    5.5144   -0.4964   -4.4978 C   0  0  0  0  0  0  0  0  0  0  0  0
    4.9534   -0.5134   -3.2024 C   0  0  0  0  0  0  0  0  0  0  0  0
    3.5722   -0.6446   -2.9778 C   0  0  0  0  0  0  0  0  0  0  0  0
    8.1182   -0.1508   -1.1370 C   0  0  0  0  0  0  0  0  0  0  0  0
    9.3199   -0.0326   -1.2604 O   0  0  0  0  0  0  0  0  0  0  0  0
    7.5334   -0.1888    0.1188 N   0  0  0  0  0  0  0  0  0  0  0  0
    8.4279   -0.0661    1.2646 C   0  0  0  0  0  0  0  0  0  0  0  0
    8.6604    1.3980    1.6321 C   0  0  0  0  0  0  0  0  0  0  0  0
    9.5941    1.5270    2.8318 C   0  0  0  0  0  0  0  0  0  0  0  0
    9.8336    2.9860    3.1995 C   0  0  0  0  0  0  0  0  0  0  0  0
    6.1783   -0.2874    0.3871 C   0  0  0  0  0  0  0  0  0  0  0  0
    5.7655   -0.2806    1.5282 O   0  0  0  0  0  0  0  0  0  0  0  0
   -4.0860   -0.7679    0.2795 C   0  0  0  0  0  0  0  0  0  0  0  0
   -5.4403   -0.9301    0.4534 C   0  0  0  0  0  0  0  0  0  0  0  0
   -6.1872   -1.7081   -0.4564 C   0  0  0  0  0  0  0  0  0  0  0  0
   -6.1082   -0.2832    1.5991 C   0  0  0  0  0  0  0  0  0  0  0  0
   -5.5030    0.3872    2.4098 O   0  0  0  0  0  0  0  0  0  0  0  0
   -9.6582    3.4826    0.7118 H   0  0  0  0  0  0  0  0  0  0  0  0
   -9.3080    4.1388    2.3108 H   0  0  0  0  0  0  0  0  0  0  0  0
   -8.2178    4.4709    0.9640 H   0  0  0  0  0  0  0  0  0  0  0  0
   -7.5961    2.0788    0.8428 H   0  0  0  0  0  0  0  0  0  0  0  0
   -7.2611    2.7165    2.4508 H   0  0  0  0  0  0  0  0  0  0  0  0
   -9.4613    1.7967    3.2460 H   0  0  0  0  0  0  0  0  0  0  0  0
   -9.7144    1.0804    1.6530 H   0  0  0  0  0  0  0  0  0  0  0  0
   -7.4028    0.4403    3.5507 H   0  0  0  0  0  0  0  0  0  0  0  0
   -8.8478   -0.5743    3.2577 H   0  0  0  0  0  0  0  0  0  0  0  0
   -9.3532   -2.7703   -1.0163 H   0  0  0  0  0  0  0  0  0  0  0  0
   -8.2337   -3.8442   -2.9532 H   0  0  0  0  0  0  0  0  0  0  0  0
   -5.8114   -3.5607   -3.2927 H   0  0  0  0  0  0  0  0  0  0  0  0
   -3.6459   -2.6027   -2.5488 H   0  0  0  0  0  0  0  0  0  0  0  0
    3.5361   -0.5413    0.4184 H   0  0  0  0  0  0  0  0  0  0  0  0
    8.7865   -0.1574   -3.7025 H   0  0  0  0  0  0  0  0  0  0  0  0
    7.2862   -0.3583   -5.6688 H   0  0  0  0  0  0  0  0  0  0  0  0
    4.8552   -0.5851   -5.3493 H   0  0  0  0  0  0  0  0  0  0  0  0
    2.9048   -0.7365   -3.8229 H   0  0  0  0  0  0  0  0  0  0  0  0
    9.3735   -0.5409    0.9957 H   0  0  0  0  0  0  0  0  0  0  0  0
    7.9660   -0.5960    2.0996 H   0  0  0  0  0  0  0  0  0  0  0  0
    9.0945    1.9142    0.7728 H   0  0  0  0  0  0  0  0  0  0  0  0
    7.6993    1.8627    1.8636 H   0  0  0  0  0  0  0  0  0  0  0  0
    9.1580    1.0031    3.6850 H   0  0  0  0  0  0  0  0  0  0  0  0
   10.5480    1.0494    2.5979 H   0  0  0  0  0  0  0  0  0  0  0  0
   10.4994    3.0600    4.0559 H   0  0  0  0  0  0  0  0  0  0  0  0
    8.8948    3.4746    3.4510 H   0  0  0  0  0  0  0  0  0  0  0  0
   10.2852    3.5197    2.3662 H   0  0  0  0  0  0  0  0  0  0  0  0
   -3.5294   -0.1703    0.9862 H   0  0  0  0  0  0  0  0  0  0  0  0
  1  2  1  0  0  0  0
  2  3  1  0  0  0  0
  3  4  1  0  0  0  0
  4  5  1  0  0  0  0
  5  6  1  0  0  0  0
  6  7  2  0  0  0  0
  6  8  1  0  0  0  0
  8  9  1  0  0  0  0
  9 10  2  0  0  0  0
 10 11  1  0  0  0  0
 11 12  2  0  0  0  0
 12 13  1  0  0  0  0
 13 14  2  0  0  0  0
 14 15  1  0  0  0  0
 15 16  3  0  0  0  0
 16 17  1  0  0  0  0
 17 18  3  0  0  0  0
 18 19  1  0  0  0  0
 19 20  2  0  0  0  0
 20 21  1  0  0  0  0
 21 22  2  0  0  0  0
 22 23  1  0  0  0  0
 23 24  2  0  0  0  0
 24 25  1  0  0  0  0
 25 26  2  0  0  0  0
 26 27  1  0  0  0  0
 27 28  2  0  0  0  0
 23 29  1  0  0  0  0
 29 30  2  0  0  0  0
 29 31  1  0  0  0  0
 31 32  1  0  0  0  0
 32 33  1  0  0  0  0
 33 34  1  0  0  0  0
 34 35  1  0  0  0  0
 31 36  1  0  0  0  0
 36 37  2  0  0  0  0
 14 38  1  0  0  0  0
 38 39  2  0  0  0  0
 39 40  1  0  0  0  0
 39 41  1  0  0  0  0
 41 42  2  0  0  0  0
 41  5  1  0  0  0  0
 40  8  2  0  0  0  0
 40 12  1  0  0  0  0
 28 19  1  0  0  0  0
 36 21  1  0  0  0  0
 27 22  1  0  0  0  0
  1 43  1  0  0  0  0
  1 44  1  0  0  0  0
  1 45  1  0  0  0  0
  2 46  1  0  0  0  0
  2 47  1  0  0  0  0
  3 48  1  0  0  0  0
  3 49  1  0  0  0  0
  4 50  1  0  0  0  0
  4 51  1  0  0  0  0
  9 52  1  0  0  0  0
 10 53  1  0  0  0  0
 11 54  1  0  0  0  0
 13 55  1  0  0  0  0
 20 56  1  0  0  0  0
 24 57  1  0  0  0  0
 25 58  1  0  0  0  0
 26 59  1  0  0  0  0
 28 60  1  0  0  0  0
 32 61  1  0  0  0  0
 32 62  1  0  0  0  0
 33 63  1  0  0  0  0
 33 64  1  0  0  0  0
 34 65  1  0  0  0  0
 34 66  1  0  0  0  0
 35 67  1  0  0  0  0
 35 68  1  0  0  0  0
 35 69  1  0  0  0  0
 38 70  1  0  0  0  0
M  END
