
  xtb     03022214203D
 energy: -119.176979400204 gnorm: 0.000174110536 xtb: 6.4.1 (afa7bdf)
 72 79  0     0  0            999 V2000
   -7.0142    5.0822   -0.4335 C   0  0  0  0  0  0  0  0  0  0  0  0
   -5.7435    5.0077    0.1660 O   0  0  0  0  0  0  0  0  0  0  0  0
   -5.1050    3.8099    0.1991 C   0  0  0  0  0  0  0  0  0  0  0  0
   -3.8455    3.8022    0.8041 C   0  0  0  0  0  0  0  0  0  0  0  0
   -3.1100    2.6439    0.8920 C   0  0  0  0  0  0  0  0  0  0  0  0
   -3.6108    1.4411    0.3838 C   0  0  0  0  0  0  0  0  0  0  0  0
   -2.9030    0.1793    0.4608 C   0  0  0  0  0  0  0  0  0  0  0  0
   -1.5727   -0.0148    0.3322 N   0  0  0  0  0  4  0  0  0  0  0  0
   -1.3357   -1.3728    0.3811 C   0  0  0  0  0  0  0  0  0  0  0  0
   -0.1573   -1.9232    0.2131 N   0  0  0  0  0  0  0  0  0  0  0  0
    0.8903   -1.1891   -0.0534 C   0  0  0  0  0  0  0  0  0  0  0  0
    2.2285   -1.6741   -0.2222 C   0  0  0  0  0  0  0  0  0  0  0  0
    2.6130   -3.0733   -0.1661 C   0  0  0  0  0  0  0  0  0  0  0  0
    1.9564   -3.9522    0.6974 C   0  0  0  0  0  0  0  0  0  0  0  0
    2.3137   -5.2856    0.7431 C   0  0  0  0  0  0  0  0  0  0  0  0
    3.3311   -5.7659   -0.0659 C   0  0  0  0  0  0  0  0  0  0  0  0
    3.9858   -4.9030   -0.9295 C   0  0  0  0  0  0  0  0  0  0  0  0
    3.6319   -3.5681   -0.9816 C   0  0  0  0  0  0  0  0  0  0  0  0
    3.0025   -0.5518   -0.4286 C   0  0  0  0  0  0  0  0  0  0  0  0
    2.1466    0.5845   -0.4052 C   0  0  0  0  0  0  0  0  0  0  0  0
    0.8754    0.1835   -0.2062 N   0  0  0  0  0  0  0  0  0  0  0  0
   -0.4369    0.9916    0.0061 B   0  0  0  0  0  4  0  0  0  0  0  0
   -0.2177    1.8710    1.0523 F   0  0  0  0  0  0  0  0  0  0  0  0
   -0.7958    1.6828   -1.1375 F   0  0  0  0  0  0  0  0  0  0  0  0
    2.6819    1.9109   -0.5560 C   0  0  0  0  0  0  0  0  0  0  0  0
    1.9301    3.0339   -0.9223 C   0  0  0  0  0  0  0  0  0  0  0  0
    2.5226    4.2647   -1.0614 C   0  0  0  0  0  0  0  0  0  0  0  0
    3.8930    4.4251   -0.8361 C   0  0  0  0  0  0  0  0  0  0  0  0
    4.3817    5.6788   -0.9985 O   0  0  0  0  0  0  0  0  0  0  0  0
    5.7527    5.9102   -0.7809 C   0  0  0  0  0  0  0  0  0  0  0  0
    4.6511    3.3146   -0.4728 C   0  0  0  0  0  0  0  0  0  0  0  0
    4.0651    2.0695   -0.3358 C   0  0  0  0  0  0  0  0  0  0  0  0
    4.8959    0.8994    0.1101 C   0  0  0  0  0  0  0  0  0  0  0  0
    4.4727   -0.3871   -0.5993 C   0  0  0  0  0  0  0  0  0  0  0  0
   -2.5696   -2.0592    0.6110 C   0  0  0  0  0  0  0  0  0  0  0  0
   -2.7437   -3.4895    0.7652 C   0  0  0  0  0  0  0  0  0  0  0  0
   -1.7851   -4.3889    0.2909 C   0  0  0  0  0  0  0  0  0  0  0  0
   -1.9625   -5.7494    0.4491 C   0  0  0  0  0  0  0  0  0  0  0  0
   -3.0965   -6.2411    1.0758 C   0  0  0  0  0  0  0  0  0  0  0  0
   -4.0553   -5.3588    1.5481 C   0  0  0  0  0  0  0  0  0  0  0  0
   -3.8836   -3.9973    1.3951 C   0  0  0  0  0  0  0  0  0  0  0  0
   -3.5333   -1.0678    0.6437 C   0  0  0  0  0  0  0  0  0  0  0  0
   -4.8761    1.4557   -0.2099 C   0  0  0  0  0  0  0  0  0  0  0  0
   -5.6132    2.6179   -0.3117 C   0  0  0  0  0  0  0  0  0  0  0  0
   -7.3201    6.1237   -0.3474 H   0  0  0  0  0  0  0  0  0  0  0  0
   -6.9767    4.8031   -1.4913 H   0  0  0  0  0  0  0  0  0  0  0  0
   -7.7413    4.4485    0.0848 H   0  0  0  0  0  0  0  0  0  0  0  0
   -3.4650    4.7298    1.2011 H   0  0  0  0  0  0  0  0  0  0  0  0
   -2.1511    2.6665    1.3769 H   0  0  0  0  0  0  0  0  0  0  0  0
    1.1688   -3.5766    1.3306 H   0  0  0  0  0  0  0  0  0  0  0  0
    1.7969   -5.9544    1.4160 H   0  0  0  0  0  0  0  0  0  0  0  0
    3.6106   -6.8085   -0.0272 H   0  0  0  0  0  0  0  0  0  0  0  0
    4.7731   -5.2742   -1.5698 H   0  0  0  0  0  0  0  0  0  0  0  0
    4.1228   -2.9089   -1.6811 H   0  0  0  0  0  0  0  0  0  0  0  0
    0.8783    2.9368   -1.1140 H   0  0  0  0  0  0  0  0  0  0  0  0
    1.9458    5.1295   -1.3466 H   0  0  0  0  0  0  0  0  0  0  0  0
    6.0426    5.6706    0.2471 H   0  0  0  0  0  0  0  0  0  0  0  0
    5.9036    6.9739   -0.9579 H   0  0  0  0  0  0  0  0  0  0  0  0
    6.3726    5.3369   -1.4777 H   0  0  0  0  0  0  0  0  0  0  0  0
    5.7104    3.4086   -0.2867 H   0  0  0  0  0  0  0  0  0  0  0  0
    5.9544    1.0990   -0.0651 H   0  0  0  0  0  0  0  0  0  0  0  0
    4.7549    0.7681    1.1885 H   0  0  0  0  0  0  0  0  0  0  0  0
    4.7169   -0.3106   -1.6646 H   0  0  0  0  0  0  0  0  0  0  0  0
    5.0066   -1.2447   -0.1866 H   0  0  0  0  0  0  0  0  0  0  0  0
   -0.9061   -4.0066   -0.2019 H   0  0  0  0  0  0  0  0  0  0  0  0
   -1.2119   -6.4316    0.0768 H   0  0  0  0  0  0  0  0  0  0  0  0
   -3.2337   -7.3057    1.1965 H   0  0  0  0  0  0  0  0  0  0  0  0
   -4.9395   -5.7363    2.0413 H   0  0  0  0  0  0  0  0  0  0  0  0
   -4.6264   -3.3171    1.7836 H   0  0  0  0  0  0  0  0  0  0  0  0
   -4.5871   -1.1972    0.7930 H   0  0  0  0  0  0  0  0  0  0  0  0
   -5.2767    0.5459   -0.6310 H   0  0  0  0  0  0  0  0  0  0  0  0
   -6.5779    2.5851   -0.7936 H   0  0  0  0  0  0  0  0  0  0  0  0
  1  2  1  0  0  0  0
  2  3  1  0  0  0  0
  3  4  2  0  0  0  0
  4  5  1  0  0  0  0
  5  6  2  0  0  0  0
  6  7  1  0  0  0  0
  7  8  2  0  0  0  0
  8  9  1  0  0  0  0
  9 10  2  0  0  0  0
 10 11  1  0  0  0  0
 11 12  2  0  0  0  0
 12 13  1  0  0  0  0
 13 14  2  0  0  0  0
 14 15  1  0  0  0  0
 15 16  2  0  0  0  0
 16 17  1  0  0  0  0
 17 18  2  0  0  0  0
 12 19  1  0  0  0  0
 19 20  2  0  0  0  0
 20 21  1  0  0  0  0
 21 22  1  0  0  0  0
 22 23  1  0  0  0  0
 22 24  1  0  0  0  0
 20 25  1  0  0  0  0
 25 26  2  0  0  0  0
 26 27  1  0  0  0  0
 27 28  2  0  0  0  0
 28 29  1  0  0  0  0
 29 30  1  0  0  0  0
 28 31  1  0  0  0  0
 31 32  2  0  0  0  0
 32 33  1  0  0  0  0
 33 34  1  0  0  0  0
  9 35  1  0  0  0  0
 35 36  1  0  0  0  0
 36 37  2  0  0  0  0
 37 38  1  0  0  0  0
 38 39  2  0  0  0  0
 39 40  1  0  0  0  0
 40 41  2  0  0  0  0
 35 42  2  0  0  0  0
  6 43  1  0  0  0  0
 43 44  2  0  0  0  0
 44  3  1  0  0  0  0
 42  7  1  0  0  0  0
 22  8  1  0  0  0  0
 32 25  1  0  0  0  0
 41 36  1  0  0  0  0
 21 11  1  0  0  0  0
 18 13  1  0  0  0  0
 34 19  1  0  0  0  0
  1 45  1  0  0  0  0
  1 46  1  0  0  0  0
  1 47  1  0  0  0  0
  4 48  1  0  0  0  0
  5 49  1  0  0  0  0
 14 50  1  0  0  0  0
 15 51  1  0  0  0  0
 16 52  1  0  0  0  0
 17 53  1  0  0  0  0
 18 54  1  0  0  0  0
 26 55  1  0  0  0  0
 27 56  1  0  0  0  0
 30 57  1  0  0  0  0
 30 58  1  0  0  0  0
 30 59  1  0  0  0  0
 31 60  1  0  0  0  0
 33 61  1  0  0  0  0
 33 62  1  0  0  0  0
 34 63  1  0  0  0  0
 34 64  1  0  0  0  0
 37 65  1  0  0  0  0
 38 66  1  0  0  0  0
 39 67  1  0  0  0  0
 40 68  1  0  0  0  0
 41 69  1  0  0  0  0
 42 70  1  0  0  0  0
 43 71  1  0  0  0  0
 44 72  1  0  0  0  0
M  CHG  1   8   1
M  CHG  1  22  -1
M  END
