
  xtb     03022214013D
 energy: -79.411141333916 gnorm: 0.000182523286 xtb: 6.4.1 (afa7bdf)
 52 56  0     0  0            999 V2000
    2.5250    0.0742   -0.4306 C   0  0  0  0  0  0  0  0  0  0  0  0
    3.2498    0.9602   -1.1329 C   0  0  0  0  0  0  0  0  0  0  0  0
    4.6969    0.9777   -1.1923 C   0  0  0  0  0  0  0  0  0  0  0  0
    5.2203    1.3115   -2.3601 N   0  0  0  0  0  0  0  0  0  0  0  0
    6.5397    1.2081   -2.5103 C   0  0  0  0  0  0  0  0  0  0  0  0
    7.4001    0.7710   -1.6348 N   0  0  0  0  0  0  0  0  0  0  0  0
    6.9252    0.5115   -0.3971 C   0  0  0  0  0  0  0  0  0  0  0  0
    7.8251    0.1210    0.6146 C   0  0  0  0  0  0  0  0  0  0  0  0
    7.3769   -0.0681    1.8923 C   0  0  0  0  0  0  0  0  0  0  0  0
    6.0287    0.1488    2.2147 C   0  0  0  0  0  0  0  0  0  0  0  0
    5.1276    0.5071    1.2482 C   0  0  0  0  0  0  0  0  0  0  0  0
    5.5433    0.6523   -0.0879 C   0  0  0  0  0  0  0  0  0  0  0  0
    1.0829    0.0054   -0.3645 C   0  0  0  0  0  0  0  0  0  0  0  0
    0.2403    0.9811   -0.9095 C   0  0  0  0  0  0  0  0  0  0  0  0
   -1.1271    0.8828   -0.8011 C   0  0  0  0  0  0  0  0  0  0  0  0
   -1.7164   -0.2012   -0.1423 C   0  0  0  0  0  0  0  0  0  0  0  0
   -3.0994   -0.2957   -0.0282 N   0  0  0  0  0  0  0  0  0  0  0  0
   -3.7281   -1.5484   -0.0483 C   0  0  0  0  0  0  0  0  0  0  0  0
   -3.2743   -2.5532   -0.9019 C   0  0  0  0  0  0  0  0  0  0  0  0
   -3.8990   -3.7851   -0.9184 C   0  0  0  0  0  0  0  0  0  0  0  0
   -4.9858   -4.0320   -0.0956 C   0  0  0  0  0  0  0  0  0  0  0  0
   -5.4438   -3.0346    0.7497 C   0  0  0  0  0  0  0  0  0  0  0  0
   -4.8209   -1.8019    0.7795 C   0  0  0  0  0  0  0  0  0  0  0  0
   -3.8760    0.8627    0.1171 C   0  0  0  0  0  0  0  0  0  0  0  0
   -5.1139    0.9655   -0.5156 C   0  0  0  0  0  0  0  0  0  0  0  0
   -5.8801    2.1046   -0.3614 C   0  0  0  0  0  0  0  0  0  0  0  0
   -5.4246    3.1570    0.4156 C   0  0  0  0  0  0  0  0  0  0  0  0
   -4.1942    3.0600    1.0447 C   0  0  0  0  0  0  0  0  0  0  0  0
   -3.4242    1.9219    0.9033 C   0  0  0  0  0  0  0  0  0  0  0  0
   -0.8839   -1.1832    0.4021 C   0  0  0  0  0  0  0  0  0  0  0  0
    0.4831   -1.0754    0.2931 C   0  0  0  0  0  0  0  0  0  0  0  0
    3.0413   -0.7011    0.1229 H   0  0  0  0  0  0  0  0  0  0  0  0
    2.7737    1.6669   -1.7971 H   0  0  0  0  0  0  0  0  0  0  0  0
    6.9263    1.4891   -3.4827 H   0  0  0  0  0  0  0  0  0  0  0  0
    8.8643    0.0066    0.3499 H   0  0  0  0  0  0  0  0  0  0  0  0
    8.0655   -0.3598    2.6720 H   0  0  0  0  0  0  0  0  0  0  0  0
    5.7060    0.0406    3.2400 H   0  0  0  0  0  0  0  0  0  0  0  0
    4.1001    0.7122    1.5089 H   0  0  0  0  0  0  0  0  0  0  0  0
    0.6632    1.8281   -1.4265 H   0  0  0  0  0  0  0  0  0  0  0  0
   -1.7592    1.6441   -1.2342 H   0  0  0  0  0  0  0  0  0  0  0  0
   -2.4344   -2.3584   -1.5526 H   0  0  0  0  0  0  0  0  0  0  0  0
   -3.5397   -4.5546   -1.5856 H   0  0  0  0  0  0  0  0  0  0  0  0
   -5.4732   -4.9948   -0.1138 H   0  0  0  0  0  0  0  0  0  0  0  0
   -6.2880   -3.2197    1.3973 H   0  0  0  0  0  0  0  0  0  0  0  0
   -5.1740   -1.0279    1.4451 H   0  0  0  0  0  0  0  0  0  0  0  0
   -5.4667    0.1488   -1.1283 H   0  0  0  0  0  0  0  0  0  0  0  0
   -6.8364    2.1737   -0.8586 H   0  0  0  0  0  0  0  0  0  0  0  0
   -6.0247    4.0467    0.5311 H   0  0  0  0  0  0  0  0  0  0  0  0
   -3.8342    3.8728    1.6580 H   0  0  0  0  0  0  0  0  0  0  0  0
   -2.4701    1.8429    1.4036 H   0  0  0  0  0  0  0  0  0  0  0  0
   -1.3224   -2.0225    0.9217 H   0  0  0  0  0  0  0  0  0  0  0  0
    1.1097   -1.8395    0.7313 H   0  0  0  0  0  0  0  0  0  0  0  0
  1  2  2  0  0  0  0
  2  3  1  0  0  0  0
  3  4  2  0  0  0  0
  4  5  1  0  0  0  0
  5  6  2  0  0  0  0
  6  7  1  0  0  0  0
  7  8  2  0  0  0  0
  8  9  1  0  0  0  0
  9 10  2  0  0  0  0
 10 11  1  0  0  0  0
 11 12  2  0  0  0  0
  1 13  1  0  0  0  0
 13 14  2  0  0  0  0
 14 15  1  0  0  0  0
 15 16  2  0  0  0  0
 16 17  1  0  0  0  0
 17 18  1  0  0  0  0
 18 19  2  0  0  0  0
 19 20  1  0  0  0  0
 20 21  2  0  0  0  0
 21 22  1  0  0  0  0
 22 23  2  0  0  0  0
 17 24  1  0  0  0  0
 24 25  2  0  0  0  0
 25 26  1  0  0  0  0
 26 27  2  0  0  0  0
 27 28  1  0  0  0  0
 28 29  2  0  0  0  0
 16 30  1  0  0  0  0
 30 31  2  0  0  0  0
 12  3  1  0  0  0  0
 31 13  1  0  0  0  0
 12  7  1  0  0  0  0
 23 18  1  0  0  0  0
 29 24  1  0  0  0  0
  1 32  1  0  0  0  0
  2 33  1  0  0  0  0
  5 34  1  0  0  0  0
  8 35  1  0  0  0  0
  9 36  1  0  0  0  0
 10 37  1  0  0  0  0
 11 38  1  0  0  0  0
 14 39  1  0  0  0  0
 15 40  1  0  0  0  0
 19 41  1  0  0  0  0
 20 42  1  0  0  0  0
 21 43  1  0  0  0  0
 22 44  1  0  0  0  0
 23 45  1  0  0  0  0
 25 46  1  0  0  0  0
 26 47  1  0  0  0  0
 27 48  1  0  0  0  0
 28 49  1  0  0  0  0
 29 50  1  0  0  0  0
 30 51  1  0  0  0  0
 31 52  1  0  0  0  0
M  END
