
  xtb     03022215393D
 energy: -44.110006823086 gnorm: 0.000359272769 xtb: 6.4.1 (afa7bdf)
 26 28  0     0  0            999 V2000
   -2.2967    3.3326    1.8141 N   0  0  0  0  0  0  0  0  0  0  0  0
   -1.6478    2.4923    1.3815 C   0  0  0  0  0  0  0  0  0  0  0  0
   -0.8496    1.4553    0.8464 C   0  0  0  0  0  0  0  0  0  0  0  0
    0.4687    1.3510    1.2295 C   0  0  0  0  0  0  0  0  0  0  0  0
    0.9995    2.2827    2.1508 C   0  0  0  0  0  0  0  0  0  0  0  0
    1.4317    3.0373    2.8981 N   0  0  0  0  0  0  0  0  0  0  0  0
    1.3050    0.3136    0.7074 C   0  0  0  0  0  0  0  0  0  0  0  0
    2.6486    0.2193    1.1070 C   0  0  0  0  0  0  0  0  0  0  0  0
    3.4557   -0.7715    0.6110 C   0  0  0  0  0  0  0  0  0  0  0  0
    2.9366   -1.6936   -0.2986 C   0  0  0  0  0  0  0  0  0  0  0  0
    1.6255   -1.6168   -0.7005 C   0  0  0  0  0  0  0  0  0  0  0  0
    0.7681   -0.6166   -0.2148 C   0  0  0  0  0  0  0  0  0  0  0  0
   -0.6154   -0.5072   -0.6165 C   0  0  0  0  0  0  0  0  0  0  0  0
   -1.2170   -1.3924   -1.5255 C   0  0  0  0  0  0  0  0  0  0  0  0
   -2.5354   -1.2614   -1.8872 C   0  0  0  0  0  0  0  0  0  0  0  0
   -3.3189   -0.2360   -1.3563 C   0  0  0  0  0  0  0  0  0  0  0  0
   -2.7662    0.6476   -0.4658 C   0  0  0  0  0  0  0  0  0  0  0  0
   -1.4194    0.5291   -0.0840 C   0  0  0  0  0  0  0  0  0  0  0  0
    3.0333    0.9419    1.8120 H   0  0  0  0  0  0  0  0  0  0  0  0
    4.4872   -0.8400    0.9208 H   0  0  0  0  0  0  0  0  0  0  0  0
    3.5721   -2.4742   -0.6896 H   0  0  0  0  0  0  0  0  0  0  0  0
    1.2586   -2.3459   -1.4044 H   0  0  0  0  0  0  0  0  0  0  0  0
   -0.6419   -2.1963   -1.9555 H   0  0  0  0  0  0  0  0  0  0  0  0
   -2.9703   -1.9576   -2.5887 H   0  0  0  0  0  0  0  0  0  0  0  0
   -4.3539   -0.1411   -1.6467 H   0  0  0  0  0  0  0  0  0  0  0  0
   -3.3577    1.4475   -0.0446 H   0  0  0  0  0  0  0  0  0  0  0  0
  1  2  3  0  0  0  0
  2  3  1  0  0  0  0
  3  4  2  0  0  0  0
  4  5  1  0  0  0  0
  5  6  3  0  0  0  0
  4  7  1  0  0  0  0
  7  8  2  0  0  0  0
  8  9  1  0  0  0  0
  9 10  2  0  0  0  0
 10 11  1  0  0  0  0
 11 12  2  0  0  0  0
 12 13  1  0  0  0  0
 13 14  2  0  0  0  0
 14 15  1  0  0  0  0
 15 16  2  0  0  0  0
 16 17  1  0  0  0  0
 17 18  2  0  0  0  0
 18  3  1  0  0  0  0
 12  7  1  0  0  0  0
 18 13  1  0  0  0  0
  8 19  1  0  0  0  0
  9 20  1  0  0  0  0
 10 21  1  0  0  0  0
 11 22  1  0  0  0  0
 14 23  1  0  0  0  0
 15 24  1  0  0  0  0
 16 25  1  0  0  0  0
 17 26  1  0  0  0  0
M  END
