
  xtb     03022213523D
 energy: -62.108946373057 gnorm: 0.000164628623 xtb: 6.4.1 (afa7bdf)
 44 46  0     0  0            999 V2000
   -3.4406   -4.1655   -1.7246 C   0  0  0  0  0  0  0  0  0  0  0  0
   -1.9307   -3.4185   -1.0531 S   0  0  0  0  0  0  0  0  0  0  0  0
   -2.3925   -1.7412   -0.7323 C   0  0  0  0  0  0  0  0  0  0  0  0
   -3.6338   -1.2030   -1.0201 C   0  0  0  0  0  0  0  0  0  0  0  0
   -3.8613    0.1255   -0.7049 C   0  0  0  0  0  0  0  0  0  0  0  0
   -2.8840    0.9025   -0.1116 C   0  0  0  0  0  0  0  0  0  0  0  0
   -1.6116    0.3833    0.1645 C   0  0  0  0  0  0  0  0  0  0  0  0
   -1.3976   -0.9533   -0.1600 C   0  0  0  0  0  0  0  0  0  0  0  0
   -0.6105    1.1541    0.7497 N   0  0  0  0  0  0  0  0  0  0  0  0
    0.5205    0.4736    1.3451 C   0  0  0  0  0  0  0  0  0  0  0  0
    1.6356    0.0807    0.3593 C   0  0  0  0  0  0  0  0  0  0  0  0
    2.4044   -1.1368    0.8728 C   0  0  0  0  0  0  0  0  0  0  0  0
    3.6128   -1.3841    0.1062 N   0  0  0  0  0  0  0  0  0  0  0  0
    3.3242   -1.8644   -1.2303 C   0  0  0  0  0  0  0  0  0  0  0  0
    4.4938   -2.3008    0.8007 C   0  0  0  0  0  0  0  0  0  0  0  0
   -0.5742    2.5412    0.6029 C   0  0  0  0  0  0  0  0  0  0  0  0
    0.6288    3.2451    0.6766 C   0  0  0  0  0  0  0  0  0  0  0  0
    0.6726    4.6234    0.5572 C   0  0  0  0  0  0  0  0  0  0  0  0
   -0.4830    5.3474    0.3364 C   0  0  0  0  0  0  0  0  0  0  0  0
   -1.6863    4.6714    0.2467 C   0  0  0  0  0  0  0  0  0  0  0  0
   -1.7333    3.2954    0.3913 C   0  0  0  0  0  0  0  0  0  0  0  0
   -3.3353    2.5442    0.3637 S   0  0  0  0  0  0  0  0  0  0  0  0
   -3.7138   -3.6773   -2.6556 H   0  0  0  0  0  0  0  0  0  0  0  0
   -4.2412   -4.1003   -0.9936 H   0  0  0  0  0  0  0  0  0  0  0  0
   -3.1951   -5.2062   -1.9124 H   0  0  0  0  0  0  0  0  0  0  0  0
   -4.4212   -1.7830   -1.4705 H   0  0  0  0  0  0  0  0  0  0  0  0
   -4.8261    0.5684   -0.8993 H   0  0  0  0  0  0  0  0  0  0  0  0
   -0.4521   -1.4305    0.0268 H   0  0  0  0  0  0  0  0  0  0  0  0
    0.1325   -0.4287    1.8279 H   0  0  0  0  0  0  0  0  0  0  0  0
    0.9204    1.1137    2.1357 H   0  0  0  0  0  0  0  0  0  0  0  0
    1.1918   -0.1291   -0.6137 H   0  0  0  0  0  0  0  0  0  0  0  0
    2.3479    0.8942    0.2223 H   0  0  0  0  0  0  0  0  0  0  0  0
    1.7416   -2.0234    0.8807 H   0  0  0  0  0  0  0  0  0  0  0  0
    2.7062   -0.9395    1.9057 H   0  0  0  0  0  0  0  0  0  0  0  0
    2.7736   -1.1065   -1.7826 H   0  0  0  0  0  0  0  0  0  0  0  0
    4.2631   -2.0478   -1.7500 H   0  0  0  0  0  0  0  0  0  0  0  0
    2.7365   -2.7963   -1.2265 H   0  0  0  0  0  0  0  0  0  0  0  0
    4.0429   -3.2944    0.9515 H   0  0  0  0  0  0  0  0  0  0  0  0
    4.7522   -1.8850    1.7736 H   0  0  0  0  0  0  0  0  0  0  0  0
    5.4085   -2.4200    0.2223 H   0  0  0  0  0  0  0  0  0  0  0  0
    1.5550    2.7196    0.8313 H   0  0  0  0  0  0  0  0  0  0  0  0
    1.6248    5.1267    0.6328 H   0  0  0  0  0  0  0  0  0  0  0  0
   -0.4546    6.4211    0.2378 H   0  0  0  0  0  0  0  0  0  0  0  0
   -2.6108    5.2045    0.0853 H   0  0  0  0  0  0  0  0  0  0  0  0
  1  2  1  0  0  0  0
  2  3  1  0  0  0  0
  3  4  2  0  0  0  0
  4  5  1  0  0  0  0
  5  6  2  0  0  0  0
  6  7  1  0  0  0  0
  7  8  2  0  0  0  0
  7  9  1  0  0  0  0
  9 10  1  0  0  0  0
 10 11  1  0  0  0  0
 11 12  1  0  0  0  0
 12 13  1  0  0  0  0
 13 14  1  0  0  0  0
 13 15  1  0  0  0  0
  9 16  1  0  0  0  0
 16 17  2  0  0  0  0
 17 18  1  0  0  0  0
 18 19  2  0  0  0  0
 19 20  1  0  0  0  0
 20 21  2  0  0  0  0
 21 22  1  0  0  0  0
  8  3  1  0  0  0  0
 21 16  1  0  0  0  0
 22  6  1  0  0  0  0
  1 23  1  0  0  0  0
  1 24  1  0  0  0  0
  1 25  1  0  0  0  0
  4 26  1  0  0  0  0
  5 27  1  0  0  0  0
  8 28  1  0  0  0  0
 10 29  1  0  0  0  0
 10 30  1  0  0  0  0
 11 31  1  0  0  0  0
 11 32  1  0  0  0  0
 12 33  1  0  0  0  0
 12 34  1  0  0  0  0
 14 35  1  0  0  0  0
 14 36  1  0  0  0  0
 14 37  1  0  0  0  0
 15 38  1  0  0  0  0
 15 39  1  0  0  0  0
 15 40  1  0  0  0  0
 17 41  1  0  0  0  0
 18 42  1  0  0  0  0
 19 43  1  0  0  0  0
 20 44  1  0  0  0  0
M  END
