
  xtb     03022215423D
 energy: -115.360858503412 gnorm: 0.000087944432 xtb: 6.4.1 (afa7bdf)
 84 90  0     0  0            999 V2000
   -9.6489   -1.2425    0.3503 C   0  0  0  0  0  0  0  0  0  0  0  0
   -9.2547   -0.0476    1.2302 C   0  0  0  0  0  0  0  0  0  0  0  0
  -10.0196    1.1823    0.7336 C   0  0  0  0  0  0  0  0  0  0  0  0
   -9.6683   -0.3138    2.6847 C   0  0  0  0  0  0  0  0  0  0  0  0
   -7.7474    0.1369    1.1725 C   0  0  0  0  0  0  0  0  0  0  0  0
   -7.1416    1.3071    0.7280 C   0  0  0  0  0  0  0  0  0  0  0  0
   -5.7676    1.4318    0.6988 C   0  0  0  0  0  0  0  0  0  0  0  0
   -4.9323    0.3966    1.1137 C   0  0  0  0  0  0  0  0  0  0  0  0
   -3.4952    0.5583    1.0535 C   0  0  0  0  0  0  0  0  0  0  0  0
   -2.5454   -0.2206    1.6268 C   0  0  0  0  0  0  0  0  0  0  0  0
   -1.1904    0.1634    1.3469 C   0  0  0  0  0  0  0  0  0  0  0  0
   -0.0282   -0.4674    1.7838 C   0  0  0  0  0  0  0  0  0  0  0  0
    1.1876    0.0128    1.3421 C   0  0  0  0  0  0  0  0  0  0  0  0
    1.2715    1.1445    0.4997 C   0  0  0  0  0  0  0  0  0  0  0  0
    2.6213    1.4611    0.1270 C   0  0  0  0  0  0  0  0  0  0  0  0
    3.5691    0.6401    0.6417 C   0  0  0  0  0  0  0  0  0  0  0  0
    4.9972    0.6805    0.4095 C   0  0  0  0  0  0  0  0  0  0  0  0
    5.8576   -0.0585    1.2221 C   0  0  0  0  0  0  0  0  0  0  0  0
    7.2189   -0.0486    1.0166 C   0  0  0  0  0  0  0  0  0  0  0  0
    7.7933    0.6981   -0.0114 C   0  0  0  0  0  0  0  0  0  0  0  0
    9.3015    0.6831   -0.1974 C   0  0  0  0  0  0  0  0  0  0  0  0
    9.7540   -0.7558   -0.4838 C   0  0  0  0  0  0  0  0  0  0  0  0
    9.7631    1.5695   -1.3574 C   0  0  0  0  0  0  0  0  0  0  0  0
    9.9702    1.1926    1.0874 C   0  0  0  0  0  0  0  0  0  0  0  0
    6.9342    1.4258   -0.8277 C   0  0  0  0  0  0  0  0  0  0  0  0
    5.5675    1.4182   -0.6274 C   0  0  0  0  0  0  0  0  0  0  0  0
    2.8444   -0.5744    1.8082 P   0  0  0  0  0  0  0  0  0  0  0  0
    2.9742   -2.0770    0.7540 C   0  0  0  0  0  0  0  0  0  0  0  0
    2.4289   -2.1287   -0.5238 C   0  0  0  0  0  0  0  0  0  0  0  0
    2.5654   -3.2740   -1.2849 C   0  0  0  0  0  0  0  0  0  0  0  0
    3.2462   -4.3711   -0.7806 C   0  0  0  0  0  0  0  0  0  0  0  0
    3.7900   -4.3228    0.4912 C   0  0  0  0  0  0  0  0  0  0  0  0
    3.6529   -3.1789    1.2579 C   0  0  0  0  0  0  0  0  0  0  0  0
    0.1112    1.8015    0.0982 C   0  0  0  0  0  0  0  0  0  0  0  0
   -1.1061    1.2959    0.5055 C   0  0  0  0  0  0  0  0  0  0  0  0
   -2.7545    1.9924    0.1842 P   0  0  0  0  0  0  0  0  0  0  0  0
   -3.0222    1.4283   -1.5469 C   0  0  0  0  0  0  0  0  0  0  0  0
   -2.5661    0.1949   -1.9980 C   0  0  0  0  0  0  0  0  0  0  0  0
   -2.8053   -0.1927   -3.3026 C   0  0  0  0  0  0  0  0  0  0  0  0
   -3.5005    0.6425   -4.1633 C   0  0  0  0  0  0  0  0  0  0  0  0
   -3.9555    1.8711   -3.7173 C   0  0  0  0  0  0  0  0  0  0  0  0
   -3.7156    2.2643   -2.4123 C   0  0  0  0  0  0  0  0  0  0  0  0
   -5.5378   -0.7829    1.5522 C   0  0  0  0  0  0  0  0  0  0  0  0
   -6.9105   -0.9011    1.5805 C   0  0  0  0  0  0  0  0  0  0  0  0
   -9.1901   -2.1627    0.7011 H   0  0  0  0  0  0  0  0  0  0  0  0
   -9.3318   -1.0737   -0.6769 H   0  0  0  0  0  0  0  0  0  0  0  0
  -10.7288   -1.3754    0.3614 H   0  0  0  0  0  0  0  0  0  0  0  0
   -9.7973    2.0546    1.3439 H   0  0  0  0  0  0  0  0  0  0  0  0
  -11.0894    0.9932    0.7963 H   0  0  0  0  0  0  0  0  0  0  0  0
   -9.7776    1.4008   -0.3040 H   0  0  0  0  0  0  0  0  0  0  0  0
   -9.3749    0.5214    3.3174 H   0  0  0  0  0  0  0  0  0  0  0  0
   -9.1995   -1.2144    3.0714 H   0  0  0  0  0  0  0  0  0  0  0  0
  -10.7474   -0.4355    2.7513 H   0  0  0  0  0  0  0  0  0  0  0  0
   -7.7366    2.1429    0.3976 H   0  0  0  0  0  0  0  0  0  0  0  0
   -5.3194    2.3573    0.3570 H   0  0  0  0  0  0  0  0  0  0  0  0
   -2.7571   -1.0779    2.2472 H   0  0  0  0  0  0  0  0  0  0  0  0
   -0.0806   -1.3229    2.4431 H   0  0  0  0  0  0  0  0  0  0  0  0
    2.8303    2.2956   -0.5247 H   0  0  0  0  0  0  0  0  0  0  0  0
    5.4371   -0.6395    2.0344 H   0  0  0  0  0  0  0  0  0  0  0  0
    7.8438   -0.6349    1.6737 H   0  0  0  0  0  0  0  0  0  0  0  0
    9.2654   -1.1320   -1.3804 H   0  0  0  0  0  0  0  0  0  0  0  0
    9.5090   -1.4196    0.3407 H   0  0  0  0  0  0  0  0  0  0  0  0
   10.8306   -0.7864   -0.6381 H   0  0  0  0  0  0  0  0  0  0  0  0
    9.4797    2.6067   -1.1939 H   0  0  0  0  0  0  0  0  0  0  0  0
   10.8476    1.5264   -1.4368 H   0  0  0  0  0  0  0  0  0  0  0  0
    9.3443    1.2291   -2.3017 H   0  0  0  0  0  0  0  0  0  0  0  0
    9.7279    0.5623    1.9383 H   0  0  0  0  0  0  0  0  0  0  0  0
    9.6379    2.2050    1.3078 H   0  0  0  0  0  0  0  0  0  0  0  0
   11.0516    1.2023    0.9680 H   0  0  0  0  0  0  0  0  0  0  0  0
    7.3223    2.0144   -1.6433 H   0  0  0  0  0  0  0  0  0  0  0  0
    4.9355    1.9862   -1.2936 H   0  0  0  0  0  0  0  0  0  0  0  0
    1.8994   -1.2730   -0.9192 H   0  0  0  0  0  0  0  0  0  0  0  0
    2.1404   -3.3120   -2.2778 H   0  0  0  0  0  0  0  0  0  0  0  0
    3.3510   -5.2635   -1.3803 H   0  0  0  0  0  0  0  0  0  0  0  0
    4.3197   -5.1772    0.8871 H   0  0  0  0  0  0  0  0  0  0  0  0
    4.0710   -3.1380    2.2545 H   0  0  0  0  0  0  0  0  0  0  0  0
    0.1651    2.6797   -0.5305 H   0  0  0  0  0  0  0  0  0  0  0  0
   -2.0255   -0.4585   -1.3272 H   0  0  0  0  0  0  0  0  0  0  0  0
   -2.4497   -1.1518   -3.6511 H   0  0  0  0  0  0  0  0  0  0  0  0
   -3.6856    0.3342   -5.1819 H   0  0  0  0  0  0  0  0  0  0  0  0
   -4.4961    2.5245   -4.3867 H   0  0  0  0  0  0  0  0  0  0  0  0
   -4.0643    3.2256   -2.0604 H   0  0  0  0  0  0  0  0  0  0  0  0
   -4.9278   -1.6175    1.8638 H   0  0  0  0  0  0  0  0  0  0  0  0
   -7.3364   -1.8307    1.9284 H   0  0  0  0  0  0  0  0  0  0  0  0
  1  2  1  0  0  0  0
  2  3  1  0  0  0  0
  2  4  1  0  0  0  0
  2  5  1  0  0  0  0
  5  6  2  0  0  0  0
  6  7  1  0  0  0  0
  7  8  2  0  0  0  0
  8  9  1  0  0  0  0
  9 10  2  0  0  0  0
 10 11  1  0  0  0  0
 11 12  2  0  0  0  0
 12 13  1  0  0  0  0
 13 14  2  0  0  0  0
 14 15  1  0  0  0  0
 15 16  2  0  0  0  0
 16 17  1  0  0  0  0
 17 18  2  0  0  0  0
 18 19  1  0  0  0  0
 19 20  2  0  0  0  0
 20 21  1  0  0  0  0
 21 22  1  0  0  0  0
 21 23  1  0  0  0  0
 21 24  1  0  0  0  0
 20 25  1  0  0  0  0
 25 26  2  0  0  0  0
 16 27  1  0  0  0  0
 27 28  1  0  0  0  0
 28 29  2  0  0  0  0
 29 30  1  0  0  0  0
 30 31  2  0  0  0  0
 31 32  1  0  0  0  0
 32 33  2  0  0  0  0
 14 34  1  0  0  0  0
 34 35  2  0  0  0  0
 35 36  1  0  0  0  0
 36 37  1  0  0  0  0
 37 38  2  0  0  0  0
 38 39  1  0  0  0  0
 39 40  2  0  0  0  0
 40 41  1  0  0  0  0
 41 42  2  0  0  0  0
  8 43  1  0  0  0  0
 43 44  2  0  0  0  0
 44  5  1  0  0  0  0
 36  9  1  0  0  0  0
 42 37  1  0  0  0  0
 35 11  1  0  0  0  0
 27 13  1  0  0  0  0
 33 28  1  0  0  0  0
 26 17  1  0  0  0  0
  1 45  1  0  0  0  0
  1 46  1  0  0  0  0
  1 47  1  0  0  0  0
  3 48  1  0  0  0  0
  3 49  1  0  0  0  0
  3 50  1  0  0  0  0
  4 51  1  0  0  0  0
  4 52  1  0  0  0  0
  4 53  1  0  0  0  0
  6 54  1  0  0  0  0
  7 55  1  0  0  0  0
 10 56  1  0  0  0  0
 12 57  1  0  0  0  0
 15 58  1  0  0  0  0
 18 59  1  0  0  0  0
 19 60  1  0  0  0  0
 22 61  1  0  0  0  0
 22 62  1  0  0  0  0
 22 63  1  0  0  0  0
 23 64  1  0  0  0  0
 23 65  1  0  0  0  0
 23 66  1  0  0  0  0
 24 67  1  0  0  0  0
 24 68  1  0  0  0  0
 24 69  1  0  0  0  0
 25 70  1  0  0  0  0
 26 71  1  0  0  0  0
 29 72  1  0  0  0  0
 30 73  1  0  0  0  0
 31 74  1  0  0  0  0
 32 75  1  0  0  0  0
 33 76  1  0  0  0  0
 34 77  1  0  0  0  0
 38 78  1  0  0  0  0
 39 79  1  0  0  0  0
 40 80  1  0  0  0  0
 41 81  1  0  0  0  0
 42 82  1  0  0  0  0
 43 83  1  0  0  0  0
 44 84  1  0  0  0  0
M  END
