
  xtb     03022212573D
 energy: -51.783797064080 gnorm: 0.000120106557 xtb: 6.4.1 (afa7bdf)
 29 30  0     0  0            999 V2000
   -4.0537   -1.4771    0.8526 C   0  0  0  0  0  0  0  0  0  0  0  0
   -2.9009   -0.7173    0.5338 O   0  0  0  0  0  0  0  0  0  0  0  0
   -2.0394   -1.3170   -0.3361 C   0  0  0  0  0  0  0  0  0  0  0  0
   -2.2499   -2.4202   -0.7958 O   0  0  0  0  0  0  0  0  0  0  0  0
   -0.8853   -0.5161   -0.6354 C   0  0  0  0  0  0  0  0  0  0  0  0
   -0.5409    0.7268   -0.1929 C   0  0  0  0  0  0  0  0  0  0  0  0
   -1.1565    1.6717    0.6866 C   0  0  0  0  0  0  0  0  0  0  0  0
   -0.5382    2.8592    0.8958 C   0  0  0  0  0  0  0  0  0  0  0  0
    0.7016    3.1228    0.2390 C   0  0  0  0  0  0  0  0  0  0  0  0
    1.2714    2.2613   -0.5440 N   0  0  0  0  0  0  0  0  0  0  0  0
    0.6648    1.1232   -0.7463 N   0  0  0  0  0  0  0  0  0  0  0  0
    1.2677    0.0671   -1.5327 C   0  0  0  0  0  0  0  0  0  0  0  0
    2.5143   -0.4932   -0.8437 C   0  0  0  0  0  0  0  0  0  0  0  0
    3.4160   -1.0317   -1.4225 O   0  0  0  0  0  0  0  0  0  0  0  0
    2.4398   -0.3463    0.4769 O   0  0  0  0  0  0  0  0  0  0  0  0
    3.5254   -0.8738    1.2292 C   0  0  0  0  0  0  0  0  0  0  0  0
    0.1723   -1.0196   -1.5964 C   0  0  0  0  0  0  0  0  0  0  0  0
   -4.6309   -0.8767    1.5519 H   0  0  0  0  0  0  0  0  0  0  0  0
   -4.6369   -1.6821   -0.0480 H   0  0  0  0  0  0  0  0  0  0  0  0
   -3.7705   -2.4288    1.3076 H   0  0  0  0  0  0  0  0  0  0  0  0
   -2.0891    1.4009    1.1519 H   0  0  0  0  0  0  0  0  0  0  0  0
   -0.9584    3.6073    1.5490 H   0  0  0  0  0  0  0  0  0  0  0  0
    1.2248    4.0557    0.3714 H   0  0  0  0  0  0  0  0  0  0  0  0
    1.5679    0.4359   -2.5173 H   0  0  0  0  0  0  0  0  0  0  0  0
    3.3065   -0.6553    2.2709 H   0  0  0  0  0  0  0  0  0  0  0  0
    3.6067   -1.9506    1.0705 H   0  0  0  0  0  0  0  0  0  0  0  0
    4.4602   -0.4004    0.9237 H   0  0  0  0  0  0  0  0  0  0  0  0
    0.5467   -1.9996   -1.2959 H   0  0  0  0  0  0  0  0  0  0  0  0
   -0.2356   -1.1262   -2.6034 H   0  0  0  0  0  0  0  0  0  0  0  0
  1  2  1  0  0  0  0
  2  3  1  0  0  0  0
  3  4  2  0  0  0  0
  3  5  1  0  0  0  0
  5  6  2  0  0  0  0
  6  7  1  0  0  0  0
  7  8  2  0  0  0  0
  8  9  1  0  0  0  0
  9 10  2  0  0  0  0
 10 11  1  0  0  0  0
 11 12  1  0  0  0  0
 12 13  1  0  0  0  0
 13 14  2  0  0  0  0
 13 15  1  0  0  0  0
 15 16  1  0  0  0  0
 12 17  1  0  0  0  0
 17  5  1  0  0  0  0
 11  6  1  0  0  0  0
  1 18  1  0  0  0  0
  1 19  1  0  0  0  0
  1 20  1  0  0  0  0
  7 21  1  0  0  0  0
  8 22  1  0  0  0  0
  9 23  1  0  0  0  0
 12 24  1  0  0  0  0
 16 25  1  0  0  0  0
 16 26  1  0  0  0  0
 16 27  1  0  0  0  0
 17 28  1  0  0  0  0
 17 29  1  0  0  0  0
M  END
