
  xtb     03022214103D
 energy: -128.746388764555 gnorm: 0.000308549810 xtb: 6.4.1 (afa7bdf)
 82 87  0     0  0            999 V2000
   -5.1954   -4.4967    1.4048 C   0  0  0  0  0  0  0  0  0  0  0  0
   -5.0450   -4.0080   -0.0381 C   0  0  0  0  0  0  0  0  0  0  0  0
   -4.2599   -2.7419   -0.0935 C   0  0  0  0  0  0  0  0  0  0  0  0
   -4.7073   -1.4599   -0.1221 C   0  0  0  0  0  0  0  0  0  0  0  0
   -6.1052   -0.9529   -0.1352 C   0  0  0  0  0  0  0  0  0  0  0  0
   -3.5161   -0.6140   -0.1307 C   0  0  0  0  0  0  0  0  0  0  0  0
   -3.5767    0.7770   -0.1412 C   0  0  0  0  0  0  0  0  0  0  0  0
   -2.5456    1.6984   -0.1406 C   0  0  0  0  0  0  0  0  0  0  0  0
   -1.2045    1.4582   -0.1139 N   0  0  0  0  0  0  0  0  0  0  0  0
   -0.5061    2.6261   -0.0909 C   0  0  0  0  0  0  0  0  0  0  0  0
    0.8839    2.7326   -0.0639 C   0  0  0  0  0  0  0  0  0  0  0  0
    1.7742    1.6797   -0.0873 C   0  0  0  0  0  0  0  0  0  0  0  0
    1.4342    0.3927   -0.1415 N   0  0  0  0  0  0  0  0  0  0  0  0
    2.5386   -0.3576   -0.2030 C   0  0  0  0  0  0  0  0  0  0  0  0
    2.5067   -1.7339   -0.1453 C   0  0  0  0  0  0  0  0  0  0  0  0
    1.3593   -2.5243   -0.0881 C   0  0  0  0  0  0  0  0  0  0  0  0
    0.0296   -2.3767   -0.0927 N   0  0  0  0  0  0  0  0  0  0  0  0
   -0.5589   -3.6185   -0.0411 C   0  0  0  0  0  0  0  0  0  0  0  0
   -1.9405   -3.7482   -0.0434 C   0  0  0  0  0  0  0  0  0  0  0  0
   -2.8057   -2.6601   -0.0815 C   0  0  0  0  0  0  0  0  0  0  0  0
   -2.4005   -1.3656   -0.1085 N   0  0  0  0  0  0  0  0  0  0  0  0
    0.4676   -4.6150    0.0026 C   0  0  0  0  0  0  0  0  0  0  0  0
    0.2695   -6.0835    0.0623 C   0  0  0  0  0  0  0  0  0  0  0  0
    1.6604   -3.9159   -0.0262 C   0  0  0  0  0  0  0  0  0  0  0  0
    3.1059   -4.0906   -0.0146 C   0  0  0  0  0  0  0  0  0  0  0  0
    3.7474   -5.1134    0.0406 O   0  0  0  0  0  0  0  0  0  0  0  0
    3.6906   -2.6720   -0.0787 C   0  0  0  0  0  0  0  0  0  0  0  0
    3.7994    0.4741   -0.3435 C   0  0  0  0  0  0  0  0  0  0  0  0
    4.3443    0.3750   -1.7751 C   0  0  0  0  0  0  0  0  0  0  0  0
    5.7497    0.9606   -1.8847 C   0  0  0  0  0  0  0  0  0  0  0  0
    6.7630    0.0724   -1.1967 C   0  0  0  0  0  0  0  0  0  0  0  0
    6.6443   -1.1103   -1.0178 O   0  0  0  0  0  0  0  0  0  0  0  0
    7.8366    0.7752   -0.8164 O   0  0  0  0  0  0  0  0  0  0  0  0
    8.8829    0.0386   -0.1959 C   0  0  0  0  0  0  0  0  0  0  0  0
    3.2809    1.8819   -0.0141 C   0  0  0  0  0  0  0  0  0  0  0  0
    3.6926    2.3480    1.3822 C   0  0  0  0  0  0  0  0  0  0  0  0
   -1.4465    3.6959   -0.0870 C   0  0  0  0  0  0  0  0  0  0  0  0
   -1.0882    5.1369   -0.1855 C   0  0  0  0  0  0  0  0  0  0  0  0
   -2.7099    3.1289   -0.1076 C   0  0  0  0  0  0  0  0  0  0  0  0
   -3.9909    3.7811   -0.1459 C   0  0  0  0  0  0  0  0  0  0  0  0
   -4.3923    4.8208    0.6048 C   0  0  0  0  0  0  0  0  0  0  0  0
   -3.6714    5.4532    1.7433 C   0  0  0  0  0  0  0  0  0  0  0  0
   -5.7091    5.3431    0.3667 N   0  0  0  0  0  4  0  0  0  0  0  0
   -6.3604    4.8793   -0.5523 O   0  0  0  0  0  0  0  0  0  0  0  0
   -6.1013    6.2321    1.0984 O   0  0  0  0  0  1  0  0  0  0  0  0
   -4.2195   -4.6667    1.8546 H   0  0  0  0  0  0  0  0  0  0  0  0
   -5.7191   -3.7525    2.0007 H   0  0  0  0  0  0  0  0  0  0  0  0
   -5.7603   -5.4258    1.4349 H   0  0  0  0  0  0  0  0  0  0  0  0
   -6.0359   -3.8439   -0.4669 H   0  0  0  0  0  0  0  0  0  0  0  0
   -4.5500   -4.7778   -0.6348 H   0  0  0  0  0  0  0  0  0  0  0  0
   -6.8122   -1.7782   -0.1635 H   0  0  0  0  0  0  0  0  0  0  0  0
   -6.3060   -0.3614    0.7586 H   0  0  0  0  0  0  0  0  0  0  0  0
   -6.2778   -0.3198   -1.0056 H   0  0  0  0  0  0  0  0  0  0  0  0
   -4.5719    1.1974   -0.1457 H   0  0  0  0  0  0  0  0  0  0  0  0
   -0.7545    0.5525   -0.1085 H   0  0  0  0  0  0  0  0  0  0  0  0
    1.2953    3.7297   -0.0229 H   0  0  0  0  0  0  0  0  0  0  0  0
   -0.5787   -1.5545   -0.1272 H   0  0  0  0  0  0  0  0  0  0  0  0
   -2.3600   -4.7414   -0.0135 H   0  0  0  0  0  0  0  0  0  0  0  0
    1.2340   -6.5831    0.0852 H   0  0  0  0  0  0  0  0  0  0  0  0
   -0.2950   -6.3573    0.9535 H   0  0  0  0  0  0  0  0  0  0  0  0
   -0.2903   -6.4287   -0.8068 H   0  0  0  0  0  0  0  0  0  0  0  0
    4.3692   -2.5853   -0.9288 H   0  0  0  0  0  0  0  0  0  0  0  0
    4.2986   -2.4922    0.8116 H   0  0  0  0  0  0  0  0  0  0  0  0
    4.5673    0.1350    0.3550 H   0  0  0  0  0  0  0  0  0  0  0  0
    3.6666    0.8961   -2.4546 H   0  0  0  0  0  0  0  0  0  0  0  0
    4.3856   -0.6715   -2.0788 H   0  0  0  0  0  0  0  0  0  0  0  0
    6.0453    1.0268   -2.9350 H   0  0  0  0  0  0  0  0  0  0  0  0
    5.8126    1.9612   -1.4565 H   0  0  0  0  0  0  0  0  0  0  0  0
    8.5227   -0.4318    0.7212 H   0  0  0  0  0  0  0  0  0  0  0  0
    9.2485   -0.7397   -0.8683 H   0  0  0  0  0  0  0  0  0  0  0  0
    9.6698    0.7547    0.0250 H   0  0  0  0  0  0  0  0  0  0  0  0
    3.6043    2.6232   -0.7496 H   0  0  0  0  0  0  0  0  0  0  0  0
    3.2402    3.3098    1.6140 H   0  0  0  0  0  0  0  0  0  0  0  0
    4.7743    2.4503    1.4439 H   0  0  0  0  0  0  0  0  0  0  0  0
    3.3676    1.6273    2.1304 H   0  0  0  0  0  0  0  0  0  0  0  0
   -1.9550    5.7243   -0.4727 H   0  0  0  0  0  0  0  0  0  0  0  0
   -0.3105    5.2763   -0.9347 H   0  0  0  0  0  0  0  0  0  0  0  0
   -0.7079    5.5143    0.7638 H   0  0  0  0  0  0  0  0  0  0  0  0
   -4.7148    3.3780   -0.8464 H   0  0  0  0  0  0  0  0  0  0  0  0
   -2.8092    4.8548    2.0180 H   0  0  0  0  0  0  0  0  0  0  0  0
   -4.3467    5.5332    2.5944 H   0  0  0  0  0  0  0  0  0  0  0  0
   -3.3505    6.4641    1.4952 H   0  0  0  0  0  0  0  0  0  0  0  0
  1  2  1  0  0  0  0
  2  3  1  0  0  0  0
  3  4  2  0  0  0  0
  4  5  1  0  0  0  0
  4  6  1  0  0  0  0
  6  7  2  0  0  0  0
  7  8  1  0  0  0  0
  8  9  1  0  0  0  0
  9 10  1  0  0  0  0
 10 11  1  0  0  0  0
 11 12  2  0  0  0  0
 12 13  1  0  0  0  0
 13 14  2  0  0  0  0
 14 15  1  0  0  0  0
 15 16  2  0  0  0  0
 16 17  1  0  0  0  0
 17 18  1  0  0  0  0
 18 19  2  0  0  0  0
 19 20  1  0  0  0  0
 20 21  2  0  0  0  0
 18 22  1  0  0  0  0
 22 23  1  0  0  0  0
 22 24  2  0  0  0  0
 24 25  1  0  0  0  0
 25 26  2  0  0  0  0
 25 27  1  0  0  0  0
 14 28  1  0  0  0  0
 28 29  1  0  0  0  0
 29 30  1  0  0  0  0
 30 31  1  0  0  0  0
 31 32  2  0  0  0  0
 31 33  1  0  0  0  0
 33 34  1  0  0  0  0
 28 35  1  0  0  0  0
 35 36  1  0  0  0  0
 10 37  2  0  0  0  0
 37 38  1  0  0  0  0
 37 39  1  0  0  0  0
 39 40  1  0  0  0  0
 40 41  2  0  0  0  0
 41 42  1  0  0  0  0
 41 43  1  0  0  0  0
 43 44  2  0  0  0  0
 43 45  1  0  0  0  0
 20  3  1  0  0  0  0
 21  6  1  0  0  0  0
 39  8  2  0  0  0  0
 35 12  1  0  0  0  0
 27 15  1  0  0  0  0
 24 16  1  0  0  0  0
  1 46  1  0  0  0  0
  1 47  1  0  0  0  0
  1 48  1  0  0  0  0
  2 49  1  0  0  0  0
  2 50  1  0  0  0  0
  5 51  1  0  0  0  0
  5 52  1  0  0  0  0
  5 53  1  0  0  0  0
  7 54  1  0  0  0  0
  9 55  1  0  0  0  0
 11 56  1  0  0  0  0
 17 57  1  0  0  0  0
 19 58  1  0  0  0  0
 23 59  1  0  0  0  0
 23 60  1  0  0  0  0
 23 61  1  0  0  0  0
 27 62  1  0  0  0  0
 27 63  1  0  0  0  0
 28 64  1  0  0  0  0
 29 65  1  0  0  0  0
 29 66  1  0  0  0  0
 30 67  1  0  0  0  0
 30 68  1  0  0  0  0
 34 69  1  0  0  0  0
 34 70  1  0  0  0  0
 34 71  1  0  0  0  0
 35 72  1  0  0  0  0
 36 73  1  0  0  0  0
 36 74  1  0  0  0  0
 36 75  1  0  0  0  0
 38 76  1  0  0  0  0
 38 77  1  0  0  0  0
 38 78  1  0  0  0  0
 40 79  1  0  0  0  0
 42 80  1  0  0  0  0
 42 81  1  0  0  0  0
 42 82  1  0  0  0  0
M  CHG  1  43   1
M  CHG  1  45  -1
M  END
