
  xtb     03022212003D
 energy: -81.287048649609 gnorm: 0.000352506265 xtb: 6.4.1 (afa7bdf)
 51 52  0     0  0            999 V2000
   -7.4574    1.3252    0.7696 C   0  0  0  0  0  0  0  0  0  0  0  0
   -6.1901    1.0181    0.2017 O   0  0  0  0  0  0  0  0  0  0  0  0
   -5.4991    0.0367    0.7903 C   0  0  0  0  0  0  0  0  0  0  0  0
   -5.8901   -0.5726    1.7495 O   0  0  0  0  0  0  0  0  0  0  0  0
   -4.1922   -0.2078    0.0677 C   0  0  0  0  0  0  0  0  0  0  0  0
   -3.1742   -0.8824    0.9798 C   0  0  0  0  0  0  0  0  0  0  0  0
   -1.9599   -1.4363    0.2052 C   0  0  0  0  0  0  0  0  0  0  0  0
   -0.8493   -1.6868    1.0937 N   0  0  0  0  0  0  0  0  0  0  0  0
    0.0606   -0.7413    1.3975 C   0  0  0  0  0  0  0  0  0  0  0  0
   -0.0159    0.3943    0.9643 O   0  0  0  0  0  0  0  0  0  0  0  0
    1.1950   -1.1989    2.2938 C   0  0  0  0  0  0  0  0  0  0  0  0
    2.5174   -1.1724    1.5153 C   0  0  0  0  0  0  0  0  0  0  0  0
    2.8195    0.1821    1.1334 N   0  0  0  0  0  0  0  0  0  0  0  0
    3.9392    0.5282    0.4209 C   0  0  0  0  0  0  0  0  0  0  0  0
    4.9942   -0.3501    0.2520 C   0  0  0  0  0  0  0  0  0  0  0  0
    6.1594    0.0336   -0.4156 C   0  0  0  0  0  0  0  0  0  0  0  0
    6.2907    1.2924   -0.9299 C   0  0  0  0  0  0  0  0  0  0  0  0
    5.2419    2.2240   -0.7901 C   0  0  0  0  0  0  0  0  0  0  0  0
    5.3570    3.5282   -1.3155 C   0  0  0  0  0  0  0  0  0  0  0  0
    4.3458    4.4367   -1.1834 C   0  0  0  0  0  0  0  0  0  0  0  0
    3.1685    4.0743   -0.5170 C   0  0  0  0  0  0  0  0  0  0  0  0
    3.0257    2.8169    0.0050 C   0  0  0  0  0  0  0  0  0  0  0  0
    4.0494    1.8544   -0.1114 C   0  0  0  0  0  0  0  0  0  0  0  0
   -2.3203   -2.7590   -0.4539 C   0  0  0  0  0  0  0  0  0  0  0  0
   -1.9565   -3.8269   -0.0332 O   0  0  0  0  0  0  0  0  0  0  0  0
   -3.0944   -2.5974   -1.5214 O   0  0  0  0  0  0  0  0  0  0  0  0
   -3.5284   -3.7884   -2.1731 C   0  0  0  0  0  0  0  0  0  0  0  0
   -7.3390    1.6456    1.8067 H   0  0  0  0  0  0  0  0  0  0  0  0
   -7.8738    2.1276    0.1662 H   0  0  0  0  0  0  0  0  0  0  0  0
   -8.1068    0.4478    0.7449 H   0  0  0  0  0  0  0  0  0  0  0  0
   -4.4148   -0.8488   -0.7891 H   0  0  0  0  0  0  0  0  0  0  0  0
   -3.8162    0.7405   -0.3160 H   0  0  0  0  0  0  0  0  0  0  0  0
   -2.7972   -0.1556    1.7010 H   0  0  0  0  0  0  0  0  0  0  0  0
   -3.6597   -1.6866    1.5370 H   0  0  0  0  0  0  0  0  0  0  0  0
   -1.6505   -0.7008   -0.5458 H   0  0  0  0  0  0  0  0  0  0  0  0
   -0.7615   -2.6401    1.4174 H   0  0  0  0  0  0  0  0  0  0  0  0
    1.0106   -2.2014    2.6774 H   0  0  0  0  0  0  0  0  0  0  0  0
    1.2740   -0.5018    3.1298 H   0  0  0  0  0  0  0  0  0  0  0  0
    3.3150   -1.5530    2.1635 H   0  0  0  0  0  0  0  0  0  0  0  0
    2.4414   -1.8410    0.6405 H   0  0  0  0  0  0  0  0  0  0  0  0
    1.9891    0.7316    0.9529 H   0  0  0  0  0  0  0  0  0  0  0  0
    4.9300   -1.3552    0.6387 H   0  0  0  0  0  0  0  0  0  0  0  0
    6.9586   -0.6862   -0.5231 H   0  0  0  0  0  0  0  0  0  0  0  0
    7.1906    1.5908   -1.4471 H   0  0  0  0  0  0  0  0  0  0  0  0
    6.2708    3.7946   -1.8283 H   0  0  0  0  0  0  0  0  0  0  0  0
    4.4457    5.4332   -1.5895 H   0  0  0  0  0  0  0  0  0  0  0  0
    2.3700    4.7951   -0.4159 H   0  0  0  0  0  0  0  0  0  0  0  0
    2.1047    2.5736    0.5138 H   0  0  0  0  0  0  0  0  0  0  0  0
   -4.1861   -4.3588   -1.5149 H   0  0  0  0  0  0  0  0  0  0  0  0
   -4.0617   -3.4692   -3.0644 H   0  0  0  0  0  0  0  0  0  0  0  0
   -2.6698   -4.4074   -2.4378 H   0  0  0  0  0  0  0  0  0  0  0  0
  1  2  1  0  0  0  0
  2  3  1  0  0  0  0
  3  4  2  0  0  0  0
  3  5  1  0  0  0  0
  5  6  1  0  0  0  0
  6  7  1  0  0  0  0
  7  8  1  0  0  0  0
  8  9  1  0  0  0  0
  9 10  2  0  0  0  0
  9 11  1  0  0  0  0
 11 12  1  0  0  0  0
 12 13  1  0  0  0  0
 13 14  1  0  0  0  0
 14 15  2  0  0  0  0
 15 16  1  0  0  0  0
 16 17  2  0  0  0  0
 17 18  1  0  0  0  0
 18 19  2  0  0  0  0
 19 20  1  0  0  0  0
 20 21  2  0  0  0  0
 21 22  1  0  0  0  0
 22 23  2  0  0  0  0
  7 24  1  0  0  0  0
 24 25  2  0  0  0  0
 24 26  1  0  0  0  0
 26 27  1  0  0  0  0
 23 14  1  0  0  0  0
 23 18  1  0  0  0  0
  1 28  1  0  0  0  0
  1 29  1  0  0  0  0
  1 30  1  0  0  0  0
  5 31  1  0  0  0  0
  5 32  1  0  0  0  0
  6 33  1  0  0  0  0
  6 34  1  0  0  0  0
  7 35  1  0  0  0  0
  8 36  1  0  0  0  0
 11 37  1  0  0  0  0
 11 38  1  0  0  0  0
 12 39  1  0  0  0  0
 12 40  1  0  0  0  0
 13 41  1  0  0  0  0
 15 42  1  0  0  0  0
 16 43  1  0  0  0  0
 17 44  1  0  0  0  0
 19 45  1  0  0  0  0
 20 46  1  0  0  0  0
 21 47  1  0  0  0  0
 22 48  1  0  0  0  0
 27 49  1  0  0  0  0
 27 50  1  0  0  0  0
 27 51  1  0  0  0  0
M  END
