
  xtb     03022212283D
 energy: -65.537777655577 gnorm: 0.000139265792 xtb: 6.4.1 (afa7bdf)
 42 44  0     0  0            999 V2000
    4.0664   -1.1372    1.6946 O   0  0  0  0  0  0  0  0  0  0  0  0
    4.4079   -1.2653    0.5500 C   0  0  0  0  0  0  0  0  0  0  0  0
    5.6613   -1.0354    0.1416 O   0  0  0  0  0  0  0  0  0  0  0  0
    3.5129   -1.6865   -0.5877 C   0  0  0  0  0  0  0  0  0  0  0  0
    3.2532   -0.5186   -1.5483 C   0  0  0  0  0  0  0  0  0  0  0  0
    2.7258    0.7424   -0.8592 C   0  0  0  0  0  0  0  0  0  0  0  0
    1.4507    0.5452   -0.0392 C   0  0  0  0  0  0  0  0  0  0  0  0
    0.2783    0.0289   -0.8825 C   0  0  0  0  0  0  0  0  0  0  0  0
   -1.0017    0.1774   -0.2160 N   0  0  0  0  0  0  0  0  0  0  0  0
   -1.7256    1.3398   -0.3843 C   0  0  0  0  0  0  0  0  0  0  0  0
   -1.1666    2.4812   -0.9801 C   0  0  0  0  0  0  0  0  0  0  0  0
   -1.9097    3.6274   -1.1567 C   0  0  0  0  0  0  0  0  0  0  0  0
   -3.2372    3.6913   -0.7491 C   0  0  0  0  0  0  0  0  0  0  0  0
   -3.7994    2.5886   -0.1527 C   0  0  0  0  0  0  0  0  0  0  0  0
   -3.0651    1.4163    0.0396 C   0  0  0  0  0  0  0  0  0  0  0  0
   -3.7249    0.2814    0.6892 C   0  0  0  0  0  0  0  0  0  0  0  0
   -4.9164    0.2763    0.9648 O   0  0  0  0  0  0  0  0  0  0  0  0
   -2.8315   -0.8357    1.0023 C   0  0  0  0  0  0  0  0  0  0  0  0
   -3.3338   -1.8945    1.7623 C   0  0  0  0  0  0  0  0  0  0  0  0
   -2.5418   -2.9636    2.1047 C   0  0  0  0  0  0  0  0  0  0  0  0
   -1.2143   -2.9726    1.6918 C   0  0  0  0  0  0  0  0  0  0  0  0
   -0.6993   -1.9416    0.9379 C   0  0  0  0  0  0  0  0  0  0  0  0
   -1.4958   -0.8503    0.5608 C   0  0  0  0  0  0  0  0  0  0  0  0
    6.2171   -0.7574    0.8865 H   0  0  0  0  0  0  0  0  0  0  0  0
    2.5817   -2.0637   -0.1678 H   0  0  0  0  0  0  0  0  0  0  0  0
    4.0079   -2.4902   -1.1342 H   0  0  0  0  0  0  0  0  0  0  0  0
    2.5477   -0.8492   -2.3122 H   0  0  0  0  0  0  0  0  0  0  0  0
    4.1907   -0.2677   -2.0479 H   0  0  0  0  0  0  0  0  0  0  0  0
    3.4979    1.1339   -0.1936 H   0  0  0  0  0  0  0  0  0  0  0  0
    2.5456    1.4973   -1.6291 H   0  0  0  0  0  0  0  0  0  0  0  0
    1.6474   -0.1306    0.7931 H   0  0  0  0  0  0  0  0  0  0  0  0
    1.1696    1.5066    0.3958 H   0  0  0  0  0  0  0  0  0  0  0  0
    0.2341    0.5737   -1.8292 H   0  0  0  0  0  0  0  0  0  0  0  0
    0.4113   -1.0254   -1.1317 H   0  0  0  0  0  0  0  0  0  0  0  0
   -0.1361    2.4954   -1.2940 H   0  0  0  0  0  0  0  0  0  0  0  0
   -1.4452    4.4890   -1.6139 H   0  0  0  0  0  0  0  0  0  0  0  0
   -3.8097    4.5941   -0.8945 H   0  0  0  0  0  0  0  0  0  0  0  0
   -4.8240    2.5879    0.1881 H   0  0  0  0  0  0  0  0  0  0  0  0
   -4.3674   -1.8324    2.0685 H   0  0  0  0  0  0  0  0  0  0  0  0
   -2.9359   -3.7785    2.6918 H   0  0  0  0  0  0  0  0  0  0  0  0
   -0.5691   -3.7932    1.9700 H   0  0  0  0  0  0  0  0  0  0  0  0
    0.3431   -1.9847    0.6705 H   0  0  0  0  0  0  0  0  0  0  0  0
  1  2  2  0  0  0  0
  2  3  1  0  0  0  0
  2  4  1  0  0  0  0
  4  5  1  0  0  0  0
  5  6  1  0  0  0  0
  6  7  1  0  0  0  0
  7  8  1  0  0  0  0
  8  9  1  0  0  0  0
  9 10  1  0  0  0  0
 10 11  2  0  0  0  0
 11 12  1  0  0  0  0
 12 13  2  0  0  0  0
 13 14  1  0  0  0  0
 14 15  2  0  0  0  0
 15 16  1  0  0  0  0
 16 17  2  0  0  0  0
 16 18  1  0  0  0  0
 18 19  2  0  0  0  0
 19 20  1  0  0  0  0
 20 21  2  0  0  0  0
 21 22  1  0  0  0  0
 22 23  2  0  0  0  0
 23  9  1  0  0  0  0
 15 10  1  0  0  0  0
 23 18  1  0  0  0  0
  3 24  1  0  0  0  0
  4 25  1  0  0  0  0
  4 26  1  0  0  0  0
  5 27  1  0  0  0  0
  5 28  1  0  0  0  0
  6 29  1  0  0  0  0
  6 30  1  0  0  0  0
  7 31  1  0  0  0  0
  7 32  1  0  0  0  0
  8 33  1  0  0  0  0
  8 34  1  0  0  0  0
 11 35  1  0  0  0  0
 12 36  1  0  0  0  0
 13 37  1  0  0  0  0
 14 38  1  0  0  0  0
 19 39  1  0  0  0  0
 20 40  1  0  0  0  0
 21 41  1  0  0  0  0
 22 42  1  0  0  0  0
M  END
