
  xtb     03022212073D
 energy: -75.446583721514 gnorm: 0.000081359538 xtb: 6.4.1 (afa7bdf)
 46 50  0     0  0            999 V2000
   -0.8747   -3.3000   -1.7117 C   0  0  0  0  0  0  0  0  0  0  0  0
   -1.2894   -2.1158   -1.0166 N   0  0  0  0  0  0  0  0  0  0  0  0
   -0.6189   -0.9364   -0.9832 C   0  0  0  0  0  0  0  0  0  0  0  0
   -1.3068   -0.0069   -0.2362 C   0  0  0  0  0  0  0  0  0  0  0  0
   -0.9470    1.3633    0.0394 C   0  0  0  0  0  0  0  0  0  0  0  0
   -1.9169    2.2040    0.3218 N   0  0  0  0  0  0  0  0  0  0  0  0
   -1.6162    3.4990    0.5310 C   0  0  0  0  0  0  0  0  0  0  0  0
   -2.6384    4.4190    0.8335 C   0  0  0  0  0  0  0  0  0  0  0  0
   -2.3331    5.7422    0.9969 C   0  0  0  0  0  0  0  0  0  0  0  0
   -1.0100    6.1992    0.8695 C   0  0  0  0  0  0  0  0  0  0  0  0
    0.0073    5.3292    0.5891 C   0  0  0  0  0  0  0  0  0  0  0  0
   -0.2736    3.9594    0.4241 C   0  0  0  0  0  0  0  0  0  0  0  0
    0.7281    3.0873    0.2070 N   0  0  0  0  0  0  0  0  0  0  0  0
    0.4217    1.8215    0.0388 C   0  0  0  0  0  0  0  0  0  0  0  0
    1.4840    0.9027   -0.0767 C   0  0  0  0  0  0  0  0  0  0  0  0
    2.4022    0.1172   -0.1322 C   0  0  0  0  0  0  0  0  0  0  0  0
    3.3976   -0.8736   -0.2248 C   0  0  0  0  0  0  0  0  0  0  0  0
    3.0498   -2.2172   -0.0389 C   0  0  0  0  0  0  0  0  0  0  0  0
    4.0081   -3.2011   -0.1357 C   0  0  0  0  0  0  0  0  0  0  0  0
    5.3320   -2.8562   -0.4211 C   0  0  0  0  0  0  0  0  0  0  0  0
    6.3139   -3.8664   -0.5244 C   0  0  0  0  0  0  0  0  0  0  0  0
    7.1076   -4.6896   -0.6106 N   0  0  0  0  0  0  0  0  0  0  0  0
    5.6846   -1.5166   -0.6049 C   0  0  0  0  0  0  0  0  0  0  0  0
    4.7244   -0.5337   -0.5067 C   0  0  0  0  0  0  0  0  0  0  0  0
   -2.5003   -0.6662    0.2148 C   0  0  0  0  0  0  0  0  0  0  0  0
   -3.5795   -0.2733    1.0016 C   0  0  0  0  0  0  0  0  0  0  0  0
   -4.5688   -1.1957    1.2623 C   0  0  0  0  0  0  0  0  0  0  0  0
   -4.5023   -2.4979    0.7605 C   0  0  0  0  0  0  0  0  0  0  0  0
   -3.4419   -2.9139   -0.0163 C   0  0  0  0  0  0  0  0  0  0  0  0
   -2.4425   -1.9869   -0.2845 C   0  0  0  0  0  0  0  0  0  0  0  0
   -1.6166   -3.5845   -2.4620 H   0  0  0  0  0  0  0  0  0  0  0  0
    0.0761   -3.1142   -2.2087 H   0  0  0  0  0  0  0  0  0  0  0  0
   -0.7534   -4.1316   -1.0127 H   0  0  0  0  0  0  0  0  0  0  0  0
    0.2958   -0.8187   -1.5319 H   0  0  0  0  0  0  0  0  0  0  0  0
   -3.6496    4.0517    0.9172 H   0  0  0  0  0  0  0  0  0  0  0  0
   -3.1144    6.4531    1.2234 H   0  0  0  0  0  0  0  0  0  0  0  0
   -0.8026    7.2513    0.9992 H   0  0  0  0  0  0  0  0  0  0  0  0
    1.0308    5.6568    0.4927 H   0  0  0  0  0  0  0  0  0  0  0  0
    2.0240   -2.4701    0.1874 H   0  0  0  0  0  0  0  0  0  0  0  0
    3.7477   -4.2398    0.0076 H   0  0  0  0  0  0  0  0  0  0  0  0
    6.7114   -1.2621   -0.8229 H   0  0  0  0  0  0  0  0  0  0  0  0
    4.9854    0.5044   -0.6474 H   0  0  0  0  0  0  0  0  0  0  0  0
   -3.6276    0.7343    1.3814 H   0  0  0  0  0  0  0  0  0  0  0  0
   -5.4180   -0.9131    1.8668 H   0  0  0  0  0  0  0  0  0  0  0  0
   -5.2982   -3.1917    0.9876 H   0  0  0  0  0  0  0  0  0  0  0  0
   -3.3919   -3.9220   -0.3998 H   0  0  0  0  0  0  0  0  0  0  0  0
  1  2  1  0  0  0  0
  2  3  1  0  0  0  0
  3  4  2  0  0  0  0
  4  5  1  0  0  0  0
  5  6  2  0  0  0  0
  6  7  1  0  0  0  0
  7  8  2  0  0  0  0
  8  9  1  0  0  0  0
  9 10  2  0  0  0  0
 10 11  1  0  0  0  0
 11 12  2  0  0  0  0
 12 13  1  0  0  0  0
 13 14  2  0  0  0  0
 14 15  1  0  0  0  0
 15 16  3  0  0  0  0
 16 17  1  0  0  0  0
 17 18  2  0  0  0  0
 18 19  1  0  0  0  0
 19 20  2  0  0  0  0
 20 21  1  0  0  0  0
 21 22  3  0  0  0  0
 20 23  1  0  0  0  0
 23 24  2  0  0  0  0
  4 25  1  0  0  0  0
 25 26  2  0  0  0  0
 26 27  1  0  0  0  0
 27 28  2  0  0  0  0
 28 29  1  0  0  0  0
 29 30  2  0  0  0  0
 30  2  1  0  0  0  0
 14  5  1  0  0  0  0
 24 17  1  0  0  0  0
 30 25  1  0  0  0  0
 12  7  1  0  0  0  0
  1 31  1  0  0  0  0
  1 32  1  0  0  0  0
  1 33  1  0  0  0  0
  3 34  1  0  0  0  0
  8 35  1  0  0  0  0
  9 36  1  0  0  0  0
 10 37  1  0  0  0  0
 11 38  1  0  0  0  0
 18 39  1  0  0  0  0
 19 40  1  0  0  0  0
 23 41  1  0  0  0  0
 24 42  1  0  0  0  0
 26 43  1  0  0  0  0
 27 44  1  0  0  0  0
 28 45  1  0  0  0  0
 29 46  1  0  0  0  0
M  END
