
  xtb     03022214133D
 energy: -111.692604861407 gnorm: 0.000099852603 xtb: 6.4.1 (afa7bdf)
 64 67  0     0  0            999 V2000
   -4.9482    3.0943    4.5601 C   0  0  0  0  0  0  0  0  0  0  0  0
   -4.5288    2.7227    3.2512 O   0  0  0  0  0  0  0  0  0  0  0  0
   -5.0865    1.6298    2.7423 C   0  0  0  0  0  0  0  0  0  0  0  0
   -5.9164    0.9615    3.3008 O   0  0  0  0  0  0  0  0  0  0  0  0
   -4.5040    1.3002    1.3758 C   0  0  0  0  0  0  0  0  0  0  0  0
   -5.3854    0.3838    0.6965 N   0  0  0  0  0  0  0  0  0  0  0  0
   -5.4282    0.3098   -0.6574 C   0  0  0  0  0  0  0  0  0  0  0  0
   -4.7712    1.0162   -1.3826 O   0  0  0  0  0  0  0  0  0  0  0  0
   -6.2983   -0.6423   -1.0261 O   0  0  0  0  0  0  0  0  0  0  0  0
   -6.5215   -0.9236   -2.4302 C   0  0  0  0  0  0  0  0  0  0  0  0
   -7.0810    0.3110   -3.1361 C   0  0  0  0  0  0  0  0  0  0  0  0
   -7.5547   -2.0508   -2.4218 C   0  0  0  0  0  0  0  0  0  0  0  0
   -5.2236   -1.3907   -3.0885 C   0  0  0  0  0  0  0  0  0  0  0  0
   -3.1249    0.6946    1.5770 C   0  0  0  0  0  0  0  0  0  0  0  0
   -3.0029   -0.4383    2.3905 C   0  0  0  0  0  0  0  0  0  0  0  0
   -1.7898   -1.0712    2.5891 C   0  0  0  0  0  0  0  0  0  0  0  0
   -0.7025   -0.5269    1.9370 C   0  0  0  0  0  0  0  0  0  0  0  0
    0.5978   -0.9238    1.9228 O   0  0  0  0  0  0  0  0  0  0  0  0
    1.2241   -0.0206    1.0937 C   0  0  0  0  0  0  0  0  0  0  0  0
    2.6357   -0.1329    0.8106 C   0  0  0  0  0  0  0  0  0  0  0  0
    3.1931    0.7915   -0.0799 C   0  0  0  0  0  0  0  0  0  0  0  0
    4.5241    0.7523   -0.4241 C   0  0  0  0  0  0  0  0  0  0  0  0
    5.3316   -0.2405    0.1262 C   0  0  0  0  0  0  0  0  0  0  0  0
    6.6844   -0.3459   -0.1239 O   0  0  0  0  0  0  0  0  0  0  0  0
    7.2029   -0.1052   -1.3495 C   0  0  0  0  0  0  0  0  0  0  0  0
    6.5484    0.1762   -2.3201 O   0  0  0  0  0  0  0  0  0  0  0  0
    8.6761   -0.2609   -1.3530 C   0  0  0  0  0  0  0  0  0  0  0  0
    9.3445   -0.1140   -2.5672 C   0  0  0  0  0  0  0  0  0  0  0  0
   10.7177   -0.2521   -2.6233 C   0  0  0  0  0  0  0  0  0  0  0  0
   11.4317   -0.5362   -1.4696 C   0  0  0  0  0  0  0  0  0  0  0  0
   10.7711   -0.6812   -0.2596 C   0  0  0  0  0  0  0  0  0  0  0  0
    9.3969   -0.5452   -0.1957 C   0  0  0  0  0  0  0  0  0  0  0  0
    4.8071   -1.1593    1.0201 C   0  0  0  0  0  0  0  0  0  0  0  0
    3.4627   -1.1218    1.3741 C   0  0  0  0  0  0  0  0  0  0  0  0
    3.0349   -2.0533    2.2478 O   0  0  0  0  0  0  0  0  0  0  0  0
    0.4390    0.8878    0.6105 N   0  0  0  0  0  0  0  0  0  0  0  0
   -0.8052    0.6127    1.1132 C   0  0  0  0  0  0  0  0  0  0  0  0
   -2.0312    1.2373    0.9283 C   0  0  0  0  0  0  0  0  0  0  0  0
   -4.6499    2.3320    5.2822 H   0  0  0  0  0  0  0  0  0  0  0  0
   -6.0336    3.2056    4.5919 H   0  0  0  0  0  0  0  0  0  0  0  0
   -4.4581    4.0391    4.7780 H   0  0  0  0  0  0  0  0  0  0  0  0
   -4.4116    2.2103    0.7742 H   0  0  0  0  0  0  0  0  0  0  0  0
   -5.9719   -0.2146    1.2577 H   0  0  0  0  0  0  0  0  0  0  0  0
   -7.3271    0.0643   -4.1651 H   0  0  0  0  0  0  0  0  0  0  0  0
   -6.3456    1.1104   -3.1296 H   0  0  0  0  0  0  0  0  0  0  0  0
   -7.9805    0.6549   -2.6299 H   0  0  0  0  0  0  0  0  0  0  0  0
   -7.1602   -2.9136   -1.8918 H   0  0  0  0  0  0  0  0  0  0  0  0
   -8.4604   -1.7218   -1.9193 H   0  0  0  0  0  0  0  0  0  0  0  0
   -7.7974   -2.3393   -3.4401 H   0  0  0  0  0  0  0  0  0  0  0  0
   -4.8188   -2.2458   -2.5512 H   0  0  0  0  0  0  0  0  0  0  0  0
   -5.4184   -1.6799   -4.1174 H   0  0  0  0  0  0  0  0  0  0  0  0
   -4.4893   -0.5902   -3.0783 H   0  0  0  0  0  0  0  0  0  0  0  0
   -3.8846   -0.8294    2.8753 H   0  0  0  0  0  0  0  0  0  0  0  0
   -1.6982   -1.9445    3.2145 H   0  0  0  0  0  0  0  0  0  0  0  0
    2.5382    1.5414   -0.4926 H   0  0  0  0  0  0  0  0  0  0  0  0
    4.9322    1.4697   -1.1155 H   0  0  0  0  0  0  0  0  0  0  0  0
    8.7661    0.1065   -3.4516 H   0  0  0  0  0  0  0  0  0  0  0  0
   11.2338   -0.1390   -3.5649 H   0  0  0  0  0  0  0  0  0  0  0  0
   12.5054   -0.6448   -1.5130 H   0  0  0  0  0  0  0  0  0  0  0  0
   11.3312   -0.9017    0.6370 H   0  0  0  0  0  0  0  0  0  0  0  0
    8.8782   -0.6566    0.7435 H   0  0  0  0  0  0  0  0  0  0  0  0
    5.4373   -1.9208    1.4498 H   0  0  0  0  0  0  0  0  0  0  0  0
    2.0849   -1.9536    2.4100 H   0  0  0  0  0  0  0  0  0  0  0  0
   -2.1206    2.0974    0.2868 H   0  0  0  0  0  0  0  0  0  0  0  0
  1  2  1  0  0  0  0
  2  3  1  0  0  0  0
  3  4  2  0  0  0  0
  3  5  1  0  0  0  0
  5  6  1  0  0  0  0
  6  7  1  0  0  0  0
  7  8  2  0  0  0  0
  7  9  1  0  0  0  0
  9 10  1  0  0  0  0
 10 11  1  0  0  0  0
 10 12  1  0  0  0  0
 10 13  1  0  0  0  0
  5 14  1  0  0  0  0
 14 15  2  0  0  0  0
 15 16  1  0  0  0  0
 16 17  2  0  0  0  0
 17 18  1  0  0  0  0
 18 19  1  0  0  0  0
 19 20  1  0  0  0  0
 20 21  2  0  0  0  0
 21 22  1  0  0  0  0
 22 23  2  0  0  0  0
 23 24  1  0  0  0  0
 24 25  1  0  0  0  0
 25 26  2  0  0  0  0
 25 27  1  0  0  0  0
 27 28  2  0  0  0  0
 28 29  1  0  0  0  0
 29 30  2  0  0  0  0
 30 31  1  0  0  0  0
 31 32  2  0  0  0  0
 23 33  1  0  0  0  0
 33 34  2  0  0  0  0
 34 35  1  0  0  0  0
 19 36  2  0  0  0  0
 36 37  1  0  0  0  0
 37 38  2  0  0  0  0
 38 14  1  0  0  0  0
 37 17  1  0  0  0  0
 34 20  1  0  0  0  0
 32 27  1  0  0  0  0
  1 39  1  0  0  0  0
  1 40  1  0  0  0  0
  1 41  1  0  0  0  0
  5 42  1  0  0  0  0
  6 43  1  0  0  0  0
 11 44  1  0  0  0  0
 11 45  1  0  0  0  0
 11 46  1  0  0  0  0
 12 47  1  0  0  0  0
 12 48  1  0  0  0  0
 12 49  1  0  0  0  0
 13 50  1  0  0  0  0
 13 51  1  0  0  0  0
 13 52  1  0  0  0  0
 15 53  1  0  0  0  0
 16 54  1  0  0  0  0
 21 55  1  0  0  0  0
 22 56  1  0  0  0  0
 28 57  1  0  0  0  0
 29 58  1  0  0  0  0
 30 59  1  0  0  0  0
 31 60  1  0  0  0  0
 32 61  1  0  0  0  0
 33 62  1  0  0  0  0
 35 63  1  0  0  0  0
 38 64  1  0  0  0  0
M  END
