
  xtb     03022214593D
 energy: -57.243959276461 gnorm: 0.000205161037 xtb: 6.4.1 (afa7bdf)
 36 38  0     0  0            999 V2000
   -4.9868    0.4223    0.0936 C   0  0  0  0  0  0  0  0  0  0  0  0
   -3.6875   -0.3179    0.0362 C   0  0  0  0  0  0  0  0  0  0  0  0
   -3.5635   -1.5626    0.6416 C   0  0  0  0  0  0  0  0  0  0  0  0
   -2.3741   -2.2587    0.6045 C   0  0  0  0  0  0  0  0  0  0  0  0
   -1.2668   -1.7085   -0.0367 C   0  0  0  0  0  0  0  0  0  0  0  0
   -0.0046   -2.4697   -0.0451 C   0  0  0  0  0  0  0  0  0  0  0  0
    0.0620   -3.6537    0.2106 O   0  0  0  0  0  0  0  0  0  0  0  0
    1.2279   -1.7200   -0.4228 C   0  0  0  0  0  0  0  0  0  0  0  0
    1.7497   -0.7155    0.2903 C   0  0  0  0  0  0  0  0  0  0  0  0
    1.1667   -0.1621    1.5553 C   0  0  0  0  0  0  0  0  0  0  0  0
    0.1748   -0.5061    2.1527 O   0  0  0  0  0  0  0  0  0  0  0  0
    2.0084    0.8522    1.9418 N   0  0  0  0  0  0  0  0  0  0  0  0
    3.0793    0.9954    1.0762 C   0  0  0  0  0  0  0  0  0  0  0  0
    4.1327    1.8843    1.1251 C   0  0  0  0  0  0  0  0  0  0  0  0
    5.0842    1.8121    0.1150 C   0  0  0  0  0  0  0  0  0  0  0  0
    4.9807    0.8813   -0.9072 C   0  0  0  0  0  0  0  0  0  0  0  0
    3.9189   -0.0115   -0.9538 C   0  0  0  0  0  0  0  0  0  0  0  0
    2.9636    0.0470    0.0437 C   0  0  0  0  0  0  0  0  0  0  0  0
   -1.3897   -0.4655   -0.6542 C   0  0  0  0  0  0  0  0  0  0  0  0
   -2.5838    0.2335   -0.6265 C   0  0  0  0  0  0  0  0  0  0  0  0
   -2.6895    1.5697   -1.2968 C   0  0  0  0  0  0  0  0  0  0  0  0
   -5.3583    0.6256   -0.9105 H   0  0  0  0  0  0  0  0  0  0  0  0
   -5.7357   -0.1535    0.6308 H   0  0  0  0  0  0  0  0  0  0  0  0
   -4.8584    1.3799    0.5974 H   0  0  0  0  0  0  0  0  0  0  0  0
   -4.4157   -1.9880    1.1524 H   0  0  0  0  0  0  0  0  0  0  0  0
   -2.2736   -3.2224    1.0791 H   0  0  0  0  0  0  0  0  0  0  0  0
    1.7525   -2.1002   -1.2907 H   0  0  0  0  0  0  0  0  0  0  0  0
    1.8713    1.3953    2.7790 H   0  0  0  0  0  0  0  0  0  0  0  0
    4.2180    2.6101    1.9192 H   0  0  0  0  0  0  0  0  0  0  0  0
    5.9204    2.4948    0.1300 H   0  0  0  0  0  0  0  0  0  0  0  0
    5.7377    0.8494   -1.6758 H   0  0  0  0  0  0  0  0  0  0  0  0
    3.8442   -0.7367   -1.7495 H   0  0  0  0  0  0  0  0  0  0  0  0
   -0.5412   -0.0394   -1.1720 H   0  0  0  0  0  0  0  0  0  0  0  0
   -2.9560    2.3402   -0.5740 H   0  0  0  0  0  0  0  0  0  0  0  0
   -1.7456    1.8436   -1.7613 H   0  0  0  0  0  0  0  0  0  0  0  0
   -3.4624    1.5550   -2.0648 H   0  0  0  0  0  0  0  0  0  0  0  0
  1  2  1  0  0  0  0
  2  3  2  0  0  0  0
  3  4  1  0  0  0  0
  4  5  2  0  0  0  0
  5  6  1  0  0  0  0
  6  7  2  0  0  0  0
  6  8  1  0  0  0  0
  8  9  2  0  0  0  0
  9 10  1  0  0  0  0
 10 11  2  0  0  0  0
 10 12  1  0  0  0  0
 12 13  1  0  0  0  0
 13 14  2  0  0  0  0
 14 15  1  0  0  0  0
 15 16  2  0  0  0  0
 16 17  1  0  0  0  0
 17 18  2  0  0  0  0
  5 19  1  0  0  0  0
 19 20  2  0  0  0  0
 20 21  1  0  0  0  0
 20  2  1  0  0  0  0
 18  9  1  0  0  0  0
 18 13  1  0  0  0  0
  1 22  1  0  0  0  0
  1 23  1  0  0  0  0
  1 24  1  0  0  0  0
  3 25  1  0  0  0  0
  4 26  1  0  0  0  0
  8 27  1  0  0  0  0
 12 28  1  0  0  0  0
 14 29  1  0  0  0  0
 15 30  1  0  0  0  0
 16 31  1  0  0  0  0
 17 32  1  0  0  0  0
 19 33  1  0  0  0  0
 21 34  1  0  0  0  0
 21 35  1  0  0  0  0
 21 36  1  0  0  0  0
M  END
