
  xtb     03022213133D
 energy: -56.374362138807 gnorm: 0.000246694205 xtb: 6.4.1 (afa7bdf)
 36 37  0     0  0            999 V2000
    6.3659    1.2250    2.0501 C   0  0  0  0  0  0  0  0  0  0  0  0
    5.4151    0.7332    1.0186 C   0  0  0  0  0  0  0  0  0  0  0  0
    4.0846    0.7395    1.1473 C   0  0  0  0  0  0  0  0  0  0  0  0
    3.1861    0.2605    0.1362 C   0  0  0  0  0  0  0  0  0  0  0  0
    1.8486    0.2777    0.2923 C   0  0  0  0  0  0  0  0  0  0  0  0
    0.8216   -0.1547   -0.6047 C   0  0  0  0  0  0  0  0  0  0  0  0
   -0.4295   -0.0598   -0.2418 N   0  0  0  0  0  0  0  0  0  0  0  0
   -1.2000   -0.5361   -1.2737 C   0  0  0  0  0  0  0  0  0  0  0  0
   -2.5524   -0.6344   -1.3488 C   0  0  0  0  0  0  0  0  0  0  0  0
   -3.5201   -0.2630   -0.3597 C   0  0  0  0  0  0  0  0  0  0  0  0
   -3.1532    0.2850    0.8791 C   0  0  0  0  0  0  0  0  0  0  0  0
   -4.1070    0.6300    1.8069 C   0  0  0  0  0  0  0  0  0  0  0  0
   -5.4611    0.4388    1.5285 C   0  0  0  0  0  0  0  0  0  0  0  0
   -6.3688    0.7923    2.4720 O   0  0  0  0  0  0  0  0  0  0  0  0
   -5.8402   -0.1038    0.3029 C   0  0  0  0  0  0  0  0  0  0  0  0
   -4.8830   -0.4486   -0.6259 C   0  0  0  0  0  0  0  0  0  0  0  0
   -0.3003   -0.9571   -2.3670 C   0  0  0  0  0  0  0  0  0  0  0  0
   -0.5394   -1.4312   -3.4580 O   0  0  0  0  0  0  0  0  0  0  0  0
    0.9682   -0.6884   -1.8750 N   0  0  0  0  0  0  0  0  0  0  0  0
    2.1446   -0.9563   -2.6516 C   0  0  0  0  0  0  0  0  0  0  0  0
    6.9853    2.0231    1.6404 H   0  0  0  0  0  0  0  0  0  0  0  0
    7.0357    0.4216    2.3578 H   0  0  0  0  0  0  0  0  0  0  0  0
    5.8396    1.5997    2.9241 H   0  0  0  0  0  0  0  0  0  0  0  0
    5.8642    0.3494    0.1110 H   0  0  0  0  0  0  0  0  0  0  0  0
    3.6349    1.1226    2.0540 H   0  0  0  0  0  0  0  0  0  0  0  0
    3.6478   -0.1171   -0.7626 H   0  0  0  0  0  0  0  0  0  0  0  0
    1.4362    0.6641    1.2155 H   0  0  0  0  0  0  0  0  0  0  0  0
   -2.9319   -1.0470   -2.2760 H   0  0  0  0  0  0  0  0  0  0  0  0
   -2.1044    0.4276    1.0832 H   0  0  0  0  0  0  0  0  0  0  0  0
   -3.8339    1.0516    2.7614 H   0  0  0  0  0  0  0  0  0  0  0  0
   -7.2628    0.6101    2.1570 H   0  0  0  0  0  0  0  0  0  0  0  0
   -6.8903   -0.2527    0.0853 H   0  0  0  0  0  0  0  0  0  0  0  0
   -5.1867   -0.8688   -1.5737 H   0  0  0  0  0  0  0  0  0  0  0  0
    1.7962   -1.3675   -3.6016 H   0  0  0  0  0  0  0  0  0  0  0  0
    2.7066   -0.0403   -2.8444 H   0  0  0  0  0  0  0  0  0  0  0  0
    2.7837   -1.6919   -2.1588 H   0  0  0  0  0  0  0  0  0  0  0  0
  1  2  1  0  0  0  0
  2  3  2  0  0  0  0
  3  4  1  0  0  0  0
  4  5  2  0  0  0  0
  5  6  1  0  0  0  0
  6  7  2  0  0  0  0
  7  8  1  0  0  0  0
  8  9  2  0  0  0  0
  9 10  1  0  0  0  0
 10 11  2  0  0  0  0
 11 12  1  0  0  0  0
 12 13  2  0  0  0  0
 13 14  1  0  0  0  0
 13 15  1  0  0  0  0
 15 16  2  0  0  0  0
  8 17  1  0  0  0  0
 17 18  2  0  0  0  0
 17 19  1  0  0  0  0
 19 20  1  0  0  0  0
 19  6  1  0  0  0  0
 16 10  1  0  0  0  0
  1 21  1  0  0  0  0
  1 22  1  0  0  0  0
  1 23  1  0  0  0  0
  2 24  1  0  0  0  0
  3 25  1  0  0  0  0
  4 26  1  0  0  0  0
  5 27  1  0  0  0  0
  9 28  1  0  0  0  0
 11 29  1  0  0  0  0
 12 30  1  0  0  0  0
 14 31  1  0  0  0  0
 15 32  1  0  0  0  0
 16 33  1  0  0  0  0
 20 34  1  0  0  0  0
 20 35  1  0  0  0  0
 20 36  1  0  0  0  0
M  END
