
  xtb     03022213163D
 energy: -99.234476608791 gnorm: 0.000141449864 xtb: 6.4.1 (afa7bdf)
 67 71  0     0  0            999 V2000
   -1.5959    5.3314    1.0255 C   0  0  0  0  0  0  0  0  0  0  0  0
   -0.7284    4.9863   -0.1867 C   0  0  0  0  0  0  0  0  0  0  0  0
   -0.1587    3.6103   -0.0613 C   0  0  0  0  0  0  0  0  0  0  0  0
   -0.7195    2.4204   -0.5037 C   0  0  0  0  0  0  0  0  0  0  0  0
   -2.0147    2.2616   -1.2193 C   0  0  0  0  0  0  0  0  0  0  0  0
    0.1728    1.3819   -0.1153 C   0  0  0  0  0  0  0  0  0  0  0  0
    0.1011   -0.0017   -0.2855 C   0  0  0  0  0  0  0  0  0  0  0  0
   -1.0003   -0.5854   -1.0693 C   0  0  0  0  0  0  0  0  0  0  0  0
   -0.8312   -0.7489   -2.4485 C   0  0  0  0  0  0  0  0  0  0  0  0
    0.4472   -0.3287   -3.1022 C   0  0  0  0  0  0  0  0  0  0  0  0
   -1.8712   -1.3008   -3.1788 C   0  0  0  0  0  0  0  0  0  0  0  0
   -3.0439   -1.6731   -2.5257 C   0  0  0  0  0  0  0  0  0  0  0  0
   -4.1919   -2.2737   -3.2747 C   0  0  0  0  0  0  0  0  0  0  0  0
   -3.1971   -1.5141   -1.2259 N   0  0  0  0  0  0  0  0  0  0  0  0
   -2.2155   -0.9856   -0.4932 C   0  0  0  0  0  0  0  0  0  0  0  0
   -2.5211   -0.8669    0.9183 C   0  0  0  0  0  0  0  0  0  0  0  0
   -3.7080   -1.2439    1.4961 C   0  0  0  0  0  0  0  0  0  0  0  0
   -3.7468   -1.0192    2.8818 C   0  0  0  0  0  0  0  0  0  0  0  0
   -2.5916   -0.4745    3.3506 C   0  0  0  0  0  0  0  0  0  0  0  0
   -1.4332   -0.2234    2.1112 S   0  0  0  0  0  0  0  0  0  0  0  0
    1.0929   -0.8324    0.2389 C   0  0  0  0  0  0  0  0  0  0  0  0
    1.2245   -2.2495    0.2384 C   0  0  0  0  0  0  0  0  0  0  0  0
    0.2822   -3.2328   -0.3620 C   0  0  0  0  0  0  0  0  0  0  0  0
    2.3962   -2.5386    0.9237 C   0  0  0  0  0  0  0  0  0  0  0  0
    2.9950   -3.8851    1.1741 C   0  0  0  0  0  0  0  0  0  0  0  0
    3.9207   -4.2981    0.0275 C   0  0  0  0  0  0  0  0  0  0  0  0
    2.9629   -1.3101    1.3166 C   0  0  0  0  0  0  0  0  0  0  0  0
    4.2173   -1.0605    2.0621 C   0  0  0  0  0  0  0  0  0  0  0  0
    2.1766   -0.3067    0.9128 N   0  0  0  0  0  0  0  0  0  0  0  0
    2.4311    1.1944    1.1381 B   0  0  0  0  0  4  0  0  0  0  0  0
    3.5989    1.5786    0.4891 F   0  0  0  0  0  0  0  0  0  0  0  0
    2.5565    1.4602    2.4913 F   0  0  0  0  0  0  0  0  0  0  0  0
    1.2319    1.9615    0.5532 N   0  0  0  0  0  4  0  0  0  0  0  0
    1.0469    3.2854    0.5914 C   0  0  0  0  0  0  0  0  0  0  0  0
    2.0224    4.1850    1.2470 C   0  0  0  0  0  0  0  0  0  0  0  0
   -2.0046    6.3349    0.9295 H   0  0  0  0  0  0  0  0  0  0  0  0
   -2.4196    4.6266    1.1128 H   0  0  0  0  0  0  0  0  0  0  0  0
   -1.0064    5.2810    1.9377 H   0  0  0  0  0  0  0  0  0  0  0  0
    0.0821    5.7127   -0.2712 H   0  0  0  0  0  0  0  0  0  0  0  0
   -1.3292    5.0577   -1.0956 H   0  0  0  0  0  0  0  0  0  0  0  0
   -1.8777    1.7645   -2.1789 H   0  0  0  0  0  0  0  0  0  0  0  0
   -2.7071    1.6594   -0.6315 H   0  0  0  0  0  0  0  0  0  0  0  0
   -2.4705    3.2325   -1.3941 H   0  0  0  0  0  0  0  0  0  0  0  0
    1.2911   -0.8568   -2.6600 H   0  0  0  0  0  0  0  0  0  0  0  0
    0.4214   -0.5323   -4.1699 H   0  0  0  0  0  0  0  0  0  0  0  0
    0.6176    0.7364   -2.9486 H   0  0  0  0  0  0  0  0  0  0  0  0
   -1.7771   -1.4419   -4.2451 H   0  0  0  0  0  0  0  0  0  0  0  0
   -3.8820   -3.1951   -3.7647 H   0  0  0  0  0  0  0  0  0  0  0  0
   -5.0030   -2.4893   -2.5861 H   0  0  0  0  0  0  0  0  0  0  0  0
   -4.5442   -1.5854   -4.0410 H   0  0  0  0  0  0  0  0  0  0  0  0
   -4.5110   -1.6658    0.9212 H   0  0  0  0  0  0  0  0  0  0  0  0
   -4.5930   -1.2510    3.5037 H   0  0  0  0  0  0  0  0  0  0  0  0
   -2.3452   -0.2008    4.3575 H   0  0  0  0  0  0  0  0  0  0  0  0
   -0.7126   -3.1304    0.0704 H   0  0  0  0  0  0  0  0  0  0  0  0
    0.1917   -3.0827   -1.4374 H   0  0  0  0  0  0  0  0  0  0  0  0
    0.6330   -4.2461   -0.1865 H   0  0  0  0  0  0  0  0  0  0  0  0
    2.2022   -4.6274    1.2857 H   0  0  0  0  0  0  0  0  0  0  0  0
    3.5599   -3.8655    2.1077 H   0  0  0  0  0  0  0  0  0  0  0  0
    4.3588   -5.2743    0.2231 H   0  0  0  0  0  0  0  0  0  0  0  0
    4.7232   -3.5738   -0.0903 H   0  0  0  0  0  0  0  0  0  0  0  0
    3.3664   -4.3471   -0.9070 H   0  0  0  0  0  0  0  0  0  0  0  0
    4.7861   -1.9751    2.1972 H   0  0  0  0  0  0  0  0  0  0  0  0
    4.8198   -0.3290    1.5266 H   0  0  0  0  0  0  0  0  0  0  0  0
    3.9840   -0.6283    3.0348 H   0  0  0  0  0  0  0  0  0  0  0  0
    2.0625    3.9631    2.3129 H   0  0  0  0  0  0  0  0  0  0  0  0
    1.7571    5.2279    1.1043 H   0  0  0  0  0  0  0  0  0  0  0  0
    3.0178    3.9988    0.8472 H   0  0  0  0  0  0  0  0  0  0  0  0
  1  2  1  0  0  0  0
  2  3  1  0  0  0  0
  3  4  2  0  0  0  0
  4  5  1  0  0  0  0
  4  6  1  0  0  0  0
  6  7  2  0  0  0  0
  7  8  1  0  0  0  0
  8  9  2  0  0  0  0
  9 10  1  0  0  0  0
  9 11  1  0  0  0  0
 11 12  2  0  0  0  0
 12 13  1  0  0  0  0
 12 14  1  0  0  0  0
 14 15  2  0  0  0  0
 15 16  1  0  0  0  0
 16 17  2  0  0  0  0
 17 18  1  0  0  0  0
 18 19  2  0  0  0  0
 19 20  1  0  0  0  0
  7 21  1  0  0  0  0
 21 22  2  0  0  0  0
 22 23  1  0  0  0  0
 22 24  1  0  0  0  0
 24 25  1  0  0  0  0
 25 26  1  0  0  0  0
 24 27  2  0  0  0  0
 27 28  1  0  0  0  0
 27 29  1  0  0  0  0
 29 30  1  0  0  0  0
 30 31  1  0  0  0  0
 30 32  1  0  0  0  0
 30 33  1  0  0  0  0
 33 34  2  0  0  0  0
 34 35  1  0  0  0  0
 34  3  1  0  0  0  0
 33  6  1  0  0  0  0
 15  8  1  0  0  0  0
 20 16  1  0  0  0  0
 29 21  1  0  0  0  0
  1 36  1  0  0  0  0
  1 37  1  0  0  0  0
  1 38  1  0  0  0  0
  2 39  1  0  0  0  0
  2 40  1  0  0  0  0
  5 41  1  0  0  0  0
  5 42  1  0  0  0  0
  5 43  1  0  0  0  0
 10 44  1  0  0  0  0
 10 45  1  0  0  0  0
 10 46  1  0  0  0  0
 11 47  1  0  0  0  0
 13 48  1  0  0  0  0
 13 49  1  0  0  0  0
 13 50  1  0  0  0  0
 17 51  1  0  0  0  0
 18 52  1  0  0  0  0
 19 53  1  0  0  0  0
 23 54  1  0  0  0  0
 23 55  1  0  0  0  0
 23 56  1  0  0  0  0
 25 57  1  0  0  0  0
 25 58  1  0  0  0  0
 26 59  1  0  0  0  0
 26 60  1  0  0  0  0
 26 61  1  0  0  0  0
 28 62  1  0  0  0  0
 28 63  1  0  0  0  0
 28 64  1  0  0  0  0
 35 65  1  0  0  0  0
 35 66  1  0  0  0  0
 35 67  1  0  0  0  0
M  CHG  1  30  -1
M  CHG  1  33   1
M  END
