
  xtb     03022213023D
 energy: -56.098622346915 gnorm: 0.000118363401 xtb: 6.4.1 (afa7bdf)
 46 47  0     0  0            999 V2000
   -5.5364    0.3768    1.5979 C   0  0  0  0  0  0  0  0  0  0  0  0
   -5.0685   -0.2377    0.2711 C   0  0  0  0  0  0  0  0  0  0  0  0
   -5.7740    0.5013   -0.8693 C   0  0  0  0  0  0  0  0  0  0  0  0
   -5.4781   -1.7162    0.2100 C   0  0  0  0  0  0  0  0  0  0  0  0
   -3.5536   -0.1427    0.1836 C   0  0  0  0  0  0  0  0  0  0  0  0
   -2.8921    0.5139   -0.8470 C   0  0  0  0  0  0  0  0  0  0  0  0
   -1.5111    0.5716   -0.8932 C   0  0  0  0  0  0  0  0  0  0  0  0
   -0.7337   -0.0198    0.0962 C   0  0  0  0  0  0  0  0  0  0  0  0
    0.7327    0.0467    0.0507 C   0  0  0  0  0  0  0  0  0  0  0  0
    1.4229   -0.1206   -1.1469 C   0  0  0  0  0  0  0  0  0  0  0  0
    2.8008   -0.0593   -1.1833 C   0  0  0  0  0  0  0  0  0  0  0  0
    3.5521    0.1797   -0.0347 C   0  0  0  0  0  0  0  0  0  0  0  0
    5.0684    0.2407   -0.1291 C   0  0  0  0  0  0  0  0  0  0  0  0
    5.5907   -1.1145   -0.6271 C   0  0  0  0  0  0  0  0  0  0  0  0
    5.4674    1.3463   -1.1168 C   0  0  0  0  0  0  0  0  0  0  0  0
    5.7328    0.5436    1.2167 C   0  0  0  0  0  0  0  0  0  0  0  0
    2.8581    0.3479    1.1574 C   0  0  0  0  0  0  0  0  0  0  0  0
    1.4775    0.2792    1.2014 C   0  0  0  0  0  0  0  0  0  0  0  0
   -1.3915   -0.6774    1.1323 C   0  0  0  0  0  0  0  0  0  0  0  0
   -2.7693   -0.7389    1.1687 C   0  0  0  0  0  0  0  0  0  0  0  0
   -5.2240    1.4172    1.6610 H   0  0  0  0  0  0  0  0  0  0  0  0
   -6.6216    0.3371    1.6671 H   0  0  0  0  0  0  0  0  0  0  0  0
   -5.1228   -0.1551    2.4501 H   0  0  0  0  0  0  0  0  0  0  0  0
   -5.5259    1.5603   -0.8613 H   0  0  0  0  0  0  0  0  0  0  0  0
   -6.8517    0.4077   -0.7498 H   0  0  0  0  0  0  0  0  0  0  0  0
   -5.5064    0.0791   -1.8352 H   0  0  0  0  0  0  0  0  0  0  0  0
   -6.5610   -1.8083    0.2635 H   0  0  0  0  0  0  0  0  0  0  0  0
   -5.1391   -2.1617   -0.7232 H   0  0  0  0  0  0  0  0  0  0  0  0
   -5.0468   -2.2804    1.0322 H   0  0  0  0  0  0  0  0  0  0  0  0
   -3.4465    0.9964   -1.6358 H   0  0  0  0  0  0  0  0  0  0  0  0
   -1.0296    1.1040   -1.7012 H   0  0  0  0  0  0  0  0  0  0  0  0
    0.8733   -0.3219   -2.0553 H   0  0  0  0  0  0  0  0  0  0  0  0
    3.2956   -0.2039   -2.1324 H   0  0  0  0  0  0  0  0  0  0  0  0
    5.1926   -1.3554   -1.6089 H   0  0  0  0  0  0  0  0  0  0  0  0
    5.2999   -1.9053    0.0614 H   0  0  0  0  0  0  0  0  0  0  0  0
    6.6766   -1.0967   -0.6940 H   0  0  0  0  0  0  0  0  0  0  0  0
    5.0821    1.1473   -2.1129 H   0  0  0  0  0  0  0  0  0  0  0  0
    6.5512    1.4189   -1.1801 H   0  0  0  0  0  0  0  0  0  0  0  0
    5.0756    2.3057   -0.7851 H   0  0  0  0  0  0  0  0  0  0  0  0
    6.8126    0.5839    1.0868 H   0  0  0  0  0  0  0  0  0  0  0  0
    5.5120   -0.2319    1.9465 H   0  0  0  0  0  0  0  0  0  0  0  0
    5.4054    1.5047    1.6067 H   0  0  0  0  0  0  0  0  0  0  0  0
    3.3860    0.5384    2.0779 H   0  0  0  0  0  0  0  0  0  0  0  0
    0.9692    0.4302    2.1431 H   0  0  0  0  0  0  0  0  0  0  0  0
   -0.8147   -1.1636    1.9062 H   0  0  0  0  0  0  0  0  0  0  0  0
   -3.2376   -1.2674    1.9860 H   0  0  0  0  0  0  0  0  0  0  0  0
  1  2  1  0  0  0  0
  2  3  1  0  0  0  0
  2  4  1  0  0  0  0
  2  5  1  0  0  0  0
  5  6  2  0  0  0  0
  6  7  1  0  0  0  0
  7  8  2  0  0  0  0
  8  9  1  0  0  0  0
  9 10  2  0  0  0  0
 10 11  1  0  0  0  0
 11 12  2  0  0  0  0
 12 13  1  0  0  0  0
 13 14  1  0  0  0  0
 13 15  1  0  0  0  0
 13 16  1  0  0  0  0
 12 17  1  0  0  0  0
 17 18  2  0  0  0  0
  8 19  1  0  0  0  0
 19 20  2  0  0  0  0
 20  5  1  0  0  0  0
 18  9  1  0  0  0  0
  1 21  1  0  0  0  0
  1 22  1  0  0  0  0
  1 23  1  0  0  0  0
  3 24  1  0  0  0  0
  3 25  1  0  0  0  0
  3 26  1  0  0  0  0
  4 27  1  0  0  0  0
  4 28  1  0  0  0  0
  4 29  1  0  0  0  0
  6 30  1  0  0  0  0
  7 31  1  0  0  0  0
 10 32  1  0  0  0  0
 11 33  1  0  0  0  0
 14 34  1  0  0  0  0
 14 35  1  0  0  0  0
 14 36  1  0  0  0  0
 15 37  1  0  0  0  0
 15 38  1  0  0  0  0
 15 39  1  0  0  0  0
 16 40  1  0  0  0  0
 16 41  1  0  0  0  0
 16 42  1  0  0  0  0
 17 43  1  0  0  0  0
 18 44  1  0  0  0  0
 19 45  1  0  0  0  0
 20 46  1  0  0  0  0
M  END
