
  xtb     03022212093D
 energy: -80.669379356457 gnorm: 0.000082082565 xtb: 6.4.1 (afa7bdf)
 51 54  0     0  0            999 V2000
   -2.0769    6.6050   -0.4798 C   0  0  0  0  0  0  0  0  0  0  0  0
   -2.6425    5.3758   -0.8599 O   0  0  0  0  0  0  0  0  0  0  0  0
   -1.9452    4.2312   -0.5997 C   0  0  0  0  0  0  0  0  0  0  0  0
   -0.7087    4.1746    0.0336 C   0  0  0  0  0  0  0  0  0  0  0  0
   -0.0998    2.9520    0.2477 C   0  0  0  0  0  0  0  0  0  0  0  0
   -0.7040    1.7641   -0.1511 C   0  0  0  0  0  0  0  0  0  0  0  0
   -0.0173    0.5026    0.0821 C   0  0  0  0  0  0  0  0  0  0  0  0
    1.3399    0.4575    0.1181 N   0  0  0  0  0  0  0  0  0  0  0  0
    1.6844   -0.8000    0.2812 C   0  0  0  0  0  0  0  0  0  0  0  0
    3.0464   -1.2819    0.3705 C   0  0  0  0  0  0  0  0  0  0  0  0
    3.3509   -2.6357    0.5388 C   0  0  0  0  0  0  0  0  0  0  0  0
    4.6686   -3.0345    0.6184 C   0  0  0  0  0  0  0  0  0  0  0  0
    5.7038   -2.1167    0.5352 C   0  0  0  0  0  0  0  0  0  0  0  0
    5.4113   -0.7661    0.3672 C   0  0  0  0  0  0  0  0  0  0  0  0
    6.3411    0.2243    0.2725 O   0  0  0  0  0  0  0  0  0  0  0  0
    7.7024   -0.1202    0.3431 C   0  0  0  0  0  0  0  0  0  0  0  0
    4.0830   -0.3596    0.2859 C   0  0  0  0  0  0  0  0  0  0  0  0
    0.5743   -1.5893    0.3509 N   0  0  0  0  0  0  0  0  0  0  0  0
   -0.5280   -0.7815    0.2411 C   0  0  0  0  0  0  0  0  0  0  0  0
   -1.8752   -1.3081    0.3546 C   0  0  0  0  0  0  0  0  0  0  0  0
   -2.8752   -0.5859    1.0130 C   0  0  0  0  0  0  0  0  0  0  0  0
   -4.1453   -1.0974    1.1347 C   0  0  0  0  0  0  0  0  0  0  0  0
   -4.4638   -2.3514    0.6059 C   0  0  0  0  0  0  0  0  0  0  0  0
   -5.7513   -2.7599    0.7809 O   0  0  0  0  0  0  0  0  0  0  0  0
   -6.1362   -4.0113    0.2683 C   0  0  0  0  0  0  0  0  0  0  0  0
   -3.4747   -3.0806   -0.0434 C   0  0  0  0  0  0  0  0  0  0  0  0
   -2.1977   -2.5606   -0.1607 C   0  0  0  0  0  0  0  0  0  0  0  0
   -1.9353    1.8304   -0.8045 C   0  0  0  0  0  0  0  0  0  0  0  0
   -2.5472    3.0443   -1.0218 C   0  0  0  0  0  0  0  0  0  0  0  0
   -2.7913    7.3669   -0.7885 H   0  0  0  0  0  0  0  0  0  0  0  0
   -1.1208    6.7816   -0.9836 H   0  0  0  0  0  0  0  0  0  0  0  0
   -1.9320    6.6645    0.6041 H   0  0  0  0  0  0  0  0  0  0  0  0
   -0.2102    5.0730    0.3628 H   0  0  0  0  0  0  0  0  0  0  0  0
    0.8629    2.9032    0.7321 H   0  0  0  0  0  0  0  0  0  0  0  0
    2.5694   -3.3779    0.6075 H   0  0  0  0  0  0  0  0  0  0  0  0
    4.9045   -4.0809    0.7485 H   0  0  0  0  0  0  0  0  0  0  0  0
    6.7220   -2.4657    0.6019 H   0  0  0  0  0  0  0  0  0  0  0  0
    8.2488    0.8164    0.2435 H   0  0  0  0  0  0  0  0  0  0  0  0
    7.9527   -0.5828    1.3037 H   0  0  0  0  0  0  0  0  0  0  0  0
    7.9912   -0.7938   -0.4706 H   0  0  0  0  0  0  0  0  0  0  0  0
    3.8509    0.6837    0.1537 H   0  0  0  0  0  0  0  0  0  0  0  0
    0.5457   -2.5828    0.5070 H   0  0  0  0  0  0  0  0  0  0  0  0
   -2.6391    0.3793    1.4337 H   0  0  0  0  0  0  0  0  0  0  0  0
   -4.9205   -0.5458    1.6422 H   0  0  0  0  0  0  0  0  0  0  0  0
   -6.0193   -4.0544   -0.8196 H   0  0  0  0  0  0  0  0  0  0  0  0
   -7.1897   -4.1219    0.5205 H   0  0  0  0  0  0  0  0  0  0  0  0
   -5.5680   -4.8271    0.7277 H   0  0  0  0  0  0  0  0  0  0  0  0
   -3.6838   -4.0512   -0.4656 H   0  0  0  0  0  0  0  0  0  0  0  0
   -1.4490   -3.1355   -0.6883 H   0  0  0  0  0  0  0  0  0  0  0  0
   -2.4077    0.9253   -1.1553 H   0  0  0  0  0  0  0  0  0  0  0  0
   -3.4986    3.1050   -1.5265 H   0  0  0  0  0  0  0  0  0  0  0  0
  1  2  1  0  0  0  0
  2  3  1  0  0  0  0
  3  4  2  0  0  0  0
  4  5  1  0  0  0  0
  5  6  2  0  0  0  0
  6  7  1  0  0  0  0
  7  8  1  0  0  0  0
  8  9  2  0  0  0  0
  9 10  1  0  0  0  0
 10 11  2  0  0  0  0
 11 12  1  0  0  0  0
 12 13  2  0  0  0  0
 13 14  1  0  0  0  0
 14 15  1  0  0  0  0
 15 16  1  0  0  0  0
 14 17  2  0  0  0  0
  9 18  1  0  0  0  0
 18 19  1  0  0  0  0
 19 20  1  0  0  0  0
 20 21  2  0  0  0  0
 21 22  1  0  0  0  0
 22 23  2  0  0  0  0
 23 24  1  0  0  0  0
 24 25  1  0  0  0  0
 23 26  1  0  0  0  0
 26 27  2  0  0  0  0
  6 28  1  0  0  0  0
 28 29  2  0  0  0  0
 29  3  1  0  0  0  0
 19  7  2  0  0  0  0
 27 20  1  0  0  0  0
 17 10  1  0  0  0  0
  1 30  1  0  0  0  0
  1 31  1  0  0  0  0
  1 32  1  0  0  0  0
  4 33  1  0  0  0  0
  5 34  1  0  0  0  0
 11 35  1  0  0  0  0
 12 36  1  0  0  0  0
 13 37  1  0  0  0  0
 16 38  1  0  0  0  0
 16 39  1  0  0  0  0
 16 40  1  0  0  0  0
 17 41  1  0  0  0  0
 18 42  1  0  0  0  0
 21 43  1  0  0  0  0
 22 44  1  0  0  0  0
 25 45  1  0  0  0  0
 25 46  1  0  0  0  0
 25 47  1  0  0  0  0
 26 48  1  0  0  0  0
 27 49  1  0  0  0  0
 28 50  1  0  0  0  0
 29 51  1  0  0  0  0
M  END
