
  xtb     03022213463D
 energy: -62.591555149379 gnorm: 0.000197666164 xtb: 6.4.1 (afa7bdf)
 43 46  0     0  0            999 V2000
   -1.7093   -4.6361   -0.0296 C   0  0  0  0  0  0  0  0  0  0  0  0
   -2.0980   -3.2876   -0.3262 N   0  0  0  0  0  0  0  0  0  0  0  0
   -3.1104   -2.9237   -1.1613 C   0  0  0  0  0  0  0  0  0  0  0  0
   -3.1724   -1.5616   -1.2090 C   0  0  0  0  0  0  0  0  0  0  0  0
   -2.1337   -1.0643   -0.3821 C   0  0  0  0  0  0  0  0  0  0  0  0
   -1.8863    0.3425   -0.1098 C   0  0  0  0  0  0  0  0  0  0  0  0
   -2.9455    1.1124   -0.0730 N   0  0  0  0  0  0  0  0  0  0  0  0
   -2.7929    2.4069    0.2803 C   0  0  0  0  0  0  0  0  0  0  0  0
   -3.9071    3.2625    0.3249 C   0  0  0  0  0  0  0  0  0  0  0  0
   -3.7579    4.5521    0.7602 C   0  0  0  0  0  0  0  0  0  0  0  0
   -2.5017    5.0299    1.1640 C   0  0  0  0  0  0  0  0  0  0  0  0
   -1.3968    4.2238    1.1183 C   0  0  0  0  0  0  0  0  0  0  0  0
   -1.5147    2.8975    0.6597 C   0  0  0  0  0  0  0  0  0  0  0  0
   -0.4197    2.1244    0.5377 N   0  0  0  0  0  0  0  0  0  0  0  0
   -0.5653    0.8789    0.1203 C   0  0  0  0  0  0  0  0  0  0  0  0
    0.6160    0.1074   -0.1436 C   0  0  0  0  0  0  0  0  0  0  0  0
    1.8428    0.5764    0.1768 C   0  0  0  0  0  0  0  0  0  0  0  0
    3.0180   -0.0383   -0.0469 N   0  0  0  0  0  0  0  0  0  0  0  0
    3.1524   -1.3122   -0.7177 C   0  0  0  0  0  0  0  0  0  0  0  0
    4.6602   -1.4811   -0.9037 C   0  0  0  0  0  0  0  0  0  0  0  0
    5.2398   -0.6923    0.2695 C   0  0  0  0  0  0  0  0  0  0  0  0
    4.2958    0.5046    0.3566 C   0  0  0  0  0  0  0  0  0  0  0  0
   -1.4948   -2.1682    0.1432 C   0  0  0  0  0  0  0  0  0  0  0  0
   -2.5924   -5.2725    0.0355 H   0  0  0  0  0  0  0  0  0  0  0  0
   -1.1820   -4.6660    0.9234 H   0  0  0  0  0  0  0  0  0  0  0  0
   -1.0499   -5.0369   -0.8065 H   0  0  0  0  0  0  0  0  0  0  0  0
   -3.7124   -3.6635   -1.6523 H   0  0  0  0  0  0  0  0  0  0  0  0
   -3.8613   -0.9609   -1.7661 H   0  0  0  0  0  0  0  0  0  0  0  0
   -4.8661    2.8711    0.0211 H   0  0  0  0  0  0  0  0  0  0  0  0
   -4.6119    5.2131    0.8012 H   0  0  0  0  0  0  0  0  0  0  0  0
   -2.4130    6.0501    1.5104 H   0  0  0  0  0  0  0  0  0  0  0  0
   -0.4216    4.5789    1.4157 H   0  0  0  0  0  0  0  0  0  0  0  0
    0.4865   -0.8421   -0.6357 H   0  0  0  0  0  0  0  0  0  0  0  0
    1.9077    1.5349    0.6724 H   0  0  0  0  0  0  0  0  0  0  0  0
    2.7376   -2.1139   -0.0919 H   0  0  0  0  0  0  0  0  0  0  0  0
    2.6121   -1.3089   -1.6689 H   0  0  0  0  0  0  0  0  0  0  0  0
    4.9738   -1.0293   -1.8454 H   0  0  0  0  0  0  0  0  0  0  0  0
    4.9637   -2.5258   -0.9014 H   0  0  0  0  0  0  0  0  0  0  0  0
    6.2745   -0.3973    0.1105 H   0  0  0  0  0  0  0  0  0  0  0  0
    5.1798   -1.2834    1.1841 H   0  0  0  0  0  0  0  0  0  0  0  0
    4.2397    0.9282    1.3621 H   0  0  0  0  0  0  0  0  0  0  0  0
    4.6128    1.2981   -0.3345 H   0  0  0  0  0  0  0  0  0  0  0  0
   -0.6966   -2.2271    0.8576 H   0  0  0  0  0  0  0  0  0  0  0  0
  1  2  1  0  0  0  0
  2  3  1  0  0  0  0
  3  4  2  0  0  0  0
  4  5  1  0  0  0  0
  5  6  1  0  0  0  0
  6  7  2  0  0  0  0
  7  8  1  0  0  0  0
  8  9  2  0  0  0  0
  9 10  1  0  0  0  0
 10 11  2  0  0  0  0
 11 12  1  0  0  0  0
 12 13  2  0  0  0  0
 13 14  1  0  0  0  0
 14 15  2  0  0  0  0
 15 16  1  0  0  0  0
 16 17  2  0  0  0  0
 17 18  1  0  0  0  0
 18 19  1  0  0  0  0
 19 20  1  0  0  0  0
 20 21  1  0  0  0  0
 21 22  1  0  0  0  0
  5 23  2  0  0  0  0
 23  2  1  0  0  0  0
 15  6  1  0  0  0  0
 22 18  1  0  0  0  0
 13  8  1  0  0  0  0
  1 24  1  0  0  0  0
  1 25  1  0  0  0  0
  1 26  1  0  0  0  0
  3 27  1  0  0  0  0
  4 28  1  0  0  0  0
  9 29  1  0  0  0  0
 10 30  1  0  0  0  0
 11 31  1  0  0  0  0
 12 32  1  0  0  0  0
 16 33  1  0  0  0  0
 17 34  1  0  0  0  0
 19 35  1  0  0  0  0
 19 36  1  0  0  0  0
 20 37  1  0  0  0  0
 20 38  1  0  0  0  0
 21 39  1  0  0  0  0
 21 40  1  0  0  0  0
 22 41  1  0  0  0  0
 22 42  1  0  0  0  0
 23 43  1  0  0  0  0
M  END
