
  xtb     03022215223D
 energy: -154.069524622208 gnorm: 0.000092716753 xtb: 6.4.1 (afa7bdf)
 99111  0     0  0            999 V2000
   -8.1332   -3.9387    0.8538 C   0  0  0  0  0  0  0  0  0  0  0  0
   -7.6310   -3.7241   -0.4196 C   0  0  0  0  0  0  0  0  0  0  0  0
   -6.7702   -2.6682   -0.6590 C   0  0  0  0  0  0  0  0  0  0  0  0
   -6.4111   -1.8245    0.3870 C   0  0  0  0  0  0  0  0  0  0  0  0
   -5.5383   -0.7401    0.1470 N   0  0  0  0  0  0  0  0  0  0  0  0
   -4.1594   -0.7411    0.1889 C   0  0  0  0  0  0  0  0  0  0  0  0
   -3.2837   -1.8595    0.4930 C   0  0  0  0  0  0  0  0  0  0  0  0
   -3.7047   -3.1414    0.8456 C   0  0  0  0  0  0  0  0  0  0  0  0
   -2.7733   -4.1307    1.1081 C   0  0  0  0  0  0  0  0  0  0  0  0
   -1.4187   -3.8689    1.0307 C   0  0  0  0  0  0  0  0  0  0  0  0
   -0.9773   -2.5929    0.6856 C   0  0  0  0  0  0  0  0  0  0  0  0
    0.4699   -2.3043    0.6013 C   0  0  0  0  0  0  0  0  0  0  0  0
    1.2480   -2.3087    1.7679 C   0  0  0  0  0  0  0  0  0  0  0  0
    0.6751   -2.5271    3.0485 C   0  0  0  0  0  0  0  0  0  0  0  0
    1.4386   -2.5184    4.1748 C   0  0  0  0  0  0  0  0  0  0  0  0
    2.8247   -2.2780    4.0929 C   0  0  0  0  0  0  0  0  0  0  0  0
    3.4108   -2.0482    2.8868 C   0  0  0  0  0  0  0  0  0  0  0  0
    2.6530   -2.0587    1.6860 C   0  0  0  0  0  0  0  0  0  0  0  0
    3.2433   -1.8069    0.4402 C   0  0  0  0  0  0  0  0  0  0  0  0
    4.6988   -1.5571    0.3593 C   0  0  0  0  0  0  0  0  0  0  0  0
    5.6062   -2.5945    0.5522 C   0  0  0  0  0  0  0  0  0  0  0  0
    6.9663   -2.3522    0.4796 C   0  0  0  0  0  0  0  0  0  0  0  0
    7.4389   -1.0774    0.2271 C   0  0  0  0  0  0  0  0  0  0  0  0
    6.5389   -0.0342    0.0276 C   0  0  0  0  0  0  0  0  0  0  0  0
    7.0060    1.2620   -0.2284 N   0  0  0  0  0  0  0  0  0  0  0  0
    7.9494    1.6098   -1.1741 C   0  0  0  0  0  0  0  0  0  0  0  0
    8.5993    0.8161   -2.1085 C   0  0  0  0  0  0  0  0  0  0  0  0
    9.4917    1.4291   -2.9668 C   0  0  0  0  0  0  0  0  0  0  0  0
    9.7311    2.8004   -2.9099 C   0  0  0  0  0  0  0  0  0  0  0  0
    9.0689    3.5992   -1.9993 C   0  0  0  0  0  0  0  0  0  0  0  0
    8.1669    3.0061   -1.1258 C   0  0  0  0  0  0  0  0  0  0  0  0
    7.3104    3.5168   -0.0925 C   0  0  0  0  0  0  0  0  0  0  0  0
    7.0927    4.7861    0.4270 C   0  0  0  0  0  0  0  0  0  0  0  0
    6.1909    4.9315    1.4618 C   0  0  0  0  0  0  0  0  0  0  0  0
    5.5210    3.8292    1.9882 C   0  0  0  0  0  0  0  0  0  0  0  0
    5.7205    2.5566    1.4886 C   0  0  0  0  0  0  0  0  0  0  0  0
    6.6084    2.4075    0.4328 C   0  0  0  0  0  0  0  0  0  0  0  0
    5.1718   -0.2800    0.0876 C   0  0  0  0  0  0  0  0  0  0  0  0
    2.4643   -1.7880   -0.7245 C   0  0  0  0  0  0  0  0  0  0  0  0
    3.0379   -1.5502   -2.0014 C   0  0  0  0  0  0  0  0  0  0  0  0
    2.2745   -1.5456   -3.1275 C   0  0  0  0  0  0  0  0  0  0  0  0
    0.8897   -1.7940   -3.0480 C   0  0  0  0  0  0  0  0  0  0  0  0
    0.3033   -2.0411   -1.8453 C   0  0  0  0  0  0  0  0  0  0  0  0
    1.0592   -2.0400   -0.6433 C   0  0  0  0  0  0  0  0  0  0  0  0
   -1.9104   -1.6045    0.4205 C   0  0  0  0  0  0  0  0  0  0  0  0
   -3.6702    0.4459   -0.0927 N   0  0  0  0  0  0  0  0  0  0  0  0
   -4.7292    1.2546   -0.3254 C   0  0  0  0  0  0  0  0  0  0  0  0
   -4.7149    2.6363   -0.6662 C   0  0  0  0  0  0  0  0  0  0  0  0
   -3.5115    3.3353   -0.8043 C   0  0  0  0  0  0  0  0  0  0  0  0
   -3.5182    4.6683   -1.1307 C   0  0  0  0  0  0  0  0  0  0  0  0
   -4.7352    5.3188   -1.3227 C   0  0  0  0  0  0  0  0  0  0  0  0
   -5.9243    4.6404   -1.1900 C   0  0  0  0  0  0  0  0  0  0  0  0
   -5.9594    3.2771   -0.8585 C   0  0  0  0  0  0  0  0  0  0  0  0
   -7.1982    2.5309   -0.7149 C   0  0  0  0  0  0  0  0  0  0  0  0
   -8.4460    3.1409   -0.9044 C   0  0  0  0  0  0  0  0  0  0  0  0
   -9.6261    2.4473   -0.7771 C   0  0  0  0  0  0  0  0  0  0  0  0
   -9.6079    1.0950   -0.4529 C   0  0  0  0  0  0  0  0  0  0  0  0
   -8.4068    0.4590   -0.2577 C   0  0  0  0  0  0  0  0  0  0  0  0
   -7.1914    1.1482   -0.3784 C   0  0  0  0  0  0  0  0  0  0  0  0
   -5.9185    0.5412   -0.1840 C   0  0  0  0  0  0  0  0  0  0  0  0
   -6.9150   -2.0371    1.6663 C   0  0  0  0  0  0  0  0  0  0  0  0
   -7.7754   -3.0958    1.8938 C   0  0  0  0  0  0  0  0  0  0  0  0
   -8.8053   -4.7635    1.0359 H   0  0  0  0  0  0  0  0  0  0  0  0
   -7.9110   -4.3799   -1.2300 H   0  0  0  0  0  0  0  0  0  0  0  0
   -6.3718   -2.4887   -1.6465 H   0  0  0  0  0  0  0  0  0  0  0  0
   -4.7509   -3.3845    0.9219 H   0  0  0  0  0  0  0  0  0  0  0  0
   -3.1148   -5.1199    1.3772 H   0  0  0  0  0  0  0  0  0  0  0  0
   -0.6972   -4.6476    1.2314 H   0  0  0  0  0  0  0  0  0  0  0  0
   -0.3900   -2.6917    3.1152 H   0  0  0  0  0  0  0  0  0  0  0  0
    0.9871   -2.6854    5.1418 H   0  0  0  0  0  0  0  0  0  0  0  0
    3.4145   -2.2667    4.9978 H   0  0  0  0  0  0  0  0  0  0  0  0
    4.4701   -1.8461    2.8265 H   0  0  0  0  0  0  0  0  0  0  0  0
    5.2382   -3.5894    0.7553 H   0  0  0  0  0  0  0  0  0  0  0  0
    7.6656   -3.1610    0.6325 H   0  0  0  0  0  0  0  0  0  0  0  0
    8.4998   -0.8800    0.1984 H   0  0  0  0  0  0  0  0  0  0  0  0
    8.4079   -0.2446   -2.1727 H   0  0  0  0  0  0  0  0  0  0  0  0
   10.0129    0.8321   -3.7008 H   0  0  0  0  0  0  0  0  0  0  0  0
   10.4387    3.2412   -3.5962 H   0  0  0  0  0  0  0  0  0  0  0  0
    9.2419    4.6643   -1.9660 H   0  0  0  0  0  0  0  0  0  0  0  0
    7.6236    5.6378    0.0287 H   0  0  0  0  0  0  0  0  0  0  0  0
    6.0049    5.9103    1.8784 H   0  0  0  0  0  0  0  0  0  0  0  0
    4.8316    3.9716    2.8074 H   0  0  0  0  0  0  0  0  0  0  0  0
    5.2074    1.7079    1.9155 H   0  0  0  0  0  0  0  0  0  0  0  0
    4.4726    0.5252   -0.0843 H   0  0  0  0  0  0  0  0  0  0  0  0
    4.1019   -1.3762   -2.0647 H   0  0  0  0  0  0  0  0  0  0  0  0
    2.7249   -1.3602   -4.0917 H   0  0  0  0  0  0  0  0  0  0  0  0
    0.2997   -1.7942   -3.9528 H   0  0  0  0  0  0  0  0  0  0  0  0
   -0.7552   -2.2449   -1.7884 H   0  0  0  0  0  0  0  0  0  0  0  0
   -1.5905   -0.6086    0.1573 H   0  0  0  0  0  0  0  0  0  0  0  0
   -2.5918    2.7937   -0.6462 H   0  0  0  0  0  0  0  0  0  0  0  0
   -2.5915    5.2124   -1.2385 H   0  0  0  0  0  0  0  0  0  0  0  0
   -4.7464    6.3685   -1.5791 H   0  0  0  0  0  0  0  0  0  0  0  0
   -6.8401    5.1872   -1.3488 H   0  0  0  0  0  0  0  0  0  0  0  0
   -8.4978    4.1871   -1.1590 H   0  0  0  0  0  0  0  0  0  0  0  0
  -10.5680    2.9531   -0.9306 H   0  0  0  0  0  0  0  0  0  0  0  0
  -10.5328    0.5461   -0.3549 H   0  0  0  0  0  0  0  0  0  0  0  0
   -8.4021   -0.5897   -0.0085 H   0  0  0  0  0  0  0  0  0  0  0  0
   -6.6287   -1.3712    2.4668 H   0  0  0  0  0  0  0  0  0  0  0  0
   -8.1679   -3.2622    2.8856 H   0  0  0  0  0  0  0  0  0  0  0  0
  1  2  2  0  0  0  0
  2  3  1  0  0  0  0
  3  4  2  0  0  0  0
  4  5  1  0  0  0  0
  5  6  1  0  0  0  0
  6  7  1  0  0  0  0
  7  8  2  0  0  0  0
  8  9  1  0  0  0  0
  9 10  2  0  0  0  0
 10 11  1  0  0  0  0
 11 12  1  0  0  0  0
 12 13  1  0  0  0  0
 13 14  2  0  0  0  0
 14 15  1  0  0  0  0
 15 16  2  0  0  0  0
 16 17  1  0  0  0  0
 17 18  2  0  0  0  0
 18 19  1  0  0  0  0
 19 20  1  0  0  0  0
 20 21  2  0  0  0  0
 21 22  1  0  0  0  0
 22 23  2  0  0  0  0
 23 24  1  0  0  0  0
 24 25  1  0  0  0  0
 25 26  1  0  0  0  0
 26 27  2  0  0  0  0
 27 28  1  0  0  0  0
 28 29  2  0  0  0  0
 29 30  1  0  0  0  0
 30 31  2  0  0  0  0
 31 32  1  0  0  0  0
 32 33  2  0  0  0  0
 33 34  1  0  0  0  0
 34 35  2  0  0  0  0
 35 36  1  0  0  0  0
 36 37  2  0  0  0  0
 24 38  2  0  0  0  0
 19 39  2  0  0  0  0
 39 40  1  0  0  0  0
 40 41  2  0  0  0  0
 41 42  1  0  0  0  0
 42 43  2  0  0  0  0
 43 44  1  0  0  0  0
 11 45  2  0  0  0  0
  6 46  2  0  0  0  0
 46 47  1  0  0  0  0
 47 48  2  0  0  0  0
 48 49  1  0  0  0  0
 49 50  2  0  0  0  0
 50 51  1  0  0  0  0
 51 52  2  0  0  0  0
 52 53  1  0  0  0  0
 53 54  2  0  0  0  0
 54 55  1  0  0  0  0
 55 56  2  0  0  0  0
 56 57  1  0  0  0  0
 57 58  2  0  0  0  0
 58 59  1  0  0  0  0
 59 60  2  0  0  0  0
  4 61  1  0  0  0  0
 61 62  2  0  0  0  0
 62  1  1  0  0  0  0
 60  5  1  0  0  0  0
 45  7  1  0  0  0  0
 60 47  1  0  0  0  0
 44 12  2  0  0  0  0
 53 48  1  0  0  0  0
 59 54  1  0  0  0  0
 18 13  1  0  0  0  0
 38 20  1  0  0  0  0
 44 39  1  0  0  0  0
 37 25  1  0  0  0  0
 31 26  1  0  0  0  0
 37 32  1  0  0  0  0
  1 63  1  0  0  0  0
  2 64  1  0  0  0  0
  3 65  1  0  0  0  0
  8 66  1  0  0  0  0
  9 67  1  0  0  0  0
 10 68  1  0  0  0  0
 14 69  1  0  0  0  0
 15 70  1  0  0  0  0
 16 71  1  0  0  0  0
 17 72  1  0  0  0  0
 21 73  1  0  0  0  0
 22 74  1  0  0  0  0
 23 75  1  0  0  0  0
 27 76  1  0  0  0  0
 28 77  1  0  0  0  0
 29 78  1  0  0  0  0
 30 79  1  0  0  0  0
 33 80  1  0  0  0  0
 34 81  1  0  0  0  0
 35 82  1  0  0  0  0
 36 83  1  0  0  0  0
 38 84  1  0  0  0  0
 40 85  1  0  0  0  0
 41 86  1  0  0  0  0
 42 87  1  0  0  0  0
 43 88  1  0  0  0  0
 45 89  1  0  0  0  0
 49 90  1  0  0  0  0
 50 91  1  0  0  0  0
 51 92  1  0  0  0  0
 52 93  1  0  0  0  0
 55 94  1  0  0  0  0
 56 95  1  0  0  0  0
 57 96  1  0  0  0  0
 58 97  1  0  0  0  0
 61 98  1  0  0  0  0
 62 99  1  0  0  0  0
M  END
