
  xtb     03022214033D
 energy: -101.479057846173 gnorm: 0.000080315646 xtb: 6.4.1 (afa7bdf)
 57 59  0     0  0            999 V2000
   -5.1099   -2.1058    0.2560 C   0  0  0  0  0  0  0  0  0  0  0  0
   -5.3412   -0.9016    1.1678 C   0  0  0  0  0  0  0  0  0  0  0  0
   -4.4672    0.2100    0.8418 N   0  0  0  0  0  0  0  0  0  0  0  0
   -5.1207    1.3680    0.2641 C   0  0  0  0  0  0  0  0  0  0  0  0
   -5.5079    1.1989   -1.2049 C   0  0  0  0  0  0  0  0  0  0  0  0
   -3.1116    0.1129    0.8605 C   0  0  0  0  0  0  0  0  0  0  0  0
   -2.3401    0.9422    0.0343 C   0  0  0  0  0  0  0  0  0  0  0  0
   -0.9592    0.9128   -0.0135 C   0  0  0  0  0  0  0  0  0  0  0  0
   -0.2243    1.7670   -0.8058 N   0  0  0  0  0  0  0  0  0  0  0  0
   -0.6703    2.7238   -1.6822 C   0  0  0  0  0  0  0  0  0  0  0  0
    0.4646    3.5369   -2.2489 C   0  0  0  0  0  0  0  0  0  0  0  0
   -1.8312    2.8787   -1.9914 O   0  0  0  0  0  0  0  0  0  0  0  0
   -0.2660    0.0022    0.8380 C   0  0  0  0  0  0  0  0  0  0  0  0
    1.0583   -0.1702    0.9393 N   0  0  0  0  0  0  0  0  0  0  0  0
    1.8765    0.4022    0.1660 N   0  0  0  0  0  0  0  0  0  0  0  0
    3.1626    0.1293   -0.0184 C   0  0  0  0  0  0  0  0  0  0  0  0
    3.6234   -1.1951   -0.2019 C   0  0  0  0  0  0  0  0  0  0  0  0
    4.9269   -1.4616   -0.5434 C   0  0  0  0  0  0  0  0  0  0  0  0
    5.3511   -2.8719   -0.6704 C   0  0  0  0  0  0  0  0  0  0  0  0
    4.6334   -3.8390   -0.5085 O   0  0  0  0  0  0  0  0  0  0  0  0
    6.6613   -3.0323   -0.9963 N   0  0  0  0  0  0  0  0  0  0  0  0
    7.5572   -1.9931   -1.2133 N   0  0  0  0  0  0  0  0  0  0  0  0
    7.2455   -0.6656   -1.1123 C   0  0  0  0  0  0  0  0  0  0  0  0
    8.0976    0.1752   -1.3146 O   0  0  0  0  0  0  0  0  0  0  0  0
    5.8463   -0.4052   -0.7546 C   0  0  0  0  0  0  0  0  0  0  0  0
    5.4091    0.9004   -0.6164 C   0  0  0  0  0  0  0  0  0  0  0  0
    4.0981    1.1799   -0.2562 C   0  0  0  0  0  0  0  0  0  0  0  0
    3.6819    2.5227   -0.1508 N   0  0  0  0  0  4  0  0  0  0  0  0
    2.5115    2.7404    0.1615 O   0  0  0  0  0  0  0  0  0  0  0  0
    4.4764    3.4088   -0.4132 O   0  0  0  0  0  1  0  0  0  0  0  0
   -1.0339   -0.7944    1.7179 C   0  0  0  0  0  0  0  0  0  0  0  0
   -2.4005   -0.7718    1.7429 C   0  0  0  0  0  0  0  0  0  0  0  0
   -3.1358   -1.5300    2.6138 O   0  0  0  0  0  0  0  0  0  0  0  0
   -2.4603   -2.4006    3.4898 C   0  0  0  0  0  0  0  0  0  0  0  0
   -5.2233   -1.8259   -0.7884 H   0  0  0  0  0  0  0  0  0  0  0  0
   -5.8312   -2.8845    0.4895 H   0  0  0  0  0  0  0  0  0  0  0  0
   -4.1110   -2.5074    0.3975 H   0  0  0  0  0  0  0  0  0  0  0  0
   -6.3686   -0.5539    1.0487 H   0  0  0  0  0  0  0  0  0  0  0  0
   -5.2019   -1.1999    2.2078 H   0  0  0  0  0  0  0  0  0  0  0  0
   -6.0243    1.5558    0.8536 H   0  0  0  0  0  0  0  0  0  0  0  0
   -4.4710    2.2364    0.3799 H   0  0  0  0  0  0  0  0  0  0  0  0
   -4.6328    0.9971   -1.8160 H   0  0  0  0  0  0  0  0  0  0  0  0
   -5.9720    2.1136   -1.5633 H   0  0  0  0  0  0  0  0  0  0  0  0
   -6.2162    0.3832   -1.3276 H   0  0  0  0  0  0  0  0  0  0  0  0
   -2.8234    1.6277   -0.6375 H   0  0  0  0  0  0  0  0  0  0  0  0
    0.7785    1.7583   -0.6026 H   0  0  0  0  0  0  0  0  0  0  0  0
    1.0558    2.9168   -2.9208 H   0  0  0  0  0  0  0  0  0  0  0  0
    0.0674    4.3805   -2.8054 H   0  0  0  0  0  0  0  0  0  0  0  0
    1.1096    3.8893   -1.4474 H   0  0  0  0  0  0  0  0  0  0  0  0
    2.9366   -2.0137   -0.0496 H   0  0  0  0  0  0  0  0  0  0  0  0
    7.0151   -3.9724   -1.1111 H   0  0  0  0  0  0  0  0  0  0  0  0
    8.5058   -2.2461   -1.4517 H   0  0  0  0  0  0  0  0  0  0  0  0
    6.1006    1.7134   -0.7836 H   0  0  0  0  0  0  0  0  0  0  0  0
   -0.4713   -1.4395    2.3716 H   0  0  0  0  0  0  0  0  0  0  0  0
   -3.2419   -2.8974    4.0629 H   0  0  0  0  0  0  0  0  0  0  0  0
   -1.8796   -3.1508    2.9445 H   0  0  0  0  0  0  0  0  0  0  0  0
   -1.8028   -1.8542    4.1724 H   0  0  0  0  0  0  0  0  0  0  0  0
  1  2  1  0  0  0  0
  2  3  1  0  0  0  0
  3  4  1  0  0  0  0
  4  5  1  0  0  0  0
  3  6  1  0  0  0  0
  6  7  2  0  0  0  0
  7  8  1  0  0  0  0
  8  9  1  0  0  0  0
  9 10  1  0  0  0  0
 10 11  1  0  0  0  0
 10 12  2  0  0  0  0
  8 13  2  0  0  0  0
 13 14  1  0  0  0  0
 14 15  2  0  0  0  0
 15 16  1  0  0  0  0
 16 17  2  0  0  0  0
 17 18  1  0  0  0  0
 18 19  1  0  0  0  0
 19 20  2  0  0  0  0
 19 21  1  0  0  0  0
 21 22  1  0  0  0  0
 22 23  1  0  0  0  0
 23 24  2  0  0  0  0
 23 25  1  0  0  0  0
 25 26  1  0  0  0  0
 26 27  2  0  0  0  0
 27 28  1  0  0  0  0
 28 29  2  0  0  0  0
 28 30  1  0  0  0  0
 13 31  1  0  0  0  0
 31 32  2  0  0  0  0
 32 33  1  0  0  0  0
 33 34  1  0  0  0  0
 32  6  1  0  0  0  0
 27 16  1  0  0  0  0
 25 18  2  0  0  0  0
  1 35  1  0  0  0  0
  1 36  1  0  0  0  0
  1 37  1  0  0  0  0
  2 38  1  0  0  0  0
  2 39  1  0  0  0  0
  4 40  1  0  0  0  0
  4 41  1  0  0  0  0
  5 42  1  0  0  0  0
  5 43  1  0  0  0  0
  5 44  1  0  0  0  0
  7 45  1  0  0  0  0
  9 46  1  0  0  0  0
 11 47  1  0  0  0  0
 11 48  1  0  0  0  0
 11 49  1  0  0  0  0
 17 50  1  0  0  0  0
 21 51  1  0  0  0  0
 22 52  1  0  0  0  0
 26 53  1  0  0  0  0
 31 54  1  0  0  0  0
 34 55  1  0  0  0  0
 34 56  1  0  0  0  0
 34 57  1  0  0  0  0
M  CHG  1  28   1
M  CHG  1  30  -1
M  END
