
  xtb     03022216033D
 energy: -97.014338058550 gnorm: 0.000149982113 xtb: 6.4.1 (afa7bdf)
 58 66  0     0  0            999 V2000
   -3.2569    0.3055    0.3049 C   0  0  0  0  0  0  0  0  0  0  0  0
   -2.3110    1.3152    0.4216 C   0  0  0  0  0  0  0  0  0  0  0  0
   -2.5319    2.7371    0.5845 C   0  0  0  0  0  0  0  0  0  0  0  0
   -1.4814    3.5799    0.9593 C   0  0  0  0  0  0  0  0  0  0  0  0
   -1.6928    4.9351    1.1191 C   0  0  0  0  0  0  0  0  0  0  0  0
   -2.9520    5.4769    0.9150 C   0  0  0  0  0  0  0  0  0  0  0  0
   -4.0019    4.6513    0.5447 C   0  0  0  0  0  0  0  0  0  0  0  0
   -3.7970    3.2960    0.3798 C   0  0  0  0  0  0  0  0  0  0  0  0
   -1.0302    0.6762    0.2877 C   0  0  0  0  0  0  0  0  0  0  0  0
    0.1443    1.2249    0.0527 N   0  0  0  0  0  0  0  0  0  0  0  0
    1.1620    0.4412   -0.2403 C   0  0  0  0  0  0  0  0  0  0  0  0
    2.5573    0.7752   -0.3310 C   0  0  0  0  0  0  0  0  0  0  0  0
    3.1030    2.1159   -0.3724 C   0  0  0  0  0  0  0  0  0  0  0  0
    4.4598    2.3475   -0.1273 C   0  0  0  0  0  0  0  0  0  0  0  0
    4.9745    3.6277   -0.1763 C   0  0  0  0  0  0  0  0  0  0  0  0
    4.1492    4.7021   -0.4688 C   0  0  0  0  0  0  0  0  0  0  0  0
    2.8020    4.4855   -0.7120 C   0  0  0  0  0  0  0  0  0  0  0  0
    2.2810    3.2075   -0.6679 C   0  0  0  0  0  0  0  0  0  0  0  0
    3.2424   -0.4323   -0.3106 C   0  0  0  0  0  0  0  0  0  0  0  0
    2.2932   -1.4720   -0.2258 C   0  0  0  0  0  0  0  0  0  0  0  0
    1.0642   -0.9299   -0.2851 N   0  0  0  0  0  0  0  0  0  0  0  0
   -0.2024   -1.7210   -0.0758 B   0  0  0  0  0  4  0  0  0  0  0  0
   -0.7129   -2.5155   -1.2277 O   0  0  0  0  0  0  0  0  0  0  0  0
   -1.9880   -2.8974   -1.1476 C   0  0  0  0  0  0  0  0  0  0  0  0
   -2.3894   -4.0293   -1.8633 C   0  0  0  0  0  0  0  0  0  0  0  0
   -3.6932   -4.4714   -1.8143 C   0  0  0  0  0  0  0  0  0  0  0  0
   -4.6478   -3.7918   -1.0630 C   0  0  0  0  0  0  0  0  0  0  0  0
   -4.2903   -2.6522   -0.3798 C   0  0  0  0  0  0  0  0  0  0  0  0
   -2.9741   -2.1847   -0.4084 C   0  0  0  0  0  0  0  0  0  0  0  0
   -2.5736   -0.9145    0.1209 C   0  0  0  0  0  0  0  0  0  0  0  0
   -1.2531   -0.6789    0.2135 N   0  0  0  0  0  4  0  0  0  0  0  0
    0.0984   -2.7081    0.9985 O   0  0  0  0  0  0  0  0  0  0  0  0
    1.2510   -3.3667    0.8732 C   0  0  0  0  0  0  0  0  0  0  0  0
    1.3718   -4.6180    1.4848 C   0  0  0  0  0  0  0  0  0  0  0  0
    2.5381   -5.3444    1.3850 C   0  0  0  0  0  0  0  0  0  0  0  0
    3.6320   -4.8424    0.6857 C   0  0  0  0  0  0  0  0  0  0  0  0
    3.5553   -3.5965    0.1066 C   0  0  0  0  0  0  0  0  0  0  0  0
    2.3831   -2.8411    0.1883 C   0  0  0  0  0  0  0  0  0  0  0  0
   -4.3231    0.4132    0.3197 H   0  0  0  0  0  0  0  0  0  0  0  0
   -0.5031    3.1574    1.1217 H   0  0  0  0  0  0  0  0  0  0  0  0
   -0.8712    5.5738    1.4089 H   0  0  0  0  0  0  0  0  0  0  0  0
   -3.1157    6.5368    1.0429 H   0  0  0  0  0  0  0  0  0  0  0  0
   -4.9848    5.0692    0.3811 H   0  0  0  0  0  0  0  0  0  0  0  0
   -4.6188    2.6659    0.0763 H   0  0  0  0  0  0  0  0  0  0  0  0
    5.1092    1.5210    0.1168 H   0  0  0  0  0  0  0  0  0  0  0  0
    6.0247    3.7916    0.0176 H   0  0  0  0  0  0  0  0  0  0  0  0
    4.5550    5.7023   -0.5060 H   0  0  0  0  0  0  0  0  0  0  0  0
    2.1545    5.3192   -0.9416 H   0  0  0  0  0  0  0  0  0  0  0  0
    1.2341    3.0380   -0.8608 H   0  0  0  0  0  0  0  0  0  0  0  0
    4.3047   -0.5735   -0.3264 H   0  0  0  0  0  0  0  0  0  0  0  0
   -1.6428   -4.5549   -2.4385 H   0  0  0  0  0  0  0  0  0  0  0  0
   -3.9741   -5.3600   -2.3603 H   0  0  0  0  0  0  0  0  0  0  0  0
   -5.6640   -4.1534   -1.0250 H   0  0  0  0  0  0  0  0  0  0  0  0
   -5.0210   -2.1064    0.1983 H   0  0  0  0  0  0  0  0  0  0  0  0
    0.5179   -5.0038    2.0199 H   0  0  0  0  0  0  0  0  0  0  0  0
    2.5998   -6.3175    1.8497 H   0  0  0  0  0  0  0  0  0  0  0  0
    4.5370   -5.4250    0.6066 H   0  0  0  0  0  0  0  0  0  0  0  0
    4.3985   -3.1873   -0.4295 H   0  0  0  0  0  0  0  0  0  0  0  0
  1  2  2  0  0  0  0
  2  3  1  0  0  0  0
  3  4  2  0  0  0  0
  4  5  1  0  0  0  0
  5  6  2  0  0  0  0
  6  7  1  0  0  0  0
  7  8  2  0  0  0  0
  2  9  1  0  0  0  0
  9 10  2  0  0  0  0
 10 11  1  0  0  0  0
 11 12  2  0  0  0  0
 12 13  1  0  0  0  0
 13 14  2  0  0  0  0
 14 15  1  0  0  0  0
 15 16  2  0  0  0  0
 16 17  1  0  0  0  0
 17 18  2  0  0  0  0
 12 19  1  0  0  0  0
 19 20  2  0  0  0  0
 20 21  1  0  0  0  0
 21 22  1  0  0  0  0
 22 23  1  0  0  0  0
 23 24  1  0  0  0  0
 24 25  2  0  0  0  0
 25 26  1  0  0  0  0
 26 27  2  0  0  0  0
 27 28  1  0  0  0  0
 28 29  2  0  0  0  0
 29 30  1  0  0  0  0
 30 31  2  0  0  0  0
 22 32  1  0  0  0  0
 32 33  1  0  0  0  0
 33 34  2  0  0  0  0
 34 35  1  0  0  0  0
 35 36  2  0  0  0  0
 36 37  1  0  0  0  0
 37 38  2  0  0  0  0
 30  1  1  0  0  0  0
 38 33  1  0  0  0  0
  8  3  1  0  0  0  0
 31  9  1  0  0  0  0
 21 11  1  0  0  0  0
 31 22  1  0  0  0  0
 18 13  1  0  0  0  0
 38 20  1  0  0  0  0
 29 24  1  0  0  0  0
  1 39  1  0  0  0  0
  4 40  1  0  0  0  0
  5 41  1  0  0  0  0
  6 42  1  0  0  0  0
  7 43  1  0  0  0  0
  8 44  1  0  0  0  0
 14 45  1  0  0  0  0
 15 46  1  0  0  0  0
 16 47  1  0  0  0  0
 17 48  1  0  0  0  0
 18 49  1  0  0  0  0
 19 50  1  0  0  0  0
 25 51  1  0  0  0  0
 26 52  1  0  0  0  0
 27 53  1  0  0  0  0
 28 54  1  0  0  0  0
 34 55  1  0  0  0  0
 35 56  1  0  0  0  0
 36 57  1  0  0  0  0
 37 58  1  0  0  0  0
M  CHG  1  22  -1
M  CHG  1  31   1
M  END
