
  xtb     03022212153D
 energy: -149.868742148336 gnorm: 0.000256230603 xtb: 6.4.1 (afa7bdf)
102111  0     0  0            999 V2000
   -7.1150   12.2180    0.7925 C   0  0  0  0  0  0  0  0  0  0  0  0
   -5.9750   12.1298    0.0112 C   0  0  0  0  0  0  0  0  0  0  0  0
   -5.2773   10.9392   -0.0692 C   0  0  0  0  0  0  0  0  0  0  0  0
   -5.7126    9.8136    0.6266 C   0  0  0  0  0  0  0  0  0  0  0  0
   -4.9732    8.5463    0.5405 C   0  0  0  0  0  0  0  0  0  0  0  0
   -3.5807    8.5284    0.5783 C   0  0  0  0  0  0  0  0  0  0  0  0
   -2.8868    7.3377    0.5074 C   0  0  0  0  0  0  0  0  0  0  0  0
   -3.5611    6.1248    0.3817 C   0  0  0  0  0  0  0  0  0  0  0  0
   -2.8230    4.8579    0.3025 C   0  0  0  0  0  0  0  0  0  0  0  0
   -1.7108    4.6284    1.1100 C   0  0  0  0  0  0  0  0  0  0  0  0
   -1.0188    3.4369    1.0381 C   0  0  0  0  0  0  0  0  0  0  0  0
   -1.4144    2.4336    0.1564 C   0  0  0  0  0  0  0  0  0  0  0  0
   -0.6782    1.1636    0.0823 C   0  0  0  0  0  0  0  0  0  0  0  0
   -1.3616   -0.0420   -0.0334 C   0  0  0  0  0  0  0  0  0  0  0  0
   -0.6749   -1.2498   -0.0979 C   0  0  0  0  0  0  0  0  0  0  0  0
   -1.4121   -2.5167   -0.2089 C   0  0  0  0  0  0  0  0  0  0  0  0
   -2.5246   -2.6215   -1.0410 C   0  0  0  0  0  0  0  0  0  0  0  0
   -3.2234   -3.8069   -1.1418 C   0  0  0  0  0  0  0  0  0  0  0  0
   -2.8335   -4.9294   -0.4140 C   0  0  0  0  0  0  0  0  0  0  0  0
   -3.5816   -6.1886   -0.5177 C   0  0  0  0  0  0  0  0  0  0  0  0
   -2.9185   -7.4130   -0.5702 C   0  0  0  0  0  0  0  0  0  0  0  0
   -3.6234   -8.5954   -0.6686 C   0  0  0  0  0  0  0  0  0  0  0  0
   -5.0158   -8.5948   -0.7173 C   0  0  0  0  0  0  0  0  0  0  0  0
   -5.7672   -9.8535   -0.8222 C   0  0  0  0  0  0  0  0  0  0  0  0
   -5.3850  -10.9731   -0.0865 C   0  0  0  0  0  0  0  0  0  0  0  0
   -6.0951  -12.1551   -0.1827 C   0  0  0  0  0  0  0  0  0  0  0  0
   -7.1953  -12.2409   -1.0193 C   0  0  0  0  0  0  0  0  0  0  0  0
   -7.5826  -11.1354   -1.7578 C   0  0  0  0  0  0  0  0  0  0  0  0
   -6.8769   -9.9509   -1.6588 C   0  0  0  0  0  0  0  0  0  0  0  0
   -5.6790   -7.3706   -0.6637 C   0  0  0  0  0  0  0  0  0  0  0  0
   -4.9743   -6.1883   -0.5658 C   0  0  0  0  0  0  0  0  0  0  0  0
   -1.7182   -4.8257    0.4149 C   0  0  0  0  0  0  0  0  0  0  0  0
   -1.0197   -3.6397    0.5159 C   0  0  0  0  0  0  0  0  0  0  0  0
    0.7151   -1.2404   -0.0535 C   0  0  0  0  0  0  0  0  0  0  0  0
    1.4184   -0.0455    0.0566 C   0  0  0  0  0  0  0  0  0  0  0  0
    2.8879   -0.0415    0.0924 C   0  0  0  0  0  0  0  0  0  0  0  0
    3.6266   -0.8765   -0.7428 C   0  0  0  0  0  0  0  0  0  0  0  0
    5.0063   -0.8582   -0.7198 C   0  0  0  0  0  0  0  0  0  0  0  0
    5.6953   -0.0134    0.1481 C   0  0  0  0  0  0  0  0  0  0  0  0
    7.1632    0.0120    0.1698 C   0  0  0  0  0  0  0  0  0  0  0  0
    7.8597    0.1035    1.3733 C   0  0  0  0  0  0  0  0  0  0  0  0
    9.2393    0.1308    1.3919 C   0  0  0  0  0  0  0  0  0  0  0  0
    9.9704    0.0810    0.2070 C   0  0  0  0  0  0  0  0  0  0  0  0
   11.4394    0.1238    0.2255 C   0  0  0  0  0  0  0  0  0  0  0  0
   12.1386    0.8870   -0.7070 C   0  0  0  0  0  0  0  0  0  0  0  0
   13.5201    0.9306   -0.6876 C   0  0  0  0  0  0  0  0  0  0  0  0
   14.2267    0.2086    0.2595 C   0  0  0  0  0  0  0  0  0  0  0  0
   13.5422   -0.5556    1.1897 C   0  0  0  0  0  0  0  0  0  0  0  0
   12.1605   -0.5960    1.1755 C   0  0  0  0  0  0  0  0  0  0  0  0
    9.2742   -0.0076   -0.9966 C   0  0  0  0  0  0  0  0  0  0  0  0
    7.8950   -0.0481   -1.0145 C   0  0  0  0  0  0  0  0  0  0  0  0
    4.9558    0.8132    0.9919 C   0  0  0  0  0  0  0  0  0  0  0  0
    3.5765    0.8035    0.9600 C   0  0  0  0  0  0  0  0  0  0  0  0
    0.7117    1.1504    0.1278 C   0  0  0  0  0  0  0  0  0  0  0  0
   -2.5255    2.6632   -0.6518 C   0  0  0  0  0  0  0  0  0  0  0  0
   -3.2180    3.8546   -0.5801 C   0  0  0  0  0  0  0  0  0  0  0  0
   -4.9536    6.1437    0.3352 C   0  0  0  0  0  0  0  0  0  0  0  0
   -5.6478    7.3332    0.4204 C   0  0  0  0  0  0  0  0  0  0  0  0
   -6.8623    9.9130    1.4069 C   0  0  0  0  0  0  0  0  0  0  0  0
   -7.5551   11.1062    1.4909 C   0  0  0  0  0  0  0  0  0  0  0  0
   -7.6581   13.1494    0.8568 H   0  0  0  0  0  0  0  0  0  0  0  0
   -5.6292   12.9929   -0.5392 H   0  0  0  0  0  0  0  0  0  0  0  0
   -4.3978   10.8717   -0.6932 H   0  0  0  0  0  0  0  0  0  0  0  0
   -3.0394    9.4575    0.6846 H   0  0  0  0  0  0  0  0  0  0  0  0
   -1.8066    7.3462    0.5296 H   0  0  0  0  0  0  0  0  0  0  0  0
   -1.4021    5.3842    1.8178 H   0  0  0  0  0  0  0  0  0  0  0  0
   -0.1735    3.2696    1.6900 H   0  0  0  0  0  0  0  0  0  0  0  0
   -2.4417   -0.0435   -0.0309 H   0  0  0  0  0  0  0  0  0  0  0  0
   -2.8299   -1.7694   -1.6312 H   0  0  0  0  0  0  0  0  0  0  0  0
   -4.0700   -3.8735   -1.8097 H   0  0  0  0  0  0  0  0  0  0  0  0
   -1.8383   -7.4340   -0.5575 H   0  0  0  0  0  0  0  0  0  0  0  0
   -3.0891   -9.5324   -0.7323 H   0  0  0  0  0  0  0  0  0  0  0  0
   -4.5377  -10.9073    0.5808 H   0  0  0  0  0  0  0  0  0  0  0  0
   -5.7905  -13.0133    0.3990 H   0  0  0  0  0  0  0  0  0  0  0  0
   -7.7485  -13.1654   -1.0954 H   0  0  0  0  0  0  0  0  0  0  0  0
   -8.4376  -11.1975   -2.4155 H   0  0  0  0  0  0  0  0  0  0  0  0
   -7.1740   -9.0968   -2.2502 H   0  0  0  0  0  0  0  0  0  0  0  0
   -6.7592   -7.3498   -0.6755 H   0  0  0  0  0  0  0  0  0  0  0  0
   -5.5086   -5.2514   -0.5015 H   0  0  0  0  0  0  0  0  0  0  0  0
   -1.4122   -5.6779    1.0043 H   0  0  0  0  0  0  0  0  0  0  0  0
   -0.1724   -3.5732    1.1832 H   0  0  0  0  0  0  0  0  0  0  0  0
    1.2558   -2.1740   -0.1055 H   0  0  0  0  0  0  0  0  0  0  0  0
    3.1120   -1.5309   -1.4317 H   0  0  0  0  0  0  0  0  0  0  0  0
    5.5602   -1.5197   -1.3702 H   0  0  0  0  0  0  0  0  0  0  0  0
    7.3120    0.1346    2.3042 H   0  0  0  0  0  0  0  0  0  0  0  0
    9.7598    0.2125    2.3353 H   0  0  0  0  0  0  0  0  0  0  0  0
   11.5923    1.4660   -1.4375 H   0  0  0  0  0  0  0  0  0  0  0  0
   14.0484    1.5322   -1.4132 H   0  0  0  0  0  0  0  0  0  0  0  0
   15.3062    0.2413    0.2727 H   0  0  0  0  0  0  0  0  0  0  0  0
   14.0884   -1.1243    1.9285 H   0  0  0  0  0  0  0  0  0  0  0  0
   11.6327   -1.2073    1.8932 H   0  0  0  0  0  0  0  0  0  0  0  0
    9.8230   -0.0633   -1.9257 H   0  0  0  0  0  0  0  0  0  0  0  0
    7.3743   -0.1053   -1.9595 H   0  0  0  0  0  0  0  0  0  0  0  0
    5.4703    1.4855    1.6632 H   0  0  0  0  0  0  0  0  0  0  0  0
    3.0223    1.4468    1.6283 H   0  0  0  0  0  0  0  0  0  0  0  0
    1.2510    2.0850    0.1769 H   0  0  0  0  0  0  0  0  0  0  0  0
   -2.8343    1.9073   -1.3593 H   0  0  0  0  0  0  0  0  0  0  0  0
   -4.0631    4.0220   -1.2322 H   0  0  0  0  0  0  0  0  0  0  0  0
   -5.4959    5.2128    0.2524 H   0  0  0  0  0  0  0  0  0  0  0  0
   -6.7274    7.3272    0.3745 H   0  0  0  0  0  0  0  0  0  0  0  0
   -7.2010    9.0533    1.9671 H   0  0  0  0  0  0  0  0  0  0  0  0
   -8.4416   11.1702    2.1054 H   0  0  0  0  0  0  0  0  0  0  0  0
  1  2  2  0  0  0  0
  2  3  1  0  0  0  0
  3  4  2  0  0  0  0
  4  5  1  0  0  0  0
  5  6  2  0  0  0  0
  6  7  1  0  0  0  0
  7  8  2  0  0  0  0
  8  9  1  0  0  0  0
  9 10  2  0  0  0  0
 10 11  1  0  0  0  0
 11 12  2  0  0  0  0
 12 13  1  0  0  0  0
 13 14  2  0  0  0  0
 14 15  1  0  0  0  0
 15 16  1  0  0  0  0
 16 17  2  0  0  0  0
 17 18  1  0  0  0  0
 18 19  2  0  0  0  0
 19 20  1  0  0  0  0
 20 21  2  0  0  0  0
 21 22  1  0  0  0  0
 22 23  2  0  0  0  0
 23 24  1  0  0  0  0
 24 25  2  0  0  0  0
 25 26  1  0  0  0  0
 26 27  2  0  0  0  0
 27 28  1  0  0  0  0
 28 29  2  0  0  0  0
 23 30  1  0  0  0  0
 30 31  2  0  0  0  0
 19 32  1  0  0  0  0
 32 33  2  0  0  0  0
 15 34  2  0  0  0  0
 34 35  1  0  0  0  0
 35 36  1  0  0  0  0
 36 37  2  0  0  0  0
 37 38  1  0  0  0  0
 38 39  2  0  0  0  0
 39 40  1  0  0  0  0
 40 41  2  0  0  0  0
 41 42  1  0  0  0  0
 42 43  2  0  0  0  0
 43 44  1  0  0  0  0
 44 45  2  0  0  0  0
 45 46  1  0  0  0  0
 46 47  2  0  0  0  0
 47 48  1  0  0  0  0
 48 49  2  0  0  0  0
 43 50  1  0  0  0  0
 50 51  2  0  0  0  0
 39 52  1  0  0  0  0
 52 53  2  0  0  0  0
 35 54  2  0  0  0  0
 12 55  1  0  0  0  0
 55 56  2  0  0  0  0
  8 57  1  0  0  0  0
 57 58  2  0  0  0  0
  4 59  1  0  0  0  0
 59 60  2  0  0  0  0
 60  1  1  0  0  0  0
 58  5  1  0  0  0  0
 56  9  1  0  0  0  0
 54 13  1  0  0  0  0
 33 16  1  0  0  0  0
 53 36  1  0  0  0  0
 31 20  1  0  0  0  0
 51 40  1  0  0  0  0
 29 24  1  0  0  0  0
 49 44  1  0  0  0  0
  1 61  1  0  0  0  0
  2 62  1  0  0  0  0
  3 63  1  0  0  0  0
  6 64  1  0  0  0  0
  7 65  1  0  0  0  0
 10 66  1  0  0  0  0
 11 67  1  0  0  0  0
 14 68  1  0  0  0  0
 17 69  1  0  0  0  0
 18 70  1  0  0  0  0
 21 71  1  0  0  0  0
 22 72  1  0  0  0  0
 25 73  1  0  0  0  0
 26 74  1  0  0  0  0
 27 75  1  0  0  0  0
 28 76  1  0  0  0  0
 29 77  1  0  0  0  0
 30 78  1  0  0  0  0
 31 79  1  0  0  0  0
 32 80  1  0  0  0  0
 33 81  1  0  0  0  0
 34 82  1  0  0  0  0
 37 83  1  0  0  0  0
 38 84  1  0  0  0  0
 41 85  1  0  0  0  0
 42 86  1  0  0  0  0
 45 87  1  0  0  0  0
 46 88  1  0  0  0  0
 47 89  1  0  0  0  0
 48 90  1  0  0  0  0
 49 91  1  0  0  0  0
 50 92  1  0  0  0  0
 51 93  1  0  0  0  0
 52 94  1  0  0  0  0
 53 95  1  0  0  0  0
 54 96  1  0  0  0  0
 55 97  1  0  0  0  0
 56 98  1  0  0  0  0
 57 99  1  0  0  0  0
 58100  1  0  0  0  0
 59101  1  0  0  0  0
 60102  1  0  0  0  0
M  END
