
  xtb     03022216113D
 energy: -86.673693985251 gnorm: 0.000084016544 xtb: 6.4.1 (afa7bdf)
 50 52  0     0  0            999 V2000
   -0.6583   -4.4555    3.1379 C   0  0  0  0  0  0  0  0  0  0  0  0
   -0.7923   -3.5606    2.0386 O   0  0  0  0  0  0  0  0  0  0  0  0
   -1.4211   -2.4170    2.2846 C   0  0  0  0  0  0  0  0  0  0  0  0
   -1.8885   -2.1072    3.3490 O   0  0  0  0  0  0  0  0  0  0  0  0
   -1.4342   -1.5174    1.0559 C   0  0  0  0  0  0  0  0  0  0  0  0
   -2.4354   -0.4967    1.2334 N   0  0  0  0  0  0  0  0  0  0  0  0
   -3.1001    0.0437    0.1816 C   0  0  0  0  0  0  0  0  0  0  0  0
   -2.8864   -0.2580   -0.9673 O   0  0  0  0  0  0  0  0  0  0  0  0
   -3.9956    0.9358    0.6313 O   0  0  0  0  0  0  0  0  0  0  0  0
   -4.8174    1.6810   -0.3008 C   0  0  0  0  0  0  0  0  0  0  0  0
   -3.9377    2.5291   -1.2188 C   0  0  0  0  0  0  0  0  0  0  0  0
   -5.6980    0.7298   -1.1104 C   0  0  0  0  0  0  0  0  0  0  0  0
   -5.6759    2.5742    0.5955 C   0  0  0  0  0  0  0  0  0  0  0  0
   -0.0440   -0.9240    0.9033 C   0  0  0  0  0  0  0  0  0  0  0  0
    0.4453   -0.0987    1.9243 C   0  0  0  0  0  0  0  0  0  0  0  0
    1.6890    0.4981    1.8529 C   0  0  0  0  0  0  0  0  0  0  0  0
    2.4326    0.2375    0.7175 C   0  0  0  0  0  0  0  0  0  0  0  0
    3.6633    0.6734    0.3581 O   0  0  0  0  0  0  0  0  0  0  0  0
    3.8854    0.1020   -0.8604 C   0  0  0  0  0  0  0  0  0  0  0  0
    5.1254    0.3637   -1.5579 C   0  0  0  0  0  0  0  0  0  0  0  0
    6.0999    1.1878   -0.9943 C   0  0  0  0  0  0  0  0  0  0  0  0
    7.2770    1.4341   -1.6728 C   0  0  0  0  0  0  0  0  0  0  0  0
    7.4657    0.8499   -2.9138 C   0  0  0  0  0  0  0  0  0  0  0  0
    8.6127    1.0892   -3.5779 F   0  0  0  0  0  0  0  0  0  0  0  0
    6.5130    0.0278   -3.4942 C   0  0  0  0  0  0  0  0  0  0  0  0
    5.3394   -0.2141   -2.8108 C   0  0  0  0  0  0  0  0  0  0  0  0
    2.9194   -0.6469   -1.2915 N   0  0  0  0  0  0  0  0  0  0  0  0
    1.9564   -0.5957   -0.3180 C   0  0  0  0  0  0  0  0  0  0  0  0
    0.7027   -1.1869   -0.2292 C   0  0  0  0  0  0  0  0  0  0  0  0
   -0.0420   -4.0048    3.9180 H   0  0  0  0  0  0  0  0  0  0  0  0
   -0.1827   -5.3494    2.7440 H   0  0  0  0  0  0  0  0  0  0  0  0
   -1.6390   -4.6917    3.5548 H   0  0  0  0  0  0  0  0  0  0  0  0
   -1.6769   -2.0997    0.1611 H   0  0  0  0  0  0  0  0  0  0  0  0
   -2.7014   -0.2565    2.1764 H   0  0  0  0  0  0  0  0  0  0  0  0
   -3.2914    3.1732   -0.6260 H   0  0  0  0  0  0  0  0  0  0  0  0
   -3.3192    1.8884   -1.8410 H   0  0  0  0  0  0  0  0  0  0  0  0
   -4.5629    3.1468   -1.8573 H   0  0  0  0  0  0  0  0  0  0  0  0
   -6.3708    1.3025   -1.7425 H   0  0  0  0  0  0  0  0  0  0  0  0
   -5.0812    0.0912   -1.7364 H   0  0  0  0  0  0  0  0  0  0  0  0
   -6.2867    0.1056   -0.4415 H   0  0  0  0  0  0  0  0  0  0  0  0
   -6.3375    3.1839   -0.0125 H   0  0  0  0  0  0  0  0  0  0  0  0
   -5.0408    3.2238    1.1917 H   0  0  0  0  0  0  0  0  0  0  0  0
   -6.2724    1.9634    1.2679 H   0  0  0  0  0  0  0  0  0  0  0  0
   -0.1726    0.0742    2.7924 H   0  0  0  0  0  0  0  0  0  0  0  0
    2.0620    1.1350    2.6384 H   0  0  0  0  0  0  0  0  0  0  0  0
    5.9273    1.6313   -0.0261 H   0  0  0  0  0  0  0  0  0  0  0  0
    8.0441    2.0681   -1.2571 H   0  0  0  0  0  0  0  0  0  0  0  0
    6.7010   -0.4060   -4.4633 H   0  0  0  0  0  0  0  0  0  0  0  0
    4.5710   -0.8460   -3.2257 H   0  0  0  0  0  0  0  0  0  0  0  0
    0.3302   -1.8118   -1.0232 H   0  0  0  0  0  0  0  0  0  0  0  0
  1  2  1  0  0  0  0
  2  3  1  0  0  0  0
  3  4  2  0  0  0  0
  3  5  1  0  0  0  0
  5  6  1  0  0  0  0
  6  7  1  0  0  0  0
  7  8  2  0  0  0  0
  7  9  1  0  0  0  0
  9 10  1  0  0  0  0
 10 11  1  0  0  0  0
 10 12  1  0  0  0  0
 10 13  1  0  0  0  0
  5 14  1  0  0  0  0
 14 15  2  0  0  0  0
 15 16  1  0  0  0  0
 16 17  2  0  0  0  0
 17 18  1  0  0  0  0
 18 19  1  0  0  0  0
 19 20  1  0  0  0  0
 20 21  2  0  0  0  0
 21 22  1  0  0  0  0
 22 23  2  0  0  0  0
 23 24  1  0  0  0  0
 23 25  1  0  0  0  0
 25 26  2  0  0  0  0
 19 27  2  0  0  0  0
 27 28  1  0  0  0  0
 28 29  2  0  0  0  0
 29 14  1  0  0  0  0
 28 17  1  0  0  0  0
 26 20  1  0  0  0  0
  1 30  1  0  0  0  0
  1 31  1  0  0  0  0
  1 32  1  0  0  0  0
  5 33  1  0  0  0  0
  6 34  1  0  0  0  0
 11 35  1  0  0  0  0
 11 36  1  0  0  0  0
 11 37  1  0  0  0  0
 12 38  1  0  0  0  0
 12 39  1  0  0  0  0
 12 40  1  0  0  0  0
 13 41  1  0  0  0  0
 13 42  1  0  0  0  0
 13 43  1  0  0  0  0
 15 44  1  0  0  0  0
 16 45  1  0  0  0  0
 21 46  1  0  0  0  0
 22 47  1  0  0  0  0
 25 48  1  0  0  0  0
 26 49  1  0  0  0  0
 29 50  1  0  0  0  0
M  END
