
  xtb     03022215263D
 energy: -47.524684756007 gnorm: 0.000320941947 xtb: 6.4.1 (afa7bdf)
 25 27  0     0  0            999 V2000
   -2.2321   -2.2928    0.6746 C   0  0  0  0  0  0  0  0  0  0  0  0
   -2.1399   -0.8232    0.4271 C   0  0  0  0  0  0  0  0  0  0  0  0
   -3.2439   -0.0070    0.4524 C   0  0  0  0  0  0  0  0  0  0  0  0
   -3.1483    1.3742    0.2230 C   0  0  0  0  0  0  0  0  0  0  0  0
   -1.9430    1.9677   -0.0375 C   0  0  0  0  0  0  0  0  0  0  0  0
   -0.7816    1.1770   -0.0758 C   0  0  0  0  0  0  0  0  0  0  0  0
    0.4114    1.7509   -0.3324 N   0  0  0  0  0  0  0  0  0  0  0  0
    1.4641    0.9700   -0.3569 C   0  0  0  0  0  0  0  0  0  0  0  0
    2.6846    1.5321   -0.6156 N   0  0  0  0  0  0  0  0  0  0  0  0
    3.8665    0.8331   -0.6717 C   0  0  0  0  0  0  0  0  0  0  0  0
    4.9256    1.3565   -0.9018 O   0  0  0  0  0  0  0  0  0  0  0  0
    3.7393   -0.5233   -0.4418 N   0  0  0  0  0  0  0  0  0  0  0  0
    2.5954   -1.2613   -0.1669 C   0  0  0  0  0  0  0  0  0  0  0  0
    2.6526   -2.4504    0.0108 O   0  0  0  0  0  0  0  0  0  0  0  0
    1.3726   -0.4340   -0.1250 C   0  0  0  0  0  0  0  0  0  0  0  0
    0.2199   -1.0011    0.1244 N   0  0  0  0  0  0  0  0  0  0  0  0
   -0.8779   -0.2309    0.1582 C   0  0  0  0  0  0  0  0  0  0  0  0
   -2.9332   -2.7505   -0.0211 H   0  0  0  0  0  0  0  0  0  0  0  0
   -1.2544   -2.7496    0.5565 H   0  0  0  0  0  0  0  0  0  0  0  0
   -2.5943   -2.4810    1.6843 H   0  0  0  0  0  0  0  0  0  0  0  0
   -4.2140   -0.4376    0.6547 H   0  0  0  0  0  0  0  0  0  0  0  0
   -4.0470    1.9724    0.2544 H   0  0  0  0  0  0  0  0  0  0  0  0
   -1.8508    3.0269   -0.2158 H   0  0  0  0  0  0  0  0  0  0  0  0
    2.7217    2.5309   -0.7772 H   0  0  0  0  0  0  0  0  0  0  0  0
    4.6067   -1.0487   -0.4809 H   0  0  0  0  0  0  0  0  0  0  0  0
  1  2  1  0  0  0  0
  2  3  2  0  0  0  0
  3  4  1  0  0  0  0
  4  5  2  0  0  0  0
  5  6  1  0  0  0  0
  6  7  2  0  0  0  0
  7  8  1  0  0  0  0
  8  9  1  0  0  0  0
  9 10  1  0  0  0  0
 10 11  2  0  0  0  0
 10 12  1  0  0  0  0
 12 13  1  0  0  0  0
 13 14  2  0  0  0  0
 13 15  1  0  0  0  0
 15 16  1  0  0  0  0
 16 17  2  0  0  0  0
 17  2  1  0  0  0  0
 17  6  1  0  0  0  0
 15  8  2  0  0  0  0
  1 18  1  0  0  0  0
  1 19  1  0  0  0  0
  1 20  1  0  0  0  0
  3 21  1  0  0  0  0
  4 22  1  0  0  0  0
  5 23  1  0  0  0  0
  9 24  1  0  0  0  0
 12 25  1  0  0  0  0
M  END
