
  xtb     03022213373D
 energy: -56.382327250911 gnorm: 0.000083933578 xtb: 6.4.1 (afa7bdf)
 38 41  0     0  0            999 V2000
   -3.5735    2.2479   -0.6958 C   0  0  0  0  0  0  0  0  0  0  0  0
   -2.4116    1.5130   -0.4109 O   0  0  0  0  0  0  0  0  0  0  0  0
   -2.5317    0.1970   -0.0592 C   0  0  0  0  0  0  0  0  0  0  0  0
   -3.7477   -0.4368    0.0631 C   0  0  0  0  0  0  0  0  0  0  0  0
   -3.8163   -1.8160    0.2815 C   0  0  0  0  0  0  0  0  0  0  0  0
   -2.6755   -2.5644    0.2933 C   0  0  0  0  0  0  0  0  0  0  0  0
   -1.4126   -1.9523    0.1691 C   0  0  0  0  0  0  0  0  0  0  0  0
   -0.2536   -2.7556    0.0698 C   0  0  0  0  0  0  0  0  0  0  0  0
    0.9922   -2.2315   -0.1304 C   0  0  0  0  0  0  0  0  0  0  0  0
    2.1813   -3.1175   -0.3291 C   0  0  0  0  0  0  0  0  0  0  0  0
    1.1184   -0.8272   -0.0940 C   0  0  0  0  0  0  0  0  0  0  0  0
    2.2687    0.0274   -0.1375 C   0  0  0  0  0  0  0  0  0  0  0  0
    3.6314   -0.1666   -0.3487 C   0  0  0  0  0  0  0  0  0  0  0  0
    4.4758    0.9233   -0.3032 C   0  0  0  0  0  0  0  0  0  0  0  0
    3.9898    2.2044   -0.0502 C   0  0  0  0  0  0  0  0  0  0  0  0
    2.6447    2.4265    0.1627 C   0  0  0  0  0  0  0  0  0  0  0  0
    1.7886    1.3337    0.1153 C   0  0  0  0  0  0  0  0  0  0  0  0
    0.4265    1.3002    0.2871 N   0  0  0  0  0  0  0  0  0  0  0  0
   -0.2676    2.3872    0.9235 C   0  0  0  0  0  0  0  0  0  0  0  0
   -0.0031    0.0038    0.1133 C   0  0  0  0  0  0  0  0  0  0  0  0
   -1.3191   -0.5334    0.1012 C   0  0  0  0  0  0  0  0  0  0  0  0
   -3.2292    3.2338   -1.0063 H   0  0  0  0  0  0  0  0  0  0  0  0
   -4.1488    1.7953   -1.5098 H   0  0  0  0  0  0  0  0  0  0  0  0
   -4.2145    2.3540    0.1862 H   0  0  0  0  0  0  0  0  0  0  0  0
   -4.6690    0.1149   -0.0326 H   0  0  0  0  0  0  0  0  0  0  0  0
   -4.7847   -2.2816    0.3901 H   0  0  0  0  0  0  0  0  0  0  0  0
   -2.7228   -3.6393    0.3838 H   0  0  0  0  0  0  0  0  0  0  0  0
   -0.3844   -3.8275    0.1144 H   0  0  0  0  0  0  0  0  0  0  0  0
    2.9187   -2.9463    0.4541 H   0  0  0  0  0  0  0  0  0  0  0  0
    2.6495   -2.9123   -1.2908 H   0  0  0  0  0  0  0  0  0  0  0  0
    1.8840   -4.1633   -0.3042 H   0  0  0  0  0  0  0  0  0  0  0  0
    4.0316   -1.1458   -0.5542 H   0  0  0  0  0  0  0  0  0  0  0  0
    5.5341    0.7853   -0.4705 H   0  0  0  0  0  0  0  0  0  0  0  0
    4.6775    3.0372   -0.0260 H   0  0  0  0  0  0  0  0  0  0  0  0
    2.2750    3.4249    0.3424 H   0  0  0  0  0  0  0  0  0  0  0  0
    0.4235    2.8958    1.5987 H   0  0  0  0  0  0  0  0  0  0  0  0
   -1.1004    2.0046    1.5087 H   0  0  0  0  0  0  0  0  0  0  0  0
   -0.6447    3.1073    0.1949 H   0  0  0  0  0  0  0  0  0  0  0  0
  1  2  1  0  0  0  0
  2  3  1  0  0  0  0
  3  4  2  0  0  0  0
  4  5  1  0  0  0  0
  5  6  2  0  0  0  0
  6  7  1  0  0  0  0
  7  8  2  0  0  0  0
  8  9  1  0  0  0  0
  9 10  1  0  0  0  0
  9 11  2  0  0  0  0
 11 12  1  0  0  0  0
 12 13  2  0  0  0  0
 13 14  1  0  0  0  0
 14 15  2  0  0  0  0
 15 16  1  0  0  0  0
 16 17  2  0  0  0  0
 17 18  1  0  0  0  0
 18 19  1  0  0  0  0
 18 20  1  0  0  0  0
 20 21  2  0  0  0  0
 21  3  1  0  0  0  0
 21  7  1  0  0  0  0
 20 11  1  0  0  0  0
 17 12  1  0  0  0  0
  1 22  1  0  0  0  0
  1 23  1  0  0  0  0
  1 24  1  0  0  0  0
  4 25  1  0  0  0  0
  5 26  1  0  0  0  0
  6 27  1  0  0  0  0
  8 28  1  0  0  0  0
 10 29  1  0  0  0  0
 10 30  1  0  0  0  0
 10 31  1  0  0  0  0
 13 32  1  0  0  0  0
 14 33  1  0  0  0  0
 15 34  1  0  0  0  0
 16 35  1  0  0  0  0
 19 36  1  0  0  0  0
 19 37  1  0  0  0  0
 19 38  1  0  0  0  0
M  END
