
  xtb     03022214433D
 energy: -76.234373400691 gnorm: 0.000100581395 xtb: 6.4.1 (afa7bdf)
 49 53  0     0  0            999 V2000
    7.9875   -0.1804    0.2781 C   0  0  0  0  0  0  0  0  0  0  0  0
    7.2783   -1.3166   -0.0740 C   0  0  0  0  0  0  0  0  0  0  0  0
    5.8970   -1.2878   -0.1197 C   0  0  0  0  0  0  0  0  0  0  0  0
    5.2022   -0.1182    0.1795 C   0  0  0  0  0  0  0  0  0  0  0  0
    3.7337   -0.0853    0.1278 C   0  0  0  0  0  0  0  0  0  0  0  0
    2.9784   -1.1411    0.6339 C   0  0  0  0  0  0  0  0  0  0  0  0
    1.5996   -1.1106    0.5853 C   0  0  0  0  0  0  0  0  0  0  0  0
    0.9306   -0.0219    0.0304 C   0  0  0  0  0  0  0  0  0  0  0  0
   -0.5371    0.0117   -0.0198 C   0  0  0  0  0  0  0  0  0  0  0  0
   -1.2747   -1.1306   -0.3198 C   0  0  0  0  0  0  0  0  0  0  0  0
   -2.6656   -1.0498   -0.3537 C   0  0  0  0  0  0  0  0  0  0  0  0
   -3.4789   -2.2412   -0.6700 C   0  0  0  0  0  0  0  0  0  0  0  0
   -3.1562   -3.4882   -0.1320 C   0  0  0  0  0  0  0  0  0  0  0  0
   -3.9491   -4.5757   -0.4528 C   0  0  0  0  0  0  0  0  0  0  0  0
   -5.0309   -4.3880   -1.2986 C   0  0  0  0  0  0  0  0  0  0  0  0
   -5.2669   -3.1074   -1.7785 C   0  0  0  0  0  0  0  0  0  0  0  0
   -4.5182   -2.0659   -1.4769 N   0  0  0  0  0  0  0  0  0  0  0  0
   -3.3220    0.0754   -0.1143 N   0  0  0  0  0  0  0  0  0  0  0  0
   -2.6326    1.1699    0.1706 C   0  0  0  0  0  0  0  0  0  0  0  0
   -3.4101    2.3978    0.4327 C   0  0  0  0  0  0  0  0  0  0  0  0
   -2.9958    3.6274   -0.0817 C   0  0  0  0  0  0  0  0  0  0  0  0
   -3.7583    4.7506    0.1857 C   0  0  0  0  0  0  0  0  0  0  0  0
   -4.9018    4.6142    0.9569 C   0  0  0  0  0  0  0  0  0  0  0  0
   -5.2272    3.3469    1.4195 C   0  0  0  0  0  0  0  0  0  0  0  0
   -4.5079    2.2718    1.1681 N   0  0  0  0  0  0  0  0  0  0  0  0
   -1.2404    1.1870    0.2312 C   0  0  0  0  0  0  0  0  0  0  0  0
    1.6850    1.0345   -0.4753 C   0  0  0  0  0  0  0  0  0  0  0  0
    3.0638    1.0026   -0.4281 C   0  0  0  0  0  0  0  0  0  0  0  0
    5.9257    1.0198    0.5288 C   0  0  0  0  0  0  0  0  0  0  0  0
    7.3066    0.9869    0.5809 C   0  0  0  0  0  0  0  0  0  0  0  0
    9.0665   -0.2046    0.3163 H   0  0  0  0  0  0  0  0  0  0  0  0
    7.8046   -2.2288   -0.3154 H   0  0  0  0  0  0  0  0  0  0  0  0
    5.3493   -2.1725   -0.4107 H   0  0  0  0  0  0  0  0  0  0  0  0
    3.4793   -1.9830    1.0893 H   0  0  0  0  0  0  0  0  0  0  0  0
    1.0313   -1.9281    1.0048 H   0  0  0  0  0  0  0  0  0  0  0  0
   -0.7740   -2.0563   -0.5604 H   0  0  0  0  0  0  0  0  0  0  0  0
   -2.3171   -3.5947    0.5387 H   0  0  0  0  0  0  0  0  0  0  0  0
   -3.7288   -5.5535   -0.0477 H   0  0  0  0  0  0  0  0  0  0  0  0
   -5.6734   -5.2098   -1.5745 H   0  0  0  0  0  0  0  0  0  0  0  0
   -6.0980   -2.9044   -2.4419 H   0  0  0  0  0  0  0  0  0  0  0  0
   -2.1095    3.6941   -0.6945 H   0  0  0  0  0  0  0  0  0  0  0  0
   -3.4673    5.7164   -0.2033 H   0  0  0  0  0  0  0  0  0  0  0  0
   -5.5234    5.4650    1.1893 H   0  0  0  0  0  0  0  0  0  0  0  0
   -6.1091    3.1835    2.0257 H   0  0  0  0  0  0  0  0  0  0  0  0
   -0.7153    2.0892    0.5065 H   0  0  0  0  0  0  0  0  0  0  0  0
    1.1847    1.8762   -0.9320 H   0  0  0  0  0  0  0  0  0  0  0  0
    3.6326    1.8203   -0.8464 H   0  0  0  0  0  0  0  0  0  0  0  0
    5.3988    1.9285    0.7819 H   0  0  0  0  0  0  0  0  0  0  0  0
    7.8547    1.8750    0.8604 H   0  0  0  0  0  0  0  0  0  0  0  0
  1  2  2  0  0  0  0
  2  3  1  0  0  0  0
  3  4  2  0  0  0  0
  4  5  1  0  0  0  0
  5  6  2  0  0  0  0
  6  7  1  0  0  0  0
  7  8  2  0  0  0  0
  8  9  1  0  0  0  0
  9 10  2  0  0  0  0
 10 11  1  0  0  0  0
 11 12  1  0  0  0  0
 12 13  2  0  0  0  0
 13 14  1  0  0  0  0
 14 15  2  0  0  0  0
 15 16  1  0  0  0  0
 16 17  2  0  0  0  0
 11 18  2  0  0  0  0
 18 19  1  0  0  0  0
 19 20  1  0  0  0  0
 20 21  2  0  0  0  0
 21 22  1  0  0  0  0
 22 23  2  0  0  0  0
 23 24  1  0  0  0  0
 24 25  2  0  0  0  0
 19 26  2  0  0  0  0
  8 27  1  0  0  0  0
 27 28  2  0  0  0  0
  4 29  1  0  0  0  0
 29 30  2  0  0  0  0
 30  1  1  0  0  0  0
 28  5  1  0  0  0  0
 26  9  1  0  0  0  0
 17 12  1  0  0  0  0
 25 20  1  0  0  0  0
  1 31  1  0  0  0  0
  2 32  1  0  0  0  0
  3 33  1  0  0  0  0
  6 34  1  0  0  0  0
  7 35  1  0  0  0  0
 10 36  1  0  0  0  0
 13 37  1  0  0  0  0
 14 38  1  0  0  0  0
 15 39  1  0  0  0  0
 16 40  1  0  0  0  0
 21 41  1  0  0  0  0
 22 42  1  0  0  0  0
 23 43  1  0  0  0  0
 24 44  1  0  0  0  0
 26 45  1  0  0  0  0
 27 46  1  0  0  0  0
 28 47  1  0  0  0  0
 29 48  1  0  0  0  0
 30 49  1  0  0  0  0
M  END
