
  xtb     03022215253D
 energy: -96.852452669692 gnorm: 0.000139770536 xtb: 6.4.1 (afa7bdf)
 67 68  0     0  0            999 V2000
   -0.5695   -4.1353    0.3300 C   0  0  0  0  0  0  0  0  0  0  0  0
   -1.4896   -3.4433   -0.6809 C   0  0  0  0  0  0  0  0  0  0  0  0
   -2.8874   -4.0585   -0.6232 C   0  0  0  0  0  0  0  0  0  0  0  0
   -0.9193   -3.5679   -2.0975 C   0  0  0  0  0  0  0  0  0  0  0  0
   -1.6393   -2.0375   -0.3253 N   0  0  0  0  0  0  0  0  0  0  0  0
   -0.6729   -1.1096   -0.2896 C   0  0  0  0  0  0  0  0  0  0  0  0
    0.5999   -1.4479   -0.5270 O   0  0  0  0  0  0  0  0  0  0  0  0
    1.3649   -0.3069   -0.4337 C   0  0  0  0  0  0  0  0  0  0  0  0
    2.7728   -0.3682   -0.6347 C   0  0  0  0  0  0  0  0  0  0  0  0
    3.4426   -1.5020   -0.9166 C   0  0  0  0  0  0  0  0  0  0  0  0
    4.8649   -1.6281   -1.1439 C   0  0  0  0  0  0  0  0  0  0  0  0
    5.7363   -0.5342   -1.1562 C   0  0  0  0  0  0  0  0  0  0  0  0
    7.0875   -0.7120   -1.3749 C   0  0  0  0  0  0  0  0  0  0  0  0
    7.6054   -1.9803   -1.5871 C   0  0  0  0  0  0  0  0  0  0  0  0
    6.7559   -3.0747   -1.5816 C   0  0  0  0  0  0  0  0  0  0  0  0
    5.4039   -2.9004   -1.3641 C   0  0  0  0  0  0  0  0  0  0  0  0
    0.5543    0.7598   -0.1188 C   0  0  0  0  0  0  0  0  0  0  0  0
    1.0187    2.1364    0.1473 C   0  0  0  0  0  0  0  0  0  0  0  0
    1.9191    2.6651   -0.4638 O   0  0  0  0  0  0  0  0  0  0  0  0
    0.3459    2.6527    1.1626 O   0  0  0  0  0  0  0  0  0  0  0  0
    0.4705    4.0475    1.5256 C   0  0  0  0  0  0  0  0  0  0  0  0
   -0.5590    4.2243    2.6415 C   0  0  0  0  0  0  0  0  0  0  0  0
    1.8823    4.3438    2.0299 C   0  0  0  0  0  0  0  0  0  0  0  0
    0.1076    4.9204    0.3257 C   0  0  0  0  0  0  0  0  0  0  0  0
   -0.7847    0.2568   -0.0311 C   0  0  0  0  0  0  0  0  0  0  0  0
   -2.0084    1.0220    0.1321 C   0  0  0  0  0  0  0  0  0  0  0  0
   -2.1050    2.2230    0.0474 O   0  0  0  0  0  0  0  0  0  0  0  0
   -3.0600    0.1927    0.3584 O   0  0  0  0  0  0  0  0  0  0  0  0
   -4.4002    0.7125    0.5254 C   0  0  0  0  0  0  0  0  0  0  0  0
   -4.4639    1.6332    1.7436 C   0  0  0  0  0  0  0  0  0  0  0  0
   -5.2550   -0.5365    0.7566 C   0  0  0  0  0  0  0  0  0  0  0  0
   -4.8529    1.4406   -0.7400 C   0  0  0  0  0  0  0  0  0  0  0  0
    0.4225   -3.6948    0.3030 H   0  0  0  0  0  0  0  0  0  0  0  0
   -0.9691   -4.0285    1.3358 H   0  0  0  0  0  0  0  0  0  0  0  0
   -0.4872   -5.1933    0.0969 H   0  0  0  0  0  0  0  0  0  0  0  0
   -3.5474   -3.5727   -1.3386 H   0  0  0  0  0  0  0  0  0  0  0  0
   -2.8411   -5.1167   -0.8645 H   0  0  0  0  0  0  0  0  0  0  0  0
   -3.3099   -3.9513    0.3733 H   0  0  0  0  0  0  0  0  0  0  0  0
   -0.8588   -4.6141   -2.3842 H   0  0  0  0  0  0  0  0  0  0  0  0
    0.0760   -3.1364   -2.1467 H   0  0  0  0  0  0  0  0  0  0  0  0
   -1.5580   -3.0476   -2.8078 H   0  0  0  0  0  0  0  0  0  0  0  0
   -2.5605   -1.6788   -0.1231 H   0  0  0  0  0  0  0  0  0  0  0  0
    3.2652    0.5886   -0.5593 H   0  0  0  0  0  0  0  0  0  0  0  0
    2.8800   -2.4256   -0.9804 H   0  0  0  0  0  0  0  0  0  0  0  0
    5.3504    0.4607   -0.9989 H   0  0  0  0  0  0  0  0  0  0  0  0
    7.7458    0.1448   -1.3819 H   0  0  0  0  0  0  0  0  0  0  0  0
    8.6634   -2.1142   -1.7574 H   0  0  0  0  0  0  0  0  0  0  0  0
    7.1512   -4.0666   -1.7482 H   0  0  0  0  0  0  0  0  0  0  0  0
    4.7466   -3.7590   -1.3611 H   0  0  0  0  0  0  0  0  0  0  0  0
   -0.3161    3.5784    3.4814 H   0  0  0  0  0  0  0  0  0  0  0  0
   -1.5405    3.9497    2.2654 H   0  0  0  0  0  0  0  0  0  0  0  0
   -0.5772    5.2568    2.9777 H   0  0  0  0  0  0  0  0  0  0  0  0
    2.6047    4.1947    1.2321 H   0  0  0  0  0  0  0  0  0  0  0  0
    1.9391    5.3739    2.3712 H   0  0  0  0  0  0  0  0  0  0  0  0
    2.1312    3.6826    2.8577 H   0  0  0  0  0  0  0  0  0  0  0  0
    0.8627    4.8324   -0.4507 H   0  0  0  0  0  0  0  0  0  0  0  0
   -0.8485    4.5913   -0.0752 H   0  0  0  0  0  0  0  0  0  0  0  0
    0.0330    5.9601    0.6326 H   0  0  0  0  0  0  0  0  0  0  0  0
   -4.0904    1.1139    2.6237 H   0  0  0  0  0  0  0  0  0  0  0  0
   -3.8562    2.5174    1.5751 H   0  0  0  0  0  0  0  0  0  0  0  0
   -5.4916    1.9381    1.9204 H   0  0  0  0  0  0  0  0  0  0  0  0
   -5.2140   -1.1891   -0.1127 H   0  0  0  0  0  0  0  0  0  0  0  0
   -4.8896   -1.0833    1.6225 H   0  0  0  0  0  0  0  0  0  0  0  0
   -6.2881   -0.2514    0.9306 H   0  0  0  0  0  0  0  0  0  0  0  0
   -5.8918    1.7415   -0.6368 H   0  0  0  0  0  0  0  0  0  0  0  0
   -4.7585    0.7858   -1.6043 H   0  0  0  0  0  0  0  0  0  0  0  0
   -4.2428    2.3243   -0.9033 H   0  0  0  0  0  0  0  0  0  0  0  0
  1  2  1  0  0  0  0
  2  3  1  0  0  0  0
  2  4  1  0  0  0  0
  2  5  1  0  0  0  0
  5  6  1  0  0  0  0
  6  7  1  0  0  0  0
  7  8  1  0  0  0  0
  8  9  1  0  0  0  0
  9 10  2  0  0  0  0
 10 11  1  0  0  0  0
 11 12  2  0  0  0  0
 12 13  1  0  0  0  0
 13 14  2  0  0  0  0
 14 15  1  0  0  0  0
 15 16  2  0  0  0  0
  8 17  2  0  0  0  0
 17 18  1  0  0  0  0
 18 19  2  0  0  0  0
 18 20  1  0  0  0  0
 20 21  1  0  0  0  0
 21 22  1  0  0  0  0
 21 23  1  0  0  0  0
 21 24  1  0  0  0  0
 17 25  1  0  0  0  0
 25 26  1  0  0  0  0
 26 27  2  0  0  0  0
 26 28  1  0  0  0  0
 28 29  1  0  0  0  0
 29 30  1  0  0  0  0
 29 31  1  0  0  0  0
 29 32  1  0  0  0  0
 25  6  2  0  0  0  0
 16 11  1  0  0  0  0
  1 33  1  0  0  0  0
  1 34  1  0  0  0  0
  1 35  1  0  0  0  0
  3 36  1  0  0  0  0
  3 37  1  0  0  0  0
  3 38  1  0  0  0  0
  4 39  1  0  0  0  0
  4 40  1  0  0  0  0
  4 41  1  0  0  0  0
  5 42  1  0  0  0  0
  9 43  1  0  0  0  0
 10 44  1  0  0  0  0
 12 45  1  0  0  0  0
 13 46  1  0  0  0  0
 14 47  1  0  0  0  0
 15 48  1  0  0  0  0
 16 49  1  0  0  0  0
 22 50  1  0  0  0  0
 22 51  1  0  0  0  0
 22 52  1  0  0  0  0
 23 53  1  0  0  0  0
 23 54  1  0  0  0  0
 23 55  1  0  0  0  0
 24 56  1  0  0  0  0
 24 57  1  0  0  0  0
 24 58  1  0  0  0  0
 30 59  1  0  0  0  0
 30 60  1  0  0  0  0
 30 61  1  0  0  0  0
 31 62  1  0  0  0  0
 31 63  1  0  0  0  0
 31 64  1  0  0  0  0
 32 65  1  0  0  0  0
 32 66  1  0  0  0  0
 32 67  1  0  0  0  0
M  END
