
  xtb     03022214503D
 energy: -128.385804742320 gnorm: 0.000183171292 xtb: 6.4.1 (afa7bdf)
 39 39  0     0  0            999 V2000
   -7.2997   -0.4632    0.2597 F   0  0  0  0  0  0  0  0  0  0  0  0
   -6.7125    0.0310    1.3415 C   0  0  0  0  0  0  0  0  0  0  0  0
   -7.3273   -0.4582    2.4082 F   0  0  0  0  0  0  0  0  0  0  0  0
   -6.8697    1.3490    1.3392 F   0  0  0  0  0  0  0  0  0  0  0  0
   -5.1983   -0.3573    1.3715 C   0  0  0  0  0  0  0  0  0  0  0  0
   -4.7157   -0.1310    2.6026 F   0  0  0  0  0  0  0  0  0  0  0  0
   -5.0913   -1.6723    1.1291 F   0  0  0  0  0  0  0  0  0  0  0  0
   -4.3622    0.4632    0.3393 C   0  0  0  0  0  0  0  0  0  0  0  0
   -5.0464    0.5805   -0.8091 F   0  0  0  0  0  0  0  0  0  0  0  0
   -4.1823    1.6996    0.8259 F   0  0  0  0  0  0  0  0  0  0  0  0
   -2.9818   -0.2081    0.0334 C   0  0  0  0  0  0  0  0  0  0  0  0
   -2.4499   -0.6879    1.1672 F   0  0  0  0  0  0  0  0  0  0  0  0
   -3.1920   -1.2466   -0.7880 F   0  0  0  0  0  0  0  0  0  0  0  0
   -1.9779    0.8008   -0.6099 C   0  0  0  0  0  0  0  0  0  0  0  0
   -1.5217    1.6272    0.3446 F   0  0  0  0  0  0  0  0  0  0  0  0
   -2.6248    1.5599   -1.5099 F   0  0  0  0  0  0  0  0  0  0  0  0
   -0.7609    0.1456   -1.3437 C   0  0  0  0  0  0  0  0  0  0  0  0
    0.0019    1.1600   -1.8022 F   0  0  0  0  0  0  0  0  0  0  0  0
   -1.2072   -0.5244   -2.4129 F   0  0  0  0  0  0  0  0  0  0  0  0
    0.1170   -0.7940   -0.4601 C   0  0  0  0  0  0  0  0  0  0  0  0
   -0.5505   -1.9435   -0.2730 F   0  0  0  0  0  0  0  0  0  0  0  0
    0.2791   -0.2363    0.7579 F   0  0  0  0  0  0  0  0  0  0  0  0
    1.5228   -1.0870   -1.0899 C   0  0  0  0  0  0  0  0  0  0  0  0
    1.3815   -1.1623   -2.4350 F   0  0  0  0  0  0  0  0  0  0  0  0
    1.8874   -2.3267   -0.6976 F   0  0  0  0  0  0  0  0  0  0  0  0
    2.5854   -0.0681   -0.7039 C   0  0  0  0  0  0  0  0  0  0  0  0
    3.9230   -0.4396   -1.3607 C   0  0  0  0  0  0  0  0  0  0  0  0
    4.8925    0.5782   -1.1678 O   0  0  0  0  0  0  0  0  0  0  0  0
    5.4312    0.6839    0.0271 C   0  0  0  0  0  0  0  0  0  0  0  0
    5.0435   -0.0963    1.0415 N   0  0  0  0  0  0  0  0  0  0  0  0
    5.7871   -0.1315    2.0999 N   0  0  0  0  0  0  0  0  0  0  0  0
    6.8775    0.6220    2.1158 C   0  0  0  0  0  0  0  0  0  0  0  0
    8.0146    0.4027    3.3411 Cl  0  0  0  0  0  0  0  0  0  0  0  0
    6.9942    1.6732    1.3035 N   0  0  0  0  0  0  0  0  0  0  0  0
    6.2608    1.7100    0.2504 N   0  0  0  0  0  0  0  0  0  0  0  0
    2.6987   -0.0726    0.3821 H   0  0  0  0  0  0  0  0  0  0  0  0
    2.2794    0.9243   -1.0380 H   0  0  0  0  0  0  0  0  0  0  0  0
    4.2842   -1.3896   -0.9520 H   0  0  0  0  0  0  0  0  0  0  0  0
    3.8099   -0.5146   -2.4446 H   0  0  0  0  0  0  0  0  0  0  0  0
  1  2  1  0  0  0  0
  2  3  1  0  0  0  0
  2  4  1  0  0  0  0
  2  5  1  0  0  0  0
  5  6  1  0  0  0  0
  5  7  1  0  0  0  0
  5  8  1  0  0  0  0
  8  9  1  0  0  0  0
  8 10  1  0  0  0  0
  8 11  1  0  0  0  0
 11 12  1  0  0  0  0
 11 13  1  0  0  0  0
 11 14  1  0  0  0  0
 14 15  1  0  0  0  0
 14 16  1  0  0  0  0
 14 17  1  0  0  0  0
 17 18  1  0  0  0  0
 17 19  1  0  0  0  0
 17 20  1  0  0  0  0
 20 21  1  0  0  0  0
 20 22  1  0  0  0  0
 20 23  1  0  0  0  0
 23 24  1  0  0  0  0
 23 25  1  0  0  0  0
 23 26  1  0  0  0  0
 26 27  1  0  0  0  0
 27 28  1  0  0  0  0
 28 29  1  0  0  0  0
 29 30  2  0  0  0  0
 30 31  1  0  0  0  0
 31 32  2  0  0  0  0
 32 33  1  0  0  0  0
 32 34  1  0  0  0  0
 34 35  2  0  0  0  0
 35 29  1  0  0  0  0
 26 36  1  0  0  0  0
 26 37  1  0  0  0  0
 27 38  1  0  0  0  0
 27 39  1  0  0  0  0
M  END
