
  xtb     03022213073D
 energy: -93.186571712041 gnorm: 0.000518733123 xtb: 6.4.1 (afa7bdf)
 55 58  0     0  0            999 V2000
   12.9740   -0.0068   -0.1353 C   0  0  0  0  0  0  0  0  0  0  0  0
   12.2818    1.6618    0.0413 S   0  0  0  0  0  0  0  0  0  0  0  0
   10.5376    1.4151   -0.0071 C   0  0  0  0  0  0  0  0  0  0  0  0
    9.7514    2.5624    0.1133 C   0  0  0  0  0  0  0  0  0  0  0  0
    8.3793    2.4733    0.0891 C   0  0  0  0  0  0  0  0  0  0  0  0
    7.7601    1.2272   -0.0573 C   0  0  0  0  0  0  0  0  0  0  0  0
    6.3598    1.1079   -0.0791 C   0  0  0  0  0  0  0  0  0  0  0  0
    5.1575    0.9773   -0.0987 C   0  0  0  0  0  0  0  0  0  0  0  0
    3.7698    0.7665   -0.1170 C   0  0  0  0  0  0  0  0  0  0  0  0
    2.8625    1.8194    0.0337 C   0  0  0  0  0  0  0  0  0  0  0  0
    1.5069    1.5820    0.0235 C   0  0  0  0  0  0  0  0  0  0  0  0
    1.0147    0.2790   -0.1413 C   0  0  0  0  0  0  0  0  0  0  0  0
   -0.3747    0.0592   -0.1372 C   0  0  0  0  0  0  0  0  0  0  0  0
   -1.5718   -0.1088   -0.1220 C   0  0  0  0  0  0  0  0  0  0  0  0
   -2.9700   -0.2376   -0.0771 C   0  0  0  0  0  0  0  0  0  0  0  0
   -3.6062   -1.4600   -0.3069 C   0  0  0  0  0  0  0  0  0  0  0  0
   -4.9785   -1.5559   -0.2450 C   0  0  0  0  0  0  0  0  0  0  0  0
   -5.7566   -0.4283    0.0524 C   0  0  0  0  0  0  0  0  0  0  0  0
   -7.1569   -0.5534    0.1213 C   0  0  0  0  0  0  0  0  0  0  0  0
   -8.3564   -0.6845    0.1833 C   0  0  0  0  0  0  0  0  0  0  0  0
   -9.7448   -0.9085    0.2401 C   0  0  0  0  0  0  0  0  0  0  0  0
  -10.6380    0.0966    0.6077 C   0  0  0  0  0  0  0  0  0  0  0  0
  -11.9943   -0.1638    0.6561 C   0  0  0  0  0  0  0  0  0  0  0  0
  -12.4831   -1.4246    0.3396 C   0  0  0  0  0  0  0  0  0  0  0  0
  -11.6141   -2.4350   -0.0286 C   0  0  0  0  0  0  0  0  0  0  0  0
  -10.2456   -2.1861   -0.0806 C   0  0  0  0  0  0  0  0  0  0  0  0
   -9.3393   -3.2036   -0.4532 C   0  0  0  0  0  0  0  0  0  0  0  0
   -8.5963   -4.0239   -0.7535 N   0  0  0  0  0  0  0  0  0  0  0  0
   -5.1381    0.8006    0.2796 C   0  0  0  0  0  0  0  0  0  0  0  0
   -3.7552    0.8981    0.2144 C   0  0  0  0  0  0  0  0  0  0  0  0
   -3.1126    2.1361    0.4418 C   0  0  0  0  0  0  0  0  0  0  0  0
   -2.5859    3.1384    0.6221 N   0  0  0  0  0  0  0  0  0  0  0  0
    1.9050   -0.7826   -0.2985 C   0  0  0  0  0  0  0  0  0  0  0  0
    3.2721   -0.5438   -0.2855 C   0  0  0  0  0  0  0  0  0  0  0  0
    4.1850   -1.6112   -0.4385 C   0  0  0  0  0  0  0  0  0  0  0  0
    4.9274   -2.4769   -0.5589 N   0  0  0  0  0  0  0  0  0  0  0  0
    8.5513    0.0823   -0.1791 C   0  0  0  0  0  0  0  0  0  0  0  0
    9.9275    0.1742   -0.1540 C   0  0  0  0  0  0  0  0  0  0  0  0
   12.6554   -0.6318    0.6939 H   0  0  0  0  0  0  0  0  0  0  0  0
   14.0518    0.1211   -0.1066 H   0  0  0  0  0  0  0  0  0  0  0  0
   12.6792   -0.4333   -1.0897 H   0  0  0  0  0  0  0  0  0  0  0  0
   10.2384    3.5192    0.2264 H   0  0  0  0  0  0  0  0  0  0  0  0
    7.7736    3.3624    0.1833 H   0  0  0  0  0  0  0  0  0  0  0  0
    3.2421    2.8223    0.1611 H   0  0  0  0  0  0  0  0  0  0  0  0
    0.8051    2.3940    0.1439 H   0  0  0  0  0  0  0  0  0  0  0  0
   -3.0062   -2.3289   -0.5331 H   0  0  0  0  0  0  0  0  0  0  0  0
   -5.4725   -2.4996   -0.4227 H   0  0  0  0  0  0  0  0  0  0  0  0
  -10.2554    1.0761    0.8538 H   0  0  0  0  0  0  0  0  0  0  0  0
  -12.6789    0.6204    0.9431 H   0  0  0  0  0  0  0  0  0  0  0  0
  -13.5441   -1.6183    0.3808 H   0  0  0  0  0  0  0  0  0  0  0  0
  -11.9834   -3.4192   -0.2770 H   0  0  0  0  0  0  0  0  0  0  0  0
   -5.7310    1.6748    0.5065 H   0  0  0  0  0  0  0  0  0  0  0  0
    1.5341   -1.7894   -0.4267 H   0  0  0  0  0  0  0  0  0  0  0  0
    8.0736   -0.8798   -0.2927 H   0  0  0  0  0  0  0  0  0  0  0  0
   10.5127   -0.7263   -0.2492 H   0  0  0  0  0  0  0  0  0  0  0  0
  1  2  1  0  0  0  0
  2  3  1  0  0  0  0
  3  4  2  0  0  0  0
  4  5  1  0  0  0  0
  5  6  2  0  0  0  0
  6  7  1  0  0  0  0
  7  8  3  0  0  0  0
  8  9  1  0  0  0  0
  9 10  2  0  0  0  0
 10 11  1  0  0  0  0
 11 12  2  0  0  0  0
 12 13  1  0  0  0  0
 13 14  3  0  0  0  0
 14 15  1  0  0  0  0
 15 16  2  0  0  0  0
 16 17  1  0  0  0  0
 17 18  2  0  0  0  0
 18 19  1  0  0  0  0
 19 20  3  0  0  0  0
 20 21  1  0  0  0  0
 21 22  2  0  0  0  0
 22 23  1  0  0  0  0
 23 24  2  0  0  0  0
 24 25  1  0  0  0  0
 25 26  2  0  0  0  0
 26 27  1  0  0  0  0
 27 28  3  0  0  0  0
 18 29  1  0  0  0  0
 29 30  2  0  0  0  0
 30 31  1  0  0  0  0
 31 32  3  0  0  0  0
 12 33  1  0  0  0  0
 33 34  2  0  0  0  0
 34 35  1  0  0  0  0
 35 36  3  0  0  0  0
  6 37  1  0  0  0  0
 37 38  2  0  0  0  0
 38  3  1  0  0  0  0
 34  9  1  0  0  0  0
 30 15  1  0  0  0  0
 26 21  1  0  0  0  0
  1 39  1  0  0  0  0
  1 40  1  0  0  0  0
  1 41  1  0  0  0  0
  4 42  1  0  0  0  0
  5 43  1  0  0  0  0
 10 44  1  0  0  0  0
 11 45  1  0  0  0  0
 16 46  1  0  0  0  0
 17 47  1  0  0  0  0
 22 48  1  0  0  0  0
 23 49  1  0  0  0  0
 24 50  1  0  0  0  0
 25 51  1  0  0  0  0
 29 52  1  0  0  0  0
 33 53  1  0  0  0  0
 37 54  1  0  0  0  0
 38 55  1  0  0  0  0
M  END
