
  xtb     03022215323D
 energy: -75.840106750054 gnorm: 0.000076978993 xtb: 6.4.1 (afa7bdf)
 56 60  0     0  0            999 V2000
   -5.4669   -0.6499    1.8216 C   0  0  0  0  0  0  0  0  0  0  0  0
   -4.3588   -0.9986    0.8124 C   0  0  0  0  0  0  0  0  0  0  0  0
   -4.2449   -2.5307    0.7448 C   0  0  0  0  0  0  0  0  0  0  0  0
   -3.0226   -0.3973    1.2664 C   0  0  0  0  0  0  0  0  0  0  0  0
   -2.1189   -0.1538    0.0584 C   0  0  0  0  0  0  0  0  0  0  0  0
   -0.8392    0.2923    0.5122 N   0  0  0  0  0  0  0  0  0  0  0  0
    0.2153   -0.2582    0.0865 C   0  0  0  0  0  0  0  0  0  0  0  0
    1.5256    0.1777    0.5398 C   0  0  0  0  0  0  0  0  0  0  0  0
    1.5819    0.9782    1.6842 C   0  0  0  0  0  0  0  0  0  0  0  0
    2.7780    1.4081    2.2061 C   0  0  0  0  0  0  0  0  0  0  0  0
    3.9863    1.0578    1.5962 C   0  0  0  0  0  0  0  0  0  0  0  0
    5.2401    1.4828    2.1205 C   0  0  0  0  0  0  0  0  0  0  0  0
    6.4045    1.1504    1.5169 C   0  0  0  0  0  0  0  0  0  0  0  0
    6.4162    0.3633    0.3292 C   0  0  0  0  0  0  0  0  0  0  0  0
    7.6052    0.0158   -0.3147 C   0  0  0  0  0  0  0  0  0  0  0  0
    7.5894   -0.7455   -1.4687 C   0  0  0  0  0  0  0  0  0  0  0  0
    6.3914   -1.1770   -2.0068 C   0  0  0  0  0  0  0  0  0  0  0  0
    5.1793   -0.8544   -1.3945 C   0  0  0  0  0  0  0  0  0  0  0  0
    3.9263   -1.2751   -1.9221 C   0  0  0  0  0  0  0  0  0  0  0  0
    2.7598   -0.9537   -1.3150 C   0  0  0  0  0  0  0  0  0  0  0  0
    2.7223   -0.1821   -0.1158 C   0  0  0  0  0  0  0  0  0  0  0  0
    3.9598    0.2636    0.4224 C   0  0  0  0  0  0  0  0  0  0  0  0
    5.1815   -0.0761   -0.2116 C   0  0  0  0  0  0  0  0  0  0  0  0
   -2.7370    0.9589   -0.7957 C   0  0  0  0  0  0  0  0  0  0  0  0
   -4.2525    0.7588   -1.0202 C   0  0  0  0  0  0  0  0  0  0  0  0
   -4.5506    0.7606   -2.5267 C   0  0  0  0  0  0  0  0  0  0  0  0
   -5.0354    1.9209   -0.3773 C   0  0  0  0  0  0  0  0  0  0  0  0
   -4.6507   -0.5548   -0.5433 N   0  0  0  0  0  0  0  0  0  0  0  0
   -6.4065   -1.1114    1.5213 H   0  0  0  0  0  0  0  0  0  0  0  0
   -5.6185    0.4233    1.8913 H   0  0  0  0  0  0  0  0  0  0  0  0
   -5.2021   -1.0226    2.8084 H   0  0  0  0  0  0  0  0  0  0  0  0
   -4.0550   -2.9461    1.7312 H   0  0  0  0  0  0  0  0  0  0  0  0
   -5.1680   -2.9568    0.3589 H   0  0  0  0  0  0  0  0  0  0  0  0
   -3.4362   -2.8174    0.0792 H   0  0  0  0  0  0  0  0  0  0  0  0
   -3.1753    0.5563    1.7731 H   0  0  0  0  0  0  0  0  0  0  0  0
   -2.5302   -1.0717    1.9682 H   0  0  0  0  0  0  0  0  0  0  0  0
   -2.0472   -1.0778   -0.5419 H   0  0  0  0  0  0  0  0  0  0  0  0
    0.1722   -1.0943   -0.6262 H   0  0  0  0  0  0  0  0  0  0  0  0
    0.6450    1.2406    2.1501 H   0  0  0  0  0  0  0  0  0  0  0  0
    2.7962    2.0194    3.0971 H   0  0  0  0  0  0  0  0  0  0  0  0
    5.2354    2.0834    3.0194 H   0  0  0  0  0  0  0  0  0  0  0  0
    7.3519    1.4777    1.9215 H   0  0  0  0  0  0  0  0  0  0  0  0
    8.5448    0.3512    0.1006 H   0  0  0  0  0  0  0  0  0  0  0  0
    8.5197   -1.0035   -1.9539 H   0  0  0  0  0  0  0  0  0  0  0  0
    6.3834   -1.7698   -2.9104 H   0  0  0  0  0  0  0  0  0  0  0  0
    3.9271   -1.8603   -2.8312 H   0  0  0  0  0  0  0  0  0  0  0  0
    1.8321   -1.2827   -1.7565 H   0  0  0  0  0  0  0  0  0  0  0  0
   -2.2133    0.9954   -1.7520 H   0  0  0  0  0  0  0  0  0  0  0  0
   -2.5537    1.9048   -0.2843 H   0  0  0  0  0  0  0  0  0  0  0  0
   -5.6216    0.6821   -2.7035 H   0  0  0  0  0  0  0  0  0  0  0  0
   -4.0622   -0.0879   -2.9984 H   0  0  0  0  0  0  0  0  0  0  0  0
   -4.1920    1.6782   -2.9858 H   0  0  0  0  0  0  0  0  0  0  0  0
   -6.1069    1.7360   -0.4405 H   0  0  0  0  0  0  0  0  0  0  0  0
   -4.7640    2.0497    0.6669 H   0  0  0  0  0  0  0  0  0  0  0  0
   -4.8167    2.8489   -0.9009 H   0  0  0  0  0  0  0  0  0  0  0  0
   -5.6244   -0.7268   -0.7645 H   0  0  0  0  0  0  0  0  0  0  0  0
  1  2  1  0  0  0  0
  2  3  1  0  0  0  0
  2  4  1  0  0  0  0
  4  5  1  0  0  0  0
  5  6  1  0  0  0  0
  6  7  2  0  0  0  0
  7  8  1  0  0  0  0
  8  9  2  0  0  0  0
  9 10  1  0  0  0  0
 10 11  2  0  0  0  0
 11 12  1  0  0  0  0
 12 13  2  0  0  0  0
 13 14  1  0  0  0  0
 14 15  2  0  0  0  0
 15 16  1  0  0  0  0
 16 17  2  0  0  0  0
 17 18  1  0  0  0  0
 18 19  2  0  0  0  0
 19 20  1  0  0  0  0
 20 21  2  0  0  0  0
 21 22  1  0  0  0  0
 22 23  2  0  0  0  0
  5 24  1  0  0  0  0
 24 25  1  0  0  0  0
 25 26  1  0  0  0  0
 25 27  1  0  0  0  0
 25 28  1  0  0  0  0
 28  2  1  0  0  0  0
 21  8  1  0  0  0  0
 22 11  1  0  0  0  0
 23 14  1  0  0  0  0
 23 18  1  0  0  0  0
  1 29  1  0  0  0  0
  1 30  1  0  0  0  0
  1 31  1  0  0  0  0
  3 32  1  0  0  0  0
  3 33  1  0  0  0  0
  3 34  1  0  0  0  0
  4 35  1  0  0  0  0
  4 36  1  0  0  0  0
  5 37  1  0  0  0  0
  7 38  1  0  0  0  0
  9 39  1  0  0  0  0
 10 40  1  0  0  0  0
 12 41  1  0  0  0  0
 13 42  1  0  0  0  0
 15 43  1  0  0  0  0
 16 44  1  0  0  0  0
 17 45  1  0  0  0  0
 19 46  1  0  0  0  0
 20 47  1  0  0  0  0
 24 48  1  0  0  0  0
 24 49  1  0  0  0  0
 26 50  1  0  0  0  0
 26 51  1  0  0  0  0
 26 52  1  0  0  0  0
 27 53  1  0  0  0  0
 27 54  1  0  0  0  0
 27 55  1  0  0  0  0
 28 56  1  0  0  0  0
M  END
