
  xtb     03022214273D
 energy: -94.265791073356 gnorm: 0.000147610520 xtb: 6.4.1 (afa7bdf)
 58 63  0     0  0            999 V2000
    7.0449   -3.3109    0.4032 C   0  0  0  0  0  0  0  0  0  0  0  0
    5.7483   -2.5666    0.3100 C   0  0  0  0  0  0  0  0  0  0  0  0
    5.5436   -1.6072   -0.6737 C   0  0  0  0  0  0  0  0  0  0  0  0
    4.3555   -0.9052   -0.7469 C   0  0  0  0  0  0  0  0  0  0  0  0
    3.3329   -1.1494    0.1650 C   0  0  0  0  0  0  0  0  0  0  0  0
    2.0558   -0.4264    0.0871 C   0  0  0  0  0  0  0  0  0  0  0  0
    2.0256    0.9685    0.0929 C   0  0  0  0  0  0  0  0  0  0  0  0
    3.1026    1.8776    0.0876 C   0  0  0  0  0  0  0  0  0  0  0  0
    2.5732    3.1364   -0.0484 C   0  0  0  0  0  0  0  0  0  0  0  0
    1.1675    2.9979   -0.0863 C   0  0  0  0  0  0  0  0  0  0  0  0
    0.3351    4.0518   -0.2744 N   0  0  0  0  0  0  0  0  0  0  0  0
   -1.0397    4.1819   -0.0141 C   0  0  0  0  0  0  0  0  0  0  0  0
   -1.5559    3.8757    1.2384 C   0  0  0  0  0  0  0  0  0  0  0  0
   -2.9055    4.0459    1.4841 C   0  0  0  0  0  0  0  0  0  0  0  0
   -3.7392    4.5474    0.4992 C   0  0  0  0  0  0  0  0  0  0  0  0
   -3.2165    4.8897   -0.7371 C   0  0  0  0  0  0  0  0  0  0  0  0
   -1.8707    4.7134   -0.9948 C   0  0  0  0  0  0  0  0  0  0  0  0
    0.8404    1.6946    0.0119 N   0  0  0  0  0  4  0  0  0  0  0  0
   -0.5435    1.0198    0.0284 B   0  0  0  0  0  4  0  0  0  0  0  0
   -1.2068    1.2187    1.2319 F   0  0  0  0  0  0  0  0  0  0  0  0
   -1.3395    1.5088   -1.0064 F   0  0  0  0  0  0  0  0  0  0  0  0
   -0.3437   -0.4951   -0.1424 N   0  0  0  0  0  0  0  0  0  0  0  0
   -1.3132   -1.4161   -0.3038 C   0  0  0  0  0  0  0  0  0  0  0  0
   -2.6004   -1.0246   -0.4447 N   0  0  0  0  0  0  0  0  0  0  0  0
   -3.7634   -1.7740   -0.3959 C   0  0  0  0  0  0  0  0  0  0  0  0
   -4.9161   -1.2292   -0.9672 C   0  0  0  0  0  0  0  0  0  0  0  0
   -6.1063   -1.9269   -0.9439 C   0  0  0  0  0  0  0  0  0  0  0  0
   -6.1734   -3.1759   -0.3464 C   0  0  0  0  0  0  0  0  0  0  0  0
   -5.0412   -3.7080    0.2465 C   0  0  0  0  0  0  0  0  0  0  0  0
   -3.8443   -3.0166    0.2310 C   0  0  0  0  0  0  0  0  0  0  0  0
   -0.7239   -2.6995   -0.3552 C   0  0  0  0  0  0  0  0  0  0  0  0
    0.6316   -2.5268   -0.1951 C   0  0  0  0  0  0  0  0  0  0  0  0
    0.8695   -1.1445   -0.0475 C   0  0  0  0  0  0  0  0  0  0  0  0
    3.5317   -2.1167    1.1470 C   0  0  0  0  0  0  0  0  0  0  0  0
    4.7247   -2.8087    1.2190 C   0  0  0  0  0  0  0  0  0  0  0  0
    7.5532   -3.3292   -0.5578 H   0  0  0  0  0  0  0  0  0  0  0  0
    6.8813   -4.3333    0.7368 H   0  0  0  0  0  0  0  0  0  0  0  0
    7.7022   -2.8245    1.1249 H   0  0  0  0  0  0  0  0  0  0  0  0
    6.3236   -1.4104   -1.3957 H   0  0  0  0  0  0  0  0  0  0  0  0
    4.2032   -0.1801   -1.5325 H   0  0  0  0  0  0  0  0  0  0  0  0
    4.1380    1.6133    0.1726 H   0  0  0  0  0  0  0  0  0  0  0  0
    3.0997    4.0694   -0.1023 H   0  0  0  0  0  0  0  0  0  0  0  0
    0.7665    4.8406   -0.7343 H   0  0  0  0  0  0  0  0  0  0  0  0
   -0.9023    3.4949    2.0065 H   0  0  0  0  0  0  0  0  0  0  0  0
   -3.3048    3.7895    2.4536 H   0  0  0  0  0  0  0  0  0  0  0  0
   -4.7933    4.6771    0.6952 H   0  0  0  0  0  0  0  0  0  0  0  0
   -3.8608    5.2895   -1.5067 H   0  0  0  0  0  0  0  0  0  0  0  0
   -1.4599    4.9685   -1.9611 H   0  0  0  0  0  0  0  0  0  0  0  0
   -2.7217   -0.0303   -0.5932 H   0  0  0  0  0  0  0  0  0  0  0  0
   -4.8626   -0.2539   -1.4291 H   0  0  0  0  0  0  0  0  0  0  0  0
   -6.9876   -1.4950   -1.3945 H   0  0  0  0  0  0  0  0  0  0  0  0
   -7.1038   -3.7228   -0.3318 H   0  0  0  0  0  0  0  0  0  0  0  0
   -5.0909   -4.6692    0.7369 H   0  0  0  0  0  0  0  0  0  0  0  0
   -2.9826   -3.4220    0.7352 H   0  0  0  0  0  0  0  0  0  0  0  0
   -1.2362   -3.6218   -0.5388 H   0  0  0  0  0  0  0  0  0  0  0  0
    1.3855   -3.2893   -0.1992 H   0  0  0  0  0  0  0  0  0  0  0  0
    2.7483   -2.3089    1.8649 H   0  0  0  0  0  0  0  0  0  0  0  0
    4.8654   -3.5514    1.9915 H   0  0  0  0  0  0  0  0  0  0  0  0
  1  2  1  0  0  0  0
  2  3  2  0  0  0  0
  3  4  1  0  0  0  0
  4  5  2  0  0  0  0
  5  6  1  0  0  0  0
  6  7  2  0  0  0  0
  7  8  1  0  0  0  0
  8  9  2  0  0  0  0
  9 10  1  0  0  0  0
 10 11  1  0  0  0  0
 11 12  1  0  0  0  0
 12 13  2  0  0  0  0
 13 14  1  0  0  0  0
 14 15  2  0  0  0  0
 15 16  1  0  0  0  0
 16 17  2  0  0  0  0
 10 18  2  0  0  0  0
 18 19  1  0  0  0  0
 19 20  1  0  0  0  0
 19 21  1  0  0  0  0
 19 22  1  0  0  0  0
 22 23  1  0  0  0  0
 23 24  1  0  0  0  0
 24 25  1  0  0  0  0
 25 26  2  0  0  0  0
 26 27  1  0  0  0  0
 27 28  2  0  0  0  0
 28 29  1  0  0  0  0
 29 30  2  0  0  0  0
 23 31  2  0  0  0  0
 31 32  1  0  0  0  0
 32 33  2  0  0  0  0
  5 34  1  0  0  0  0
 34 35  2  0  0  0  0
 35  2  1  0  0  0  0
 33  6  1  0  0  0  0
 18  7  1  0  0  0  0
 33 22  1  0  0  0  0
 17 12  1  0  0  0  0
 30 25  1  0  0  0  0
  1 36  1  0  0  0  0
  1 37  1  0  0  0  0
  1 38  1  0  0  0  0
  3 39  1  0  0  0  0
  4 40  1  0  0  0  0
  8 41  1  0  0  0  0
  9 42  1  0  0  0  0
 11 43  1  0  0  0  0
 13 44  1  0  0  0  0
 14 45  1  0  0  0  0
 15 46  1  0  0  0  0
 16 47  1  0  0  0  0
 17 48  1  0  0  0  0
 24 49  1  0  0  0  0
 26 50  1  0  0  0  0
 27 51  1  0  0  0  0
 28 52  1  0  0  0  0
 29 53  1  0  0  0  0
 30 54  1  0  0  0  0
 31 55  1  0  0  0  0
 32 56  1  0  0  0  0
 34 57  1  0  0  0  0
 35 58  1  0  0  0  0
M  CHG  1  18   1
M  CHG  1  19  -1
M  END
