
  xtb     03022215423D
 energy: -150.455493234056 gnorm: 0.000095394341 xtb: 6.4.1 (afa7bdf)
 92101  0     0  0            999 V2000
    8.6140    3.7545    0.1645 C   0  0  0  0  0  0  0  0  0  0  0  0
    7.2343    3.5323    0.3198 O   0  0  0  0  0  0  0  0  0  0  0  0
    6.7092    2.3583   -0.1319 C   0  0  0  0  0  0  0  0  0  0  0  0
    7.4366    1.3378   -0.7438 C   0  0  0  0  0  0  0  0  0  0  0  0
    6.8011    0.1886   -1.1630 C   0  0  0  0  0  0  0  0  0  0  0  0
    5.4267   -0.0094   -1.0003 C   0  0  0  0  0  0  0  0  0  0  0  0
    4.7021    1.0303   -0.3803 C   0  0  0  0  0  0  0  0  0  0  0  0
    5.3441    2.1898    0.0426 C   0  0  0  0  0  0  0  0  0  0  0  0
    3.2908    0.8570   -0.1991 C   0  0  0  0  0  0  0  0  0  0  0  0
    2.6071   -0.3227   -0.6214 C   0  0  0  0  0  0  0  0  0  0  0  0
    3.3353   -1.3870   -1.2511 C   0  0  0  0  0  0  0  0  0  0  0  0
    2.7345   -2.5686   -1.6850 C   0  0  0  0  0  0  0  0  0  0  0  0
    3.4596   -3.5845   -2.2904 C   0  0  0  0  0  0  0  0  0  0  0  0
    2.7516   -4.6825   -2.6629 O   0  0  0  0  0  0  0  0  0  0  0  0
    3.4330   -5.7498   -3.2710 C   0  0  0  0  0  0  0  0  0  0  0  0
    4.8309   -3.4186   -2.4730 C   0  0  0  0  0  0  0  0  0  0  0  0
    5.4369   -2.2561   -2.0487 C   0  0  0  0  0  0  0  0  0  0  0  0
    4.7387   -1.2151   -1.4339 C   0  0  0  0  0  0  0  0  0  0  0  0
    1.2948   -0.1993   -0.3202 N   0  0  0  0  0  4  0  0  0  0  0  0
    1.1174    1.0267    0.2852 C   0  0  0  0  0  0  0  0  0  0  0  0
   -0.1235    1.4745    0.7246 C   0  0  0  0  0  0  0  0  0  0  0  0
   -0.2359    2.7997    1.3695 C   0  0  0  0  0  0  0  0  0  0  0  0
   -0.0105    2.9216    2.7411 C   0  0  0  0  0  0  0  0  0  0  0  0
    0.3394    1.7122    3.5538 C   0  0  0  0  0  0  0  0  0  0  0  0
   -0.1182    4.1724    3.3291 C   0  0  0  0  0  0  0  0  0  0  0  0
   -0.4426    5.2974    2.5841 C   0  0  0  0  0  0  0  0  0  0  0  0
   -0.5766    6.6372    3.2416 C   0  0  0  0  0  0  0  0  0  0  0  0
   -0.6627    5.1521    1.2217 C   0  0  0  0  0  0  0  0  0  0  0  0
   -0.5644    3.9167    0.6005 C   0  0  0  0  0  0  0  0  0  0  0  0
   -0.7987    3.7703   -0.8723 C   0  0  0  0  0  0  0  0  0  0  0  0
   -1.2601    0.6898    0.5629 C   0  0  0  0  0  0  0  0  0  0  0  0
   -2.5771    0.9956    0.9483 C   0  0  0  0  0  0  0  0  0  0  0  0
   -3.3547   -0.0842    0.5761 C   0  0  0  0  0  0  0  0  0  0  0  0
   -4.7633   -0.3080    0.7193 C   0  0  0  0  0  0  0  0  0  0  0  0
   -5.5859    0.6448    1.3117 C   0  0  0  0  0  0  0  0  0  0  0  0
   -6.9490    0.4309    1.4474 C   0  0  0  0  0  0  0  0  0  0  0  0
   -7.6600    1.4309    2.0413 O   0  0  0  0  0  0  0  0  0  0  0  0
   -9.0469    1.2645    2.2021 C   0  0  0  0  0  0  0  0  0  0  0  0
   -7.4888   -0.7657    0.9767 C   0  0  0  0  0  0  0  0  0  0  0  0
   -6.6741   -1.7104    0.3899 C   0  0  0  0  0  0  0  0  0  0  0  0
   -5.2970   -1.5225    0.2394 C   0  0  0  0  0  0  0  0  0  0  0  0
   -4.4215   -2.5062   -0.3779 C   0  0  0  0  0  0  0  0  0  0  0  0
   -4.9284   -3.7165   -0.8549 C   0  0  0  0  0  0  0  0  0  0  0  0
   -4.1405   -4.6781   -1.4492 C   0  0  0  0  0  0  0  0  0  0  0  0
   -2.7726   -4.4539   -1.5909 C   0  0  0  0  0  0  0  0  0  0  0  0
   -1.8959   -5.3224   -2.1589 O   0  0  0  0  0  0  0  0  0  0  0  0
   -2.3824   -6.5428   -2.6562 C   0  0  0  0  0  0  0  0  0  0  0  0
   -2.2351   -3.2626   -1.1259 C   0  0  0  0  0  0  0  0  0  0  0  0
   -3.0212   -2.2809   -0.5227 C   0  0  0  0  0  0  0  0  0  0  0  0
   -2.4888   -1.0412   -0.0335 C   0  0  0  0  0  0  0  0  0  0  0  0
   -1.2277   -0.5538   -0.0316 N   0  0  0  0  0  0  0  0  0  0  0  0
    0.1012   -1.1691   -0.5587 B   0  0  0  0  0  4  0  0  0  0  0  0
   -0.0232   -1.3831   -1.9202 F   0  0  0  0  0  0  0  0  0  0  0  0
    0.3439   -2.3433    0.1324 F   0  0  0  0  0  0  0  0  0  0  0  0
    2.3508    1.6968    0.3669 C   0  0  0  0  0  0  0  0  0  0  0  0
    8.9064    3.7536   -0.8908 H   0  0  0  0  0  0  0  0  0  0  0  0
    8.8034    4.7397    0.5879 H   0  0  0  0  0  0  0  0  0  0  0  0
    9.2061    3.0096    0.7064 H   0  0  0  0  0  0  0  0  0  0  0  0
    8.5004    1.4302   -0.8978 H   0  0  0  0  0  0  0  0  0  0  0  0
    7.4115   -0.5676   -1.6294 H   0  0  0  0  0  0  0  0  0  0  0  0
    4.7869    2.9815    0.5160 H   0  0  0  0  0  0  0  0  0  0  0  0
    1.6841   -2.7394   -1.5664 H   0  0  0  0  0  0  0  0  0  0  0  0
    3.8965   -5.4483   -4.2167 H   0  0  0  0  0  0  0  0  0  0  0  0
    4.1985   -6.1704   -2.6098 H   0  0  0  0  0  0  0  0  0  0  0  0
    2.6762   -6.5071   -3.4691 H   0  0  0  0  0  0  0  0  0  0  0  0
    5.4326   -4.1823   -2.9408 H   0  0  0  0  0  0  0  0  0  0  0  0
    6.4992   -2.1690   -2.2091 H   0  0  0  0  0  0  0  0  0  0  0  0
    1.2739    1.2750    3.2037 H   0  0  0  0  0  0  0  0  0  0  0  0
    0.4477    1.9714    4.6038 H   0  0  0  0  0  0  0  0  0  0  0  0
   -0.4347    0.9518    3.4578 H   0  0  0  0  0  0  0  0  0  0  0  0
    0.0556    4.2718    4.3912 H   0  0  0  0  0  0  0  0  0  0  0  0
   -1.6043    6.7863    3.5748 H   0  0  0  0  0  0  0  0  0  0  0  0
   -0.3292    7.4369    2.5475 H   0  0  0  0  0  0  0  0  0  0  0  0
    0.0724    6.7096    4.1112 H   0  0  0  0  0  0  0  0  0  0  0  0
   -0.9152    6.0205    0.6298 H   0  0  0  0  0  0  0  0  0  0  0  0
    0.0767    3.3385   -1.3562 H   0  0  0  0  0  0  0  0  0  0  0  0
   -1.0102    4.7348   -1.3267 H   0  0  0  0  0  0  0  0  0  0  0  0
   -1.6397    3.1036   -1.0600 H   0  0  0  0  0  0  0  0  0  0  0  0
   -2.8760    1.9027    1.4348 H   0  0  0  0  0  0  0  0  0  0  0  0
   -5.1742    1.5714    1.6768 H   0  0  0  0  0  0  0  0  0  0  0  0
   -9.5545    1.1548    1.2381 H   0  0  0  0  0  0  0  0  0  0  0  0
   -9.3980    2.1723    2.6906 H   0  0  0  0  0  0  0  0  0  0  0  0
   -9.2789    0.4019    2.8354 H   0  0  0  0  0  0  0  0  0  0  0  0
   -8.5445   -0.9701    1.0630 H   0  0  0  0  0  0  0  0  0  0  0  0
   -7.1441   -2.6165    0.0433 H   0  0  0  0  0  0  0  0  0  0  0  0
   -5.9809   -3.9307   -0.7647 H   0  0  0  0  0  0  0  0  0  0  0  0
   -4.5997   -5.5911   -1.7951 H   0  0  0  0  0  0  0  0  0  0  0  0
   -3.1180   -6.3906   -3.4536 H   0  0  0  0  0  0  0  0  0  0  0  0
   -1.5156   -7.0609   -3.0634 H   0  0  0  0  0  0  0  0  0  0  0  0
   -2.8277   -7.1544   -1.8639 H   0  0  0  0  0  0  0  0  0  0  0  0
   -1.1799   -3.1344   -1.2545 H   0  0  0  0  0  0  0  0  0  0  0  0
    2.4896    2.6706    0.7925 H   0  0  0  0  0  0  0  0  0  0  0  0
  1  2  1  0  0  0  0
  2  3  1  0  0  0  0
  3  4  2  0  0  0  0
  4  5  1  0  0  0  0
  5  6  2  0  0  0  0
  6  7  1  0  0  0  0
  7  8  2  0  0  0  0
  7  9  1  0  0  0  0
  9 10  1  0  0  0  0
 10 11  1  0  0  0  0
 11 12  2  0  0  0  0
 12 13  1  0  0  0  0
 13 14  1  0  0  0  0
 14 15  1  0  0  0  0
 13 16  2  0  0  0  0
 16 17  1  0  0  0  0
 17 18  2  0  0  0  0
 10 19  2  0  0  0  0
 19 20  1  0  0  0  0
 20 21  2  0  0  0  0
 21 22  1  0  0  0  0
 22 23  2  0  0  0  0
 23 24  1  0  0  0  0
 23 25  1  0  0  0  0
 25 26  2  0  0  0  0
 26 27  1  0  0  0  0
 26 28  1  0  0  0  0
 28 29  2  0  0  0  0
 29 30  1  0  0  0  0
 21 31  1  0  0  0  0
 31 32  2  0  0  0  0
 32 33  1  0  0  0  0
 33 34  2  0  0  0  0
 34 35  1  0  0  0  0
 35 36  2  0  0  0  0
 36 37  1  0  0  0  0
 37 38  1  0  0  0  0
 36 39  1  0  0  0  0
 39 40  2  0  0  0  0
 40 41  1  0  0  0  0
 41 42  2  0  0  0  0
 42 43  1  0  0  0  0
 43 44  2  0  0  0  0
 44 45  1  0  0  0  0
 45 46  1  0  0  0  0
 46 47  1  0  0  0  0
 45 48  2  0  0  0  0
 48 49  1  0  0  0  0
 49 50  2  0  0  0  0
 50 51  1  0  0  0  0
 51 52  1  0  0  0  0
 52 53  1  0  0  0  0
 52 54  1  0  0  0  0
 20 55  1  0  0  0  0
  8  3  1  0  0  0  0
 55  9  2  0  0  0  0
 18  6  1  0  0  0  0
 52 19  1  0  0  0  0
 18 11  1  0  0  0  0
 29 22  1  0  0  0  0
 51 31  1  0  0  0  0
 50 33  1  0  0  0  0
 41 34  1  0  0  0  0
 49 42  1  0  0  0  0
  1 56  1  0  0  0  0
  1 57  1  0  0  0  0
  1 58  1  0  0  0  0
  4 59  1  0  0  0  0
  5 60  1  0  0  0  0
  8 61  1  0  0  0  0
 12 62  1  0  0  0  0
 15 63  1  0  0  0  0
 15 64  1  0  0  0  0
 15 65  1  0  0  0  0
 16 66  1  0  0  0  0
 17 67  1  0  0  0  0
 24 68  1  0  0  0  0
 24 69  1  0  0  0  0
 24 70  1  0  0  0  0
 25 71  1  0  0  0  0
 27 72  1  0  0  0  0
 27 73  1  0  0  0  0
 27 74  1  0  0  0  0
 28 75  1  0  0  0  0
 30 76  1  0  0  0  0
 30 77  1  0  0  0  0
 30 78  1  0  0  0  0
 32 79  1  0  0  0  0
 35 80  1  0  0  0  0
 38 81  1  0  0  0  0
 38 82  1  0  0  0  0
 38 83  1  0  0  0  0
 39 84  1  0  0  0  0
 40 85  1  0  0  0  0
 43 86  1  0  0  0  0
 44 87  1  0  0  0  0
 47 88  1  0  0  0  0
 47 89  1  0  0  0  0
 47 90  1  0  0  0  0
 48 91  1  0  0  0  0
 55 92  1  0  0  0  0
M  CHG  1  19   1
M  CHG  1  52  -1
M  END
