
  xtb     03022212063D
 energy: -55.102992676448 gnorm: 0.000185918528 xtb: 6.4.1 (afa7bdf)
 35 37  0     0  0            999 V2000
    6.6758    0.0639    0.5390 C   0  0  0  0  0  0  0  0  0  0  0  0
    5.7566   -0.7517    1.2234 O   0  0  0  0  0  0  0  0  0  0  0  0
    4.4280   -0.5726    0.9946 C   0  0  0  0  0  0  0  0  0  0  0  0
    3.5669   -1.4077    1.7127 C   0  0  0  0  0  0  0  0  0  0  0  0
    2.2058   -1.3046    1.5572 C   0  0  0  0  0  0  0  0  0  0  0  0
    1.6434   -0.3866    0.6603 C   0  0  0  0  0  0  0  0  0  0  0  0
    0.2003   -0.3331    0.5360 C   0  0  0  0  0  0  0  0  0  0  0  0
   -0.5371   -0.0396   -0.5536 C   0  0  0  0  0  0  0  0  0  0  0  0
   -0.0096    0.2426   -1.9274 C   0  0  0  0  0  0  0  0  0  0  0  0
   -1.9740   -0.0375   -0.4090 C   0  0  0  0  0  0  0  0  0  0  0  0
   -2.6345   -0.2721    0.6855 N   0  0  0  0  0  0  0  0  0  0  0  0
   -3.9560   -0.1567    0.3463 C   0  0  0  0  0  0  0  0  0  0  0  0
   -5.1186   -0.2986    1.0937 C   0  0  0  0  0  0  0  0  0  0  0  0
   -6.3179   -0.1121    0.4373 C   0  0  0  0  0  0  0  0  0  0  0  0
   -6.3734    0.2061   -0.9201 C   0  0  0  0  0  0  0  0  0  0  0  0
   -5.2280    0.3510   -1.6820 C   0  0  0  0  0  0  0  0  0  0  0  0
   -4.0268    0.1642   -1.0268 C   0  0  0  0  0  0  0  0  0  0  0  0
   -2.7570    0.2361   -1.4941 O   0  0  0  0  0  0  0  0  0  0  0  0
    2.5118    0.4541   -0.0339 C   0  0  0  0  0  0  0  0  0  0  0  0
    3.8830    0.3696    0.1291 C   0  0  0  0  0  0  0  0  0  0  0  0
    6.6002   -0.0670   -0.5454 H   0  0  0  0  0  0  0  0  0  0  0  0
    6.5392    1.1212    0.7883 H   0  0  0  0  0  0  0  0  0  0  0  0
    7.6610   -0.2589    0.8718 H   0  0  0  0  0  0  0  0  0  0  0  0
    4.0000   -2.1241    2.3928 H   0  0  0  0  0  0  0  0  0  0  0  0
    1.5529   -1.9539    2.1214 H   0  0  0  0  0  0  0  0  0  0  0  0
   -0.3535   -0.5982    1.4274 H   0  0  0  0  0  0  0  0  0  0  0  0
   -0.6916   -0.1600   -2.6735 H   0  0  0  0  0  0  0  0  0  0  0  0
    0.0672    1.3165   -2.0987 H   0  0  0  0  0  0  0  0  0  0  0  0
    0.9710   -0.2070   -2.0598 H   0  0  0  0  0  0  0  0  0  0  0  0
   -5.0713   -0.5443    2.1418 H   0  0  0  0  0  0  0  0  0  0  0  0
   -7.2428   -0.2140    0.9854 H   0  0  0  0  0  0  0  0  0  0  0  0
   -7.3365    0.3427   -1.3883 H   0  0  0  0  0  0  0  0  0  0  0  0
   -5.2656    0.5965   -2.7313 H   0  0  0  0  0  0  0  0  0  0  0  0
    2.1155    1.2210   -0.6797 H   0  0  0  0  0  0  0  0  0  0  0  0
    4.5156    1.0491   -0.4207 H   0  0  0  0  0  0  0  0  0  0  0  0
  1  2  1  0  0  0  0
  2  3  1  0  0  0  0
  3  4  2  0  0  0  0
  4  5  1  0  0  0  0
  5  6  2  0  0  0  0
  6  7  1  0  0  0  0
  7  8  2  0  0  0  0
  8  9  1  0  0  0  0
  8 10  1  0  0  0  0
 10 11  2  0  0  0  0
 11 12  1  0  0  0  0
 12 13  2  0  0  0  0
 13 14  1  0  0  0  0
 14 15  2  0  0  0  0
 15 16  1  0  0  0  0
 16 17  2  0  0  0  0
 17 18  1  0  0  0  0
  6 19  1  0  0  0  0
 19 20  2  0  0  0  0
 20  3  1  0  0  0  0
 18 10  1  0  0  0  0
 17 12  1  0  0  0  0
  1 21  1  0  0  0  0
  1 22  1  0  0  0  0
  1 23  1  0  0  0  0
  4 24  1  0  0  0  0
  5 25  1  0  0  0  0
  7 26  1  0  0  0  0
  9 27  1  0  0  0  0
  9 28  1  0  0  0  0
  9 29  1  0  0  0  0
 13 30  1  0  0  0  0
 14 31  1  0  0  0  0
 15 32  1  0  0  0  0
 16 33  1  0  0  0  0
 19 34  1  0  0  0  0
 20 35  1  0  0  0  0
M  END
