
  xtb     03022215413D
 energy: -64.040877404688 gnorm: 0.000230267297 xtb: 6.4.1 (afa7bdf)
 37 41  0     0  0            999 V2000
   -0.0810    2.3319    1.4457 F   0  0  0  0  0  0  0  0  0  0  0  0
   -0.1578    1.7420    0.1920 B   0  0  0  0  0  4  0  0  0  0  0  0
   -0.7329    2.6199   -0.6964 F   0  0  0  0  0  0  0  0  0  0  0  0
   -0.8747    0.4059    0.2146 N   0  0  0  0  0  0  0  0  0  0  0  0
   -2.2753    0.4213    0.0475 C   0  0  0  0  0  0  0  0  0  0  0  0
   -2.8877   -0.4438   -0.8569 C   0  0  0  0  0  0  0  0  0  0  0  0
   -4.2548   -0.3910   -1.0494 C   0  0  0  0  0  0  0  0  0  0  0  0
   -5.0238    0.5281   -0.3545 C   0  0  0  0  0  0  0  0  0  0  0  0
   -4.4145    1.4010    0.5308 C   0  0  0  0  0  0  0  0  0  0  0  0
   -3.0478    1.3517    0.7339 C   0  0  0  0  0  0  0  0  0  0  0  0
   -0.2167   -0.7561    0.4376 C   0  0  0  0  0  0  0  0  0  0  0  0
   -0.8821   -1.9190    0.8529 C   0  0  0  0  0  0  0  0  0  0  0  0
   -0.2015   -3.0989    1.0698 C   0  0  0  0  0  0  0  0  0  0  0  0
    1.1637   -3.1827    0.8667 C   0  0  0  0  0  0  0  0  0  0  0  0
    1.8756   -2.0535    0.4667 C   0  0  0  0  0  0  0  0  0  0  0  0
    3.2800   -2.1216    0.2294 C   0  0  0  0  0  0  0  0  0  0  0  0
    3.9814   -1.0508   -0.2039 C   0  0  0  0  0  0  0  0  0  0  0  0
    3.3388    0.2041   -0.4027 C   0  0  0  0  0  0  0  0  0  0  0  0
    4.0305    1.3349   -0.8368 C   0  0  0  0  0  0  0  0  0  0  0  0
    3.3577    2.5329   -0.9937 C   0  0  0  0  0  0  0  0  0  0  0  0
    2.0123    2.5826   -0.6845 C   0  0  0  0  0  0  0  0  0  0  0  0
    1.3418    1.5156   -0.2662 N   0  0  0  0  0  4  0  0  0  0  0  0
    1.9464    0.3145   -0.1318 C   0  0  0  0  0  0  0  0  0  0  0  0
    1.1979   -0.8188    0.2720 C   0  0  0  0  0  0  0  0  0  0  0  0
   -2.2841   -1.1460   -1.4140 H   0  0  0  0  0  0  0  0  0  0  0  0
   -4.7208   -1.0649   -1.7538 H   0  0  0  0  0  0  0  0  0  0  0  0
   -6.0917    0.5682   -0.5101 H   0  0  0  0  0  0  0  0  0  0  0  0
   -5.0075    2.1258    1.0691 H   0  0  0  0  0  0  0  0  0  0  0  0
   -2.5678    2.0325    1.4184 H   0  0  0  0  0  0  0  0  0  0  0  0
   -1.9457   -1.8751    1.0276 H   0  0  0  0  0  0  0  0  0  0  0  0
   -0.7481   -3.9685    1.4042 H   0  0  0  0  0  0  0  0  0  0  0  0
    1.6863   -4.1145    1.0185 H   0  0  0  0  0  0  0  0  0  0  0  0
    3.7709   -3.0703    0.3912 H   0  0  0  0  0  0  0  0  0  0  0  0
    5.0408   -1.1167   -0.4026 H   0  0  0  0  0  0  0  0  0  0  0  0
    5.0889    1.2639   -1.0407 H   0  0  0  0  0  0  0  0  0  0  0  0
    3.8649    3.4218   -1.3305 H   0  0  0  0  0  0  0  0  0  0  0  0
    1.4386    3.4934   -0.7604 H   0  0  0  0  0  0  0  0  0  0  0  0
  1  2  1  0  0  0  0
  2  3  1  0  0  0  0
  2  4  1  0  0  0  0
  4  5  1  0  0  0  0
  5  6  2  0  0  0  0
  6  7  1  0  0  0  0
  7  8  2  0  0  0  0
  8  9  1  0  0  0  0
  9 10  2  0  0  0  0
  4 11  1  0  0  0  0
 11 12  2  0  0  0  0
 12 13  1  0  0  0  0
 13 14  2  0  0  0  0
 14 15  1  0  0  0  0
 15 16  2  0  0  0  0
 16 17  1  0  0  0  0
 17 18  2  0  0  0  0
 18 19  1  0  0  0  0
 19 20  2  0  0  0  0
 20 21  1  0  0  0  0
 21 22  2  0  0  0  0
 22 23  1  0  0  0  0
 23 24  2  0  0  0  0
 22  2  1  0  0  0  0
 10  5  1  0  0  0  0
 24 11  1  0  0  0  0
 24 15  1  0  0  0  0
 23 18  1  0  0  0  0
  6 25  1  0  0  0  0
  7 26  1  0  0  0  0
  8 27  1  0  0  0  0
  9 28  1  0  0  0  0
 10 29  1  0  0  0  0
 12 30  1  0  0  0  0
 13 31  1  0  0  0  0
 14 32  1  0  0  0  0
 16 33  1  0  0  0  0
 17 34  1  0  0  0  0
 19 35  1  0  0  0  0
 20 36  1  0  0  0  0
 21 37  1  0  0  0  0
M  CHG  1   2  -1
M  CHG  1  22   1
M  END
