
  xtb     03022213223D
 energy: -61.795621662584 gnorm: 0.000152360574 xtb: 6.4.1 (afa7bdf)
 39 43  0     0  0            999 V2000
    6.2437   -0.0222    0.0939 C   0  0  0  0  0  0  0  0  0  0  0  0
    4.9572    0.7775    0.0092 C   0  0  0  0  0  0  0  0  0  0  0  0
    4.9361    1.9822   -0.0875 O   0  0  0  0  0  0  0  0  0  0  0  0
    3.8558   -0.0302    0.0583 N   0  0  0  0  0  0  0  0  0  0  0  0
    2.5029    0.3087    0.0021 C   0  0  0  0  0  0  0  0  0  0  0  0
    2.1010    1.6044   -0.2333 C   0  0  0  0  0  0  0  0  0  0  0  0
    0.7537    1.9244   -0.3189 C   0  0  0  0  0  0  0  0  0  0  0  0
   -0.2437    0.9747   -0.1802 C   0  0  0  0  0  0  0  0  0  0  0  0
   -1.6537    1.3201   -0.2984 C   0  0  0  0  0  0  0  0  0  0  0  0
   -2.0776    2.6080   -0.5830 C   0  0  0  0  0  0  0  0  0  0  0  0
   -3.4295    2.9306   -0.6916 C   0  0  0  0  0  0  0  0  0  0  0  0
   -4.3850    1.9687   -0.5166 C   0  0  0  0  0  0  0  0  0  0  0  0
   -4.0098    0.6420   -0.2291 C   0  0  0  0  0  0  0  0  0  0  0  0
   -4.9873   -0.3554   -0.0483 C   0  0  0  0  0  0  0  0  0  0  0  0
   -4.6151   -1.6408    0.2306 C   0  0  0  0  0  0  0  0  0  0  0  0
   -3.2655   -1.9755    0.3339 C   0  0  0  0  0  0  0  0  0  0  0  0
   -2.2631   -1.0349    0.1628 C   0  0  0  0  0  0  0  0  0  0  0  0
   -0.8486   -1.3807    0.2620 C   0  0  0  0  0  0  0  0  0  0  0  0
   -0.4411   -2.6765    0.5262 C   0  0  0  0  0  0  0  0  0  0  0  0
    0.9056   -3.0053    0.6317 C   0  0  0  0  0  0  0  0  0  0  0  0
    1.8670   -2.0464    0.4663 C   0  0  0  0  0  0  0  0  0  0  0  0
    1.5195   -0.7099    0.1841 C   0  0  0  0  0  0  0  0  0  0  0  0
    0.1375   -0.3690    0.0862 C   0  0  0  0  0  0  0  0  0  0  0  0
   -2.6329    0.3067   -0.1207 C   0  0  0  0  0  0  0  0  0  0  0  0
    7.0881    0.6593    0.0510 H   0  0  0  0  0  0  0  0  0  0  0  0
    6.2821   -0.5783    1.0286 H   0  0  0  0  0  0  0  0  0  0  0  0
    6.3081   -0.7225   -0.7368 H   0  0  0  0  0  0  0  0  0  0  0  0
    4.0466   -1.0170    0.1490 H   0  0  0  0  0  0  0  0  0  0  0  0
    2.8407    2.3770   -0.3556 H   0  0  0  0  0  0  0  0  0  0  0  0
    0.5075    2.9562   -0.5058 H   0  0  0  0  0  0  0  0  0  0  0  0
   -1.3632    3.4013   -0.7307 H   0  0  0  0  0  0  0  0  0  0  0  0
   -3.7124    3.9491   -0.9150 H   0  0  0  0  0  0  0  0  0  0  0  0
   -5.4356    2.2074   -0.5964 H   0  0  0  0  0  0  0  0  0  0  0  0
   -6.0298   -0.0850   -0.1335 H   0  0  0  0  0  0  0  0  0  0  0  0
   -5.3614   -2.4091    0.3720 H   0  0  0  0  0  0  0  0  0  0  0  0
   -3.0260   -3.0030    0.5541 H   0  0  0  0  0  0  0  0  0  0  0  0
   -1.1610   -3.4662    0.6618 H   0  0  0  0  0  0  0  0  0  0  0  0
    1.1887   -4.0251    0.8479 H   0  0  0  0  0  0  0  0  0  0  0  0
    2.9005   -2.3453    0.5697 H   0  0  0  0  0  0  0  0  0  0  0  0
  1  2  1  0  0  0  0
  2  3  2  0  0  0  0
  2  4  1  0  0  0  0
  4  5  1  0  0  0  0
  5  6  2  0  0  0  0
  6  7  1  0  0  0  0
  7  8  2  0  0  0  0
  8  9  1  0  0  0  0
  9 10  2  0  0  0  0
 10 11  1  0  0  0  0
 11 12  2  0  0  0  0
 12 13  1  0  0  0  0
 13 14  1  0  0  0  0
 14 15  2  0  0  0  0
 15 16  1  0  0  0  0
 16 17  2  0  0  0  0
 17 18  1  0  0  0  0
 18 19  1  0  0  0  0
 19 20  2  0  0  0  0
 20 21  1  0  0  0  0
 21 22  2  0  0  0  0
 22 23  1  0  0  0  0
 17 24  1  0  0  0  0
 22  5  1  0  0  0  0
 23  8  1  0  0  0  0
 24  9  1  0  0  0  0
 24 13  2  0  0  0  0
 23 18  2  0  0  0  0
  1 25  1  0  0  0  0
  1 26  1  0  0  0  0
  1 27  1  0  0  0  0
  4 28  1  0  0  0  0
  6 29  1  0  0  0  0
  7 30  1  0  0  0  0
 10 31  1  0  0  0  0
 11 32  1  0  0  0  0
 12 33  1  0  0  0  0
 14 34  1  0  0  0  0
 15 35  1  0  0  0  0
 16 36  1  0  0  0  0
 19 37  1  0  0  0  0
 20 38  1  0  0  0  0
 21 39  1  0  0  0  0
M  END
