
  xtb     03022212563D
 energy: -116.505847724359 gnorm: 0.000214994133 xtb: 6.4.1 (afa7bdf)
 74 80  0     0  0            999 V2000
    5.3293    5.5972    1.1016 O   0  0  0  0  0  0  0  0  0  0  0  0
    5.0106    5.6833   -0.0540 C   0  0  0  0  0  0  0  0  0  0  0  0
    5.9123    5.7366   -1.0427 O   0  0  0  0  0  0  0  0  0  0  0  0
    3.6008    5.7094   -0.5836 C   0  0  0  0  0  0  0  0  0  0  0  0
    3.0215    4.2867   -0.6048 C   0  0  0  0  0  0  0  0  0  0  0  0
    2.7552    3.7520    0.8073 C   0  0  0  0  0  0  0  0  0  0  0  0
    2.3079    2.3182    0.7541 C   0  0  0  0  0  0  0  0  0  0  0  0
    3.2483    1.3283    0.9637 C   0  0  0  0  0  0  0  0  0  0  0  0
    2.9269   -0.0267    0.8959 C   0  0  0  0  0  0  0  0  0  0  0  0
    3.9293   -0.9864    1.1218 C   0  0  0  0  0  0  0  0  0  0  0  0
    4.8043   -1.7984    1.3164 C   0  0  0  0  0  0  0  0  0  0  0  0
    5.8183   -2.7506    1.5432 C   0  0  0  0  0  0  0  0  0  0  0  0
    5.5269   -4.1160    1.4924 C   0  0  0  0  0  0  0  0  0  0  0  0
    6.5246   -5.0443    1.7144 C   0  0  0  0  0  0  0  0  0  0  0  0
    7.8182   -4.6279    1.9881 C   0  0  0  0  0  0  0  0  0  0  0  0
    8.1133   -3.2744    2.0402 C   0  0  0  0  0  0  0  0  0  0  0  0
    7.1236   -2.3371    1.8201 C   0  0  0  0  0  0  0  0  0  0  0  0
    1.6048   -0.4180    0.6005 C   0  0  0  0  0  0  0  0  0  0  0  0
    1.2331   -1.7862    0.5187 C   0  0  0  0  0  0  0  0  0  0  0  0
   -0.0403   -2.1512    0.2312 C   0  0  0  0  0  0  0  0  0  0  0  0
   -1.0443   -1.1754    0.0011 C   0  0  0  0  0  0  0  0  0  0  0  0
   -2.3760   -1.5387   -0.3048 C   0  0  0  0  0  0  0  0  0  0  0  0
   -2.7465   -2.8942   -0.3851 C   0  0  0  0  0  0  0  0  0  0  0  0
   -3.0814   -4.0537   -0.4577 C   0  0  0  0  0  0  0  0  0  0  0  0
   -3.4621   -5.4085   -0.5406 C   0  0  0  0  0  0  0  0  0  0  0  0
   -4.6981   -5.7606   -1.0877 C   0  0  0  0  0  0  0  0  0  0  0  0
   -5.0643   -7.0894   -1.1687 C   0  0  0  0  0  0  0  0  0  0  0  0
   -4.2105   -8.0792   -0.7068 C   0  0  0  0  0  0  0  0  0  0  0  0
   -2.9833   -7.7356   -0.1615 C   0  0  0  0  0  0  0  0  0  0  0  0
   -2.6056   -6.4101   -0.0773 C   0  0  0  0  0  0  0  0  0  0  0  0
   -3.3356   -0.5581   -0.5303 C   0  0  0  0  0  0  0  0  0  0  0  0
   -3.0109    0.7921   -0.4587 C   0  0  0  0  0  0  0  0  0  0  0  0
   -4.0105    1.7544   -0.6932 C   0  0  0  0  0  0  0  0  0  0  0  0
   -4.8809    2.5682   -0.8990 C   0  0  0  0  0  0  0  0  0  0  0  0
   -5.8913    3.5215   -1.1380 C   0  0  0  0  0  0  0  0  0  0  0  0
   -5.5895    4.8854   -1.1345 C   0  0  0  0  0  0  0  0  0  0  0  0
   -6.5837    5.8139   -1.3712 C   0  0  0  0  0  0  0  0  0  0  0  0
   -7.8842    5.3989   -1.6126 C   0  0  0  0  0  0  0  0  0  0  0  0
   -8.1898    4.0467   -1.6166 C   0  0  0  0  0  0  0  0  0  0  0  0
   -7.2036    3.1094   -1.3816 C   0  0  0  0  0  0  0  0  0  0  0  0
   -1.6887    1.1879   -0.1538 C   0  0  0  0  0  0  0  0  0  0  0  0
   -1.3179    2.5534   -0.0656 C   0  0  0  0  0  0  0  0  0  0  0  0
   -0.0457    2.9212    0.2259 C   0  0  0  0  0  0  0  0  0  0  0  0
    0.9777    1.9591    0.4552 C   0  0  0  0  0  0  0  0  0  0  0  0
    0.6290    0.5833    0.3794 C   0  0  0  0  0  0  0  0  0  0  0  0
   -0.7037    0.1977    0.0756 C   0  0  0  0  0  0  0  0  0  0  0  0
    6.8140    5.6887   -0.6869 H   0  0  0  0  0  0  0  0  0  0  0  0
    2.9917    6.3421    0.0631 H   0  0  0  0  0  0  0  0  0  0  0  0
    3.6181    6.1177   -1.5937 H   0  0  0  0  0  0  0  0  0  0  0  0
    2.0912    4.2958   -1.1761 H   0  0  0  0  0  0  0  0  0  0  0  0
    3.7174    3.6203   -1.1200 H   0  0  0  0  0  0  0  0  0  0  0  0
    2.0077    4.3761    1.2996 H   0  0  0  0  0  0  0  0  0  0  0  0
    3.6741    3.8219    1.3912 H   0  0  0  0  0  0  0  0  0  0  0  0
    4.2683    1.6047    1.1927 H   0  0  0  0  0  0  0  0  0  0  0  0
    4.5171   -4.4356    1.2787 H   0  0  0  0  0  0  0  0  0  0  0  0
    6.2946   -6.0992    1.6743 H   0  0  0  0  0  0  0  0  0  0  0  0
    8.5956   -5.3575    2.1609 H   0  0  0  0  0  0  0  0  0  0  0  0
    9.1216   -2.9501    2.2538 H   0  0  0  0  0  0  0  0  0  0  0  0
    7.3469   -1.2808    1.8597 H   0  0  0  0  0  0  0  0  0  0  0  0
    1.9978   -2.5292    0.6926 H   0  0  0  0  0  0  0  0  0  0  0  0
   -0.3196   -3.1928    0.1685 H   0  0  0  0  0  0  0  0  0  0  0  0
   -5.3587   -4.9845   -1.4463 H   0  0  0  0  0  0  0  0  0  0  0  0
   -6.0205   -7.3575   -1.5943 H   0  0  0  0  0  0  0  0  0  0  0  0
   -4.5014   -9.1173   -0.7717 H   0  0  0  0  0  0  0  0  0  0  0  0
   -2.3184   -8.5069    0.1995 H   0  0  0  0  0  0  0  0  0  0  0  0
   -1.6505   -6.1370    0.3479 H   0  0  0  0  0  0  0  0  0  0  0  0
   -4.3498   -0.8498   -0.7634 H   0  0  0  0  0  0  0  0  0  0  0  0
   -4.5744    5.2042   -0.9461 H   0  0  0  0  0  0  0  0  0  0  0  0
   -6.3456    6.8678   -1.3681 H   0  0  0  0  0  0  0  0  0  0  0  0
   -8.6587    6.1286   -1.7974 H   0  0  0  0  0  0  0  0  0  0  0  0
   -9.2035    3.7235   -1.8043 H   0  0  0  0  0  0  0  0  0  0  0  0
   -7.4352    2.0541   -1.3831 H   0  0  0  0  0  0  0  0  0  0  0  0
   -2.0820    3.2982   -0.2359 H   0  0  0  0  0  0  0  0  0  0  0  0
    0.1947    3.9707    0.2892 H   0  0  0  0  0  0  0  0  0  0  0  0
  1  2  2  0  0  0  0
  2  3  1  0  0  0  0
  2  4  1  0  0  0  0
  4  5  1  0  0  0  0
  5  6  1  0  0  0  0
  6  7  1  0  0  0  0
  7  8  2  0  0  0  0
  8  9  1  0  0  0  0
  9 10  1  0  0  0  0
 10 11  3  0  0  0  0
 11 12  1  0  0  0  0
 12 13  2  0  0  0  0
 13 14  1  0  0  0  0
 14 15  2  0  0  0  0
 15 16  1  0  0  0  0
 16 17  2  0  0  0  0
  9 18  2  0  0  0  0
 18 19  1  0  0  0  0
 19 20  2  0  0  0  0
 20 21  1  0  0  0  0
 21 22  2  0  0  0  0
 22 23  1  0  0  0  0
 23 24  3  0  0  0  0
 24 25  1  0  0  0  0
 25 26  2  0  0  0  0
 26 27  1  0  0  0  0
 27 28  2  0  0  0  0
 28 29  1  0  0  0  0
 29 30  2  0  0  0  0
 22 31  1  0  0  0  0
 31 32  2  0  0  0  0
 32 33  1  0  0  0  0
 33 34  3  0  0  0  0
 34 35  1  0  0  0  0
 35 36  2  0  0  0  0
 36 37  1  0  0  0  0
 37 38  2  0  0  0  0
 38 39  1  0  0  0  0
 39 40  2  0  0  0  0
 32 41  1  0  0  0  0
 41 42  2  0  0  0  0
 42 43  1  0  0  0  0
 43 44  2  0  0  0  0
 44 45  1  0  0  0  0
 45 46  2  0  0  0  0
 44  7  1  0  0  0  0
 17 12  1  0  0  0  0
 45 18  1  0  0  0  0
 46 21  1  0  0  0  0
 30 25  1  0  0  0  0
 40 35  1  0  0  0  0
 46 41  1  0  0  0  0
  3 47  1  0  0  0  0
  4 48  1  0  0  0  0
  4 49  1  0  0  0  0
  5 50  1  0  0  0  0
  5 51  1  0  0  0  0
  6 52  1  0  0  0  0
  6 53  1  0  0  0  0
  8 54  1  0  0  0  0
 13 55  1  0  0  0  0
 14 56  1  0  0  0  0
 15 57  1  0  0  0  0
 16 58  1  0  0  0  0
 17 59  1  0  0  0  0
 19 60  1  0  0  0  0
 20 61  1  0  0  0  0
 26 62  1  0  0  0  0
 27 63  1  0  0  0  0
 28 64  1  0  0  0  0
 29 65  1  0  0  0  0
 30 66  1  0  0  0  0
 31 67  1  0  0  0  0
 36 68  1  0  0  0  0
 37 69  1  0  0  0  0
 38 70  1  0  0  0  0
 39 71  1  0  0  0  0
 40 72  1  0  0  0  0
 42 73  1  0  0  0  0
 43 74  1  0  0  0  0
M  END
