
  xtb     03022216183D
 energy: -89.281786637082 gnorm: 0.000069809257 xtb: 6.4.1 (afa7bdf)
 50 54  0     0  0            999 V2000
   -9.8490   -0.4882    0.4672 C   0  0  0  0  0  0  0  0  0  0  0  0
   -9.1745    0.3493   -0.4445 O   0  0  0  0  0  0  0  0  0  0  0  0
   -7.8237    0.3375   -0.4619 C   0  0  0  0  0  0  0  0  0  0  0  0
   -7.2211    1.1995   -1.3963 C   0  0  0  0  0  0  0  0  0  0  0  0
   -5.8583    1.2722   -1.5007 C   0  0  0  0  0  0  0  0  0  0  0  0
   -5.0342    0.4871   -0.6808 C   0  0  0  0  0  0  0  0  0  0  0  0
   -3.6112    0.5045   -0.7247 C   0  0  0  0  0  0  0  0  0  0  0  0
   -2.8660   -0.2817    0.0962 C   0  0  0  0  0  0  0  0  0  0  0  0
   -1.4008   -0.2824    0.0434 C   0  0  0  0  0  0  0  0  0  0  0  0
   -0.6287   -0.4170    1.1969 C   0  0  0  0  0  0  0  0  0  0  0  0
    0.7481   -0.3988    1.1238 C   0  0  0  0  0  0  0  0  0  0  0  0
    1.4040   -0.2462   -0.0987 C   0  0  0  0  0  0  0  0  0  0  0  0
    2.8690   -0.2134   -0.1476 C   0  0  0  0  0  0  0  0  0  0  0  0
    3.6046    0.3723    0.8338 C   0  0  0  0  0  0  0  0  0  0  0  0
    5.0277    0.3845    0.7896 C   0  0  0  0  0  0  0  0  0  0  0  0
    5.8424    0.9702    1.7699 C   0  0  0  0  0  0  0  0  0  0  0  0
    7.2058    0.9415    1.6541 C   0  0  0  0  0  0  0  0  0  0  0  0
    7.8187    0.3262    0.5473 C   0  0  0  0  0  0  0  0  0  0  0  0
    9.1692    0.3594    0.5357 O   0  0  0  0  0  0  0  0  0  0  0  0
    9.8536   -0.2365   -0.5432 C   0  0  0  0  0  0  0  0  0  0  0  0
    7.0329   -0.2580   -0.4348 C   0  0  0  0  0  0  0  0  0  0  0  0
    5.6472   -0.2277   -0.3091 C   0  0  0  0  0  0  0  0  0  0  0  0
    4.9203   -0.8066   -1.2880 O   0  0  0  0  0  0  0  0  0  0  0  0
    3.5503   -0.8417   -1.2839 C   0  0  0  0  0  0  0  0  0  0  0  0
    3.0178   -1.3958   -2.2133 O   0  0  0  0  0  0  0  0  0  0  0  0
    0.6320   -0.1217   -1.2534 C   0  0  0  0  0  0  0  0  0  0  0  0
   -0.7448   -0.1398   -1.1803 C   0  0  0  0  0  0  0  0  0  0  0  0
   -3.5368   -1.1643    1.0560 C   0  0  0  0  0  0  0  0  0  0  0  0
   -2.9954   -1.9107    1.8332 O   0  0  0  0  0  0  0  0  0  0  0  0
   -4.9072   -1.1495    1.0663 O   0  0  0  0  0  0  0  0  0  0  0  0
   -5.6435   -0.3702    0.2463 C   0  0  0  0  0  0  0  0  0  0  0  0
   -7.0284   -0.4469    0.3600 C   0  0  0  0  0  0  0  0  0  0  0  0
  -10.9098   -0.3096    0.3005 H   0  0  0  0  0  0  0  0  0  0  0  0
   -9.5965   -0.2374    1.5016 H   0  0  0  0  0  0  0  0  0  0  0  0
   -9.6246   -1.5427    0.2819 H   0  0  0  0  0  0  0  0  0  0  0  0
   -7.8655    1.7959   -2.0215 H   0  0  0  0  0  0  0  0  0  0  0  0
   -5.3999    1.9349   -2.2188 H   0  0  0  0  0  0  0  0  0  0  0  0
   -3.1306    1.1785   -1.4198 H   0  0  0  0  0  0  0  0  0  0  0  0
   -1.1117   -0.5404    2.1524 H   0  0  0  0  0  0  0  0  0  0  0  0
    1.3255   -0.5305    2.0270 H   0  0  0  0  0  0  0  0  0  0  0  0
    3.1160    0.8614    1.6647 H   0  0  0  0  0  0  0  0  0  0  0  0
    5.3761    1.4435    2.6206 H   0  0  0  0  0  0  0  0  0  0  0  0
    7.8430    1.3862    2.4012 H   0  0  0  0  0  0  0  0  0  0  0  0
    9.6434   -1.3081   -0.6065 H   0  0  0  0  0  0  0  0  0  0  0  0
   10.9121   -0.0871   -0.3379 H   0  0  0  0  0  0  0  0  0  0  0  0
    9.5965    0.2427   -1.4925 H   0  0  0  0  0  0  0  0  0  0  0  0
    7.4496   -0.7421   -1.3020 H   0  0  0  0  0  0  0  0  0  0  0  0
    1.1151   -0.0148   -2.2108 H   0  0  0  0  0  0  0  0  0  0  0  0
   -1.3218   -0.0676   -2.0905 H   0  0  0  0  0  0  0  0  0  0  0  0
   -7.4371   -1.1234    1.0918 H   0  0  0  0  0  0  0  0  0  0  0  0
  1  2  1  0  0  0  0
  2  3  1  0  0  0  0
  3  4  2  0  0  0  0
  4  5  1  0  0  0  0
  5  6  2  0  0  0  0
  6  7  1  0  0  0  0
  7  8  2  0  0  0  0
  8  9  1  0  0  0  0
  9 10  2  0  0  0  0
 10 11  1  0  0  0  0
 11 12  2  0  0  0  0
 12 13  1  0  0  0  0
 13 14  2  0  0  0  0
 14 15  1  0  0  0  0
 15 16  2  0  0  0  0
 16 17  1  0  0  0  0
 17 18  2  0  0  0  0
 18 19  1  0  0  0  0
 19 20  1  0  0  0  0
 18 21  1  0  0  0  0
 21 22  2  0  0  0  0
 22 23  1  0  0  0  0
 23 24  1  0  0  0  0
 24 25  2  0  0  0  0
 12 26  1  0  0  0  0
 26 27  2  0  0  0  0
  8 28  1  0  0  0  0
 28 29  2  0  0  0  0
 28 30  1  0  0  0  0
 30 31  1  0  0  0  0
 31 32  2  0  0  0  0
 32  3  1  0  0  0  0
 31  6  1  0  0  0  0
 27  9  1  0  0  0  0
 24 13  1  0  0  0  0
 22 15  1  0  0  0  0
  1 33  1  0  0  0  0
  1 34  1  0  0  0  0
  1 35  1  0  0  0  0
  4 36  1  0  0  0  0
  5 37  1  0  0  0  0
  7 38  1  0  0  0  0
 10 39  1  0  0  0  0
 11 40  1  0  0  0  0
 14 41  1  0  0  0  0
 16 42  1  0  0  0  0
 17 43  1  0  0  0  0
 20 44  1  0  0  0  0
 20 45  1  0  0  0  0
 20 46  1  0  0  0  0
 21 47  1  0  0  0  0
 26 48  1  0  0  0  0
 27 49  1  0  0  0  0
 32 50  1  0  0  0  0
M  END
