
  xtb     03022215033D
 energy: -76.254474499824 gnorm: 0.000598497481 xtb: 6.4.1 (afa7bdf)
 47 50  0     0  0            999 V2000
    7.9018   -2.4459   -3.1267 N   0  0  0  0  0  0  0  0  0  0  0  0
    7.5916   -2.8524   -2.0988 C   0  0  0  0  0  0  0  0  0  0  0  0
    7.2532   -3.3771   -0.8367 C   0  0  0  0  0  0  0  0  0  0  0  0
    8.2295   -4.2300   -0.2787 C   0  0  0  0  0  0  0  0  0  0  0  0
    9.0210   -4.9208    0.1819 N   0  0  0  0  0  0  0  0  0  0  0  0
    6.0957   -3.1250   -0.1550 C   0  0  0  0  0  0  0  0  0  0  0  0
    5.0217   -2.3087   -0.5675 C   0  0  0  0  0  0  0  0  0  0  0  0
    4.8300   -1.5662   -1.7208 C   0  0  0  0  0  0  0  0  0  0  0  0
    3.6142   -0.8941   -1.7480 C   0  0  0  0  0  0  0  0  0  0  0  0
    2.8324   -1.0938   -0.6237 C   0  0  0  0  0  0  0  0  0  0  0  0
    1.5304   -0.5587   -0.3273 C   0  0  0  0  0  0  0  0  0  0  0  0
    0.8691    0.2975   -1.2184 C   0  0  0  0  0  0  0  0  0  0  0  0
   -0.3759    0.8006   -0.9273 C   0  0  0  0  0  0  0  0  0  0  0  0
   -1.0211    0.4739    0.2717 C   0  0  0  0  0  0  0  0  0  0  0  0
   -2.2763    0.9818    0.5628 N   0  0  0  0  0  0  0  0  0  0  0  0
   -3.1937    1.2502   -0.4664 C   0  0  0  0  0  0  0  0  0  0  0  0
   -3.9971    2.3874   -0.4096 C   0  0  0  0  0  0  0  0  0  0  0  0
   -4.9111    2.6415   -1.4141 C   0  0  0  0  0  0  0  0  0  0  0  0
   -5.0327    1.7737   -2.4871 C   0  0  0  0  0  0  0  0  0  0  0  0
   -4.2348    0.6429   -2.5474 C   0  0  0  0  0  0  0  0  0  0  0  0
   -3.3230    0.3762   -1.5443 C   0  0  0  0  0  0  0  0  0  0  0  0
   -2.6599    1.2254    1.8915 C   0  0  0  0  0  0  0  0  0  0  0  0
   -1.7549    1.7708    2.8006 C   0  0  0  0  0  0  0  0  0  0  0  0
   -2.1422    2.0119    4.1046 C   0  0  0  0  0  0  0  0  0  0  0  0
   -3.4328    1.7239    4.5174 C   0  0  0  0  0  0  0  0  0  0  0  0
   -4.3374    1.1897    3.6145 C   0  0  0  0  0  0  0  0  0  0  0  0
   -3.9574    0.9375    2.3103 C   0  0  0  0  0  0  0  0  0  0  0  0
   -0.3651   -0.3797    1.1670 C   0  0  0  0  0  0  0  0  0  0  0  0
    0.8782   -0.8816    0.8699 C   0  0  0  0  0  0  0  0  0  0  0  0
    3.6403   -2.1452    0.4917 S   0  0  0  0  0  0  0  0  0  0  0  0
    5.9841   -3.6043    0.8105 H   0  0  0  0  0  0  0  0  0  0  0  0
    5.5532   -1.5188   -2.5142 H   0  0  0  0  0  0  0  0  0  0  0  0
    3.3119   -0.2753   -2.5729 H   0  0  0  0  0  0  0  0  0  0  0  0
    1.3417    0.5795   -2.1457 H   0  0  0  0  0  0  0  0  0  0  0  0
   -0.8614    1.4676   -1.6240 H   0  0  0  0  0  0  0  0  0  0  0  0
   -3.8977    3.0668    0.4242 H   0  0  0  0  0  0  0  0  0  0  0  0
   -5.5273    3.5266   -1.3616 H   0  0  0  0  0  0  0  0  0  0  0  0
   -5.7463    1.9764   -3.2708 H   0  0  0  0  0  0  0  0  0  0  0  0
   -4.3291   -0.0425   -3.3766 H   0  0  0  0  0  0  0  0  0  0  0  0
   -2.7104   -0.5126   -1.5849 H   0  0  0  0  0  0  0  0  0  0  0  0
   -0.7522    2.0081    2.4760 H   0  0  0  0  0  0  0  0  0  0  0  0
   -1.4334    2.4359    4.8003 H   0  0  0  0  0  0  0  0  0  0  0  0
   -3.7322    1.9161    5.5363 H   0  0  0  0  0  0  0  0  0  0  0  0
   -5.3446    0.9604    3.9290 H   0  0  0  0  0  0  0  0  0  0  0  0
   -4.6608    0.5141    1.6084 H   0  0  0  0  0  0  0  0  0  0  0  0
   -0.8503   -0.6545    2.0914 H   0  0  0  0  0  0  0  0  0  0  0  0
    1.3615   -1.5491    1.5690 H   0  0  0  0  0  0  0  0  0  0  0  0
  1  2  3  0  0  0  0
  2  3  1  0  0  0  0
  3  4  1  0  0  0  0
  4  5  3  0  0  0  0
  3  6  2  0  0  0  0
  6  7  1  0  0  0  0
  7  8  2  0  0  0  0
  8  9  1  0  0  0  0
  9 10  2  0  0  0  0
 10 11  1  0  0  0  0
 11 12  2  0  0  0  0
 12 13  1  0  0  0  0
 13 14  2  0  0  0  0
 14 15  1  0  0  0  0
 15 16  1  0  0  0  0
 16 17  2  0  0  0  0
 17 18  1  0  0  0  0
 18 19  2  0  0  0  0
 19 20  1  0  0  0  0
 20 21  2  0  0  0  0
 15 22  1  0  0  0  0
 22 23  2  0  0  0  0
 23 24  1  0  0  0  0
 24 25  2  0  0  0  0
 25 26  1  0  0  0  0
 26 27  2  0  0  0  0
 14 28  1  0  0  0  0
 28 29  2  0  0  0  0
 10 30  1  0  0  0  0
 30  7  1  0  0  0  0
 29 11  1  0  0  0  0
 21 16  1  0  0  0  0
 27 22  1  0  0  0  0
  6 31  1  0  0  0  0
  8 32  1  0  0  0  0
  9 33  1  0  0  0  0
 12 34  1  0  0  0  0
 13 35  1  0  0  0  0
 17 36  1  0  0  0  0
 18 37  1  0  0  0  0
 19 38  1  0  0  0  0
 20 39  1  0  0  0  0
 21 40  1  0  0  0  0
 23 41  1  0  0  0  0
 24 42  1  0  0  0  0
 25 43  1  0  0  0  0
 26 44  1  0  0  0  0
 27 45  1  0  0  0  0
 28 46  1  0  0  0  0
 29 47  1  0  0  0  0
M  END
