
  xtb     03022215043D
 energy: -112.563989739670 gnorm: 0.000235878271 xtb: 6.4.1 (afa7bdf)
 85 89  0     0  0            999 V2000
    2.7057   -5.6171    1.8942 C   0  0  0  0  0  0  0  0  0  0  0  0
    3.9208   -5.5198    0.9812 C   0  0  0  0  0  0  0  0  0  0  0  0
    3.5796   -4.9146   -0.3889 C   0  0  0  0  0  0  0  0  0  0  0  0
    3.1559   -3.4905   -0.2677 C   0  0  0  0  0  0  0  0  0  0  0  0
    3.9746   -2.4124   -0.1336 C   0  0  0  0  0  0  0  0  0  0  0  0
    3.1240   -1.2614   -0.0079 C   0  0  0  0  0  0  0  0  0  0  0  0
    1.8320   -1.6259   -0.0632 N   0  0  0  0  0  0  0  0  0  0  0  0
    1.7972   -2.9643   -0.2222 C   0  0  0  0  0  0  0  0  0  0  0  0
    0.6421   -3.7455   -0.3373 C   0  0  0  0  0  0  0  0  0  0  0  0
   -0.6921   -3.3988   -0.3265 C   0  0  0  0  0  0  0  0  0  0  0  0
   -1.3084   -2.1498   -0.2020 C   0  0  0  0  0  0  0  0  0  0  0  0
   -0.6815   -0.9612   -0.0244 N   0  0  0  0  0  0  0  0  0  0  0  0
   -1.5863    0.0496    0.0607 C   0  0  0  0  0  0  0  0  0  0  0  0
   -1.1780    1.3779    0.2895 C   0  0  0  0  0  0  0  0  0  0  0  0
    0.1260    1.7174    0.3263 N   0  0  0  0  0  0  0  0  0  0  0  0
    0.2000    3.0434    0.5612 C   0  0  0  0  0  0  0  0  0  0  0  0
    1.3575    3.8245    0.6766 C   0  0  0  0  0  0  0  0  0  0  0  0
    2.6987    3.5077    0.6166 C   0  0  0  0  0  0  0  0  0  0  0  0
    3.3103    2.2656    0.4326 C   0  0  0  0  0  0  0  0  0  0  0  0
    2.6441    1.0963    0.2756 N   0  0  0  0  0  0  0  0  0  0  0  0
    3.5201    0.0726    0.1556 C   0  0  0  0  0  0  0  0  0  0  0  0
    4.8283    0.6169    0.2329 C   0  0  0  0  0  0  0  0  0  0  0  0
    4.7122    1.9731    0.4032 C   0  0  0  0  0  0  0  0  0  0  0  0
    5.8197    2.9664    0.4958 C   0  0  0  0  0  0  0  0  0  0  0  0
    6.0270    3.7103   -0.8321 C   0  0  0  0  0  0  0  0  0  0  0  0
    6.4931    2.7757   -1.9404 C   0  0  0  0  0  0  0  0  0  0  0  0
   -1.1430    3.5936    0.6948 C   0  0  0  0  0  0  0  0  0  0  0  0
   -1.4666    5.0210    0.9886 C   0  0  0  0  0  0  0  0  0  0  0  0
   -2.9340    5.3880    0.7646 C   0  0  0  0  0  0  0  0  0  0  0  0
   -3.3118    5.3614   -0.7118 C   0  0  0  0  0  0  0  0  0  0  0  0
   -1.9882    2.5430    0.5303 C   0  0  0  0  0  0  0  0  0  0  0  0
   -2.8844   -0.5307   -0.1017 C   0  0  0  0  0  0  0  0  0  0  0  0
   -4.2284    0.1254   -0.1523 C   0  0  0  0  0  0  0  0  0  0  0  0
   -5.0352   -0.2370    1.0092 N   0  0  0  0  0  0  0  0  0  0  0  0
   -6.4009    0.2145    0.8621 C   0  0  0  0  0  0  0  0  0  0  0  0
   -4.4542    0.2441    2.2443 C   0  0  0  0  0  0  0  0  0  0  0  0
   -2.7112   -1.8911   -0.2434 C   0  0  0  0  0  0  0  0  0  0  0  0
   -3.7894   -2.9013   -0.4404 C   0  0  0  0  0  0  0  0  0  0  0  0
   -3.9954   -3.2164   -1.9278 C   0  0  0  0  0  0  0  0  0  0  0  0
   -5.1154   -4.2277   -2.1333 C   0  0  0  0  0  0  0  0  0  0  0  0
    2.2684   -4.6342    2.0549 H   0  0  0  0  0  0  0  0  0  0  0  0
    1.9472   -6.2633    1.4568 H   0  0  0  0  0  0  0  0  0  0  0  0
    2.9892   -6.0301    2.8599 H   0  0  0  0  0  0  0  0  0  0  0  0
    4.6833   -4.9005    1.4587 H   0  0  0  0  0  0  0  0  0  0  0  0
    4.3433   -6.5164    0.8312 H   0  0  0  0  0  0  0  0  0  0  0  0
    2.7999   -5.5128   -0.8643 H   0  0  0  0  0  0  0  0  0  0  0  0
    4.4708   -4.9629   -1.0205 H   0  0  0  0  0  0  0  0  0  0  0  0
    5.0473   -2.3982   -0.1245 H   0  0  0  0  0  0  0  0  0  0  0  0
    0.8355   -4.8039   -0.4577 H   0  0  0  0  0  0  0  0  0  0  0  0
   -1.3861   -4.2218   -0.4392 H   0  0  0  0  0  0  0  0  0  0  0  0
    0.3659   -0.9316    0.0136 H   0  0  0  0  0  0  0  0  0  0  0  0
    1.1522    4.8735    0.8523 H   0  0  0  0  0  0  0  0  0  0  0  0
    3.3839    4.3360    0.7430 H   0  0  0  0  0  0  0  0  0  0  0  0
    1.5944    1.0791    0.2590 H   0  0  0  0  0  0  0  0  0  0  0  0
    5.7394    0.0542    0.1706 H   0  0  0  0  0  0  0  0  0  0  0  0
    5.5996    3.6929    1.2818 H   0  0  0  0  0  0  0  0  0  0  0  0
    6.7441    2.4492    0.7615 H   0  0  0  0  0  0  0  0  0  0  0  0
    5.0894    4.1843   -1.1294 H   0  0  0  0  0  0  0  0  0  0  0  0
    6.7705    4.4966   -0.6827 H   0  0  0  0  0  0  0  0  0  0  0  0
    6.6348    3.3257   -2.8679 H   0  0  0  0  0  0  0  0  0  0  0  0
    7.4375    2.3067   -1.6718 H   0  0  0  0  0  0  0  0  0  0  0  0
    5.7576    1.9934   -2.1123 H   0  0  0  0  0  0  0  0  0  0  0  0
   -0.8465    5.6694    0.3618 H   0  0  0  0  0  0  0  0  0  0  0  0
   -1.2011    5.2277    2.0320 H   0  0  0  0  0  0  0  0  0  0  0  0
   -3.1073    6.3925    1.1589 H   0  0  0  0  0  0  0  0  0  0  0  0
   -3.5722    4.7035    1.3263 H   0  0  0  0  0  0  0  0  0  0  0  0
   -2.7301    6.0965   -1.2645 H   0  0  0  0  0  0  0  0  0  0  0  0
   -3.1153    4.3823   -1.1418 H   0  0  0  0  0  0  0  0  0  0  0  0
   -4.3670    5.5927   -0.8416 H   0  0  0  0  0  0  0  0  0  0  0  0
   -3.0556    2.5610    0.5957 H   0  0  0  0  0  0  0  0  0  0  0  0
   -4.1369    1.2147   -0.2654 H   0  0  0  0  0  0  0  0  0  0  0  0
   -4.7573   -0.2464   -1.0364 H   0  0  0  0  0  0  0  0  0  0  0  0
   -6.8310   -0.2202   -0.0397 H   0  0  0  0  0  0  0  0  0  0  0  0
   -6.4852    1.3119    0.7952 H   0  0  0  0  0  0  0  0  0  0  0  0
   -6.9800   -0.1235    1.7207 H   0  0  0  0  0  0  0  0  0  0  0  0
   -4.4537    1.3434    2.3163 H   0  0  0  0  0  0  0  0  0  0  0  0
   -5.0245   -0.1551    3.0824 H   0  0  0  0  0  0  0  0  0  0  0  0
   -3.4279   -0.1098    2.3190 H   0  0  0  0  0  0  0  0  0  0  0  0
   -4.7152   -2.5130   -0.0151 H   0  0  0  0  0  0  0  0  0  0  0  0
   -3.5360   -3.8230    0.0881 H   0  0  0  0  0  0  0  0  0  0  0  0
   -3.0651   -3.6052   -2.3479 H   0  0  0  0  0  0  0  0  0  0  0  0
   -4.2336   -2.2932   -2.4606 H   0  0  0  0  0  0  0  0  0  0  0  0
   -4.8843   -5.1624   -1.6266 H   0  0  0  0  0  0  0  0  0  0  0  0
   -6.0519   -3.8458   -1.7326 H   0  0  0  0  0  0  0  0  0  0  0  0
   -5.2540   -4.4368   -3.1918 H   0  0  0  0  0  0  0  0  0  0  0  0
  1  2  1  0  0  0  0
  2  3  1  0  0  0  0
  3  4  1  0  0  0  0
  4  5  2  0  0  0  0
  5  6  1  0  0  0  0
  6  7  2  0  0  0  0
  7  8  1  0  0  0  0
  8  9  2  0  0  0  0
  9 10  1  0  0  0  0
 10 11  2  0  0  0  0
 11 12  1  0  0  0  0
 12 13  1  0  0  0  0
 13 14  2  0  0  0  0
 14 15  1  0  0  0  0
 15 16  2  0  0  0  0
 16 17  1  0  0  0  0
 17 18  2  0  0  0  0
 18 19  1  0  0  0  0
 19 20  1  0  0  0  0
 20 21  1  0  0  0  0
 21 22  2  0  0  0  0
 22 23  1  0  0  0  0
 23 24  1  0  0  0  0
 24 25  1  0  0  0  0
 25 26  1  0  0  0  0
 16 27  1  0  0  0  0
 27 28  1  0  0  0  0
 28 29  1  0  0  0  0
 29 30  1  0  0  0  0
 27 31  2  0  0  0  0
 13 32  1  0  0  0  0
 32 33  1  0  0  0  0
 33 34  1  0  0  0  0
 34 35  1  0  0  0  0
 34 36  1  0  0  0  0
 32 37  2  0  0  0  0
 37 38  1  0  0  0  0
 38 39  1  0  0  0  0
 39 40  1  0  0  0  0
  8  4  1  0  0  0  0
 37 11  1  0  0  0  0
 21  6  1  0  0  0  0
 31 14  1  0  0  0  0
 23 19  2  0  0  0  0
  1 41  1  0  0  0  0
  1 42  1  0  0  0  0
  1 43  1  0  0  0  0
  2 44  1  0  0  0  0
  2 45  1  0  0  0  0
  3 46  1  0  0  0  0
  3 47  1  0  0  0  0
  5 48  1  0  0  0  0
  9 49  1  0  0  0  0
 10 50  1  0  0  0  0
 12 51  1  0  0  0  0
 17 52  1  0  0  0  0
 18 53  1  0  0  0  0
 20 54  1  0  0  0  0
 22 55  1  0  0  0  0
 24 56  1  0  0  0  0
 24 57  1  0  0  0  0
 25 58  1  0  0  0  0
 25 59  1  0  0  0  0
 26 60  1  0  0  0  0
 26 61  1  0  0  0  0
 26 62  1  0  0  0  0
 28 63  1  0  0  0  0
 28 64  1  0  0  0  0
 29 65  1  0  0  0  0
 29 66  1  0  0  0  0
 30 67  1  0  0  0  0
 30 68  1  0  0  0  0
 30 69  1  0  0  0  0
 31 70  1  0  0  0  0
 33 71  1  0  0  0  0
 33 72  1  0  0  0  0
 35 73  1  0  0  0  0
 35 74  1  0  0  0  0
 35 75  1  0  0  0  0
 36 76  1  0  0  0  0
 36 77  1  0  0  0  0
 36 78  1  0  0  0  0
 38 79  1  0  0  0  0
 38 80  1  0  0  0  0
 39 81  1  0  0  0  0
 39 82  1  0  0  0  0
 40 83  1  0  0  0  0
 40 84  1  0  0  0  0
 40 85  1  0  0  0  0
M  END
