
  xtb     03022214143D
 energy: -99.105075888700 gnorm: 0.000746421509 xtb: 6.4.1 (afa7bdf)
 55 58  0     0  0            999 V2000
   -1.0423    4.3392   -0.7117 C   0  0  0  0  0  0  0  0  0  0  0  0
   -0.6444    3.7889    0.6493 C   0  0  0  0  0  0  0  0  0  0  0  0
   -0.3504    2.3925    0.5835 O   0  0  0  0  0  0  0  0  0  0  0  0
   -1.3947    1.5578    0.6275 C   0  0  0  0  0  0  0  0  0  0  0  0
   -2.5401    1.8973    0.7925 O   0  0  0  0  0  0  0  0  0  0  0  0
   -0.9750    0.1570    0.5033 C   0  0  0  0  0  0  0  0  0  0  0  0
    0.1872   -0.4071   -0.0822 C   0  0  0  0  0  0  0  0  0  0  0  0
    1.2567    0.3218   -0.7490 C   0  0  0  0  0  0  0  0  0  0  0  0
    2.5734    0.1434   -0.4742 C   0  0  0  0  0  0  0  0  0  0  0  0
    3.0660   -1.0114    0.6945 Cl  0  0  0  0  0  0  0  0  0  0  0  0
    3.5743    0.9409   -1.1269 C   0  0  0  0  0  0  0  0  0  0  0  0
    4.9483    0.8287   -0.8914 C   0  0  0  0  0  0  0  0  0  0  0  0
    5.8529    1.6482   -1.5342 C   0  0  0  0  0  0  0  0  0  0  0  0
    7.3244    1.5253   -1.2889 C   0  0  0  0  0  0  0  0  0  0  0  0
    5.3732    2.6064   -2.4329 C   0  0  0  0  0  0  0  0  0  0  0  0
    4.0263    2.7381   -2.6852 C   0  0  0  0  0  0  0  0  0  0  0  0
    3.1164    1.9050   -2.0379 C   0  0  0  0  0  0  0  0  0  0  0  0
    1.8044    2.0578   -2.3294 O   0  0  0  0  0  0  0  0  0  0  0  0
    0.8315    1.2900   -1.7666 C   0  0  0  0  0  0  0  0  0  0  0  0
   -0.3004    1.4335   -2.1494 O   0  0  0  0  0  0  0  0  0  0  0  0
    0.1612   -1.7205    0.0319 N   0  0  0  0  0  0  0  0  0  0  0  0
   -0.9675   -2.0376    0.6657 N   0  0  0  0  0  0  0  0  0  0  0  0
   -1.2698   -3.3836    0.9202 C   0  0  0  0  0  0  0  0  0  0  0  0
   -2.1056   -3.7506    1.9678 C   0  0  0  0  0  0  0  0  0  0  0  0
   -2.3871   -5.0891    2.1759 C   0  0  0  0  0  0  0  0  0  0  0  0
   -1.8320   -6.0586    1.3575 C   0  0  0  0  0  0  0  0  0  0  0  0
   -0.9812   -5.6889    0.3282 C   0  0  0  0  0  0  0  0  0  0  0  0
   -0.6979   -4.3552    0.1051 C   0  0  0  0  0  0  0  0  0  0  0  0
   -1.6898   -0.9352    0.9714 C   0  0  0  0  0  0  0  0  0  0  0  0
   -3.0145   -0.8622    1.6506 C   0  0  0  0  0  0  0  0  0  0  0  0
   -3.1624   -0.4934    2.7851 O   0  0  0  0  0  0  0  0  0  0  0  0
   -3.9787   -1.2392    0.8205 O   0  0  0  0  0  0  0  0  0  0  0  0
   -5.3261   -1.0233    1.2533 C   0  0  0  0  0  0  0  0  0  0  0  0
   -5.7888    0.3658    0.8426 C   0  0  0  0  0  0  0  0  0  0  0  0
   -1.2176    5.4089   -0.6350 H   0  0  0  0  0  0  0  0  0  0  0  0
   -0.2575    4.1530   -1.4401 H   0  0  0  0  0  0  0  0  0  0  0  0
   -1.9507    3.8511   -1.0547 H   0  0  0  0  0  0  0  0  0  0  0  0
    0.2754    4.2522    1.0137 H   0  0  0  0  0  0  0  0  0  0  0  0
   -1.4522    3.9434    1.3726 H   0  0  0  0  0  0  0  0  0  0  0  0
    5.2889    0.0832   -0.1898 H   0  0  0  0  0  0  0  0  0  0  0  0
    7.7393    2.4827   -0.9799 H   0  0  0  0  0  0  0  0  0  0  0  0
    7.8336    1.2234   -2.2025 H   0  0  0  0  0  0  0  0  0  0  0  0
    7.5308    0.7894   -0.5180 H   0  0  0  0  0  0  0  0  0  0  0  0
    6.0748    3.2530   -2.9383 H   0  0  0  0  0  0  0  0  0  0  0  0
    3.6514    3.4726   -3.3795 H   0  0  0  0  0  0  0  0  0  0  0  0
   -2.5159   -3.0043    2.6289 H   0  0  0  0  0  0  0  0  0  0  0  0
   -3.0377   -5.3742    2.9886 H   0  0  0  0  0  0  0  0  0  0  0  0
   -2.0567   -7.1007    1.5266 H   0  0  0  0  0  0  0  0  0  0  0  0
   -0.5397   -6.4422   -0.3064 H   0  0  0  0  0  0  0  0  0  0  0  0
   -0.0391   -4.0443   -0.6897 H   0  0  0  0  0  0  0  0  0  0  0  0
   -5.9143   -1.8055    0.7690 H   0  0  0  0  0  0  0  0  0  0  0  0
   -5.3704   -1.1390    2.3411 H   0  0  0  0  0  0  0  0  0  0  0  0
   -5.7850    0.4574   -0.2402 H   0  0  0  0  0  0  0  0  0  0  0  0
   -6.7928    0.5459    1.2157 H   0  0  0  0  0  0  0  0  0  0  0  0
   -5.1117    1.1119    1.2518 H   0  0  0  0  0  0  0  0  0  0  0  0
  1  2  1  0  0  0  0
  2  3  1  0  0  0  0
  3  4  1  0  0  0  0
  4  5  2  0  0  0  0
  4  6  1  0  0  0  0
  6  7  1  0  0  0  0
  7  8  1  0  0  0  0
  8  9  2  0  0  0  0
  9 10  1  0  0  0  0
  9 11  1  0  0  0  0
 11 12  2  0  0  0  0
 12 13  1  0  0  0  0
 13 14  1  0  0  0  0
 13 15  2  0  0  0  0
 15 16  1  0  0  0  0
 16 17  2  0  0  0  0
 17 18  1  0  0  0  0
 18 19  1  0  0  0  0
 19 20  2  0  0  0  0
  7 21  2  0  0  0  0
 21 22  1  0  0  0  0
 22 23  1  0  0  0  0
 23 24  2  0  0  0  0
 24 25  1  0  0  0  0
 25 26  2  0  0  0  0
 26 27  1  0  0  0  0
 27 28  2  0  0  0  0
 22 29  1  0  0  0  0
 29 30  1  0  0  0  0
 30 31  2  0  0  0  0
 30 32  1  0  0  0  0
 32 33  1  0  0  0  0
 33 34  1  0  0  0  0
 29  6  2  0  0  0  0
 19  8  1  0  0  0  0
 28 23  1  0  0  0  0
 17 11  1  0  0  0  0
  1 35  1  0  0  0  0
  1 36  1  0  0  0  0
  1 37  1  0  0  0  0
  2 38  1  0  0  0  0
  2 39  1  0  0  0  0
 12 40  1  0  0  0  0
 14 41  1  0  0  0  0
 14 42  1  0  0  0  0
 14 43  1  0  0  0  0
 15 44  1  0  0  0  0
 16 45  1  0  0  0  0
 24 46  1  0  0  0  0
 25 47  1  0  0  0  0
 26 48  1  0  0  0  0
 27 49  1  0  0  0  0
 28 50  1  0  0  0  0
 33 51  1  0  0  0  0
 33 52  1  0  0  0  0
 34 53  1  0  0  0  0
 34 54  1  0  0  0  0
 34 55  1  0  0  0  0
M  END
