
  xtb     03022215433D
 energy: -64.451814396746 gnorm: 0.000216553580 xtb: 6.4.1 (afa7bdf)
 45 48  0     0  0            999 V2000
   -1.4711    0.8614    0.4309 C   0  0  0  0  0  0  0  0  0  0  0  0
   -2.5597    0.2375   -0.0643 C   0  0  0  0  0  0  0  0  0  0  0  0
   -3.8754    0.8155    0.0334 C   0  0  0  0  0  0  0  0  0  0  0  0
   -3.9759    2.0067    0.6099 N   0  0  0  0  0  0  0  0  0  0  0  0
   -5.1798    2.5571    0.7202 C   0  0  0  0  0  0  0  0  0  0  0  0
   -6.3197    2.0610    0.3268 N   0  0  0  0  0  0  0  0  0  0  0  0
   -6.2760    0.8491   -0.2694 C   0  0  0  0  0  0  0  0  0  0  0  0
   -7.4826    0.2707   -0.7119 C   0  0  0  0  0  0  0  0  0  0  0  0
   -7.4738   -0.9525   -1.3214 C   0  0  0  0  0  0  0  0  0  0  0  0
   -6.2669   -1.6401   -1.5123 C   0  0  0  0  0  0  0  0  0  0  0  0
   -5.0806   -1.1017   -1.0907 C   0  0  0  0  0  0  0  0  0  0  0  0
   -5.0489    0.1537   -0.4572 C   0  0  0  0  0  0  0  0  0  0  0  0
   -0.1135    0.3924    0.4114 C   0  0  0  0  0  0  0  0  0  0  0  0
    0.8873    1.1677    1.0100 C   0  0  0  0  0  0  0  0  0  0  0  0
    2.2029    0.7707    1.0296 C   0  0  0  0  0  0  0  0  0  0  0  0
    2.6084   -0.4394    0.4433 C   0  0  0  0  0  0  0  0  0  0  0  0
    3.9049   -0.8920    0.5040 N   0  0  0  0  0  0  0  0  0  0  0  0
    4.5072   -1.6188   -0.5928 C   0  0  0  0  0  0  0  0  0  0  0  0
    5.2523   -0.6567   -1.5266 C   0  0  0  0  0  0  0  0  0  0  0  0
    6.3140    0.1182   -0.7502 C   0  0  0  0  0  0  0  0  0  0  0  0
    5.6725    0.8229    0.4429 C   0  0  0  0  0  0  0  0  0  0  0  0
    4.9124   -0.2073    1.2831 C   0  0  0  0  0  0  0  0  0  0  0  0
    1.6027   -1.2189   -0.1552 C   0  0  0  0  0  0  0  0  0  0  0  0
    0.2904   -0.8169   -0.1698 C   0  0  0  0  0  0  0  0  0  0  0  0
   -1.6364    1.8210    0.9039 H   0  0  0  0  0  0  0  0  0  0  0  0
   -2.4749   -0.7238   -0.5451 H   0  0  0  0  0  0  0  0  0  0  0  0
   -5.2090    3.5312    1.1957 H   0  0  0  0  0  0  0  0  0  0  0  0
   -8.3945    0.8242   -0.5520 H   0  0  0  0  0  0  0  0  0  0  0  0
   -8.3970   -1.3990   -1.6615 H   0  0  0  0  0  0  0  0  0  0  0  0
   -6.2786   -2.6054   -1.9976 H   0  0  0  0  0  0  0  0  0  0  0  0
   -4.1648   -1.6506   -1.2491 H   0  0  0  0  0  0  0  0  0  0  0  0
    0.6161    2.1110    1.4628 H   0  0  0  0  0  0  0  0  0  0  0  0
    2.9250    1.4243    1.4924 H   0  0  0  0  0  0  0  0  0  0  0  0
    3.7509   -2.1621   -1.1551 H   0  0  0  0  0  0  0  0  0  0  0  0
    5.2130   -2.3461   -0.1754 H   0  0  0  0  0  0  0  0  0  0  0  0
    5.7118   -1.2199   -2.3402 H   0  0  0  0  0  0  0  0  0  0  0  0
    4.5314    0.0415   -1.9585 H   0  0  0  0  0  0  0  0  0  0  0  0
    7.0788   -0.5757   -0.3920 H   0  0  0  0  0  0  0  0  0  0  0  0
    6.8007    0.8455   -1.4024 H   0  0  0  0  0  0  0  0  0  0  0  0
    4.9769    1.5852    0.0861 H   0  0  0  0  0  0  0  0  0  0  0  0
    6.4337    1.3110    1.0532 H   0  0  0  0  0  0  0  0  0  0  0  0
    5.6193   -0.9683    1.6356 H   0  0  0  0  0  0  0  0  0  0  0  0
    4.4563    0.2488    2.1613 H   0  0  0  0  0  0  0  0  0  0  0  0
    1.8507   -2.1732   -0.5939 H   0  0  0  0  0  0  0  0  0  0  0  0
   -0.4412   -1.4593   -0.6356 H   0  0  0  0  0  0  0  0  0  0  0  0
  1  2  2  0  0  0  0
  2  3  1  0  0  0  0
  3  4  2  0  0  0  0
  4  5  1  0  0  0  0
  5  6  2  0  0  0  0
  6  7  1  0  0  0  0
  7  8  2  0  0  0  0
  8  9  1  0  0  0  0
  9 10  2  0  0  0  0
 10 11  1  0  0  0  0
 11 12  2  0  0  0  0
  1 13  1  0  0  0  0
 13 14  2  0  0  0  0
 14 15  1  0  0  0  0
 15 16  2  0  0  0  0
 16 17  1  0  0  0  0
 17 18  1  0  0  0  0
 18 19  1  0  0  0  0
 19 20  1  0  0  0  0
 20 21  1  0  0  0  0
 21 22  1  0  0  0  0
 16 23  1  0  0  0  0
 23 24  2  0  0  0  0
 12  3  1  0  0  0  0
 24 13  1  0  0  0  0
 12  7  1  0  0  0  0
 22 17  1  0  0  0  0
  1 25  1  0  0  0  0
  2 26  1  0  0  0  0
  5 27  1  0  0  0  0
  8 28  1  0  0  0  0
  9 29  1  0  0  0  0
 10 30  1  0  0  0  0
 11 31  1  0  0  0  0
 14 32  1  0  0  0  0
 15 33  1  0  0  0  0
 18 34  1  0  0  0  0
 18 35  1  0  0  0  0
 19 36  1  0  0  0  0
 19 37  1  0  0  0  0
 20 38  1  0  0  0  0
 20 39  1  0  0  0  0
 21 40  1  0  0  0  0
 21 41  1  0  0  0  0
 22 42  1  0  0  0  0
 22 43  1  0  0  0  0
 23 44  1  0  0  0  0
 24 45  1  0  0  0  0
M  END
