
  xtb     03022215263D
 energy: -79.415086342748 gnorm: 0.000120311921 xtb: 6.4.1 (afa7bdf)
 52 56  0     0  0            999 V2000
    2.1891    0.1509    0.0806 C   0  0  0  0  0  0  0  0  0  0  0  0
    3.0620    0.1869   -0.9406 C   0  0  0  0  0  0  0  0  0  0  0  0
    4.4877    0.3103   -0.7425 C   0  0  0  0  0  0  0  0  0  0  0  0
    5.2312    0.3429   -1.8801 N   0  0  0  0  0  0  0  0  0  0  0  0
    6.5196    0.4593   -1.7577 C   0  0  0  0  0  0  0  0  0  0  0  0
    7.1659    0.5513   -0.5041 C   0  0  0  0  0  0  0  0  0  0  0  0
    8.5533    0.6809   -0.3206 C   0  0  0  0  0  0  0  0  0  0  0  0
    9.0666    0.7597    0.9449 C   0  0  0  0  0  0  0  0  0  0  0  0
    8.2168    0.7114    2.0639 C   0  0  0  0  0  0  0  0  0  0  0  0
    6.8637    0.5862    1.9180 C   0  0  0  0  0  0  0  0  0  0  0  0
    6.3020    0.5036    0.6255 C   0  0  0  0  0  0  0  0  0  0  0  0
    4.9728    0.3836    0.4790 N   0  0  0  0  0  0  0  0  0  0  0  0
    0.7537    0.0384   -0.0058 C   0  0  0  0  0  0  0  0  0  0  0  0
    0.0588   -0.0348   -1.2192 C   0  0  0  0  0  0  0  0  0  0  0  0
   -1.3125   -0.1359   -1.2514 C   0  0  0  0  0  0  0  0  0  0  0  0
   -2.0545   -0.1705   -0.0665 C   0  0  0  0  0  0  0  0  0  0  0  0
   -3.4428   -0.2713   -0.0997 N   0  0  0  0  0  0  0  0  0  0  0  0
   -4.0725   -1.0158   -1.1065 C   0  0  0  0  0  0  0  0  0  0  0  0
   -5.2677   -0.5707   -1.6699 C   0  0  0  0  0  0  0  0  0  0  0  0
   -5.8904   -1.3124   -2.6549 C   0  0  0  0  0  0  0  0  0  0  0  0
   -5.3314   -2.4998   -3.0983 C   0  0  0  0  0  0  0  0  0  0  0  0
   -4.1423   -2.9444   -2.5438 C   0  0  0  0  0  0  0  0  0  0  0  0
   -3.5163   -2.2142   -1.5524 C   0  0  0  0  0  0  0  0  0  0  0  0
   -4.2217    0.3704    0.8725 C   0  0  0  0  0  0  0  0  0  0  0  0
   -5.3703   -0.2418    1.3726 C   0  0  0  0  0  0  0  0  0  0  0  0
   -6.1410    0.3977    2.3240 C   0  0  0  0  0  0  0  0  0  0  0  0
   -5.7777    1.6481    2.7968 C   0  0  0  0  0  0  0  0  0  0  0  0
   -4.6359    2.2592    2.3049 C   0  0  0  0  0  0  0  0  0  0  0  0
   -3.8634    1.6318    1.3470 C   0  0  0  0  0  0  0  0  0  0  0  0
   -1.3713   -0.1002    1.1508 C   0  0  0  0  0  0  0  0  0  0  0  0
    0.0003    0.0031    1.1745 C   0  0  0  0  0  0  0  0  0  0  0  0
    2.6008    0.2144    1.0798 H   0  0  0  0  0  0  0  0  0  0  0  0
    2.7590    0.1297   -1.9747 H   0  0  0  0  0  0  0  0  0  0  0  0
    7.0957    0.4838   -2.6771 H   0  0  0  0  0  0  0  0  0  0  0  0
    9.1958    0.7166   -1.1892 H   0  0  0  0  0  0  0  0  0  0  0  0
   10.1315    0.8599    1.0954 H   0  0  0  0  0  0  0  0  0  0  0  0
    8.6501    0.7753    3.0518 H   0  0  0  0  0  0  0  0  0  0  0  0
    6.1991    0.5481    2.7667 H   0  0  0  0  0  0  0  0  0  0  0  0
    0.6023   -0.0003   -2.1502 H   0  0  0  0  0  0  0  0  0  0  0  0
   -1.8294   -0.1792   -2.1990 H   0  0  0  0  0  0  0  0  0  0  0  0
   -5.7005    0.3594   -1.3313 H   0  0  0  0  0  0  0  0  0  0  0  0
   -6.8149   -0.9561   -3.0848 H   0  0  0  0  0  0  0  0  0  0  0  0
   -5.8194   -3.0751   -3.8704 H   0  0  0  0  0  0  0  0  0  0  0  0
   -3.7024   -3.8720   -2.8793 H   0  0  0  0  0  0  0  0  0  0  0  0
   -2.5950   -2.5680   -1.1132 H   0  0  0  0  0  0  0  0  0  0  0  0
   -5.6504   -1.2207    1.0116 H   0  0  0  0  0  0  0  0  0  0  0  0
   -7.0275   -0.0879    2.7046 H   0  0  0  0  0  0  0  0  0  0  0  0
   -6.3805    2.1431    3.5429 H   0  0  0  0  0  0  0  0  0  0  0  0
   -4.3484    3.2367    2.6632 H   0  0  0  0  0  0  0  0  0  0  0  0
   -2.9800    2.1152    0.9561 H   0  0  0  0  0  0  0  0  0  0  0  0
   -1.9296   -0.1360    2.0749 H   0  0  0  0  0  0  0  0  0  0  0  0
    0.5116    0.0490    2.1253 H   0  0  0  0  0  0  0  0  0  0  0  0
  1  2  2  0  0  0  0
  2  3  1  0  0  0  0
  3  4  2  0  0  0  0
  4  5  1  0  0  0  0
  5  6  2  0  0  0  0
  6  7  1  0  0  0  0
  7  8  2  0  0  0  0
  8  9  1  0  0  0  0
  9 10  2  0  0  0  0
 10 11  1  0  0  0  0
 11 12  2  0  0  0  0
  1 13  1  0  0  0  0
 13 14  2  0  0  0  0
 14 15  1  0  0  0  0
 15 16  2  0  0  0  0
 16 17  1  0  0  0  0
 17 18  1  0  0  0  0
 18 19  2  0  0  0  0
 19 20  1  0  0  0  0
 20 21  2  0  0  0  0
 21 22  1  0  0  0  0
 22 23  2  0  0  0  0
 17 24  1  0  0  0  0
 24 25  2  0  0  0  0
 25 26  1  0  0  0  0
 26 27  2  0  0  0  0
 27 28  1  0  0  0  0
 28 29  2  0  0  0  0
 16 30  1  0  0  0  0
 30 31  2  0  0  0  0
 12  3  1  0  0  0  0
 31 13  1  0  0  0  0
 11  6  1  0  0  0  0
 23 18  1  0  0  0  0
 29 24  1  0  0  0  0
  1 32  1  0  0  0  0
  2 33  1  0  0  0  0
  5 34  1  0  0  0  0
  7 35  1  0  0  0  0
  8 36  1  0  0  0  0
  9 37  1  0  0  0  0
 10 38  1  0  0  0  0
 14 39  1  0  0  0  0
 15 40  1  0  0  0  0
 19 41  1  0  0  0  0
 20 42  1  0  0  0  0
 21 43  1  0  0  0  0
 22 44  1  0  0  0  0
 23 45  1  0  0  0  0
 25 46  1  0  0  0  0
 26 47  1  0  0  0  0
 27 48  1  0  0  0  0
 28 49  1  0  0  0  0
 29 50  1  0  0  0  0
 30 51  1  0  0  0  0
 31 52  1  0  0  0  0
M  END
