
  xtb     03022212253D
 energy: -70.982713045531 gnorm: 0.000049330351 xtb: 6.4.1 (afa7bdf)
 36 39  0     0  0            999 V2000
   -4.7942    2.9098    0.7128 C   0  0  0  0  0  0  0  0  0  0  0  0
   -4.9849    1.5451    0.4121 O   0  0  0  0  0  0  0  0  0  0  0  0
   -3.9067    0.7543    0.2349 C   0  0  0  0  0  0  0  0  0  0  0  0
   -2.5755    1.1824    0.3248 C   0  0  0  0  0  0  0  0  0  0  0  0
   -1.5460    0.2934    0.1265 C   0  0  0  0  0  0  0  0  0  0  0  0
   -1.7911   -1.0510   -0.1679 C   0  0  0  0  0  0  0  0  0  0  0  0
   -0.7769   -2.0500   -0.3895 C   0  0  0  0  0  0  0  0  0  0  0  0
    0.6397   -1.7332   -0.3234 C   0  0  0  0  0  0  0  0  0  0  0  0
    1.2184   -0.5926   -0.0786 N   0  0  0  0  0  0  0  0  0  0  0  0
    2.5504   -0.8899   -0.1449 C   0  0  0  0  0  0  0  0  0  0  0  0
    3.5760    0.1108    0.0689 C   0  0  0  0  0  0  0  0  0  0  0  0
    3.2047    1.4253    0.3517 C   0  0  0  0  0  0  0  0  0  0  0  0
    4.1597    2.4004    0.5599 C   0  0  0  0  0  0  0  0  0  0  0  0
    5.5069    2.0805    0.4895 C   0  0  0  0  0  0  0  0  0  0  0  0
    5.8991    0.7831    0.2104 C   0  0  0  0  0  0  0  0  0  0  0  0
    4.9371   -0.1887    0.0029 C   0  0  0  0  0  0  0  0  0  0  0  0
    5.3436   -1.4370   -0.2657 F   0  0  0  0  0  0  0  0  0  0  0  0
    2.7632   -2.1526   -0.4172 N   0  0  0  0  0  0  0  0  0  0  0  0
    1.5410   -2.7076   -0.5349 O   0  0  0  0  0  0  0  0  0  0  0  0
   -1.1457   -3.3275   -0.6687 C   0  0  0  0  0  0  0  0  0  0  0  0
   -2.5393   -3.7292   -0.7535 C   0  0  0  0  0  0  0  0  0  0  0  0
   -2.9234   -4.8440   -0.9972 O   0  0  0  0  0  0  0  0  0  0  0  0
   -3.4720   -2.7527   -0.5368 O   0  0  0  0  0  0  0  0  0  0  0  0
   -3.1324   -1.4752   -0.2572 C   0  0  0  0  0  0  0  0  0  0  0  0
   -4.1716   -0.5802   -0.0577 C   0  0  0  0  0  0  0  0  0  0  0  0
   -4.2610    3.4267   -0.0905 H   0  0  0  0  0  0  0  0  0  0  0  0
   -5.7939    3.3296    0.8090 H   0  0  0  0  0  0  0  0  0  0  0  0
   -4.2549    3.0411    1.6555 H   0  0  0  0  0  0  0  0  0  0  0  0
   -2.3422    2.2103    0.5498 H   0  0  0  0  0  0  0  0  0  0  0  0
   -0.5226    0.6226    0.1957 H   0  0  0  0  0  0  0  0  0  0  0  0
    2.1529    1.6582    0.4030 H   0  0  0  0  0  0  0  0  0  0  0  0
    3.8555    3.4125    0.7777 H   0  0  0  0  0  0  0  0  0  0  0  0
    6.2548    2.8413    0.6520 H   0  0  0  0  0  0  0  0  0  0  0  0
    6.9409    0.5102    0.1505 H   0  0  0  0  0  0  0  0  0  0  0  0
   -0.4188   -4.1050   -0.8410 H   0  0  0  0  0  0  0  0  0  0  0  0
   -5.1908   -0.9210   -0.1295 H   0  0  0  0  0  0  0  0  0  0  0  0
  1  2  1  0  0  0  0
  2  3  1  0  0  0  0
  3  4  2  0  0  0  0
  4  5  1  0  0  0  0
  5  6  2  0  0  0  0
  6  7  1  0  0  0  0
  7  8  1  0  0  0  0
  8  9  2  0  0  0  0
  9 10  1  0  0  0  0
 10 11  1  0  0  0  0
 11 12  2  0  0  0  0
 12 13  1  0  0  0  0
 13 14  2  0  0  0  0
 14 15  1  0  0  0  0
 15 16  2  0  0  0  0
 16 17  1  0  0  0  0
 10 18  2  0  0  0  0
 18 19  1  0  0  0  0
  7 20  2  0  0  0  0
 20 21  1  0  0  0  0
 21 22  2  0  0  0  0
 21 23  1  0  0  0  0
 23 24  1  0  0  0  0
 24 25  2  0  0  0  0
 25  3  1  0  0  0  0
 24  6  1  0  0  0  0
 19  8  1  0  0  0  0
 16 11  1  0  0  0  0
  1 26  1  0  0  0  0
  1 27  1  0  0  0  0
  1 28  1  0  0  0  0
  4 29  1  0  0  0  0
  5 30  1  0  0  0  0
 12 31  1  0  0  0  0
 13 32  1  0  0  0  0
 14 33  1  0  0  0  0
 15 34  1  0  0  0  0
 20 35  1  0  0  0  0
 25 36  1  0  0  0  0
M  END
