
  xtb     03022214073D
 energy: -57.013787317463 gnorm: 0.000685442755 xtb: 6.4.1 (afa7bdf)
 34 36  0     0  0            999 V2000
   -4.3997    1.7345    1.2935 C   0  0  0  0  0  0  0  0  0  0  0  0
   -3.1432    0.9982    0.9546 C   0  0  0  0  0  0  0  0  0  0  0  0
   -3.0562   -0.3808    1.1754 C   0  0  0  0  0  0  0  0  0  0  0  0
   -1.9411   -1.1458    0.8872 C   0  0  0  0  0  0  0  0  0  0  0  0
   -1.9892   -2.5888    1.3116 C   0  0  0  0  0  0  0  0  0  0  0  0
   -0.8260   -0.5081    0.2968 C   0  0  0  0  0  0  0  0  0  0  0  0
   -0.8693    0.9125    0.1666 C   0  0  0  0  0  0  0  0  0  0  0  0
   -2.0273    1.6381    0.4776 C   0  0  0  0  0  0  0  0  0  0  0  0
    0.1989    1.6354   -0.2381 N   0  0  0  0  0  0  0  0  0  0  0  0
    1.3037    1.0232   -0.5003 C   0  0  0  0  0  0  0  0  0  0  0  0
    2.5059    1.8083   -0.8820 C   0  0  0  0  0  0  0  0  0  0  0  0
    2.5431    3.0190   -0.8609 O   0  0  0  0  0  0  0  0  0  0  0  0
    3.5783    1.0363   -1.2482 N   0  0  0  0  0  0  0  0  0  0  0  0
    4.8003    1.7128   -1.6427 C   0  0  0  0  0  0  0  0  0  0  0  0
    3.5976   -0.3799   -1.2895 C   0  0  0  0  0  0  0  0  0  0  0  0
    4.5973   -0.9485   -1.6567 O   0  0  0  0  0  0  0  0  0  0  0  0
    2.4826   -1.0495   -0.8993 N   0  0  0  0  0  0  0  0  0  0  0  0
    1.4162   -0.4140   -0.5092 C   0  0  0  0  0  0  0  0  0  0  0  0
    0.3131   -1.1397   -0.1570 N   0  0  0  0  0  0  0  0  0  0  0  0
    0.3983   -2.5633   -0.4108 C   0  0  0  0  0  0  0  0  0  0  0  0
   -4.3549    2.7590    0.9352 H   0  0  0  0  0  0  0  0  0  0  0  0
   -5.2632    1.2412    0.8504 H   0  0  0  0  0  0  0  0  0  0  0  0
   -4.5441    1.7519    2.3737 H   0  0  0  0  0  0  0  0  0  0  0  0
   -3.9099   -0.8747    1.6179 H   0  0  0  0  0  0  0  0  0  0  0  0
   -2.2002   -3.2578    0.4796 H   0  0  0  0  0  0  0  0  0  0  0  0
   -2.7886   -2.7162    2.0380 H   0  0  0  0  0  0  0  0  0  0  0  0
   -1.0616   -2.8959    1.7842 H   0  0  0  0  0  0  0  0  0  0  0  0
   -1.9889    2.7064    0.3399 H   0  0  0  0  0  0  0  0  0  0  0  0
    4.7803    2.7195   -1.2309 H   0  0  0  0  0  0  0  0  0  0  0  0
    5.6511    1.1500   -1.2632 H   0  0  0  0  0  0  0  0  0  0  0  0
    4.8675    1.7627   -2.7305 H   0  0  0  0  0  0  0  0  0  0  0  0
    1.2042   -2.7038   -1.1313 H   0  0  0  0  0  0  0  0  0  0  0  0
    0.6634   -3.1148    0.4897 H   0  0  0  0  0  0  0  0  0  0  0  0
   -0.5382   -2.9271   -0.8211 H   0  0  0  0  0  0  0  0  0  0  0  0
  1  2  1  0  0  0  0
  2  3  2  0  0  0  0
  3  4  1  0  0  0  0
  4  5  1  0  0  0  0
  4  6  2  0  0  0  0
  6  7  1  0  0  0  0
  7  8  2  0  0  0  0
  7  9  1  0  0  0  0
  9 10  2  0  0  0  0
 10 11  1  0  0  0  0
 11 12  2  0  0  0  0
 11 13  1  0  0  0  0
 13 14  1  0  0  0  0
 13 15  1  0  0  0  0
 15 16  2  0  0  0  0
 15 17  1  0  0  0  0
 17 18  2  0  0  0  0
 18 19  1  0  0  0  0
 19 20  1  0  0  0  0
  8  2  1  0  0  0  0
 18 10  1  0  0  0  0
 19  6  1  0  0  0  0
  1 21  1  0  0  0  0
  1 22  1  0  0  0  0
  1 23  1  0  0  0  0
  3 24  1  0  0  0  0
  5 25  1  0  0  0  0
  5 26  1  0  0  0  0
  5 27  1  0  0  0  0
  8 28  1  0  0  0  0
 14 29  1  0  0  0  0
 14 30  1  0  0  0  0
 14 31  1  0  0  0  0
 20 32  1  0  0  0  0
 20 33  1  0  0  0  0
 20 34  1  0  0  0  0
M  END
