
  xtb     03022212283D
 energy: -153.062138085429 gnorm: 0.000108212218 xtb: 6.4.1 (afa7bdf)
 93103  0     0  0            999 V2000
   -6.1735   -6.4600   -2.6411 C   0  0  0  0  0  0  0  0  0  0  0  0
   -4.8291   -6.1355   -2.8960 O   0  0  0  0  0  0  0  0  0  0  0  0
   -4.3279   -4.9766   -2.3929 C   0  0  0  0  0  0  0  0  0  0  0  0
   -2.9874   -4.7104   -2.6786 C   0  0  0  0  0  0  0  0  0  0  0  0
   -2.3854   -3.5675   -2.2094 C   0  0  0  0  0  0  0  0  0  0  0  0
   -3.0957   -2.6448   -1.4354 C   0  0  0  0  0  0  0  0  0  0  0  0
   -4.4550   -2.8994   -1.1699 C   0  0  0  0  0  0  0  0  0  0  0  0
   -5.0511   -4.0561   -1.6405 C   0  0  0  0  0  0  0  0  0  0  0  0
   -5.2598   -1.9324   -0.3444 C   0  0  0  0  0  0  0  0  0  0  0  0
   -4.8921   -0.4901   -0.6927 C   0  0  0  0  0  0  0  0  0  0  0  0
   -3.4171   -0.3550   -0.5418 C   0  0  0  0  0  0  0  0  0  0  0  0
   -2.6373    0.6951   -0.1044 C   0  0  0  0  0  0  0  0  0  0  0  0
   -3.0874    2.0239    0.3097 C   0  0  0  0  0  0  0  0  0  0  0  0
   -3.9757    2.1788    1.3700 C   0  0  0  0  0  0  0  0  0  0  0  0
   -4.3696    3.4412    1.7737 C   0  0  0  0  0  0  0  0  0  0  0  0
   -3.8878    4.5624    1.1200 C   0  0  0  0  0  0  0  0  0  0  0  0
   -3.0241    4.4155    0.0469 C   0  0  0  0  0  0  0  0  0  0  0  0
   -2.6306    3.1560   -0.3619 C   0  0  0  0  0  0  0  0  0  0  0  0
   -1.2880    0.2398   -0.1773 C   0  0  0  0  0  0  0  0  0  0  0  0
   -0.1234    0.8598    0.2710 C   0  0  0  0  0  0  0  0  0  0  0  0
   -0.1991    2.1755    0.9372 C   0  0  0  0  0  0  0  0  0  0  0  0
   -0.8706    2.2844    2.1774 C   0  0  0  0  0  0  0  0  0  0  0  0
   -0.9161    3.5005    2.7930 C   0  0  0  0  0  0  0  0  0  0  0  0
   -0.2929    4.6126    2.1881 C   0  0  0  0  0  0  0  0  0  0  0  0
   -0.2832    5.8966    2.7630 C   0  0  0  0  0  0  0  0  0  0  0  0
    0.3577    6.9234    2.1284 C   0  0  0  0  0  0  0  0  0  0  0  0
    1.0058    6.7154    0.9048 C   0  0  0  0  0  0  0  0  0  0  0  0
    1.0137    5.4772    0.3074 C   0  0  0  0  0  0  0  0  0  0  0  0
    1.6257    5.2407   -0.8724 O   0  0  0  0  0  0  0  0  0  0  0  0
    0.3576    4.3880    0.9467 C   0  0  0  0  0  0  0  0  0  0  0  0
    0.3889    3.1847    0.3547 N   0  0  0  0  0  0  0  0  0  0  0  0
    1.1098    0.2257    0.1576 C   0  0  0  0  0  0  0  0  0  0  0  0
    2.3907    0.6473    0.6203 C   0  0  0  0  0  0  0  0  0  0  0  0
    2.7235    1.8708    1.3545 C   0  0  0  0  0  0  0  0  0  0  0  0
    2.2734    2.0608    2.6575 C   0  0  0  0  0  0  0  0  0  0  0  0
    2.5817    3.2219    3.3409 C   0  0  0  0  0  0  0  0  0  0  0  0
    3.3543    4.2000    2.7379 C   0  0  0  0  0  0  0  0  0  0  0  0
    3.8300    4.0035    1.4529 C   0  0  0  0  0  0  0  0  0  0  0  0
    3.5220    2.8444    0.7652 C   0  0  0  0  0  0  0  0  0  0  0  0
    3.2704   -0.3505    0.2640 C   0  0  0  0  0  0  0  0  0  0  0  0
    2.5366   -1.3654   -0.3970 C   0  0  0  0  0  0  0  0  0  0  0  0
    1.2403   -1.0046   -0.4540 N   0  0  0  0  0  0  0  0  0  0  0  0
    0.0384   -1.7746   -1.0505 B   0  0  0  0  0  4  0  0  0  0  0  0
    0.0218   -3.0600   -0.5473 F   0  0  0  0  0  0  0  0  0  0  0  0
    0.1558   -1.7967   -2.4371 F   0  0  0  0  0  0  0  0  0  0  0  0
   -1.2767   -1.0387   -0.6955 N   0  0  0  0  0  4  0  0  0  0  0  0
   -2.5527   -1.4112   -0.9180 C   0  0  0  0  0  0  0  0  0  0  0  0
    3.2052   -2.5538   -0.8692 C   0  0  0  0  0  0  0  0  0  0  0  0
    2.7150   -3.4023   -1.8664 C   0  0  0  0  0  0  0  0  0  0  0  0
    3.4327   -4.4997   -2.2778 C   0  0  0  0  0  0  0  0  0  0  0  0
    4.6728   -4.7925   -1.7069 C   0  0  0  0  0  0  0  0  0  0  0  0
    5.3040   -5.8986   -2.1812 O   0  0  0  0  0  0  0  0  0  0  0  0
    6.5612   -6.2415   -1.6522 C   0  0  0  0  0  0  0  0  0  0  0  0
    5.1764   -3.9490   -0.7211 C   0  0  0  0  0  0  0  0  0  0  0  0
    4.4638   -2.8382   -0.3049 C   0  0  0  0  0  0  0  0  0  0  0  0
    5.0212   -1.9627    0.7846 C   0  0  0  0  0  0  0  0  0  0  0  0
    4.7332   -0.4883    0.5015 C   0  0  0  0  0  0  0  0  0  0  0  0
   -6.3671   -6.5600   -1.5681 H   0  0  0  0  0  0  0  0  0  0  0  0
   -6.3427   -7.4196   -3.1272 H   0  0  0  0  0  0  0  0  0  0  0  0
   -6.8550   -5.7156   -3.0659 H   0  0  0  0  0  0  0  0  0  0  0  0
   -2.4395   -5.4213   -3.2756 H   0  0  0  0  0  0  0  0  0  0  0  0
   -1.3593   -3.3814   -2.4617 H   0  0  0  0  0  0  0  0  0  0  0  0
   -6.0919   -4.2290   -1.4110 H   0  0  0  0  0  0  0  0  0  0  0  0
   -6.3266   -2.1034   -0.4978 H   0  0  0  0  0  0  0  0  0  0  0  0
   -5.0412   -2.1083    0.7148 H   0  0  0  0  0  0  0  0  0  0  0  0
   -5.4216    0.2181   -0.0548 H   0  0  0  0  0  0  0  0  0  0  0  0
   -5.1739   -0.2831   -1.7309 H   0  0  0  0  0  0  0  0  0  0  0  0
   -4.3324    1.3053    1.8971 H   0  0  0  0  0  0  0  0  0  0  0  0
   -5.0499    3.5511    2.6060 H   0  0  0  0  0  0  0  0  0  0  0  0
   -4.1863    5.5487    1.4435 H   0  0  0  0  0  0  0  0  0  0  0  0
   -2.6512    5.2875   -0.4701 H   0  0  0  0  0  0  0  0  0  0  0  0
   -1.9567    3.0403   -1.1975 H   0  0  0  0  0  0  0  0  0  0  0  0
   -1.3217    1.4081    2.6166 H   0  0  0  0  0  0  0  0  0  0  0  0
   -1.4173    3.6285    3.7423 H   0  0  0  0  0  0  0  0  0  0  0  0
   -0.7842    6.0522    3.7069 H   0  0  0  0  0  0  0  0  0  0  0  0
    0.3726    7.9113    2.5645 H   0  0  0  0  0  0  0  0  0  0  0  0
    1.5084    7.5441    0.4225 H   0  0  0  0  0  0  0  0  0  0  0  0
    2.0441    6.0497   -1.1942 H   0  0  0  0  0  0  0  0  0  0  0  0
    1.6753    1.2942    3.1298 H   0  0  0  0  0  0  0  0  0  0  0  0
    2.2161    3.3659    4.3475 H   0  0  0  0  0  0  0  0  0  0  0  0
    3.5840    5.1116    3.2700 H   0  0  0  0  0  0  0  0  0  0  0  0
    4.4419    4.7600    0.9830 H   0  0  0  0  0  0  0  0  0  0  0  0
    3.8750    2.6971   -0.2438 H   0  0  0  0  0  0  0  0  0  0  0  0
    1.7739   -3.1906   -2.3366 H   0  0  0  0  0  0  0  0  0  0  0  0
    3.0561   -5.1528   -3.0484 H   0  0  0  0  0  0  0  0  0  0  0  0
    6.5032   -6.4503   -0.5790 H   0  0  0  0  0  0  0  0  0  0  0  0
    6.8658   -7.1453   -2.1777 H   0  0  0  0  0  0  0  0  0  0  0  0
    7.3012   -5.4543   -1.8303 H   0  0  0  0  0  0  0  0  0  0  0  0
    6.1333   -4.1483   -0.2624 H   0  0  0  0  0  0  0  0  0  0  0  0
    6.0944   -2.1298    0.8904 H   0  0  0  0  0  0  0  0  0  0  0  0
    4.5444   -2.2389    1.7314 H   0  0  0  0  0  0  0  0  0  0  0  0
    5.2840   -0.1739   -0.3914 H   0  0  0  0  0  0  0  0  0  0  0  0
    5.0503    0.1426    1.3338 H   0  0  0  0  0  0  0  0  0  0  0  0
  1  2  1  0  0  0  0
  2  3  1  0  0  0  0
  3  4  2  0  0  0  0
  4  5  1  0  0  0  0
  5  6  2  0  0  0  0
  6  7  1  0  0  0  0
  7  8  2  0  0  0  0
  7  9  1  0  0  0  0
  9 10  1  0  0  0  0
 10 11  1  0  0  0  0
 11 12  2  0  0  0  0
 12 13  1  0  0  0  0
 13 14  2  0  0  0  0
 14 15  1  0  0  0  0
 15 16  2  0  0  0  0
 16 17  1  0  0  0  0
 17 18  2  0  0  0  0
 12 19  1  0  0  0  0
 19 20  2  0  0  0  0
 20 21  1  0  0  0  0
 21 22  2  0  0  0  0
 22 23  1  0  0  0  0
 23 24  2  0  0  0  0
 24 25  1  0  0  0  0
 25 26  2  0  0  0  0
 26 27  1  0  0  0  0
 27 28  2  0  0  0  0
 28 29  1  0  0  0  0
 28 30  1  0  0  0  0
 30 31  2  0  0  0  0
 20 32  1  0  0  0  0
 32 33  2  0  0  0  0
 33 34  1  0  0  0  0
 34 35  2  0  0  0  0
 35 36  1  0  0  0  0
 36 37  2  0  0  0  0
 37 38  1  0  0  0  0
 38 39  2  0  0  0  0
 33 40  1  0  0  0  0
 40 41  2  0  0  0  0
 41 42  1  0  0  0  0
 42 43  1  0  0  0  0
 43 44  1  0  0  0  0
 43 45  1  0  0  0  0
 43 46  1  0  0  0  0
 46 47  2  0  0  0  0
 41 48  1  0  0  0  0
 48 49  2  0  0  0  0
 49 50  1  0  0  0  0
 50 51  2  0  0  0  0
 51 52  1  0  0  0  0
 52 53  1  0  0  0  0
 51 54  1  0  0  0  0
 54 55  2  0  0  0  0
 55 56  1  0  0  0  0
 56 57  1  0  0  0  0
  8  3  1  0  0  0  0
 47 11  1  0  0  0  0
 55 48  1  0  0  0  0
 47  6  1  0  0  0  0
 18 13  1  0  0  0  0
 46 19  1  0  0  0  0
 31 21  1  0  0  0  0
 42 32  1  0  0  0  0
 30 24  1  0  0  0  0
 39 34  1  0  0  0  0
 57 40  1  0  0  0  0
  1 58  1  0  0  0  0
  1 59  1  0  0  0  0
  1 60  1  0  0  0  0
  4 61  1  0  0  0  0
  5 62  1  0  0  0  0
  8 63  1  0  0  0  0
  9 64  1  0  0  0  0
  9 65  1  0  0  0  0
 10 66  1  0  0  0  0
 10 67  1  0  0  0  0
 14 68  1  0  0  0  0
 15 69  1  0  0  0  0
 16 70  1  0  0  0  0
 17 71  1  0  0  0  0
 18 72  1  0  0  0  0
 22 73  1  0  0  0  0
 23 74  1  0  0  0  0
 25 75  1  0  0  0  0
 26 76  1  0  0  0  0
 27 77  1  0  0  0  0
 29 78  1  0  0  0  0
 35 79  1  0  0  0  0
 36 80  1  0  0  0  0
 37 81  1  0  0  0  0
 38 82  1  0  0  0  0
 39 83  1  0  0  0  0
 49 84  1  0  0  0  0
 50 85  1  0  0  0  0
 53 86  1  0  0  0  0
 53 87  1  0  0  0  0
 53 88  1  0  0  0  0
 54 89  1  0  0  0  0
 56 90  1  0  0  0  0
 56 91  1  0  0  0  0
 57 92  1  0  0  0  0
 57 93  1  0  0  0  0
M  CHG  1  43  -1
M  CHG  1  46   1
M  END
