
  xtb     03022215593D
 energy: -69.809955870839 gnorm: 0.000107464859 xtb: 6.4.1 (afa7bdf)
 46 49  0     0  0            999 V2000
    3.3822   -0.0808    0.1837 C   0  0  0  0  0  0  0  0  0  0  0  0
    4.1981    0.9584   -0.0640 C   0  0  0  0  0  0  0  0  0  0  0  0
    5.6359    0.8540    0.0230 C   0  0  0  0  0  0  0  0  0  0  0  0
    6.4648    1.9600   -0.2269 C   0  0  0  0  0  0  0  0  0  0  0  0
    7.7790    1.8912   -0.1521 N   0  0  0  0  0  0  0  0  0  0  0  0
    8.3059    0.7172    0.1734 C   0  0  0  0  0  0  0  0  0  0  0  0
    7.5001   -0.3867    0.4230 C   0  0  0  0  0  0  0  0  0  0  0  0
    6.1846   -0.3233    0.3503 N   0  0  0  0  0  0  0  0  0  0  0  0
    1.9407   -0.0893    0.1331 C   0  0  0  0  0  0  0  0  0  0  0  0
    1.1758    1.0116   -0.2709 C   0  0  0  0  0  0  0  0  0  0  0  0
   -0.1980    0.9552   -0.2982 C   0  0  0  0  0  0  0  0  0  0  0  0
   -0.8737   -0.2086    0.0830 C   0  0  0  0  0  0  0  0  0  0  0  0
   -2.2638   -0.2617    0.0607 N   0  0  0  0  0  0  0  0  0  0  0  0
   -2.9240   -1.4589   -0.2489 C   0  0  0  0  0  0  0  0  0  0  0  0
   -4.0970   -1.8086    0.4186 C   0  0  0  0  0  0  0  0  0  0  0  0
   -4.7513   -2.9841    0.1049 C   0  0  0  0  0  0  0  0  0  0  0  0
   -4.2459   -3.8302   -0.8685 C   0  0  0  0  0  0  0  0  0  0  0  0
   -3.0796   -3.4879   -1.5330 C   0  0  0  0  0  0  0  0  0  0  0  0
   -2.4228   -2.3103   -1.2328 C   0  0  0  0  0  0  0  0  0  0  0  0
   -3.0188    0.8834    0.3515 C   0  0  0  0  0  0  0  0  0  0  0  0
   -4.1871    1.1559   -0.3589 C   0  0  0  0  0  0  0  0  0  0  0  0
   -4.9333    2.2805   -0.0639 C   0  0  0  0  0  0  0  0  0  0  0  0
   -4.5258    3.1513    0.9333 C   0  0  0  0  0  0  0  0  0  0  0  0
   -3.3646    2.8856    1.6405 C   0  0  0  0  0  0  0  0  0  0  0  0
   -2.6160    1.7594    1.3588 C   0  0  0  0  0  0  0  0  0  0  0  0
   -0.1199   -1.3150    0.4852 C   0  0  0  0  0  0  0  0  0  0  0  0
    1.2540   -1.2523    0.5045 C   0  0  0  0  0  0  0  0  0  0  0  0
    3.8521   -1.0160    0.4599 H   0  0  0  0  0  0  0  0  0  0  0  0
    3.8181    1.9324   -0.3375 H   0  0  0  0  0  0  0  0  0  0  0  0
    6.0510    2.9241   -0.4935 H   0  0  0  0  0  0  0  0  0  0  0  0
    9.3842    0.6724    0.2320 H   0  0  0  0  0  0  0  0  0  0  0  0
    7.9166   -1.3496    0.6890 H   0  0  0  0  0  0  0  0  0  0  0  0
    1.6655    1.9212   -0.5821 H   0  0  0  0  0  0  0  0  0  0  0  0
   -0.7674    1.8129   -0.6257 H   0  0  0  0  0  0  0  0  0  0  0  0
   -4.4879   -1.1542    1.1841 H   0  0  0  0  0  0  0  0  0  0  0  0
   -5.6582   -3.2446    0.6304 H   0  0  0  0  0  0  0  0  0  0  0  0
   -4.7579   -4.7496   -1.1083 H   0  0  0  0  0  0  0  0  0  0  0  0
   -2.6819   -4.1384   -2.2979 H   0  0  0  0  0  0  0  0  0  0  0  0
   -1.5201   -2.0394   -1.7606 H   0  0  0  0  0  0  0  0  0  0  0  0
   -4.5016    0.4820   -1.1423 H   0  0  0  0  0  0  0  0  0  0  0  0
   -5.8353    2.4820   -0.6227 H   0  0  0  0  0  0  0  0  0  0  0  0
   -5.1096    4.0307    1.1586 H   0  0  0  0  0  0  0  0  0  0  0  0
   -3.0431    3.5555    2.4243 H   0  0  0  0  0  0  0  0  0  0  0  0
   -1.7169    1.5474    1.9188 H   0  0  0  0  0  0  0  0  0  0  0  0
   -0.6262   -2.2191    0.7905 H   0  0  0  0  0  0  0  0  0  0  0  0
    1.8190   -2.1153    0.8261 H   0  0  0  0  0  0  0  0  0  0  0  0
  1  2  2  0  0  0  0
  2  3  1  0  0  0  0
  3  4  2  0  0  0  0
  4  5  1  0  0  0  0
  5  6  2  0  0  0  0
  6  7  1  0  0  0  0
  7  8  2  0  0  0  0
  1  9  1  0  0  0  0
  9 10  2  0  0  0  0
 10 11  1  0  0  0  0
 11 12  2  0  0  0  0
 12 13  1  0  0  0  0
 13 14  1  0  0  0  0
 14 15  2  0  0  0  0
 15 16  1  0  0  0  0
 16 17  2  0  0  0  0
 17 18  1  0  0  0  0
 18 19  2  0  0  0  0
 13 20  1  0  0  0  0
 20 21  2  0  0  0  0
 21 22  1  0  0  0  0
 22 23  2  0  0  0  0
 23 24  1  0  0  0  0
 24 25  2  0  0  0  0
 12 26  1  0  0  0  0
 26 27  2  0  0  0  0
  8  3  1  0  0  0  0
 27  9  1  0  0  0  0
 19 14  1  0  0  0  0
 25 20  1  0  0  0  0
  1 28  1  0  0  0  0
  2 29  1  0  0  0  0
  4 30  1  0  0  0  0
  6 31  1  0  0  0  0
  7 32  1  0  0  0  0
 10 33  1  0  0  0  0
 11 34  1  0  0  0  0
 15 35  1  0  0  0  0
 16 36  1  0  0  0  0
 17 37  1  0  0  0  0
 18 38  1  0  0  0  0
 19 39  1  0  0  0  0
 21 40  1  0  0  0  0
 22 41  1  0  0  0  0
 23 42  1  0  0  0  0
 24 43  1  0  0  0  0
 25 44  1  0  0  0  0
 26 45  1  0  0  0  0
 27 46  1  0  0  0  0
M  END
