
  xtb     03022214583D
 energy: -81.767613140058 gnorm: 0.000247794000 xtb: 6.4.1 (afa7bdf)
 50 53  0     0  0            999 V2000
    6.5552    2.7911   -1.1226 C   0  0  0  0  0  0  0  0  0  0  0  0
    5.3201    2.9036   -0.2417 C   0  0  0  0  0  0  0  0  0  0  0  0
    5.1945    1.7674    0.6145 O   0  0  0  0  0  0  0  0  0  0  0  0
    4.6091    0.6800    0.1062 C   0  0  0  0  0  0  0  0  0  0  0  0
    4.1384    0.6025   -0.9988 O   0  0  0  0  0  0  0  0  0  0  0  0
    4.6781   -0.4535    1.0800 C   0  0  0  0  0  0  0  0  0  0  0  0
    5.9813   -0.7082    1.5505 C   0  0  0  0  0  0  0  0  0  0  0  0
    7.0481   -0.9071    1.9239 N   0  0  0  0  0  0  0  0  0  0  0  0
    3.6512   -1.2521    1.4441 C   0  0  0  0  0  0  0  0  0  0  0  0
    2.2549   -1.0808    1.1258 C   0  0  0  0  0  0  0  0  0  0  0  0
    1.7010    0.1819    0.8447 C   0  0  0  0  0  0  0  0  0  0  0  0
    0.3695    0.3424    0.5386 C   0  0  0  0  0  0  0  0  0  0  0  0
   -0.4399   -0.7884    0.5146 C   0  0  0  0  0  0  0  0  0  0  0  0
    0.0943   -2.0702    0.8016 C   0  0  0  0  0  0  0  0  0  0  0  0
    1.4310   -2.2085    1.1229 C   0  0  0  0  0  0  0  0  0  0  0  0
   -0.9940   -3.0003    0.6747 C   0  0  0  0  0  0  0  0  0  0  0  0
   -1.1039   -4.3742    0.8424 C   0  0  0  0  0  0  0  0  0  0  0  0
   -2.3380   -4.9648    0.6569 C   0  0  0  0  0  0  0  0  0  0  0  0
   -3.4550   -4.2030    0.3208 C   0  0  0  0  0  0  0  0  0  0  0  0
   -3.3700   -2.8346    0.1474 C   0  0  0  0  0  0  0  0  0  0  0  0
   -2.1285   -2.2389    0.3134 C   0  0  0  0  0  0  0  0  0  0  0  0
   -1.7745   -0.9059    0.2219 N   0  0  0  0  0  0  0  0  0  0  0  0
   -2.6380    0.1488   -0.1227 C   0  0  0  0  0  0  0  0  0  0  0  0
   -3.3952    0.0835   -1.2841 C   0  0  0  0  0  0  0  0  0  0  0  0
   -4.2493    1.1161   -1.6292 C   0  0  0  0  0  0  0  0  0  0  0  0
   -4.3487    2.2400   -0.8152 C   0  0  0  0  0  0  0  0  0  0  0  0
   -5.1464    3.3127   -1.0586 O   0  0  0  0  0  0  0  0  0  0  0  0
   -5.9418    3.3139   -2.2198 C   0  0  0  0  0  0  0  0  0  0  0  0
   -3.5835    2.3037    0.3520 C   0  0  0  0  0  0  0  0  0  0  0  0
   -2.7427    1.2699    0.6979 C   0  0  0  0  0  0  0  0  0  0  0  0
    7.4392    2.6401   -0.5079 H   0  0  0  0  0  0  0  0  0  0  0  0
    6.6741    3.7016   -1.7030 H   0  0  0  0  0  0  0  0  0  0  0  0
    6.4514    1.9495   -1.8033 H   0  0  0  0  0  0  0  0  0  0  0  0
    5.3919    3.7587    0.4334 H   0  0  0  0  0  0  0  0  0  0  0  0
    4.4180    2.9858   -0.8577 H   0  0  0  0  0  0  0  0  0  0  0  0
    3.8913   -2.1205    2.0484 H   0  0  0  0  0  0  0  0  0  0  0  0
    2.3322    1.0548    0.9022 H   0  0  0  0  0  0  0  0  0  0  0  0
   -0.0330    1.3192    0.3187 H   0  0  0  0  0  0  0  0  0  0  0  0
    1.8439   -3.1826    1.3396 H   0  0  0  0  0  0  0  0  0  0  0  0
   -0.2416   -4.9632    1.1153 H   0  0  0  0  0  0  0  0  0  0  0  0
   -2.4457   -6.0319    0.7805 H   0  0  0  0  0  0  0  0  0  0  0  0
   -4.4095   -4.6925    0.1961 H   0  0  0  0  0  0  0  0  0  0  0  0
   -4.2426   -2.2484   -0.0980 H   0  0  0  0  0  0  0  0  0  0  0  0
   -3.3076   -0.7773   -1.9299 H   0  0  0  0  0  0  0  0  0  0  0  0
   -4.8236    1.0343   -2.5381 H   0  0  0  0  0  0  0  0  0  0  0  0
   -5.3300    3.2649   -3.1263 H   0  0  0  0  0  0  0  0  0  0  0  0
   -6.4844    4.2576   -2.2033 H   0  0  0  0  0  0  0  0  0  0  0  0
   -6.6578    2.4858   -2.2177 H   0  0  0  0  0  0  0  0  0  0  0  0
   -3.6746    3.1784    0.9760 H   0  0  0  0  0  0  0  0  0  0  0  0
   -2.1696    1.3187    1.6114 H   0  0  0  0  0  0  0  0  0  0  0  0
  1  2  1  0  0  0  0
  2  3  1  0  0  0  0
  3  4  1  0  0  0  0
  4  5  2  0  0  0  0
  4  6  1  0  0  0  0
  6  7  1  0  0  0  0
  7  8  3  0  0  0  0
  6  9  2  0  0  0  0
  9 10  1  0  0  0  0
 10 11  2  0  0  0  0
 11 12  1  0  0  0  0
 12 13  2  0  0  0  0
 13 14  1  0  0  0  0
 14 15  2  0  0  0  0
 14 16  1  0  0  0  0
 16 17  2  0  0  0  0
 17 18  1  0  0  0  0
 18 19  2  0  0  0  0
 19 20  1  0  0  0  0
 20 21  2  0  0  0  0
 21 22  1  0  0  0  0
 22 23  1  0  0  0  0
 23 24  2  0  0  0  0
 24 25  1  0  0  0  0
 25 26  2  0  0  0  0
 26 27  1  0  0  0  0
 27 28  1  0  0  0  0
 26 29  1  0  0  0  0
 29 30  2  0  0  0  0
 15 10  1  0  0  0  0
 21 16  1  0  0  0  0
 30 23  1  0  0  0  0
 22 13  1  0  0  0  0
  1 31  1  0  0  0  0
  1 32  1  0  0  0  0
  1 33  1  0  0  0  0
  2 34  1  0  0  0  0
  2 35  1  0  0  0  0
  9 36  1  0  0  0  0
 11 37  1  0  0  0  0
 12 38  1  0  0  0  0
 15 39  1  0  0  0  0
 17 40  1  0  0  0  0
 18 41  1  0  0  0  0
 19 42  1  0  0  0  0
 20 43  1  0  0  0  0
 24 44  1  0  0  0  0
 25 45  1  0  0  0  0
 28 46  1  0  0  0  0
 28 47  1  0  0  0  0
 28 48  1  0  0  0  0
 29 49  1  0  0  0  0
 30 50  1  0  0  0  0
M  END
