
  xtb     03022213323D
 energy: -94.929649193103 gnorm: 0.000252893542 xtb: 6.4.1 (afa7bdf)
 52 56  0     0  0            999 V2000
   -4.8367    2.4175   -2.2809 C   0  0  0  0  0  0  0  0  0  0  0  0
   -4.9190    0.9918   -2.0777 N   0  0  0  0  0  0  0  0  0  0  0  0
   -6.0227    0.2888   -2.6832 C   0  0  0  0  0  0  0  0  0  0  0  0
   -3.9720    0.3305   -1.3576 C   0  0  0  0  0  0  0  0  0  0  0  0
   -3.9010   -1.0755   -1.3536 C   0  0  0  0  0  0  0  0  0  0  0  0
   -2.9456   -1.7345   -0.6231 C   0  0  0  0  0  0  0  0  0  0  0  0
   -1.9856   -1.0416    0.1324 C   0  0  0  0  0  0  0  0  0  0  0  0
   -1.0149   -1.7889    0.8820 C   0  0  0  0  0  0  0  0  0  0  0  0
   -1.2506   -3.0793    1.4326 C   0  0  0  0  0  0  0  0  0  0  0  0
   -0.1300   -3.4568    2.1131 C   0  0  0  0  0  0  0  0  0  0  0  0
    0.8200   -2.4135    1.9452 C   0  0  0  0  0  0  0  0  0  0  0  0
    0.2404   -1.4129    1.1978 N   0  0  0  0  0  0  0  0  0  0  0  0
    0.9929   -0.1010    0.8645 B   0  0  0  0  0  4  0  0  0  0  0  0
    0.5589    0.8925    1.7373 F   0  0  0  0  0  0  0  0  0  0  0  0
    0.7618    0.2683   -0.4402 F   0  0  0  0  0  0  0  0  0  0  0  0
    2.5063   -0.3299    1.0949 N   0  0  0  0  0  4  0  0  0  0  0  0
    3.5360    0.4192    0.6624 C   0  0  0  0  0  0  0  0  0  0  0  0
    3.4560    1.6003   -0.1803 C   0  0  0  0  0  0  0  0  0  0  0  0
    4.4131    1.7623   -1.1862 C   0  0  0  0  0  0  0  0  0  0  0  0
    4.3940    2.8769   -2.0006 C   0  0  0  0  0  0  0  0  0  0  0  0
    3.4303    3.8557   -1.8170 C   0  0  0  0  0  0  0  0  0  0  0  0
    2.4876    3.7109   -0.8130 C   0  0  0  0  0  0  0  0  0  0  0  0
    2.4958    2.5947    0.0019 C   0  0  0  0  0  0  0  0  0  0  0  0
    4.7394   -0.1353    1.1484 C   0  0  0  0  0  0  0  0  0  0  0  0
    4.4179   -1.2306    1.9093 C   0  0  0  0  0  0  0  0  0  0  0  0
    3.0097   -1.3620    1.8582 C   0  0  0  0  0  0  0  0  0  0  0  0
    2.1560   -2.3635    2.3280 C   0  0  0  0  0  0  0  0  0  0  0  0
    2.6587   -3.4972    3.1754 C   0  0  0  0  0  0  0  0  0  0  0  0
    1.8336   -3.7704    4.2012 F   0  0  0  0  0  0  0  0  0  0  0  0
    3.8578   -3.2944    3.7300 F   0  0  0  0  0  0  0  0  0  0  0  0
    2.7656   -4.6453    2.4738 F   0  0  0  0  0  0  0  0  0  0  0  0
   -2.0625    0.3579    0.1372 C   0  0  0  0  0  0  0  0  0  0  0  0
   -3.0269    1.0218   -0.5775 C   0  0  0  0  0  0  0  0  0  0  0  0
   -3.8092    2.7137   -2.4960 H   0  0  0  0  0  0  0  0  0  0  0  0
   -5.4527    2.6957   -3.1337 H   0  0  0  0  0  0  0  0  0  0  0  0
   -5.1874    2.9728   -1.4040 H   0  0  0  0  0  0  0  0  0  0  0  0
   -5.7203   -0.2322   -3.5985 H   0  0  0  0  0  0  0  0  0  0  0  0
   -6.8070    0.9996   -2.9352 H   0  0  0  0  0  0  0  0  0  0  0  0
   -6.4408   -0.4398   -1.9869 H   0  0  0  0  0  0  0  0  0  0  0  0
   -4.5859   -1.6555   -1.9505 H   0  0  0  0  0  0  0  0  0  0  0  0
   -2.9052   -2.8121   -0.6717 H   0  0  0  0  0  0  0  0  0  0  0  0
   -2.1695   -3.6255    1.3543 H   0  0  0  0  0  0  0  0  0  0  0  0
    0.0269   -4.3683    2.6541 H   0  0  0  0  0  0  0  0  0  0  0  0
    5.1549    0.9931   -1.3423 H   0  0  0  0  0  0  0  0  0  0  0  0
    5.1322    2.9836   -2.7821 H   0  0  0  0  0  0  0  0  0  0  0  0
    3.4174    4.7284   -2.4534 H   0  0  0  0  0  0  0  0  0  0  0  0
    1.7400    4.4754   -0.6614 H   0  0  0  0  0  0  0  0  0  0  0  0
    1.7705    2.5022    0.7911 H   0  0  0  0  0  0  0  0  0  0  0  0
    5.7188    0.2622    0.9690 H   0  0  0  0  0  0  0  0  0  0  0  0
    5.0979   -1.8756    2.4266 H   0  0  0  0  0  0  0  0  0  0  0  0
   -1.3825    0.9288    0.7421 H   0  0  0  0  0  0  0  0  0  0  0  0
   -3.0630    2.0965   -0.5119 H   0  0  0  0  0  0  0  0  0  0  0  0
  1  2  1  0  0  0  0
  2  3  1  0  0  0  0
  2  4  1  0  0  0  0
  4  5  2  0  0  0  0
  5  6  1  0  0  0  0
  6  7  2  0  0  0  0
  7  8  1  0  0  0  0
  8  9  2  0  0  0  0
  9 10  1  0  0  0  0
 10 11  2  0  0  0  0
 11 12  1  0  0  0  0
 12 13  1  0  0  0  0
 13 14  1  0  0  0  0
 13 15  1  0  0  0  0
 13 16  1  0  0  0  0
 16 17  2  0  0  0  0
 17 18  1  0  0  0  0
 18 19  2  0  0  0  0
 19 20  1  0  0  0  0
 20 21  2  0  0  0  0
 21 22  1  0  0  0  0
 22 23  2  0  0  0  0
 17 24  1  0  0  0  0
 24 25  2  0  0  0  0
 25 26  1  0  0  0  0
 26 27  2  0  0  0  0
 27 28  1  0  0  0  0
 28 29  1  0  0  0  0
 28 30  1  0  0  0  0
 28 31  1  0  0  0  0
  7 32  1  0  0  0  0
 32 33  2  0  0  0  0
 33  4  1  0  0  0  0
 12  8  1  0  0  0  0
 26 16  1  0  0  0  0
 27 11  1  0  0  0  0
 23 18  1  0  0  0  0
  1 34  1  0  0  0  0
  1 35  1  0  0  0  0
  1 36  1  0  0  0  0
  3 37  1  0  0  0  0
  3 38  1  0  0  0  0
  3 39  1  0  0  0  0
  5 40  1  0  0  0  0
  6 41  1  0  0  0  0
  9 42  1  0  0  0  0
 10 43  1  0  0  0  0
 19 44  1  0  0  0  0
 20 45  1  0  0  0  0
 21 46  1  0  0  0  0
 22 47  1  0  0  0  0
 23 48  1  0  0  0  0
 24 49  1  0  0  0  0
 25 50  1  0  0  0  0
 32 51  1  0  0  0  0
 33 52  1  0  0  0  0
M  CHG  1  13  -1
M  CHG  1  16   1
M  END
