
  xtb     03022215363D
 energy: -50.514416516331 gnorm: 0.000143040074 xtb: 6.4.1 (afa7bdf)
 34 35  0     0  0            999 V2000
   -2.9339   -3.4379   -0.2688 C   0  0  0  0  0  0  0  0  0  0  0  0
   -3.6464   -2.2323   -0.1426 O   0  0  0  0  0  0  0  0  0  0  0  0
   -2.9470   -1.0635   -0.0832 C   0  0  0  0  0  0  0  0  0  0  0  0
   -1.5634   -0.9678   -0.1326 C   0  0  0  0  0  0  0  0  0  0  0  0
   -0.9435    0.2806   -0.0641 C   0  0  0  0  0  0  0  0  0  0  0  0
    0.4986    0.4432   -0.1126 C   0  0  0  0  0  0  0  0  0  0  0  0
    1.4125   -0.5273   -0.2567 C   0  0  0  0  0  0  0  0  0  0  0  0
    2.8533   -0.3605   -0.3057 C   0  0  0  0  0  0  0  0  0  0  0  0
    3.4909    0.8815   -0.2440 C   0  0  0  0  0  0  0  0  0  0  0  0
    4.8675    0.9741   -0.2954 C   0  0  0  0  0  0  0  0  0  0  0  0
    5.6452   -0.1672   -0.4094 C   0  0  0  0  0  0  0  0  0  0  0  0
    5.0309   -1.4070   -0.4729 C   0  0  0  0  0  0  0  0  0  0  0  0
    3.6544   -1.5009   -0.4225 C   0  0  0  0  0  0  0  0  0  0  0  0
   -1.7275    1.4304    0.0560 C   0  0  0  0  0  0  0  0  0  0  0  0
   -3.1117    1.3368    0.1048 C   0  0  0  0  0  0  0  0  0  0  0  0
   -3.9611    2.3967    0.2190 O   0  0  0  0  0  0  0  0  0  0  0  0
   -3.4164    3.6909    0.2912 C   0  0  0  0  0  0  0  0  0  0  0  0
   -3.7182    0.0879    0.0350 C   0  0  0  0  0  0  0  0  0  0  0  0
   -2.3467   -3.4646   -1.1928 H   0  0  0  0  0  0  0  0  0  0  0  0
   -3.6878   -4.2232   -0.3008 H   0  0  0  0  0  0  0  0  0  0  0  0
   -2.2732   -3.6079    0.5878 H   0  0  0  0  0  0  0  0  0  0  0  0
   -0.9587   -1.8536   -0.2214 H   0  0  0  0  0  0  0  0  0  0  0  0
    0.8311    1.4689   -0.0218 H   0  0  0  0  0  0  0  0  0  0  0  0
    1.0868   -1.5552   -0.3476 H   0  0  0  0  0  0  0  0  0  0  0  0
    2.9068    1.7847   -0.1574 H   0  0  0  0  0  0  0  0  0  0  0  0
    5.3408    1.9443   -0.2468 H   0  0  0  0  0  0  0  0  0  0  0  0
    6.7216   -0.0901   -0.4491 H   0  0  0  0  0  0  0  0  0  0  0  0
    5.6286   -2.3027   -0.5625 H   0  0  0  0  0  0  0  0  0  0  0  0
    3.1838   -2.4731   -0.4729 H   0  0  0  0  0  0  0  0  0  0  0  0
   -1.2350    2.3887    0.1084 H   0  0  0  0  0  0  0  0  0  0  0  0
   -4.2681    4.3644    0.3744 H   0  0  0  0  0  0  0  0  0  0  0  0
   -2.7754    3.8105    1.1709 H   0  0  0  0  0  0  0  0  0  0  0  0
   -2.8471    3.9399   -0.6105 H   0  0  0  0  0  0  0  0  0  0  0  0
   -4.7915    0.0111    0.0730 H   0  0  0  0  0  0  0  0  0  0  0  0
  1  2  1  0  0  0  0
  2  3  1  0  0  0  0
  3  4  2  0  0  0  0
  4  5  1  0  0  0  0
  5  6  1  0  0  0  0
  6  7  2  0  0  0  0
  7  8  1  0  0  0  0
  8  9  2  0  0  0  0
  9 10  1  0  0  0  0
 10 11  2  0  0  0  0
 11 12  1  0  0  0  0
 12 13  2  0  0  0  0
  5 14  2  0  0  0  0
 14 15  1  0  0  0  0
 15 16  1  0  0  0  0
 16 17  1  0  0  0  0
 15 18  2  0  0  0  0
 18  3  1  0  0  0  0
 13  8  1  0  0  0  0
  1 19  1  0  0  0  0
  1 20  1  0  0  0  0
  1 21  1  0  0  0  0
  4 22  1  0  0  0  0
  6 23  1  0  0  0  0
  7 24  1  0  0  0  0
  9 25  1  0  0  0  0
 10 26  1  0  0  0  0
 11 27  1  0  0  0  0
 12 28  1  0  0  0  0
 13 29  1  0  0  0  0
 14 30  1  0  0  0  0
 17 31  1  0  0  0  0
 17 32  1  0  0  0  0
 17 33  1  0  0  0  0
 18 34  1  0  0  0  0
M  END
