
  xtb     03022216043D
 energy: -52.039763322804 gnorm: 0.000079588290 xtb: 6.4.1 (afa7bdf)
 38 41  0     0  0            999 V2000
    6.0411    0.4888    0.2949 C   0  0  0  0  0  0  0  0  0  0  0  0
    4.6752    1.0665   -0.0547 C   0  0  0  0  0  0  0  0  0  0  0  0
    3.5449    0.1034    0.3049 C   0  0  0  0  0  0  0  0  0  0  0  0
    2.1843    0.6920   -0.0588 C   0  0  0  0  0  0  0  0  0  0  0  0
    0.9859   -0.1739    0.2375 C   0  0  0  0  0  0  0  0  0  0  0  0
    1.1175   -1.4255    0.8223 C   0  0  0  0  0  0  0  0  0  0  0  0
    0.0225   -2.2235    1.0921 C   0  0  0  0  0  0  0  0  0  0  0  0
   -1.2664   -1.7972    0.7829 C   0  0  0  0  0  0  0  0  0  0  0  0
   -2.4143   -2.6003    1.0469 C   0  0  0  0  0  0  0  0  0  0  0  0
   -3.6580   -2.1693    0.7384 C   0  0  0  0  0  0  0  0  0  0  0  0
   -3.8652   -0.8927    0.1375 C   0  0  0  0  0  0  0  0  0  0  0  0
   -5.1397   -0.4281   -0.1894 C   0  0  0  0  0  0  0  0  0  0  0  0
   -5.3132    0.8144   -0.7713 C   0  0  0  0  0  0  0  0  0  0  0  0
   -4.2236    1.6210   -1.0401 C   0  0  0  0  0  0  0  0  0  0  0  0
   -2.9308    1.1960   -0.7300 C   0  0  0  0  0  0  0  0  0  0  0  0
   -1.7830    1.9967   -0.9909 C   0  0  0  0  0  0  0  0  0  0  0  0
   -0.5366    1.5671   -0.6852 C   0  0  0  0  0  0  0  0  0  0  0  0
   -0.3049    0.2914   -0.0856 C   0  0  0  0  0  0  0  0  0  0  0  0
   -1.4346   -0.5230    0.1865 C   0  0  0  0  0  0  0  0  0  0  0  0
   -2.7401   -0.0742   -0.1344 C   0  0  0  0  0  0  0  0  0  0  0  0
    6.2114   -0.4406   -0.2444 H   0  0  0  0  0  0  0  0  0  0  0  0
    6.1066    0.2821    1.3610 H   0  0  0  0  0  0  0  0  0  0  0  0
    6.8319    1.1875    0.0320 H   0  0  0  0  0  0  0  0  0  0  0  0
    4.6382    1.2850   -1.1247 H   0  0  0  0  0  0  0  0  0  0  0  0
    4.5328    2.0085    0.4805 H   0  0  0  0  0  0  0  0  0  0  0  0
    3.5858   -0.1029    1.3766 H   0  0  0  0  0  0  0  0  0  0  0  0
    3.6979   -0.8351   -0.2326 H   0  0  0  0  0  0  0  0  0  0  0  0
    2.0667    1.6404    0.4758 H   0  0  0  0  0  0  0  0  0  0  0  0
    2.1870    0.9226   -1.1292 H   0  0  0  0  0  0  0  0  0  0  0  0
    2.0962   -1.7986    1.0785 H   0  0  0  0  0  0  0  0  0  0  0  0
    0.1637   -3.1931    1.5484 H   0  0  0  0  0  0  0  0  0  0  0  0
   -2.2609   -3.5687    1.5026 H   0  0  0  0  0  0  0  0  0  0  0  0
   -4.5241   -2.7836    0.9409 H   0  0  0  0  0  0  0  0  0  0  0  0
   -5.9964   -1.0536    0.0180 H   0  0  0  0  0  0  0  0  0  0  0  0
   -6.3082    1.1567   -1.0174 H   0  0  0  0  0  0  0  0  0  0  0  0
   -4.3643    2.5914   -1.4947 H   0  0  0  0  0  0  0  0  0  0  0  0
   -1.9321    2.9669   -1.4442 H   0  0  0  0  0  0  0  0  0  0  0  0
    0.3066    2.2051   -0.8990 H   0  0  0  0  0  0  0  0  0  0  0  0
  1  2  1  0  0  0  0
  2  3  1  0  0  0  0
  3  4  1  0  0  0  0
  4  5  1  0  0  0  0
  5  6  2  0  0  0  0
  6  7  1  0  0  0  0
  7  8  2  0  0  0  0
  8  9  1  0  0  0  0
  9 10  2  0  0  0  0
 10 11  1  0  0  0  0
 11 12  2  0  0  0  0
 12 13  1  0  0  0  0
 13 14  2  0  0  0  0
 14 15  1  0  0  0  0
 15 16  2  0  0  0  0
 16 17  1  0  0  0  0
 17 18  2  0  0  0  0
 18 19  1  0  0  0  0
 19 20  2  0  0  0  0
 18  5  1  0  0  0  0
 19  8  1  0  0  0  0
 20 11  1  0  0  0  0
 20 15  1  0  0  0  0
  1 21  1  0  0  0  0
  1 22  1  0  0  0  0
  1 23  1  0  0  0  0
  2 24  1  0  0  0  0
  2 25  1  0  0  0  0
  3 26  1  0  0  0  0
  3 27  1  0  0  0  0
  4 28  1  0  0  0  0
  4 29  1  0  0  0  0
  6 30  1  0  0  0  0
  7 31  1  0  0  0  0
  9 32  1  0  0  0  0
 10 33  1  0  0  0  0
 12 34  1  0  0  0  0
 13 35  1  0  0  0  0
 14 36  1  0  0  0  0
 16 37  1  0  0  0  0
 17 38  1  0  0  0  0
M  END
