
  xtb     03022214003D
 energy: -104.163852837436 gnorm: 0.000086856793 xtb: 6.4.1 (afa7bdf)
 70 77  0     0  0            999 V2000
   -7.4762    0.0499    1.8878 C   0  0  0  0  0  0  0  0  0  0  0  0
   -6.7142    1.1391    1.7213 C   0  0  0  0  0  0  0  0  0  0  0  0
   -6.0286    1.5616    0.5145 C   0  0  0  0  0  0  0  0  0  0  0  0
   -5.8630    2.9318    0.2915 C   0  0  0  0  0  0  0  0  0  0  0  0
   -5.2428    3.4035   -0.8459 C   0  0  0  0  0  0  0  0  0  0  0  0
   -4.7577    2.5079   -1.7879 C   0  0  0  0  0  0  0  0  0  0  0  0
   -4.8838    1.1509   -1.5703 C   0  0  0  0  0  0  0  0  0  0  0  0
   -5.5014    0.6624   -0.4213 C   0  0  0  0  0  0  0  0  0  0  0  0
   -5.5694   -0.7940   -0.2261 C   0  0  0  0  0  0  0  0  0  0  0  0
   -4.4984   -1.5995   -0.2663 C   0  0  0  0  0  0  0  0  0  0  0  0
   -3.1029   -1.1930   -0.3583 C   0  0  0  0  0  0  0  0  0  0  0  0
   -2.1974   -2.0123   -1.0349 C   0  0  0  0  0  0  0  0  0  0  0  0
   -0.8692   -1.6613   -1.1521 C   0  0  0  0  0  0  0  0  0  0  0  0
   -0.3918   -0.4813   -0.5841 C   0  0  0  0  0  0  0  0  0  0  0  0
    1.0188   -0.0986   -0.7106 C   0  0  0  0  0  0  0  0  0  0  0  0
    2.0331   -1.0507   -0.6108 C   0  0  0  0  0  0  0  0  0  0  0  0
    3.3593   -0.6867   -0.7130 C   0  0  0  0  0  0  0  0  0  0  0  0
    3.7188    0.6441   -0.9328 C   0  0  0  0  0  0  0  0  0  0  0  0
    5.1092    1.0384   -1.0959 C   0  0  0  0  0  0  0  0  0  0  0  0
    6.1734    0.6667   -0.3599 C   0  0  0  0  0  0  0  0  0  0  0  0
    6.2478   -0.0755    0.9030 C   0  0  0  0  0  0  0  0  0  0  0  0
    5.2620   -0.5118    1.7720 C   0  0  0  0  0  0  0  0  0  0  0  0
    5.6341   -1.1608    2.9405 C   0  0  0  0  0  0  0  0  0  0  0  0
    6.9690   -1.3693    3.2517 C   0  0  0  0  0  0  0  0  0  0  0  0
    7.9685   -0.9027    2.4120 C   0  0  0  0  0  0  0  0  0  0  0  0
    7.6062   -0.2491    1.2489 C   0  0  0  0  0  0  0  0  0  0  0  0
    8.4245    0.3940    0.2346 C   0  0  0  0  0  0  0  0  0  0  0  0
    9.7967    0.5057    0.1075 C   0  0  0  0  0  0  0  0  0  0  0  0
   10.3080    1.2105   -0.9719 C   0  0  0  0  0  0  0  0  0  0  0  0
    9.4619    1.7887   -1.9065 C   0  0  0  0  0  0  0  0  0  0  0  0
    8.0843    1.6746   -1.7891 C   0  0  0  0  0  0  0  0  0  0  0  0
    7.5621    0.9786   -0.7141 C   0  0  0  0  0  0  0  0  0  0  0  0
    2.7021    1.5898   -1.0739 C   0  0  0  0  0  0  0  0  0  0  0  0
    1.3777    1.2284   -0.9452 C   0  0  0  0  0  0  0  0  0  0  0  0
   -1.2889    0.3235    0.1175 C   0  0  0  0  0  0  0  0  0  0  0  0
   -2.6173   -0.0260    0.2331 C   0  0  0  0  0  0  0  0  0  0  0  0
   -6.9232   -1.3627   -0.1150 C   0  0  0  0  0  0  0  0  0  0  0  0
   -7.3197   -2.3464   -1.0161 C   0  0  0  0  0  0  0  0  0  0  0  0
   -8.5588   -2.9483   -0.9171 C   0  0  0  0  0  0  0  0  0  0  0  0
   -9.4200   -2.5808    0.1055 C   0  0  0  0  0  0  0  0  0  0  0  0
   -9.0364   -1.6110    1.0078 C   0  0  0  0  0  0  0  0  0  0  0  0
   -7.7991   -0.9688    0.9059 C   0  0  0  0  0  0  0  0  0  0  0  0
   -7.9927   -0.0622    2.8339 H   0  0  0  0  0  0  0  0  0  0  0  0
   -6.6588    1.8457    2.5413 H   0  0  0  0  0  0  0  0  0  0  0  0
   -6.2487    3.6286    1.0226 H   0  0  0  0  0  0  0  0  0  0  0  0
   -5.1352    4.4669   -1.0015 H   0  0  0  0  0  0  0  0  0  0  0  0
   -4.2732    2.8691   -2.6829 H   0  0  0  0  0  0  0  0  0  0  0  0
   -4.4923    0.4473   -2.2907 H   0  0  0  0  0  0  0  0  0  0  0  0
   -4.6641   -2.6698   -0.2193 H   0  0  0  0  0  0  0  0  0  0  0  0
   -2.5510   -2.9277   -1.4891 H   0  0  0  0  0  0  0  0  0  0  0  0
   -0.1946   -2.2971   -1.7073 H   0  0  0  0  0  0  0  0  0  0  0  0
    1.7767   -2.0845   -0.4299 H   0  0  0  0  0  0  0  0  0  0  0  0
    4.1332   -1.4374   -0.6452 H   0  0  0  0  0  0  0  0  0  0  0  0
    5.2900    1.7080   -1.9297 H   0  0  0  0  0  0  0  0  0  0  0  0
    4.2172   -0.3445    1.5612 H   0  0  0  0  0  0  0  0  0  0  0  0
    4.8684   -1.5069    3.6197 H   0  0  0  0  0  0  0  0  0  0  0  0
    7.2315   -1.8849    4.1642 H   0  0  0  0  0  0  0  0  0  0  0  0
    9.0092   -1.0379    2.6676 H   0  0  0  0  0  0  0  0  0  0  0  0
   10.4588    0.0545    0.8319 H   0  0  0  0  0  0  0  0  0  0  0  0
   11.3774    1.3114   -1.0873 H   0  0  0  0  0  0  0  0  0  0  0  0
    9.8821    2.3351   -2.7384 H   0  0  0  0  0  0  0  0  0  0  0  0
    7.4405    2.1292   -2.5281 H   0  0  0  0  0  0  0  0  0  0  0  0
    2.9627    2.6212   -1.2657 H   0  0  0  0  0  0  0  0  0  0  0  0
    0.6051    1.9757   -1.0552 H   0  0  0  0  0  0  0  0  0  0  0  0
   -0.9312    1.2216    0.6003 H   0  0  0  0  0  0  0  0  0  0  0  0
   -3.2850    0.5991    0.8058 H   0  0  0  0  0  0  0  0  0  0  0  0
   -6.6400   -2.6339   -1.8055 H   0  0  0  0  0  0  0  0  0  0  0  0
   -8.8496   -3.7090   -1.6265 H   0  0  0  0  0  0  0  0  0  0  0  0
  -10.3864   -3.0540    0.1984 H   0  0  0  0  0  0  0  0  0  0  0  0
   -9.7078   -1.3235    1.8048 H   0  0  0  0  0  0  0  0  0  0  0  0
  1  2  2  0  0  0  0
  2  3  1  0  0  0  0
  3  4  2  0  0  0  0
  4  5  1  0  0  0  0
  5  6  2  0  0  0  0
  6  7  1  0  0  0  0
  7  8  2  0  0  0  0
  8  9  1  0  0  0  0
  9 10  2  0  0  0  0
 10 11  1  0  0  0  0
 11 12  2  0  0  0  0
 12 13  1  0  0  0  0
 13 14  2  0  0  0  0
 14 15  1  0  0  0  0
 15 16  2  0  0  0  0
 16 17  1  0  0  0  0
 17 18  2  0  0  0  0
 18 19  1  0  0  0  0
 19 20  2  0  0  0  0
 20 21  1  0  0  0  0
 21 22  2  0  0  0  0
 22 23  1  0  0  0  0
 23 24  2  0  0  0  0
 24 25  1  0  0  0  0
 25 26  2  0  0  0  0
 26 27  1  0  0  0  0
 27 28  2  0  0  0  0
 28 29  1  0  0  0  0
 29 30  2  0  0  0  0
 30 31  1  0  0  0  0
 31 32  2  0  0  0  0
 18 33  1  0  0  0  0
 33 34  2  0  0  0  0
 14 35  1  0  0  0  0
 35 36  2  0  0  0  0
  9 37  1  0  0  0  0
 37 38  2  0  0  0  0
 38 39  1  0  0  0  0
 39 40  2  0  0  0  0
 40 41  1  0  0  0  0
 41 42  2  0  0  0  0
 42  1  1  0  0  0  0
  8  3  1  0  0  0  0
 36 11  1  0  0  0  0
 42 37  1  0  0  0  0
 34 15  1  0  0  0  0
 32 20  1  0  0  0  0
 26 21  1  0  0  0  0
 32 27  1  0  0  0  0
  1 43  1  0  0  0  0
  2 44  1  0  0  0  0
  4 45  1  0  0  0  0
  5 46  1  0  0  0  0
  6 47  1  0  0  0  0
  7 48  1  0  0  0  0
 10 49  1  0  0  0  0
 12 50  1  0  0  0  0
 13 51  1  0  0  0  0
 16 52  1  0  0  0  0
 17 53  1  0  0  0  0
 19 54  1  0  0  0  0
 22 55  1  0  0  0  0
 23 56  1  0  0  0  0
 24 57  1  0  0  0  0
 25 58  1  0  0  0  0
 28 59  1  0  0  0  0
 29 60  1  0  0  0  0
 30 61  1  0  0  0  0
 31 62  1  0  0  0  0
 33 63  1  0  0  0  0
 34 64  1  0  0  0  0
 35 65  1  0  0  0  0
 36 66  1  0  0  0  0
 38 67  1  0  0  0  0
 39 68  1  0  0  0  0
 40 69  1  0  0  0  0
 41 70  1  0  0  0  0
M  END
