
  xtb     03022215033D
 energy: -145.852563743539 gnorm: 0.000224921536 xtb: 6.4.1 (afa7bdf)
 85 92  0     0  0            999 V2000
   -3.5113    3.5407   -1.1304 C   0  0  0  0  0  0  0  0  0  0  0  0
   -2.3766    4.3287   -0.8698 O   0  0  0  0  0  0  0  0  0  0  0  0
   -1.1758    3.7153   -0.6716 C   0  0  0  0  0  0  0  0  0  0  0  0
   -1.0272    2.3406   -0.5396 C   0  0  0  0  0  0  0  0  0  0  0  0
    0.2431    1.8003   -0.3810 C   0  0  0  0  0  0  0  0  0  0  0  0
    1.3712    2.6334   -0.4571 C   0  0  0  0  0  0  0  0  0  0  0  0
    1.2250    3.9974   -0.5688 C   0  0  0  0  0  0  0  0  0  0  0  0
   -0.0463    4.5610   -0.6457 C   0  0  0  0  0  0  0  0  0  0  0  0
   -0.1920    6.0180   -0.7526 C   0  0  0  0  0  0  0  0  0  0  0  0
   -1.1326    6.7039    0.0182 C   0  0  0  0  0  0  0  0  0  0  0  0
   -1.2507    8.0740   -0.0728 C   0  0  0  0  0  0  0  0  0  0  0  0
   -0.4248    8.7743   -0.9454 C   0  0  0  0  0  0  0  0  0  0  0  0
   -0.5485   10.2025   -1.0475 N   0  0  0  0  0  4  0  0  0  0  0  0
    0.1906   10.7803   -1.8179 O   0  0  0  0  0  0  0  0  0  0  0  0
   -1.3842   10.7481   -0.3564 O   0  0  0  0  0  1  0  0  0  0  0  0
    0.5190    8.1100   -1.7211 C   0  0  0  0  0  0  0  0  0  0  0  0
    0.6328    6.7403   -1.6184 C   0  0  0  0  0  0  0  0  0  0  0  0
    2.6274    1.8206   -0.4700 C   0  0  0  0  0  0  0  0  0  0  0  0
    2.0980    0.4246   -0.4527 C   0  0  0  0  0  0  0  0  0  0  0  0
    2.7761   -0.7609   -0.5928 C   0  0  0  0  0  0  0  0  0  0  0  0
    2.0788   -1.9814   -0.5909 C   0  0  0  0  0  0  0  0  0  0  0  0
    0.7284   -2.0079   -0.3458 C   0  0  0  0  0  0  0  0  0  0  0  0
    0.0266   -0.7971   -0.1109 C   0  0  0  0  0  0  0  0  0  0  0  0
    0.6889    0.4197   -0.2845 C   0  0  0  0  0  0  0  0  0  0  0  0
   -1.3120   -1.1583    0.3270 C   0  0  0  0  0  0  0  0  0  0  0  0
   -2.3143   -0.4004    0.9202 C   0  0  0  0  0  0  0  0  0  0  0  0
   -3.4981   -1.0140    1.3098 C   0  0  0  0  0  0  0  0  0  0  0  0
   -4.5180   -0.3587    1.9326 O   0  0  0  0  0  0  0  0  0  0  0  0
   -4.3169    0.9637    2.3652 C   0  0  0  0  0  0  0  0  0  0  0  0
   -3.6848   -2.3979    1.1072 C   0  0  0  0  0  0  0  0  0  0  0  0
   -4.9416   -3.0539    1.4892 C   0  0  0  0  0  0  0  0  0  0  0  0
   -6.1754   -2.5043    1.1359 C   0  0  0  0  0  0  0  0  0  0  0  0
   -7.3504   -3.1362    1.4814 C   0  0  0  0  0  0  0  0  0  0  0  0
   -7.3005   -4.3305    2.1921 C   0  0  0  0  0  0  0  0  0  0  0  0
   -8.5236   -4.9898    2.5592 N   0  0  0  0  0  4  0  0  0  0  0  0
   -9.5683   -4.4676    2.2283 O   0  0  0  0  0  0  0  0  0  0  0  0
   -8.4409   -6.0308    3.1781 O   0  0  0  0  0  1  0  0  0  0  0  0
   -6.0818   -4.8947    2.5529 C   0  0  0  0  0  0  0  0  0  0  0  0
   -4.9124   -4.2577    2.1975 C   0  0  0  0  0  0  0  0  0  0  0  0
   -2.6403   -3.1573    0.5855 C   0  0  0  0  0  0  0  0  0  0  0  0
   -1.4613   -2.5505    0.2168 C   0  0  0  0  0  0  0  0  0  0  0  0
   -0.1898   -3.1819   -0.2557 C   0  0  0  0  0  0  0  0  0  0  0  0
    3.0560   -3.0647   -0.8282 C   0  0  0  0  0  0  0  0  0  0  0  0
    2.8775   -4.2557   -0.9048 O   0  0  0  0  0  0  0  0  0  0  0  0
    4.2837   -2.4324   -0.9575 N   0  0  0  0  0  0  0  0  0  0  0  0
    5.5262   -3.1449   -1.1626 C   0  0  0  0  0  0  0  0  0  0  0  0
    6.1062   -3.6073    0.1751 C   0  0  0  0  0  0  0  0  0  0  0  0
    7.4316   -4.3711    0.0612 C   0  0  0  0  0  0  0  0  0  0  0  0
    8.5433   -3.5014   -0.5222 C   0  0  0  0  0  0  0  0  0  0  0  0
    7.2797   -5.6606   -0.7429 C   0  0  0  0  0  0  0  0  0  0  0  0
    4.2072   -1.0544   -0.8182 C   0  0  0  0  0  0  0  0  0  0  0  0
    5.1437   -0.2968   -0.8907 O   0  0  0  0  0  0  0  0  0  0  0  0
   -3.3556    2.8771   -1.9864 H   0  0  0  0  0  0  0  0  0  0  0  0
   -3.8024    2.9459   -0.2575 H   0  0  0  0  0  0  0  0  0  0  0  0
   -4.3090    4.2451   -1.3602 H   0  0  0  0  0  0  0  0  0  0  0  0
   -1.8811    1.6896   -0.6126 H   0  0  0  0  0  0  0  0  0  0  0  0
    2.0918    4.6405   -0.5911 H   0  0  0  0  0  0  0  0  0  0  0  0
   -1.7639    6.1556    0.6983 H   0  0  0  0  0  0  0  0  0  0  0  0
   -1.9699    8.6178    0.5203 H   0  0  0  0  0  0  0  0  0  0  0  0
    1.1436    8.6790   -2.3926 H   0  0  0  0  0  0  0  0  0  0  0  0
    1.3516    6.2162   -2.2297 H   0  0  0  0  0  0  0  0  0  0  0  0
    3.2419    2.0163   -1.3507 H   0  0  0  0  0  0  0  0  0  0  0  0
    3.2602    2.0049    0.4017 H   0  0  0  0  0  0  0  0  0  0  0  0
   -2.1479    0.6433    1.1229 H   0  0  0  0  0  0  0  0  0  0  0  0
   -3.4472    1.0465    3.0241 H   0  0  0  0  0  0  0  0  0  0  0  0
   -5.2159    1.2293    2.9190 H   0  0  0  0  0  0  0  0  0  0  0  0
   -4.2013    1.6539    1.5222 H   0  0  0  0  0  0  0  0  0  0  0  0
   -6.2063   -1.5825    0.5782 H   0  0  0  0  0  0  0  0  0  0  0  0
   -8.3111   -2.7256    1.2107 H   0  0  0  0  0  0  0  0  0  0  0  0
   -6.0737   -5.8202    3.1081 H   0  0  0  0  0  0  0  0  0  0  0  0
   -3.9631   -4.6811    2.4885 H   0  0  0  0  0  0  0  0  0  0  0  0
   -2.7672   -4.2229    0.4683 H   0  0  0  0  0  0  0  0  0  0  0  0
    0.1809   -3.9421    0.4344 H   0  0  0  0  0  0  0  0  0  0  0  0
   -0.2942   -3.6661   -1.2298 H   0  0  0  0  0  0  0  0  0  0  0  0
    5.3090   -4.0016   -1.8033 H   0  0  0  0  0  0  0  0  0  0  0  0
    6.2096   -2.4581   -1.6649 H   0  0  0  0  0  0  0  0  0  0  0  0
    6.2570   -2.7275    0.8061 H   0  0  0  0  0  0  0  0  0  0  0  0
    5.3684   -4.2496    0.6626 H   0  0  0  0  0  0  0  0  0  0  0  0
    7.7185   -4.6434    1.0841 H   0  0  0  0  0  0  0  0  0  0  0  0
    8.6117   -2.5556    0.0099 H   0  0  0  0  0  0  0  0  0  0  0  0
    9.5000   -4.0119   -0.4381 H   0  0  0  0  0  0  0  0  0  0  0  0
    8.3649   -3.2945   -1.5744 H   0  0  0  0  0  0  0  0  0  0  0  0
    6.4404   -6.2464   -0.3758 H   0  0  0  0  0  0  0  0  0  0  0  0
    8.1815   -6.2626   -0.6577 H   0  0  0  0  0  0  0  0  0  0  0  0
    7.1184   -5.4460   -1.7964 H   0  0  0  0  0  0  0  0  0  0  0  0
  1  2  1  0  0  0  0
  2  3  1  0  0  0  0
  3  4  2  0  0  0  0
  4  5  1  0  0  0  0
  5  6  2  0  0  0  0
  6  7  1  0  0  0  0
  7  8  2  0  0  0  0
  8  9  1  0  0  0  0
  9 10  2  0  0  0  0
 10 11  1  0  0  0  0
 11 12  2  0  0  0  0
 12 13  1  0  0  0  0
 13 14  2  0  0  0  0
 13 15  1  0  0  0  0
 12 16  1  0  0  0  0
 16 17  2  0  0  0  0
  6 18  1  0  0  0  0
 18 19  1  0  0  0  0
 19 20  2  0  0  0  0
 20 21  1  0  0  0  0
 21 22  2  0  0  0  0
 22 23  1  0  0  0  0
 23 24  2  0  0  0  0
 23 25  1  0  0  0  0
 25 26  2  0  0  0  0
 26 27  1  0  0  0  0
 27 28  1  0  0  0  0
 28 29  1  0  0  0  0
 27 30  2  0  0  0  0
 30 31  1  0  0  0  0
 31 32  2  0  0  0  0
 32 33  1  0  0  0  0
 33 34  2  0  0  0  0
 34 35  1  0  0  0  0
 35 36  2  0  0  0  0
 35 37  1  0  0  0  0
 34 38  1  0  0  0  0
 38 39  2  0  0  0  0
 30 40  1  0  0  0  0
 40 41  2  0  0  0  0
 41 42  1  0  0  0  0
 21 43  1  0  0  0  0
 43 44  2  0  0  0  0
 43 45  1  0  0  0  0
 45 46  1  0  0  0  0
 46 47  1  0  0  0  0
 47 48  1  0  0  0  0
 48 49  1  0  0  0  0
 48 50  1  0  0  0  0
 45 51  1  0  0  0  0
 51 52  2  0  0  0  0
  8  3  1  0  0  0  0
 17  9  1  0  0  0  0
 24 19  1  0  0  0  0
 41 25  1  0  0  0  0
 24  5  1  0  0  0  0
 39 31  1  0  0  0  0
 51 20  1  0  0  0  0
 42 22  1  0  0  0  0
  1 53  1  0  0  0  0
  1 54  1  0  0  0  0
  1 55  1  0  0  0  0
  4 56  1  0  0  0  0
  7 57  1  0  0  0  0
 10 58  1  0  0  0  0
 11 59  1  0  0  0  0
 16 60  1  0  0  0  0
 17 61  1  0  0  0  0
 18 62  1  0  0  0  0
 18 63  1  0  0  0  0
 26 64  1  0  0  0  0
 29 65  1  0  0  0  0
 29 66  1  0  0  0  0
 29 67  1  0  0  0  0
 32 68  1  0  0  0  0
 33 69  1  0  0  0  0
 38 70  1  0  0  0  0
 39 71  1  0  0  0  0
 40 72  1  0  0  0  0
 42 73  1  0  0  0  0
 42 74  1  0  0  0  0
 46 75  1  0  0  0  0
 46 76  1  0  0  0  0
 47 77  1  0  0  0  0
 47 78  1  0  0  0  0
 48 79  1  0  0  0  0
 49 80  1  0  0  0  0
 49 81  1  0  0  0  0
 49 82  1  0  0  0  0
 50 83  1  0  0  0  0
 50 84  1  0  0  0  0
 50 85  1  0  0  0  0
M  CHG  1  13   1
M  CHG  1  15  -1
M  CHG  1  35   1
M  CHG  1  37  -1
M  END
