
  xtb     03022213223D
 energy: -44.455655107341 gnorm: 0.000217282367 xtb: 6.4.1 (afa7bdf)
 30 30  0     0  0            999 V2000
    3.1707    1.8947   -1.1539 C   0  0  0  0  0  0  0  0  0  0  0  0
    1.9772    1.3330   -1.7386 N   0  0  0  0  0  0  0  0  0  0  0  0
    2.0133    0.9951   -3.1422 C   0  0  0  0  0  0  0  0  0  0  0  0
    1.0568    0.7105   -0.9257 C   0  0  0  0  0  0  0  0  0  0  0  0
   -0.0415    0.0250   -1.4522 C   0  0  0  0  0  0  0  0  0  0  0  0
   -1.0015   -0.5753   -0.6392 C   0  0  0  0  0  0  0  0  0  0  0  0
   -1.9789   -1.3144   -1.3388 C   0  0  0  0  0  0  0  0  0  0  0  0
   -2.7025   -1.9225   -1.9919 N   0  0  0  0  0  0  0  0  0  0  0  0
   -0.9397   -0.5112    0.7727 C   0  0  0  0  0  0  0  0  0  0  0  0
   -1.8837   -1.0867    1.5714 N   0  0  0  0  0  0  0  0  0  0  0  0
   -1.5972   -1.5384    2.9095 C   0  0  0  0  0  0  0  0  0  0  0  0
   -3.2500   -1.2677    1.1495 C   0  0  0  0  0  0  0  0  0  0  0  0
    0.1752    0.1860    1.2927 C   0  0  0  0  0  0  0  0  0  0  0  0
    0.3677    0.4298    2.6690 C   0  0  0  0  0  0  0  0  0  0  0  0
    0.5883    0.7166    3.7595 N   0  0  0  0  0  0  0  0  0  0  0  0
    1.1436    0.7584    0.4678 C   0  0  0  0  0  0  0  0  0  0  0  0
    3.8045    1.1351   -0.6790 H   0  0  0  0  0  0  0  0  0  0  0  0
    3.7497    2.3891   -1.9305 H   0  0  0  0  0  0  0  0  0  0  0  0
    2.9060    2.6467   -0.4088 H   0  0  0  0  0  0  0  0  0  0  0  0
    2.8456    1.5113   -3.6143 H   0  0  0  0  0  0  0  0  0  0  0  0
    2.1373   -0.0820   -3.3067 H   0  0  0  0  0  0  0  0  0  0  0  0
    1.0952    1.3209   -3.6365 H   0  0  0  0  0  0  0  0  0  0  0  0
   -0.1740   -0.0743   -2.5173 H   0  0  0  0  0  0  0  0  0  0  0  0
   -2.1601   -2.4558    3.0938 H   0  0  0  0  0  0  0  0  0  0  0  0
   -0.5378   -1.7630    3.0199 H   0  0  0  0  0  0  0  0  0  0  0  0
   -1.8785   -0.7984    3.6660 H   0  0  0  0  0  0  0  0  0  0  0  0
   -3.9062   -1.0678    1.9993 H   0  0  0  0  0  0  0  0  0  0  0  0
   -3.4405   -2.2853    0.7931 H   0  0  0  0  0  0  0  0  0  0  0  0
   -3.5025   -0.5683    0.3545 H   0  0  0  0  0  0  0  0  0  0  0  0
    1.9632    1.2591    0.9571 H   0  0  0  0  0  0  0  0  0  0  0  0
  1  2  1  0  0  0  0
  2  3  1  0  0  0  0
  2  4  1  0  0  0  0
  4  5  2  0  0  0  0
  5  6  1  0  0  0  0
  6  7  1  0  0  0  0
  7  8  3  0  0  0  0
  6  9  2  0  0  0  0
  9 10  1  0  0  0  0
 10 11  1  0  0  0  0
 10 12  1  0  0  0  0
  9 13  1  0  0  0  0
 13 14  1  0  0  0  0
 14 15  3  0  0  0  0
 13 16  2  0  0  0  0
 16  4  1  0  0  0  0
  1 17  1  0  0  0  0
  1 18  1  0  0  0  0
  1 19  1  0  0  0  0
  3 20  1  0  0  0  0
  3 21  1  0  0  0  0
  3 22  1  0  0  0  0
  5 23  1  0  0  0  0
 11 24  1  0  0  0  0
 11 25  1  0  0  0  0
 11 26  1  0  0  0  0
 12 27  1  0  0  0  0
 12 28  1  0  0  0  0
 12 29  1  0  0  0  0
 16 30  1  0  0  0  0
M  END
