
  xtb     03022213083D
 energy: -90.158440541909 gnorm: 0.000069821998 xtb: 6.4.1 (afa7bdf)
 53 58  0     0  0            999 V2000
   -4.4075    3.3381   -0.5854 C   0  0  0  0  0  0  0  0  0  0  0  0
   -5.3128    2.2804   -0.3901 O   0  0  0  0  0  0  0  0  0  0  0  0
   -4.8153    1.0174   -0.1810 C   0  0  0  0  0  0  0  0  0  0  0  0
   -3.4536    0.7492   -0.1345 C   0  0  0  0  0  0  0  0  0  0  0  0
   -2.9909   -0.5412    0.0934 C   0  0  0  0  0  0  0  0  0  0  0  0
   -1.5787   -0.8137    0.1385 C   0  0  0  0  0  0  0  0  0  0  0  0
   -1.0098   -1.9686    0.3404 N   0  0  0  0  0  0  0  0  0  0  0  0
    0.3125   -1.7732    0.3000 N   0  0  0  0  0  0  0  0  0  0  0  0
    0.5230   -0.5064    0.0750 C   0  0  0  0  0  0  0  0  0  0  0  0
    1.7652    0.2164   -0.0569 C   0  0  0  0  0  0  0  0  0  0  0  0
    1.6835    1.5942   -0.2829 C   0  0  0  0  0  0  0  0  0  0  0  0
    2.8119    2.3669   -0.4201 C   0  0  0  0  0  0  0  0  0  0  0  0
    4.0826    1.7916   -0.3367 C   0  0  0  0  0  0  0  0  0  0  0  0
    5.2673    2.5694   -0.4736 C   0  0  0  0  0  0  0  0  0  0  0  0
    6.4931    2.0020   -0.3905 C   0  0  0  0  0  0  0  0  0  0  0  0
    6.6414    0.6031   -0.1633 C   0  0  0  0  0  0  0  0  0  0  0  0
    7.8966   -0.0017   -0.0743 C   0  0  0  0  0  0  0  0  0  0  0  0
    8.0121   -1.3618    0.1463 C   0  0  0  0  0  0  0  0  0  0  0  0
    6.8833   -2.1483    0.2831 C   0  0  0  0  0  0  0  0  0  0  0  0
    5.6078   -1.5859    0.2017 C   0  0  0  0  0  0  0  0  0  0  0  0
    4.4230   -2.3636    0.3377 C   0  0  0  0  0  0  0  0  0  0  0  0
    3.1923   -1.8032    0.2579 C   0  0  0  0  0  0  0  0  0  0  0  0
    3.0293   -0.4060    0.0326 C   0  0  0  0  0  0  0  0  0  0  0  0
    4.1916    0.3965   -0.1094 C   0  0  0  0  0  0  0  0  0  0  0  0
    5.4776   -0.1940   -0.0240 C   0  0  0  0  0  0  0  0  0  0  0  0
   -0.6575    0.1622   -0.0379 O   0  0  0  0  0  0  0  0  0  0  0  0
   -3.8884   -1.5905    0.2818 C   0  0  0  0  0  0  0  0  0  0  0  0
   -5.2452   -1.3397    0.2327 C   0  0  0  0  0  0  0  0  0  0  0  0
   -6.2116   -2.2805    0.3961 O   0  0  0  0  0  0  0  0  0  0  0  0
   -5.8098   -3.6078    0.6378 C   0  0  0  0  0  0  0  0  0  0  0  0
   -5.7326   -0.0315   -0.0043 C   0  0  0  0  0  0  0  0  0  0  0  0
   -7.0877    0.0399   -0.0169 O   0  0  0  0  0  0  0  0  0  0  0  0
   -7.7671    1.2168   -0.3892 C   0  0  0  0  0  0  0  0  0  0  0  0
   -5.0262    4.2215   -0.7381 H   0  0  0  0  0  0  0  0  0  0  0  0
   -3.7826    3.1787   -1.4700 H   0  0  0  0  0  0  0  0  0  0  0  0
   -3.7699    3.4924    0.2909 H   0  0  0  0  0  0  0  0  0  0  0  0
   -2.7330    1.5379   -0.2704 H   0  0  0  0  0  0  0  0  0  0  0  0
    0.7085    2.0537   -0.3490 H   0  0  0  0  0  0  0  0  0  0  0  0
    2.7229    3.4297   -0.5938 H   0  0  0  0  0  0  0  0  0  0  0  0
    5.1599    3.6311   -0.6462 H   0  0  0  0  0  0  0  0  0  0  0  0
    7.3876    2.5998   -0.4952 H   0  0  0  0  0  0  0  0  0  0  0  0
    8.7826    0.6079   -0.1803 H   0  0  0  0  0  0  0  0  0  0  0  0
    8.9917   -1.8126    0.2124 H   0  0  0  0  0  0  0  0  0  0  0  0
    6.9791   -3.2107    0.4552 H   0  0  0  0  0  0  0  0  0  0  0  0
    4.5283   -3.4254    0.5087 H   0  0  0  0  0  0  0  0  0  0  0  0
    2.3015   -2.4008    0.3634 H   0  0  0  0  0  0  0  0  0  0  0  0
   -3.4878   -2.5734    0.4573 H   0  0  0  0  0  0  0  0  0  0  0  0
   -5.2207   -4.0080   -0.1932 H   0  0  0  0  0  0  0  0  0  0  0  0
   -6.7325   -4.1777    0.7347 H   0  0  0  0  0  0  0  0  0  0  0  0
   -5.2320   -3.6912    1.5635 H   0  0  0  0  0  0  0  0  0  0  0  0
   -7.6000    2.0268    0.3236 H   0  0  0  0  0  0  0  0  0  0  0  0
   -8.8221    0.9426   -0.3870 H   0  0  0  0  0  0  0  0  0  0  0  0
   -7.4808    1.5512   -1.3887 H   0  0  0  0  0  0  0  0  0  0  0  0
  1  2  1  0  0  0  0
  2  3  1  0  0  0  0
  3  4  2  0  0  0  0
  4  5  1  0  0  0  0
  5  6  1  0  0  0  0
  6  7  2  0  0  0  0
  7  8  1  0  0  0  0
  8  9  2  0  0  0  0
  9 10  1  0  0  0  0
 10 11  2  0  0  0  0
 11 12  1  0  0  0  0
 12 13  2  0  0  0  0
 13 14  1  0  0  0  0
 14 15  2  0  0  0  0
 15 16  1  0  0  0  0
 16 17  2  0  0  0  0
 17 18  1  0  0  0  0
 18 19  2  0  0  0  0
 19 20  1  0  0  0  0
 20 21  2  0  0  0  0
 21 22  1  0  0  0  0
 22 23  2  0  0  0  0
 23 24  1  0  0  0  0
 24 25  2  0  0  0  0
  9 26  1  0  0  0  0
  5 27  2  0  0  0  0
 27 28  1  0  0  0  0
 28 29  1  0  0  0  0
 29 30  1  0  0  0  0
 28 31  2  0  0  0  0
 31 32  1  0  0  0  0
 32 33  1  0  0  0  0
 31  3  1  0  0  0  0
 26  6  1  0  0  0  0
 23 10  1  0  0  0  0
 24 13  1  0  0  0  0
 25 16  1  0  0  0  0
 25 20  1  0  0  0  0
  1 34  1  0  0  0  0
  1 35  1  0  0  0  0
  1 36  1  0  0  0  0
  4 37  1  0  0  0  0
 11 38  1  0  0  0  0
 12 39  1  0  0  0  0
 14 40  1  0  0  0  0
 15 41  1  0  0  0  0
 17 42  1  0  0  0  0
 18 43  1  0  0  0  0
 19 44  1  0  0  0  0
 21 45  1  0  0  0  0
 22 46  1  0  0  0  0
 27 47  1  0  0  0  0
 30 48  1  0  0  0  0
 30 49  1  0  0  0  0
 30 50  1  0  0  0  0
 33 51  1  0  0  0  0
 33 52  1  0  0  0  0
 33 53  1  0  0  0  0
M  END
