
  xtb     03022214353D
 energy: -45.401314962167 gnorm: 0.000090877741 xtb: 6.4.1 (afa7bdf)
 32 32  0     0  0            999 V2000
   -2.8086   -1.7845   -0.7100 C   0  0  0  0  0  0  0  0  0  0  0  0
   -2.4175   -1.3369    0.7014 C   0  0  0  0  0  0  0  0  0  0  0  0
   -1.7167   -0.0758    0.7547 N   0  0  0  0  0  0  0  0  0  0  0  0
   -2.5169    1.1284    0.7042 C   0  0  0  0  0  0  0  0  0  0  0  0
   -2.5180    1.8081   -0.6671 C   0  0  0  0  0  0  0  0  0  0  0  0
   -0.3502   -0.0162    0.5800 C   0  0  0  0  0  0  0  0  0  0  0  0
    0.3607    1.1793    0.7713 C   0  0  0  0  0  0  0  0  0  0  0  0
    1.7334    1.2432    0.6479 C   0  0  0  0  0  0  0  0  0  0  0  0
    2.4883    0.1191    0.3237 C   0  0  0  0  0  0  0  0  0  0  0  0
    3.8322    0.1071    0.1884 O   0  0  0  0  0  0  0  0  0  0  0  0
    4.5506    1.2944    0.4028 C   0  0  0  0  0  0  0  0  0  0  0  0
    1.7996   -1.0937    0.1188 C   0  0  0  0  0  0  0  0  0  0  0  0
    2.4979   -2.3276   -0.2359 C   0  0  0  0  0  0  0  0  0  0  0  0
    3.6814   -2.4837   -0.3972 O   0  0  0  0  0  0  0  0  0  0  0  0
    0.4115   -1.1362    0.2445 C   0  0  0  0  0  0  0  0  0  0  0  0
   -3.2316   -2.7855   -0.6770 H   0  0  0  0  0  0  0  0  0  0  0  0
   -3.5517   -1.1132   -1.1327 H   0  0  0  0  0  0  0  0  0  0  0  0
   -1.9402   -1.7922   -1.3637 H   0  0  0  0  0  0  0  0  0  0  0  0
   -3.3234   -1.2410    1.3088 H   0  0  0  0  0  0  0  0  0  0  0  0
   -1.7950   -2.0998    1.1753 H   0  0  0  0  0  0  0  0  0  0  0  0
   -3.5405    0.8556    0.9694 H   0  0  0  0  0  0  0  0  0  0  0  0
   -2.1663    1.8357    1.4640 H   0  0  0  0  0  0  0  0  0  0  0  0
   -1.5052    2.0630   -0.9681 H   0  0  0  0  0  0  0  0  0  0  0  0
   -2.9405    1.1503   -1.4216 H   0  0  0  0  0  0  0  0  0  0  0  0
   -3.1112    2.7183   -0.6282 H   0  0  0  0  0  0  0  0  0  0  0  0
   -0.1564    2.0864    1.0372 H   0  0  0  0  0  0  0  0  0  0  0  0
    2.2149    2.1946    0.8123 H   0  0  0  0  0  0  0  0  0  0  0  0
    4.4193    1.6682    1.4242 H   0  0  0  0  0  0  0  0  0  0  0  0
    5.5961    1.0332    0.2478 H   0  0  0  0  0  0  0  0  0  0  0  0
    4.2644    2.0758   -0.3097 H   0  0  0  0  0  0  0  0  0  0  0  0
    1.7989   -3.1856   -0.3579 H   0  0  0  0  0  0  0  0  0  0  0  0
   -0.0590   -2.0891    0.0633 H   0  0  0  0  0  0  0  0  0  0  0  0
  1  2  1  0  0  0  0
  2  3  1  0  0  0  0
  3  4  1  0  0  0  0
  4  5  1  0  0  0  0
  3  6  1  0  0  0  0
  6  7  2  0  0  0  0
  7  8  1  0  0  0  0
  8  9  2  0  0  0  0
  9 10  1  0  0  0  0
 10 11  1  0  0  0  0
  9 12  1  0  0  0  0
 12 13  1  0  0  0  0
 13 14  2  0  0  0  0
 12 15  2  0  0  0  0
 15  6  1  0  0  0  0
  1 16  1  0  0  0  0
  1 17  1  0  0  0  0
  1 18  1  0  0  0  0
  2 19  1  0  0  0  0
  2 20  1  0  0  0  0
  4 21  1  0  0  0  0
  4 22  1  0  0  0  0
  5 23  1  0  0  0  0
  5 24  1  0  0  0  0
  5 25  1  0  0  0  0
  7 26  1  0  0  0  0
  8 27  1  0  0  0  0
 11 28  1  0  0  0  0
 11 29  1  0  0  0  0
 11 30  1  0  0  0  0
 13 31  1  0  0  0  0
 15 32  1  0  0  0  0
M  END
