
  xtb     03022213493D
 energy: -97.251425769028 gnorm: 0.000063153084 xtb: 6.4.1 (afa7bdf)
 61 65  0     0  0            999 V2000
   -4.1379   -0.3061   -3.0328 C   0  0  0  0  0  0  0  0  0  0  0  0
   -3.4433    0.6246   -2.0373 C   0  0  0  0  0  0  0  0  0  0  0  0
   -3.7504    2.0942   -2.3352 C   0  0  0  0  0  0  0  0  0  0  0  0
   -3.8418    0.3005   -0.6173 C   0  0  0  0  0  0  0  0  0  0  0  0
   -5.1808    0.2819   -0.2505 C   0  0  0  0  0  0  0  0  0  0  0  0
   -5.5555   -0.0119    1.0460 C   0  0  0  0  0  0  0  0  0  0  0  0
   -4.5968   -0.2850    2.0019 C   0  0  0  0  0  0  0  0  0  0  0  0
   -3.2459   -0.2592    1.6823 C   0  0  0  0  0  0  0  0  0  0  0  0
   -2.2060   -0.5641    2.7340 C   0  0  0  0  0  0  0  0  0  0  0  0
   -2.3679    0.3441    3.9540 C   0  0  0  0  0  0  0  0  0  0  0  0
   -2.2865   -2.0427    3.1210 C   0  0  0  0  0  0  0  0  0  0  0  0
   -2.8927    0.0322    0.3667 C   0  0  0  0  0  0  0  0  0  0  0  0
   -1.4978    0.0595    0.0107 N   0  0  0  0  0  0  0  0  0  0  0  0
   -0.8956    1.3048   -0.0305 C   0  0  0  0  0  0  0  0  0  0  0  0
   -1.5189    2.3086    0.2432 O   0  0  0  0  0  0  0  0  0  0  0  0
    0.5264    1.3227   -0.4220 C   0  0  0  0  0  0  0  0  0  0  0  0
    1.1804    2.5310   -0.5341 C   0  0  0  0  0  0  0  0  0  0  0  0
    2.5203    2.5711   -0.9238 C   0  0  0  0  0  0  0  0  0  0  0  0
    3.2097    1.4110   -1.1667 C   0  0  0  0  0  0  0  0  0  0  0  0
    2.5826    0.1545   -1.0341 C   0  0  0  0  0  0  0  0  0  0  0  0
    3.2456   -1.0841   -1.2668 C   0  0  0  0  0  0  0  0  0  0  0  0
    4.5638   -1.1437   -1.6306 O   0  0  0  0  0  0  0  0  0  0  0  0
    5.5238   -0.5474   -0.8582 C   0  0  0  0  0  0  0  0  0  0  0  0
    5.3469   -0.2647    0.4927 C   0  0  0  0  0  0  0  0  0  0  0  0
    6.3779    0.2993    1.2201 C   0  0  0  0  0  0  0  0  0  0  0  0
    7.5878    0.5719    0.6024 C   0  0  0  0  0  0  0  0  0  0  0  0
    8.8731    1.2817    1.5139 Cl  0  0  0  0  0  0  0  0  0  0  0  0
    7.7789    0.2758   -0.7390 C   0  0  0  0  0  0  0  0  0  0  0  0
    6.7477   -0.2825   -1.4674 C   0  0  0  0  0  0  0  0  0  0  0  0
    2.5481   -2.2723   -1.2172 C   0  0  0  0  0  0  0  0  0  0  0  0
    1.1927   -2.2908   -0.8989 C   0  0  0  0  0  0  0  0  0  0  0  0
    0.5250   -1.1176   -0.6156 C   0  0  0  0  0  0  0  0  0  0  0  0
    1.2073    0.1152   -0.6838 C   0  0  0  0  0  0  0  0  0  0  0  0
   -0.9041   -1.1619   -0.2646 C   0  0  0  0  0  0  0  0  0  0  0  0
   -1.5443   -2.1907   -0.2133 O   0  0  0  0  0  0  0  0  0  0  0  0
   -5.2133   -0.1506   -3.0332 H   0  0  0  0  0  0  0  0  0  0  0  0
   -3.9384   -1.3443   -2.7764 H   0  0  0  0  0  0  0  0  0  0  0  0
   -3.7662   -0.1185   -4.0381 H   0  0  0  0  0  0  0  0  0  0  0  0
   -2.3637    0.4777   -2.1508 H   0  0  0  0  0  0  0  0  0  0  0  0
   -4.8185    2.2851   -2.2674 H   0  0  0  0  0  0  0  0  0  0  0  0
   -3.2399    2.7314   -1.6164 H   0  0  0  0  0  0  0  0  0  0  0  0
   -3.4140    2.3546   -3.3367 H   0  0  0  0  0  0  0  0  0  0  0  0
   -5.9394    0.4974   -0.9869 H   0  0  0  0  0  0  0  0  0  0  0  0
   -6.6021   -0.0286    1.3131 H   0  0  0  0  0  0  0  0  0  0  0  0
   -4.9030   -0.5187    3.0098 H   0  0  0  0  0  0  0  0  0  0  0  0
   -1.2094   -0.3795    2.3180 H   0  0  0  0  0  0  0  0  0  0  0  0
   -3.3060    0.1510    4.4671 H   0  0  0  0  0  0  0  0  0  0  0  0
   -2.3490    1.3881    3.6488 H   0  0  0  0  0  0  0  0  0  0  0  0
   -1.5544    0.1721    4.6558 H   0  0  0  0  0  0  0  0  0  0  0  0
   -1.5055   -2.2889    3.8376 H   0  0  0  0  0  0  0  0  0  0  0  0
   -3.2512   -2.2709    3.5674 H   0  0  0  0  0  0  0  0  0  0  0  0
   -2.1603   -2.6634    2.2366 H   0  0  0  0  0  0  0  0  0  0  0  0
    0.6324    3.4378   -0.3273 H   0  0  0  0  0  0  0  0  0  0  0  0
    3.0147    3.5239   -1.0350 H   0  0  0  0  0  0  0  0  0  0  0  0
    4.2424    1.4584   -1.4778 H   0  0  0  0  0  0  0  0  0  0  0  0
    4.4063   -0.4880    0.9738 H   0  0  0  0  0  0  0  0  0  0  0  0
    6.2424    0.5216    2.2665 H   0  0  0  0  0  0  0  0  0  0  0  0
    8.7267    0.4843   -1.2091 H   0  0  0  0  0  0  0  0  0  0  0  0
    6.8732   -0.5214   -2.5115 H   0  0  0  0  0  0  0  0  0  0  0  0
    3.0754   -3.1906   -1.4235 H   0  0  0  0  0  0  0  0  0  0  0  0
    0.6492   -3.2222   -0.8537 H   0  0  0  0  0  0  0  0  0  0  0  0
  1  2  1  0  0  0  0
  2  3  1  0  0  0  0
  2  4  1  0  0  0  0
  4  5  2  0  0  0  0
  5  6  1  0  0  0  0
  6  7  2  0  0  0  0
  7  8  1  0  0  0  0
  8  9  1  0  0  0  0
  9 10  1  0  0  0  0
  9 11  1  0  0  0  0
  8 12  2  0  0  0  0
 12 13  1  0  0  0  0
 13 14  1  0  0  0  0
 14 15  2  0  0  0  0
 14 16  1  0  0  0  0
 16 17  2  0  0  0  0
 17 18  1  0  0  0  0
 18 19  2  0  0  0  0
 19 20  1  0  0  0  0
 20 21  2  0  0  0  0
 21 22  1  0  0  0  0
 22 23  1  0  0  0  0
 23 24  2  0  0  0  0
 24 25  1  0  0  0  0
 25 26  2  0  0  0  0
 26 27  1  0  0  0  0
 26 28  1  0  0  0  0
 28 29  2  0  0  0  0
 21 30  1  0  0  0  0
 30 31  2  0  0  0  0
 31 32  1  0  0  0  0
 32 33  2  0  0  0  0
 32 34  1  0  0  0  0
 34 35  2  0  0  0  0
 12  4  1  0  0  0  0
 34 13  1  0  0  0  0
 33 16  1  0  0  0  0
 33 20  1  0  0  0  0
 29 23  1  0  0  0  0
  1 36  1  0  0  0  0
  1 37  1  0  0  0  0
  1 38  1  0  0  0  0
  2 39  1  0  0  0  0
  3 40  1  0  0  0  0
  3 41  1  0  0  0  0
  3 42  1  0  0  0  0
  5 43  1  0  0  0  0
  6 44  1  0  0  0  0
  7 45  1  0  0  0  0
  9 46  1  0  0  0  0
 10 47  1  0  0  0  0
 10 48  1  0  0  0  0
 10 49  1  0  0  0  0
 11 50  1  0  0  0  0
 11 51  1  0  0  0  0
 11 52  1  0  0  0  0
 17 53  1  0  0  0  0
 18 54  1  0  0  0  0
 19 55  1  0  0  0  0
 24 56  1  0  0  0  0
 25 57  1  0  0  0  0
 28 58  1  0  0  0  0
 29 59  1  0  0  0  0
 30 60  1  0  0  0  0
 31 61  1  0  0  0  0
M  END
