
  xtb     03022212323D
 energy: -102.824884653569 gnorm: 0.000109002194 xtb: 6.4.1 (afa7bdf)
 66 69  0     0  0            999 V2000
   -6.1528   -5.2542   -2.8828 C   0  0  0  0  0  0  0  0  0  0  0  0
   -5.3879   -5.1782   -1.7044 O   0  0  0  0  0  0  0  0  0  0  0  0
   -4.8705   -3.9729   -1.3412 C   0  0  0  0  0  0  0  0  0  0  0  0
   -4.1450   -3.9551   -0.1478 C   0  0  0  0  0  0  0  0  0  0  0  0
   -3.5854   -2.7861    0.3130 C   0  0  0  0  0  0  0  0  0  0  0  0
   -3.7330   -1.5907   -0.3944 C   0  0  0  0  0  0  0  0  0  0  0  0
   -3.1378   -0.3617    0.1093 C   0  0  0  0  0  0  0  0  0  0  0  0
   -1.9307   -0.2133    0.7920 C   0  0  0  0  0  0  0  0  0  0  0  0
   -1.7267    1.1384    1.0589 C   0  0  0  0  0  0  0  0  0  0  0  0
   -2.7678    1.8509    0.5869 N   0  0  0  0  0  0  0  0  0  0  0  0
   -3.0072    3.1861    0.6278 C   0  0  0  0  0  0  0  0  0  0  0  0
   -4.1550    3.6886    0.1078 C   0  0  0  0  0  0  0  0  0  0  0  0
   -5.1219    2.8176   -0.4667 C   0  0  0  0  0  0  0  0  0  0  0  0
   -6.4070    3.2859   -1.0274 C   0  0  0  0  0  0  0  0  0  0  0  0
   -6.7023    4.7628   -0.9288 C   0  0  0  0  0  0  0  0  0  0  0  0
   -7.1874    2.5143   -1.5457 O   0  0  0  0  0  0  0  0  0  0  0  0
   -4.8578    1.4613   -0.5051 C   0  0  0  0  0  0  0  0  0  0  0  0
   -3.6653    0.9505   -0.0010 C   0  0  0  0  0  0  0  0  0  0  0  0
   -0.4581    1.3545    1.7402 C   0  0  0  0  0  0  0  0  0  0  0  0
    0.0569    2.3783    2.1425 O   0  0  0  0  0  0  0  0  0  0  0  0
    0.0708    0.0941    1.8558 N   0  0  0  0  0  0  0  0  0  0  0  0
    1.3330   -0.1625    2.4938 C   0  0  0  0  0  0  0  0  0  0  0  0
    2.4655   -0.3950    1.4887 C   0  0  0  0  0  0  0  0  0  0  0  0
    3.7844   -0.6798    2.2087 C   0  0  0  0  0  0  0  0  0  0  0  0
    4.8825   -0.8399    1.2892 N   0  0  0  0  0  0  0  0  0  0  0  0
    5.8842    0.0704    1.1857 C   0  0  0  0  0  0  0  0  0  0  0  0
    6.0276    1.0063    1.9325 O   0  0  0  0  0  0  0  0  0  0  0  0
    6.6774   -0.2645    0.1511 O   0  0  0  0  0  0  0  0  0  0  0  0
    7.8603    0.5176   -0.1448 C   0  0  0  0  0  0  0  0  0  0  0  0
    7.4715    1.9521   -0.5016 C   0  0  0  0  0  0  0  0  0  0  0  0
    8.8253    0.4903    1.0400 C   0  0  0  0  0  0  0  0  0  0  0  0
    8.4777   -0.1867   -1.3540 C   0  0  0  0  0  0  0  0  0  0  0  0
   -0.7524   -0.9689    1.3025 C   0  0  0  0  0  0  0  0  0  0  0  0
   -4.4408   -1.6217   -1.5925 C   0  0  0  0  0  0  0  0  0  0  0  0
   -5.0062   -2.7924   -2.0636 C   0  0  0  0  0  0  0  0  0  0  0  0
   -6.4765   -6.2911   -2.9576 H   0  0  0  0  0  0  0  0  0  0  0  0
   -5.5585   -4.9973   -3.7657 H   0  0  0  0  0  0  0  0  0  0  0  0
   -7.0318   -4.6036   -2.8341 H   0  0  0  0  0  0  0  0  0  0  0  0
   -4.0416   -4.8778    0.4012 H   0  0  0  0  0  0  0  0  0  0  0  0
   -3.0428   -2.7868    1.2459 H   0  0  0  0  0  0  0  0  0  0  0  0
   -2.2418    3.7878    1.0935 H   0  0  0  0  0  0  0  0  0  0  0  0
   -4.3241    4.7507    0.1450 H   0  0  0  0  0  0  0  0  0  0  0  0
   -6.6893    5.0809    0.1113 H   0  0  0  0  0  0  0  0  0  0  0  0
   -5.9544    5.3310   -1.4780 H   0  0  0  0  0  0  0  0  0  0  0  0
   -7.6832    4.9593   -1.3537 H   0  0  0  0  0  0  0  0  0  0  0  0
   -5.6012    0.7987   -0.9198 H   0  0  0  0  0  0  0  0  0  0  0  0
    1.5633    0.7188    3.0984 H   0  0  0  0  0  0  0  0  0  0  0  0
    1.2331   -1.0322    3.1531 H   0  0  0  0  0  0  0  0  0  0  0  0
    2.5763    0.4952    0.8679 H   0  0  0  0  0  0  0  0  0  0  0  0
    2.2169   -1.2384    0.8390 H   0  0  0  0  0  0  0  0  0  0  0  0
    3.6875   -1.5845    2.8199 H   0  0  0  0  0  0  0  0  0  0  0  0
    4.0484    0.1586    2.8572 H   0  0  0  0  0  0  0  0  0  0  0  0
    4.8236   -1.5486    0.5759 H   0  0  0  0  0  0  0  0  0  0  0  0
    7.0158    2.4396    0.3556 H   0  0  0  0  0  0  0  0  0  0  0  0
    6.7617    1.9533   -1.3262 H   0  0  0  0  0  0  0  0  0  0  0  0
    8.3565    2.5087   -0.7967 H   0  0  0  0  0  0  0  0  0  0  0  0
    9.0584   -0.5380    1.3085 H   0  0  0  0  0  0  0  0  0  0  0  0
    9.7452    1.0036    0.7747 H   0  0  0  0  0  0  0  0  0  0  0  0
    8.3781    0.9849    1.8976 H   0  0  0  0  0  0  0  0  0  0  0  0
    9.3817    0.3299   -1.6621 H   0  0  0  0  0  0  0  0  0  0  0  0
    8.7240   -1.2146   -1.1012 H   0  0  0  0  0  0  0  0  0  0  0  0
    7.7729   -0.1938   -2.1813 H   0  0  0  0  0  0  0  0  0  0  0  0
   -1.0108   -1.6914    2.0861 H   0  0  0  0  0  0  0  0  0  0  0  0
   -0.2270   -1.5056    0.5041 H   0  0  0  0  0  0  0  0  0  0  0  0
   -4.5323   -0.7235   -2.1835 H   0  0  0  0  0  0  0  0  0  0  0  0
   -5.5461   -2.7706   -2.9971 H   0  0  0  0  0  0  0  0  0  0  0  0
  1  2  1  0  0  0  0
  2  3  1  0  0  0  0
  3  4  2  0  0  0  0
  4  5  1  0  0  0  0
  5  6  2  0  0  0  0
  6  7  1  0  0  0  0
  7  8  1  0  0  0  0
  8  9  2  0  0  0  0
  9 10  1  0  0  0  0
 10 11  1  0  0  0  0
 11 12  2  0  0  0  0
 12 13  1  0  0  0  0
 13 14  1  0  0  0  0
 14 15  1  0  0  0  0
 14 16  2  0  0  0  0
 13 17  2  0  0  0  0
 17 18  1  0  0  0  0
  9 19  1  0  0  0  0
 19 20  2  0  0  0  0
 19 21  1  0  0  0  0
 21 22  1  0  0  0  0
 22 23  1  0  0  0  0
 23 24  1  0  0  0  0
 24 25  1  0  0  0  0
 25 26  1  0  0  0  0
 26 27  2  0  0  0  0
 26 28  1  0  0  0  0
 28 29  1  0  0  0  0
 29 30  1  0  0  0  0
 29 31  1  0  0  0  0
 29 32  1  0  0  0  0
 21 33  1  0  0  0  0
  6 34  1  0  0  0  0
 34 35  2  0  0  0  0
 35  3  1  0  0  0  0
 18  7  2  0  0  0  0
 33  8  1  0  0  0  0
 18 10  1  0  0  0  0
  1 36  1  0  0  0  0
  1 37  1  0  0  0  0
  1 38  1  0  0  0  0
  4 39  1  0  0  0  0
  5 40  1  0  0  0  0
 11 41  1  0  0  0  0
 12 42  1  0  0  0  0
 15 43  1  0  0  0  0
 15 44  1  0  0  0  0
 15 45  1  0  0  0  0
 17 46  1  0  0  0  0
 22 47  1  0  0  0  0
 22 48  1  0  0  0  0
 23 49  1  0  0  0  0
 23 50  1  0  0  0  0
 24 51  1  0  0  0  0
 24 52  1  0  0  0  0
 25 53  1  0  0  0  0
 30 54  1  0  0  0  0
 30 55  1  0  0  0  0
 30 56  1  0  0  0  0
 31 57  1  0  0  0  0
 31 58  1  0  0  0  0
 31 59  1  0  0  0  0
 32 60  1  0  0  0  0
 32 61  1  0  0  0  0
 32 62  1  0  0  0  0
 33 63  1  0  0  0  0
 33 64  1  0  0  0  0
 34 65  1  0  0  0  0
 35 66  1  0  0  0  0
M  END
