
  xtb     03022214223D
 energy: -126.624813760792 gnorm: 0.000093497760 xtb: 6.4.1 (afa7bdf)
 68 74  0     0  0            999 V2000
   13.7126   -4.1384   -2.1187 C   0  0  0  0  0  0  0  0  0  0  0  0
   12.6408   -3.2630   -1.8045 O   0  0  0  0  0  0  0  0  0  0  0  0
   12.9917   -2.0158   -1.4534 C   0  0  0  0  0  0  0  0  0  0  0  0
   14.1391   -1.6444   -1.4022 O   0  0  0  0  0  0  0  0  0  0  0  0
   11.8234   -1.1609   -1.1412 C   0  0  0  0  0  0  0  0  0  0  0  0
   10.5144   -1.6334   -1.2110 C   0  0  0  0  0  0  0  0  0  0  0  0
    9.4629   -0.7954   -0.9113 C   0  0  0  0  0  0  0  0  0  0  0  0
    9.6817    0.5345   -0.5344 C   0  0  0  0  0  0  0  0  0  0  0  0
    8.5689    1.4041   -0.2246 C   0  0  0  0  0  0  0  0  0  0  0  0
    8.5918    2.7360    0.1253 C   0  0  0  0  0  0  0  0  0  0  0  0
    7.3270    3.2793    0.3587 C   0  0  0  0  0  0  0  0  0  0  0  0
    6.3178    2.3610    0.1889 C   0  0  0  0  0  0  0  0  0  0  0  0
    4.9267    2.6047    0.3527 C   0  0  0  0  0  0  0  0  0  0  0  0
    4.3839    3.7442    0.6927 N   0  0  0  0  0  0  0  0  0  0  0  0
    3.0658    3.5519    0.7364 N   0  0  0  0  0  0  0  0  0  0  0  0
    2.8362    2.3076    0.4240 C   0  0  0  0  0  0  0  0  0  0  0  0
    1.5461    1.6698    0.3483 C   0  0  0  0  0  0  0  0  0  0  0  0
    1.4227    0.3224    0.0012 C   0  0  0  0  0  0  0  0  0  0  0  0
    0.1759   -0.2607   -0.0625 C   0  0  0  0  0  0  0  0  0  0  0  0
   -0.9627    0.4970    0.2203 C   0  0  0  0  0  0  0  0  0  0  0  0
   -2.2647   -0.1181    0.1531 C   0  0  0  0  0  0  0  0  0  0  0  0
   -2.5423   -1.3532   -0.1527 N   0  0  0  0  0  0  0  0  0  0  0  0
   -3.8681   -1.4956   -0.0925 N   0  0  0  0  0  0  0  0  0  0  0  0
   -4.3652   -0.3388    0.2499 C   0  0  0  0  0  0  0  0  0  0  0  0
   -5.7346   -0.0017    0.4408 C   0  0  0  0  0  0  0  0  0  0  0  0
   -6.2472    1.2225    0.8015 C   0  0  0  0  0  0  0  0  0  0  0  0
   -7.6397    1.2126    0.9037 C   0  0  0  0  0  0  0  0  0  0  0  0
   -8.2042   -0.0122    0.6239 C   0  0  0  0  0  0  0  0  0  0  0  0
   -9.6041   -0.3771    0.6340 C   0  0  0  0  0  0  0  0  0  0  0  0
   -9.9995   -1.6812    0.3157 C   0  0  0  0  0  0  0  0  0  0  0  0
  -11.3285   -2.0441    0.3217 C   0  0  0  0  0  0  0  0  0  0  0  0
  -12.3057   -1.1059    0.6486 C   0  0  0  0  0  0  0  0  0  0  0  0
  -13.7484   -1.4394    0.6719 C   0  0  0  0  0  0  0  0  0  0  0  0
  -14.6233   -0.6554    0.9503 O   0  0  0  0  0  0  0  0  0  0  0  0
  -13.9888   -2.7195    0.3478 O   0  0  0  0  0  0  0  0  0  0  0  0
  -15.3533   -3.1092    0.3504 C   0  0  0  0  0  0  0  0  0  0  0  0
  -11.9231    0.1962    0.9672 C   0  0  0  0  0  0  0  0  0  0  0  0
  -10.5943    0.5574    0.9608 C   0  0  0  0  0  0  0  0  0  0  0  0
   -6.9755   -1.1800    0.2238 S   0  0  0  0  0  0  0  0  0  0  0  0
   -3.3924    0.5877    0.4228 O   0  0  0  0  0  0  0  0  0  0  0  0
   -0.8382    1.8448    0.5671 C   0  0  0  0  0  0  0  0  0  0  0  0
    0.4068    2.4276    0.6308 C   0  0  0  0  0  0  0  0  0  0  0  0
    3.9915    1.6451    0.1662 O   0  0  0  0  0  0  0  0  0  0  0  0
    6.9340    0.8104   -0.2648 S   0  0  0  0  0  0  0  0  0  0  0  0
   11.0013    0.9981   -0.4658 C   0  0  0  0  0  0  0  0  0  0  0  0
   12.0532    0.1617   -0.7651 C   0  0  0  0  0  0  0  0  0  0  0  0
   13.2609   -5.0928   -2.3766 H   0  0  0  0  0  0  0  0  0  0  0  0
   14.2890   -3.7460   -2.9592 H   0  0  0  0  0  0  0  0  0  0  0  0
   14.3780   -4.2473   -1.2597 H   0  0  0  0  0  0  0  0  0  0  0  0
   10.3324   -2.6561   -1.5007 H   0  0  0  0  0  0  0  0  0  0  0  0
    8.4492   -1.1656   -0.9676 H   0  0  0  0  0  0  0  0  0  0  0  0
    9.4948    3.3116    0.2102 H   0  0  0  0  0  0  0  0  0  0  0  0
    7.1313    4.2970    0.6407 H   0  0  0  0  0  0  0  0  0  0  0  0
    2.3088   -0.2549   -0.2154 H   0  0  0  0  0  0  0  0  0  0  0  0
    0.0542   -1.2987   -0.3278 H   0  0  0  0  0  0  0  0  0  0  0  0
   -5.6301    2.0844    0.9820 H   0  0  0  0  0  0  0  0  0  0  0  0
   -8.2067    2.0837    1.1754 H   0  0  0  0  0  0  0  0  0  0  0  0
   -9.2438   -2.4104    0.0619 H   0  0  0  0  0  0  0  0  0  0  0  0
  -11.6206   -3.0523    0.0746 H   0  0  0  0  0  0  0  0  0  0  0  0
  -15.7863   -2.9686    1.3430 H   0  0  0  0  0  0  0  0  0  0  0  0
  -15.9203   -2.5107   -0.3658 H   0  0  0  0  0  0  0  0  0  0  0  0
  -15.3708   -4.1593    0.0704 H   0  0  0  0  0  0  0  0  0  0  0  0
  -12.6915    0.9116    1.2183 H   0  0  0  0  0  0  0  0  0  0  0  0
  -10.3210    1.5698    1.2108 H   0  0  0  0  0  0  0  0  0  0  0  0
   -1.7239    2.4222    0.7838 H   0  0  0  0  0  0  0  0  0  0  0  0
    0.5295    3.4653    0.8960 H   0  0  0  0  0  0  0  0  0  0  0  0
   11.2015    2.0167   -0.1752 H   0  0  0  0  0  0  0  0  0  0  0  0
   13.0728    0.5127   -0.7144 H   0  0  0  0  0  0  0  0  0  0  0  0
  1  2  1  0  0  0  0
  2  3  1  0  0  0  0
  3  4  2  0  0  0  0
  3  5  1  0  0  0  0
  5  6  2  0  0  0  0
  6  7  1  0  0  0  0
  7  8  2  0  0  0  0
  8  9  1  0  0  0  0
  9 10  2  0  0  0  0
 10 11  1  0  0  0  0
 11 12  2  0  0  0  0
 12 13  1  0  0  0  0
 13 14  2  0  0  0  0
 14 15  1  0  0  0  0
 15 16  2  0  0  0  0
 16 17  1  0  0  0  0
 17 18  2  0  0  0  0
 18 19  1  0  0  0  0
 19 20  2  0  0  0  0
 20 21  1  0  0  0  0
 21 22  2  0  0  0  0
 22 23  1  0  0  0  0
 23 24  2  0  0  0  0
 24 25  1  0  0  0  0
 25 26  2  0  0  0  0
 26 27  1  0  0  0  0
 27 28  2  0  0  0  0
 28 29  1  0  0  0  0
 29 30  2  0  0  0  0
 30 31  1  0  0  0  0
 31 32  2  0  0  0  0
 32 33  1  0  0  0  0
 33 34  2  0  0  0  0
 33 35  1  0  0  0  0
 35 36  1  0  0  0  0
 32 37  1  0  0  0  0
 37 38  2  0  0  0  0
 28 39  1  0  0  0  0
 24 40  1  0  0  0  0
 20 41  1  0  0  0  0
 41 42  2  0  0  0  0
 16 43  1  0  0  0  0
 12 44  1  0  0  0  0
  8 45  1  0  0  0  0
 45 46  2  0  0  0  0
 46  5  1  0  0  0  0
 44  9  1  0  0  0  0
 43 13  1  0  0  0  0
 42 17  1  0  0  0  0
 40 21  1  0  0  0  0
 39 25  1  0  0  0  0
 38 29  1  0  0  0  0
  1 47  1  0  0  0  0
  1 48  1  0  0  0  0
  1 49  1  0  0  0  0
  6 50  1  0  0  0  0
  7 51  1  0  0  0  0
 10 52  1  0  0  0  0
 11 53  1  0  0  0  0
 18 54  1  0  0  0  0
 19 55  1  0  0  0  0
 26 56  1  0  0  0  0
 27 57  1  0  0  0  0
 30 58  1  0  0  0  0
 31 59  1  0  0  0  0
 36 60  1  0  0  0  0
 36 61  1  0  0  0  0
 36 62  1  0  0  0  0
 37 63  1  0  0  0  0
 38 64  1  0  0  0  0
 41 65  1  0  0  0  0
 42 66  1  0  0  0  0
 45 67  1  0  0  0  0
 46 68  1  0  0  0  0
M  END
