
  xtb     03022213023D
 energy: -29.613142308624 gnorm: 0.000145170232 xtb: 6.4.1 (afa7bdf)
 17 17  0     0  0            999 V2000
    0.1019    2.0215    0.5622 N   0  0  0  0  0  0  0  0  0  0  0  0
   -0.3151    0.7693    0.2497 C   0  0  0  0  0  0  0  0  0  0  0  0
   -1.6911    0.4899    0.2727 C   0  0  0  0  0  0  0  0  0  0  0  0
   -2.1835   -0.7427   -0.0819 C   0  0  0  0  0  0  0  0  0  0  0  0
   -1.3171   -1.7578   -0.4774 C   0  0  0  0  0  0  0  0  0  0  0  0
    0.0339   -1.5100   -0.5030 C   0  0  0  0  0  0  0  0  0  0  0  0
    0.5639   -0.2635   -0.1428 C   0  0  0  0  0  0  0  0  0  0  0  0
    2.0244   -0.1620   -0.2044 C   0  0  0  0  0  0  0  0  0  0  0  0
    2.7571   -1.0547   -0.5628 O   0  0  0  0  0  0  0  0  0  0  0  0
    2.5597    1.0257    0.1855 O   0  0  0  0  0  0  0  0  0  0  0  0
   -0.5580    2.6637    0.9627 H   0  0  0  0  0  0  0  0  0  0  0  0
    1.0834    2.2034    0.6687 H   0  0  0  0  0  0  0  0  0  0  0  0
   -2.3666    1.2770    0.5777 H   0  0  0  0  0  0  0  0  0  0  0  0
   -3.2483   -0.9220   -0.0517 H   0  0  0  0  0  0  0  0  0  0  0  0
   -1.7024   -2.7254   -0.7574 H   0  0  0  0  0  0  0  0  0  0  0  0
    0.7336   -2.2761   -0.8006 H   0  0  0  0  0  0  0  0  0  0  0  0
    3.5243    0.9639    0.1029 H   0  0  0  0  0  0  0  0  0  0  0  0
  1  2  1  0  0  0  0
  2  3  2  0  0  0  0
  3  4  1  0  0  0  0
  4  5  2  0  0  0  0
  5  6  1  0  0  0  0
  6  7  2  0  0  0  0
  7  8  1  0  0  0  0
  8  9  2  0  0  0  0
  8 10  1  0  0  0  0
  7  2  1  0  0  0  0
  1 11  1  0  0  0  0
  1 12  1  0  0  0  0
  3 13  1  0  0  0  0
  4 14  1  0  0  0  0
  5 15  1  0  0  0  0
  6 16  1  0  0  0  0
 10 17  1  0  0  0  0
M  END
