
  xtb     03022212463D
 energy: -96.625210160764 gnorm: 0.000137975668 xtb: 6.4.1 (afa7bdf)
 65 70  0     0  0            999 V2000
    6.6727    0.0337   -1.9569 C   0  0  0  0  0  0  0  0  0  0  0  0
    6.2489   -0.5556   -0.6098 C   0  0  0  0  0  0  0  0  0  0  0  0
    5.3011    0.2813    0.0903 N   0  0  0  0  0  0  0  0  0  0  0  0
    5.8676    1.2560    0.9948 C   0  0  0  0  0  0  0  0  0  0  0  0
    6.0143    0.7217    2.4214 C   0  0  0  0  0  0  0  0  0  0  0  0
    3.9502    0.1478   -0.0818 C   0  0  0  0  0  0  0  0  0  0  0  0
    3.4127   -0.6664   -1.0935 C   0  0  0  0  0  0  0  0  0  0  0  0
    2.0539   -0.8096   -1.2526 C   0  0  0  0  0  0  0  0  0  0  0  0
    1.1527   -0.1689   -0.4041 C   0  0  0  0  0  0  0  0  0  0  0  0
   -0.2858   -0.3173   -0.6013 C   0  0  0  0  0  0  0  0  0  0  0  0
   -0.6890   -0.4095   -1.8672 N   0  0  0  0  0  0  0  0  0  0  0  0
   -1.9638   -0.3169   -2.1637 C   0  0  0  0  0  0  0  0  0  0  0  0
   -2.9496   -0.0221   -1.2021 C   0  0  0  0  0  0  0  0  0  0  0  0
   -2.5748   -0.1474    0.1360 C   0  0  0  0  0  0  0  0  0  0  0  0
   -1.2229   -0.3482    0.4505 C   0  0  0  0  0  0  0  0  0  0  0  0
   -0.8583   -0.6019    1.8439 C   0  0  0  0  0  0  0  0  0  0  0  0
    0.2422   -1.3854    2.1943 C   0  0  0  0  0  0  0  0  0  0  0  0
    0.5813   -1.5749    3.5161 C   0  0  0  0  0  0  0  0  0  0  0  0
   -0.1884   -0.9859    4.5210 C   0  0  0  0  0  0  0  0  0  0  0  0
    0.1671   -1.1508    5.8767 C   0  0  0  0  0  0  0  0  0  0  0  0
    0.4578   -1.2806    6.9790 N   0  0  0  0  0  0  0  0  0  0  0  0
   -1.3298   -0.2569    4.1834 C   0  0  0  0  0  0  0  0  0  0  0  0
   -1.6752   -0.0795    2.8588 C   0  0  0  0  0  0  0  0  0  0  0  0
   -2.9449    0.6091    2.4524 C   0  0  0  0  0  0  0  0  0  0  0  0
   -3.5425   -0.1760    1.2852 C   0  0  0  0  0  0  0  0  0  0  0  0
   -4.2720    0.3572   -1.7015 C   0  0  0  0  0  0  0  0  0  0  0  0
   -5.0505    1.3468   -1.1020 C   0  0  0  0  0  0  0  0  0  0  0  0
   -6.2851    1.6843   -1.6169 C   0  0  0  0  0  0  0  0  0  0  0  0
   -6.7557    1.0418   -2.7619 C   0  0  0  0  0  0  0  0  0  0  0  0
   -8.0266    1.3663   -3.2844 C   0  0  0  0  0  0  0  0  0  0  0  0
   -9.0604    1.6292   -3.7060 N   0  0  0  0  0  0  0  0  0  0  0  0
   -5.9512    0.1045   -3.4129 C   0  0  0  0  0  0  0  0  0  0  0  0
   -4.7128   -0.2251   -2.9006 C   0  0  0  0  0  0  0  0  0  0  0  0
   -3.7733   -1.1507   -3.6153 C   0  0  0  0  0  0  0  0  0  0  0  0
   -2.3783   -0.5249   -3.5893 C   0  0  0  0  0  0  0  0  0  0  0  0
    1.6749    0.6691    0.5811 C   0  0  0  0  0  0  0  0  0  0  0  0
    3.0319    0.8250    0.7396 C   0  0  0  0  0  0  0  0  0  0  0  0
    7.3862   -0.6250   -2.4452 H   0  0  0  0  0  0  0  0  0  0  0  0
    5.8112    0.1626   -2.6065 H   0  0  0  0  0  0  0  0  0  0  0  0
    7.1392    1.0059   -1.8154 H   0  0  0  0  0  0  0  0  0  0  0  0
    5.8221   -1.5513   -0.7528 H   0  0  0  0  0  0  0  0  0  0  0  0
    7.1315   -0.6708    0.0260 H   0  0  0  0  0  0  0  0  0  0  0  0
    6.8533    1.5364    0.6128 H   0  0  0  0  0  0  0  0  0  0  0  0
    5.2524    2.1591    0.9927 H   0  0  0  0  0  0  0  0  0  0  0  0
    5.0466    0.4359    2.8253 H   0  0  0  0  0  0  0  0  0  0  0  0
    6.4510    1.4829    3.0626 H   0  0  0  0  0  0  0  0  0  0  0  0
    6.6594   -0.1537    2.4339 H   0  0  0  0  0  0  0  0  0  0  0  0
    4.0602   -1.1883   -1.7786 H   0  0  0  0  0  0  0  0  0  0  0  0
    1.6653   -1.4364   -2.0406 H   0  0  0  0  0  0  0  0  0  0  0  0
    0.8304   -1.8547    1.4213 H   0  0  0  0  0  0  0  0  0  0  0  0
    1.4372   -2.1773    3.7821 H   0  0  0  0  0  0  0  0  0  0  0  0
   -1.9475    0.1588    4.9671 H   0  0  0  0  0  0  0  0  0  0  0  0
   -2.7344    1.6365    2.1360 H   0  0  0  0  0  0  0  0  0  0  0  0
   -3.6416    0.6490    3.2908 H   0  0  0  0  0  0  0  0  0  0  0  0
   -3.6708   -1.2201    1.5955 H   0  0  0  0  0  0  0  0  0  0  0  0
   -4.5222    0.2029    1.0069 H   0  0  0  0  0  0  0  0  0  0  0  0
   -4.6719    1.8875   -0.2477 H   0  0  0  0  0  0  0  0  0  0  0  0
   -6.8868    2.4475   -1.1460 H   0  0  0  0  0  0  0  0  0  0  0  0
   -6.3012   -0.3526   -4.3276 H   0  0  0  0  0  0  0  0  0  0  0  0
   -3.7439   -2.1192   -3.1057 H   0  0  0  0  0  0  0  0  0  0  0  0
   -4.1055   -1.3162   -4.6406 H   0  0  0  0  0  0  0  0  0  0  0  0
   -2.3961    0.4379   -4.1096 H   0  0  0  0  0  0  0  0  0  0  0  0
   -1.6434   -1.1592   -4.0844 H   0  0  0  0  0  0  0  0  0  0  0  0
    1.0052    1.2201    1.2262 H   0  0  0  0  0  0  0  0  0  0  0  0
    3.3752    1.4826    1.5211 H   0  0  0  0  0  0  0  0  0  0  0  0
  1  2  1  0  0  0  0
  2  3  1  0  0  0  0
  3  4  1  0  0  0  0
  4  5  1  0  0  0  0
  3  6  1  0  0  0  0
  6  7  2  0  0  0  0
  7  8  1  0  0  0  0
  8  9  2  0  0  0  0
  9 10  1  0  0  0  0
 10 11  2  0  0  0  0
 11 12  1  0  0  0  0
 12 13  2  0  0  0  0
 13 14  1  0  0  0  0
 14 15  2  0  0  0  0
 15 16  1  0  0  0  0
 16 17  2  0  0  0  0
 17 18  1  0  0  0  0
 18 19  2  0  0  0  0
 19 20  1  0  0  0  0
 20 21  3  0  0  0  0
 19 22  1  0  0  0  0
 22 23  2  0  0  0  0
 23 24  1  0  0  0  0
 24 25  1  0  0  0  0
 13 26  1  0  0  0  0
 26 27  2  0  0  0  0
 27 28  1  0  0  0  0
 28 29  2  0  0  0  0
 29 30  1  0  0  0  0
 30 31  3  0  0  0  0
 29 32  1  0  0  0  0
 32 33  2  0  0  0  0
 33 34  1  0  0  0  0
 34 35  1  0  0  0  0
  9 36  1  0  0  0  0
 36 37  2  0  0  0  0
 37  6  1  0  0  0  0
 15 10  1  0  0  0  0
 23 16  1  0  0  0  0
 33 26  1  0  0  0  0
 35 12  1  0  0  0  0
 25 14  1  0  0  0  0
  1 38  1  0  0  0  0
  1 39  1  0  0  0  0
  1 40  1  0  0  0  0
  2 41  1  0  0  0  0
  2 42  1  0  0  0  0
  4 43  1  0  0  0  0
  4 44  1  0  0  0  0
  5 45  1  0  0  0  0
  5 46  1  0  0  0  0
  5 47  1  0  0  0  0
  7 48  1  0  0  0  0
  8 49  1  0  0  0  0
 17 50  1  0  0  0  0
 18 51  1  0  0  0  0
 22 52  1  0  0  0  0
 24 53  1  0  0  0  0
 24 54  1  0  0  0  0
 25 55  1  0  0  0  0
 25 56  1  0  0  0  0
 27 57  1  0  0  0  0
 28 58  1  0  0  0  0
 32 59  1  0  0  0  0
 34 60  1  0  0  0  0
 34 61  1  0  0  0  0
 35 62  1  0  0  0  0
 35 63  1  0  0  0  0
 36 64  1  0  0  0  0
 37 65  1  0  0  0  0
M  END
