
  xtb     03022212093D
 energy: -80.995538991662 gnorm: 0.000337892959 xtb: 6.4.1 (afa7bdf)
 46 48  0     0  0            999 V2000
    4.2722   -2.1564   -0.6209 O   0  0  0  0  0  0  0  0  0  0  0  0
    4.9355   -1.1703   -0.8053 C   0  0  0  0  0  0  0  0  0  0  0  0
    6.0710   -1.1840   -1.5068 O   0  0  0  0  0  0  0  0  0  0  0  0
    4.5877    0.2126   -0.3148 C   0  0  0  0  0  0  0  0  0  0  0  0
    3.9282    0.1698    1.0675 C   0  0  0  0  0  0  0  0  0  0  0  0
    2.9019    1.2843    1.2767 C   0  0  0  0  0  0  0  0  0  0  0  0
    1.6096    1.0872    0.4826 C   0  0  0  0  0  0  0  0  0  0  0  0
    0.7366   -0.0361    1.0540 C   0  0  0  0  0  0  0  0  0  0  0  0
   -0.4434   -0.2755    0.2429 N   0  0  0  0  0  0  0  0  0  0  0  0
   -0.3784   -1.1980   -0.7898 C   0  0  0  0  0  0  0  0  0  0  0  0
    0.8330   -1.7803   -1.1900 C   0  0  0  0  0  0  0  0  0  0  0  0
    0.8723   -2.7116   -2.2050 C   0  0  0  0  0  0  0  0  0  0  0  0
   -0.2847   -3.1012   -2.8692 C   0  0  0  0  0  0  0  0  0  0  0  0
   -1.4801   -2.5329   -2.5010 C   0  0  0  0  0  0  0  0  0  0  0  0
   -1.5442   -1.5855   -1.4755 C   0  0  0  0  0  0  0  0  0  0  0  0
   -2.8496   -1.0152   -1.1435 C   0  0  0  0  0  0  0  0  0  0  0  0
   -3.8954   -1.4021   -1.6399 O   0  0  0  0  0  0  0  0  0  0  0  0
   -2.7969    0.0817   -0.1687 C   0  0  0  0  0  0  0  0  0  0  0  0
   -3.9730    0.7842    0.0977 C   0  0  0  0  0  0  0  0  0  0  0  0
   -3.9712    1.8092    1.0049 C   0  0  0  0  0  0  0  0  0  0  0  0
   -5.4716    2.6697    1.3862 S   0  0  0  0  0  6  0  0  0  0  0  0
   -5.1670    3.8768    2.0814 O   0  0  0  0  0  0  0  0  0  0  0  0
   -6.3434    2.7092    0.2521 O   0  0  0  0  0  0  0  0  0  0  0  0
   -6.1372    1.6392    2.4451 O   0  0  0  0  0  0  0  0  0  0  0  0
   -2.8062    2.1692    1.6621 C   0  0  0  0  0  0  0  0  0  0  0  0
   -1.6353    1.4934    1.4088 C   0  0  0  0  0  0  0  0  0  0  0  0
   -1.5974    0.4225    0.4926 C   0  0  0  0  0  0  0  0  0  0  0  0
    6.2665   -2.0770   -1.8326 H   0  0  0  0  0  0  0  0  0  0  0  0
    3.8938    0.6274   -1.0507 H   0  0  0  0  0  0  0  0  0  0  0  0
    5.4851    0.8293   -0.3231 H   0  0  0  0  0  0  0  0  0  0  0  0
    4.7021    0.2510    1.8320 H   0  0  0  0  0  0  0  0  0  0  0  0
    3.4515   -0.8033    1.1942 H   0  0  0  0  0  0  0  0  0  0  0  0
    3.3531    2.2367    0.9919 H   0  0  0  0  0  0  0  0  0  0  0  0
    2.6566    1.3420    2.3391 H   0  0  0  0  0  0  0  0  0  0  0  0
    1.8368    0.8587   -0.5599 H   0  0  0  0  0  0  0  0  0  0  0  0
    1.0398    2.0182    0.4879 H   0  0  0  0  0  0  0  0  0  0  0  0
    0.4232    0.2053    2.0715 H   0  0  0  0  0  0  0  0  0  0  0  0
    1.3004   -0.9672    1.1137 H   0  0  0  0  0  0  0  0  0  0  0  0
    1.7705   -1.5206   -0.7297 H   0  0  0  0  0  0  0  0  0  0  0  0
    1.8262   -3.1372   -2.4778 H   0  0  0  0  0  0  0  0  0  0  0  0
   -0.2415   -3.8330   -3.6605 H   0  0  0  0  0  0  0  0  0  0  0  0
   -2.4081   -2.7945   -2.9866 H   0  0  0  0  0  0  0  0  0  0  0  0
   -4.8712    0.5088   -0.4331 H   0  0  0  0  0  0  0  0  0  0  0  0
   -6.8675    1.1839    2.0229 H   0  0  0  0  0  0  0  0  0  0  0  0
   -2.8443    2.9923    2.3570 H   0  0  0  0  0  0  0  0  0  0  0  0
   -0.7457    1.8190    1.9200 H   0  0  0  0  0  0  0  0  0  0  0  0
  1  2  2  0  0  0  0
  2  3  1  0  0  0  0
  2  4  1  0  0  0  0
  4  5  1  0  0  0  0
  5  6  1  0  0  0  0
  6  7  1  0  0  0  0
  7  8  1  0  0  0  0
  8  9  1  0  0  0  0
  9 10  1  0  0  0  0
 10 11  2  0  0  0  0
 11 12  1  0  0  0  0
 12 13  2  0  0  0  0
 13 14  1  0  0  0  0
 14 15  2  0  0  0  0
 15 16  1  0  0  0  0
 16 17  2  0  0  0  0
 16 18  1  0  0  0  0
 18 19  2  0  0  0  0
 19 20  1  0  0  0  0
 20 21  1  0  0  0  0
 21 22  2  0  0  0  0
 21 23  2  0  0  0  0
 21 24  1  0  0  0  0
 20 25  2  0  0  0  0
 25 26  1  0  0  0  0
 26 27  2  0  0  0  0
 27  9  1  0  0  0  0
 15 10  1  0  0  0  0
 27 18  1  0  0  0  0
  3 28  1  0  0  0  0
  4 29  1  0  0  0  0
  4 30  1  0  0  0  0
  5 31  1  0  0  0  0
  5 32  1  0  0  0  0
  6 33  1  0  0  0  0
  6 34  1  0  0  0  0
  7 35  1  0  0  0  0
  7 36  1  0  0  0  0
  8 37  1  0  0  0  0
  8 38  1  0  0  0  0
 11 39  1  0  0  0  0
 12 40  1  0  0  0  0
 13 41  1  0  0  0  0
 14 42  1  0  0  0  0
 19 43  1  0  0  0  0
 24 44  1  0  0  0  0
 25 45  1  0  0  0  0
 26 46  1  0  0  0  0
M  END
