
  xtb     03022215073D
 energy: -64.747418860085 gnorm: 0.000090131988 xtb: 6.4.1 (afa7bdf)
 44 48  0     0  0            999 V2000
    0.1409   -1.9804   -0.0503 C   0  0  0  0  0  0  0  0  0  0  0  0
   -0.8448   -1.0389   -0.0815 C   0  0  0  0  0  0  0  0  0  0  0  0
   -2.2463   -1.4712   -0.1658 C   0  0  0  0  0  0  0  0  0  0  0  0
   -3.1221   -0.8594   -1.0611 C   0  0  0  0  0  0  0  0  0  0  0  0
   -4.4417   -1.2609   -1.1407 C   0  0  0  0  0  0  0  0  0  0  0  0
   -4.9139   -2.2740   -0.3219 C   0  0  0  0  0  0  0  0  0  0  0  0
   -4.0543   -2.8874    0.5735 C   0  0  0  0  0  0  0  0  0  0  0  0
   -2.7313   -2.4927    0.6484 C   0  0  0  0  0  0  0  0  0  0  0  0
   -0.4205    0.4345   -0.0253 B   0  0  0  0  0  0  0  0  0  0  0  0
   -1.3787    1.6776   -0.0049 C   0  0  0  0  0  0  0  0  0  0  0  0
   -1.0951    2.8211   -0.7542 C   0  0  0  0  0  0  0  0  0  0  0  0
   -1.9347    3.9203   -0.7457 C   0  0  0  0  0  0  0  0  0  0  0  0
   -3.0827    3.9081    0.0278 C   0  0  0  0  0  0  0  0  0  0  0  0
   -3.3822    2.7890    0.7869 C   0  0  0  0  0  0  0  0  0  0  0  0
   -2.5430    1.6906    0.7655 C   0  0  0  0  0  0  0  0  0  0  0  0
    0.9713    0.6566    0.0376 N   0  0  0  0  0  0  0  0  0  0  0  0
    1.9307   -0.3118    0.0648 C   0  0  0  0  0  0  0  0  0  0  0  0
    1.5237   -1.6524    0.0195 C   0  0  0  0  0  0  0  0  0  0  0  0
    2.5033   -2.6765    0.0412 C   0  0  0  0  0  0  0  0  0  0  0  0
    3.8265   -2.3852    0.1114 C   0  0  0  0  0  0  0  0  0  0  0  0
    4.2707   -1.0405    0.1653 C   0  0  0  0  0  0  0  0  0  0  0  0
    5.6416   -0.7355    0.2439 C   0  0  0  0  0  0  0  0  0  0  0  0
    6.0757    0.5612    0.2973 C   0  0  0  0  0  0  0  0  0  0  0  0
    5.1457    1.6053    0.2725 C   0  0  0  0  0  0  0  0  0  0  0  0
    3.8042    1.3381    0.1960 C   0  0  0  0  0  0  0  0  0  0  0  0
    3.3227    0.0150    0.1410 C   0  0  0  0  0  0  0  0  0  0  0  0
   -0.1046   -3.0354   -0.1014 H   0  0  0  0  0  0  0  0  0  0  0  0
   -2.7552   -0.0706   -1.7010 H   0  0  0  0  0  0  0  0  0  0  0  0
   -5.1077   -0.7797   -1.8425 H   0  0  0  0  0  0  0  0  0  0  0  0
   -5.9475   -2.5825   -0.3801 H   0  0  0  0  0  0  0  0  0  0  0  0
   -4.4174   -3.6756    1.2178 H   0  0  0  0  0  0  0  0  0  0  0  0
   -2.0681   -2.9636    1.3605 H   0  0  0  0  0  0  0  0  0  0  0  0
   -0.2078    2.8424   -1.3746 H   0  0  0  0  0  0  0  0  0  0  0  0
   -1.6942    4.7890   -1.3428 H   0  0  0  0  0  0  0  0  0  0  0  0
   -3.7406    4.7653    0.0376 H   0  0  0  0  0  0  0  0  0  0  0  0
   -4.2760    2.7727    1.3943 H   0  0  0  0  0  0  0  0  0  0  0  0
   -2.7884    0.8229    1.3613 H   0  0  0  0  0  0  0  0  0  0  0  0
    1.3195    1.6044    0.0835 H   0  0  0  0  0  0  0  0  0  0  0  0
    2.1674   -3.7028    0.0009 H   0  0  0  0  0  0  0  0  0  0  0  0
    4.5667   -3.1718    0.1283 H   0  0  0  0  0  0  0  0  0  0  0  0
    6.3501   -1.5514    0.2624 H   0  0  0  0  0  0  0  0  0  0  0  0
    7.1303    0.7852    0.3590 H   0  0  0  0  0  0  0  0  0  0  0  0
    5.4904    2.6281    0.3148 H   0  0  0  0  0  0  0  0  0  0  0  0
    3.1171    2.1730    0.1807 H   0  0  0  0  0  0  0  0  0  0  0  0
  1  2  2  0  0  0  0
  2  3  1  0  0  0  0
  3  4  2  0  0  0  0
  4  5  1  0  0  0  0
  5  6  2  0  0  0  0
  6  7  1  0  0  0  0
  7  8  2  0  0  0  0
  2  9  1  0  0  0  0
  9 10  1  0  0  0  0
 10 11  2  0  0  0  0
 11 12  1  0  0  0  0
 12 13  2  0  0  0  0
 13 14  1  0  0  0  0
 14 15  2  0  0  0  0
  9 16  1  0  0  0  0
 16 17  1  0  0  0  0
 17 18  2  0  0  0  0
 18 19  1  0  0  0  0
 19 20  2  0  0  0  0
 20 21  1  0  0  0  0
 21 22  2  0  0  0  0
 22 23  1  0  0  0  0
 23 24  2  0  0  0  0
 24 25  1  0  0  0  0
 25 26  2  0  0  0  0
 18  1  1  0  0  0  0
 26 21  1  0  0  0  0
  8  3  1  0  0  0  0
 15 10  1  0  0  0  0
 26 17  1  0  0  0  0
  1 27  1  0  0  0  0
  4 28  1  0  0  0  0
  5 29  1  0  0  0  0
  6 30  1  0  0  0  0
  7 31  1  0  0  0  0
  8 32  1  0  0  0  0
 11 33  1  0  0  0  0
 12 34  1  0  0  0  0
 13 35  1  0  0  0  0
 14 36  1  0  0  0  0
 15 37  1  0  0  0  0
 16 38  1  0  0  0  0
 19 39  1  0  0  0  0
 20 40  1  0  0  0  0
 22 41  1  0  0  0  0
 23 42  1  0  0  0  0
 24 43  1  0  0  0  0
 25 44  1  0  0  0  0
M  END
