
  xtb     03022215343D
 energy: -81.686204477776 gnorm: 0.000211616450 xtb: 6.4.1 (afa7bdf)
 60 63  0     0  0            999 V2000
   -8.4370   -1.2603    1.5122 C   0  0  0  0  0  0  0  0  0  0  0  0
   -8.0081   -2.8248    0.7843 S   0  0  0  0  0  0  0  0  0  0  0  0
   -6.3126   -2.6644    0.4008 C   0  0  0  0  0  0  0  0  0  0  0  0
   -5.5166   -1.6359    0.7041 C   0  0  0  0  0  0  0  0  0  0  0  0
   -4.1111   -1.5156    0.3756 C   0  0  0  0  0  0  0  0  0  0  0  0
   -3.4265   -0.3606    0.7665 C   0  0  0  0  0  0  0  0  0  0  0  0
   -2.0882   -0.1915    0.4864 C   0  0  0  0  0  0  0  0  0  0  0  0
   -1.3737   -1.1691   -0.2055 C   0  0  0  0  0  0  0  0  0  0  0  0
    0.0508   -0.9950   -0.5032 C   0  0  0  0  0  0  0  0  0  0  0  0
    0.9109   -0.4100    0.4268 C   0  0  0  0  0  0  0  0  0  0  0  0
    2.2519   -0.2498    0.1552 C   0  0  0  0  0  0  0  0  0  0  0  0
    2.7944   -0.6622   -1.0657 C   0  0  0  0  0  0  0  0  0  0  0  0
    4.1932   -0.5168   -1.4089 C   0  0  0  0  0  0  0  0  0  0  0  0
    5.1416    0.0376   -0.6469 C   0  0  0  0  0  0  0  0  0  0  0  0
    6.8058    0.1616   -1.1621 S   0  0  0  0  0  0  0  0  0  0  0  0
    7.5294    0.9684    0.2308 C   0  0  0  0  0  0  0  0  0  0  0  0
    8.8333    1.1868    0.3335 C   0  0  0  0  0  0  0  0  0  0  0  0
    9.8628    0.8002   -0.6888 C   0  0  0  0  0  0  0  0  0  0  0  0
   11.2006    1.0108    0.0218 C   0  0  0  0  0  0  0  0  0  0  0  0
   10.9157    2.1654    0.9815 C   0  0  0  0  0  0  0  0  0  0  0  0
    9.5081    1.8614    1.4976 C   0  0  0  0  0  0  0  0  0  0  0  0
    1.9279   -1.2458   -1.9957 C   0  0  0  0  0  0  0  0  0  0  0  0
    0.5882   -1.4116   -1.7210 C   0  0  0  0  0  0  0  0  0  0  0  0
   -2.0548   -2.3203   -0.6033 C   0  0  0  0  0  0  0  0  0  0  0  0
   -3.3915   -2.4929   -0.3182 C   0  0  0  0  0  0  0  0  0  0  0  0
   -8.4991   -0.1274    0.8279 C   0  0  0  0  0  0  0  0  0  0  0  0
   -8.2213    0.0420   -0.6384 C   0  0  0  0  0  0  0  0  0  0  0  0
   -8.2521    1.5547   -0.8672 C   0  0  0  0  0  0  0  0  0  0  0  0
   -9.2164    2.0635    0.2031 C   0  0  0  0  0  0  0  0  0  0  0  0
   -8.8748    1.2038    1.4204 C   0  0  0  0  0  0  0  0  0  0  0  0
   -8.6927   -1.3229    2.5586 H   0  0  0  0  0  0  0  0  0  0  0  0
   -5.9727   -3.5428   -0.1232 H   0  0  0  0  0  0  0  0  0  0  0  0
   -5.9351   -0.7995    1.2505 H   0  0  0  0  0  0  0  0  0  0  0  0
   -3.9617    0.4141    1.2986 H   0  0  0  0  0  0  0  0  0  0  0  0
   -1.5911    0.7199    0.7862 H   0  0  0  0  0  0  0  0  0  0  0  0
    0.5223   -0.0998    1.3862 H   0  0  0  0  0  0  0  0  0  0  0  0
    2.8873    0.1976    0.9046 H   0  0  0  0  0  0  0  0  0  0  0  0
    4.4788   -0.8983   -2.3807 H   0  0  0  0  0  0  0  0  0  0  0  0
    4.9499    0.4453    0.3329 H   0  0  0  0  0  0  0  0  0  0  0  0
    6.8264    1.2763    0.9887 H   0  0  0  0  0  0  0  0  0  0  0  0
    9.7771    1.4598   -1.5568 H   0  0  0  0  0  0  0  0  0  0  0  0
    9.7170   -0.2220   -1.0404 H   0  0  0  0  0  0  0  0  0  0  0  0
   11.4641    0.1165    0.5891 H   0  0  0  0  0  0  0  0  0  0  0  0
   12.0126    1.2311   -0.6693 H   0  0  0  0  0  0  0  0  0  0  0  0
   11.6489    2.2361    1.7837 H   0  0  0  0  0  0  0  0  0  0  0  0
   10.9121    3.1088    0.4329 H   0  0  0  0  0  0  0  0  0  0  0  0
    8.9741    2.7526    1.8277 H   0  0  0  0  0  0  0  0  0  0  0  0
    9.5562    1.1679    2.3421 H   0  0  0  0  0  0  0  0  0  0  0  0
    2.3213   -1.5692   -2.9492 H   0  0  0  0  0  0  0  0  0  0  0  0
   -0.0596   -1.8490   -2.4670 H   0  0  0  0  0  0  0  0  0  0  0  0
   -1.5177   -3.1006   -1.1229 H   0  0  0  0  0  0  0  0  0  0  0  0
   -3.8831   -3.4004   -0.6338 H   0  0  0  0  0  0  0  0  0  0  0  0
   -7.2718   -0.4069   -0.9326 H   0  0  0  0  0  0  0  0  0  0  0  0
   -9.0108   -0.4558   -1.2076 H   0  0  0  0  0  0  0  0  0  0  0  0
   -7.2586    1.9746   -0.6990 H   0  0  0  0  0  0  0  0  0  0  0  0
   -8.5678    1.8179   -1.8753 H   0  0  0  0  0  0  0  0  0  0  0  0
  -10.2461    1.8740   -0.1046 H   0  0  0  0  0  0  0  0  0  0  0  0
   -9.1051    3.1290    0.3983 H   0  0  0  0  0  0  0  0  0  0  0  0
   -9.6934    1.1217    2.1346 H   0  0  0  0  0  0  0  0  0  0  0  0
   -8.0115    1.6220    1.9462 H   0  0  0  0  0  0  0  0  0  0  0  0
  1  2  1  0  0  0  0
  2  3  1  0  0  0  0
  3  4  2  0  0  0  0
  4  5  1  0  0  0  0
  5  6  2  0  0  0  0
  6  7  1  0  0  0  0
  7  8  2  0  0  0  0
  8  9  1  0  0  0  0
  9 10  2  0  0  0  0
 10 11  1  0  0  0  0
 11 12  2  0  0  0  0
 12 13  1  0  0  0  0
 13 14  2  0  0  0  0
 14 15  1  0  0  0  0
 15 16  1  0  0  0  0
 16 17  2  0  0  0  0
 17 18  1  0  0  0  0
 18 19  1  0  0  0  0
 19 20  1  0  0  0  0
 20 21  1  0  0  0  0
 12 22  1  0  0  0  0
 22 23  2  0  0  0  0
  8 24  1  0  0  0  0
 24 25  2  0  0  0  0
  1 26  2  0  0  0  0
 26 27  1  0  0  0  0
 27 28  1  0  0  0  0
 28 29  1  0  0  0  0
 29 30  1  0  0  0  0
 25  5  1  0  0  0  0
 30 26  1  0  0  0  0
 23  9  1  0  0  0  0
 21 17  1  0  0  0  0
  1 31  1  0  0  0  0
  3 32  1  0  0  0  0
  4 33  1  0  0  0  0
  6 34  1  0  0  0  0
  7 35  1  0  0  0  0
 10 36  1  0  0  0  0
 11 37  1  0  0  0  0
 13 38  1  0  0  0  0
 14 39  1  0  0  0  0
 16 40  1  0  0  0  0
 18 41  1  0  0  0  0
 18 42  1  0  0  0  0
 19 43  1  0  0  0  0
 19 44  1  0  0  0  0
 20 45  1  0  0  0  0
 20 46  1  0  0  0  0
 21 47  1  0  0  0  0
 21 48  1  0  0  0  0
 22 49  1  0  0  0  0
 23 50  1  0  0  0  0
 24 51  1  0  0  0  0
 25 52  1  0  0  0  0
 27 53  1  0  0  0  0
 27 54  1  0  0  0  0
 28 55  1  0  0  0  0
 28 56  1  0  0  0  0
 29 57  1  0  0  0  0
 29 58  1  0  0  0  0
 30 59  1  0  0  0  0
 30 60  1  0  0  0  0
M  END
