
  xtb     03022214213D
 energy: -84.419370783923 gnorm: 0.000306761878 xtb: 6.4.1 (afa7bdf)
 49 52  0     0  0            999 V2000
   -6.0573    1.9084   -1.2117 C   0  0  0  0  0  0  0  0  0  0  0  0
   -5.6158    0.8996   -2.2727 C   0  0  0  0  0  0  0  0  0  0  0  0
   -5.0482   -0.3099   -1.7121 N   0  0  0  0  0  0  0  0  0  0  0  0
   -5.9254   -1.4547   -1.5808 C   0  0  0  0  0  0  0  0  0  0  0  0
   -6.5751   -1.5662   -0.2006 C   0  0  0  0  0  0  0  0  0  0  0  0
   -3.7834   -0.3245   -1.2163 C   0  0  0  0  0  0  0  0  0  0  0  0
   -3.2447   -1.4771   -0.5887 C   0  0  0  0  0  0  0  0  0  0  0  0
   -1.9621   -1.5087   -0.1192 C   0  0  0  0  0  0  0  0  0  0  0  0
   -1.1147   -0.3961   -0.2426 C   0  0  0  0  0  0  0  0  0  0  0  0
    0.2411   -0.3599    0.1946 C   0  0  0  0  0  0  0  0  0  0  0  0
    0.7177   -1.4470    0.9662 C   0  0  0  0  0  0  0  0  0  0  0  0
    1.0167   -2.2984    1.6737 N   0  0  0  0  0  0  0  0  0  0  0  0
    1.0123    0.7673   -0.0098 C   0  0  0  0  0  0  0  0  0  0  0  0
    2.4023    0.8705    0.3257 C   0  0  0  0  0  0  0  0  0  0  0  0
    3.3136   -0.1299    0.1970 C   0  0  0  0  0  0  0  0  0  0  0  0
    3.0201   -1.3527   -0.4502 C   0  0  0  0  0  0  0  0  0  0  0  0
    2.8178   -2.3082   -1.0511 N   0  0  0  0  0  0  0  0  0  0  0  0
    4.6855    0.0556    0.6036 C   0  0  0  0  0  0  0  0  0  0  0  0
    5.1619    1.1065    1.1981 N   0  0  0  0  0  0  0  0  0  0  0  0
    6.4878    0.8333    1.3973 C   0  0  0  0  0  0  0  0  0  0  0  0
    7.5062    1.5764    1.9835 C   0  0  0  0  0  0  0  0  0  0  0  0
    8.7580    1.0004    2.0285 C   0  0  0  0  0  0  0  0  0  0  0  0
    9.0039   -0.2736    1.5111 C   0  0  0  0  0  0  0  0  0  0  0  0
    8.0061   -1.0290    0.9241 C   0  0  0  0  0  0  0  0  0  0  0  0
    6.7503   -0.4543    0.8770 C   0  0  0  0  0  0  0  0  0  0  0  0
    5.5889   -0.9351    0.3740 O   0  0  0  0  0  0  0  0  0  0  0  0
    0.3903    1.9782   -0.5640 C   0  0  0  0  0  0  0  0  0  0  0  0
    0.9530    3.0355   -0.6917 O   0  0  0  0  0  0  0  0  0  0  0  0
   -0.9090    1.8916   -0.9685 O   0  0  0  0  0  0  0  0  0  0  0  0
   -1.6437    0.7581   -0.8486 C   0  0  0  0  0  0  0  0  0  0  0  0
   -2.9421    0.7955   -1.3168 C   0  0  0  0  0  0  0  0  0  0  0  0
   -5.2333    2.1586   -0.5493 H   0  0  0  0  0  0  0  0  0  0  0  0
   -6.8680    1.5053   -0.6112 H   0  0  0  0  0  0  0  0  0  0  0  0
   -6.4058    2.8178   -1.6937 H   0  0  0  0  0  0  0  0  0  0  0  0
   -4.8877    1.3599   -2.9460 H   0  0  0  0  0  0  0  0  0  0  0  0
   -6.4793    0.6162   -2.8780 H   0  0  0  0  0  0  0  0  0  0  0  0
   -5.3651   -2.3659   -1.8055 H   0  0  0  0  0  0  0  0  0  0  0  0
   -6.7079   -1.3661   -2.3380 H   0  0  0  0  0  0  0  0  0  0  0  0
   -7.2427   -0.7281   -0.0212 H   0  0  0  0  0  0  0  0  0  0  0  0
   -7.1536   -2.4843   -0.1404 H   0  0  0  0  0  0  0  0  0  0  0  0
   -5.8206   -1.5764    0.5815 H   0  0  0  0  0  0  0  0  0  0  0  0
   -3.8442   -2.3622   -0.4670 H   0  0  0  0  0  0  0  0  0  0  0  0
   -1.5777   -2.4023    0.3491 H   0  0  0  0  0  0  0  0  0  0  0  0
    2.7606    1.8415    0.6403 H   0  0  0  0  0  0  0  0  0  0  0  0
    7.3104    2.5587    2.3804 H   0  0  0  0  0  0  0  0  0  0  0  0
    9.5756    1.5457    2.4756 H   0  0  0  0  0  0  0  0  0  0  0  0
   10.0022   -0.6796    1.5718 H   0  0  0  0  0  0  0  0  0  0  0  0
    8.1887   -2.0125    0.5229 H   0  0  0  0  0  0  0  0  0  0  0  0
   -3.2635    1.7219   -1.7582 H   0  0  0  0  0  0  0  0  0  0  0  0
  1  2  1  0  0  0  0
  2  3  1  0  0  0  0
  3  4  1  0  0  0  0
  4  5  1  0  0  0  0
  3  6  1  0  0  0  0
  6  7  2  0  0  0  0
  7  8  1  0  0  0  0
  8  9  2  0  0  0  0
  9 10  1  0  0  0  0
 10 11  1  0  0  0  0
 11 12  3  0  0  0  0
 10 13  2  0  0  0  0
 13 14  1  0  0  0  0
 14 15  2  0  0  0  0
 15 16  1  0  0  0  0
 16 17  3  0  0  0  0
 15 18  1  0  0  0  0
 18 19  2  0  0  0  0
 19 20  1  0  0  0  0
 20 21  2  0  0  0  0
 21 22  1  0  0  0  0
 22 23  2  0  0  0  0
 23 24  1  0  0  0  0
 24 25  2  0  0  0  0
 25 26  1  0  0  0  0
 13 27  1  0  0  0  0
 27 28  2  0  0  0  0
 27 29  1  0  0  0  0
 29 30  1  0  0  0  0
 30 31  2  0  0  0  0
 31  6  1  0  0  0  0
 30  9  1  0  0  0  0
 26 18  1  0  0  0  0
 25 20  1  0  0  0  0
  1 32  1  0  0  0  0
  1 33  1  0  0  0  0
  1 34  1  0  0  0  0
  2 35  1  0  0  0  0
  2 36  1  0  0  0  0
  4 37  1  0  0  0  0
  4 38  1  0  0  0  0
  5 39  1  0  0  0  0
  5 40  1  0  0  0  0
  5 41  1  0  0  0  0
  7 42  1  0  0  0  0
  8 43  1  0  0  0  0
 14 44  1  0  0  0  0
 21 45  1  0  0  0  0
 22 46  1  0  0  0  0
 23 47  1  0  0  0  0
 24 48  1  0  0  0  0
 31 49  1  0  0  0  0
M  END
