
  xtb     03022212243D
 energy: -127.136698927029 gnorm: 0.000268140750 xtb: 6.4.1 (afa7bdf)
 76 81  0     0  0            999 V2000
   -2.1036   -5.6128   -2.6428 C   0  0  0  0  0  0  0  0  0  0  0  0
   -2.7804   -4.7383   -1.6378 C   0  0  0  0  0  0  0  0  0  0  0  0
   -3.0228   -3.4010   -1.9454 C   0  0  0  0  0  0  0  0  0  0  0  0
   -3.6518   -2.5732   -1.0358 C   0  0  0  0  0  0  0  0  0  0  0  0
   -4.0410   -3.0871    0.1867 C   0  0  0  0  0  0  0  0  0  0  0  0
   -4.8039   -1.9935    1.3630 S   0  0  0  0  0  6  0  0  0  0  0  0
   -5.2070   -2.7172    2.5334 O   0  0  0  0  0  0  0  0  0  0  0  0
   -5.7766   -1.1470    0.7196 O   0  0  0  0  0  0  0  0  0  0  0  0
   -3.4424   -1.0842    1.7578 N   0  0  0  0  0  0  0  0  0  0  0  0
   -3.4533    0.1589    1.5049 C   0  0  0  0  0  0  0  0  0  0  0  0
   -2.2601    0.9553    1.6200 C   0  0  0  0  0  0  0  0  0  0  0  0
   -2.2320    2.2483    1.2276 C   0  0  0  0  0  0  0  0  0  0  0  0
   -1.0100    2.9802    1.0647 C   0  0  0  0  0  0  0  0  0  0  0  0
   -0.8081    4.3527    1.1078 C   0  0  0  0  0  0  0  0  0  0  0  0
   -1.6744    5.4272    1.5409 C   0  0  0  0  0  0  0  0  0  0  0  0
   -1.4260    6.7357    1.1174 C   0  0  0  0  0  0  0  0  0  0  0  0
   -2.2543    7.7664    1.5132 C   0  0  0  0  0  0  0  0  0  0  0  0
   -3.3399    7.5117    2.3366 C   0  0  0  0  0  0  0  0  0  0  0  0
   -3.5845    6.2199    2.7746 C   0  0  0  0  0  0  0  0  0  0  0  0
   -2.7578    5.1828    2.3882 C   0  0  0  0  0  0  0  0  0  0  0  0
    0.4424    4.6452    0.6948 O   0  0  0  0  0  0  0  0  0  0  0  0
    1.0692    3.4991    0.3608 C   0  0  0  0  0  0  0  0  0  0  0  0
    2.4401    3.5563   -0.0966 C   0  0  0  0  0  0  0  0  0  0  0  0
    3.2715    2.4352   -0.0332 C   0  0  0  0  0  0  0  0  0  0  0  0
    4.5710    2.5086   -0.4961 C   0  0  0  0  0  0  0  0  0  0  0  0
    5.0661    3.6950   -1.0135 C   0  0  0  0  0  0  0  0  0  0  0  0
    4.2545    4.8177   -1.0603 C   0  0  0  0  0  0  0  0  0  0  0  0
    2.9528    4.7527   -0.6063 C   0  0  0  0  0  0  0  0  0  0  0  0
    0.2225    2.4187    0.5742 C   0  0  0  0  0  0  0  0  0  0  0  0
    0.4114    1.0509    0.1994 C   0  0  0  0  0  0  0  0  0  0  0  0
   -0.1968    0.0192    0.8316 C   0  0  0  0  0  0  0  0  0  0  0  0
   -0.1403   -1.3192    0.3079 C   0  0  0  0  0  0  0  0  0  0  0  0
    0.5539   -1.6358   -0.7100 N   0  0  0  0  0  0  0  0  0  0  0  0
    0.5474   -3.2434   -1.1826 S   0  0  0  0  0  6  0  0  0  0  0  0
    0.1735   -3.2846   -2.5689 O   0  0  0  0  0  0  0  0  0  0  0  0
   -0.1910   -4.0560   -0.2536 O   0  0  0  0  0  0  0  0  0  0  0  0
    2.2914   -3.5865   -1.0409 C   0  0  0  0  0  0  0  0  0  0  0  0
    3.1613   -2.9851   -1.9284 C   0  0  0  0  0  0  0  0  0  0  0  0
    4.5197   -3.2139   -1.8003 C   0  0  0  0  0  0  0  0  0  0  0  0
    5.0086   -4.0382   -0.7907 C   0  0  0  0  0  0  0  0  0  0  0  0
    6.4766   -4.3082   -0.6705 C   0  0  0  0  0  0  0  0  0  0  0  0
    4.1103   -4.6295    0.0928 C   0  0  0  0  0  0  0  0  0  0  0  0
    2.7504   -4.4025   -0.0271 C   0  0  0  0  0  0  0  0  0  0  0  0
   -1.0031    0.2673    2.0751 C   0  0  0  0  0  0  0  0  0  0  0  0
   -3.7975   -4.4022    0.5221 C   0  0  0  0  0  0  0  0  0  0  0  0
   -3.1731   -5.2271   -0.3976 C   0  0  0  0  0  0  0  0  0  0  0  0
   -1.1814   -5.1329   -2.9648 H   0  0  0  0  0  0  0  0  0  0  0  0
   -1.8729   -6.5878   -2.2228 H   0  0  0  0  0  0  0  0  0  0  0  0
   -2.7400   -5.7459   -3.5173 H   0  0  0  0  0  0  0  0  0  0  0  0
   -2.6956   -3.0130   -2.8981 H   0  0  0  0  0  0  0  0  0  0  0  0
   -3.8535   -1.5360   -1.2585 H   0  0  0  0  0  0  0  0  0  0  0  0
   -4.3622    0.6448    1.1363 H   0  0  0  0  0  0  0  0  0  0  0  0
   -3.1494    2.7535    0.9552 H   0  0  0  0  0  0  0  0  0  0  0  0
   -0.5843    6.9286    0.4698 H   0  0  0  0  0  0  0  0  0  0  0  0
   -2.0559    8.7733    1.1771 H   0  0  0  0  0  0  0  0  0  0  0  0
   -3.9884    8.3187    2.6424 H   0  0  0  0  0  0  0  0  0  0  0  0
   -4.4203    6.0212    3.4287 H   0  0  0  0  0  0  0  0  0  0  0  0
   -2.9299    4.1855    2.7621 H   0  0  0  0  0  0  0  0  0  0  0  0
    2.9038    1.5188    0.4013 H   0  0  0  0  0  0  0  0  0  0  0  0
    5.2050    1.6359   -0.4445 H   0  0  0  0  0  0  0  0  0  0  0  0
    6.0833    3.7472   -1.3715 H   0  0  0  0  0  0  0  0  0  0  0  0
    4.6391    5.7461   -1.4554 H   0  0  0  0  0  0  0  0  0  0  0  0
    2.3154    5.6226   -0.6490 H   0  0  0  0  0  0  0  0  0  0  0  0
    1.0223    0.8380   -0.6667 H   0  0  0  0  0  0  0  0  0  0  0  0
   -0.7360   -2.0799    0.8212 H   0  0  0  0  0  0  0  0  0  0  0  0
    2.7585   -2.3563   -2.7056 H   0  0  0  0  0  0  0  0  0  0  0  0
    5.2102   -2.7510   -2.4902 H   0  0  0  0  0  0  0  0  0  0  0  0
    7.0592   -3.5008   -1.1066 H   0  0  0  0  0  0  0  0  0  0  0  0
    6.7646   -4.4333    0.3705 H   0  0  0  0  0  0  0  0  0  0  0  0
    6.7259   -5.2282   -1.1995 H   0  0  0  0  0  0  0  0  0  0  0  0
    4.4812   -5.2713    0.8785 H   0  0  0  0  0  0  0  0  0  0  0  0
    2.0344   -4.8507    0.6435 H   0  0  0  0  0  0  0  0  0  0  0  0
   -1.2644   -0.6664    2.5681 H   0  0  0  0  0  0  0  0  0  0  0  0
   -0.4478    0.9140    2.7579 H   0  0  0  0  0  0  0  0  0  0  0  0
   -4.1055   -4.7551    1.4936 H   0  0  0  0  0  0  0  0  0  0  0  0
   -2.9780   -6.2584   -0.1445 H   0  0  0  0  0  0  0  0  0  0  0  0
  1  2  1  0  0  0  0
  2  3  2  0  0  0  0
  3  4  1  0  0  0  0
  4  5  2  0  0  0  0
  5  6  1  0  0  0  0
  6  7  2  0  0  0  0
  6  8  2  0  0  0  0
  6  9  1  0  0  0  0
  9 10  2  0  0  0  0
 10 11  1  0  0  0  0
 11 12  2  0  0  0  0
 12 13  1  0  0  0  0
 13 14  2  0  0  0  0
 14 15  1  0  0  0  0
 15 16  2  0  0  0  0
 16 17  1  0  0  0  0
 17 18  2  0  0  0  0
 18 19  1  0  0  0  0
 19 20  2  0  0  0  0
 14 21  1  0  0  0  0
 21 22  1  0  0  0  0
 22 23  1  0  0  0  0
 23 24  2  0  0  0  0
 24 25  1  0  0  0  0
 25 26  2  0  0  0  0
 26 27  1  0  0  0  0
 27 28  2  0  0  0  0
 22 29  2  0  0  0  0
 29 30  1  0  0  0  0
 30 31  2  0  0  0  0
 31 32  1  0  0  0  0
 32 33  2  0  0  0  0
 33 34  1  0  0  0  0
 34 35  2  0  0  0  0
 34 36  2  0  0  0  0
 34 37  1  0  0  0  0
 37 38  2  0  0  0  0
 38 39  1  0  0  0  0
 39 40  2  0  0  0  0
 40 41  1  0  0  0  0
 40 42  1  0  0  0  0
 42 43  2  0  0  0  0
 31 44  1  0  0  0  0
  5 45  1  0  0  0  0
 45 46  2  0  0  0  0
 46  2  1  0  0  0  0
 44 11  1  0  0  0  0
 29 13  1  0  0  0  0
 43 37  1  0  0  0  0
 20 15  1  0  0  0  0
 28 23  1  0  0  0  0
  1 47  1  0  0  0  0
  1 48  1  0  0  0  0
  1 49  1  0  0  0  0
  3 50  1  0  0  0  0
  4 51  1  0  0  0  0
 10 52  1  0  0  0  0
 12 53  1  0  0  0  0
 16 54  1  0  0  0  0
 17 55  1  0  0  0  0
 18 56  1  0  0  0  0
 19 57  1  0  0  0  0
 20 58  1  0  0  0  0
 24 59  1  0  0  0  0
 25 60  1  0  0  0  0
 26 61  1  0  0  0  0
 27 62  1  0  0  0  0
 28 63  1  0  0  0  0
 30 64  1  0  0  0  0
 32 65  1  0  0  0  0
 38 66  1  0  0  0  0
 39 67  1  0  0  0  0
 41 68  1  0  0  0  0
 41 69  1  0  0  0  0
 41 70  1  0  0  0  0
 42 71  1  0  0  0  0
 43 72  1  0  0  0  0
 44 73  1  0  0  0  0
 44 74  1  0  0  0  0
 45 75  1  0  0  0  0
 46 76  1  0  0  0  0
M  END
