
  xtb     03022212233D
 energy: -59.289982833796 gnorm: 0.000102093455 xtb: 6.4.1 (afa7bdf)
 34 36  0     0  0            999 V2000
    5.1034   -2.5178   -0.4032 C   0  0  0  0  0  0  0  0  0  0  0  0
    4.4458   -1.2614   -0.3178 O   0  0  0  0  0  0  0  0  0  0  0  0
    3.1175   -1.3029   -0.2389 C   0  0  0  0  0  0  0  0  0  0  0  0
    2.4713   -2.3247   -0.2363 O   0  0  0  0  0  0  0  0  0  0  0  0
    2.4915    0.0388   -0.1525 C   0  0  0  0  0  0  0  0  0  0  0  0
    3.1835    1.2137   -0.1528 C   0  0  0  0  0  0  0  0  0  0  0  0
    2.5330    2.5021   -0.0671 C   0  0  0  0  0  0  0  0  0  0  0  0
    3.1257    3.5684   -0.0652 O   0  0  0  0  0  0  0  0  0  0  0  0
    1.1369    2.4746    0.0169 N   0  0  0  0  0  0  0  0  0  0  0  0
    0.4373    3.7366    0.1043 C   0  0  0  0  0  0  0  0  0  0  0  0
    0.4282    1.3124    0.0190 C   0  0  0  0  0  0  0  0  0  0  0  0
   -0.9710    1.1576    0.0994 C   0  0  0  0  0  0  0  0  0  0  0  0
   -1.3643   -0.1573    0.0771 C   0  0  0  0  0  0  0  0  0  0  0  0
   -2.7138   -0.6812    0.1425 C   0  0  0  0  0  0  0  0  0  0  0  0
   -2.9347   -2.0604    0.1013 C   0  0  0  0  0  0  0  0  0  0  0  0
   -4.2139   -2.5752    0.1632 C   0  0  0  0  0  0  0  0  0  0  0  0
   -5.3032   -1.7252    0.2677 C   0  0  0  0  0  0  0  0  0  0  0  0
   -5.1001   -0.3554    0.3097 C   0  0  0  0  0  0  0  0  0  0  0  0
   -3.8221    0.1643    0.2481 C   0  0  0  0  0  0  0  0  0  0  0  0
   -0.0021   -1.2459   -0.0453 S   0  0  0  0  0  0  0  0  0  0  0  0
    1.0875    0.0868   -0.0649 C   0  0  0  0  0  0  0  0  0  0  0  0
    4.7822   -3.0534   -1.2990 H   0  0  0  0  0  0  0  0  0  0  0  0
    4.8710   -3.1275    0.4723 H   0  0  0  0  0  0  0  0  0  0  0  0
    6.1673   -2.3003   -0.4477 H   0  0  0  0  0  0  0  0  0  0  0  0
    4.2590    1.2264   -0.2180 H   0  0  0  0  0  0  0  0  0  0  0  0
    1.1913    4.5232    0.0865 H   0  0  0  0  0  0  0  0  0  0  0  0
   -0.1297    3.7945    1.0345 H   0  0  0  0  0  0  0  0  0  0  0  0
   -0.2378    3.8578   -0.7439 H   0  0  0  0  0  0  0  0  0  0  0  0
   -1.6544    1.9822    0.1700 H   0  0  0  0  0  0  0  0  0  0  0  0
   -2.0879   -2.7260    0.0198 H   0  0  0  0  0  0  0  0  0  0  0  0
   -4.3635   -3.6441    0.1299 H   0  0  0  0  0  0  0  0  0  0  0  0
   -6.3041   -2.1270    0.3164 H   0  0  0  0  0  0  0  0  0  0  0  0
   -5.9446    0.3130    0.3912 H   0  0  0  0  0  0  0  0  0  0  0  0
   -3.6857    1.2336    0.2827 H   0  0  0  0  0  0  0  0  0  0  0  0
  1  2  1  0  0  0  0
  2  3  1  0  0  0  0
  3  4  2  0  0  0  0
  3  5  1  0  0  0  0
  5  6  2  0  0  0  0
  6  7  1  0  0  0  0
  7  8  2  0  0  0  0
  7  9  1  0  0  0  0
  9 10  1  0  0  0  0
  9 11  1  0  0  0  0
 11 12  1  0  0  0  0
 12 13  2  0  0  0  0
 13 14  1  0  0  0  0
 14 15  2  0  0  0  0
 15 16  1  0  0  0  0
 16 17  2  0  0  0  0
 17 18  1  0  0  0  0
 18 19  2  0  0  0  0
 13 20  1  0  0  0  0
 20 21  1  0  0  0  0
 21  5  1  0  0  0  0
 21 11  2  0  0  0  0
 19 14  1  0  0  0  0
  1 22  1  0  0  0  0
  1 23  1  0  0  0  0
  1 24  1  0  0  0  0
  6 25  1  0  0  0  0
 10 26  1  0  0  0  0
 10 27  1  0  0  0  0
 10 28  1  0  0  0  0
 12 29  1  0  0  0  0
 15 30  1  0  0  0  0
 16 31  1  0  0  0  0
 17 32  1  0  0  0  0
 18 33  1  0  0  0  0
 19 34  1  0  0  0  0
M  END
