
  xtb     03022214153D
 energy: -69.386616739154 gnorm: 0.000211894680 xtb: 6.4.1 (afa7bdf)
 46 49  0     0  0            999 V2000
   -3.9261    4.3257    1.5593 C   0  0  0  0  0  0  0  0  0  0  0  0
   -2.8481    3.3577    1.1754 C   0  0  0  0  0  0  0  0  0  0  0  0
   -3.0827    2.3572    0.2404 C   0  0  0  0  0  0  0  0  0  0  0  0
   -2.0956    1.4520   -0.0983 C   0  0  0  0  0  0  0  0  0  0  0  0
   -0.8404    1.5221    0.5010 C   0  0  0  0  0  0  0  0  0  0  0  0
    0.2301    0.5982    0.1551 C   0  0  0  0  0  0  0  0  0  0  0  0
    1.5240    1.0109    0.1673 N   0  0  0  0  0  0  0  0  0  0  0  0
    2.2585   -0.0009   -0.2402 C   0  0  0  0  0  0  0  0  0  0  0  0
    3.6989    0.0282   -0.3722 C   0  0  0  0  0  0  0  0  0  0  0  0
    4.4403   -1.0763   -0.7906 C   0  0  0  0  0  0  0  0  0  0  0  0
    5.8163   -0.9829   -0.8946 C   0  0  0  0  0  0  0  0  0  0  0  0
    6.4732    0.1934   -0.5893 C   0  0  0  0  0  0  0  0  0  0  0  0
    5.7399    1.3020   -0.1712 C   0  0  0  0  0  0  0  0  0  0  0  0
    6.4123    2.4463    0.1215 O   0  0  0  0  0  0  0  0  0  0  0  0
    4.3617    1.2159   -0.0645 C   0  0  0  0  0  0  0  0  0  0  0  0
    1.4695   -1.0752   -0.5240 N   0  0  0  0  0  0  0  0  0  0  0  0
    0.1693   -0.7251   -0.2680 C   0  0  0  0  0  0  0  0  0  0  0  0
   -0.9197   -1.6748   -0.3987 C   0  0  0  0  0  0  0  0  0  0  0  0
   -0.9066   -2.6387   -1.4077 C   0  0  0  0  0  0  0  0  0  0  0  0
   -1.9360   -3.5516   -1.5214 C   0  0  0  0  0  0  0  0  0  0  0  0
   -3.0057   -3.5380   -0.6338 C   0  0  0  0  0  0  0  0  0  0  0  0
   -4.1083   -4.5445   -0.7566 C   0  0  0  0  0  0  0  0  0  0  0  0
   -3.0130   -2.5824    0.3757 C   0  0  0  0  0  0  0  0  0  0  0  0
   -1.9888   -1.6654    0.4973 C   0  0  0  0  0  0  0  0  0  0  0  0
   -0.5963    2.5359    1.4255 C   0  0  0  0  0  0  0  0  0  0  0  0
   -1.5881    3.4355    1.7585 C   0  0  0  0  0  0  0  0  0  0  0  0
   -3.5189    5.3271    1.6843 H   0  0  0  0  0  0  0  0  0  0  0  0
   -4.7098    4.3550    0.8060 H   0  0  0  0  0  0  0  0  0  0  0  0
   -4.3764    4.0280    2.5071 H   0  0  0  0  0  0  0  0  0  0  0  0
   -4.0513    2.2895   -0.2353 H   0  0  0  0  0  0  0  0  0  0  0  0
   -2.2942    0.6936   -0.8415 H   0  0  0  0  0  0  0  0  0  0  0  0
    3.9546   -2.0095   -1.0348 H   0  0  0  0  0  0  0  0  0  0  0  0
    6.3871   -1.8407   -1.2185 H   0  0  0  0  0  0  0  0  0  0  0  0
    7.5452    0.2755   -0.6673 H   0  0  0  0  0  0  0  0  0  0  0  0
    5.7853    3.1281    0.3928 H   0  0  0  0  0  0  0  0  0  0  0  0
    3.7710    2.0618    0.2556 H   0  0  0  0  0  0  0  0  0  0  0  0
    1.7728   -1.9866   -0.8236 H   0  0  0  0  0  0  0  0  0  0  0  0
   -0.0979   -2.6570   -2.1256 H   0  0  0  0  0  0  0  0  0  0  0  0
   -1.9128   -4.2859   -2.3145 H   0  0  0  0  0  0  0  0  0  0  0  0
   -4.3730   -4.7018   -1.8004 H   0  0  0  0  0  0  0  0  0  0  0  0
   -3.7875   -5.5026   -0.3458 H   0  0  0  0  0  0  0  0  0  0  0  0
   -4.9925   -4.2211   -0.2130 H   0  0  0  0  0  0  0  0  0  0  0  0
   -3.8327   -2.5584    1.0796 H   0  0  0  0  0  0  0  0  0  0  0  0
   -2.0051   -0.9357    1.2928 H   0  0  0  0  0  0  0  0  0  0  0  0
    0.3829    2.6013    1.8742 H   0  0  0  0  0  0  0  0  0  0  0  0
   -1.3857    4.2139    2.4812 H   0  0  0  0  0  0  0  0  0  0  0  0
  1  2  1  0  0  0  0
  2  3  2  0  0  0  0
  3  4  1  0  0  0  0
  4  5  2  0  0  0  0
  5  6  1  0  0  0  0
  6  7  1  0  0  0  0
  7  8  2  0  0  0  0
  8  9  1  0  0  0  0
  9 10  2  0  0  0  0
 10 11  1  0  0  0  0
 11 12  2  0  0  0  0
 12 13  1  0  0  0  0
 13 14  1  0  0  0  0
 13 15  2  0  0  0  0
  8 16  1  0  0  0  0
 16 17  1  0  0  0  0
 17 18  1  0  0  0  0
 18 19  2  0  0  0  0
 19 20  1  0  0  0  0
 20 21  2  0  0  0  0
 21 22  1  0  0  0  0
 21 23  1  0  0  0  0
 23 24  2  0  0  0  0
  5 25  1  0  0  0  0
 25 26  2  0  0  0  0
 26  2  1  0  0  0  0
 17  6  2  0  0  0  0
 24 18  1  0  0  0  0
 15  9  1  0  0  0  0
  1 27  1  0  0  0  0
  1 28  1  0  0  0  0
  1 29  1  0  0  0  0
  3 30  1  0  0  0  0
  4 31  1  0  0  0  0
 10 32  1  0  0  0  0
 11 33  1  0  0  0  0
 12 34  1  0  0  0  0
 14 35  1  0  0  0  0
 15 36  1  0  0  0  0
 16 37  1  0  0  0  0
 19 38  1  0  0  0  0
 20 39  1  0  0  0  0
 22 40  1  0  0  0  0
 22 41  1  0  0  0  0
 22 42  1  0  0  0  0
 23 43  1  0  0  0  0
 24 44  1  0  0  0  0
 25 45  1  0  0  0  0
 26 46  1  0  0  0  0
M  END
