
  xtb     03022214433D
 energy: -76.222626625304 gnorm: 0.000165400482 xtb: 6.4.1 (afa7bdf)
 37 40  0     0  0            999 V2000
   -0.8203   -3.3417    1.4321 F   0  0  0  0  0  0  0  0  0  0  0  0
   -0.7338   -2.7323    0.2035 B   0  0  0  0  0  4  0  0  0  0  0  0
   -0.9518   -3.6385   -0.8011 F   0  0  0  0  0  0  0  0  0  0  0  0
    0.5762   -2.1045    0.0438 O   0  0  0  0  0  0  0  0  0  0  0  0
    0.7361   -0.8151   -0.0485 C   0  0  0  0  0  0  0  0  0  0  0  0
    2.1413   -0.3734   -0.1332 C   0  0  0  0  0  0  0  0  0  0  0  0
    2.5103    0.8146   -0.7618 C   0  0  0  0  0  0  0  0  0  0  0  0
    3.8381    1.1931   -0.8194 C   0  0  0  0  0  0  0  0  0  0  0  0
    4.8086    0.3833   -0.2453 C   0  0  0  0  0  0  0  0  0  0  0  0
    6.2611    0.7659   -0.2966 C   0  0  0  0  0  0  0  0  0  0  0  0
    6.8394    0.7248    0.9169 F   0  0  0  0  0  0  0  0  0  0  0  0
    6.4684    2.0011   -0.7734 F   0  0  0  0  0  0  0  0  0  0  0  0
    6.9763   -0.0660   -1.0768 F   0  0  0  0  0  0  0  0  0  0  0  0
    4.4574   -0.8123    0.3712 C   0  0  0  0  0  0  0  0  0  0  0  0
    3.1303   -1.1874    0.4211 C   0  0  0  0  0  0  0  0  0  0  0  0
   -0.3015    0.0832   -0.0454 C   0  0  0  0  0  0  0  0  0  0  0  0
   -1.6521   -0.3372    0.0347 C   0  0  0  0  0  0  0  0  0  0  0  0
   -2.7568    0.5829    0.0054 C   0  0  0  0  0  0  0  0  0  0  0  0
   -2.5969    1.9773   -0.0927 C   0  0  0  0  0  0  0  0  0  0  0  0
   -3.6857    2.8105   -0.1212 C   0  0  0  0  0  0  0  0  0  0  0  0
   -4.9829    2.2908   -0.0535 C   0  0  0  0  0  0  0  0  0  0  0  0
   -5.1732    0.9385    0.0441 C   0  0  0  0  0  0  0  0  0  0  0  0
   -4.0741    0.0618    0.0756 C   0  0  0  0  0  0  0  0  0  0  0  0
   -4.2432   -1.3419    0.1758 C   0  0  0  0  0  0  0  0  0  0  0  0
   -3.1501   -2.1444    0.2025 C   0  0  0  0  0  0  0  0  0  0  0  0
   -1.8952   -1.6509    0.1331 N   0  0  0  0  0  4  0  0  0  0  0  0
    1.7661    1.4361   -1.2337 H   0  0  0  0  0  0  0  0  0  0  0  0
    4.1229    2.1112   -1.3098 H   0  0  0  0  0  0  0  0  0  0  0  0
    5.2224   -1.4378    0.8052 H   0  0  0  0  0  0  0  0  0  0  0  0
    2.8372   -2.1126    0.8913 H   0  0  0  0  0  0  0  0  0  0  0  0
   -0.0795    1.1322   -0.0870 H   0  0  0  0  0  0  0  0  0  0  0  0
   -1.6102    2.4073   -0.1449 H   0  0  0  0  0  0  0  0  0  0  0  0
   -3.5438    3.8779   -0.1964 H   0  0  0  0  0  0  0  0  0  0  0  0
   -5.8286    2.9612   -0.0784 H   0  0  0  0  0  0  0  0  0  0  0  0
   -6.1679    0.5220    0.0980 H   0  0  0  0  0  0  0  0  0  0  0  0
   -5.2344   -1.7606    0.2315 H   0  0  0  0  0  0  0  0  0  0  0  0
   -3.2096   -3.2184    0.2794 H   0  0  0  0  0  0  0  0  0  0  0  0
  1  2  1  0  0  0  0
  2  3  1  0  0  0  0
  2  4  1  0  0  0  0
  4  5  1  0  0  0  0
  5  6  1  0  0  0  0
  6  7  2  0  0  0  0
  7  8  1  0  0  0  0
  8  9  2  0  0  0  0
  9 10  1  0  0  0  0
 10 11  1  0  0  0  0
 10 12  1  0  0  0  0
 10 13  1  0  0  0  0
  9 14  1  0  0  0  0
 14 15  2  0  0  0  0
  5 16  2  0  0  0  0
 16 17  1  0  0  0  0
 17 18  2  0  0  0  0
 18 19  1  0  0  0  0
 19 20  2  0  0  0  0
 20 21  1  0  0  0  0
 21 22  2  0  0  0  0
 22 23  1  0  0  0  0
 23 24  2  0  0  0  0
 24 25  1  0  0  0  0
 25 26  2  0  0  0  0
 26  2  1  0  0  0  0
 15  6  1  0  0  0  0
 26 17  1  0  0  0  0
 23 18  1  0  0  0  0
  7 27  1  0  0  0  0
  8 28  1  0  0  0  0
 14 29  1  0  0  0  0
 15 30  1  0  0  0  0
 16 31  1  0  0  0  0
 19 32  1  0  0  0  0
 20 33  1  0  0  0  0
 21 34  1  0  0  0  0
 22 35  1  0  0  0  0
 24 36  1  0  0  0  0
 25 37  1  0  0  0  0
M  CHG  1   2  -1
M  CHG  1  26   1
M  END
