
  xtb     03022214323D
 energy: -102.892721595307 gnorm: 0.000199012954 xtb: 6.4.1 (afa7bdf)
 68 72  0     0  0            999 V2000
    3.1478   -0.1879   -0.2695 C   0  0  0  0  0  0  0  0  0  0  0  0
    2.7213    0.0008    0.8461 C   0  0  0  0  0  0  0  0  0  0  0  0
    2.1261    0.2483    2.0999 C   0  0  0  0  0  0  0  0  0  0  0  0
    0.8980    0.9142    2.1493 C   0  0  0  0  0  0  0  0  0  0  0  0
    0.3129    1.1924    3.3681 C   0  0  0  0  0  0  0  0  0  0  0  0
    0.9298    0.7986    4.5449 C   0  0  0  0  0  0  0  0  0  0  0  0
    2.1401    0.1246    4.5003 C   0  0  0  0  0  0  0  0  0  0  0  0
    2.7426   -0.1478    3.2876 C   0  0  0  0  0  0  0  0  0  0  0  0
    3.6487   -0.3085   -1.5847 C   0  0  0  0  0  0  0  0  0  0  0  0
    5.0512   -0.3922   -1.7088 C   0  0  0  0  0  0  0  0  0  0  0  0
    6.2538   -0.4650   -1.8031 C   0  0  0  0  0  0  0  0  0  0  0  0
    7.6558   -0.5479   -1.9253 C   0  0  0  0  0  0  0  0  0  0  0  0
    8.2468   -0.6765   -3.1843 C   0  0  0  0  0  0  0  0  0  0  0  0
    9.6208   -0.7535   -3.2975 C   0  0  0  0  0  0  0  0  0  0  0  0
   10.4190   -0.7039   -2.1651 C   0  0  0  0  0  0  0  0  0  0  0  0
    9.8374   -0.5769   -0.9131 C   0  0  0  0  0  0  0  0  0  0  0  0
    8.4645   -0.4990   -0.7876 C   0  0  0  0  0  0  0  0  0  0  0  0
    2.8451   -0.2578   -2.6798 C   0  0  0  0  0  0  0  0  0  0  0  0
    1.4037   -0.1858   -2.6281 C   0  0  0  0  0  0  0  0  0  0  0  0
    0.6714   -0.8383   -1.6299 C   0  0  0  0  0  0  0  0  0  0  0  0
   -0.6896   -0.6824   -1.5321 C   0  0  0  0  0  0  0  0  0  0  0  0
   -1.3876    0.1452   -2.4206 C   0  0  0  0  0  0  0  0  0  0  0  0
   -2.7937    0.4246   -2.2930 C   0  0  0  0  0  0  0  0  0  0  0  0
   -3.5614    0.3019   -1.1757 C   0  0  0  0  0  0  0  0  0  0  0  0
   -3.0975   -0.1173    0.0889 C   0  0  0  0  0  0  0  0  0  0  0  0
   -2.7616   -0.4414    1.2051 C   0  0  0  0  0  0  0  0  0  0  0  0
   -2.2635   -0.8697    2.4529 C   0  0  0  0  0  0  0  0  0  0  0  0
   -2.9293   -0.5431    3.6356 C   0  0  0  0  0  0  0  0  0  0  0  0
   -2.4248   -0.9645    4.8501 C   0  0  0  0  0  0  0  0  0  0  0  0
   -1.2619   -1.7170    4.9010 C   0  0  0  0  0  0  0  0  0  0  0  0
   -0.5991   -2.0478    3.7298 C   0  0  0  0  0  0  0  0  0  0  0  0
   -1.0896   -1.6258    2.5109 C   0  0  0  0  0  0  0  0  0  0  0  0
   -4.9308    0.6434   -1.2159 C   0  0  0  0  0  0  0  0  0  0  0  0
   -6.1076    0.9184   -1.2327 C   0  0  0  0  0  0  0  0  0  0  0  0
   -7.4797    1.2391   -1.2701 C   0  0  0  0  0  0  0  0  0  0  0  0
   -8.2589    1.1275   -0.1162 C   0  0  0  0  0  0  0  0  0  0  0  0
   -9.6034    1.4388   -0.1585 C   0  0  0  0  0  0  0  0  0  0  0  0
  -10.1860    1.8627   -1.3429 C   0  0  0  0  0  0  0  0  0  0  0  0
   -9.4173    1.9757   -2.4909 C   0  0  0  0  0  0  0  0  0  0  0  0
   -8.0717    1.6672   -2.4607 C   0  0  0  0  0  0  0  0  0  0  0  0
   -0.6667    0.7161   -3.4798 C   0  0  0  0  0  0  0  0  0  0  0  0
    0.6946    0.5491   -3.5856 C   0  0  0  0  0  0  0  0  0  0  0  0
    0.4188    1.2095    1.2267 H   0  0  0  0  0  0  0  0  0  0  0  0
   -0.6326    1.7136    3.4020 H   0  0  0  0  0  0  0  0  0  0  0  0
    0.4665    1.0155    5.4958 H   0  0  0  0  0  0  0  0  0  0  0  0
    2.6185   -0.1862    5.4180 H   0  0  0  0  0  0  0  0  0  0  0  0
    3.6898   -0.6667    3.2472 H   0  0  0  0  0  0  0  0  0  0  0  0
    7.6193   -0.7145   -4.0631 H   0  0  0  0  0  0  0  0  0  0  0  0
   10.0743   -0.8525   -4.2732 H   0  0  0  0  0  0  0  0  0  0  0  0
   11.4933   -0.7640   -2.2584 H   0  0  0  0  0  0  0  0  0  0  0  0
   10.4600   -0.5380   -0.0309 H   0  0  0  0  0  0  0  0  0  0  0  0
    8.0041   -0.3989    0.1847 H   0  0  0  0  0  0  0  0  0  0  0  0
    3.3123   -0.2143   -3.6555 H   0  0  0  0  0  0  0  0  0  0  0  0
    1.1824   -1.4926   -0.9406 H   0  0  0  0  0  0  0  0  0  0  0  0
   -1.2321   -1.2155   -0.7690 H   0  0  0  0  0  0  0  0  0  0  0  0
   -3.2790    0.8297   -3.1731 H   0  0  0  0  0  0  0  0  0  0  0  0
   -3.8361    0.0428    3.5891 H   0  0  0  0  0  0  0  0  0  0  0  0
   -2.9411   -0.7064    5.7636 H   0  0  0  0  0  0  0  0  0  0  0  0
   -0.8724   -2.0459    5.8531 H   0  0  0  0  0  0  0  0  0  0  0  0
    0.3087   -2.6318    3.7690 H   0  0  0  0  0  0  0  0  0  0  0  0
   -0.5707   -1.8754    1.5969 H   0  0  0  0  0  0  0  0  0  0  0  0
   -7.7980    0.7954    0.8029 H   0  0  0  0  0  0  0  0  0  0  0  0
  -10.2031    1.3506    0.7360 H   0  0  0  0  0  0  0  0  0  0  0  0
  -11.2382    2.1044   -1.3713 H   0  0  0  0  0  0  0  0  0  0  0  0
   -9.8715    2.3059   -3.4139 H   0  0  0  0  0  0  0  0  0  0  0  0
   -7.4673    1.7527   -3.3522 H   0  0  0  0  0  0  0  0  0  0  0  0
   -1.1901    1.3192   -4.2090 H   0  0  0  0  0  0  0  0  0  0  0  0
    1.2340    1.0215   -4.3950 H   0  0  0  0  0  0  0  0  0  0  0  0
  1  2  3  0  0  0  0
  2  3  1  0  0  0  0
  3  4  2  0  0  0  0
  4  5  1  0  0  0  0
  5  6  2  0  0  0  0
  6  7  1  0  0  0  0
  7  8  2  0  0  0  0
  1  9  1  0  0  0  0
  9 10  1  0  0  0  0
 10 11  3  0  0  0  0
 11 12  1  0  0  0  0
 12 13  2  0  0  0  0
 13 14  1  0  0  0  0
 14 15  2  0  0  0  0
 15 16  1  0  0  0  0
 16 17  2  0  0  0  0
  9 18  2  0  0  0  0
 18 19  1  0  0  0  0
 19 20  2  0  0  0  0
 20 21  1  0  0  0  0
 21 22  2  0  0  0  0
 22 23  1  0  0  0  0
 23 24  2  0  0  0  0
 24 25  1  0  0  0  0
 25 26  3  0  0  0  0
 26 27  1  0  0  0  0
 27 28  2  0  0  0  0
 28 29  1  0  0  0  0
 29 30  2  0  0  0  0
 30 31  1  0  0  0  0
 31 32  2  0  0  0  0
 24 33  1  0  0  0  0
 33 34  3  0  0  0  0
 34 35  1  0  0  0  0
 35 36  2  0  0  0  0
 36 37  1  0  0  0  0
 37 38  2  0  0  0  0
 38 39  1  0  0  0  0
 39 40  2  0  0  0  0
 22 41  1  0  0  0  0
 41 42  2  0  0  0  0
  8  3  1  0  0  0  0
 17 12  1  0  0  0  0
 42 19  1  0  0  0  0
 32 27  1  0  0  0  0
 40 35  1  0  0  0  0
  4 43  1  0  0  0  0
  5 44  1  0  0  0  0
  6 45  1  0  0  0  0
  7 46  1  0  0  0  0
  8 47  1  0  0  0  0
 13 48  1  0  0  0  0
 14 49  1  0  0  0  0
 15 50  1  0  0  0  0
 16 51  1  0  0  0  0
 17 52  1  0  0  0  0
 18 53  1  0  0  0  0
 20 54  1  0  0  0  0
 21 55  1  0  0  0  0
 23 56  1  0  0  0  0
 28 57  1  0  0  0  0
 29 58  1  0  0  0  0
 30 59  1  0  0  0  0
 31 60  1  0  0  0  0
 32 61  1  0  0  0  0
 36 62  1  0  0  0  0
 37 63  1  0  0  0  0
 38 64  1  0  0  0  0
 39 65  1  0  0  0  0
 40 66  1  0  0  0  0
 41 67  1  0  0  0  0
 42 68  1  0  0  0  0
M  END
