
  xtb     03022212093D
 energy: -137.492134911526 gnorm: 0.000061524977 xtb: 6.4.1 (afa7bdf)
100107  0     0  0            999 V2000
    5.7710   -1.4843    2.2856 C   0  0  0  0  0  0  0  0  0  0  0  0
    5.2081   -2.5404    1.3829 C   0  0  0  0  0  0  0  0  0  0  0  0
    5.3776   -3.8807    1.6994 C   0  0  0  0  0  0  0  0  0  0  0  0
    4.8273   -4.8862    0.9247 C   0  0  0  0  0  0  0  0  0  0  0  0
    4.0803   -4.5570   -0.1932 C   0  0  0  0  0  0  0  0  0  0  0  0
    3.9110   -3.2315   -0.5385 C   0  0  0  0  0  0  0  0  0  0  0  0
    4.4756   -2.2160    0.2315 C   0  0  0  0  0  0  0  0  0  0  0  0
    4.2755   -0.8768   -0.1479 N   0  0  0  0  0  0  0  0  0  0  0  0
    5.3722   -0.0238   -0.2890 C   0  0  0  0  0  0  0  0  0  0  0  0
    6.6442   -0.5153   -0.5756 C   0  0  0  0  0  0  0  0  0  0  0  0
    7.7155    0.3462   -0.6922 C   0  0  0  0  0  0  0  0  0  0  0  0
    7.5724    1.7232   -0.5404 C   0  0  0  0  0  0  0  0  0  0  0  0
    8.7875    2.6254   -0.6841 C   0  0  0  0  0  0  0  0  0  0  0  0
    9.8274    2.2362    0.3761 C   0  0  0  0  0  0  0  0  0  0  0  0
    8.4475    4.1065   -0.4980 C   0  0  0  0  0  0  0  0  0  0  0  0
    9.3842    2.4456   -2.0873 C   0  0  0  0  0  0  0  0  0  0  0  0
    6.2974    2.2026   -0.2601 C   0  0  0  0  0  0  0  0  0  0  0  0
    5.2176    1.3517   -0.1317 C   0  0  0  0  0  0  0  0  0  0  0  0
    3.0468   -0.4964   -0.7066 C   0  0  0  0  0  0  0  0  0  0  0  0
    3.0365    0.1862   -1.9233 C   0  0  0  0  0  0  0  0  0  0  0  0
    1.8567    0.5717   -2.5151 C   0  0  0  0  0  0  0  0  0  0  0  0
    0.6282    0.2741   -1.9205 C   0  0  0  0  0  0  0  0  0  0  0  0
   -0.6049    0.6611   -2.5100 C   0  0  0  0  0  0  0  0  0  0  0  0
   -1.7908    0.3545   -1.9337 C   0  0  0  0  0  0  0  0  0  0  0  0
   -1.8524   -0.3667   -0.7071 C   0  0  0  0  0  0  0  0  0  0  0  0
   -3.0713   -0.7085   -0.0841 C   0  0  0  0  0  0  0  0  0  0  0  0
   -4.3016   -0.4131   -0.6886 N   0  0  0  0  0  0  0  0  0  0  0  0
   -5.3733   -0.0267    0.1193 C   0  0  0  0  0  0  0  0  0  0  0  0
   -5.1728    0.8564    1.1777 C   0  0  0  0  0  0  0  0  0  0  0  0
   -6.2275    1.2518    1.9765 C   0  0  0  0  0  0  0  0  0  0  0  0
   -7.5215    0.7947    1.7520 C   0  0  0  0  0  0  0  0  0  0  0  0
   -8.7101    1.2101    2.6040 C   0  0  0  0  0  0  0  0  0  0  0  0
   -9.3374   -0.0405    3.2364 C   0  0  0  0  0  0  0  0  0  0  0  0
   -8.3205    2.1690    3.7321 C   0  0  0  0  0  0  0  0  0  0  0  0
   -9.7425    1.9146    1.7123 C   0  0  0  0  0  0  0  0  0  0  0  0
   -7.7104   -0.0851    0.6890 C   0  0  0  0  0  0  0  0  0  0  0  0
   -6.6649   -0.4960   -0.1118 C   0  0  0  0  0  0  0  0  0  0  0  0
   -4.5370   -0.8274   -2.0116 C   0  0  0  0  0  0  0  0  0  0  0  0
   -4.0177   -2.0465   -2.4439 C   0  0  0  0  0  0  0  0  0  0  0  0
   -4.2225   -2.4827   -3.7373 C   0  0  0  0  0  0  0  0  0  0  0  0
   -4.9602   -1.7077   -4.6155 C   0  0  0  0  0  0  0  0  0  0  0  0
   -5.4655   -0.4906   -4.1943 C   0  0  0  0  0  0  0  0  0  0  0  0
   -5.2596   -0.0222   -2.9045 C   0  0  0  0  0  0  0  0  0  0  0  0
   -5.7737    1.3299   -2.5115 C   0  0  0  0  0  0  0  0  0  0  0  0
   -3.0601   -1.3485    1.1556 C   0  0  0  0  0  0  0  0  0  0  0  0
   -1.8789   -1.6669    1.7835 C   0  0  0  0  0  0  0  0  0  0  0  0
   -0.6505   -1.3728    1.1869 C   0  0  0  0  0  0  0  0  0  0  0  0
    0.5840   -1.6901    1.8139 C   0  0  0  0  0  0  0  0  0  0  0  0
    1.7692   -1.4150    1.2207 C   0  0  0  0  0  0  0  0  0  0  0  0
    1.8289   -0.7903   -0.0577 C   0  0  0  0  0  0  0  0  0  0  0  0
    0.6102   -0.4183   -0.6848 C   0  0  0  0  0  0  0  0  0  0  0  0
   -0.6333   -0.7233   -0.0717 C   0  0  0  0  0  0  0  0  0  0  0  0
    5.8906   -1.8780    3.2928 H   0  0  0  0  0  0  0  0  0  0  0  0
    5.1186   -0.6136    2.3216 H   0  0  0  0  0  0  0  0  0  0  0  0
    6.7471   -1.1493    1.9324 H   0  0  0  0  0  0  0  0  0  0  0  0
    5.9426   -4.1380    2.5844 H   0  0  0  0  0  0  0  0  0  0  0  0
    4.9726   -5.9203    1.1988 H   0  0  0  0  0  0  0  0  0  0  0  0
    3.6372   -5.3313   -0.8015 H   0  0  0  0  0  0  0  0  0  0  0  0
    3.3373   -2.9647   -1.4145 H   0  0  0  0  0  0  0  0  0  0  0  0
    6.7860   -1.5774   -0.7169 H   0  0  0  0  0  0  0  0  0  0  0  0
    8.6839   -0.0757   -0.9167 H   0  0  0  0  0  0  0  0  0  0  0  0
    9.4052    2.3436    1.3733 H   0  0  0  0  0  0  0  0  0  0  0  0
   10.1521    1.2067    0.2528 H   0  0  0  0  0  0  0  0  0  0  0  0
   10.7010    2.8804    0.2998 H   0  0  0  0  0  0  0  0  0  0  0  0
    7.7272    4.4389   -1.2420 H   0  0  0  0  0  0  0  0  0  0  0  0
    9.3502    4.7031   -0.6144 H   0  0  0  0  0  0  0  0  0  0  0  0
    8.0470    4.2947    0.4955 H   0  0  0  0  0  0  0  0  0  0  0  0
    9.7061    1.4214   -2.2534 H   0  0  0  0  0  0  0  0  0  0  0  0
   10.2457    3.0979   -2.2151 H   0  0  0  0  0  0  0  0  0  0  0  0
    8.6449    2.6975   -2.8448 H   0  0  0  0  0  0  0  0  0  0  0  0
    6.1242    3.2582   -0.1287 H   0  0  0  0  0  0  0  0  0  0  0  0
    4.2394    1.7521    0.0933 H   0  0  0  0  0  0  0  0  0  0  0  0
    3.9790    0.4018   -2.4063 H   0  0  0  0  0  0  0  0  0  0  0  0
    1.8728    1.0950   -3.4602 H   0  0  0  0  0  0  0  0  0  0  0  0
   -0.5745    1.2167   -3.4366 H   0  0  0  0  0  0  0  0  0  0  0  0
   -2.7086    0.6736   -2.4002 H   0  0  0  0  0  0  0  0  0  0  0  0
   -4.1788    1.2334    1.3716 H   0  0  0  0  0  0  0  0  0  0  0  0
   -6.0189    1.9368    2.7820 H   0  0  0  0  0  0  0  0  0  0  0  0
  -10.1800    0.2394    3.8653 H   0  0  0  0  0  0  0  0  0  0  0  0
   -8.6042   -0.5581    3.8515 H   0  0  0  0  0  0  0  0  0  0  0  0
   -9.6944   -0.7319    2.4782 H   0  0  0  0  0  0  0  0  0  0  0  0
   -9.2059    2.4289    4.3090 H   0  0  0  0  0  0  0  0  0  0  0  0
   -7.6034    1.7077    4.4073 H   0  0  0  0  0  0  0  0  0  0  0  0
   -7.8967    3.0888    3.3356 H   0  0  0  0  0  0  0  0  0  0  0  0
   -9.2993    2.7923    1.2461 H   0  0  0  0  0  0  0  0  0  0  0  0
  -10.1014    1.2560    0.9262 H   0  0  0  0  0  0  0  0  0  0  0  0
  -10.5967    2.2332    2.3062 H   0  0  0  0  0  0  0  0  0  0  0  0
   -8.6954   -0.4737    0.4768 H   0  0  0  0  0  0  0  0  0  0  0  0
   -6.8423   -1.1938   -0.9178 H   0  0  0  0  0  0  0  0  0  0  0  0
   -3.4510   -2.6485   -1.7483 H   0  0  0  0  0  0  0  0  0  0  0  0
   -3.8142   -3.4303   -4.0556 H   0  0  0  0  0  0  0  0  0  0  0  0
   -5.1331   -2.0436   -5.6268 H   0  0  0  0  0  0  0  0  0  0  0  0
   -6.0231    0.1239   -4.8872 H   0  0  0  0  0  0  0  0  0  0  0  0
   -5.8880    1.9573   -3.3930 H   0  0  0  0  0  0  0  0  0  0  0  0
   -6.7448    1.2503   -2.0213 H   0  0  0  0  0  0  0  0  0  0  0  0
   -5.0940    1.8186   -1.8156 H   0  0  0  0  0  0  0  0  0  0  0  0
   -4.0034   -1.6034    1.6174 H   0  0  0  0  0  0  0  0  0  0  0  0
   -1.8945   -2.1671    2.7411 H   0  0  0  0  0  0  0  0  0  0  0  0
    0.5554   -2.1566    2.7885 H   0  0  0  0  0  0  0  0  0  0  0  0
    2.6886   -1.6572    1.7287 H   0  0  0  0  0  0  0  0  0  0  0  0
  1  2  1  0  0  0  0
  2  3  2  0  0  0  0
  3  4  1  0  0  0  0
  4  5  2  0  0  0  0
  5  6  1  0  0  0  0
  6  7  2  0  0  0  0
  7  8  1  0  0  0  0
  8  9  1  0  0  0  0
  9 10  2  0  0  0  0
 10 11  1  0  0  0  0
 11 12  2  0  0  0  0
 12 13  1  0  0  0  0
 13 14  1  0  0  0  0
 13 15  1  0  0  0  0
 13 16  1  0  0  0  0
 12 17  1  0  0  0  0
 17 18  2  0  0  0  0
  8 19  1  0  0  0  0
 19 20  2  0  0  0  0
 20 21  1  0  0  0  0
 21 22  2  0  0  0  0
 22 23  1  0  0  0  0
 23 24  2  0  0  0  0
 24 25  1  0  0  0  0
 25 26  2  0  0  0  0
 26 27  1  0  0  0  0
 27 28  1  0  0  0  0
 28 29  2  0  0  0  0
 29 30  1  0  0  0  0
 30 31  2  0  0  0  0
 31 32  1  0  0  0  0
 32 33  1  0  0  0  0
 32 34  1  0  0  0  0
 32 35  1  0  0  0  0
 31 36  1  0  0  0  0
 36 37  2  0  0  0  0
 27 38  1  0  0  0  0
 38 39  2  0  0  0  0
 39 40  1  0  0  0  0
 40 41  2  0  0  0  0
 41 42  1  0  0  0  0
 42 43  2  0  0  0  0
 43 44  1  0  0  0  0
 26 45  1  0  0  0  0
 45 46  2  0  0  0  0
 46 47  1  0  0  0  0
 47 48  2  0  0  0  0
 48 49  1  0  0  0  0
 49 50  2  0  0  0  0
 50 51  1  0  0  0  0
 51 52  2  0  0  0  0
  7  2  1  0  0  0  0
 18  9  1  0  0  0  0
 50 19  1  0  0  0  0
 51 22  1  0  0  0  0
 52 25  1  0  0  0  0
 37 28  1  0  0  0  0
 43 38  1  0  0  0  0
 52 47  1  0  0  0  0
  1 53  1  0  0  0  0
  1 54  1  0  0  0  0
  1 55  1  0  0  0  0
  3 56  1  0  0  0  0
  4 57  1  0  0  0  0
  5 58  1  0  0  0  0
  6 59  1  0  0  0  0
 10 60  1  0  0  0  0
 11 61  1  0  0  0  0
 14 62  1  0  0  0  0
 14 63  1  0  0  0  0
 14 64  1  0  0  0  0
 15 65  1  0  0  0  0
 15 66  1  0  0  0  0
 15 67  1  0  0  0  0
 16 68  1  0  0  0  0
 16 69  1  0  0  0  0
 16 70  1  0  0  0  0
 17 71  1  0  0  0  0
 18 72  1  0  0  0  0
 20 73  1  0  0  0  0
 21 74  1  0  0  0  0
 23 75  1  0  0  0  0
 24 76  1  0  0  0  0
 29 77  1  0  0  0  0
 30 78  1  0  0  0  0
 33 79  1  0  0  0  0
 33 80  1  0  0  0  0
 33 81  1  0  0  0  0
 34 82  1  0  0  0  0
 34 83  1  0  0  0  0
 34 84  1  0  0  0  0
 35 85  1  0  0  0  0
 35 86  1  0  0  0  0
 35 87  1  0  0  0  0
 36 88  1  0  0  0  0
 37 89  1  0  0  0  0
 39 90  1  0  0  0  0
 40 91  1  0  0  0  0
 41 92  1  0  0  0  0
 42 93  1  0  0  0  0
 44 94  1  0  0  0  0
 44 95  1  0  0  0  0
 44 96  1  0  0  0  0
 45 97  1  0  0  0  0
 46 98  1  0  0  0  0
 48 99  1  0  0  0  0
 49100  1  0  0  0  0
M  END
