
  xtb     03022213593D
 energy: -99.643090917609 gnorm: 0.000156946428 xtb: 6.4.1 (afa7bdf)
 74 78  0     0  0            999 V2000
   -0.8950   -7.4304    1.0473 C   0  0  0  0  0  0  0  0  0  0  0  0
   -0.8989   -5.9085    0.9883 C   0  0  0  0  0  0  0  0  0  0  0  0
   -1.1625   -5.3983   -0.4347 C   0  0  0  0  0  0  0  0  0  0  0  0
   -1.1572   -3.9097   -0.4814 C   0  0  0  0  0  0  0  0  0  0  0  0
   -2.2333   -3.0781   -0.4604 C   0  0  0  0  0  0  0  0  0  0  0  0
   -1.7184   -1.7359   -0.4758 C   0  0  0  0  0  0  0  0  0  0  0  0
   -0.3753   -1.7556   -0.5012 N   0  0  0  0  0  0  0  0  0  0  0  0
    0.0162   -3.0455   -0.5055 C   0  0  0  0  0  0  0  0  0  0  0  0
    1.3374   -3.5100   -0.5406 C   0  0  0  0  0  0  0  0  0  0  0  0
    2.5440   -2.8387   -0.5561 C   0  0  0  0  0  0  0  0  0  0  0  0
    2.8103   -1.4660   -0.5418 C   0  0  0  0  0  0  0  0  0  0  0  0
    1.8679   -0.4926   -0.5264 N   0  0  0  0  0  0  0  0  0  0  0  0
    2.4516    0.7277   -0.5251 C   0  0  0  0  0  0  0  0  0  0  0  0
    3.8568    0.5278   -0.5387 C   0  0  0  0  0  0  0  0  0  0  0  0
    4.0917   -0.8237   -0.5525 C   0  0  0  0  0  0  0  0  0  0  0  0
    5.4184   -1.5021   -0.5281 C   0  0  0  0  0  0  0  0  0  0  0  0
    5.7866   -1.9459    0.8940 C   0  0  0  0  0  0  0  0  0  0  0  0
    7.1405   -2.6423    0.9310 C   0  0  0  0  0  0  0  0  0  0  0  0
    1.7238    1.9268   -0.5150 C   0  0  0  0  0  0  0  0  0  0  0  0
    0.3806    1.9496   -0.5083 N   0  0  0  0  0  0  0  0  0  0  0  0
   -0.0088    3.2409   -0.5049 C   0  0  0  0  0  0  0  0  0  0  0  0
   -1.3316    3.7016   -0.5075 C   0  0  0  0  0  0  0  0  0  0  0  0
   -2.5374    3.0293   -0.4925 C   0  0  0  0  0  0  0  0  0  0  0  0
   -2.8036    1.6567   -0.4723 C   0  0  0  0  0  0  0  0  0  0  0  0
   -1.8617    0.6831   -0.4836 N   0  0  0  0  0  0  0  0  0  0  0  0
   -2.4461   -0.5371   -0.4678 C   0  0  0  0  0  0  0  0  0  0  0  0
   -3.8512   -0.3363   -0.4432 C   0  0  0  0  0  0  0  0  0  0  0  0
   -4.0854    1.0153   -0.4484 C   0  0  0  0  0  0  0  0  0  0  0  0
   -5.4096    1.6959   -0.3837 C   0  0  0  0  0  0  0  0  0  0  0  0
   -5.7269    2.1510    1.0471 C   0  0  0  0  0  0  0  0  0  0  0  0
   -7.0745    2.8561    1.1257 C   0  0  0  0  0  0  0  0  0  0  0  0
    1.1668    4.1030   -0.5093 C   0  0  0  0  0  0  0  0  0  0  0  0
    1.2062    5.5929   -0.4705 C   0  0  0  0  0  0  0  0  0  0  0  0
    1.4465    6.1157    0.9538 C   0  0  0  0  0  0  0  0  0  0  0  0
    0.2920    5.7958    1.8942 C   0  0  0  0  0  0  0  0  0  0  0  0
    2.2410    3.2670   -0.5139 C   0  0  0  0  0  0  0  0  0  0  0  0
   -0.7121   -7.7727    2.0634 H   0  0  0  0  0  0  0  0  0  0  0  0
   -0.1177   -7.8369    0.4032 H   0  0  0  0  0  0  0  0  0  0  0  0
   -1.8529   -7.8281    0.7183 H   0  0  0  0  0  0  0  0  0  0  0  0
   -1.6723   -5.5167    1.6527 H   0  0  0  0  0  0  0  0  0  0  0  0
    0.0613   -5.5237    1.3390 H   0  0  0  0  0  0  0  0  0  0  0  0
   -2.1368   -5.7633   -0.7684 H   0  0  0  0  0  0  0  0  0  0  0  0
   -0.4033   -5.8023   -1.1097 H   0  0  0  0  0  0  0  0  0  0  0  0
   -3.2716   -3.3470   -0.4413 H   0  0  0  0  0  0  0  0  0  0  0  0
    1.4198   -4.5898   -0.5593 H   0  0  0  0  0  0  0  0  0  0  0  0
    3.4263   -3.4654   -0.5844 H   0  0  0  0  0  0  0  0  0  0  0  0
    0.8478   -0.7508   -0.5181 H   0  0  0  0  0  0  0  0  0  0  0  0
    4.5946    1.3065   -0.5432 H   0  0  0  0  0  0  0  0  0  0  0  0
    5.4068   -2.3748   -1.1854 H   0  0  0  0  0  0  0  0  0  0  0  0
    6.1820   -0.8128   -0.8949 H   0  0  0  0  0  0  0  0  0  0  0  0
    5.0148   -2.6196    1.2723 H   0  0  0  0  0  0  0  0  0  0  0  0
    5.8063   -1.0689    1.5444 H   0  0  0  0  0  0  0  0  0  0  0  0
    7.1329   -3.5287    0.2999 H   0  0  0  0  0  0  0  0  0  0  0  0
    7.9230   -1.9760    0.5739 H   0  0  0  0  0  0  0  0  0  0  0  0
    7.3858   -2.9462    1.9460 H   0  0  0  0  0  0  0  0  0  0  0  0
   -1.4181    4.7809   -0.5208 H   0  0  0  0  0  0  0  0  0  0  0  0
   -3.4203    3.6558   -0.4975 H   0  0  0  0  0  0  0  0  0  0  0  0
   -0.8416    0.9420   -0.5004 H   0  0  0  0  0  0  0  0  0  0  0  0
   -4.5891   -1.1147   -0.4284 H   0  0  0  0  0  0  0  0  0  0  0  0
   -6.1864    1.0055   -0.7188 H   0  0  0  0  0  0  0  0  0  0  0  0
   -5.4192    2.5638   -1.0475 H   0  0  0  0  0  0  0  0  0  0  0  0
   -5.7297    1.2781    1.7035 H   0  0  0  0  0  0  0  0  0  0  0  0
   -4.9388    2.8221    1.3948 H   0  0  0  0  0  0  0  0  0  0  0  0
   -7.2826    3.1683    2.1464 H   0  0  0  0  0  0  0  0  0  0  0  0
   -7.0830    3.7383    0.4887 H   0  0  0  0  0  0  0  0  0  0  0  0
   -7.8729    2.1926    0.8003 H   0  0  0  0  0  0  0  0  0  0  0  0
    2.0240    5.9384   -1.1088 H   0  0  0  0  0  0  0  0  0  0  0  0
    0.2776    6.0158   -0.8586 H   0  0  0  0  0  0  0  0  0  0  0  0
    1.5919    7.1979    0.9120 H   0  0  0  0  0  0  0  0  0  0  0  0
    2.3641    5.6686    1.3423 H   0  0  0  0  0  0  0  0  0  0  0  0
   -0.6267    6.2653    1.5481 H   0  0  0  0  0  0  0  0  0  0  0  0
    0.5059    6.1630    2.8956 H   0  0  0  0  0  0  0  0  0  0  0  0
    0.1295    4.7217    1.9485 H   0  0  0  0  0  0  0  0  0  0  0  0
    3.2802    3.5337   -0.5216 H   0  0  0  0  0  0  0  0  0  0  0  0
  1  2  1  0  0  0  0
  2  3  1  0  0  0  0
  3  4  1  0  0  0  0
  4  5  2  0  0  0  0
  5  6  1  0  0  0  0
  6  7  2  0  0  0  0
  7  8  1  0  0  0  0
  8  9  2  0  0  0  0
  9 10  1  0  0  0  0
 10 11  2  0  0  0  0
 11 12  1  0  0  0  0
 12 13  1  0  0  0  0
 13 14  1  0  0  0  0
 14 15  2  0  0  0  0
 15 16  1  0  0  0  0
 16 17  1  0  0  0  0
 17 18  1  0  0  0  0
 13 19  2  0  0  0  0
 19 20  1  0  0  0  0
 20 21  2  0  0  0  0
 21 22  1  0  0  0  0
 22 23  2  0  0  0  0
 23 24  1  0  0  0  0
 24 25  1  0  0  0  0
 25 26  1  0  0  0  0
 26 27  2  0  0  0  0
 27 28  1  0  0  0  0
 28 29  1  0  0  0  0
 29 30  1  0  0  0  0
 30 31  1  0  0  0  0
 21 32  1  0  0  0  0
 32 33  1  0  0  0  0
 33 34  1  0  0  0  0
 34 35  1  0  0  0  0
 32 36  2  0  0  0  0
  8  4  1  0  0  0  0
 15 11  1  0  0  0  0
 36 19  1  0  0  0  0
 26  6  1  0  0  0  0
 28 24  2  0  0  0  0
  1 37  1  0  0  0  0
  1 38  1  0  0  0  0
  1 39  1  0  0  0  0
  2 40  1  0  0  0  0
  2 41  1  0  0  0  0
  3 42  1  0  0  0  0
  3 43  1  0  0  0  0
  5 44  1  0  0  0  0
  9 45  1  0  0  0  0
 10 46  1  0  0  0  0
 12 47  1  0  0  0  0
 14 48  1  0  0  0  0
 16 49  1  0  0  0  0
 16 50  1  0  0  0  0
 17 51  1  0  0  0  0
 17 52  1  0  0  0  0
 18 53  1  0  0  0  0
 18 54  1  0  0  0  0
 18 55  1  0  0  0  0
 22 56  1  0  0  0  0
 23 57  1  0  0  0  0
 25 58  1  0  0  0  0
 27 59  1  0  0  0  0
 29 60  1  0  0  0  0
 29 61  1  0  0  0  0
 30 62  1  0  0  0  0
 30 63  1  0  0  0  0
 31 64  1  0  0  0  0
 31 65  1  0  0  0  0
 31 66  1  0  0  0  0
 33 67  1  0  0  0  0
 33 68  1  0  0  0  0
 34 69  1  0  0  0  0
 34 70  1  0  0  0  0
 35 71  1  0  0  0  0
 35 72  1  0  0  0  0
 35 73  1  0  0  0  0
 36 74  1  0  0  0  0
M  END
