
  xtb     03022212293D
 energy: -103.529003682904 gnorm: 0.000084775504 xtb: 6.4.1 (afa7bdf)
 64 72  0     0  0            999 V2000
    0.1278   -2.8407    2.8952 C   0  0  0  0  0  0  0  0  0  0  0  0
    1.2996   -2.4061    2.3025 C   0  0  0  0  0  0  0  0  0  0  0  0
    1.2612   -1.4319    1.3112 C   0  0  0  0  0  0  0  0  0  0  0  0
    2.4536   -0.9771    0.7339 N   0  0  0  0  0  0  0  0  0  0  0  0
    2.8359    0.3419    0.6015 C   0  0  0  0  0  0  0  0  0  0  0  0
    2.2729    1.4824    1.1565 C   0  0  0  0  0  0  0  0  0  0  0  0
    2.8577    2.6984    0.8592 C   0  0  0  0  0  0  0  0  0  0  0  0
    3.9895    2.7831    0.0509 C   0  0  0  0  0  0  0  0  0  0  0  0
    4.5787    1.6472   -0.4676 C   0  0  0  0  0  0  0  0  0  0  0  0
    4.0038    0.4137   -0.1908 C   0  0  0  0  0  0  0  0  0  0  0  0
    4.3356   -0.9368   -0.5502 C   0  0  0  0  0  0  0  0  0  0  0  0
    5.3527   -1.5032   -1.3070 C   0  0  0  0  0  0  0  0  0  0  0  0
    5.3688   -2.8737   -1.4738 C   0  0  0  0  0  0  0  0  0  0  0  0
    4.3802   -3.6761   -0.9087 C   0  0  0  0  0  0  0  0  0  0  0  0
    3.3580   -3.1357   -0.1518 C   0  0  0  0  0  0  0  0  0  0  0  0
    3.3491   -1.7619    0.0360 C   0  0  0  0  0  0  0  0  0  0  0  0
    0.0338   -0.8939    0.9064 C   0  0  0  0  0  0  0  0  0  0  0  0
   -0.0159    0.1385   -0.1234 C   0  0  0  0  0  0  0  0  0  0  0  0
   -0.7705    1.2430   -0.0135 N   0  0  0  0  0  0  0  0  0  0  0  0
   -0.5226    1.9137   -1.1283 C   0  0  0  0  0  0  0  0  0  0  0  0
   -0.9925    3.1337   -1.6214 C   0  0  0  0  0  0  0  0  0  0  0  0
   -0.5285    3.5647   -2.8343 C   0  0  0  0  0  0  0  0  0  0  0  0
    0.3995    2.7976   -3.5643 C   0  0  0  0  0  0  0  0  0  0  0  0
    0.8478    1.6058   -3.0755 C   0  0  0  0  0  0  0  0  0  0  0  0
    0.3843    1.1860   -1.8866 N   0  0  0  0  0  0  0  0  0  0  0  0
    0.6954    0.0689   -1.2458 N   0  0  0  0  0  0  0  0  0  0  0  0
   -1.1461   -1.3455    1.5093 C   0  0  0  0  0  0  0  0  0  0  0  0
   -2.3832   -0.8403    1.0942 N   0  0  0  0  0  0  0  0  0  0  0  0
   -2.8195   -0.7496   -0.2114 C   0  0  0  0  0  0  0  0  0  0  0  0
   -2.2685   -1.2913   -1.3639 C   0  0  0  0  0  0  0  0  0  0  0  0
   -2.9156   -1.0509   -2.5608 C   0  0  0  0  0  0  0  0  0  0  0  0
   -4.0954   -0.3118   -2.6143 C   0  0  0  0  0  0  0  0  0  0  0  0
   -4.6710    0.1909   -1.4644 C   0  0  0  0  0  0  0  0  0  0  0  0
   -4.0348   -0.0301   -0.2502 C   0  0  0  0  0  0  0  0  0  0  0  0
   -4.3391    0.3283    1.1070 C   0  0  0  0  0  0  0  0  0  0  0  0
   -5.3793    1.0309    1.7005 C   0  0  0  0  0  0  0  0  0  0  0  0
   -5.3573    1.2157    3.0686 C   0  0  0  0  0  0  0  0  0  0  0  0
   -4.3086    0.7226    3.8414 C   0  0  0  0  0  0  0  0  0  0  0  0
   -3.2621    0.0208    3.2737 C   0  0  0  0  0  0  0  0  0  0  0  0
   -3.2907   -0.1861    1.9029 C   0  0  0  0  0  0  0  0  0  0  0  0
   -1.0904   -2.3155    2.5046 C   0  0  0  0  0  0  0  0  0  0  0  0
    0.1645   -3.5949    3.6667 H   0  0  0  0  0  0  0  0  0  0  0  0
    2.2540   -2.8031    2.6133 H   0  0  0  0  0  0  0  0  0  0  0  0
    1.4019    1.4274    1.7924 H   0  0  0  0  0  0  0  0  0  0  0  0
    2.4284    3.6026    1.2654 H   0  0  0  0  0  0  0  0  0  0  0  0
    4.4146    3.7532   -0.1608 H   0  0  0  0  0  0  0  0  0  0  0  0
    5.4678    1.7122   -1.0770 H   0  0  0  0  0  0  0  0  0  0  0  0
    6.1125   -0.8806   -1.7555 H   0  0  0  0  0  0  0  0  0  0  0  0
    6.1533   -3.3344   -2.0559 H   0  0  0  0  0  0  0  0  0  0  0  0
    4.4124   -4.7440   -1.0677 H   0  0  0  0  0  0  0  0  0  0  0  0
    2.5876   -3.7630    0.2711 H   0  0  0  0  0  0  0  0  0  0  0  0
   -1.7017    3.6918   -1.0340 H   0  0  0  0  0  0  0  0  0  0  0  0
   -0.8712    4.5024   -3.2430 H   0  0  0  0  0  0  0  0  0  0  0  0
    0.7602    3.1514   -4.5161 H   0  0  0  0  0  0  0  0  0  0  0  0
    1.5576    0.9645   -3.5727 H   0  0  0  0  0  0  0  0  0  0  0  0
   -1.3614   -1.8769   -1.3322 H   0  0  0  0  0  0  0  0  0  0  0  0
   -2.4989   -1.4490   -3.4748 H   0  0  0  0  0  0  0  0  0  0  0  0
   -4.5686   -0.1429   -3.5704 H   0  0  0  0  0  0  0  0  0  0  0  0
   -5.5967    0.7452   -1.5043 H   0  0  0  0  0  0  0  0  0  0  0  0
   -6.1856    1.4252    1.1002 H   0  0  0  0  0  0  0  0  0  0  0  0
   -6.1585    1.7566    3.5503 H   0  0  0  0  0  0  0  0  0  0  0  0
   -4.3122    0.8949    4.9078 H   0  0  0  0  0  0  0  0  0  0  0  0
   -2.4455   -0.3446    3.8781 H   0  0  0  0  0  0  0  0  0  0  0  0
   -2.0088   -2.6633    2.9523 H   0  0  0  0  0  0  0  0  0  0  0  0
  1  2  2  0  0  0  0
  2  3  1  0  0  0  0
  3  4  1  0  0  0  0
  4  5  1  0  0  0  0
  5  6  2  0  0  0  0
  6  7  1  0  0  0  0
  7  8  2  0  0  0  0
  8  9  1  0  0  0  0
  9 10  2  0  0  0  0
 10 11  1  0  0  0  0
 11 12  2  0  0  0  0
 12 13  1  0  0  0  0
 13 14  2  0  0  0  0
 14 15  1  0  0  0  0
 15 16  2  0  0  0  0
  3 17  2  0  0  0  0
 17 18  1  0  0  0  0
 18 19  1  0  0  0  0
 19 20  2  0  0  0  0
 20 21  1  0  0  0  0
 21 22  2  0  0  0  0
 22 23  1  0  0  0  0
 23 24  2  0  0  0  0
 24 25  1  0  0  0  0
 25 26  1  0  0  0  0
 17 27  1  0  0  0  0
 27 28  1  0  0  0  0
 28 29  1  0  0  0  0
 29 30  2  0  0  0  0
 30 31  1  0  0  0  0
 31 32  2  0  0  0  0
 32 33  1  0  0  0  0
 33 34  2  0  0  0  0
 34 35  1  0  0  0  0
 35 36  2  0  0  0  0
 36 37  1  0  0  0  0
 37 38  2  0  0  0  0
 38 39  1  0  0  0  0
 39 40  2  0  0  0  0
 27 41  2  0  0  0  0
 41  1  1  0  0  0  0
 16  4  1  0  0  0  0
 26 18  2  0  0  0  0
 40 28  1  0  0  0  0
 10  5  1  0  0  0  0
 16 11  1  0  0  0  0
 25 20  1  0  0  0  0
 34 29  1  0  0  0  0
 40 35  1  0  0  0  0
  1 42  1  0  0  0  0
  2 43  1  0  0  0  0
  6 44  1  0  0  0  0
  7 45  1  0  0  0  0
  8 46  1  0  0  0  0
  9 47  1  0  0  0  0
 12 48  1  0  0  0  0
 13 49  1  0  0  0  0
 14 50  1  0  0  0  0
 15 51  1  0  0  0  0
 21 52  1  0  0  0  0
 22 53  1  0  0  0  0
 23 54  1  0  0  0  0
 24 55  1  0  0  0  0
 30 56  1  0  0  0  0
 31 57  1  0  0  0  0
 32 58  1  0  0  0  0
 33 59  1  0  0  0  0
 36 60  1  0  0  0  0
 37 61  1  0  0  0  0
 38 62  1  0  0  0  0
 39 63  1  0  0  0  0
 41 64  1  0  0  0  0
M  END
