
  xtb     03022214173D
 energy: -32.843509686822 gnorm: 0.000211314046 xtb: 6.4.1 (afa7bdf)
 18 19  0     0  0            999 V2000
    4.0761    0.5118    2.0621 O   0  0  0  0  0  0  0  0  0  0  0  0
    3.8676    0.1812    0.9189 C   0  0  0  0  0  0  0  0  0  0  0  0
    2.5740    0.0307    0.3060 C   0  0  0  0  0  0  0  0  0  0  0  0
    2.2895   -0.3438   -0.9909 C   0  0  0  0  0  0  0  0  0  0  0  0
    0.9246   -0.3921   -1.2624 C   0  0  0  0  0  0  0  0  0  0  0  0
    0.1454   -0.0541   -0.1729 C   0  0  0  0  0  0  0  0  0  0  0  0
   -1.2780   -0.0022   -0.1078 C   0  0  0  0  0  0  0  0  0  0  0  0
   -2.0684    0.3309    0.9644 C   0  0  0  0  0  0  0  0  0  0  0  0
   -3.4421    0.2772    0.6739 C   0  0  0  0  0  0  0  0  0  0  0  0
   -3.6930   -0.0943   -0.6106 C   0  0  0  0  0  0  0  0  0  0  0  0
   -2.2549   -0.3881   -1.4981 S   0  0  0  0  0  0  0  0  0  0  0  0
    1.1180    0.3290    1.2078 S   0  0  0  0  0  0  0  0  0  0  0  0
    4.7003   -0.0435    0.2212 H   0  0  0  0  0  0  0  0  0  0  0  0
    3.0547   -0.5730   -1.7113 H   0  0  0  0  0  0  0  0  0  0  0  0
    0.5029   -0.6620   -2.2145 H   0  0  0  0  0  0  0  0  0  0  0  0
   -1.6623    0.6029    1.9222 H   0  0  0  0  0  0  0  0  0  0  0  0
   -4.2130    0.5047    1.3878 H   0  0  0  0  0  0  0  0  0  0  0  0
   -4.6412   -0.2149   -1.0954 H   0  0  0  0  0  0  0  0  0  0  0  0
  1  2  2  0  0  0  0
  2  3  1  0  0  0  0
  3  4  2  0  0  0  0
  4  5  1  0  0  0  0
  5  6  2  0  0  0  0
  6  7  1  0  0  0  0
  7  8  2  0  0  0  0
  8  9  1  0  0  0  0
  9 10  2  0  0  0  0
 10 11  1  0  0  0  0
  6 12  1  0  0  0  0
 12  3  1  0  0  0  0
 11  7  1  0  0  0  0
  2 13  1  0  0  0  0
  4 14  1  0  0  0  0
  5 15  1  0  0  0  0
  8 16  1  0  0  0  0
  9 17  1  0  0  0  0
 10 18  1  0  0  0  0
M  END
