
  xtb     03022216003D
 energy: -115.637235849267 gnorm: 0.000129690852 xtb: 6.4.1 (afa7bdf)
 72 76  0     0  0            999 V2000
    9.1541    0.0121    1.5127 C   0  0  0  0  0  0  0  0  0  0  0  0
    7.9736    0.4140    2.1614 O   0  0  0  0  0  0  0  0  0  0  0  0
    6.7862    0.2549    1.5108 C   0  0  0  0  0  0  0  0  0  0  0  0
    5.6479    0.6691    2.2039 C   0  0  0  0  0  0  0  0  0  0  0  0
    4.3939    0.5548    1.6462 C   0  0  0  0  0  0  0  0  0  0  0  0
    4.2452    0.0171    0.3693 C   0  0  0  0  0  0  0  0  0  0  0  0
    3.0044   -0.1292   -0.2623 N   0  0  0  0  0  0  0  0  0  0  0  0
    1.7655    0.0996    0.2249 C   0  0  0  0  0  0  0  0  0  0  0  0
    1.5239    0.5194    1.3469 O   0  0  0  0  0  0  0  0  0  0  0  0
    0.6492   -0.2098   -0.7532 C   0  0  0  0  0  0  0  0  0  0  0  0
   -0.2223    1.0315   -1.0221 C   0  0  0  0  0  0  0  0  0  0  0  0
   -0.4799    1.3737   -2.1582 O   0  0  0  0  0  0  0  0  0  0  0  0
   -0.6610    1.6203    0.1088 N   0  0  0  0  0  0  0  0  0  0  0  0
   -1.7433    2.4851    0.2748 C   0  0  0  0  0  0  0  0  0  0  0  0
   -2.6246    2.7893   -0.7533 C   0  0  0  0  0  0  0  0  0  0  0  0
   -3.7464    3.5618   -0.5113 C   0  0  0  0  0  0  0  0  0  0  0  0
   -4.0012    4.0510    0.7632 C   0  0  0  0  0  0  0  0  0  0  0  0
   -5.0851    4.8064    1.1129 O   0  0  0  0  0  0  0  0  0  0  0  0
   -6.0513    5.0781    0.1297 C   0  0  0  0  0  0  0  0  0  0  0  0
   -3.1005    3.7670    1.7902 C   0  0  0  0  0  0  0  0  0  0  0  0
   -1.9893    2.9922    1.5499 C   0  0  0  0  0  0  0  0  0  0  0  0
   -0.2874   -1.2791   -0.1376 C   0  0  0  0  0  0  0  0  0  0  0  0
    0.1560   -2.7248   -0.2322 C   0  0  0  0  0  0  0  0  0  0  0  0
   -0.6202   -3.6210    0.5017 C   0  0  0  0  0  0  0  0  0  0  0  0
   -0.3756   -4.9787    0.5200 C   0  0  0  0  0  0  0  0  0  0  0  0
    0.6816   -5.4877   -0.2128 C   0  0  0  0  0  0  0  0  0  0  0  0
    1.4652   -4.6242   -0.9497 C   0  0  0  0  0  0  0  0  0  0  0  0
    1.2157   -3.2544   -0.9721 C   0  0  0  0  0  0  0  0  0  0  0  0
    2.0331   -2.4594   -1.7417 O   0  0  0  0  0  0  0  0  0  0  0  0
   -1.6738   -1.1262   -0.7060 C   0  0  0  0  0  0  0  0  0  0  0  0
   -2.0696   -1.3097   -2.0044 C   0  0  0  0  0  0  0  0  0  0  0  0
   -1.2921   -1.7434   -3.1937 C   0  0  0  0  0  0  0  0  0  0  0  0
   -3.3896   -0.9592   -2.1261 N   0  0  0  0  0  0  0  0  0  0  0  0
   -3.8625   -0.5201   -0.9231 C   0  0  0  0  0  0  0  0  0  0  0  0
   -5.1071   -0.0208   -0.5679 C   0  0  0  0  0  0  0  0  0  0  0  0
   -5.2867    0.3745    0.7406 C   0  0  0  0  0  0  0  0  0  0  0  0
   -4.2577    0.2641    1.6775 C   0  0  0  0  0  0  0  0  0  0  0  0
   -3.0225   -0.2344    1.3310 C   0  0  0  0  0  0  0  0  0  0  0  0
   -2.8054   -0.6269    0.0110 C   0  0  0  0  0  0  0  0  0  0  0  0
    5.3788   -0.3933   -0.3228 C   0  0  0  0  0  0  0  0  0  0  0  0
    6.6393   -0.2790    0.2356 C   0  0  0  0  0  0  0  0  0  0  0  0
    9.1479   -1.0607    1.2925 H   0  0  0  0  0  0  0  0  0  0  0  0
    9.3159    0.5724    0.5858 H   0  0  0  0  0  0  0  0  0  0  0  0
    9.9623    0.2302    2.2090 H   0  0  0  0  0  0  0  0  0  0  0  0
    5.7742    1.0831    3.1914 H   0  0  0  0  0  0  0  0  0  0  0  0
    3.5244    0.8760    2.1936 H   0  0  0  0  0  0  0  0  0  0  0  0
    3.0467   -0.5484   -1.1819 H   0  0  0  0  0  0  0  0  0  0  0  0
    1.0248   -0.5376   -1.7199 H   0  0  0  0  0  0  0  0  0  0  0  0
   -0.1834    1.3384    0.9636 H   0  0  0  0  0  0  0  0  0  0  0  0
   -2.4366    2.4101   -1.7437 H   0  0  0  0  0  0  0  0  0  0  0  0
   -4.4166    3.7675   -1.3308 H   0  0  0  0  0  0  0  0  0  0  0  0
   -5.6352    5.6686   -0.6936 H   0  0  0  0  0  0  0  0  0  0  0  0
   -6.4875    4.1565   -0.2700 H   0  0  0  0  0  0  0  0  0  0  0  0
   -6.8271    5.6570    0.6290 H   0  0  0  0  0  0  0  0  0  0  0  0
   -3.3037    4.1584    2.7743 H   0  0  0  0  0  0  0  0  0  0  0  0
   -1.3064    2.7624    2.3548 H   0  0  0  0  0  0  0  0  0  0  0  0
   -0.3585   -1.0492    0.9329 H   0  0  0  0  0  0  0  0  0  0  0  0
   -1.4475   -3.2231    1.0708 H   0  0  0  0  0  0  0  0  0  0  0  0
   -1.0032   -5.6346    1.1031 H   0  0  0  0  0  0  0  0  0  0  0  0
    0.8971   -6.5451   -0.2142 H   0  0  0  0  0  0  0  0  0  0  0  0
    2.2948   -5.0105   -1.5300 H   0  0  0  0  0  0  0  0  0  0  0  0
    2.6879   -3.0259   -2.1695 H   0  0  0  0  0  0  0  0  0  0  0  0
   -1.9413   -2.2231   -3.9243 H   0  0  0  0  0  0  0  0  0  0  0  0
   -0.5108   -2.4403   -2.9047 H   0  0  0  0  0  0  0  0  0  0  0  0
   -0.8274   -0.8733   -3.6599 H   0  0  0  0  0  0  0  0  0  0  0  0
   -3.9030   -0.9607   -2.9910 H   0  0  0  0  0  0  0  0  0  0  0  0
   -5.9020    0.0618   -1.2950 H   0  0  0  0  0  0  0  0  0  0  0  0
   -6.2394    0.7777    1.0510 H   0  0  0  0  0  0  0  0  0  0  0  0
   -4.4388    0.5848    2.6926 H   0  0  0  0  0  0  0  0  0  0  0  0
   -2.2373   -0.3109    2.0693 H   0  0  0  0  0  0  0  0  0  0  0  0
    5.2779   -0.8072   -1.3168 H   0  0  0  0  0  0  0  0  0  0  0  0
    7.4934   -0.6087   -0.3346 H   0  0  0  0  0  0  0  0  0  0  0  0
  1  2  1  0  0  0  0
  2  3  1  0  0  0  0
  3  4  2  0  0  0  0
  4  5  1  0  0  0  0
  5  6  2  0  0  0  0
  6  7  1  0  0  0  0
  7  8  1  0  0  0  0
  8  9  2  0  0  0  0
  8 10  1  0  0  0  0
 10 11  1  0  0  0  0
 11 12  2  0  0  0  0
 11 13  1  0  0  0  0
 13 14  1  0  0  0  0
 14 15  2  0  0  0  0
 15 16  1  0  0  0  0
 16 17  2  0  0  0  0
 17 18  1  0  0  0  0
 18 19  1  0  0  0  0
 17 20  1  0  0  0  0
 20 21  2  0  0  0  0
 10 22  1  0  0  0  0
 22 23  1  0  0  0  0
 23 24  2  0  0  0  0
 24 25  1  0  0  0  0
 25 26  2  0  0  0  0
 26 27  1  0  0  0  0
 27 28  2  0  0  0  0
 28 29  1  0  0  0  0
 22 30  1  0  0  0  0
 30 31  2  0  0  0  0
 31 32  1  0  0  0  0
 31 33  1  0  0  0  0
 33 34  1  0  0  0  0
 34 35  2  0  0  0  0
 35 36  1  0  0  0  0
 36 37  2  0  0  0  0
 37 38  1  0  0  0  0
 38 39  2  0  0  0  0
  6 40  1  0  0  0  0
 40 41  2  0  0  0  0
 41  3  1  0  0  0  0
 21 14  1  0  0  0  0
 28 23  1  0  0  0  0
 39 30  1  0  0  0  0
 39 34  1  0  0  0  0
  1 42  1  0  0  0  0
  1 43  1  0  0  0  0
  1 44  1  0  0  0  0
  4 45  1  0  0  0  0
  5 46  1  0  0  0  0
  7 47  1  0  0  0  0
 10 48  1  0  0  0  0
 13 49  1  0  0  0  0
 15 50  1  0  0  0  0
 16 51  1  0  0  0  0
 19 52  1  0  0  0  0
 19 53  1  0  0  0  0
 19 54  1  0  0  0  0
 20 55  1  0  0  0  0
 21 56  1  0  0  0  0
 22 57  1  0  0  0  0
 24 58  1  0  0  0  0
 25 59  1  0  0  0  0
 26 60  1  0  0  0  0
 27 61  1  0  0  0  0
 29 62  1  0  0  0  0
 32 63  1  0  0  0  0
 32 64  1  0  0  0  0
 32 65  1  0  0  0  0
 33 66  1  0  0  0  0
 35 67  1  0  0  0  0
 36 68  1  0  0  0  0
 37 69  1  0  0  0  0
 38 70  1  0  0  0  0
 40 71  1  0  0  0  0
 41 72  1  0  0  0  0
M  END
