
  xtb     03022214553D
 energy: -155.714383432371 gnorm: 0.000171859947 xtb: 6.4.1 (afa7bdf)
101105  0     0  0            999 V2000
   -9.0239   -2.8990    3.2907 C   0  0  0  0  0  0  0  0  0  0  0  0
   -8.6318   -3.2830    1.9975 O   0  0  0  0  0  0  0  0  0  0  0  0
   -7.2669   -3.0798    1.7101 C   0  0  0  0  0  0  0  0  0  0  0  0
   -6.8965   -1.6083    1.5001 C   0  0  0  0  0  0  0  0  0  0  0  0
   -5.4956   -1.4298    1.0245 C   0  0  0  0  0  0  0  0  0  0  0  0
   -4.5206   -2.3602    0.8464 C   0  0  0  0  0  0  0  0  0  0  0  0
   -3.3572   -1.6523    0.3787 C   0  0  0  0  0  0  0  0  0  0  0  0
   -3.6214   -0.3409    0.2761 N   0  0  0  0  0  0  0  0  0  0  0  0
   -4.8985   -0.1480    0.6564 C   0  0  0  0  0  0  0  0  0  0  0  0
   -5.5713    1.0785    0.7014 C   0  0  0  0  0  0  0  0  0  0  0  0
   -5.1587    2.3586    0.3842 C   0  0  0  0  0  0  0  0  0  0  0  0
   -3.9233    2.8182   -0.0782 C   0  0  0  0  0  0  0  0  0  0  0  0
   -2.8406    2.0362   -0.3125 N   0  0  0  0  0  0  0  0  0  0  0  0
   -1.8111    2.7801   -0.7729 C   0  0  0  0  0  0  0  0  0  0  0  0
   -2.2547    4.1275   -0.8355 C   0  0  0  0  0  0  0  0  0  0  0  0
   -3.5588    4.1644   -0.4109 C   0  0  0  0  0  0  0  0  0  0  0  0
   -4.4025    5.3861   -0.2821 C   0  0  0  0  0  0  0  0  0  0  0  0
   -4.4073    5.9221    1.1658 C   0  0  0  0  0  0  0  0  0  0  0  0
   -5.1972    5.1687    2.0530 O   0  0  0  0  0  0  0  0  0  0  0  0
   -6.5652    5.4867    2.0279 C   0  0  0  0  0  0  0  0  0  0  0  0
   -0.5570    2.2526   -1.1198 C   0  0  0  0  0  0  0  0  0  0  0  0
   -0.2390    0.9561   -0.9698 N   0  0  0  0  0  0  0  0  0  0  0  0
    1.0339    0.7969   -1.3891 C   0  0  0  0  0  0  0  0  0  0  0  0
    1.7207   -0.4288   -1.2912 C   0  0  0  0  0  0  0  0  0  0  0  0
    3.1005   -0.4052   -1.6064 O   0  0  0  0  0  0  0  0  0  0  0  0
    3.9313    0.0412   -0.6609 C   0  0  0  0  0  0  0  0  0  0  0  0
    3.5977    0.4545    0.4153 O   0  0  0  0  0  0  0  0  0  0  0  0
    5.3737   -0.0238   -1.1382 C   0  0  0  0  0  0  0  0  0  0  0  0
    6.2711    0.4664   -0.1272 N   0  0  0  0  0  0  0  0  0  0  0  0
    7.1728   -0.3731    0.4610 C   0  0  0  0  0  0  0  0  0  0  0  0
    7.4672   -1.4544    0.0128 O   0  0  0  0  0  0  0  0  0  0  0  0
    7.6884    0.2198    1.5445 O   0  0  0  0  0  0  0  0  0  0  0  0
    8.7443   -0.4199    2.3029 C   0  0  0  0  0  0  0  0  0  0  0  0
    9.0465    0.5744    3.4247 C   0  0  0  0  0  0  0  0  0  0  0  0
    8.2515   -1.7463    2.8805 C   0  0  0  0  0  0  0  0  0  0  0  0
    9.9763   -0.6275    1.4228 C   0  0  0  0  0  0  0  0  0  0  0  0
    1.2946   -1.6942   -0.9319 C   0  0  0  0  0  0  0  0  0  0  0  0
    0.0419   -2.1696   -0.5414 C   0  0  0  0  0  0  0  0  0  0  0  0
   -1.0599   -1.4083   -0.3457 N   0  0  0  0  0  0  0  0  0  0  0  0
   -2.0947   -2.1770    0.0690 C   0  0  0  0  0  0  0  0  0  0  0  0
   -1.6324   -3.5172    0.1314 C   0  0  0  0  0  0  0  0  0  0  0  0
   -0.3106   -3.5255   -0.2372 C   0  0  0  0  0  0  0  0  0  0  0  0
    0.5803   -4.7115   -0.3556 C   0  0  0  0  0  0  0  0  0  0  0  0
    0.7034   -5.1488   -1.8296 C   0  0  0  0  0  0  0  0  0  0  0  0
    1.6854   -6.1287   -2.0519 O   0  0  0  0  0  0  0  0  0  0  0  0
    1.3586   -7.4102   -1.5755 C   0  0  0  0  0  0  0  0  0  0  0  0
    1.5487    2.0681   -1.8896 C   0  0  0  0  0  0  0  0  0  0  0  0
    2.8733    2.3295   -2.5302 C   0  0  0  0  0  0  0  0  0  0  0  0
    2.8298    3.3494   -3.6821 C   0  0  0  0  0  0  0  0  0  0  0  0
    2.4799    2.7810   -4.9215 O   0  0  0  0  0  0  0  0  0  0  0  0
    1.1448    2.3538   -5.0184 C   0  0  0  0  0  0  0  0  0  0  0  0
    0.5473    2.9701   -1.6846 C   0  0  0  0  0  0  0  0  0  0  0  0
  -10.0465   -3.2502    3.4170 H   0  0  0  0  0  0  0  0  0  0  0  0
   -9.0023   -1.8115    3.4250 H   0  0  0  0  0  0  0  0  0  0  0  0
   -8.3842   -3.3619    4.0526 H   0  0  0  0  0  0  0  0  0  0  0  0
   -7.0906   -3.6349    0.7850 H   0  0  0  0  0  0  0  0  0  0  0  0
   -6.6444   -3.5105    2.5090 H   0  0  0  0  0  0  0  0  0  0  0  0
   -7.5915   -1.1816    0.7700 H   0  0  0  0  0  0  0  0  0  0  0  0
   -7.0244   -1.0589    2.4388 H   0  0  0  0  0  0  0  0  0  0  0  0
   -4.5691   -3.4178    1.0116 H   0  0  0  0  0  0  0  0  0  0  0  0
   -6.5962    1.0023    1.0430 H   0  0  0  0  0  0  0  0  0  0  0  0
   -5.9008    3.1317    0.5200 H   0  0  0  0  0  0  0  0  0  0  0  0
   -2.8980    1.0007   -0.1365 H   0  0  0  0  0  0  0  0  0  0  0  0
   -1.6649    4.9621   -1.1610 H   0  0  0  0  0  0  0  0  0  0  0  0
   -5.4277    5.1805   -0.5950 H   0  0  0  0  0  0  0  0  0  0  0  0
   -3.9980    6.1672   -0.9279 H   0  0  0  0  0  0  0  0  0  0  0  0
   -4.7418    6.9698    1.1636 H   0  0  0  0  0  0  0  0  0  0  0  0
   -3.3908    5.8788    1.5664 H   0  0  0  0  0  0  0  0  0  0  0  0
   -7.0431    4.8441    2.7647 H   0  0  0  0  0  0  0  0  0  0  0  0
   -6.7320    6.5370    2.2995 H   0  0  0  0  0  0  0  0  0  0  0  0
   -7.0202    5.3076    1.0461 H   0  0  0  0  0  0  0  0  0  0  0  0
    5.6467   -1.0617   -1.3560 H   0  0  0  0  0  0  0  0  0  0  0  0
    5.4704    0.5579   -2.0622 H   0  0  0  0  0  0  0  0  0  0  0  0
    5.9387    1.2351    0.4375 H   0  0  0  0  0  0  0  0  0  0  0  0
    9.3646    1.5246    3.0041 H   0  0  0  0  0  0  0  0  0  0  0  0
    8.1543    0.7431    4.0217 H   0  0  0  0  0  0  0  0  0  0  0  0
    9.8342    0.1863    4.0632 H   0  0  0  0  0  0  0  0  0  0  0  0
    8.0327   -2.4456    2.0784 H   0  0  0  0  0  0  0  0  0  0  0  0
    9.0164   -2.1725    3.5236 H   0  0  0  0  0  0  0  0  0  0  0  0
    7.3473   -1.5857    3.4638 H   0  0  0  0  0  0  0  0  0  0  0  0
    9.7509   -1.3257    0.6216 H   0  0  0  0  0  0  0  0  0  0  0  0
   10.7907   -1.0261    2.0212 H   0  0  0  0  0  0  0  0  0  0  0  0
   10.2876    0.3195    0.9871 H   0  0  0  0  0  0  0  0  0  0  0  0
    2.0767   -2.4423   -0.9653 H   0  0  0  0  0  0  0  0  0  0  0  0
   -0.9999   -0.3727   -0.5062 H   0  0  0  0  0  0  0  0  0  0  0  0
   -2.2224   -4.3627    0.4266 H   0  0  0  0  0  0  0  0  0  0  0  0
    1.5802   -4.4819    0.0180 H   0  0  0  0  0  0  0  0  0  0  0  0
    0.1692   -5.5310    0.2362 H   0  0  0  0  0  0  0  0  0  0  0  0
    1.0106   -4.2938   -2.4376 H   0  0  0  0  0  0  0  0  0  0  0  0
   -0.2773   -5.4990   -2.1868 H   0  0  0  0  0  0  0  0  0  0  0  0
    2.1272   -8.0818   -1.9534 H   0  0  0  0  0  0  0  0  0  0  0  0
    1.3541   -7.4538   -0.4807 H   0  0  0  0  0  0  0  0  0  0  0  0
    0.3785   -7.7326   -1.9483 H   0  0  0  0  0  0  0  0  0  0  0  0
    3.2822    1.4067   -2.9449 H   0  0  0  0  0  0  0  0  0  0  0  0
    3.5672    2.7012   -1.7689 H   0  0  0  0  0  0  0  0  0  0  0  0
    2.1550    4.1817   -3.4413 H   0  0  0  0  0  0  0  0  0  0  0  0
    3.8341    3.7504   -3.8430 H   0  0  0  0  0  0  0  0  0  0  0  0
    0.9968    2.0508   -6.0535 H   0  0  0  0  0  0  0  0  0  0  0  0
    0.9367    1.5032   -4.3600 H   0  0  0  0  0  0  0  0  0  0  0  0
    0.4487    3.1650   -4.7718 H   0  0  0  0  0  0  0  0  0  0  0  0
    0.5463    4.0193   -1.9037 H   0  0  0  0  0  0  0  0  0  0  0  0
  1  2  1  0  0  0  0
  2  3  1  0  0  0  0
  3  4  1  0  0  0  0
  4  5  1  0  0  0  0
  5  6  2  0  0  0  0
  6  7  1  0  0  0  0
  7  8  2  0  0  0  0
  8  9  1  0  0  0  0
  9 10  2  0  0  0  0
 10 11  1  0  0  0  0
 11 12  2  0  0  0  0
 12 13  1  0  0  0  0
 13 14  1  0  0  0  0
 14 15  1  0  0  0  0
 15 16  2  0  0  0  0
 16 17  1  0  0  0  0
 17 18  1  0  0  0  0
 18 19  1  0  0  0  0
 19 20  1  0  0  0  0
 14 21  2  0  0  0  0
 21 22  1  0  0  0  0
 22 23  2  0  0  0  0
 23 24  1  0  0  0  0
 24 25  1  0  0  0  0
 25 26  1  0  0  0  0
 26 27  2  0  0  0  0
 26 28  1  0  0  0  0
 28 29  1  0  0  0  0
 29 30  1  0  0  0  0
 30 31  2  0  0  0  0
 30 32  1  0  0  0  0
 32 33  1  0  0  0  0
 33 34  1  0  0  0  0
 33 35  1  0  0  0  0
 33 36  1  0  0  0  0
 24 37  2  0  0  0  0
 37 38  1  0  0  0  0
 38 39  1  0  0  0  0
 39 40  1  0  0  0  0
 40 41  2  0  0  0  0
 41 42  1  0  0  0  0
 42 43  1  0  0  0  0
 43 44  1  0  0  0  0
 44 45  1  0  0  0  0
 45 46  1  0  0  0  0
 23 47  1  0  0  0  0
 47 48  1  0  0  0  0
 48 49  1  0  0  0  0
 49 50  1  0  0  0  0
 50 51  1  0  0  0  0
 47 52  2  0  0  0  0
  9  5  1  0  0  0  0
 16 12  1  0  0  0  0
 52 21  1  0  0  0  0
 40  7  1  0  0  0  0
 42 38  2  0  0  0  0
  1 53  1  0  0  0  0
  1 54  1  0  0  0  0
  1 55  1  0  0  0  0
  3 56  1  0  0  0  0
  3 57  1  0  0  0  0
  4 58  1  0  0  0  0
  4 59  1  0  0  0  0
  6 60  1  0  0  0  0
 10 61  1  0  0  0  0
 11 62  1  0  0  0  0
 13 63  1  0  0  0  0
 15 64  1  0  0  0  0
 17 65  1  0  0  0  0
 17 66  1  0  0  0  0
 18 67  1  0  0  0  0
 18 68  1  0  0  0  0
 20 69  1  0  0  0  0
 20 70  1  0  0  0  0
 20 71  1  0  0  0  0
 28 72  1  0  0  0  0
 28 73  1  0  0  0  0
 29 74  1  0  0  0  0
 34 75  1  0  0  0  0
 34 76  1  0  0  0  0
 34 77  1  0  0  0  0
 35 78  1  0  0  0  0
 35 79  1  0  0  0  0
 35 80  1  0  0  0  0
 36 81  1  0  0  0  0
 36 82  1  0  0  0  0
 36 83  1  0  0  0  0
 37 84  1  0  0  0  0
 39 85  1  0  0  0  0
 41 86  1  0  0  0  0
 43 87  1  0  0  0  0
 43 88  1  0  0  0  0
 44 89  1  0  0  0  0
 44 90  1  0  0  0  0
 46 91  1  0  0  0  0
 46 92  1  0  0  0  0
 46 93  1  0  0  0  0
 48 94  1  0  0  0  0
 48 95  1  0  0  0  0
 49 96  1  0  0  0  0
 49 97  1  0  0  0  0
 51 98  1  0  0  0  0
 51 99  1  0  0  0  0
 51100  1  0  0  0  0
 52101  1  0  0  0  0
M  END
