
  xtb     03022215053D
 energy: -73.499879227577 gnorm: 0.000310670995 xtb: 6.4.1 (afa7bdf)
 35 37  0     0  0            999 V2000
   -0.0995   -2.6809   -1.4051 C   0  0  0  0  0  0  0  0  0  0  0  0
   -0.0383   -1.4204   -0.6942 N   0  0  0  0  0  0  0  0  0  0  0  0
    1.1622   -0.7558   -0.5899 C   0  0  0  0  0  0  0  0  0  0  0  0
    2.3806   -1.4058   -0.8574 C   0  0  0  0  0  0  0  0  0  0  0  0
    3.5731   -0.7226   -0.7765 C   0  0  0  0  0  0  0  0  0  0  0  0
    3.5796    0.6197   -0.4340 C   0  0  0  0  0  0  0  0  0  0  0  0
    5.1391    1.4586   -0.3133 S   0  0  0  0  0  6  0  0  0  0  0  0
    6.1288    0.7156   -1.0197 O   0  0  0  0  0  0  0  0  0  0  0  0
    4.9892    2.8579   -0.5650 O   0  0  0  0  0  0  0  0  0  0  0  0
    5.4187    1.2979    1.2726 O   0  0  0  0  0  0  0  0  0  0  0  0
    2.4149    1.2779   -0.1416 C   0  0  0  0  0  0  0  0  0  0  0  0
    1.1959    0.5993   -0.2037 C   0  0  0  0  0  0  0  0  0  0  0  0
   -0.0330    1.3217    0.1515 C   0  0  0  0  0  0  0  0  0  0  0  0
   -0.0622    2.5194    0.3638 O   0  0  0  0  0  0  0  0  0  0  0  0
   -1.2182    0.4602    0.2608 C   0  0  0  0  0  0  0  0  0  0  0  0
   -2.3926    1.0004    0.7891 C   0  0  0  0  0  0  0  0  0  0  0  0
   -3.5106    0.2191    0.9114 C   0  0  0  0  0  0  0  0  0  0  0  0
   -5.0201    0.9105    1.5391 S   0  0  0  0  0  6  0  0  0  0  0  0
   -5.8961   -0.1440    1.9273 O   0  0  0  0  0  0  0  0  0  0  0  0
   -4.7501    1.9800    2.4489 O   0  0  0  0  0  0  0  0  0  0  0  0
   -5.6037    1.5826    0.1886 O   0  0  0  0  0  0  0  0  0  0  0  0
   -3.4925   -1.1142    0.5359 C   0  0  0  0  0  0  0  0  0  0  0  0
   -2.3446   -1.6659    0.0127 C   0  0  0  0  0  0  0  0  0  0  0  0
   -1.1854   -0.8866   -0.1536 C   0  0  0  0  0  0  0  0  0  0  0  0
   -1.0735   -2.7821   -1.8795 H   0  0  0  0  0  0  0  0  0  0  0  0
    0.0681   -3.5322   -0.7410 H   0  0  0  0  0  0  0  0  0  0  0  0
    0.6498   -2.6879   -2.1942 H   0  0  0  0  0  0  0  0  0  0  0  0
    2.4021   -2.4556   -1.0971 H   0  0  0  0  0  0  0  0  0  0  0  0
    4.5163   -1.2044   -0.9762 H   0  0  0  0  0  0  0  0  0  0  0  0
    5.3821    2.1585    1.6936 H   0  0  0  0  0  0  0  0  0  0  0  0
    2.4168    2.3225    0.1285 H   0  0  0  0  0  0  0  0  0  0  0  0
   -2.3949    2.0310    1.1080 H   0  0  0  0  0  0  0  0  0  0  0  0
   -5.5727    2.5378    0.2664 H   0  0  0  0  0  0  0  0  0  0  0  0
   -4.3869   -1.6983    0.6795 H   0  0  0  0  0  0  0  0  0  0  0  0
   -2.3427   -2.7139   -0.2357 H   0  0  0  0  0  0  0  0  0  0  0  0
  1  2  1  0  0  0  0
  2  3  1  0  0  0  0
  3  4  2  0  0  0  0
  4  5  1  0  0  0  0
  5  6  2  0  0  0  0
  6  7  1  0  0  0  0
  7  8  2  0  0  0  0
  7  9  2  0  0  0  0
  7 10  1  0  0  0  0
  6 11  1  0  0  0  0
 11 12  2  0  0  0  0
 12 13  1  0  0  0  0
 13 14  2  0  0  0  0
 13 15  1  0  0  0  0
 15 16  2  0  0  0  0
 16 17  1  0  0  0  0
 17 18  1  0  0  0  0
 18 19  2  0  0  0  0
 18 20  2  0  0  0  0
 18 21  1  0  0  0  0
 17 22  2  0  0  0  0
 22 23  1  0  0  0  0
 23 24  2  0  0  0  0
 24  2  1  0  0  0  0
 12  3  1  0  0  0  0
 24 15  1  0  0  0  0
  1 25  1  0  0  0  0
  1 26  1  0  0  0  0
  1 27  1  0  0  0  0
  4 28  1  0  0  0  0
  5 29  1  0  0  0  0
 10 30  1  0  0  0  0
 11 31  1  0  0  0  0
 16 32  1  0  0  0  0
 21 33  1  0  0  0  0
 22 34  1  0  0  0  0
 23 35  1  0  0  0  0
M  END
