
  xtb     03022214043D
 energy: -70.926603339605 gnorm: 0.000155447968 xtb: 6.4.1 (afa7bdf)
 45 49  0     0  0            999 V2000
   -0.7600   -3.8334    0.1103 C   0  0  0  0  0  0  0  0  0  0  0  0
   -1.1846   -2.4654    0.0420 N   0  0  0  0  0  0  0  0  0  0  0  0
   -0.4164   -1.4123   -0.3363 C   0  0  0  0  0  0  0  0  0  0  0  0
   -1.1409   -0.2424   -0.2978 C   0  0  0  0  0  0  0  0  0  0  0  0
   -0.7076    1.0931   -0.6335 C   0  0  0  0  0  0  0  0  0  0  0  0
   -1.6357    1.9670   -0.9550 N   0  0  0  0  0  0  0  0  0  0  0  0
   -1.2646    3.2094   -1.3174 C   0  0  0  0  0  0  0  0  0  0  0  0
   -2.2406    4.1622   -1.6667 C   0  0  0  0  0  0  0  0  0  0  0  0
   -1.8555    5.4100   -2.0741 C   0  0  0  0  0  0  0  0  0  0  0  0
   -0.4959    5.7572   -2.1480 C   0  0  0  0  0  0  0  0  0  0  0  0
    0.4758    4.8573   -1.8058 C   0  0  0  0  0  0  0  0  0  0  0  0
    0.1105    3.5679   -1.3754 C   0  0  0  0  0  0  0  0  0  0  0  0
    1.0581    2.6928   -0.9894 N   0  0  0  0  0  0  0  0  0  0  0  0
    0.6789    1.4943   -0.6086 C   0  0  0  0  0  0  0  0  0  0  0  0
    1.6815    0.6312   -0.1212 C   0  0  0  0  0  0  0  0  0  0  0  0
    2.5674   -0.0626    0.3216 C   0  0  0  0  0  0  0  0  0  0  0  0
    3.5393   -0.9473    0.8321 C   0  0  0  0  0  0  0  0  0  0  0  0
    4.8963   -0.7271    0.5882 C   0  0  0  0  0  0  0  0  0  0  0  0
    5.8372   -1.6066    1.0867 C   0  0  0  0  0  0  0  0  0  0  0  0
    5.4408   -2.7072    1.8307 C   0  0  0  0  0  0  0  0  0  0  0  0
    4.0946   -2.9289    2.0776 C   0  0  0  0  0  0  0  0  0  0  0  0
    3.1443   -2.0577    1.5829 C   0  0  0  0  0  0  0  0  0  0  0  0
   -2.4631   -0.6103    0.1275 C   0  0  0  0  0  0  0  0  0  0  0  0
   -3.6345    0.1042    0.3633 C   0  0  0  0  0  0  0  0  0  0  0  0
   -4.7470   -0.5853    0.7930 C   0  0  0  0  0  0  0  0  0  0  0  0
   -4.7153   -1.9670    0.9963 C   0  0  0  0  0  0  0  0  0  0  0  0
   -3.5669   -2.6974    0.7760 C   0  0  0  0  0  0  0  0  0  0  0  0
   -2.4428   -2.0074    0.3400 C   0  0  0  0  0  0  0  0  0  0  0  0
    0.2877   -3.9016   -0.1780 H   0  0  0  0  0  0  0  0  0  0  0  0
   -0.8742   -4.2192    1.1268 H   0  0  0  0  0  0  0  0  0  0  0  0
   -1.3544   -4.4547   -0.5644 H   0  0  0  0  0  0  0  0  0  0  0  0
    0.5990   -1.5680   -0.6452 H   0  0  0  0  0  0  0  0  0  0  0  0
   -3.2796    3.8754   -1.6126 H   0  0  0  0  0  0  0  0  0  0  0  0
   -2.6003    6.1434   -2.3475 H   0  0  0  0  0  0  0  0  0  0  0  0
   -0.2236    6.7493   -2.4775 H   0  0  0  0  0  0  0  0  0  0  0  0
    1.5255    5.1035   -1.8499 H   0  0  0  0  0  0  0  0  0  0  0  0
    5.1957    0.1328    0.0077 H   0  0  0  0  0  0  0  0  0  0  0  0
    6.8865   -1.4345    0.8961 H   0  0  0  0  0  0  0  0  0  0  0  0
    6.1804   -3.3912    2.2197 H   0  0  0  0  0  0  0  0  0  0  0  0
    3.7869   -3.7854    2.6602 H   0  0  0  0  0  0  0  0  0  0  0  0
    2.0932   -2.2190    1.7766 H   0  0  0  0  0  0  0  0  0  0  0  0
   -3.6540    1.1693    0.1999 H   0  0  0  0  0  0  0  0  0  0  0  0
   -5.6682   -0.0525    0.9784 H   0  0  0  0  0  0  0  0  0  0  0  0
   -5.6090   -2.4713    1.3336 H   0  0  0  0  0  0  0  0  0  0  0  0
   -3.5443   -3.7651    0.9369 H   0  0  0  0  0  0  0  0  0  0  0  0
  1  2  1  0  0  0  0
  2  3  1  0  0  0  0
  3  4  2  0  0  0  0
  4  5  1  0  0  0  0
  5  6  2  0  0  0  0
  6  7  1  0  0  0  0
  7  8  2  0  0  0  0
  8  9  1  0  0  0  0
  9 10  2  0  0  0  0
 10 11  1  0  0  0  0
 11 12  2  0  0  0  0
 12 13  1  0  0  0  0
 13 14  2  0  0  0  0
 14 15  1  0  0  0  0
 15 16  3  0  0  0  0
 16 17  1  0  0  0  0
 17 18  2  0  0  0  0
 18 19  1  0  0  0  0
 19 20  2  0  0  0  0
 20 21  1  0  0  0  0
 21 22  2  0  0  0  0
  4 23  1  0  0  0  0
 23 24  2  0  0  0  0
 24 25  1  0  0  0  0
 25 26  2  0  0  0  0
 26 27  1  0  0  0  0
 27 28  2  0  0  0  0
 28  2  1  0  0  0  0
 14  5  1  0  0  0  0
 22 17  1  0  0  0  0
 28 23  1  0  0  0  0
 12  7  1  0  0  0  0
  1 29  1  0  0  0  0
  1 30  1  0  0  0  0
  1 31  1  0  0  0  0
  3 32  1  0  0  0  0
  8 33  1  0  0  0  0
  9 34  1  0  0  0  0
 10 35  1  0  0  0  0
 11 36  1  0  0  0  0
 18 37  1  0  0  0  0
 19 38  1  0  0  0  0
 20 39  1  0  0  0  0
 21 40  1  0  0  0  0
 22 41  1  0  0  0  0
 24 42  1  0  0  0  0
 25 43  1  0  0  0  0
 26 44  1  0  0  0  0
 27 45  1  0  0  0  0
M  END
