
  xtb     03022215253D
 energy: -81.944189579896 gnorm: 0.000158418122 xtb: 6.4.1 (afa7bdf)
 51 56  0     0  0            999 V2000
    7.0597   -0.1627    1.5938 O   0  0  0  0  0  0  0  0  0  0  0  0
    6.5374   -1.0182    0.9079 N   0  0  0  0  0  4  0  0  0  0  0  0
    7.1319   -1.9457    0.3971 O   0  0  0  0  0  1  0  0  0  0  0  0
    5.1216   -0.9253    0.6843 C   0  0  0  0  0  0  0  0  0  0  0  0
    4.4823   -1.8963   -0.0793 C   0  0  0  0  0  0  0  0  0  0  0  0
    3.1242   -1.7976   -0.2939 C   0  0  0  0  0  0  0  0  0  0  0  0
    2.3990   -0.7284    0.2332 C   0  0  0  0  0  0  0  0  0  0  0  0
    0.9445   -0.6718    0.0188 C   0  0  0  0  0  0  0  0  0  0  0  0
    0.3204   -1.8354    0.1943 N   0  0  0  0  0  0  0  0  0  0  0  0
   -0.9900   -1.8912    0.1127 C   0  0  0  0  0  0  0  0  0  0  0  0
   -1.8005   -0.7627   -0.1161 C   0  0  0  0  0  0  0  0  0  0  0  0
   -1.1605    0.4719   -0.2310 C   0  0  0  0  0  0  0  0  0  0  0  0
    0.2447    0.5101   -0.2473 C   0  0  0  0  0  0  0  0  0  0  0  0
    0.9009    1.7836   -0.5584 C   0  0  0  0  0  0  0  0  0  0  0  0
    2.0797    1.8567   -1.2948 C   0  0  0  0  0  0  0  0  0  0  0  0
    2.6601    3.0829   -1.5600 C   0  0  0  0  0  0  0  0  0  0  0  0
    2.0660    4.2477   -1.1033 C   0  0  0  0  0  0  0  0  0  0  0  0
    0.8657    4.1863   -0.4152 C   0  0  0  0  0  0  0  0  0  0  0  0
    0.2718    2.9643   -0.1517 C   0  0  0  0  0  0  0  0  0  0  0  0
   -1.0615    2.8303    0.5196 C   0  0  0  0  0  0  0  0  0  0  0  0
   -1.8825    1.7897   -0.2468 C   0  0  0  0  0  0  0  0  0  0  0  0
   -3.2495   -0.9776   -0.1936 C   0  0  0  0  0  0  0  0  0  0  0  0
   -4.0845   -0.2083   -1.0001 C   0  0  0  0  0  0  0  0  0  0  0  0
   -5.4475   -0.4424   -1.0328 C   0  0  0  0  0  0  0  0  0  0  0  0
   -5.9971   -1.4538   -0.2654 C   0  0  0  0  0  0  0  0  0  0  0  0
   -5.1685   -2.2653    0.4915 C   0  0  0  0  0  0  0  0  0  0  0  0
   -3.8015   -2.0507    0.5210 C   0  0  0  0  0  0  0  0  0  0  0  0
   -2.8725   -2.9736    1.2540 C   0  0  0  0  0  0  0  0  0  0  0  0
   -1.6453   -3.2130    0.3754 C   0  0  0  0  0  0  0  0  0  0  0  0
    3.0513    0.2226    1.0211 C   0  0  0  0  0  0  0  0  0  0  0  0
    4.4072    0.1290    1.2456 C   0  0  0  0  0  0  0  0  0  0  0  0
    5.0612   -2.7101   -0.4886 H   0  0  0  0  0  0  0  0  0  0  0  0
    2.6030   -2.5430   -0.8736 H   0  0  0  0  0  0  0  0  0  0  0  0
    2.5324    0.9531   -1.6751 H   0  0  0  0  0  0  0  0  0  0  0  0
    3.5768    3.1297   -2.1284 H   0  0  0  0  0  0  0  0  0  0  0  0
    2.5250    5.2044   -1.3025 H   0  0  0  0  0  0  0  0  0  0  0  0
    0.3817    5.0954   -0.0876 H   0  0  0  0  0  0  0  0  0  0  0  0
   -0.9312    2.4974    1.5547 H   0  0  0  0  0  0  0  0  0  0  0  0
   -1.5825    3.7884    0.5360 H   0  0  0  0  0  0  0  0  0  0  0  0
   -2.0099    2.1373   -1.2773 H   0  0  0  0  0  0  0  0  0  0  0  0
   -2.8686    1.6817    0.2063 H   0  0  0  0  0  0  0  0  0  0  0  0
   -3.6660    0.5527   -1.6392 H   0  0  0  0  0  0  0  0  0  0  0  0
   -6.0797    0.1652   -1.6632 H   0  0  0  0  0  0  0  0  0  0  0  0
   -7.0622   -1.6299   -0.2784 H   0  0  0  0  0  0  0  0  0  0  0  0
   -5.5879   -3.0852    1.0572 H   0  0  0  0  0  0  0  0  0  0  0  0
   -2.5579   -2.5203    2.1997 H   0  0  0  0  0  0  0  0  0  0  0  0
   -3.3742   -3.9148    1.4817 H   0  0  0  0  0  0  0  0  0  0  0  0
   -0.9273   -3.8772    0.8550 H   0  0  0  0  0  0  0  0  0  0  0  0
   -1.9568   -3.6653   -0.5711 H   0  0  0  0  0  0  0  0  0  0  0  0
    2.4888    1.0305    1.4632 H   0  0  0  0  0  0  0  0  0  0  0  0
    4.9286    0.8547    1.8507 H   0  0  0  0  0  0  0  0  0  0  0  0
  1  2  2  0  0  0  0
  2  3  1  0  0  0  0
  2  4  1  0  0  0  0
  4  5  2  0  0  0  0
  5  6  1  0  0  0  0
  6  7  2  0  0  0  0
  7  8  1  0  0  0  0
  8  9  2  0  0  0  0
  9 10  1  0  0  0  0
 10 11  2  0  0  0  0
 11 12  1  0  0  0  0
 12 13  2  0  0  0  0
 13 14  1  0  0  0  0
 14 15  2  0  0  0  0
 15 16  1  0  0  0  0
 16 17  2  0  0  0  0
 17 18  1  0  0  0  0
 18 19  2  0  0  0  0
 19 20  1  0  0  0  0
 20 21  1  0  0  0  0
 11 22  1  0  0  0  0
 22 23  2  0  0  0  0
 23 24  1  0  0  0  0
 24 25  2  0  0  0  0
 25 26  1  0  0  0  0
 26 27  2  0  0  0  0
 27 28  1  0  0  0  0
 28 29  1  0  0  0  0
  7 30  1  0  0  0  0
 30 31  2  0  0  0  0
 31  4  1  0  0  0  0
 13  8  1  0  0  0  0
 19 14  1  0  0  0  0
 27 22  1  0  0  0  0
 29 10  1  0  0  0  0
 21 12  1  0  0  0  0
  5 32  1  0  0  0  0
  6 33  1  0  0  0  0
 15 34  1  0  0  0  0
 16 35  1  0  0  0  0
 17 36  1  0  0  0  0
 18 37  1  0  0  0  0
 20 38  1  0  0  0  0
 20 39  1  0  0  0  0
 21 40  1  0  0  0  0
 21 41  1  0  0  0  0
 23 42  1  0  0  0  0
 24 43  1  0  0  0  0
 25 44  1  0  0  0  0
 26 45  1  0  0  0  0
 28 46  1  0  0  0  0
 28 47  1  0  0  0  0
 29 48  1  0  0  0  0
 29 49  1  0  0  0  0
 30 50  1  0  0  0  0
 31 51  1  0  0  0  0
M  CHG  1   2   1
M  CHG  1   3  -1
M  END
