
  xtb     03022213233D
 energy: -67.609238164747 gnorm: 0.000104964584 xtb: 6.4.1 (afa7bdf)
 38 41  0     0  0            999 V2000
    7.1171   -0.6772    0.5312 C   0  0  0  0  0  0  0  0  0  0  0  0
    6.3216    0.2734   -0.1387 O   0  0  0  0  0  0  0  0  0  0  0  0
    4.9739    0.1664   -0.0624 C   0  0  0  0  0  0  0  0  0  0  0  0
    4.2433    1.1397   -0.7529 C   0  0  0  0  0  0  0  0  0  0  0  0
    2.8689    1.1283   -0.7448 C   0  0  0  0  0  0  0  0  0  0  0  0
    2.1670    0.1414   -0.0443 C   0  0  0  0  0  0  0  0  0  0  0  0
    0.7040    0.0716    0.0037 C   0  0  0  0  0  0  0  0  0  0  0  0
   -0.1204    0.9855   -0.6108 C   0  0  0  0  0  0  0  0  0  0  0  0
   -1.5260    0.8848   -0.5428 C   0  0  0  0  0  0  0  0  0  0  0  0
   -2.3233    1.8623   -1.2043 C   0  0  0  0  0  0  0  0  0  0  0  0
   -3.6748    1.7932   -1.1590 C   0  0  0  0  0  0  0  0  0  0  0  0
   -4.2995    0.7390   -0.4458 C   0  0  0  0  0  0  0  0  0  0  0  0
   -5.6968    0.6247   -0.3691 C   0  0  0  0  0  0  0  0  0  0  0  0
   -6.2758   -0.4031    0.3274 C   0  0  0  0  0  0  0  0  0  0  0  0
   -5.4658   -1.3457    0.9672 C   0  0  0  0  0  0  0  0  0  0  0  0
   -4.0972   -1.2612    0.9102 C   0  0  0  0  0  0  0  0  0  0  0  0
   -3.4777   -0.2177    0.2026 C   0  0  0  0  0  0  0  0  0  0  0  0
   -2.1135   -0.1154    0.1332 N   0  0  0  0  0  4  0  0  0  0  0  0
   -1.2035   -1.1977    0.8649 B   0  0  0  0  0  4  0  0  0  0  0  0
   -1.4903   -1.1659    2.2126 F   0  0  0  0  0  0  0  0  0  0  0  0
   -1.4948   -2.4375    0.3385 F   0  0  0  0  0  0  0  0  0  0  0  0
    0.2180   -0.9324    0.6809 O   0  0  0  0  0  0  0  0  0  0  0  0
    2.9054   -0.8256    0.6413 C   0  0  0  0  0  0  0  0  0  0  0  0
    4.2847   -0.8210    0.6381 C   0  0  0  0  0  0  0  0  0  0  0  0
    8.1482   -0.3931    0.3278 H   0  0  0  0  0  0  0  0  0  0  0  0
    6.9386   -1.6879    0.1518 H   0  0  0  0  0  0  0  0  0  0  0  0
    6.9424   -0.6564    1.6112 H   0  0  0  0  0  0  0  0  0  0  0  0
    4.7902    1.8975   -1.2915 H   0  0  0  0  0  0  0  0  0  0  0  0
    2.3440    1.8945   -1.2917 H   0  0  0  0  0  0  0  0  0  0  0  0
    0.2868    1.8112   -1.1649 H   0  0  0  0  0  0  0  0  0  0  0  0
   -1.8147    2.6502   -1.7369 H   0  0  0  0  0  0  0  0  0  0  0  0
   -4.2921    2.5273   -1.6565 H   0  0  0  0  0  0  0  0  0  0  0  0
   -6.3025    1.3652   -0.8712 H   0  0  0  0  0  0  0  0  0  0  0  0
   -7.3504   -0.4882    0.3846 H   0  0  0  0  0  0  0  0  0  0  0  0
   -5.9239   -2.1546    1.5157 H   0  0  0  0  0  0  0  0  0  0  0  0
   -3.4944   -1.9975    1.4101 H   0  0  0  0  0  0  0  0  0  0  0  0
    2.3707   -1.5897    1.1833 H   0  0  0  0  0  0  0  0  0  0  0  0
    4.8127   -1.5879    1.1822 H   0  0  0  0  0  0  0  0  0  0  0  0
  1  2  1  0  0  0  0
  2  3  1  0  0  0  0
  3  4  2  0  0  0  0
  4  5  1  0  0  0  0
  5  6  2  0  0  0  0
  6  7  1  0  0  0  0
  7  8  2  0  0  0  0
  8  9  1  0  0  0  0
  9 10  2  0  0  0  0
 10 11  1  0  0  0  0
 11 12  2  0  0  0  0
 12 13  1  0  0  0  0
 13 14  2  0  0  0  0
 14 15  1  0  0  0  0
 15 16  2  0  0  0  0
 16 17  1  0  0  0  0
 17 18  2  0  0  0  0
 18 19  1  0  0  0  0
 19 20  1  0  0  0  0
 19 21  1  0  0  0  0
 19 22  1  0  0  0  0
  6 23  1  0  0  0  0
 23 24  2  0  0  0  0
 24  3  1  0  0  0  0
 22  7  1  0  0  0  0
 18  9  1  0  0  0  0
 17 12  1  0  0  0  0
  1 25  1  0  0  0  0
  1 26  1  0  0  0  0
  1 27  1  0  0  0  0
  4 28  1  0  0  0  0
  5 29  1  0  0  0  0
  8 30  1  0  0  0  0
 10 31  1  0  0  0  0
 11 32  1  0  0  0  0
 13 33  1  0  0  0  0
 14 34  1  0  0  0  0
 15 35  1  0  0  0  0
 16 36  1  0  0  0  0
 23 37  1  0  0  0  0
 24 38  1  0  0  0  0
M  CHG  1  18   1
M  CHG  1  19  -1
M  END
