
  xtb     03022215143D
 energy: -100.724614307953 gnorm: 0.000106490671 xtb: 6.4.1 (afa7bdf)
 66 71  0     0  0            999 V2000
   -1.4055    4.8581    0.1430 C   0  0  0  0  0  0  0  0  0  0  0  0
   -1.1899    3.6347    1.0248 C   0  0  0  0  0  0  0  0  0  0  0  0
   -1.6621    2.3576    0.3361 C   0  0  0  0  0  0  0  0  0  0  0  0
   -1.4728    1.1327    1.2357 C   0  0  0  0  0  0  0  0  0  0  0  0
   -1.8436   -0.0858    0.5643 N   0  0  0  0  0  0  0  0  0  0  0  0
   -1.0349   -1.0517    0.0275 C   0  0  0  0  0  0  0  0  0  0  0  0
    0.4178   -1.0707    0.0140 C   0  0  0  0  0  0  0  0  0  0  0  0
    1.2075    0.0668   -0.1598 C   0  0  0  0  0  0  0  0  0  0  0  0
    2.5837   -0.0317   -0.1726 C   0  0  0  0  0  0  0  0  0  0  0  0
    3.2013   -1.2719   -0.0224 C   0  0  0  0  0  0  0  0  0  0  0  0
    4.6379   -1.3880   -0.0264 C   0  0  0  0  0  0  0  0  0  0  0  0
    5.3350   -2.4801    0.1076 N   0  0  0  0  0  0  0  0  0  0  0  0
    6.6264   -2.1401    0.0453 N   0  0  0  0  0  0  0  0  0  0  0  0
    6.6823   -0.8505   -0.1247 C   0  0  0  0  0  0  0  0  0  0  0  0
    7.8736   -0.0443   -0.2483 C   0  0  0  0  0  0  0  0  0  0  0  0
    7.7866    1.3361   -0.4202 C   0  0  0  0  0  0  0  0  0  0  0  0
    8.9405    2.0872   -0.5377 C   0  0  0  0  0  0  0  0  0  0  0  0
   10.1806    1.4712   -0.4852 C   0  0  0  0  0  0  0  0  0  0  0  0
   10.2690    0.0976   -0.3139 C   0  0  0  0  0  0  0  0  0  0  0  0
    9.1229   -0.6629   -0.1951 C   0  0  0  0  0  0  0  0  0  0  0  0
    5.4422   -0.3073   -0.1780 O   0  0  0  0  0  0  0  0  0  0  0  0
    2.4173   -2.4199    0.1178 C   0  0  0  0  0  0  0  0  0  0  0  0
    1.0460   -2.3160    0.1325 C   0  0  0  0  0  0  0  0  0  0  0  0
   -1.7478   -2.0326   -0.4754 N   0  0  0  0  0  0  0  0  0  0  0  0
   -3.0565   -1.7142   -0.2961 C   0  0  0  0  0  0  0  0  0  0  0  0
   -4.1121   -2.6032   -0.7533 C   0  0  0  0  0  0  0  0  0  0  0  0
   -3.7974   -3.5985   -1.6787 C   0  0  0  0  0  0  0  0  0  0  0  0
   -4.7716   -4.4617   -2.1390 C   0  0  0  0  0  0  0  0  0  0  0  0
   -6.0751   -4.3477   -1.6826 C   0  0  0  0  0  0  0  0  0  0  0  0
   -6.3937   -3.3700   -0.7549 C   0  0  0  0  0  0  0  0  0  0  0  0
   -5.4222   -2.5041   -0.2887 C   0  0  0  0  0  0  0  0  0  0  0  0
   -3.1371   -0.4966    0.3606 C   0  0  0  0  0  0  0  0  0  0  0  0
   -4.2913    0.3056    0.7692 C   0  0  0  0  0  0  0  0  0  0  0  0
   -4.5927    0.4962    2.1151 C   0  0  0  0  0  0  0  0  0  0  0  0
   -5.6816    1.2660    2.4834 C   0  0  0  0  0  0  0  0  0  0  0  0
   -6.4801    1.8508    1.5154 C   0  0  0  0  0  0  0  0  0  0  0  0
   -6.1928    1.6563    0.1739 C   0  0  0  0  0  0  0  0  0  0  0  0
   -5.1051    0.8895   -0.1993 C   0  0  0  0  0  0  0  0  0  0  0  0
   -2.4608    4.9753   -0.0927 H   0  0  0  0  0  0  0  0  0  0  0  0
   -0.8554    4.7590   -0.7902 H   0  0  0  0  0  0  0  0  0  0  0  0
   -1.0642    5.7580    0.6485 H   0  0  0  0  0  0  0  0  0  0  0  0
   -1.7380    3.7605    1.9612 H   0  0  0  0  0  0  0  0  0  0  0  0
   -0.1291    3.5447    1.2712 H   0  0  0  0  0  0  0  0  0  0  0  0
   -1.1132    2.2173   -0.5984 H   0  0  0  0  0  0  0  0  0  0  0  0
   -2.7209    2.4498    0.0833 H   0  0  0  0  0  0  0  0  0  0  0  0
   -0.4328    1.0465    1.5595 H   0  0  0  0  0  0  0  0  0  0  0  0
   -2.0983    1.2484    2.1261 H   0  0  0  0  0  0  0  0  0  0  0  0
    0.7543    1.0314   -0.3245 H   0  0  0  0  0  0  0  0  0  0  0  0
    3.1888    0.8527   -0.3081 H   0  0  0  0  0  0  0  0  0  0  0  0
    6.8168    1.8094   -0.4606 H   0  0  0  0  0  0  0  0  0  0  0  0
    8.8735    3.1569   -0.6709 H   0  0  0  0  0  0  0  0  0  0  0  0
   11.0795    2.0624   -0.5780 H   0  0  0  0  0  0  0  0  0  0  0  0
   11.2369   -0.3792   -0.2737 H   0  0  0  0  0  0  0  0  0  0  0  0
    9.1646   -1.7320   -0.0617 H   0  0  0  0  0  0  0  0  0  0  0  0
    2.9110   -3.3734    0.2149 H   0  0  0  0  0  0  0  0  0  0  0  0
    0.4247   -3.1915    0.2339 H   0  0  0  0  0  0  0  0  0  0  0  0
   -2.7773   -3.6749   -2.0215 H   0  0  0  0  0  0  0  0  0  0  0  0
   -4.5166   -5.2276   -2.8573 H   0  0  0  0  0  0  0  0  0  0  0  0
   -6.8387   -5.0209   -2.0440 H   0  0  0  0  0  0  0  0  0  0  0  0
   -7.4065   -3.2833   -0.3879 H   0  0  0  0  0  0  0  0  0  0  0  0
   -5.6800   -1.7568    0.4465 H   0  0  0  0  0  0  0  0  0  0  0  0
   -3.9868    0.0185    2.8727 H   0  0  0  0  0  0  0  0  0  0  0  0
   -5.9100    1.4052    3.5301 H   0  0  0  0  0  0  0  0  0  0  0  0
   -7.3293    2.4516    1.8054 H   0  0  0  0  0  0  0  0  0  0  0  0
   -6.8182    2.1050   -0.5838 H   0  0  0  0  0  0  0  0  0  0  0  0
   -4.8783    0.7304   -1.2436 H   0  0  0  0  0  0  0  0  0  0  0  0
  1  2  1  0  0  0  0
  2  3  1  0  0  0  0
  3  4  1  0  0  0  0
  4  5  1  0  0  0  0
  5  6  1  0  0  0  0
  6  7  1  0  0  0  0
  7  8  2  0  0  0  0
  8  9  1  0  0  0  0
  9 10  2  0  0  0  0
 10 11  1  0  0  0  0
 11 12  2  0  0  0  0
 12 13  1  0  0  0  0
 13 14  2  0  0  0  0
 14 15  1  0  0  0  0
 15 16  2  0  0  0  0
 16 17  1  0  0  0  0
 17 18  2  0  0  0  0
 18 19  1  0  0  0  0
 19 20  2  0  0  0  0
 14 21  1  0  0  0  0
 10 22  1  0  0  0  0
 22 23  2  0  0  0  0
  6 24  2  0  0  0  0
 24 25  1  0  0  0  0
 25 26  1  0  0  0  0
 26 27  2  0  0  0  0
 27 28  1  0  0  0  0
 28 29  2  0  0  0  0
 29 30  1  0  0  0  0
 30 31  2  0  0  0  0
 25 32  2  0  0  0  0
 32 33  1  0  0  0  0
 33 34  2  0  0  0  0
 34 35  1  0  0  0  0
 35 36  2  0  0  0  0
 36 37  1  0  0  0  0
 37 38  2  0  0  0  0
 32  5  1  0  0  0  0
 38 33  1  0  0  0  0
 23  7  1  0  0  0  0
 31 26  1  0  0  0  0
 21 11  1  0  0  0  0
 20 15  1  0  0  0  0
  1 39  1  0  0  0  0
  1 40  1  0  0  0  0
  1 41  1  0  0  0  0
  2 42  1  0  0  0  0
  2 43  1  0  0  0  0
  3 44  1  0  0  0  0
  3 45  1  0  0  0  0
  4 46  1  0  0  0  0
  4 47  1  0  0  0  0
  8 48  1  0  0  0  0
  9 49  1  0  0  0  0
 16 50  1  0  0  0  0
 17 51  1  0  0  0  0
 18 52  1  0  0  0  0
 19 53  1  0  0  0  0
 20 54  1  0  0  0  0
 22 55  1  0  0  0  0
 23 56  1  0  0  0  0
 27 57  1  0  0  0  0
 28 58  1  0  0  0  0
 29 59  1  0  0  0  0
 30 60  1  0  0  0  0
 31 61  1  0  0  0  0
 34 62  1  0  0  0  0
 35 63  1  0  0  0  0
 36 64  1  0  0  0  0
 37 65  1  0  0  0  0
 38 66  1  0  0  0  0
M  END
