
  xtb     03022213593D
 energy: -53.866474885904 gnorm: 0.000315351001 xtb: 6.4.1 (afa7bdf)
 31 33  0     0  0            999 V2000
   -4.2601   -0.1959    1.2305 C   0  0  0  0  0  0  0  0  0  0  0  0
   -2.8676   -0.1575    0.6847 C   0  0  0  0  0  0  0  0  0  0  0  0
   -1.8024    0.0479    1.5201 C   0  0  0  0  0  0  0  0  0  0  0  0
   -0.4865    0.0900    1.0204 C   0  0  0  0  0  0  0  0  0  0  0  0
    0.5440    0.2895    1.8544 N   0  0  0  0  0  0  0  0  0  0  0  0
    1.7512    0.3236    1.3452 C   0  0  0  0  0  0  0  0  0  0  0  0
    2.9030    0.5394    2.2397 C   0  0  0  0  0  0  0  0  0  0  0  0
    2.8644    0.6930    3.4334 O   0  0  0  0  0  0  0  0  0  0  0  0
    4.1088    0.5522    1.5550 N   0  0  0  0  0  0  0  0  0  0  0  0
    4.3528    0.3973    0.2039 C   0  0  0  0  0  0  0  0  0  0  0  0
    5.4739    0.4360   -0.2426 O   0  0  0  0  0  0  0  0  0  0  0  0
    3.2370    0.1985   -0.5760 N   0  0  0  0  0  0  0  0  0  0  0  0
    3.4009    0.0270   -2.0059 C   0  0  0  0  0  0  0  0  0  0  0  0
    1.9702    0.1563   -0.0550 C   0  0  0  0  0  0  0  0  0  0  0  0
    0.9750   -0.0431   -0.8927 N   0  0  0  0  0  0  0  0  0  0  0  0
   -0.2679   -0.0821   -0.3787 C   0  0  0  0  0  0  0  0  0  0  0  0
   -1.3748   -0.2945   -1.2184 C   0  0  0  0  0  0  0  0  0  0  0  0
   -2.6483   -0.3344   -0.7117 C   0  0  0  0  0  0  0  0  0  0  0  0
   -3.8121   -0.5647   -1.6218 C   0  0  0  0  0  0  0  0  0  0  0  0
   -4.2520   -0.0517    2.3071 H   0  0  0  0  0  0  0  0  0  0  0  0
   -4.7329   -1.1521    1.0109 H   0  0  0  0  0  0  0  0  0  0  0  0
   -4.8698    0.5862    0.7797 H   0  0  0  0  0  0  0  0  0  0  0  0
   -1.9369    0.1835    2.5820 H   0  0  0  0  0  0  0  0  0  0  0  0
    4.9394    0.6974    2.1200 H   0  0  0  0  0  0  0  0  0  0  0  0
    2.8635    0.8142   -2.5333 H   0  0  0  0  0  0  0  0  0  0  0  0
    4.4644    0.0783   -2.2272 H   0  0  0  0  0  0  0  0  0  0  0  0
    2.9939   -0.9374   -2.3074 H   0  0  0  0  0  0  0  0  0  0  0  0
   -1.1894   -0.4249   -2.2736 H   0  0  0  0  0  0  0  0  0  0  0  0
   -3.4801   -0.6742   -2.6504 H   0  0  0  0  0  0  0  0  0  0  0  0
   -4.5113    0.2686   -1.5679 H   0  0  0  0  0  0  0  0  0  0  0  0
   -4.3505   -1.4660   -1.3319 H   0  0  0  0  0  0  0  0  0  0  0  0
  1  2  1  0  0  0  0
  2  3  2  0  0  0  0
  3  4  1  0  0  0  0
  4  5  2  0  0  0  0
  5  6  1  0  0  0  0
  6  7  1  0  0  0  0
  7  8  2  0  0  0  0
  7  9  1  0  0  0  0
  9 10  1  0  0  0  0
 10 11  2  0  0  0  0
 10 12  1  0  0  0  0
 12 13  1  0  0  0  0
 12 14  1  0  0  0  0
 14 15  1  0  0  0  0
 15 16  2  0  0  0  0
 16 17  1  0  0  0  0
 17 18  2  0  0  0  0
 18 19  1  0  0  0  0
 18  2  1  0  0  0  0
 16  4  1  0  0  0  0
 14  6  2  0  0  0  0
  1 20  1  0  0  0  0
  1 21  1  0  0  0  0
  1 22  1  0  0  0  0
  3 23  1  0  0  0  0
  9 24  1  0  0  0  0
 13 25  1  0  0  0  0
 13 26  1  0  0  0  0
 13 27  1  0  0  0  0
 17 28  1  0  0  0  0
 19 29  1  0  0  0  0
 19 30  1  0  0  0  0
 19 31  1  0  0  0  0
M  END
