
  xtb     03022213183D
 energy: -55.954711066160 gnorm: 0.000047569597 xtb: 6.4.1 (afa7bdf)
 38 40  0     0  0            999 V2000
   -6.0026   -1.6717    0.1004 C   0  0  0  0  0  0  0  0  0  0  0  0
   -5.3577   -0.3839    0.1585 N   0  0  0  0  0  0  0  0  0  0  0  0
   -6.1778    0.7987    0.2422 C   0  0  0  0  0  0  0  0  0  0  0  0
   -3.9948   -0.2860    0.1282 C   0  0  0  0  0  0  0  0  0  0  0  0
   -3.1821   -1.4130   -0.0815 C   0  0  0  0  0  0  0  0  0  0  0  0
   -1.8127   -1.3045   -0.1087 C   0  0  0  0  0  0  0  0  0  0  0  0
   -1.1614   -0.0776    0.0706 C   0  0  0  0  0  0  0  0  0  0  0  0
    0.2754   -0.0291    0.0348 C   0  0  0  0  0  0  0  0  0  0  0  0
    1.0612    1.0509    0.2067 C   0  0  0  0  0  0  0  0  0  0  0  0
    2.4997    0.9811    0.1531 C   0  0  0  0  0  0  0  0  0  0  0  0
    3.2807    2.1571    0.3583 C   0  0  0  0  0  0  0  0  0  0  0  0
    4.5793    2.1653    0.3271 N   0  0  0  0  0  0  0  0  0  0  0  0
    5.2000    0.9854    0.0841 C   0  0  0  0  0  0  0  0  0  0  0  0
    6.6037    0.9264    0.0380 C   0  0  0  0  0  0  0  0  0  0  0  0
    7.2262   -0.2670   -0.2091 C   0  0  0  0  0  0  0  0  0  0  0  0
    6.4764   -1.4366   -0.4178 C   0  0  0  0  0  0  0  0  0  0  0  0
    5.1102   -1.4107   -0.3784 C   0  0  0  0  0  0  0  0  0  0  0  0
    4.4367   -0.1974   -0.1255 C   0  0  0  0  0  0  0  0  0  0  0  0
    3.0929   -0.1760   -0.0858 N   0  0  0  0  0  0  0  0  0  0  0  0
   -1.9738    1.0436    0.2781 C   0  0  0  0  0  0  0  0  0  0  0  0
   -3.3441    0.9473    0.3062 C   0  0  0  0  0  0  0  0  0  0  0  0
   -7.0653   -1.5551    0.2993 H   0  0  0  0  0  0  0  0  0  0  0  0
   -5.5906   -2.3466    0.8552 H   0  0  0  0  0  0  0  0  0  0  0  0
   -5.8867   -2.1370   -0.8849 H   0  0  0  0  0  0  0  0  0  0  0  0
   -5.9013    1.5194   -0.5319 H   0  0  0  0  0  0  0  0  0  0  0  0
   -6.0865    1.2841    1.2202 H   0  0  0  0  0  0  0  0  0  0  0  0
   -7.2205    0.5290    0.0920 H   0  0  0  0  0  0  0  0  0  0  0  0
   -3.6255   -2.3833   -0.2349 H   0  0  0  0  0  0  0  0  0  0  0  0
   -1.2187   -2.1921   -0.2754 H   0  0  0  0  0  0  0  0  0  0  0  0
    0.7782   -0.9703   -0.1487 H   0  0  0  0  0  0  0  0  0  0  0  0
    0.6476    2.0310    0.3983 H   0  0  0  0  0  0  0  0  0  0  0  0
    2.7965    3.1068    0.5529 H   0  0  0  0  0  0  0  0  0  0  0  0
    7.1591    1.8373    0.2010 H   0  0  0  0  0  0  0  0  0  0  0  0
    8.3046   -0.3188   -0.2459 H   0  0  0  0  0  0  0  0  0  0  0  0
    6.9945   -2.3648   -0.6116 H   0  0  0  0  0  0  0  0  0  0  0  0
    4.5179   -2.2988   -0.5362 H   0  0  0  0  0  0  0  0  0  0  0  0
   -1.5216    2.0129    0.4226 H   0  0  0  0  0  0  0  0  0  0  0  0
   -3.9177    1.8433    0.4792 H   0  0  0  0  0  0  0  0  0  0  0  0
  1  2  1  0  0  0  0
  2  3  1  0  0  0  0
  2  4  1  0  0  0  0
  4  5  2  0  0  0  0
  5  6  1  0  0  0  0
  6  7  2  0  0  0  0
  7  8  1  0  0  0  0
  8  9  2  0  0  0  0
  9 10  1  0  0  0  0
 10 11  2  0  0  0  0
 11 12  1  0  0  0  0
 12 13  2  0  0  0  0
 13 14  1  0  0  0  0
 14 15  2  0  0  0  0
 15 16  1  0  0  0  0
 16 17  2  0  0  0  0
 17 18  1  0  0  0  0
 18 19  2  0  0  0  0
  7 20  1  0  0  0  0
 20 21  2  0  0  0  0
 21  4  1  0  0  0  0
 19 10  1  0  0  0  0
 18 13  1  0  0  0  0
  1 22  1  0  0  0  0
  1 23  1  0  0  0  0
  1 24  1  0  0  0  0
  3 25  1  0  0  0  0
  3 26  1  0  0  0  0
  3 27  1  0  0  0  0
  5 28  1  0  0  0  0
  6 29  1  0  0  0  0
  8 30  1  0  0  0  0
  9 31  1  0  0  0  0
 11 32  1  0  0  0  0
 14 33  1  0  0  0  0
 15 34  1  0  0  0  0
 16 35  1  0  0  0  0
 17 36  1  0  0  0  0
 20 37  1  0  0  0  0
 21 38  1  0  0  0  0
M  END
