
  xtb     03022214413D
 energy: -117.727240355483 gnorm: 0.000077954195 xtb: 6.4.1 (afa7bdf)
 77 85  0     0  0            999 V2000
   -5.1255   -0.8470    3.0221 C   0  0  0  0  0  0  0  0  0  0  0  0
   -4.2999   -0.7022    1.8940 O   0  0  0  0  0  0  0  0  0  0  0  0
   -4.0236   -1.8069    1.1437 C   0  0  0  0  0  0  0  0  0  0  0  0
   -4.5709   -3.0629    1.3669 C   0  0  0  0  0  0  0  0  0  0  0  0
   -4.2143   -4.1327    0.5619 C   0  0  0  0  0  0  0  0  0  0  0  0
   -3.3091   -3.9644   -0.4682 C   0  0  0  0  0  0  0  0  0  0  0  0
   -2.7564   -2.7170   -0.6982 C   0  0  0  0  0  0  0  0  0  0  0  0
   -3.1016   -1.6317    0.0945 C   0  0  0  0  0  0  0  0  0  0  0  0
   -2.5601   -0.2995   -0.1492 C   0  0  0  0  0  0  0  0  0  0  0  0
   -1.2496    0.0088   -0.1613 N   0  0  0  0  0  4  0  0  0  0  0  0
   -1.1101    1.3703   -0.3876 C   0  0  0  0  0  0  0  0  0  0  0  0
    0.1281    1.9845   -0.3617 C   0  0  0  0  0  0  0  0  0  0  0  0
    1.2802    1.2688   -0.0944 C   0  0  0  0  0  0  0  0  0  0  0  0
    2.6349    1.6663   -0.0883 C   0  0  0  0  0  0  0  0  0  0  0  0
    3.3897    0.5352    0.1450 C   0  0  0  0  0  0  0  0  0  0  0  0
    2.5050   -0.5453    0.3006 C   0  0  0  0  0  0  0  0  0  0  0  0
    2.8710   -1.9348    0.5513 C   0  0  0  0  0  0  0  0  0  0  0  0
    2.4110   -2.6219    1.6656 C   0  0  0  0  0  0  0  0  0  0  0  0
    2.7988   -3.9292    1.8997 C   0  0  0  0  0  0  0  0  0  0  0  0
    3.6530   -4.5587    1.0149 C   0  0  0  0  0  0  0  0  0  0  0  0
    4.1223   -3.8917   -0.1051 C   0  0  0  0  0  0  0  0  0  0  0  0
    3.7408   -2.5794   -0.3484 C   0  0  0  0  0  0  0  0  0  0  0  0
    4.1363   -1.8505   -1.4310 O   0  0  0  0  0  0  0  0  0  0  0  0
    4.9132   -2.4823   -2.4172 C   0  0  0  0  0  0  0  0  0  0  0  0
    1.2438   -0.0920    0.1727 N   0  0  0  0  0  0  0  0  0  0  0  0
   -0.0603   -0.9351    0.1641 B   0  0  0  0  0  4  0  0  0  0  0  0
    0.0698   -1.9212   -0.7969 F   0  0  0  0  0  0  0  0  0  0  0  0
   -0.2906   -1.5096    1.4007 F   0  0  0  0  0  0  0  0  0  0  0  0
    4.8545    0.7741    0.1919 C   0  0  0  0  0  0  0  0  0  0  0  0
    5.2407    1.3983   -1.1611 C   0  0  0  0  0  0  0  0  0  0  0  0
    4.4039    2.6637   -1.4237 C   0  0  0  0  0  0  0  0  0  0  0  0
    3.4237    2.9095   -0.2604 C   0  0  0  0  0  0  0  0  0  0  0  0
    4.2593    3.0862    1.0226 C   0  0  0  0  0  0  0  0  0  0  0  0
    5.1062    1.8276    1.2864 C   0  0  0  0  0  0  0  0  0  0  0  0
   -2.4047    1.9063   -0.5609 C   0  0  0  0  0  0  0  0  0  0  0  0
   -3.2996    0.8687   -0.3998 C   0  0  0  0  0  0  0  0  0  0  0  0
   -4.7240    1.2570   -0.5585 C   0  0  0  0  0  0  0  0  0  0  0  0
   -4.9975    2.3577    0.4822 C   0  0  0  0  0  0  0  0  0  0  0  0
   -4.0033    3.5197    0.3044 C   0  0  0  0  0  0  0  0  0  0  0  0
   -3.0285    3.2194   -0.8506 C   0  0  0  0  0  0  0  0  0  0  0  0
   -3.8663    3.0400   -2.1318 C   0  0  0  0  0  0  0  0  0  0  0  0
   -4.8685    1.8841   -1.9574 C   0  0  0  0  0  0  0  0  0  0  0  0
   -6.1446   -1.1374    2.7436 H   0  0  0  0  0  0  0  0  0  0  0  0
   -4.7187   -1.5776    3.7282 H   0  0  0  0  0  0  0  0  0  0  0  0
   -5.1513    0.1327    3.4977 H   0  0  0  0  0  0  0  0  0  0  0  0
   -5.2754   -3.2224    2.1682 H   0  0  0  0  0  0  0  0  0  0  0  0
   -4.6506   -5.1026    0.7512 H   0  0  0  0  0  0  0  0  0  0  0  0
   -3.0306   -4.8000   -1.0914 H   0  0  0  0  0  0  0  0  0  0  0  0
   -2.0503   -2.5761   -1.4994 H   0  0  0  0  0  0  0  0  0  0  0  0
    0.1966    3.0447   -0.5538 H   0  0  0  0  0  0  0  0  0  0  0  0
    1.7460   -2.1226    2.3503 H   0  0  0  0  0  0  0  0  0  0  0  0
    2.4324   -4.4520    2.7695 H   0  0  0  0  0  0  0  0  0  0  0  0
    3.9608   -5.5797    1.1872 H   0  0  0  0  0  0  0  0  0  0  0  0
    4.7836   -4.4079   -0.7834 H   0  0  0  0  0  0  0  0  0  0  0  0
    4.4033   -3.3567   -2.8333 H   0  0  0  0  0  0  0  0  0  0  0  0
    5.0516   -1.7419   -3.2043 H   0  0  0  0  0  0  0  0  0  0  0  0
    5.8936   -2.7817   -2.0302 H   0  0  0  0  0  0  0  0  0  0  0  0
    5.4331   -0.1310    0.3828 H   0  0  0  0  0  0  0  0  0  0  0  0
    5.0672    0.6597   -1.9430 H   0  0  0  0  0  0  0  0  0  0  0  0
    6.3051    1.6384   -1.1527 H   0  0  0  0  0  0  0  0  0  0  0  0
    5.0508    3.5366   -1.5268 H   0  0  0  0  0  0  0  0  0  0  0  0
    3.8364    2.5589   -2.3494 H   0  0  0  0  0  0  0  0  0  0  0  0
    2.8113    3.7943   -0.4486 H   0  0  0  0  0  0  0  0  0  0  0  0
    4.9002    3.9617    0.9067 H   0  0  0  0  0  0  0  0  0  0  0  0
    3.5870    3.2753    1.8608 H   0  0  0  0  0  0  0  0  0  0  0  0
    6.1681    2.0782    1.2978 H   0  0  0  0  0  0  0  0  0  0  0  0
    4.8561    1.3982    2.2576 H   0  0  0  0  0  0  0  0  0  0  0  0
   -5.4150    0.4219   -0.4333 H   0  0  0  0  0  0  0  0  0  0  0  0
   -6.0235    2.7109    0.3669 H   0  0  0  0  0  0  0  0  0  0  0  0
   -4.8997    1.9233    1.4766 H   0  0  0  0  0  0  0  0  0  0  0  0
   -3.4310    3.6739    1.2203 H   0  0  0  0  0  0  0  0  0  0  0  0
   -4.5335    4.4475    0.0830 H   0  0  0  0  0  0  0  0  0  0  0  0
   -2.3066    4.0305   -0.9705 H   0  0  0  0  0  0  0  0  0  0  0  0
   -4.3910    3.9733   -2.3420 H   0  0  0  0  0  0  0  0  0  0  0  0
   -3.1961    2.8398   -2.9691 H   0  0  0  0  0  0  0  0  0  0  0  0
   -4.6960    1.1148   -2.7115 H   0  0  0  0  0  0  0  0  0  0  0  0
   -5.8912    2.2447   -2.0789 H   0  0  0  0  0  0  0  0  0  0  0  0
  1  2  1  0  0  0  0
  2  3  1  0  0  0  0
  3  4  2  0  0  0  0
  4  5  1  0  0  0  0
  5  6  2  0  0  0  0
  6  7  1  0  0  0  0
  7  8  2  0  0  0  0
  8  9  1  0  0  0  0
  9 10  2  0  0  0  0
 10 11  1  0  0  0  0
 11 12  2  0  0  0  0
 12 13  1  0  0  0  0
 13 14  2  0  0  0  0
 14 15  1  0  0  0  0
 15 16  2  0  0  0  0
 16 17  1  0  0  0  0
 17 18  2  0  0  0  0
 18 19  1  0  0  0  0
 19 20  2  0  0  0  0
 20 21  1  0  0  0  0
 21 22  2  0  0  0  0
 22 23  1  0  0  0  0
 23 24  1  0  0  0  0
 16 25  1  0  0  0  0
 25 26  1  0  0  0  0
 26 27  1  0  0  0  0
 26 28  1  0  0  0  0
 15 29  1  0  0  0  0
 29 30  1  0  0  0  0
 30 31  1  0  0  0  0
 31 32  1  0  0  0  0
 32 33  1  0  0  0  0
 33 34  1  0  0  0  0
 11 35  1  0  0  0  0
 35 36  2  0  0  0  0
 36 37  1  0  0  0  0
 37 38  1  0  0  0  0
 38 39  1  0  0  0  0
 39 40  1  0  0  0  0
 40 41  1  0  0  0  0
 41 42  1  0  0  0  0
  8  3  1  0  0  0  0
 36  9  1  0  0  0  0
 42 37  1  0  0  0  0
 26 10  1  0  0  0  0
 34 29  1  0  0  0  0
 40 35  1  0  0  0  0
 25 13  1  0  0  0  0
 32 14  1  0  0  0  0
 22 17  1  0  0  0  0
  1 43  1  0  0  0  0
  1 44  1  0  0  0  0
  1 45  1  0  0  0  0
  4 46  1  0  0  0  0
  5 47  1  0  0  0  0
  6 48  1  0  0  0  0
  7 49  1  0  0  0  0
 12 50  1  0  0  0  0
 18 51  1  0  0  0  0
 19 52  1  0  0  0  0
 20 53  1  0  0  0  0
 21 54  1  0  0  0  0
 24 55  1  0  0  0  0
 24 56  1  0  0  0  0
 24 57  1  0  0  0  0
 29 58  1  0  0  0  0
 30 59  1  0  0  0  0
 30 60  1  0  0  0  0
 31 61  1  0  0  0  0
 31 62  1  0  0  0  0
 32 63  1  0  0  0  0
 33 64  1  0  0  0  0
 33 65  1  0  0  0  0
 34 66  1  0  0  0  0
 34 67  1  0  0  0  0
 37 68  1  0  0  0  0
 38 69  1  0  0  0  0
 38 70  1  0  0  0  0
 39 71  1  0  0  0  0
 39 72  1  0  0  0  0
 40 73  1  0  0  0  0
 41 74  1  0  0  0  0
 41 75  1  0  0  0  0
 42 76  1  0  0  0  0
 42 77  1  0  0  0  0
M  CHG  1  10   1
M  CHG  1  26  -1
M  END
