
  xtb     03022214223D
 energy: -123.212073012992 gnorm: 0.000066414914 xtb: 6.4.1 (afa7bdf)
 82 88  0     0  0            999 V2000
    3.5373   -0.1718    2.2107 C   0  0  0  0  0  0  0  0  0  0  0  0
    2.2931   -0.0099    1.7314 C   0  0  0  0  0  0  0  0  0  0  0  0
    1.1223   -0.0823    2.5783 C   0  0  0  0  0  0  0  0  0  0  0  0
   -0.1629    0.0087    2.0401 C   0  0  0  0  0  0  0  0  0  0  0  0
   -1.2466   -0.0667    2.9161 C   0  0  0  0  0  0  0  0  0  0  0  0
   -2.6370   -0.0029    2.5162 C   0  0  0  0  0  0  0  0  0  0  0  0
   -3.0896   -0.0624    1.2540 C   0  0  0  0  0  0  0  0  0  0  0  0
   -4.4723   -0.0208    0.8345 C   0  0  0  0  0  0  0  0  0  0  0  0
   -5.5344    0.2434    1.7068 C   0  0  0  0  0  0  0  0  0  0  0  0
   -6.8349    0.2685    1.2597 C   0  0  0  0  0  0  0  0  0  0  0  0
   -7.1334    0.0263   -0.0845 C   0  0  0  0  0  0  0  0  0  0  0  0
   -8.4505    0.0464   -0.5365 N   0  0  0  0  0  0  0  0  0  0  0  0
   -9.3735    0.9428    0.0185 C   0  0  0  0  0  0  0  0  0  0  0  0
  -10.6963    0.5548    0.2274 C   0  0  0  0  0  0  0  0  0  0  0  0
  -11.6049    1.4453    0.7655 C   0  0  0  0  0  0  0  0  0  0  0  0
  -11.2111    2.7280    1.1100 C   0  0  0  0  0  0  0  0  0  0  0  0
   -9.8970    3.1169    0.9074 C   0  0  0  0  0  0  0  0  0  0  0  0
   -8.9829    2.2366    0.3621 C   0  0  0  0  0  0  0  0  0  0  0  0
   -8.8602   -0.8301   -1.5501 C   0  0  0  0  0  0  0  0  0  0  0  0
   -9.7622   -0.4087   -2.5263 C   0  0  0  0  0  0  0  0  0  0  0  0
  -10.1697   -1.2794   -3.5183 C   0  0  0  0  0  0  0  0  0  0  0  0
   -9.6820   -2.5753   -3.5587 C   0  0  0  0  0  0  0  0  0  0  0  0
   -8.7835   -2.9977   -2.5927 C   0  0  0  0  0  0  0  0  0  0  0  0
   -8.3762   -2.1373   -1.5918 C   0  0  0  0  0  0  0  0  0  0  0  0
   -6.0805   -0.2349   -0.9651 C   0  0  0  0  0  0  0  0  0  0  0  0
   -4.7820   -0.2531   -0.5109 C   0  0  0  0  0  0  0  0  0  0  0  0
   -1.0377   -0.2010    4.2353 N   0  0  0  0  0  0  0  0  0  0  0  0
    0.2121   -0.2804    4.6403 C   0  0  0  0  0  0  0  0  0  0  0  0
    1.2984   -0.2369    3.8995 N   0  0  0  0  0  0  0  0  0  0  0  0
    4.7720   -0.1203    1.4650 C   0  0  0  0  0  0  0  0  0  0  0  0
    4.8457    0.2740    0.1240 C   0  0  0  0  0  0  0  0  0  0  0  0
    6.0480    0.3131   -0.5434 C   0  0  0  0  0  0  0  0  0  0  0  0
    7.2342   -0.0473    0.1025 C   0  0  0  0  0  0  0  0  0  0  0  0
    8.4515   -0.0075   -0.5740 N   0  0  0  0  0  0  0  0  0  0  0  0
    9.4382   -0.9648   -0.3046 C   0  0  0  0  0  0  0  0  0  0  0  0
   10.7853   -0.6055   -0.2857 C   0  0  0  0  0  0  0  0  0  0  0  0
   11.7545   -1.5557   -0.0291 C   0  0  0  0  0  0  0  0  0  0  0  0
   11.3993   -2.8714    0.2195 C   0  0  0  0  0  0  0  0  0  0  0  0
   10.0619   -3.2324    0.2053 C   0  0  0  0  0  0  0  0  0  0  0  0
    9.0858   -2.2914   -0.0583 C   0  0  0  0  0  0  0  0  0  0  0  0
    8.6964    0.9942   -1.5223 C   0  0  0  0  0  0  0  0  0  0  0  0
    8.2371    2.2938   -1.3107 C   0  0  0  0  0  0  0  0  0  0  0  0
    8.4820    3.2787   -2.2476 C   0  0  0  0  0  0  0  0  0  0  0  0
    9.1922    2.9890   -3.4012 C   0  0  0  0  0  0  0  0  0  0  0  0
    9.6543    1.7005   -3.6136 C   0  0  0  0  0  0  0  0  0  0  0  0
    9.4077    0.7065   -2.6865 C   0  0  0  0  0  0  0  0  0  0  0  0
    7.1726   -0.4441    1.4409 C   0  0  0  0  0  0  0  0  0  0  0  0
    5.9673   -0.4731    2.1034 C   0  0  0  0  0  0  0  0  0  0  0  0
    3.6289   -0.3742    3.2701 H   0  0  0  0  0  0  0  0  0  0  0  0
    2.1025    0.1715    0.6829 H   0  0  0  0  0  0  0  0  0  0  0  0
   -0.3003    0.1411    0.9788 H   0  0  0  0  0  0  0  0  0  0  0  0
   -3.3179    0.0630    3.3521 H   0  0  0  0  0  0  0  0  0  0  0  0
   -2.3803   -0.1755    0.4432 H   0  0  0  0  0  0  0  0  0  0  0  0
   -5.3378    0.4302    2.7507 H   0  0  0  0  0  0  0  0  0  0  0  0
   -7.6402    0.4677    1.9516 H   0  0  0  0  0  0  0  0  0  0  0  0
  -11.0031   -0.4478   -0.0323 H   0  0  0  0  0  0  0  0  0  0  0  0
  -12.6263    1.1322    0.9243 H   0  0  0  0  0  0  0  0  0  0  0  0
  -11.9233    3.4199    1.5330 H   0  0  0  0  0  0  0  0  0  0  0  0
   -9.5824    4.1168    1.1675 H   0  0  0  0  0  0  0  0  0  0  0  0
   -7.9614    2.5453    0.1943 H   0  0  0  0  0  0  0  0  0  0  0  0
  -10.1369    0.6042   -2.5013 H   0  0  0  0  0  0  0  0  0  0  0  0
  -10.8674   -0.9403   -4.2698 H   0  0  0  0  0  0  0  0  0  0  0  0
  -10.0006   -3.2517   -4.3372 H   0  0  0  0  0  0  0  0  0  0  0  0
   -8.4031   -4.0084   -2.6124 H   0  0  0  0  0  0  0  0  0  0  0  0
   -7.6846   -2.4720   -0.8325 H   0  0  0  0  0  0  0  0  0  0  0  0
   -6.2934   -0.4132   -2.0090 H   0  0  0  0  0  0  0  0  0  0  0  0
   -3.9817   -0.4493   -1.2107 H   0  0  0  0  0  0  0  0  0  0  0  0
    0.3639   -0.3940    5.7078 H   0  0  0  0  0  0  0  0  0  0  0  0
    3.9476    0.5560   -0.4033 H   0  0  0  0  0  0  0  0  0  0  0  0
    6.0828    0.6172   -1.5796 H   0  0  0  0  0  0  0  0  0  0  0  0
   11.0637    0.4218   -0.4704 H   0  0  0  0  0  0  0  0  0  0  0  0
   12.7944   -1.2644   -0.0151 H   0  0  0  0  0  0  0  0  0  0  0  0
   12.1594   -3.6104    0.4224 H   0  0  0  0  0  0  0  0  0  0  0  0
    9.7761   -4.2571    0.3921 H   0  0  0  0  0  0  0  0  0  0  0  0
    8.0442   -2.5770   -0.0799 H   0  0  0  0  0  0  0  0  0  0  0  0
    7.6929    2.5242   -0.4064 H   0  0  0  0  0  0  0  0  0  0  0  0
    8.1235    4.2821   -2.0705 H   0  0  0  0  0  0  0  0  0  0  0  0
    9.3850    3.7623   -4.1291 H   0  0  0  0  0  0  0  0  0  0  0  0
   10.2048    1.4646   -4.5125 H   0  0  0  0  0  0  0  0  0  0  0  0
    9.7614   -0.2997   -2.8578 H   0  0  0  0  0  0  0  0  0  0  0  0
    8.0828   -0.7166    1.9550 H   0  0  0  0  0  0  0  0  0  0  0  0
    5.9394   -0.7713    3.1415 H   0  0  0  0  0  0  0  0  0  0  0  0
  1  2  2  0  0  0  0
  2  3  1  0  0  0  0
  3  4  2  0  0  0  0
  4  5  1  0  0  0  0
  5  6  1  0  0  0  0
  6  7  2  0  0  0  0
  7  8  1  0  0  0  0
  8  9  2  0  0  0  0
  9 10  1  0  0  0  0
 10 11  2  0  0  0  0
 11 12  1  0  0  0  0
 12 13  1  0  0  0  0
 13 14  2  0  0  0  0
 14 15  1  0  0  0  0
 15 16  2  0  0  0  0
 16 17  1  0  0  0  0
 17 18  2  0  0  0  0
 12 19  1  0  0  0  0
 19 20  2  0  0  0  0
 20 21  1  0  0  0  0
 21 22  2  0  0  0  0
 22 23  1  0  0  0  0
 23 24  2  0  0  0  0
 11 25  1  0  0  0  0
 25 26  2  0  0  0  0
  5 27  2  0  0  0  0
 27 28  1  0  0  0  0
 28 29  2  0  0  0  0
  1 30  1  0  0  0  0
 30 31  2  0  0  0  0
 31 32  1  0  0  0  0
 32 33  2  0  0  0  0
 33 34  1  0  0  0  0
 34 35  1  0  0  0  0
 35 36  2  0  0  0  0
 36 37  1  0  0  0  0
 37 38  2  0  0  0  0
 38 39  1  0  0  0  0
 39 40  2  0  0  0  0
 34 41  1  0  0  0  0
 41 42  2  0  0  0  0
 42 43  1  0  0  0  0
 43 44  2  0  0  0  0
 44 45  1  0  0  0  0
 45 46  2  0  0  0  0
 33 47  1  0  0  0  0
 47 48  2  0  0  0  0
 29  3  1  0  0  0  0
 48 30  1  0  0  0  0
 26  8  1  0  0  0  0
 40 35  1  0  0  0  0
 46 41  1  0  0  0  0
 18 13  1  0  0  0  0
 24 19  1  0  0  0  0
  1 49  1  0  0  0  0
  2 50  1  0  0  0  0
  4 51  1  0  0  0  0
  6 52  1  0  0  0  0
  7 53  1  0  0  0  0
  9 54  1  0  0  0  0
 10 55  1  0  0  0  0
 14 56  1  0  0  0  0
 15 57  1  0  0  0  0
 16 58  1  0  0  0  0
 17 59  1  0  0  0  0
 18 60  1  0  0  0  0
 20 61  1  0  0  0  0
 21 62  1  0  0  0  0
 22 63  1  0  0  0  0
 23 64  1  0  0  0  0
 24 65  1  0  0  0  0
 25 66  1  0  0  0  0
 26 67  1  0  0  0  0
 28 68  1  0  0  0  0
 31 69  1  0  0  0  0
 32 70  1  0  0  0  0
 36 71  1  0  0  0  0
 37 72  1  0  0  0  0
 38 73  1  0  0  0  0
 39 74  1  0  0  0  0
 40 75  1  0  0  0  0
 42 76  1  0  0  0  0
 43 77  1  0  0  0  0
 44 78  1  0  0  0  0
 45 79  1  0  0  0  0
 46 80  1  0  0  0  0
 47 81  1  0  0  0  0
 48 82  1  0  0  0  0
M  END
