
  xtb     03022212453D
 energy: -64.704812281861 gnorm: 0.000255881547 xtb: 6.4.1 (afa7bdf)
 50 53  0     0  0            999 V2000
   -6.4706   -1.1360    0.7490 C   0  0  0  0  0  0  0  0  0  0  0  0
   -6.3419    0.2050    0.0353 C   0  0  0  0  0  0  0  0  0  0  0  0
   -4.8931    0.6672   -0.1172 C   0  0  0  0  0  0  0  0  0  0  0  0
   -4.0874   -0.1927   -1.1001 C   0  0  0  0  0  0  0  0  0  0  0  0
   -2.6828    0.3248   -1.2273 C   0  0  0  0  0  0  0  0  0  0  0  0
   -2.3745    1.1589   -2.2939 C   0  0  0  0  0  0  0  0  0  0  0  0
   -1.1152    1.6976   -2.4535 C   0  0  0  0  0  0  0  0  0  0  0  0
   -0.1054    1.4186   -1.5338 C   0  0  0  0  0  0  0  0  0  0  0  0
    1.2024    1.9640   -1.6637 C   0  0  0  0  0  0  0  0  0  0  0  0
    2.1757    1.6877   -0.7665 C   0  0  0  0  0  0  0  0  0  0  0  0
    1.9378    0.8362    0.3546 C   0  0  0  0  0  0  0  0  0  0  0  0
    2.9340    0.5298    1.2984 C   0  0  0  0  0  0  0  0  0  0  0  0
    4.3444    1.0294    1.1581 C   0  0  0  0  0  0  0  0  0  0  0  0
    5.1357    0.2203    0.1198 C   0  0  0  0  0  0  0  0  0  0  0  0
    5.3249   -1.2342    0.5412 C   0  0  0  0  0  0  0  0  0  0  0  0
    6.1247   -2.0186   -0.4913 C   0  0  0  0  0  0  0  0  0  0  0  0
    2.6193   -0.2893    2.3751 C   0  0  0  0  0  0  0  0  0  0  0  0
    1.3572   -0.8201    2.5398 C   0  0  0  0  0  0  0  0  0  0  0  0
    0.3497   -0.5475    1.6159 C   0  0  0  0  0  0  0  0  0  0  0  0
   -0.9593   -1.0895    1.7483 C   0  0  0  0  0  0  0  0  0  0  0  0
   -1.9304   -0.8190    0.8471 C   0  0  0  0  0  0  0  0  0  0  0  0
   -1.6895    0.0254   -0.2785 C   0  0  0  0  0  0  0  0  0  0  0  0
   -0.3879    0.5751   -0.4320 C   0  0  0  0  0  0  0  0  0  0  0  0
    0.6345    0.2909    0.5108 C   0  0  0  0  0  0  0  0  0  0  0  0
   -6.0165   -1.9358    0.1690 H   0  0  0  0  0  0  0  0  0  0  0  0
   -5.9863   -1.0962    1.7227 H   0  0  0  0  0  0  0  0  0  0  0  0
   -7.5189   -1.3844    0.8991 H   0  0  0  0  0  0  0  0  0  0  0  0
   -6.8069    0.1381   -0.9512 H   0  0  0  0  0  0  0  0  0  0  0  0
   -6.8875    0.9603    0.6063 H   0  0  0  0  0  0  0  0  0  0  0  0
   -4.8841    1.6989   -0.4778 H   0  0  0  0  0  0  0  0  0  0  0  0
   -4.4042    0.6590    0.8594 H   0  0  0  0  0  0  0  0  0  0  0  0
   -4.0824   -1.2320   -0.7717 H   0  0  0  0  0  0  0  0  0  0  0  0
   -4.5745   -0.1566   -2.0773 H   0  0  0  0  0  0  0  0  0  0  0  0
   -3.1443    1.3882   -3.0180 H   0  0  0  0  0  0  0  0  0  0  0  0
   -0.9018    2.3422   -3.2944 H   0  0  0  0  0  0  0  0  0  0  0  0
    1.3996    2.6135   -2.5054 H   0  0  0  0  0  0  0  0  0  0  0  0
    3.1531    2.1251   -0.8958 H   0  0  0  0  0  0  0  0  0  0  0  0
    4.3487    2.0835    0.8733 H   0  0  0  0  0  0  0  0  0  0  0  0
    4.8501    0.9485    2.1229 H   0  0  0  0  0  0  0  0  0  0  0  0
    6.1157    0.6848   -0.0177 H   0  0  0  0  0  0  0  0  0  0  0  0
    4.6137    0.2469   -0.8389 H   0  0  0  0  0  0  0  0  0  0  0  0
    4.3464   -1.7011    0.6734 H   0  0  0  0  0  0  0  0  0  0  0  0
    5.8433   -1.2683    1.5027 H   0  0  0  0  0  0  0  0  0  0  0  0
    7.1109   -1.5788   -0.6269 H   0  0  0  0  0  0  0  0  0  0  0  0
    6.2507   -3.0512   -0.1741 H   0  0  0  0  0  0  0  0  0  0  0  0
    5.6138   -2.0151   -1.4518 H   0  0  0  0  0  0  0  0  0  0  0  0
    3.3871   -0.5163    3.1017 H   0  0  0  0  0  0  0  0  0  0  0  0
    1.1411   -1.4556    3.3869 H   0  0  0  0  0  0  0  0  0  0  0  0
   -1.1591   -1.7308    2.5958 H   0  0  0  0  0  0  0  0  0  0  0  0
   -2.9097   -1.2507    0.9807 H   0  0  0  0  0  0  0  0  0  0  0  0
  1  2  1  0  0  0  0
  2  3  1  0  0  0  0
  3  4  1  0  0  0  0
  4  5  1  0  0  0  0
  5  6  2  0  0  0  0
  6  7  1  0  0  0  0
  7  8  2  0  0  0  0
  8  9  1  0  0  0  0
  9 10  2  0  0  0  0
 10 11  1  0  0  0  0
 11 12  2  0  0  0  0
 12 13  1  0  0  0  0
 13 14  1  0  0  0  0
 14 15  1  0  0  0  0
 15 16  1  0  0  0  0
 12 17  1  0  0  0  0
 17 18  2  0  0  0  0
 18 19  1  0  0  0  0
 19 20  2  0  0  0  0
 20 21  1  0  0  0  0
 21 22  2  0  0  0  0
 22 23  1  0  0  0  0
 23 24  2  0  0  0  0
 22  5  1  0  0  0  0
 23  8  1  0  0  0  0
 24 11  1  0  0  0  0
 24 19  1  0  0  0  0
  1 25  1  0  0  0  0
  1 26  1  0  0  0  0
  1 27  1  0  0  0  0
  2 28  1  0  0  0  0
  2 29  1  0  0  0  0
  3 30  1  0  0  0  0
  3 31  1  0  0  0  0
  4 32  1  0  0  0  0
  4 33  1  0  0  0  0
  6 34  1  0  0  0  0
  7 35  1  0  0  0  0
  9 36  1  0  0  0  0
 10 37  1  0  0  0  0
 13 38  1  0  0  0  0
 13 39  1  0  0  0  0
 14 40  1  0  0  0  0
 14 41  1  0  0  0  0
 15 42  1  0  0  0  0
 15 43  1  0  0  0  0
 16 44  1  0  0  0  0
 16 45  1  0  0  0  0
 16 46  1  0  0  0  0
 17 47  1  0  0  0  0
 18 48  1  0  0  0  0
 20 49  1  0  0  0  0
 21 50  1  0  0  0  0
M  END
