
  xtb     03022212403D
 energy: -132.268136111341 gnorm: 0.000214110925 xtb: 6.4.1 (afa7bdf)
 89 97  0     0  0            999 V2000
  -11.3613    2.4190    1.5643 C   0  0  0  0  0  0  0  0  0  0  0  0
   -9.9117    2.4750    1.0968 C   0  0  0  0  0  0  0  0  0  0  0  0
   -8.9122    2.0760    2.1839 C   0  0  0  0  0  0  0  0  0  0  0  0
   -9.0660    0.6500    2.7179 C   0  0  0  0  0  0  0  0  0  0  0  0
   -8.9629   -0.4540    1.6642 C   0  0  0  0  0  0  0  0  0  0  0  0
   -7.5943   -0.5168    0.9927 C   0  0  0  0  0  0  0  0  0  0  0  0
   -6.6328   -0.8150    1.9845 O   0  0  0  0  0  0  0  0  0  0  0  0
   -5.3219   -0.8692    1.6343 C   0  0  0  0  0  0  0  0  0  0  0  0
   -4.4399   -1.1409    2.7015 C   0  0  0  0  0  0  0  0  0  0  0  0
   -3.0836   -1.2111    2.5128 C   0  0  0  0  0  0  0  0  0  0  0  0
   -2.5767   -1.0252    1.2277 C   0  0  0  0  0  0  0  0  0  0  0  0
   -3.4600   -0.7678    0.1435 C   0  0  0  0  0  0  0  0  0  0  0  0
   -4.8378   -0.6784    0.3529 C   0  0  0  0  0  0  0  0  0  0  0  0
   -2.6405   -0.5986   -1.0152 C   0  0  0  0  0  0  0  0  0  0  0  0
   -1.3663   -0.8069   -0.6517 N   0  0  0  0  0  4  0  0  0  0  0  0
   -1.2481   -0.9859    0.7054 C   0  0  0  0  0  0  0  0  0  0  0  0
   -0.0069   -0.9022    1.3188 C   0  0  0  0  0  0  0  0  0  0  0  0
    1.1323   -0.6653    0.5635 C   0  0  0  0  0  0  0  0  0  0  0  0
    2.5235   -0.7129    0.8821 C   0  0  0  0  0  0  0  0  0  0  0  0
    3.2150   -0.8000    2.0892 C   0  0  0  0  0  0  0  0  0  0  0  0
    4.5838   -0.8738    2.0589 C   0  0  0  0  0  0  0  0  0  0  0  0
    5.2968   -0.8827    0.8415 C   0  0  0  0  0  0  0  0  0  0  0  0
    6.6455   -0.9736    0.9784 O   0  0  0  0  0  0  0  0  0  0  0  0
    7.4537   -0.9811   -0.1802 C   0  0  0  0  0  0  0  0  0  0  0  0
    8.9105   -1.0619    0.2645 C   0  0  0  0  0  0  0  0  0  0  0  0
    9.3492    0.1994    1.0051 C   0  0  0  0  0  0  0  0  0  0  0  0
   10.7942    0.0966    1.4863 C   0  0  0  0  0  0  0  0  0  0  0  0
   11.2431    1.3028    2.3119 C   0  0  0  0  0  0  0  0  0  0  0  0
   11.3484    2.5852    1.4946 C   0  0  0  0  0  0  0  0  0  0  0  0
    4.6281   -0.8070   -0.3666 C   0  0  0  0  0  0  0  0  0  0  0  0
    3.2351   -0.7086   -0.3492 C   0  0  0  0  0  0  0  0  0  0  0  0
    2.2520   -0.6402   -1.3846 C   0  0  0  0  0  0  0  0  0  0  0  0
    1.0479   -0.5420   -0.8020 N   0  0  0  0  0  0  0  0  0  0  0  0
   -0.2253   -0.5760   -1.6155 B   0  0  0  0  0  4  0  0  0  0  0  0
   -0.5461    0.6787   -2.3424 O   0  0  0  0  0  0  0  0  0  0  0  0
   -1.7770    0.7149   -2.8626 C   0  0  0  0  0  0  0  0  0  0  0  0
   -2.0046    1.5107   -3.9856 C   0  0  0  0  0  0  0  0  0  0  0  0
   -3.2466    1.5498   -4.5839 C   0  0  0  0  0  0  0  0  0  0  0  0
   -4.2982    0.7966   -4.0763 C   0  0  0  0  0  0  0  0  0  0  0  0
   -4.1103    0.0389   -2.9409 C   0  0  0  0  0  0  0  0  0  0  0  0
   -2.8704   -0.0009   -2.3006 C   0  0  0  0  0  0  0  0  0  0  0  0
   -0.0336   -1.6347   -2.6384 O   0  0  0  0  0  0  0  0  0  0  0  0
    1.1073   -1.5337   -3.3281 C   0  0  0  0  0  0  0  0  0  0  0  0
    1.1555   -2.0596   -4.6193 C   0  0  0  0  0  0  0  0  0  0  0  0
    2.2952   -1.9440   -5.3872 C   0  0  0  0  0  0  0  0  0  0  0  0
    3.4209   -1.3017   -4.8864 C   0  0  0  0  0  0  0  0  0  0  0  0
    3.4133   -0.8151   -3.5974 C   0  0  0  0  0  0  0  0  0  0  0  0
    2.2818   -0.9385   -2.7891 C   0  0  0  0  0  0  0  0  0  0  0  0
  -12.0221    2.8055    0.7913 H   0  0  0  0  0  0  0  0  0  0  0  0
  -11.4947    3.0208    2.4607 H   0  0  0  0  0  0  0  0  0  0  0  0
  -11.6622    1.3985    1.7865 H   0  0  0  0  0  0  0  0  0  0  0  0
   -9.7863    1.8348    0.2215 H   0  0  0  0  0  0  0  0  0  0  0  0
   -9.6814    3.4968    0.7846 H   0  0  0  0  0  0  0  0  0  0  0  0
   -7.9004    2.2104    1.7957 H   0  0  0  0  0  0  0  0  0  0  0  0
   -9.0244    2.7620    3.0273 H   0  0  0  0  0  0  0  0  0  0  0  0
  -10.0301    0.5557    3.2203 H   0  0  0  0  0  0  0  0  0  0  0  0
   -8.2879    0.4795    3.4640 H   0  0  0  0  0  0  0  0  0  0  0  0
   -9.7203   -0.3195    0.8915 H   0  0  0  0  0  0  0  0  0  0  0  0
   -9.1442   -1.4139    2.1514 H   0  0  0  0  0  0  0  0  0  0  0  0
   -7.5955   -1.3025    0.2230 H   0  0  0  0  0  0  0  0  0  0  0  0
   -7.3588    0.4406    0.5107 H   0  0  0  0  0  0  0  0  0  0  0  0
   -4.8757   -1.2844    3.6778 H   0  0  0  0  0  0  0  0  0  0  0  0
   -2.4218   -1.4106    3.3416 H   0  0  0  0  0  0  0  0  0  0  0  0
   -5.4964   -0.4584   -0.4697 H   0  0  0  0  0  0  0  0  0  0  0  0
    0.0729   -1.0208    2.3871 H   0  0  0  0  0  0  0  0  0  0  0  0
    2.6837   -0.8035    3.0285 H   0  0  0  0  0  0  0  0  0  0  0  0
    5.1599   -0.9356    2.9687 H   0  0  0  0  0  0  0  0  0  0  0  0
    7.2879   -0.0638   -0.7628 H   0  0  0  0  0  0  0  0  0  0  0  0
    7.2023   -1.8475   -0.8085 H   0  0  0  0  0  0  0  0  0  0  0  0
    9.0231   -1.9279    0.9188 H   0  0  0  0  0  0  0  0  0  0  0  0
    9.5358   -1.2144   -0.6172 H   0  0  0  0  0  0  0  0  0  0  0  0
    8.6894    0.3505    1.8609 H   0  0  0  0  0  0  0  0  0  0  0  0
    9.2402    1.0567    0.3387 H   0  0  0  0  0  0  0  0  0  0  0  0
   10.8955   -0.8029    2.0985 H   0  0  0  0  0  0  0  0  0  0  0  0
   11.4562   -0.0157    0.6240 H   0  0  0  0  0  0  0  0  0  0  0  0
   10.5431    1.4544    3.1365 H   0  0  0  0  0  0  0  0  0  0  0  0
   12.2214    1.0819    2.7458 H   0  0  0  0  0  0  0  0  0  0  0  0
   12.0116    2.4409    0.6443 H   0  0  0  0  0  0  0  0  0  0  0  0
   11.7477    3.3906    2.1069 H   0  0  0  0  0  0  0  0  0  0  0  0
   10.3746    2.8943    1.1245 H   0  0  0  0  0  0  0  0  0  0  0  0
    5.1572   -0.8323   -1.3037 H   0  0  0  0  0  0  0  0  0  0  0  0
   -1.1739    2.0712   -4.3859 H   0  0  0  0  0  0  0  0  0  0  0  0
   -3.3951    2.1565   -5.4650 H   0  0  0  0  0  0  0  0  0  0  0  0
   -5.2597    0.8091   -4.5669 H   0  0  0  0  0  0  0  0  0  0  0  0
   -4.9206   -0.5554   -2.5483 H   0  0  0  0  0  0  0  0  0  0  0  0
    0.2667   -2.5335   -5.0064 H   0  0  0  0  0  0  0  0  0  0  0  0
    2.3033   -2.3397   -6.3922 H   0  0  0  0  0  0  0  0  0  0  0  0
    4.2997   -1.1891   -5.5033 H   0  0  0  0  0  0  0  0  0  0  0  0
    4.2816   -0.3076   -3.2071 H   0  0  0  0  0  0  0  0  0  0  0  0
  1  2  1  0  0  0  0
  2  3  1  0  0  0  0
  3  4  1  0  0  0  0
  4  5  1  0  0  0  0
  5  6  1  0  0  0  0
  6  7  1  0  0  0  0
  7  8  1  0  0  0  0
  8  9  2  0  0  0  0
  9 10  1  0  0  0  0
 10 11  2  0  0  0  0
 11 12  1  0  0  0  0
 12 13  2  0  0  0  0
 12 14  1  0  0  0  0
 14 15  2  0  0  0  0
 15 16  1  0  0  0  0
 16 17  2  0  0  0  0
 17 18  1  0  0  0  0
 18 19  2  0  0  0  0
 19 20  1  0  0  0  0
 20 21  2  0  0  0  0
 21 22  1  0  0  0  0
 22 23  1  0  0  0  0
 23 24  1  0  0  0  0
 24 25  1  0  0  0  0
 25 26  1  0  0  0  0
 26 27  1  0  0  0  0
 27 28  1  0  0  0  0
 28 29  1  0  0  0  0
 22 30  2  0  0  0  0
 30 31  1  0  0  0  0
 31 32  2  0  0  0  0
 32 33  1  0  0  0  0
 33 34  1  0  0  0  0
 34 35  1  0  0  0  0
 35 36  1  0  0  0  0
 36 37  2  0  0  0  0
 37 38  1  0  0  0  0
 38 39  2  0  0  0  0
 39 40  1  0  0  0  0
 40 41  2  0  0  0  0
 34 42  1  0  0  0  0
 42 43  1  0  0  0  0
 43 44  2  0  0  0  0
 44 45  1  0  0  0  0
 45 46  2  0  0  0  0
 46 47  1  0  0  0  0
 47 48  2  0  0  0  0
 13  8  1  0  0  0  0
 41 14  1  0  0  0  0
 48 43  1  0  0  0  0
 16 11  1  0  0  0  0
 33 18  1  0  0  0  0
 41 36  1  0  0  0  0
 34 15  1  0  0  0  0
 31 19  1  0  0  0  0
 48 32  1  0  0  0  0
  1 49  1  0  0  0  0
  1 50  1  0  0  0  0
  1 51  1  0  0  0  0
  2 52  1  0  0  0  0
  2 53  1  0  0  0  0
  3 54  1  0  0  0  0
  3 55  1  0  0  0  0
  4 56  1  0  0  0  0
  4 57  1  0  0  0  0
  5 58  1  0  0  0  0
  5 59  1  0  0  0  0
  6 60  1  0  0  0  0
  6 61  1  0  0  0  0
  9 62  1  0  0  0  0
 10 63  1  0  0  0  0
 13 64  1  0  0  0  0
 17 65  1  0  0  0  0
 20 66  1  0  0  0  0
 21 67  1  0  0  0  0
 24 68  1  0  0  0  0
 24 69  1  0  0  0  0
 25 70  1  0  0  0  0
 25 71  1  0  0  0  0
 26 72  1  0  0  0  0
 26 73  1  0  0  0  0
 27 74  1  0  0  0  0
 27 75  1  0  0  0  0
 28 76  1  0  0  0  0
 28 77  1  0  0  0  0
 29 78  1  0  0  0  0
 29 79  1  0  0  0  0
 29 80  1  0  0  0  0
 30 81  1  0  0  0  0
 37 82  1  0  0  0  0
 38 83  1  0  0  0  0
 39 84  1  0  0  0  0
 40 85  1  0  0  0  0
 44 86  1  0  0  0  0
 45 87  1  0  0  0  0
 46 88  1  0  0  0  0
 47 89  1  0  0  0  0
M  CHG  1  15   1
M  CHG  1  34  -1
M  END
