
  xtb     03022212103D
 energy: -120.280636001295 gnorm: 0.000337306991 xtb: 6.4.1 (afa7bdf)
 81 88  0     0  0            999 V2000
   -8.6877   -3.8284    2.0794 C   0  0  0  0  0  0  0  0  0  0  0  0
   -8.5357   -3.6069    0.5745 C   0  0  0  0  0  0  0  0  0  0  0  0
   -8.1405   -2.2575    0.2735 N   0  0  0  0  0  0  0  0  0  0  0  0
   -8.9950   -1.1942    0.0914 C   0  0  0  0  0  0  0  0  0  0  0  0
  -10.3826   -1.1630    0.0803 C   0  0  0  0  0  0  0  0  0  0  0  0
  -11.0002    0.0527   -0.1428 C   0  0  0  0  0  0  0  0  0  0  0  0
  -10.2636    1.2170   -0.3488 C   0  0  0  0  0  0  0  0  0  0  0  0
   -8.8833    1.1953   -0.3348 C   0  0  0  0  0  0  0  0  0  0  0  0
   -8.2401   -0.0146   -0.1123 C   0  0  0  0  0  0  0  0  0  0  0  0
   -6.8592   -0.3989   -0.0261 C   0  0  0  0  0  0  0  0  0  0  0  0
   -5.6702    0.3019   -0.1306 C   0  0  0  0  0  0  0  0  0  0  0  0
   -4.4716   -0.3929    0.0138 C   0  0  0  0  0  0  0  0  0  0  0  0
   -3.2436    0.2921   -0.0869 C   0  0  0  0  0  0  0  0  0  0  0  0
   -2.1889    0.8746   -0.1731 C   0  0  0  0  0  0  0  0  0  0  0  0
   -0.9471    1.5444   -0.2698 C   0  0  0  0  0  0  0  0  0  0  0  0
    0.2437    0.8163   -0.3109 C   0  0  0  0  0  0  0  0  0  0  0  0
    1.4185    1.5671   -0.3967 C   0  0  0  0  0  0  0  0  0  0  0  0
    2.6750    0.9194   -0.4427 C   0  0  0  0  0  0  0  0  0  0  0  0
    3.7394    0.3500   -0.4845 C   0  0  0  0  0  0  0  0  0  0  0  0
    4.9808   -0.3162   -0.5362 C   0  0  0  0  0  0  0  0  0  0  0  0
    6.1684    0.4262   -0.4194 C   0  0  0  0  0  0  0  0  0  0  0  0
    7.4038   -0.1813   -0.4652 C   0  0  0  0  0  0  0  0  0  0  0  0
    7.4518   -1.5603   -0.6372 C   0  0  0  0  0  0  0  0  0  0  0  0
    6.2609   -2.3205   -0.7541 C   0  0  0  0  0  0  0  0  0  0  0  0
    5.0255   -1.6983   -0.7028 C   0  0  0  0  0  0  0  0  0  0  0  0
    6.6693   -3.6884   -0.9084 C   0  0  0  0  0  0  0  0  0  0  0  0
    5.9763   -4.8814   -1.0623 C   0  0  0  0  0  0  0  0  0  0  0  0
    6.6962   -6.0534   -1.1803 C   0  0  0  0  0  0  0  0  0  0  0  0
    8.0888   -6.0449   -1.1451 C   0  0  0  0  0  0  0  0  0  0  0  0
    8.8004   -4.8704   -0.9926 C   0  0  0  0  0  0  0  0  0  0  0  0
    8.0841   -3.6871   -0.8769 C   0  0  0  0  0  0  0  0  0  0  0  0
    8.5366   -2.3957   -0.7316 N   0  0  0  0  0  0  0  0  0  0  0  0
    9.9125   -2.0028   -0.5903 C   0  0  0  0  0  0  0  0  0  0  0  0
   10.3640   -2.0442    0.8695 C   0  0  0  0  0  0  0  0  0  0  0  0
    1.4097    2.8965   -0.4351 N   0  0  0  0  0  0  0  0  0  0  0  0
    0.2140    3.4972   -0.4008 C   0  0  0  0  0  0  0  0  0  0  0  0
    0.1958    4.8408   -0.4809 N   0  0  0  0  0  0  0  0  0  0  0  0
   -1.0325    5.5867   -0.3244 C   0  0  0  0  0  0  0  0  0  0  0  0
   -0.8073    6.7954    0.5929 C   0  0  0  0  0  0  0  0  0  0  0  0
    0.2485    6.4410    1.6360 C   0  0  0  0  0  0  0  0  0  0  0  0
    1.6065    6.2352    0.9547 C   0  0  0  0  0  0  0  0  0  0  0  0
    1.4075    5.6177   -0.4416 C   0  0  0  0  0  0  0  0  0  0  0  0
   -0.9677    2.8740   -0.3203 N   0  0  0  0  0  0  0  0  0  0  0  0
   -4.4752   -1.7763    0.2624 C   0  0  0  0  0  0  0  0  0  0  0  0
   -5.6516   -2.4845    0.3721 C   0  0  0  0  0  0  0  0  0  0  0  0
   -6.8496   -1.7944    0.2245 C   0  0  0  0  0  0  0  0  0  0  0  0
   -9.4403   -3.1553    2.4838 H   0  0  0  0  0  0  0  0  0  0  0  0
   -8.9886   -4.8531    2.2804 H   0  0  0  0  0  0  0  0  0  0  0  0
   -7.7448   -3.6335    2.5852 H   0  0  0  0  0  0  0  0  0  0  0  0
   -9.4829   -3.8115    0.0679 H   0  0  0  0  0  0  0  0  0  0  0  0
   -7.7821   -4.2882    0.1697 H   0  0  0  0  0  0  0  0  0  0  0  0
  -10.9701   -2.0544    0.2423 H   0  0  0  0  0  0  0  0  0  0  0  0
  -12.0793    0.1018   -0.1559 H   0  0  0  0  0  0  0  0  0  0  0  0
  -10.7848    2.1473   -0.5199 H   0  0  0  0  0  0  0  0  0  0  0  0
   -8.3116    2.0974   -0.4924 H   0  0  0  0  0  0  0  0  0  0  0  0
   -5.6619    1.3644   -0.3204 H   0  0  0  0  0  0  0  0  0  0  0  0
    0.2560   -0.2604   -0.2765 H   0  0  0  0  0  0  0  0  0  0  0  0
    6.0966    1.4957   -0.2879 H   0  0  0  0  0  0  0  0  0  0  0  0
    8.3041    0.4070   -0.3674 H   0  0  0  0  0  0  0  0  0  0  0  0
    4.1114   -2.2660   -0.7912 H   0  0  0  0  0  0  0  0  0  0  0  0
    4.8970   -4.8874   -1.0880 H   0  0  0  0  0  0  0  0  0  0  0  0
    6.1775   -6.9930   -1.3004 H   0  0  0  0  0  0  0  0  0  0  0  0
    8.6246   -6.9784   -1.2371 H   0  0  0  0  0  0  0  0  0  0  0  0
    9.8798   -4.8837   -0.9634 H   0  0  0  0  0  0  0  0  0  0  0  0
   10.5288   -2.6761   -1.1926 H   0  0  0  0  0  0  0  0  0  0  0  0
   10.0276   -0.9914   -0.9898 H   0  0  0  0  0  0  0  0  0  0  0  0
   11.4057   -1.7449    0.9498 H   0  0  0  0  0  0  0  0  0  0  0  0
    9.7575   -1.3699    1.4698 H   0  0  0  0  0  0  0  0  0  0  0  0
   10.2559   -3.0506    1.2676 H   0  0  0  0  0  0  0  0  0  0  0  0
   -1.7737    4.9059    0.0988 H   0  0  0  0  0  0  0  0  0  0  0  0
   -1.3937    5.9151   -1.3082 H   0  0  0  0  0  0  0  0  0  0  0  0
   -1.7484    7.0653    1.0730 H   0  0  0  0  0  0  0  0  0  0  0  0
   -0.4679    7.6579    0.0161 H   0  0  0  0  0  0  0  0  0  0  0  0
   -0.0549    5.5206    2.1390 H   0  0  0  0  0  0  0  0  0  0  0  0
    0.3221    7.2253    2.3907 H   0  0  0  0  0  0  0  0  0  0  0  0
    2.1263    7.1891    0.8521 H   0  0  0  0  0  0  0  0  0  0  0  0
    2.2259    5.5797    1.5674 H   0  0  0  0  0  0  0  0  0  0  0  0
    1.3250    6.4069   -1.1964 H   0  0  0  0  0  0  0  0  0  0  0  0
    2.2384    4.9630   -0.7021 H   0  0  0  0  0  0  0  0  0  0  0  0
   -3.5283   -2.2843    0.3725 H   0  0  0  0  0  0  0  0  0  0  0  0
   -5.6321   -3.5460    0.5699 H   0  0  0  0  0  0  0  0  0  0  0  0
  1  2  1  0  0  0  0
  2  3  1  0  0  0  0
  3  4  1  0  0  0  0
  4  5  2  0  0  0  0
  5  6  1  0  0  0  0
  6  7  2  0  0  0  0
  7  8  1  0  0  0  0
  8  9  2  0  0  0  0
  9 10  1  0  0  0  0
 10 11  2  0  0  0  0
 11 12  1  0  0  0  0
 12 13  1  0  0  0  0
 13 14  3  0  0  0  0
 14 15  1  0  0  0  0
 15 16  2  0  0  0  0
 16 17  1  0  0  0  0
 17 18  1  0  0  0  0
 18 19  3  0  0  0  0
 19 20  1  0  0  0  0
 20 21  2  0  0  0  0
 21 22  1  0  0  0  0
 22 23  2  0  0  0  0
 23 24  1  0  0  0  0
 24 25  2  0  0  0  0
 24 26  1  0  0  0  0
 26 27  2  0  0  0  0
 27 28  1  0  0  0  0
 28 29  2  0  0  0  0
 29 30  1  0  0  0  0
 30 31  2  0  0  0  0
 31 32  1  0  0  0  0
 32 33  1  0  0  0  0
 33 34  1  0  0  0  0
 17 35  2  0  0  0  0
 35 36  1  0  0  0  0
 36 37  1  0  0  0  0
 37 38  1  0  0  0  0
 38 39  1  0  0  0  0
 39 40  1  0  0  0  0
 40 41  1  0  0  0  0
 41 42  1  0  0  0  0
 36 43  2  0  0  0  0
 12 44  2  0  0  0  0
 44 45  1  0  0  0  0
 45 46  2  0  0  0  0
 46  3  1  0  0  0  0
  9  4  1  0  0  0  0
 46 10  1  0  0  0  0
 43 15  1  0  0  0  0
 25 20  1  0  0  0  0
 31 26  1  0  0  0  0
 42 37  1  0  0  0  0
 32 23  1  0  0  0  0
  1 47  1  0  0  0  0
  1 48  1  0  0  0  0
  1 49  1  0  0  0  0
  2 50  1  0  0  0  0
  2 51  1  0  0  0  0
  5 52  1  0  0  0  0
  6 53  1  0  0  0  0
  7 54  1  0  0  0  0
  8 55  1  0  0  0  0
 11 56  1  0  0  0  0
 16 57  1  0  0  0  0
 21 58  1  0  0  0  0
 22 59  1  0  0  0  0
 25 60  1  0  0  0  0
 27 61  1  0  0  0  0
 28 62  1  0  0  0  0
 29 63  1  0  0  0  0
 30 64  1  0  0  0  0
 33 65  1  0  0  0  0
 33 66  1  0  0  0  0
 34 67  1  0  0  0  0
 34 68  1  0  0  0  0
 34 69  1  0  0  0  0
 38 70  1  0  0  0  0
 38 71  1  0  0  0  0
 39 72  1  0  0  0  0
 39 73  1  0  0  0  0
 40 74  1  0  0  0  0
 40 75  1  0  0  0  0
 41 76  1  0  0  0  0
 41 77  1  0  0  0  0
 42 78  1  0  0  0  0
 42 79  1  0  0  0  0
 44 80  1  0  0  0  0
 45 81  1  0  0  0  0
M  END
