
  xtb     03022214543D
 energy: -45.563746448249 gnorm: 0.000135633120 xtb: 6.4.1 (afa7bdf)
 24 26  0     0  0            999 V2000
    5.4933    0.1980   -0.0916 C   0  0  0  0  0  0  0  0  0  0  0  0
    5.2978   -1.1455   -0.2092 C   0  0  0  0  0  0  0  0  0  0  0  0
    3.6374   -1.5659   -0.2179 S   0  0  0  0  0  0  0  0  0  0  0  0
    3.1757    0.1057   -0.0591 C   0  0  0  0  0  0  0  0  0  0  0  0
    1.8074    0.4922    0.0004 C   0  0  0  0  0  0  0  0  0  0  0  0
    1.3166    1.7877    0.1267 C   0  0  0  0  0  0  0  0  0  0  0  0
   -0.0639    1.8540    0.1585 C   0  0  0  0  0  0  0  0  0  0  0  0
   -0.6838    0.6134    0.0576 C   0  0  0  0  0  0  0  0  0  0  0  0
   -1.9831    0.4278    0.0661 N   0  0  0  0  0  0  0  0  0  0  0  0
   -2.4541   -0.7645   -0.0340 N   0  0  0  0  0  0  0  0  0  0  0  0
   -3.7624   -0.9196   -0.0200 C   0  0  0  0  0  0  0  0  0  0  0  0
   -4.3628   -2.0622   -0.1143 N   0  0  0  0  0  0  0  0  0  0  0  0
   -5.6926   -1.9550   -0.0742 C   0  0  0  0  0  0  0  0  0  0  0  0
   -6.1855   -0.6828    0.0572 C   0  0  0  0  0  0  0  0  0  0  0  0
   -4.9330    0.4709    0.1376 S   0  0  0  0  0  0  0  0  0  0  0  0
    0.5378   -0.6766   -0.0824 S   0  0  0  0  0  0  0  0  0  0  0  0
    4.2906    0.9143   -0.0059 C   0  0  0  0  0  0  0  0  0  0  0  0
    6.4650    0.6576   -0.0673 H   0  0  0  0  0  0  0  0  0  0  0  0
    6.0374   -1.9169   -0.2917 H   0  0  0  0  0  0  0  0  0  0  0  0
    1.9569    2.6483    0.1929 H   0  0  0  0  0  0  0  0  0  0  0  0
   -0.6340    2.7602    0.2514 H   0  0  0  0  0  0  0  0  0  0  0  0
   -6.2899   -2.8465   -0.1448 H   0  0  0  0  0  0  0  0  0  0  0  0
   -7.2117   -0.3777    0.1095 H   0  0  0  0  0  0  0  0  0  0  0  0
    4.2410    1.9831    0.0912 H   0  0  0  0  0  0  0  0  0  0  0  0
  1  2  2  0  0  0  0
  2  3  1  0  0  0  0
  3  4  1  0  0  0  0
  4  5  1  0  0  0  0
  5  6  2  0  0  0  0
  6  7  1  0  0  0  0
  7  8  2  0  0  0  0
  8  9  1  0  0  0  0
  9 10  2  0  0  0  0
 10 11  1  0  0  0  0
 11 12  2  0  0  0  0
 12 13  1  0  0  0  0
 13 14  2  0  0  0  0
 14 15  1  0  0  0  0
  8 16  1  0  0  0  0
  4 17  2  0  0  0  0
 17  1  1  0  0  0  0
 16  5  1  0  0  0  0
 15 11  1  0  0  0  0
  1 18  1  0  0  0  0
  2 19  1  0  0  0  0
  6 20  1  0  0  0  0
  7 21  1  0  0  0  0
 13 22  1  0  0  0  0
 14 23  1  0  0  0  0
 17 24  1  0  0  0  0
M  END
