
  xtb     03022215083D
 energy: -77.689266650198 gnorm: 0.000181000604 xtb: 6.4.1 (afa7bdf)
 53 56  0     0  0            999 V2000
    8.8110    1.6721   -0.1761 C   0  0  0  0  0  0  0  0  0  0  0  0
    7.6024    1.9767    0.4785 O   0  0  0  0  0  0  0  0  0  0  0  0
    6.5068    1.2188    0.2128 C   0  0  0  0  0  0  0  0  0  0  0  0
    6.4746    0.1448   -0.6737 C   0  0  0  0  0  0  0  0  0  0  0  0
    5.3020   -0.5603   -0.8673 C   0  0  0  0  0  0  0  0  0  0  0  0
    4.1517   -0.1997   -0.1780 C   0  0  0  0  0  0  0  0  0  0  0  0
    2.9765   -0.9142   -0.3746 N   0  0  0  0  0  0  0  0  0  0  0  0
    2.8951   -1.9203   -1.1968 N   0  0  0  0  0  0  0  0  0  0  0  0
    1.6336   -2.3480   -1.1135 C   0  0  0  0  0  0  0  0  0  0  0  0
    1.1604   -3.4432   -1.8382 C   0  0  0  0  0  0  0  0  0  0  0  0
    0.7726   -4.3502   -2.4282 N   0  0  0  0  0  0  0  0  0  0  0  0
    0.9590   -1.5063   -0.1681 C   0  0  0  0  0  0  0  0  0  0  0  0
   -0.3138   -1.5505    0.2518 N   0  0  0  0  0  0  0  0  0  0  0  0
   -0.7933   -0.6317    1.2556 C   0  0  0  0  0  0  0  0  0  0  0  0
   -1.8875    0.2818    0.6888 C   0  0  0  0  0  0  0  0  0  0  0  0
   -2.7395   -0.4678   -0.3677 C   0  0  0  0  0  0  0  0  0  0  0  0
   -4.1017   -0.0018   -0.5287 N   0  0  0  0  0  0  0  0  0  0  0  0
   -4.9948   -0.2431    0.5930 C   0  0  0  0  0  0  0  0  0  0  0  0
   -6.2949    0.5285    0.4030 C   0  0  0  0  0  0  0  0  0  0  0  0
   -6.0453    2.0380    0.4898 C   0  0  0  0  0  0  0  0  0  0  0  0
   -4.6620    2.3859   -0.0749 C   0  0  0  0  0  0  0  0  0  0  0  0
   -4.2355    1.3328   -1.0983 C   0  0  0  0  0  0  0  0  0  0  0  0
   -2.6937   -1.9698   -0.0694 C   0  0  0  0  0  0  0  0  0  0  0  0
   -1.2730   -2.4776   -0.3092 C   0  0  0  0  0  0  0  0  0  0  0  0
    1.8508   -0.6186    0.2711 N   0  0  0  0  0  0  0  0  0  0  0  0
    4.1731    0.8735    0.7096 C   0  0  0  0  0  0  0  0  0  0  0  0
    5.3417    1.5734    0.9002 C   0  0  0  0  0  0  0  0  0  0  0  0
    9.1564    0.6624    0.0672 H   0  0  0  0  0  0  0  0  0  0  0  0
    9.5348    2.3978    0.1911 H   0  0  0  0  0  0  0  0  0  0  0  0
    8.7168    1.7736   -1.2619 H   0  0  0  0  0  0  0  0  0  0  0  0
    7.3558   -0.1528   -1.2189 H   0  0  0  0  0  0  0  0  0  0  0  0
    5.2661   -1.3935   -1.5506 H   0  0  0  0  0  0  0  0  0  0  0  0
   -1.1855   -1.2116    2.0997 H   0  0  0  0  0  0  0  0  0  0  0  0
    0.0578   -0.0474    1.6050 H   0  0  0  0  0  0  0  0  0  0  0  0
   -2.5183    0.6160    1.5129 H   0  0  0  0  0  0  0  0  0  0  0  0
   -1.4378    1.1638    0.2312 H   0  0  0  0  0  0  0  0  0  0  0  0
   -2.2648   -0.3286   -1.3481 H   0  0  0  0  0  0  0  0  0  0  0  0
   -4.5540    0.0435    1.5630 H   0  0  0  0  0  0  0  0  0  0  0  0
   -5.2097   -1.3157    0.6298 H   0  0  0  0  0  0  0  0  0  0  0  0
   -7.0147    0.2218    1.1632 H   0  0  0  0  0  0  0  0  0  0  0  0
   -6.7091    0.2688   -0.5715 H   0  0  0  0  0  0  0  0  0  0  0  0
   -6.1078    2.3661    1.5292 H   0  0  0  0  0  0  0  0  0  0  0  0
   -6.8225    2.5636   -0.0669 H   0  0  0  0  0  0  0  0  0  0  0  0
   -4.6774    3.3691   -0.5468 H   0  0  0  0  0  0  0  0  0  0  0  0
   -3.9241    2.4198    0.7283 H   0  0  0  0  0  0  0  0  0  0  0  0
   -4.9883    1.2908   -1.8955 H   0  0  0  0  0  0  0  0  0  0  0  0
   -3.2891    1.6210   -1.5590 H   0  0  0  0  0  0  0  0  0  0  0  0
   -2.9982   -2.1609    0.9593 H   0  0  0  0  0  0  0  0  0  0  0  0
   -3.3788   -2.4966   -0.7323 H   0  0  0  0  0  0  0  0  0  0  0  0
   -1.1442   -3.4769    0.1307 H   0  0  0  0  0  0  0  0  0  0  0  0
   -1.0946   -2.5637   -1.3859 H   0  0  0  0  0  0  0  0  0  0  0  0
    3.2703    1.1388    1.2351 H   0  0  0  0  0  0  0  0  0  0  0  0
    5.3848    2.4075    1.5819 H   0  0  0  0  0  0  0  0  0  0  0  0
  1  2  1  0  0  0  0
  2  3  1  0  0  0  0
  3  4  2  0  0  0  0
  4  5  1  0  0  0  0
  5  6  2  0  0  0  0
  6  7  1  0  0  0  0
  7  8  1  0  0  0  0
  8  9  2  0  0  0  0
  9 10  1  0  0  0  0
 10 11  3  0  0  0  0
  9 12  1  0  0  0  0
 12 13  1  0  0  0  0
 13 14  1  0  0  0  0
 14 15  1  0  0  0  0
 15 16  1  0  0  0  0
 16 17  1  0  0  0  0
 17 18  1  0  0  0  0
 18 19  1  0  0  0  0
 19 20  1  0  0  0  0
 20 21  1  0  0  0  0
 21 22  1  0  0  0  0
 16 23  1  0  0  0  0
 23 24  1  0  0  0  0
 12 25  2  0  0  0  0
  6 26  1  0  0  0  0
 26 27  2  0  0  0  0
 27  3  1  0  0  0  0
 25  7  1  0  0  0  0
 24 13  1  0  0  0  0
 22 17  1  0  0  0  0
  1 28  1  0  0  0  0
  1 29  1  0  0  0  0
  1 30  1  0  0  0  0
  4 31  1  0  0  0  0
  5 32  1  0  0  0  0
 14 33  1  0  0  0  0
 14 34  1  0  0  0  0
 15 35  1  0  0  0  0
 15 36  1  0  0  0  0
 16 37  1  0  0  0  0
 18 38  1  0  0  0  0
 18 39  1  0  0  0  0
 19 40  1  0  0  0  0
 19 41  1  0  0  0  0
 20 42  1  0  0  0  0
 20 43  1  0  0  0  0
 21 44  1  0  0  0  0
 21 45  1  0  0  0  0
 22 46  1  0  0  0  0
 22 47  1  0  0  0  0
 23 48  1  0  0  0  0
 23 49  1  0  0  0  0
 24 50  1  0  0  0  0
 24 51  1  0  0  0  0
 26 52  1  0  0  0  0
 27 53  1  0  0  0  0
M  END
