
  xtb     03022214533D
 energy: -131.644542459665 gnorm: 0.000410807090 xtb: 6.4.1 (afa7bdf)
 71 77  0     0  0            999 V2000
    8.7001   -5.5133   -0.9895 N   0  0  0  0  0  0  0  0  0  0  0  0
    8.1220   -4.2724   -0.9258 C   0  0  0  0  0  0  0  0  0  0  0  0
    8.8428   -3.1315   -1.2963 C   0  0  0  0  0  0  0  0  0  0  0  0
    8.2453   -1.8933   -1.2934 C   0  0  0  0  0  0  0  0  0  0  0  0
    6.9040   -1.7518   -0.9188 C   0  0  0  0  0  0  0  0  0  0  0  0
    6.2968   -0.4860   -0.9161 C   0  0  0  0  0  0  0  0  0  0  0  0
    5.7627    0.6014   -0.9114 C   0  0  0  0  0  0  0  0  0  0  0  0
    5.1805    1.8772   -0.9154 C   0  0  0  0  0  0  0  0  0  0  0  0
    5.9594    2.9859   -1.2674 C   0  0  0  0  0  0  0  0  0  0  0  0
    5.4234    4.2516   -1.2764 C   0  0  0  0  0  0  0  0  0  0  0  0
    4.0830    4.4698   -0.9325 C   0  0  0  0  0  0  0  0  0  0  0  0
    3.5069    5.7687   -0.9307 C   0  0  0  0  0  0  0  0  0  0  0  0
    2.2076    5.9607   -0.5913 C   0  0  0  0  0  0  0  0  0  0  0  0
    1.3735    4.8694   -0.2260 C   0  0  0  0  0  0  0  0  0  0  0  0
    0.0311    5.0479    0.1313 C   0  0  0  0  0  0  0  0  0  0  0  0
   -0.7561    3.9762    0.4820 C   0  0  0  0  0  0  0  0  0  0  0  0
   -0.2384    2.6768    0.4873 C   0  0  0  0  0  0  0  0  0  0  0  0
   -1.0712    1.6047    0.8459 C   0  0  0  0  0  0  0  0  0  0  0  0
   -1.8077    0.6969    1.1595 C   0  0  0  0  0  0  0  0  0  0  0  0
   -2.6540   -0.3670    1.5201 C   0  0  0  0  0  0  0  0  0  0  0  0
   -2.2658   -1.6909    1.2941 C   0  0  0  0  0  0  0  0  0  0  0  0
   -3.1054   -2.7305    1.6295 C   0  0  0  0  0  0  0  0  0  0  0  0
   -4.3485   -2.4732    2.2079 C   0  0  0  0  0  0  0  0  0  0  0  0
   -5.2108   -3.5203    2.5260 N   0  0  0  0  0  0  0  0  0  0  0  0
   -6.8600   -3.3307    2.3619 S   0  0  0  0  0  6  0  0  0  0  0  0
   -7.3383   -2.5322    3.4475 O   0  0  0  0  0  0  0  0  0  0  0  0
   -7.4380   -4.6170    2.1728 O   0  0  0  0  0  0  0  0  0  0  0  0
   -7.1152   -2.2695    0.8912 C   0  0  0  0  0  0  0  0  0  0  0  0
   -8.0822   -1.2921    1.0642 C   0  0  0  0  0  0  0  0  0  0  0  0
   -8.3424   -0.3614    0.0746 C   0  0  0  0  0  0  0  0  0  0  0  0
   -7.5908   -0.3952   -1.0978 C   0  0  0  0  0  0  0  0  0  0  0  0
   -7.8363    0.5898   -2.1348 N   0  0  0  0  0  4  0  0  0  0  0  0
   -7.1896    0.4988   -3.1526 O   0  0  0  0  0  0  0  0  0  0  0  0
   -8.6722    1.4346   -1.9059 O   0  0  0  0  0  1  0  0  0  0  0  0
   -6.6125   -1.3543   -1.2916 C   0  0  0  0  0  0  0  0  0  0  0  0
   -6.3903   -2.3029   -0.2998 C   0  0  0  0  0  0  0  0  0  0  0  0
   -5.4011   -3.3135   -0.5585 N   0  0  0  0  0  4  0  0  0  0  0  0
   -5.4677   -4.3339    0.1017 O   0  0  0  0  0  0  0  0  0  0  0  0
   -4.5708   -3.0869   -1.4132 O   0  0  0  0  0  1  0  0  0  0  0  0
   -4.7331   -1.1551    2.4550 C   0  0  0  0  0  0  0  0  0  0  0  0
   -3.8966   -0.1155    2.1116 C   0  0  0  0  0  0  0  0  0  0  0  0
    1.1112    2.4541    0.1340 C   0  0  0  0  0  0  0  0  0  0  0  0
    1.6865    1.1551    0.1293 C   0  0  0  0  0  0  0  0  0  0  0  0
    2.9874    0.9644   -0.2060 C   0  0  0  0  0  0  0  0  0  0  0  0
    3.8225    2.0553   -0.5661 C   0  0  0  0  0  0  0  0  0  0  0  0
    3.2761    3.3604   -0.5745 C   0  0  0  0  0  0  0  0  0  0  0  0
    1.9184    3.5605   -0.2221 C   0  0  0  0  0  0  0  0  0  0  0  0
    6.1822   -2.8920   -0.5469 C   0  0  0  0  0  0  0  0  0  0  0  0
    6.7816   -4.1294   -0.5500 C   0  0  0  0  0  0  0  0  0  0  0  0
    9.7033   -5.5624   -1.0393 H   0  0  0  0  0  0  0  0  0  0  0  0
    8.2433   -6.2701   -0.5099 H   0  0  0  0  0  0  0  0  0  0  0  0
    9.8785   -3.2345   -1.5873 H   0  0  0  0  0  0  0  0  0  0  0  0
    8.8088   -1.0173   -1.5794 H   0  0  0  0  0  0  0  0  0  0  0  0
    6.9951    2.8294   -1.5327 H   0  0  0  0  0  0  0  0  0  0  0  0
    6.0383    5.0971   -1.5504 H   0  0  0  0  0  0  0  0  0  0  0  0
    4.1333    6.6050   -1.2072 H   0  0  0  0  0  0  0  0  0  0  0  0
    1.7786    6.9528   -0.5919 H   0  0  0  0  0  0  0  0  0  0  0  0
   -0.3841    6.0455    0.1288 H   0  0  0  0  0  0  0  0  0  0  0  0
   -1.7907    4.1249    0.7558 H   0  0  0  0  0  0  0  0  0  0  0  0
   -1.3080   -1.8946    0.8401 H   0  0  0  0  0  0  0  0  0  0  0  0
   -2.8110   -3.7519    1.4387 H   0  0  0  0  0  0  0  0  0  0  0  0
   -4.9141   -4.4347    2.2121 H   0  0  0  0  0  0  0  0  0  0  0  0
   -8.6136   -1.2730    2.0022 H   0  0  0  0  0  0  0  0  0  0  0  0
   -9.1035    0.3944    0.1938 H   0  0  0  0  0  0  0  0  0  0  0  0
   -6.0299   -1.3746   -2.2026 H   0  0  0  0  0  0  0  0  0  0  0  0
   -5.6816   -0.9671    2.9314 H   0  0  0  0  0  0  0  0  0  0  0  0
   -4.1955    0.9044    2.3016 H   0  0  0  0  0  0  0  0  0  0  0  0
    1.0570    0.3207    0.4025 H   0  0  0  0  0  0  0  0  0  0  0  0
    3.4191   -0.0260   -0.2071 H   0  0  0  0  0  0  0  0  0  0  0  0
    5.1474   -2.7916   -0.2540 H   0  0  0  0  0  0  0  0  0  0  0  0
    6.2192   -5.0062   -0.2620 H   0  0  0  0  0  0  0  0  0  0  0  0
  1  2  1  0  0  0  0
  2  3  2  0  0  0  0
  3  4  1  0  0  0  0
  4  5  2  0  0  0  0
  5  6  1  0  0  0  0
  6  7  3  0  0  0  0
  7  8  1  0  0  0  0
  8  9  2  0  0  0  0
  9 10  1  0  0  0  0
 10 11  2  0  0  0  0
 11 12  1  0  0  0  0
 12 13  2  0  0  0  0
 13 14  1  0  0  0  0
 14 15  2  0  0  0  0
 15 16  1  0  0  0  0
 16 17  2  0  0  0  0
 17 18  1  0  0  0  0
 18 19  3  0  0  0  0
 19 20  1  0  0  0  0
 20 21  2  0  0  0  0
 21 22  1  0  0  0  0
 22 23  2  0  0  0  0
 23 24  1  0  0  0  0
 24 25  1  0  0  0  0
 25 26  2  0  0  0  0
 25 27  2  0  0  0  0
 25 28  1  0  0  0  0
 28 29  2  0  0  0  0
 29 30  1  0  0  0  0
 30 31  2  0  0  0  0
 31 32  1  0  0  0  0
 32 33  2  0  0  0  0
 32 34  1  0  0  0  0
 31 35  1  0  0  0  0
 35 36  2  0  0  0  0
 36 37  1  0  0  0  0
 37 38  2  0  0  0  0
 37 39  1  0  0  0  0
 23 40  1  0  0  0  0
 40 41  2  0  0  0  0
 17 42  1  0  0  0  0
 42 43  2  0  0  0  0
 43 44  1  0  0  0  0
 44 45  2  0  0  0  0
 45 46  1  0  0  0  0
 46 47  2  0  0  0  0
  5 48  1  0  0  0  0
 48 49  2  0  0  0  0
 49  2  1  0  0  0  0
 45  8  1  0  0  0  0
 46 11  1  0  0  0  0
 47 14  1  0  0  0  0
 41 20  1  0  0  0  0
 47 42  1  0  0  0  0
 36 28  1  0  0  0  0
  1 50  1  0  0  0  0
  1 51  1  0  0  0  0
  3 52  1  0  0  0  0
  4 53  1  0  0  0  0
  9 54  1  0  0  0  0
 10 55  1  0  0  0  0
 12 56  1  0  0  0  0
 13 57  1  0  0  0  0
 15 58  1  0  0  0  0
 16 59  1  0  0  0  0
 21 60  1  0  0  0  0
 22 61  1  0  0  0  0
 24 62  1  0  0  0  0
 29 63  1  0  0  0  0
 30 64  1  0  0  0  0
 35 65  1  0  0  0  0
 40 66  1  0  0  0  0
 41 67  1  0  0  0  0
 43 68  1  0  0  0  0
 44 69  1  0  0  0  0
 48 70  1  0  0  0  0
 49 71  1  0  0  0  0
M  CHG  1  32   1
M  CHG  1  34  -1
M  CHG  1  37   1
M  CHG  1  39  -1
M  END
