
  xtb     03022214003D
 energy: -76.290350446628 gnorm: 0.000315972808 xtb: 6.4.1 (afa7bdf)
 42 45  0     0  0            999 V2000
   -0.3423    3.4645   -0.8609 C   0  0  0  0  0  0  0  0  0  0  0  0
   -0.3868    2.8985    0.4342 O   0  0  0  0  0  0  0  0  0  0  0  0
   -0.7888    1.5781    0.4472 C   0  0  0  0  0  0  0  0  0  0  0  0
   -2.1509    1.2549    0.6417 C   0  0  0  0  0  0  0  0  0  0  0  0
   -3.1174    2.2617    0.8623 C   0  0  0  0  0  0  0  0  0  0  0  0
   -4.4315    1.9467    1.0519 C   0  0  0  0  0  0  0  0  0  0  0  0
   -4.8415    0.6034    1.0451 C   0  0  0  0  0  0  0  0  0  0  0  0
   -3.9341   -0.3952    0.8395 C   0  0  0  0  0  0  0  0  0  0  0  0
   -2.5672   -0.1078    0.6208 C   0  0  0  0  0  0  0  0  0  0  0  0
   -1.6312   -1.1455    0.3953 C   0  0  0  0  0  0  0  0  0  0  0  0
   -2.0712   -2.4613    0.3163 O   0  0  0  0  0  0  0  0  0  0  0  0
   -2.5298   -2.8253   -0.9722 C   0  0  0  0  0  0  0  0  0  0  0  0
   -0.2967   -0.8137    0.2656 C   0  0  0  0  0  0  0  0  0  0  0  0
    0.1225    0.5542    0.2897 C   0  0  0  0  0  0  0  0  0  0  0  0
    1.5497    0.5436    0.1170 C   0  0  0  0  0  0  0  0  0  0  0  0
    2.5151    1.5390    0.0828 C   0  0  0  0  0  0  0  0  0  0  0  0
    3.8351    1.1751   -0.0988 C   0  0  0  0  0  0  0  0  0  0  0  0
    4.1852   -0.1695   -0.2392 C   0  0  0  0  0  0  0  0  0  0  0  0
    5.6347   -0.4920   -0.4468 C   0  0  0  0  0  0  0  0  0  0  0  0
    5.8859   -1.8070   -0.5326 F   0  0  0  0  0  0  0  0  0  0  0  0
    6.1225    0.0559   -1.5786 F   0  0  0  0  0  0  0  0  0  0  0  0
    6.4133   -0.0254    0.5486 F   0  0  0  0  0  0  0  0  0  0  0  0
    3.2445   -1.1868   -0.1927 C   0  0  0  0  0  0  0  0  0  0  0  0
    1.9205   -0.8170   -0.0069 C   0  0  0  0  0  0  0  0  0  0  0  0
    0.8108   -1.6132    0.0858 N   0  0  0  0  0  0  0  0  0  0  0  0
    0.8552   -3.0505    0.0910 C   0  0  0  0  0  0  0  0  0  0  0  0
   -0.0021    4.4905   -0.7321 H   0  0  0  0  0  0  0  0  0  0  0  0
    0.3555    2.9240   -1.5096 H   0  0  0  0  0  0  0  0  0  0  0  0
   -1.3334    3.4636   -1.3283 H   0  0  0  0  0  0  0  0  0  0  0  0
   -2.7826    3.2875    0.8959 H   0  0  0  0  0  0  0  0  0  0  0  0
   -5.1610    2.7247    1.2209 H   0  0  0  0  0  0  0  0  0  0  0  0
   -5.8812    0.3650    1.2147 H   0  0  0  0  0  0  0  0  0  0  0  0
   -4.2420   -1.4297    0.8660 H   0  0  0  0  0  0  0  0  0  0  0  0
   -1.7173   -2.7864   -1.7067 H   0  0  0  0  0  0  0  0  0  0  0  0
   -3.3401   -2.1716   -1.3090 H   0  0  0  0  0  0  0  0  0  0  0  0
   -2.8955   -3.8472   -0.8876 H   0  0  0  0  0  0  0  0  0  0  0  0
    2.2404    2.5735    0.2083 H   0  0  0  0  0  0  0  0  0  0  0  0
    4.6100    1.9250   -0.1326 H   0  0  0  0  0  0  0  0  0  0  0  0
    3.5410   -2.2179   -0.2980 H   0  0  0  0  0  0  0  0  0  0  0  0
   -0.1007   -3.4361    0.4352 H   0  0  0  0  0  0  0  0  0  0  0  0
    1.6396   -3.3935    0.7683 H   0  0  0  0  0  0  0  0  0  0  0  0
    1.0639   -3.4373   -0.9109 H   0  0  0  0  0  0  0  0  0  0  0  0
  1  2  1  0  0  0  0
  2  3  1  0  0  0  0
  3  4  2  0  0  0  0
  4  5  1  0  0  0  0
  5  6  2  0  0  0  0
  6  7  1  0  0  0  0
  7  8  2  0  0  0  0
  8  9  1  0  0  0  0
  9 10  2  0  0  0  0
 10 11  1  0  0  0  0
 11 12  1  0  0  0  0
 10 13  1  0  0  0  0
 13 14  2  0  0  0  0
 14 15  1  0  0  0  0
 15 16  2  0  0  0  0
 16 17  1  0  0  0  0
 17 18  2  0  0  0  0
 18 19  1  0  0  0  0
 19 20  1  0  0  0  0
 19 21  1  0  0  0  0
 19 22  1  0  0  0  0
 18 23  1  0  0  0  0
 23 24  2  0  0  0  0
 24 25  1  0  0  0  0
 25 26  1  0  0  0  0
 14  3  1  0  0  0  0
 24 15  1  0  0  0  0
  9  4  1  0  0  0  0
 25 13  1  0  0  0  0
  1 27  1  0  0  0  0
  1 28  1  0  0  0  0
  1 29  1  0  0  0  0
  5 30  1  0  0  0  0
  6 31  1  0  0  0  0
  7 32  1  0  0  0  0
  8 33  1  0  0  0  0
 12 34  1  0  0  0  0
 12 35  1  0  0  0  0
 12 36  1  0  0  0  0
 16 37  1  0  0  0  0
 17 38  1  0  0  0  0
 23 39  1  0  0  0  0
 26 40  1  0  0  0  0
 26 41  1  0  0  0  0
 26 42  1  0  0  0  0
M  END
