
  xtb     03022214513D
 energy: -40.646927650436 gnorm: 0.000194207714 xtb: 6.4.1 (afa7bdf)
 24 25  0     0  0            999 V2000
    6.0225    0.1424    0.2863 Cl  0  0  0  0  0  0  0  0  0  0  0  0
    4.3066    0.0228    0.1421 C   0  0  0  0  0  0  0  0  0  0  0  0
    3.4948    0.9276    0.8117 C   0  0  0  0  0  0  0  0  0  0  0  0
    2.1237    0.8314    0.6960 C   0  0  0  0  0  0  0  0  0  0  0  0
    1.5340   -0.1658   -0.0873 C   0  0  0  0  0  0  0  0  0  0  0  0
    0.1007   -0.3125   -0.2436 C   0  0  0  0  0  0  0  0  0  0  0  0
   -0.8460    0.4548    0.3165 C   0  0  0  0  0  0  0  0  0  0  0  0
   -2.2762    0.2903    0.1466 C   0  0  0  0  0  0  0  0  0  0  0  0
   -2.8856   -0.7012   -0.6330 C   0  0  0  0  0  0  0  0  0  0  0  0
   -4.2679   -0.7025   -0.6762 C   0  0  0  0  0  0  0  0  0  0  0  0
   -5.0028    0.1837   -0.0184 N   0  0  0  0  0  0  0  0  0  0  0  0
   -4.3362    1.0795    0.6894 C   0  0  0  0  0  0  0  0  0  0  0  0
   -3.0306    1.1792    0.8058 N   0  0  0  0  0  0  0  0  0  0  0  0
    2.3774   -1.0637   -0.7505 C   0  0  0  0  0  0  0  0  0  0  0  0
    3.7500   -0.9767   -0.6418 C   0  0  0  0  0  0  0  0  0  0  0  0
    3.9400    1.7006    1.4184 H   0  0  0  0  0  0  0  0  0  0  0  0
    1.5051    1.5410    1.2216 H   0  0  0  0  0  0  0  0  0  0  0  0
   -0.1943   -1.1345   -0.8834 H   0  0  0  0  0  0  0  0  0  0  0  0
   -0.5907    1.2835    0.9603 H   0  0  0  0  0  0  0  0  0  0  0  0
   -2.3137   -1.4336   -1.1778 H   0  0  0  0  0  0  0  0  0  0  0  0
   -4.8169   -1.4349   -1.2551 H   0  0  0  0  0  0  0  0  0  0  0  0
   -4.9281    1.8077    1.2303 H   0  0  0  0  0  0  0  0  0  0  0  0
    1.9460   -1.8432   -1.3619 H   0  0  0  0  0  0  0  0  0  0  0  0
    4.3883   -1.6759   -1.1589 H   0  0  0  0  0  0  0  0  0  0  0  0
  1  2  1  0  0  0  0
  2  3  2  0  0  0  0
  3  4  1  0  0  0  0
  4  5  2  0  0  0  0
  5  6  1  0  0  0  0
  6  7  2  0  0  0  0
  7  8  1  0  0  0  0
  8  9  2  0  0  0  0
  9 10  1  0  0  0  0
 10 11  2  0  0  0  0
 11 12  1  0  0  0  0
 12 13  2  0  0  0  0
  5 14  1  0  0  0  0
 14 15  2  0  0  0  0
 15  2  1  0  0  0  0
 13  8  1  0  0  0  0
  3 16  1  0  0  0  0
  4 17  1  0  0  0  0
  6 18  1  0  0  0  0
  7 19  1  0  0  0  0
  9 20  1  0  0  0  0
 10 21  1  0  0  0  0
 12 22  1  0  0  0  0
 14 23  1  0  0  0  0
 15 24  1  0  0  0  0
M  END
