
  xtb     03022214073D
 energy: -73.955186449960 gnorm: 0.000472214020 xtb: 6.4.1 (afa7bdf)
 48 51  0     0  0            999 V2000
    8.1892   -1.3701   -0.2292 O   0  0  0  0  0  0  0  0  0  0  0  0
    7.5914   -0.1679   -0.0735 B   0  0  0  0  0  0  0  0  0  0  0  0
    8.3974    0.9231    0.0683 O   0  0  0  0  0  0  0  0  0  0  0  0
    6.0126   -0.1059   -0.0658 C   0  0  0  0  0  0  0  0  0  0  0  0
    5.3055    1.0916    0.0560 C   0  0  0  0  0  0  0  0  0  0  0  0
    3.9253    1.1204    0.0585 C   0  0  0  0  0  0  0  0  0  0  0  0
    3.1890   -0.0571   -0.0568 C   0  0  0  0  0  0  0  0  0  0  0  0
    1.7218   -0.0317   -0.0509 C   0  0  0  0  0  0  0  0  0  0  0  0
    1.0180    0.9729   -0.7139 C   0  0  0  0  0  0  0  0  0  0  0  0
   -0.3604    0.9929   -0.7193 C   0  0  0  0  0  0  0  0  0  0  0  0
   -1.0850    0.0105   -0.0436 C   0  0  0  0  0  0  0  0  0  0  0  0
   -2.4823    0.0286   -0.0426 N   0  0  0  0  0  0  0  0  0  0  0  0
   -3.1682    1.2477   -0.0025 C   0  0  0  0  0  0  0  0  0  0  0  0
   -4.3484    1.4194   -0.7258 C   0  0  0  0  0  0  0  0  0  0  0  0
   -5.0247    2.6227   -0.6791 C   0  0  0  0  0  0  0  0  0  0  0  0
   -4.5355    3.6744    0.0784 C   0  0  0  0  0  0  0  0  0  0  0  0
   -3.3616    3.5106    0.7955 C   0  0  0  0  0  0  0  0  0  0  0  0
   -2.6824    2.3084    0.7620 C   0  0  0  0  0  0  0  0  0  0  0  0
   -3.1979   -1.1734   -0.0898 C   0  0  0  0  0  0  0  0  0  0  0  0
   -2.7368   -2.2421   -0.8583 C   0  0  0  0  0  0  0  0  0  0  0  0
   -3.4455   -3.4268   -0.8988 C   0  0  0  0  0  0  0  0  0  0  0  0
   -4.6246   -3.5647   -0.1850 C   0  0  0  0  0  0  0  0  0  0  0  0
   -5.0891   -2.5049    0.5767 C   0  0  0  0  0  0  0  0  0  0  0  0
   -4.3833   -1.3190    0.6306 C   0  0  0  0  0  0  0  0  0  0  0  0
   -0.3865   -0.9921    0.6301 C   0  0  0  0  0  0  0  0  0  0  0  0
    0.9917   -1.0137    0.6174 C   0  0  0  0  0  0  0  0  0  0  0  0
    3.8843   -1.2595   -0.1783 C   0  0  0  0  0  0  0  0  0  0  0  0
    5.2636   -1.2783   -0.1846 C   0  0  0  0  0  0  0  0  0  0  0  0
    9.1461   -1.3245   -0.2237 H   0  0  0  0  0  0  0  0  0  0  0  0
    7.9546    1.7622    0.1806 H   0  0  0  0  0  0  0  0  0  0  0  0
    5.8421    2.0277    0.1534 H   0  0  0  0  0  0  0  0  0  0  0  0
    3.4085    2.0626    0.1730 H   0  0  0  0  0  0  0  0  0  0  0  0
    1.5597    1.7300   -1.2615 H   0  0  0  0  0  0  0  0  0  0  0  0
   -0.8891    1.7677   -1.2552 H   0  0  0  0  0  0  0  0  0  0  0  0
   -4.7269    0.6042   -1.3252 H   0  0  0  0  0  0  0  0  0  0  0  0
   -5.9364    2.7426   -1.2458 H   0  0  0  0  0  0  0  0  0  0  0  0
   -5.0653    4.6143    0.1099 H   0  0  0  0  0  0  0  0  0  0  0  0
   -2.9757    4.3230    1.3937 H   0  0  0  0  0  0  0  0  0  0  0  0
   -1.7728    2.1798    1.3305 H   0  0  0  0  0  0  0  0  0  0  0  0
   -1.8232   -2.1336   -1.4243 H   0  0  0  0  0  0  0  0  0  0  0  0
   -3.0786   -4.2456   -1.5003 H   0  0  0  0  0  0  0  0  0  0  0  0
   -5.1777   -4.4909   -0.2223 H   0  0  0  0  0  0  0  0  0  0  0  0
   -6.0047   -2.6049    1.1410 H   0  0  0  0  0  0  0  0  0  0  0  0
   -4.7426   -0.4974    1.2330 H   0  0  0  0  0  0  0  0  0  0  0  0
   -0.9355   -1.7508    1.1685 H   0  0  0  0  0  0  0  0  0  0  0  0
    1.5139   -1.7868    1.1616 H   0  0  0  0  0  0  0  0  0  0  0  0
    3.3336   -2.1824   -0.2904 H   0  0  0  0  0  0  0  0  0  0  0  0
    5.7924   -2.2139   -0.2852 H   0  0  0  0  0  0  0  0  0  0  0  0
  1  2  1  0  0  0  0
  2  3  1  0  0  0  0
  2  4  1  0  0  0  0
  4  5  2  0  0  0  0
  5  6  1  0  0  0  0
  6  7  2  0  0  0  0
  7  8  1  0  0  0  0
  8  9  2  0  0  0  0
  9 10  1  0  0  0  0
 10 11  2  0  0  0  0
 11 12  1  0  0  0  0
 12 13  1  0  0  0  0
 13 14  2  0  0  0  0
 14 15  1  0  0  0  0
 15 16  2  0  0  0  0
 16 17  1  0  0  0  0
 17 18  2  0  0  0  0
 12 19  1  0  0  0  0
 19 20  2  0  0  0  0
 20 21  1  0  0  0  0
 21 22  2  0  0  0  0
 22 23  1  0  0  0  0
 23 24  2  0  0  0  0
 11 25  1  0  0  0  0
 25 26  2  0  0  0  0
  7 27  1  0  0  0  0
 27 28  2  0  0  0  0
 28  4  1  0  0  0  0
 26  8  1  0  0  0  0
 18 13  1  0  0  0  0
 24 19  1  0  0  0  0
  1 29  1  0  0  0  0
  3 30  1  0  0  0  0
  5 31  1  0  0  0  0
  6 32  1  0  0  0  0
  9 33  1  0  0  0  0
 10 34  1  0  0  0  0
 14 35  1  0  0  0  0
 15 36  1  0  0  0  0
 16 37  1  0  0  0  0
 17 38  1  0  0  0  0
 18 39  1  0  0  0  0
 20 40  1  0  0  0  0
 21 41  1  0  0  0  0
 22 42  1  0  0  0  0
 23 43  1  0  0  0  0
 24 44  1  0  0  0  0
 25 45  1  0  0  0  0
 26 46  1  0  0  0  0
 27 47  1  0  0  0  0
 28 48  1  0  0  0  0
M  END
