
  xtb     03022216023D
 energy: -28.909743053499 gnorm: 0.000343169181 xtb: 6.4.1 (afa7bdf)
 20 21  0     0  0            999 V2000
   -2.1333    1.6781   -0.0783 N   0  0  0  0  0  0  0  0  0  0  0  0
   -1.4749    0.4665   -0.0063 C   0  0  0  0  0  0  0  0  0  0  0  0
   -2.2014   -0.7065    0.0168 C   0  0  0  0  0  0  0  0  0  0  0  0
   -1.5697   -1.9516    0.0286 C   0  0  0  0  0  0  0  0  0  0  0  0
   -0.2054   -2.0384    0.0268 C   0  0  0  0  0  0  0  0  0  0  0  0
    0.5794   -0.8683   -0.0015 C   0  0  0  0  0  0  0  0  0  0  0  0
    1.9889   -0.9348   -0.0102 C   0  0  0  0  0  0  0  0  0  0  0  0
    2.7509    0.1979   -0.0488 C   0  0  0  0  0  0  0  0  0  0  0  0
    2.1324    1.4549   -0.0859 C   0  0  0  0  0  0  0  0  0  0  0  0
    0.7683    1.5542   -0.0763 C   0  0  0  0  0  0  0  0  0  0  0  0
   -0.0493    0.4063   -0.0278 C   0  0  0  0  0  0  0  0  0  0  0  0
   -3.1125    1.6501    0.1577 H   0  0  0  0  0  0  0  0  0  0  0  0
   -1.6489    2.4863    0.2748 H   0  0  0  0  0  0  0  0  0  0  0  0
   -3.2816   -0.6567    0.0273 H   0  0  0  0  0  0  0  0  0  0  0  0
   -2.1751   -2.8463    0.0481 H   0  0  0  0  0  0  0  0  0  0  0  0
    0.2890   -2.9984    0.0446 H   0  0  0  0  0  0  0  0  0  0  0  0
    2.4559   -1.9095    0.0118 H   0  0  0  0  0  0  0  0  0  0  0  0
    3.8294    0.1342   -0.0553 H   0  0  0  0  0  0  0  0  0  0  0  0
    2.7409    2.3469   -0.1246 H   0  0  0  0  0  0  0  0  0  0  0  0
    0.3170    2.5352   -0.1211 H   0  0  0  0  0  0  0  0  0  0  0  0
  1  2  1  0  0  0  0
  2  3  2  0  0  0  0
  3  4  1  0  0  0  0
  4  5  2  0  0  0  0
  5  6  1  0  0  0  0
  6  7  2  0  0  0  0
  7  8  1  0  0  0  0
  8  9  2  0  0  0  0
  9 10  1  0  0  0  0
 10 11  2  0  0  0  0
 11  2  1  0  0  0  0
 11  6  1  0  0  0  0
  1 12  1  0  0  0  0
  1 13  1  0  0  0  0
  3 14  1  0  0  0  0
  4 15  1  0  0  0  0
  5 16  1  0  0  0  0
  7 17  1  0  0  0  0
  8 18  1  0  0  0  0
  9 19  1  0  0  0  0
 10 20  1  0  0  0  0
M  END
