
  xtb     03022212343D
 energy: -79.238134881468 gnorm: 0.000299394006 xtb: 6.4.1 (afa7bdf)
 42 43  0     0  0            999 V2000
    0.3825    2.5706    0.5940 O   0  0  0  0  0  0  0  0  0  0  0  0
   -0.3770    1.6317    0.5315 C   0  0  0  0  0  0  0  0  0  0  0  0
   -1.8337    1.7495    0.4866 C   0  0  0  0  0  0  0  0  0  0  0  0
   -2.6539    0.6907    0.4052 C   0  0  0  0  0  0  0  0  0  0  0  0
   -4.0979    0.7103    0.3578 C   0  0  0  0  0  0  0  0  0  0  0  0
   -4.8545    1.8837    0.4000 C   0  0  0  0  0  0  0  0  0  0  0  0
   -6.2324    1.8424    0.3528 C   0  0  0  0  0  0  0  0  0  0  0  0
   -6.9012    0.6286    0.2617 C   0  0  0  0  0  0  0  0  0  0  0  0
   -8.2507    0.5919    0.2156 O   0  0  0  0  0  0  0  0  0  0  0  0
   -6.1527   -0.5592    0.2187 C   0  0  0  0  0  0  0  0  0  0  0  0
   -6.8658   -1.7297    0.1291 O   0  0  0  0  0  0  0  0  0  0  0  0
   -4.7770   -0.5121    0.2664 C   0  0  0  0  0  0  0  0  0  0  0  0
    0.0457    0.3479    0.5025 O   0  0  0  0  0  0  0  0  0  0  0  0
    1.4486    0.1427    0.5538 C   0  0  0  0  0  0  0  0  0  0  0  0
    2.0778    0.2764   -0.8497 C   0  0  0  0  0  0  0  0  0  0  0  0
    3.5421   -0.0484   -0.7986 C   0  0  0  0  0  0  0  0  0  0  0  0
    4.4638    0.9007   -0.3904 C   0  0  0  0  0  0  0  0  0  0  0  0
    5.8067    0.5756   -0.2996 C   0  0  0  0  0  0  0  0  0  0  0  0
    6.2574   -0.6976   -0.6075 C   0  0  0  0  0  0  0  0  0  0  0  0
    7.5679   -1.0500   -0.5248 O   0  0  0  0  0  0  0  0  0  0  0  0
    5.3293   -1.6665   -1.0218 C   0  0  0  0  0  0  0  0  0  0  0  0
    5.7828   -2.9136   -1.3183 O   0  0  0  0  0  0  0  0  0  0  0  0
    3.9897   -1.3272   -1.1101 C   0  0  0  0  0  0  0  0  0  0  0  0
    1.6952   -1.2677    1.0660 C   0  0  0  0  0  0  0  0  0  0  0  0
    1.0840   -2.2456    0.7405 O   0  0  0  0  0  0  0  0  0  0  0  0
    2.7240   -1.2937    1.9140 O   0  0  0  0  0  0  0  0  0  0  0  0
   -2.1899    2.7674    0.5238 H   0  0  0  0  0  0  0  0  0  0  0  0
   -2.1994   -0.2913    0.3709 H   0  0  0  0  0  0  0  0  0  0  0  0
   -4.3613    2.8389    0.4711 H   0  0  0  0  0  0  0  0  0  0  0  0
   -6.8196    2.7458    0.3855 H   0  0  0  0  0  0  0  0  0  0  0  0
   -8.5262   -0.3340    0.1543 H   0  0  0  0  0  0  0  0  0  0  0  0
   -6.2577   -2.4762    0.1076 H   0  0  0  0  0  0  0  0  0  0  0  0
   -4.2110   -1.4338    0.2328 H   0  0  0  0  0  0  0  0  0  0  0  0
    1.9098    0.8680    1.2348 H   0  0  0  0  0  0  0  0  0  0  0  0
    1.9210    1.3032   -1.1841 H   0  0  0  0  0  0  0  0  0  0  0  0
    1.5490   -0.4035   -1.5205 H   0  0  0  0  0  0  0  0  0  0  0  0
    4.1354    1.8982   -0.1435 H   0  0  0  0  0  0  0  0  0  0  0  0
    6.5218    1.3227    0.0175 H   0  0  0  0  0  0  0  0  0  0  0  0
    8.0876   -0.2903   -0.2359 H   0  0  0  0  0  0  0  0  0  0  0  0
    5.0447   -3.4647   -1.6053 H   0  0  0  0  0  0  0  0  0  0  0  0
    3.2793   -2.0800   -1.4276 H   0  0  0  0  0  0  0  0  0  0  0  0
    2.9159   -2.2017    2.2011 H   0  0  0  0  0  0  0  0  0  0  0  0
  1  2  2  0  0  0  0
  2  3  1  0  0  0  0
  3  4  2  0  0  0  0
  4  5  1  0  0  0  0
  5  6  2  0  0  0  0
  6  7  1  0  0  0  0
  7  8  2  0  0  0  0
  8  9  1  0  0  0  0
  8 10  1  0  0  0  0
 10 11  1  0  0  0  0
 10 12  2  0  0  0  0
  2 13  1  0  0  0  0
 13 14  1  0  0  0  0
 14 15  1  0  0  0  0
 15 16  1  0  0  0  0
 16 17  2  0  0  0  0
 17 18  1  0  0  0  0
 18 19  2  0  0  0  0
 19 20  1  0  0  0  0
 19 21  1  0  0  0  0
 21 22  1  0  0  0  0
 21 23  2  0  0  0  0
 14 24  1  0  0  0  0
 24 25  2  0  0  0  0
 24 26  1  0  0  0  0
 12  5  1  0  0  0  0
 23 16  1  0  0  0  0
  3 27  1  0  0  0  0
  4 28  1  0  0  0  0
  6 29  1  0  0  0  0
  7 30  1  0  0  0  0
  9 31  1  0  0  0  0
 11 32  1  0  0  0  0
 12 33  1  0  0  0  0
 14 34  1  0  0  0  0
 15 35  1  0  0  0  0
 15 36  1  0  0  0  0
 17 37  1  0  0  0  0
 18 38  1  0  0  0  0
 20 39  1  0  0  0  0
 22 40  1  0  0  0  0
 23 41  1  0  0  0  0
 26 42  1  0  0  0  0
M  END
