
  xtb     03022215173D
 energy: -101.596222306160 gnorm: 0.000123721953 xtb: 6.4.1 (afa7bdf)
 70 74  0     0  0            999 V2000
    0.1176    6.5313    0.1914 C   0  0  0  0  0  0  0  0  0  0  0  0
   -0.0416    5.5525    1.3489 C   0  0  0  0  0  0  0  0  0  0  0  0
   -0.3387    4.1215    0.8969 C   0  0  0  0  0  0  0  0  0  0  0  0
    0.8496    3.4552    0.2051 C   0  0  0  0  0  0  0  0  0  0  0  0
    0.5463    2.0368   -0.2760 C   0  0  0  0  0  0  0  0  0  0  0  0
    0.3971    1.0319    0.8719 C   0  0  0  0  0  0  0  0  0  0  0  0
    0.1425   -0.2945    0.3799 N   0  0  0  0  0  0  0  0  0  0  0  0
   -1.0961   -0.8110    0.0834 C   0  0  0  0  0  0  0  0  0  0  0  0
   -2.3469   -0.2437    0.2370 C   0  0  0  0  0  0  0  0  0  0  0  0
   -3.4764   -0.9880   -0.1185 C   0  0  0  0  0  0  0  0  0  0  0  0
   -4.7639   -0.3610    0.0641 C   0  0  0  0  0  0  0  0  0  0  0  0
   -6.0027   -0.9064    0.0479 C   0  0  0  0  0  0  0  0  0  0  0  0
   -6.2662   -2.2848   -0.1004 C   0  0  0  0  0  0  0  0  0  0  0  0
   -6.5733   -3.3875   -0.1997 N   0  0  0  0  0  0  0  0  0  0  0  0
   -7.2130   -0.0886    0.2419 C   0  0  0  0  0  0  0  0  0  0  0  0
   -7.2819    1.2148   -0.2475 C   0  0  0  0  0  0  0  0  0  0  0  0
   -8.4180    1.9767   -0.0518 C   0  0  0  0  0  0  0  0  0  0  0  0
   -9.5025    1.4511    0.6309 C   0  0  0  0  0  0  0  0  0  0  0  0
   -9.4480    0.1529    1.1105 C   0  0  0  0  0  0  0  0  0  0  0  0
   -8.3156   -0.6147    0.9146 C   0  0  0  0  0  0  0  0  0  0  0  0
   -3.3180   -2.2819   -0.6505 C   0  0  0  0  0  0  0  0  0  0  0  0
   -2.0742   -2.8446   -0.8177 C   0  0  0  0  0  0  0  0  0  0  0  0
   -0.9468   -2.1177   -0.4487 C   0  0  0  0  0  0  0  0  0  0  0  0
    0.4574   -2.3780   -0.4895 C   0  0  0  0  0  0  0  0  0  0  0  0
    1.2259   -3.4630   -0.8992 C   0  0  0  0  0  0  0  0  0  0  0  0
    2.5963   -3.3828   -0.8153 C   0  0  0  0  0  0  0  0  0  0  0  0
    3.2387   -2.2299   -0.3250 C   0  0  0  0  0  0  0  0  0  0  0  0
    4.6735   -2.1085   -0.2221 C   0  0  0  0  0  0  0  0  0  0  0  0
    5.6491   -2.8723   -0.7669 C   0  0  0  0  0  0  0  0  0  0  0  0
    5.4230   -3.9582   -1.6392 C   0  0  0  0  0  0  0  0  0  0  0  0
    5.3359   -4.8443   -2.3655 N   0  0  0  0  0  0  0  0  0  0  0  0
    7.0762   -2.5934   -0.5269 C   0  0  0  0  0  0  0  0  0  0  0  0
    7.5131   -2.1150    0.7072 C   0  0  0  0  0  0  0  0  0  0  0  0
    8.8521   -1.8477    0.9197 C   0  0  0  0  0  0  0  0  0  0  0  0
    9.7749   -2.0553   -0.0922 C   0  0  0  0  0  0  0  0  0  0  0  0
    9.3516   -2.5415   -1.3181 C   0  0  0  0  0  0  0  0  0  0  0  0
    8.0143   -2.8143   -1.5348 C   0  0  0  0  0  0  0  0  0  0  0  0
    2.4724   -1.1426    0.1071 C   0  0  0  0  0  0  0  0  0  0  0  0
    1.0950   -1.2174    0.0204 C   0  0  0  0  0  0  0  0  0  0  0  0
    0.2447    7.5428    0.5700 H   0  0  0  0  0  0  0  0  0  0  0  0
   -0.7638    6.5132   -0.4461 H   0  0  0  0  0  0  0  0  0  0  0  0
    0.9862    6.2877   -0.4145 H   0  0  0  0  0  0  0  0  0  0  0  0
   -0.8634    5.8925    1.9835 H   0  0  0  0  0  0  0  0  0  0  0  0
    0.8663    5.5564    1.9563 H   0  0  0  0  0  0  0  0  0  0  0  0
   -0.6203    3.5380    1.7760 H   0  0  0  0  0  0  0  0  0  0  0  0
   -1.1923    4.1318    0.2150 H   0  0  0  0  0  0  0  0  0  0  0  0
    1.7007    3.4319    0.8901 H   0  0  0  0  0  0  0  0  0  0  0  0
    1.1377    4.0522   -0.6610 H   0  0  0  0  0  0  0  0  0  0  0  0
    1.3562    1.6948   -0.9250 H   0  0  0  0  0  0  0  0  0  0  0  0
   -0.3718    2.0379   -0.8681 H   0  0  0  0  0  0  0  0  0  0  0  0
   -0.4297    1.3178    1.5260 H   0  0  0  0  0  0  0  0  0  0  0  0
    1.3114    1.0139    1.4717 H   0  0  0  0  0  0  0  0  0  0  0  0
   -2.4651    0.7545    0.6334 H   0  0  0  0  0  0  0  0  0  0  0  0
   -4.7153    0.7006    0.2790 H   0  0  0  0  0  0  0  0  0  0  0  0
   -6.4520    1.6252   -0.8047 H   0  0  0  0  0  0  0  0  0  0  0  0
   -8.4596    2.9842   -0.4395 H   0  0  0  0  0  0  0  0  0  0  0  0
  -10.3889    2.0489    0.7819 H   0  0  0  0  0  0  0  0  0  0  0  0
  -10.2924   -0.2650    1.6382 H   0  0  0  0  0  0  0  0  0  0  0  0
   -8.2761   -1.6261    1.2923 H   0  0  0  0  0  0  0  0  0  0  0  0
   -4.1918   -2.8367   -0.9483 H   0  0  0  0  0  0  0  0  0  0  0  0
   -1.9722   -3.8353   -1.2330 H   0  0  0  0  0  0  0  0  0  0  0  0
    0.7512   -4.3556   -1.2763 H   0  0  0  0  0  0  0  0  0  0  0  0
    3.1933   -4.2257   -1.1204 H   0  0  0  0  0  0  0  0  0  0  0  0
    5.0075   -1.2543    0.3561 H   0  0  0  0  0  0  0  0  0  0  0  0
    6.8049   -1.9749    1.5113 H   0  0  0  0  0  0  0  0  0  0  0  0
    9.1782   -1.4812    1.8822 H   0  0  0  0  0  0  0  0  0  0  0  0
   10.8205   -1.8458    0.0770 H   0  0  0  0  0  0  0  0  0  0  0  0
   10.0669   -2.7111   -2.1092 H   0  0  0  0  0  0  0  0  0  0  0  0
    7.6876   -3.1915   -2.4930 H   0  0  0  0  0  0  0  0  0  0  0  0
    2.9627   -0.2576    0.4864 H   0  0  0  0  0  0  0  0  0  0  0  0
  1  2  1  0  0  0  0
  2  3  1  0  0  0  0
  3  4  1  0  0  0  0
  4  5  1  0  0  0  0
  5  6  1  0  0  0  0
  6  7  1  0  0  0  0
  7  8  1  0  0  0  0
  8  9  2  0  0  0  0
  9 10  1  0  0  0  0
 10 11  1  0  0  0  0
 11 12  2  0  0  0  0
 12 13  1  0  0  0  0
 13 14  3  0  0  0  0
 12 15  1  0  0  0  0
 15 16  2  0  0  0  0
 16 17  1  0  0  0  0
 17 18  2  0  0  0  0
 18 19  1  0  0  0  0
 19 20  2  0  0  0  0
 10 21  2  0  0  0  0
 21 22  1  0  0  0  0
 22 23  2  0  0  0  0
 23 24  1  0  0  0  0
 24 25  2  0  0  0  0
 25 26  1  0  0  0  0
 26 27  2  0  0  0  0
 27 28  1  0  0  0  0
 28 29  2  0  0  0  0
 29 30  1  0  0  0  0
 30 31  3  0  0  0  0
 29 32  1  0  0  0  0
 32 33  2  0  0  0  0
 33 34  1  0  0  0  0
 34 35  2  0  0  0  0
 35 36  1  0  0  0  0
 36 37  2  0  0  0  0
 27 38  1  0  0  0  0
 38 39  2  0  0  0  0
 39  7  1  0  0  0  0
 23  8  1  0  0  0  0
 39 24  1  0  0  0  0
 20 15  1  0  0  0  0
 37 32  1  0  0  0  0
  1 40  1  0  0  0  0
  1 41  1  0  0  0  0
  1 42  1  0  0  0  0
  2 43  1  0  0  0  0
  2 44  1  0  0  0  0
  3 45  1  0  0  0  0
  3 46  1  0  0  0  0
  4 47  1  0  0  0  0
  4 48  1  0  0  0  0
  5 49  1  0  0  0  0
  5 50  1  0  0  0  0
  6 51  1  0  0  0  0
  6 52  1  0  0  0  0
  9 53  1  0  0  0  0
 11 54  1  0  0  0  0
 16 55  1  0  0  0  0
 17 56  1  0  0  0  0
 18 57  1  0  0  0  0
 19 58  1  0  0  0  0
 20 59  1  0  0  0  0
 21 60  1  0  0  0  0
 22 61  1  0  0  0  0
 25 62  1  0  0  0  0
 26 63  1  0  0  0  0
 28 64  1  0  0  0  0
 33 65  1  0  0  0  0
 34 66  1  0  0  0  0
 35 67  1  0  0  0  0
 36 68  1  0  0  0  0
 37 69  1  0  0  0  0
 38 70  1  0  0  0  0
M  END
