
  xtb     03022212203D
 energy: -49.669405877583 gnorm: 0.000283374748 xtb: 6.4.1 (afa7bdf)
 29 32  0     0  0            999 V2000
    4.8686   -0.2073    0.4052 O   0  0  0  0  0  0  0  0  0  0  0  0
    3.8259   -0.6314   -0.0334 C   0  0  0  0  0  0  0  0  0  0  0  0
    3.7760   -1.8192   -0.6623 O   0  0  0  0  0  0  0  0  0  0  0  0
    2.5528    0.1188    0.0234 C   0  0  0  0  0  0  0  0  0  0  0  0
    2.7042    1.5053    0.0966 C   0  0  0  0  0  0  0  0  0  0  0  0
    1.6183    2.3484    0.1159 C   0  0  0  0  0  0  0  0  0  0  0  0
    0.3217    1.8301    0.0760 C   0  0  0  0  0  0  0  0  0  0  0  0
   -0.8213    2.6806    0.0833 C   0  0  0  0  0  0  0  0  0  0  0  0
   -2.0750    2.1733    0.0575 C   0  0  0  0  0  0  0  0  0  0  0  0
   -2.2961    0.7659    0.0266 C   0  0  0  0  0  0  0  0  0  0  0  0
   -3.5817    0.2222    0.0041 C   0  0  0  0  0  0  0  0  0  0  0  0
   -3.7712   -1.1473   -0.0206 C   0  0  0  0  0  0  0  0  0  0  0  0
   -2.6862   -2.0040   -0.0218 C   0  0  0  0  0  0  0  0  0  0  0  0
   -1.3833   -1.5031   -0.0021 C   0  0  0  0  0  0  0  0  0  0  0  0
   -0.2426   -2.3538    0.0098 C   0  0  0  0  0  0  0  0  0  0  0  0
    1.0155   -1.8536    0.0191 C   0  0  0  0  0  0  0  0  0  0  0  0
    1.2629   -0.4491    0.0126 C   0  0  0  0  0  0  0  0  0  0  0  0
    0.1407    0.4243    0.0363 C   0  0  0  0  0  0  0  0  0  0  0  0
   -1.1756   -0.1026    0.0196 C   0  0  0  0  0  0  0  0  0  0  0  0
    4.6659   -2.2059   -0.6829 H   0  0  0  0  0  0  0  0  0  0  0  0
    3.7080    1.9021    0.1270 H   0  0  0  0  0  0  0  0  0  0  0  0
    1.7604    3.4182    0.1599 H   0  0  0  0  0  0  0  0  0  0  0  0
   -0.6569    3.7484    0.1109 H   0  0  0  0  0  0  0  0  0  0  0  0
   -2.9369    2.8254    0.0631 H   0  0  0  0  0  0  0  0  0  0  0  0
   -4.4333    0.8873    0.0062 H   0  0  0  0  0  0  0  0  0  0  0  0
   -4.7735   -1.5500   -0.0374 H   0  0  0  0  0  0  0  0  0  0  0  0
   -2.8383   -3.0736   -0.0377 H   0  0  0  0  0  0  0  0  0  0  0  0
   -0.4045   -3.4225    0.0147 H   0  0  0  0  0  0  0  0  0  0  0  0
    1.8556   -2.5269    0.0307 H   0  0  0  0  0  0  0  0  0  0  0  0
  1  2  2  0  0  0  0
  2  3  1  0  0  0  0
  2  4  1  0  0  0  0
  4  5  2  0  0  0  0
  5  6  1  0  0  0  0
  6  7  2  0  0  0  0
  7  8  1  0  0  0  0
  8  9  2  0  0  0  0
  9 10  1  0  0  0  0
 10 11  2  0  0  0  0
 11 12  1  0  0  0  0
 12 13  2  0  0  0  0
 13 14  1  0  0  0  0
 14 15  2  0  0  0  0
 15 16  1  0  0  0  0
 16 17  2  0  0  0  0
 17 18  1  0  0  0  0
 18 19  2  0  0  0  0
 17  4  1  0  0  0  0
 18  7  1  0  0  0  0
 19 10  1  0  0  0  0
 19 14  1  0  0  0  0
  3 20  1  0  0  0  0
  5 21  1  0  0  0  0
  6 22  1  0  0  0  0
  8 23  1  0  0  0  0
  9 24  1  0  0  0  0
 11 25  1  0  0  0  0
 12 26  1  0  0  0  0
 13 27  1  0  0  0  0
 15 28  1  0  0  0  0
 16 29  1  0  0  0  0
M  END
