
  xtb     03022214123D
 energy: -58.536088785608 gnorm: 0.000123826398 xtb: 6.4.1 (afa7bdf)
 31 32  0     0  0            999 V2000
    5.7795    0.5634    1.2413 C   0  0  0  0  0  0  0  0  0  0  0  0
    4.4683    0.1637    0.6510 C   0  0  0  0  0  0  0  0  0  0  0  0
    4.3272   -0.6831   -0.3938 C   0  0  0  0  0  0  0  0  0  0  0  0
    3.0212   -0.9837   -0.8760 C   0  0  0  0  0  0  0  0  0  0  0  0
    2.9365   -1.8079   -1.8912 O   0  0  0  0  0  0  0  0  0  0  0  0
    1.8997   -0.4037   -0.2632 C   0  0  0  0  0  0  0  0  0  0  0  0
    0.5722   -0.7463   -0.7895 C   0  0  0  0  0  0  0  0  0  0  0  0
    0.4710   -1.5235   -1.7556 O   0  0  0  0  0  0  0  0  0  0  0  0
   -0.6211   -0.1773   -0.1765 C   0  0  0  0  0  0  0  0  0  0  0  0
   -1.8382   -0.4928   -0.6543 C   0  0  0  0  0  0  0  0  0  0  0  0
   -3.1103   -0.0188   -0.1598 C   0  0  0  0  0  0  0  0  0  0  0  0
   -4.2839   -0.4524   -0.7870 C   0  0  0  0  0  0  0  0  0  0  0  0
   -5.5245   -0.0314   -0.3549 C   0  0  0  0  0  0  0  0  0  0  0  0
   -5.6084    0.8386    0.7227 C   0  0  0  0  0  0  0  0  0  0  0  0
   -7.1549    1.3710    1.2718 Cl  0  0  0  0  0  0  0  0  0  0  0  0
   -4.4602    1.2846    1.3636 C   0  0  0  0  0  0  0  0  0  0  0  0
   -3.2242    0.8587    0.9245 C   0  0  0  0  0  0  0  0  0  0  0  0
    2.1004    0.4962    0.8497 C   0  0  0  0  0  0  0  0  0  0  0  0
    1.2717    1.0883    1.4981 O   0  0  0  0  0  0  0  0  0  0  0  0
    3.4151    0.7227    1.2404 O   0  0  0  0  0  0  0  0  0  0  0  0
    6.3781   -0.3160    1.4655 H   0  0  0  0  0  0  0  0  0  0  0  0
    5.6102    1.1341    2.1499 H   0  0  0  0  0  0  0  0  0  0  0  0
    6.3339    1.1787    0.5346 H   0  0  0  0  0  0  0  0  0  0  0  0
    5.1734   -1.1394   -0.8762 H   0  0  0  0  0  0  0  0  0  0  0  0
    1.9468   -1.9094   -2.1019 H   0  0  0  0  0  0  0  0  0  0  0  0
   -0.4784    0.4887    0.6551 H   0  0  0  0  0  0  0  0  0  0  0  0
   -1.8831   -1.1728   -1.4979 H   0  0  0  0  0  0  0  0  0  0  0  0
   -4.2161   -1.1297   -1.6257 H   0  0  0  0  0  0  0  0  0  0  0  0
   -6.4235   -0.3712   -0.8450 H   0  0  0  0  0  0  0  0  0  0  0  0
   -4.5412    1.9608    2.2002 H   0  0  0  0  0  0  0  0  0  0  0  0
   -2.3374    1.2096    1.4276 H   0  0  0  0  0  0  0  0  0  0  0  0
  1  2  1  0  0  0  0
  2  3  2  0  0  0  0
  3  4  1  0  0  0  0
  4  5  1  0  0  0  0
  4  6  2  0  0  0  0
  6  7  1  0  0  0  0
  7  8  2  0  0  0  0
  7  9  1  0  0  0  0
  9 10  2  0  0  0  0
 10 11  1  0  0  0  0
 11 12  2  0  0  0  0
 12 13  1  0  0  0  0
 13 14  2  0  0  0  0
 14 15  1  0  0  0  0
 14 16  1  0  0  0  0
 16 17  2  0  0  0  0
  6 18  1  0  0  0  0
 18 19  2  0  0  0  0
 18 20  1  0  0  0  0
 20  2  1  0  0  0  0
 17 11  1  0  0  0  0
  1 21  1  0  0  0  0
  1 22  1  0  0  0  0
  1 23  1  0  0  0  0
  3 24  1  0  0  0  0
  5 25  1  0  0  0  0
  9 26  1  0  0  0  0
 10 27  1  0  0  0  0
 12 28  1  0  0  0  0
 13 29  1  0  0  0  0
 16 30  1  0  0  0  0
 17 31  1  0  0  0  0
M  END
