
  xtb     03022215003D
 energy: -86.759756354595 gnorm: 0.000138802983 xtb: 6.4.1 (afa7bdf)
 45 46  0     0  0            999 V2000
    5.8071    1.0296   -0.2776 C   0  0  0  0  0  0  0  0  0  0  0  0
    4.5427    0.3944   -0.7880 C   0  0  0  0  0  0  0  0  0  0  0  0
    4.4028   -0.7711   -1.0489 O   0  0  0  0  0  0  0  0  0  0  0  0
    3.5759    1.3120   -0.9298 O   0  0  0  0  0  0  0  0  0  0  0  0
    2.3173    0.8584   -1.3984 C   0  0  0  0  0  0  0  0  0  0  0  0
    1.5200    0.1478   -0.3014 C   0  0  0  0  0  0  0  0  0  0  0  0
    1.1590    1.0640    0.7168 O   0  0  0  0  0  0  0  0  0  0  0  0
   -0.1880    0.9363    1.0927 C   0  0  0  0  0  0  0  0  0  0  0  0
   -0.9738    2.2648    0.8324 C   0  0  0  0  0  0  0  0  0  0  0  0
   -2.1662    2.3251    1.7203 C   0  0  0  0  0  0  0  0  0  0  0  0
   -3.4248    2.3431    1.2629 C   0  0  0  0  0  0  0  0  0  0  0  0
   -4.7616    2.3725    2.3314 Cl  0  0  0  0  0  0  0  0  0  0  0  0
   -3.7116    2.3499   -0.1578 C   0  0  0  0  0  0  0  0  0  0  0  0
   -5.2093    2.3328   -0.8116 S   0  0  0  0  0  0  0  0  0  0  0  0
   -2.6143    2.3911   -0.9831 N   0  0  0  0  0  0  0  0  0  0  0  0
   -1.2876    2.4022   -0.6413 C   0  0  0  0  0  0  0  0  0  0  0  0
   -0.4403    2.4855   -1.5012 O   0  0  0  0  0  0  0  0  0  0  0  0
   -0.7763   -0.2574    0.3247 C   0  0  0  0  0  0  0  0  0  0  0  0
   -0.7962   -1.4372    1.1127 O   0  0  0  0  0  0  0  0  0  0  0  0
   -1.8239   -1.5512    1.9747 C   0  0  0  0  0  0  0  0  0  0  0  0
   -1.8096   -2.8896    2.6509 C   0  0  0  0  0  0  0  0  0  0  0  0
   -2.6301   -0.6778    2.1473 O   0  0  0  0  0  0  0  0  0  0  0  0
    0.2168   -0.4558   -0.8360 C   0  0  0  0  0  0  0  0  0  0  0  0
    0.4141   -1.8093   -1.1759 O   0  0  0  0  0  0  0  0  0  0  0  0
   -0.6559   -2.4562   -1.6753 C   0  0  0  0  0  0  0  0  0  0  0  0
   -0.3132   -3.8800   -1.9999 C   0  0  0  0  0  0  0  0  0  0  0  0
   -1.7226   -1.9290   -1.8400 O   0  0  0  0  0  0  0  0  0  0  0  0
    6.1309    1.7987   -0.9740 H   0  0  0  0  0  0  0  0  0  0  0  0
    5.6082    1.5033    0.6802 H   0  0  0  0  0  0  0  0  0  0  0  0
    6.5796    0.2748   -0.1696 H   0  0  0  0  0  0  0  0  0  0  0  0
    2.4649    0.1573   -2.2271 H   0  0  0  0  0  0  0  0  0  0  0  0
    1.7764    1.7490   -1.7223 H   0  0  0  0  0  0  0  0  0  0  0  0
    2.1310   -0.6563    0.1328 H   0  0  0  0  0  0  0  0  0  0  0  0
   -0.2272    0.7428    2.1733 H   0  0  0  0  0  0  0  0  0  0  0  0
   -0.2624    3.0566    1.0990 H   0  0  0  0  0  0  0  0  0  0  0  0
   -1.9802    2.3181    2.7833 H   0  0  0  0  0  0  0  0  0  0  0  0
   -2.8153    2.4373   -1.9794 H   0  0  0  0  0  0  0  0  0  0  0  0
   -1.7969   -0.0626   -0.0199 H   0  0  0  0  0  0  0  0  0  0  0  0
   -2.2590   -2.8087    3.6362 H   0  0  0  0  0  0  0  0  0  0  0  0
   -0.7945   -3.2688    2.7130 H   0  0  0  0  0  0  0  0  0  0  0  0
   -2.4058   -3.5780    2.0540 H   0  0  0  0  0  0  0  0  0  0  0  0
   -0.1407    0.0959   -1.7141 H   0  0  0  0  0  0  0  0  0  0  0  0
    0.2890   -4.3050   -1.2026 H   0  0  0  0  0  0  0  0  0  0  0  0
    0.2751   -3.8964   -2.9152 H   0  0  0  0  0  0  0  0  0  0  0  0
   -1.2232   -4.4531   -2.1481 H   0  0  0  0  0  0  0  0  0  0  0  0
  1  2  1  0  0  0  0
  2  3  2  0  0  0  0
  2  4  1  0  0  0  0
  4  5  1  0  0  0  0
  5  6  1  0  0  0  0
  6  7  1  0  0  0  0
  7  8  1  0  0  0  0
  8  9  1  0  0  0  0
  9 10  1  0  0  0  0
 10 11  2  0  0  0  0
 11 12  1  0  0  0  0
 11 13  1  0  0  0  0
 13 14  2  0  0  0  0
 13 15  1  0  0  0  0
 15 16  1  0  0  0  0
 16 17  2  0  0  0  0
  8 18  1  0  0  0  0
 18 19  1  0  0  0  0
 19 20  1  0  0  0  0
 20 21  1  0  0  0  0
 20 22  2  0  0  0  0
 18 23  1  0  0  0  0
 23 24  1  0  0  0  0
 24 25  1  0  0  0  0
 25 26  1  0  0  0  0
 25 27  2  0  0  0  0
 23  6  1  0  0  0  0
 16  9  1  0  0  0  0
  1 28  1  0  0  0  0
  1 29  1  0  0  0  0
  1 30  1  0  0  0  0
  5 31  1  0  0  0  0
  5 32  1  0  0  0  0
  6 33  1  0  0  0  0
  8 34  1  0  0  0  0
  9 35  1  0  0  0  0
 10 36  1  0  0  0  0
 15 37  1  0  0  0  0
 18 38  1  0  0  0  0
 21 39  1  0  0  0  0
 21 40  1  0  0  0  0
 21 41  1  0  0  0  0
 23 42  1  0  0  0  0
 26 43  1  0  0  0  0
 26 44  1  0  0  0  0
 26 45  1  0  0  0  0
M  END
