
  xtb     03022212033D
 energy: -69.012093631254 gnorm: 0.000163305028 xtb: 6.4.1 (afa7bdf)
 37 39  0     0  0            999 V2000
   -4.8485   -1.0684   -5.7867 C   0  0  0  0  0  0  0  0  0  0  0  0
   -3.6523   -0.4237   -5.4226 O   0  0  0  0  0  0  0  0  0  0  0  0
   -3.1944   -0.5640   -4.1509 C   0  0  0  0  0  0  0  0  0  0  0  0
   -3.8179   -1.3100   -3.1550 C   0  0  0  0  0  0  0  0  0  0  0  0
   -3.2621   -1.3812   -1.8913 C   0  0  0  0  0  0  0  0  0  0  0  0
   -2.0780   -0.7157   -1.5892 C   0  0  0  0  0  0  0  0  0  0  0  0
   -1.4698   -0.7691   -0.2687 C   0  0  0  0  0  0  0  0  0  0  0  0
   -1.9580   -1.4065    0.8475 C   0  0  0  0  0  0  0  0  0  0  0  0
   -0.9183   -1.2072    2.1914 S   0  0  0  0  0  0  0  0  0  0  0  0
    0.1422   -0.2532    1.1494 C   0  0  0  0  0  0  0  0  0  0  0  0
    1.3714    0.3291    1.6295 C   0  0  0  0  0  0  0  0  0  0  0  0
    2.1184    1.0255    0.6423 C   0  0  0  0  0  0  0  0  0  0  0  0
    2.7428    1.5432   -0.1658 N   0  0  0  0  0  0  0  0  0  0  0  0
    1.8294    0.1714    2.8886 C   0  0  0  0  0  0  0  0  0  0  0  0
    3.0575    0.7522    3.4139 C   0  0  0  0  0  0  0  0  0  0  0  0
    3.9802   -0.0644    4.0780 C   0  0  0  0  0  0  0  0  0  0  0  0
    3.6504   -1.7540    4.2151 Cl  0  0  0  0  0  0  0  0  0  0  0  0
    5.1621    0.4348    4.5943 C   0  0  0  0  0  0  0  0  0  0  0  0
    5.4407    1.7846    4.4656 C   0  0  0  0  0  0  0  0  0  0  0  0
    4.5398    2.6268    3.8394 C   0  0  0  0  0  0  0  0  0  0  0  0
    3.3602    2.1157    3.3229 C   0  0  0  0  0  0  0  0  0  0  0  0
    2.2230    3.2101    2.6269 Cl  0  0  0  0  0  0  0  0  0  0  0  0
   -0.2909   -0.1346   -0.0550 N   0  0  0  0  0  0  0  0  0  0  0  0
   -1.4551    0.0290   -2.5952 C   0  0  0  0  0  0  0  0  0  0  0  0
   -2.0034    0.1042   -3.8531 C   0  0  0  0  0  0  0  0  0  0  0  0
   -5.0153   -0.8113   -6.8316 H   0  0  0  0  0  0  0  0  0  0  0  0
   -4.7647   -2.1559   -5.6916 H   0  0  0  0  0  0  0  0  0  0  0  0
   -5.6946   -0.7146   -5.1886 H   0  0  0  0  0  0  0  0  0  0  0  0
   -4.7365   -1.8407   -3.3512 H   0  0  0  0  0  0  0  0  0  0  0  0
   -3.7641   -1.9677   -1.1369 H   0  0  0  0  0  0  0  0  0  0  0  0
   -2.8591   -1.9735    0.9597 H   0  0  0  0  0  0  0  0  0  0  0  0
    1.2750   -0.4674    3.5655 H   0  0  0  0  0  0  0  0  0  0  0  0
    5.8531   -0.2291    5.0886 H   0  0  0  0  0  0  0  0  0  0  0  0
    6.3612    2.1823    4.8625 H   0  0  0  0  0  0  0  0  0  0  0  0
    4.7414    3.6822    3.7520 H   0  0  0  0  0  0  0  0  0  0  0  0
   -0.5357    0.5440   -2.3653 H   0  0  0  0  0  0  0  0  0  0  0  0
   -1.5301    0.6773   -4.6343 H   0  0  0  0  0  0  0  0  0  0  0  0
  1  2  1  0  0  0  0
  2  3  1  0  0  0  0
  3  4  2  0  0  0  0
  4  5  1  0  0  0  0
  5  6  2  0  0  0  0
  6  7  1  0  0  0  0
  7  8  2  0  0  0  0
  8  9  1  0  0  0  0
  9 10  1  0  0  0  0
 10 11  1  0  0  0  0
 11 12  1  0  0  0  0
 12 13  3  0  0  0  0
 11 14  2  0  0  0  0
 14 15  1  0  0  0  0
 15 16  2  0  0  0  0
 16 17  1  0  0  0  0
 16 18  1  0  0  0  0
 18 19  2  0  0  0  0
 19 20  1  0  0  0  0
 20 21  2  0  0  0  0
 21 22  1  0  0  0  0
 10 23  2  0  0  0  0
  6 24  1  0  0  0  0
 24 25  2  0  0  0  0
 25  3  1  0  0  0  0
 23  7  1  0  0  0  0
 21 15  1  0  0  0  0
  1 26  1  0  0  0  0
  1 27  1  0  0  0  0
  1 28  1  0  0  0  0
  4 29  1  0  0  0  0
  5 30  1  0  0  0  0
  8 31  1  0  0  0  0
 14 32  1  0  0  0  0
 18 33  1  0  0  0  0
 19 34  1  0  0  0  0
 20 35  1  0  0  0  0
 24 36  1  0  0  0  0
 25 37  1  0  0  0  0
M  END
