
  xtb     03022213143D
 energy: -98.623389055835 gnorm: 0.000182944537 xtb: 6.4.1 (afa7bdf)
 72 77  0     0  0            999 V2000
   -4.4140    4.9769    1.8914 C   0  0  0  0  0  0  0  0  0  0  0  0
   -3.7721    3.6877    1.4774 C   0  0  0  0  0  0  0  0  0  0  0  0
   -3.8594    2.5598    2.2817 C   0  0  0  0  0  0  0  0  0  0  0  0
   -3.2609    1.3639    1.9220 C   0  0  0  0  0  0  0  0  0  0  0  0
   -3.3821    0.1847    2.8428 C   0  0  0  0  0  0  0  0  0  0  0  0
   -2.5284    1.2647    0.7259 C   0  0  0  0  0  0  0  0  0  0  0  0
   -1.7946   -0.0662    0.3370 B   0  0  0  0  0  0  0  0  0  0  0  0
   -0.2593   -0.0110    0.0485 C   0  0  0  0  0  0  0  0  0  0  0  0
    0.5549    0.9764    0.6147 C   0  0  0  0  0  0  0  0  0  0  0  0
    1.9111    1.0287    0.3692 C   0  0  0  0  0  0  0  0  0  0  0  0
    2.5028    0.0894   -0.4721 C   0  0  0  0  0  0  0  0  0  0  0  0
    3.8778    0.1397   -0.7321 N   0  0  0  0  0  0  0  0  0  0  0  0
    4.4658    0.1040   -1.9810 C   0  0  0  0  0  0  0  0  0  0  0  0
    3.8745    0.0659   -3.2357 C   0  0  0  0  0  0  0  0  0  0  0  0
    4.7045    0.0656   -4.3403 C   0  0  0  0  0  0  0  0  0  0  0  0
    6.0907    0.1114   -4.2093 C   0  0  0  0  0  0  0  0  0  0  0  0
    6.6839    0.1760   -2.9645 C   0  0  0  0  0  0  0  0  0  0  0  0
    5.8707    0.1778   -1.8390 C   0  0  0  0  0  0  0  0  0  0  0  0
    6.1346    0.2562   -0.4296 C   0  0  0  0  0  0  0  0  0  0  0  0
    7.3003    0.3301    0.3212 C   0  0  0  0  0  0  0  0  0  0  0  0
    7.1995    0.3701    1.6974 C   0  0  0  0  0  0  0  0  0  0  0  0
    5.9572    0.3208    2.3260 C   0  0  0  0  0  0  0  0  0  0  0  0
    4.7835    0.2472    1.6008 C   0  0  0  0  0  0  0  0  0  0  0  0
    4.8771    0.2333    0.2164 C   0  0  0  0  0  0  0  0  0  0  0  0
    1.7132   -0.9002   -1.0528 C   0  0  0  0  0  0  0  0  0  0  0  0
    0.3604   -0.9465   -0.7877 C   0  0  0  0  0  0  0  0  0  0  0  0
   -2.5262   -1.4492    0.2243 C   0  0  0  0  0  0  0  0  0  0  0  0
   -3.6344   -1.6144   -0.6253 C   0  0  0  0  0  0  0  0  0  0  0  0
   -4.1618   -0.4594   -1.4257 C   0  0  0  0  0  0  0  0  0  0  0  0
   -4.2370   -2.8540   -0.7603 C   0  0  0  0  0  0  0  0  0  0  0  0
   -3.7841   -3.9631   -0.0596 C   0  0  0  0  0  0  0  0  0  0  0  0
   -4.4668   -5.2899   -0.1965 C   0  0  0  0  0  0  0  0  0  0  0  0
   -2.7025   -3.7988    0.7896 C   0  0  0  0  0  0  0  0  0  0  0  0
   -2.0733   -2.5705    0.9345 C   0  0  0  0  0  0  0  0  0  0  0  0
   -0.9198   -2.4887    1.8957 C   0  0  0  0  0  0  0  0  0  0  0  0
   -2.4443    2.4047   -0.0863 C   0  0  0  0  0  0  0  0  0  0  0  0
   -1.7187    2.3892   -1.4034 C   0  0  0  0  0  0  0  0  0  0  0  0
   -3.0632    3.5879    0.2919 C   0  0  0  0  0  0  0  0  0  0  0  0
   -5.3340    4.7922    2.4420 H   0  0  0  0  0  0  0  0  0  0  0  0
   -4.6379    5.5957    1.0254 H   0  0  0  0  0  0  0  0  0  0  0  0
   -3.7403    5.5364    2.5418 H   0  0  0  0  0  0  0  0  0  0  0  0
   -4.4132    2.6166    3.2091 H   0  0  0  0  0  0  0  0  0  0  0  0
   -3.7816   -0.6764    2.3116 H   0  0  0  0  0  0  0  0  0  0  0  0
   -4.0378    0.4161    3.6791 H   0  0  0  0  0  0  0  0  0  0  0  0
   -2.4067   -0.0941    3.2388 H   0  0  0  0  0  0  0  0  0  0  0  0
    0.1057    1.7160    1.2627 H   0  0  0  0  0  0  0  0  0  0  0  0
    2.5190    1.8078    0.8057 H   0  0  0  0  0  0  0  0  0  0  0  0
    2.8010    0.0486   -3.3490 H   0  0  0  0  0  0  0  0  0  0  0  0
    4.2682    0.0327   -5.3278 H   0  0  0  0  0  0  0  0  0  0  0  0
    6.7050    0.1059   -5.0974 H   0  0  0  0  0  0  0  0  0  0  0  0
    7.7575    0.2289   -2.8629 H   0  0  0  0  0  0  0  0  0  0  0  0
    8.2636    0.3510   -0.1660 H   0  0  0  0  0  0  0  0  0  0  0  0
    8.0936    0.4308    2.2999 H   0  0  0  0  0  0  0  0  0  0  0  0
    5.9104    0.3368    3.4050 H   0  0  0  0  0  0  0  0  0  0  0  0
    3.8270    0.1910    2.0984 H   0  0  0  0  0  0  0  0  0  0  0  0
    2.1737   -1.6406   -1.6907 H   0  0  0  0  0  0  0  0  0  0  0  0
   -0.2407   -1.7242   -1.2378 H   0  0  0  0  0  0  0  0  0  0  0  0
   -4.3863    0.3851   -0.7781 H   0  0  0  0  0  0  0  0  0  0  0  0
   -5.0663   -0.7428   -1.9590 H   0  0  0  0  0  0  0  0  0  0  0  0
   -3.4231   -0.1300   -2.1551 H   0  0  0  0  0  0  0  0  0  0  0  0
   -5.0831   -2.9612   -1.4257 H   0  0  0  0  0  0  0  0  0  0  0  0
   -3.7821   -6.1044    0.0291 H   0  0  0  0  0  0  0  0  0  0  0  0
   -5.3053   -5.3510    0.4987 H   0  0  0  0  0  0  0  0  0  0  0  0
   -4.8565   -5.4234   -1.2034 H   0  0  0  0  0  0  0  0  0  0  0  0
   -2.3366   -4.6458    1.3545 H   0  0  0  0  0  0  0  0  0  0  0  0
   -0.6564   -1.4604    2.1225 H   0  0  0  0  0  0  0  0  0  0  0  0
   -0.0435   -2.9787    1.4705 H   0  0  0  0  0  0  0  0  0  0  0  0
   -1.1686   -3.0012    2.8241 H   0  0  0  0  0  0  0  0  0  0  0  0
   -0.7873    2.9503   -1.3235 H   0  0  0  0  0  0  0  0  0  0  0  0
   -2.3272    2.8641   -2.1719 H   0  0  0  0  0  0  0  0  0  0  0  0
   -1.4799    1.3788   -1.7198 H   0  0  0  0  0  0  0  0  0  0  0  0
   -2.9896    4.4495   -0.3581 H   0  0  0  0  0  0  0  0  0  0  0  0
  1  2  1  0  0  0  0
  2  3  2  0  0  0  0
  3  4  1  0  0  0  0
  4  5  1  0  0  0  0
  4  6  2  0  0  0  0
  6  7  1  0  0  0  0
  7  8  1  0  0  0  0
  8  9  2  0  0  0  0
  9 10  1  0  0  0  0
 10 11  2  0  0  0  0
 11 12  1  0  0  0  0
 12 13  1  0  0  0  0
 13 14  2  0  0  0  0
 14 15  1  0  0  0  0
 15 16  2  0  0  0  0
 16 17  1  0  0  0  0
 17 18  2  0  0  0  0
 18 19  1  0  0  0  0
 19 20  2  0  0  0  0
 20 21  1  0  0  0  0
 21 22  2  0  0  0  0
 22 23  1  0  0  0  0
 23 24  2  0  0  0  0
 11 25  1  0  0  0  0
 25 26  2  0  0  0  0
  7 27  1  0  0  0  0
 27 28  2  0  0  0  0
 28 29  1  0  0  0  0
 28 30  1  0  0  0  0
 30 31  2  0  0  0  0
 31 32  1  0  0  0  0
 31 33  1  0  0  0  0
 33 34  2  0  0  0  0
 34 35  1  0  0  0  0
  6 36  1  0  0  0  0
 36 37  1  0  0  0  0
 36 38  2  0  0  0  0
 38  2  1  0  0  0  0
 26  8  1  0  0  0  0
 34 27  1  0  0  0  0
 24 12  1  0  0  0  0
 18 13  1  0  0  0  0
 24 19  1  0  0  0  0
  1 39  1  0  0  0  0
  1 40  1  0  0  0  0
  1 41  1  0  0  0  0
  3 42  1  0  0  0  0
  5 43  1  0  0  0  0
  5 44  1  0  0  0  0
  5 45  1  0  0  0  0
  9 46  1  0  0  0  0
 10 47  1  0  0  0  0
 14 48  1  0  0  0  0
 15 49  1  0  0  0  0
 16 50  1  0  0  0  0
 17 51  1  0  0  0  0
 20 52  1  0  0  0  0
 21 53  1  0  0  0  0
 22 54  1  0  0  0  0
 23 55  1  0  0  0  0
 25 56  1  0  0  0  0
 26 57  1  0  0  0  0
 29 58  1  0  0  0  0
 29 59  1  0  0  0  0
 29 60  1  0  0  0  0
 30 61  1  0  0  0  0
 32 62  1  0  0  0  0
 32 63  1  0  0  0  0
 32 64  1  0  0  0  0
 33 65  1  0  0  0  0
 35 66  1  0  0  0  0
 35 67  1  0  0  0  0
 35 68  1  0  0  0  0
 37 69  1  0  0  0  0
 37 70  1  0  0  0  0
 37 71  1  0  0  0  0
 38 72  1  0  0  0  0
M  END
