
  xtb     03022213413D
 energy: -73.489161956887 gnorm: 0.000459451287 xtb: 6.4.1 (afa7bdf)
 41 44  0     0  0            999 V2000
    7.9674   -0.9679    0.9012 C   0  0  0  0  0  0  0  0  0  0  0  0
    7.0460    0.0376    0.5464 O   0  0  0  0  0  0  0  0  0  0  0  0
    5.7280   -0.2631    0.5094 C   0  0  0  0  0  0  0  0  0  0  0  0
    4.8756    0.7871    0.1445 C   0  0  0  0  0  0  0  0  0  0  0  0
    3.5179    0.5950    0.0741 C   0  0  0  0  0  0  0  0  0  0  0  0
    2.9684   -0.6600    0.3684 C   0  0  0  0  0  0  0  0  0  0  0  0
    1.5823   -0.8703    0.3003 C   0  0  0  0  0  0  0  0  0  0  0  0
    0.3829   -1.0270    0.2368 C   0  0  0  0  0  0  0  0  0  0  0  0
   -1.0063   -1.2667    0.1731 C   0  0  0  0  0  0  0  0  0  0  0  0
   -1.8792   -0.2273   -0.1676 C   0  0  0  0  0  0  0  0  0  0  0  0
   -1.4070    1.1544   -0.5246 C   0  0  0  0  0  0  0  0  0  0  0  0
   -2.3883    2.1963    0.0074 C   0  0  0  0  0  0  0  0  0  0  0  0
   -3.7837    1.8832   -0.4460 C   0  0  0  0  0  0  0  0  0  0  0  0
   -4.6954    2.8788   -0.7570 C   0  0  0  0  0  0  0  0  0  0  0  0
   -5.9901    2.5606   -1.1356 C   0  0  0  0  0  0  0  0  0  0  0  0
   -6.3947    1.2360   -1.2005 C   0  0  0  0  0  0  0  0  0  0  0  0
   -5.5020    0.2303   -0.8879 C   0  0  0  0  0  0  0  0  0  0  0  0
   -4.1956    0.5455   -0.5154 C   0  0  0  0  0  0  0  0  0  0  0  0
   -3.2462   -0.5171   -0.1888 C   0  0  0  0  0  0  0  0  0  0  0  0
   -3.7245   -1.6851    0.0674 O   0  0  0  0  0  3  0  0  0  0  0  0
   -2.8419   -2.8695    0.3586 B   0  0  0  0  0  4  0  0  0  0  0  0
   -3.2227   -3.4075    1.5500 F   0  0  0  0  0  0  0  0  0  0  0  0
   -2.9739   -3.7578   -0.6723 F   0  0  0  0  0  0  0  0  0  0  0  0
   -1.4023   -2.4642    0.4529 O   0  0  0  0  0  0  0  0  0  0  0  0
    3.8189   -1.7067    0.7316 C   0  0  0  0  0  0  0  0  0  0  0  0
    5.1831   -1.5135    0.8022 C   0  0  0  0  0  0  0  0  0  0  0  0
    7.9383   -1.8050    0.1968 H   0  0  0  0  0  0  0  0  0  0  0  0
    7.7877   -1.3368    1.9158 H   0  0  0  0  0  0  0  0  0  0  0  0
    8.9474   -0.4958    0.8584 H   0  0  0  0  0  0  0  0  0  0  0  0
    5.3167    1.7458   -0.0785 H   0  0  0  0  0  0  0  0  0  0  0  0
    2.8663    1.4080   -0.2092 H   0  0  0  0  0  0  0  0  0  0  0  0
   -0.4098    1.3215   -0.1154 H   0  0  0  0  0  0  0  0  0  0  0  0
   -1.3417    1.2429   -1.6145 H   0  0  0  0  0  0  0  0  0  0  0  0
   -2.3670    2.1874    1.1024 H   0  0  0  0  0  0  0  0  0  0  0  0
   -2.0978    3.1948   -0.3225 H   0  0  0  0  0  0  0  0  0  0  0  0
   -4.3904    3.9139   -0.7022 H   0  0  0  0  0  0  0  0  0  0  0  0
   -6.6855    3.3501   -1.3790 H   0  0  0  0  0  0  0  0  0  0  0  0
   -7.4044    0.9917   -1.4932 H   0  0  0  0  0  0  0  0  0  0  0  0
   -5.7888   -0.8089   -0.9308 H   0  0  0  0  0  0  0  0  0  0  0  0
    3.3975   -2.6745    0.9579 H   0  0  0  0  0  0  0  0  0  0  0  0
    5.8150   -2.3404    1.0856 H   0  0  0  0  0  0  0  0  0  0  0  0
  1  2  1  0  0  0  0
  2  3  1  0  0  0  0
  3  4  2  0  0  0  0
  4  5  1  0  0  0  0
  5  6  2  0  0  0  0
  6  7  1  0  0  0  0
  7  8  3  0  0  0  0
  8  9  1  0  0  0  0
  9 10  2  0  0  0  0
 10 11  1  0  0  0  0
 11 12  1  0  0  0  0
 12 13  1  0  0  0  0
 13 14  2  0  0  0  0
 14 15  1  0  0  0  0
 15 16  2  0  0  0  0
 16 17  1  0  0  0  0
 17 18  2  0  0  0  0
 18 19  1  0  0  0  0
 19 20  2  0  0  0  0
 20 21  1  0  0  0  0
 21 22  1  0  0  0  0
 21 23  1  0  0  0  0
 21 24  1  0  0  0  0
  6 25  1  0  0  0  0
 25 26  2  0  0  0  0
 26  3  1  0  0  0  0
 24  9  1  0  0  0  0
 19 10  1  0  0  0  0
 18 13  1  0  0  0  0
  1 27  1  0  0  0  0
  1 28  1  0  0  0  0
  1 29  1  0  0  0  0
  4 30  1  0  0  0  0
  5 31  1  0  0  0  0
 11 32  1  0  0  0  0
 11 33  1  0  0  0  0
 12 34  1  0  0  0  0
 12 35  1  0  0  0  0
 14 36  1  0  0  0  0
 15 37  1  0  0  0  0
 16 38  1  0  0  0  0
 17 39  1  0  0  0  0
 25 40  1  0  0  0  0
 26 41  1  0  0  0  0
M  CHG  1  20   1
M  CHG  1  21  -1
M  END
