
  xtb     03022213193D
 energy: -128.643658990837 gnorm: 0.000131448458 xtb: 6.4.1 (afa7bdf)
 77 81  0     0  0            999 V2000
   12.8808   -0.3748    1.7052 C   0  0  0  0  0  0  0  0  0  0  0  0
   12.3509   -0.0624    0.3050 C   0  0  0  0  0  0  0  0  0  0  0  0
   11.1491    0.7436    0.3375 N   0  0  0  0  0  0  0  0  0  0  0  0
   11.3533    2.1759    0.2837 C   0  0  0  0  0  0  0  0  0  0  0  0
   11.3340    2.7141   -1.1473 C   0  0  0  0  0  0  0  0  0  0  0  0
    9.9071    0.1970    0.4021 C   0  0  0  0  0  0  0  0  0  0  0  0
    9.7231   -1.1927    0.6164 C   0  0  0  0  0  0  0  0  0  0  0  0
    8.4770   -1.7485    0.6810 C   0  0  0  0  0  0  0  0  0  0  0  0
    7.3189   -0.9652    0.5433 C   0  0  0  0  0  0  0  0  0  0  0  0
    5.9998   -1.4599    0.5944 C   0  0  0  0  0  0  0  0  0  0  0  0
    4.9138   -0.6331    0.4466 C   0  0  0  0  0  0  0  0  0  0  0  0
    3.5901   -1.1859    0.5001 C   0  0  0  0  0  0  0  0  0  0  0  0
    2.4191   -0.5269    0.3773 C   0  0  0  0  0  0  0  0  0  0  0  0
    1.1553   -1.2233    0.4469 C   0  0  0  0  0  0  0  0  0  0  0  0
   -0.0410   -0.5153    0.3172 C   0  0  0  0  0  0  0  0  0  0  0  0
   -1.2528   -1.2053    0.3823 C   0  0  0  0  0  0  0  0  0  0  0  0
   -2.5008   -0.4897    0.2478 C   0  0  0  0  0  0  0  0  0  0  0  0
   -3.6859   -1.1328    0.2947 C   0  0  0  0  0  0  0  0  0  0  0  0
   -4.9966   -0.5596    0.1742 C   0  0  0  0  0  0  0  0  0  0  0  0
   -6.1002   -1.3737    0.2339 C   0  0  0  0  0  0  0  0  0  0  0  0
   -7.4074   -0.8574    0.1208 C   0  0  0  0  0  0  0  0  0  0  0  0
   -8.5825   -1.6258    0.1657 C   0  0  0  0  0  0  0  0  0  0  0  0
   -9.8144   -1.0491    0.0406 C   0  0  0  0  0  0  0  0  0  0  0  0
   -9.9680    0.3503   -0.1319 C   0  0  0  0  0  0  0  0  0  0  0  0
  -11.2020    0.9185   -0.2245 N   0  0  0  0  0  0  0  0  0  0  0  0
  -12.3848    0.1143   -0.4556 C   0  0  0  0  0  0  0  0  0  0  0  0
  -12.4283   -0.5018   -1.8548 C   0  0  0  0  0  0  0  0  0  0  0  0
  -11.3641    2.3559   -0.2733 C   0  0  0  0  0  0  0  0  0  0  0  0
  -11.2435    2.9389   -1.6820 C   0  0  0  0  0  0  0  0  0  0  0  0
   -8.7971    1.1209   -0.1765 C   0  0  0  0  0  0  0  0  0  0  0  0
   -7.5525    0.5326   -0.0520 C   0  0  0  0  0  0  0  0  0  0  0  0
   -6.4705    1.3403   -0.1129 O   0  0  0  0  0  0  0  0  0  0  0  0
   -5.1824    0.8828   -0.0141 C   0  0  0  0  0  0  0  0  0  0  0  0
   -4.3107    1.7133   -0.0913 O   0  0  0  0  0  0  0  0  0  0  0  0
   -1.3045   -2.4873    0.5606 O   0  0  0  0  0  3  0  0  0  0  0  0
   -0.0724   -3.3225    0.7101 B   0  0  0  0  0  4  0  0  0  0  0  0
   -0.1110   -3.9366    1.9345 F   0  0  0  0  0  0  0  0  0  0  0  0
   -0.0513   -4.2474   -0.3013 F   0  0  0  0  0  0  0  0  0  0  0  0
    1.1779   -2.5056    0.6295 O   0  0  0  0  0  0  0  0  0  0  0  0
    5.1320    0.8012    0.2337 C   0  0  0  0  0  0  0  0  0  0  0  0
    4.2789    1.6421    0.0902 O   0  0  0  0  0  0  0  0  0  0  0  0
    6.4307    1.2374    0.1923 O   0  0  0  0  0  0  0  0  0  0  0  0
    7.4951    0.4170    0.3365 C   0  0  0  0  0  0  0  0  0  0  0  0
    8.7535    0.9830    0.2637 C   0  0  0  0  0  0  0  0  0  0  0  0
   13.1141    0.5447    2.2367 H   0  0  0  0  0  0  0  0  0  0  0  0
   12.1412   -0.9221    2.2835 H   0  0  0  0  0  0  0  0  0  0  0  0
   13.7852   -0.9732    1.6361 H   0  0  0  0  0  0  0  0  0  0  0  0
   12.1606   -0.9873   -0.2435 H   0  0  0  0  0  0  0  0  0  0  0  0
   13.1101    0.4924   -0.2524 H   0  0  0  0  0  0  0  0  0  0  0  0
   10.5928    2.6761    0.8865 H   0  0  0  0  0  0  0  0  0  0  0  0
   12.3232    2.3925    0.7392 H   0  0  0  0  0  0  0  0  0  0  0  0
   11.4975    3.7883   -1.1423 H   0  0  0  0  0  0  0  0  0  0  0  0
   10.3792    2.5075   -1.6228 H   0  0  0  0  0  0  0  0  0  0  0  0
   12.1174    2.2475   -1.7400 H   0  0  0  0  0  0  0  0  0  0  0  0
   10.5753   -1.8378    0.7463 H   0  0  0  0  0  0  0  0  0  0  0  0
    8.3663   -2.8096    0.8472 H   0  0  0  0  0  0  0  0  0  0  0  0
    5.8467   -2.5189    0.7524 H   0  0  0  0  0  0  0  0  0  0  0  0
    3.5422   -2.2577    0.6560 H   0  0  0  0  0  0  0  0  0  0  0  0
    2.3872    0.5389    0.2214 H   0  0  0  0  0  0  0  0  0  0  0  0
   -0.0291    0.5491    0.1674 H   0  0  0  0  0  0  0  0  0  0  0  0
   -2.4450    0.5772    0.1071 H   0  0  0  0  0  0  0  0  0  0  0  0
   -3.6621   -2.2072    0.4371 H   0  0  0  0  0  0  0  0  0  0  0  0
   -5.9712   -2.4389    0.3707 H   0  0  0  0  0  0  0  0  0  0  0  0
   -8.4971   -2.6935    0.3026 H   0  0  0  0  0  0  0  0  0  0  0  0
  -10.6806   -1.6862    0.0925 H   0  0  0  0  0  0  0  0  0  0  0  0
  -13.2557    0.7588   -0.3229 H   0  0  0  0  0  0  0  0  0  0  0  0
  -12.4498   -0.6742    0.3008 H   0  0  0  0  0  0  0  0  0  0  0  0
  -11.5553   -1.1244   -2.0307 H   0  0  0  0  0  0  0  0  0  0  0  0
  -13.3206   -1.1136   -1.9591 H   0  0  0  0  0  0  0  0  0  0  0  0
  -12.4502    0.2742   -2.6148 H   0  0  0  0  0  0  0  0  0  0  0  0
  -12.3511    2.5958    0.1324 H   0  0  0  0  0  0  0  0  0  0  0  0
  -10.6254    2.8156    0.3866 H   0  0  0  0  0  0  0  0  0  0  0  0
  -12.0595    2.5942   -2.3119 H   0  0  0  0  0  0  0  0  0  0  0  0
  -11.2820    4.0239   -1.6355 H   0  0  0  0  0  0  0  0  0  0  0  0
  -10.3043    2.6420   -2.1408 H   0  0  0  0  0  0  0  0  0  0  0  0
   -8.8137    2.1866   -0.3219 H   0  0  0  0  0  0  0  0  0  0  0  0
    8.7986    2.0428    0.0849 H   0  0  0  0  0  0  0  0  0  0  0  0
  1  2  1  0  0  0  0
  2  3  1  0  0  0  0
  3  4  1  0  0  0  0
  4  5  1  0  0  0  0
  3  6  1  0  0  0  0
  6  7  2  0  0  0  0
  7  8  1  0  0  0  0
  8  9  2  0  0  0  0
  9 10  1  0  0  0  0
 10 11  2  0  0  0  0
 11 12  1  0  0  0  0
 12 13  2  0  0  0  0
 13 14  1  0  0  0  0
 14 15  2  0  0  0  0
 15 16  1  0  0  0  0
 16 17  1  0  0  0  0
 17 18  2  0  0  0  0
 18 19  1  0  0  0  0
 19 20  2  0  0  0  0
 20 21  1  0  0  0  0
 21 22  2  0  0  0  0
 22 23  1  0  0  0  0
 23 24  2  0  0  0  0
 24 25  1  0  0  0  0
 25 26  1  0  0  0  0
 26 27  1  0  0  0  0
 25 28  1  0  0  0  0
 28 29  1  0  0  0  0
 24 30  1  0  0  0  0
 30 31  2  0  0  0  0
 31 32  1  0  0  0  0
 32 33  1  0  0  0  0
 33 34  2  0  0  0  0
 16 35  2  0  0  0  0
 35 36  1  0  0  0  0
 36 37  1  0  0  0  0
 36 38  1  0  0  0  0
 36 39  1  0  0  0  0
 11 40  1  0  0  0  0
 40 41  2  0  0  0  0
 40 42  1  0  0  0  0
 42 43  1  0  0  0  0
 43 44  2  0  0  0  0
 44  6  1  0  0  0  0
 43  9  1  0  0  0  0
 39 14  1  0  0  0  0
 33 19  1  0  0  0  0
 31 21  1  0  0  0  0
  1 45  1  0  0  0  0
  1 46  1  0  0  0  0
  1 47  1  0  0  0  0
  2 48  1  0  0  0  0
  2 49  1  0  0  0  0
  4 50  1  0  0  0  0
  4 51  1  0  0  0  0
  5 52  1  0  0  0  0
  5 53  1  0  0  0  0
  5 54  1  0  0  0  0
  7 55  1  0  0  0  0
  8 56  1  0  0  0  0
 10 57  1  0  0  0  0
 12 58  1  0  0  0  0
 13 59  1  0  0  0  0
 15 60  1  0  0  0  0
 17 61  1  0  0  0  0
 18 62  1  0  0  0  0
 20 63  1  0  0  0  0
 22 64  1  0  0  0  0
 23 65  1  0  0  0  0
 26 66  1  0  0  0  0
 26 67  1  0  0  0  0
 27 68  1  0  0  0  0
 27 69  1  0  0  0  0
 27 70  1  0  0  0  0
 28 71  1  0  0  0  0
 28 72  1  0  0  0  0
 29 73  1  0  0  0  0
 29 74  1  0  0  0  0
 29 75  1  0  0  0  0
 30 76  1  0  0  0  0
 44 77  1  0  0  0  0
M  CHG  1  35   1
M  CHG  1  36  -1
M  END
