
  xtb     03022212333D
 energy: -95.259548480746 gnorm: 0.000196762374 xtb: 6.4.1 (afa7bdf)
 54 60  0     0  0            999 V2000
    1.1495   -2.9267   -0.2856 F   0  0  0  0  0  0  0  0  0  0  0  0
    0.8976   -1.8684    0.5743 B   0  0  0  0  0  4  0  0  0  0  0  0
    1.2579   -2.2121    1.8679 F   0  0  0  0  0  0  0  0  0  0  0  0
    1.6924   -0.6217    0.1214 N   0  0  0  0  0  0  0  0  0  0  0  0
    3.0251   -0.4173    0.0108 C   0  0  0  0  0  0  0  0  0  0  0  0
    4.0577   -1.3533    0.2975 C   0  0  0  0  0  0  0  0  0  0  0  0
    4.0186   -2.6674    0.7056 C   0  0  0  0  0  0  0  0  0  0  0  0
    5.2919   -3.2300    0.8764 C   0  0  0  0  0  0  0  0  0  0  0  0
    6.3015   -2.3564    0.6026 C   0  0  0  0  0  0  0  0  0  0  0  0
    5.7171   -0.8214    0.1265 S   0  0  0  0  0  0  0  0  0  0  0  0
    3.2514    0.9021   -0.4438 C   0  0  0  0  0  0  0  0  0  0  0  0
    2.0307    1.5182   -0.6262 C   0  0  0  0  0  0  0  0  0  0  0  0
    1.7607    2.8673   -1.0800 C   0  0  0  0  0  0  0  0  0  0  0  0
    0.5304    3.2013   -1.6513 C   0  0  0  0  0  0  0  0  0  0  0  0
    0.2839    4.4928   -2.0744 C   0  0  0  0  0  0  0  0  0  0  0  0
    1.2562    5.4713   -1.9421 C   0  0  0  0  0  0  0  0  0  0  0  0
    2.4823    5.1497   -1.3811 C   0  0  0  0  0  0  0  0  0  0  0  0
    2.7354    3.8611   -0.9547 C   0  0  0  0  0  0  0  0  0  0  0  0
    1.0524    0.5379   -0.2573 C   0  0  0  0  0  0  0  0  0  0  0  0
   -0.2468    0.7085   -0.2337 N   0  0  0  0  0  0  0  0  0  0  0  0
   -1.0382   -0.2622    0.1508 C   0  0  0  0  0  0  0  0  0  0  0  0
   -2.4694   -0.2211    0.2078 C   0  0  0  0  0  0  0  0  0  0  0  0
   -3.3036    0.9186   -0.1174 C   0  0  0  0  0  0  0  0  0  0  0  0
   -2.7971    2.2190   -0.0549 C   0  0  0  0  0  0  0  0  0  0  0  0
   -3.5991    3.2977   -0.3729 C   0  0  0  0  0  0  0  0  0  0  0  0
   -4.9177    3.1031   -0.7521 C   0  0  0  0  0  0  0  0  0  0  0  0
   -5.4319    1.8174   -0.8130 C   0  0  0  0  0  0  0  0  0  0  0  0
   -4.6354    0.7343   -0.4983 C   0  0  0  0  0  0  0  0  0  0  0  0
   -2.8564   -1.4780    0.6222 C   0  0  0  0  0  0  0  0  0  0  0  0
   -1.6947   -2.2637    0.8237 C   0  0  0  0  0  0  0  0  0  0  0  0
   -1.7060   -3.6164    1.2639 C   0  0  0  0  0  0  0  0  0  0  0  0
   -2.8468   -4.3573    1.5302 C   0  0  0  0  0  0  0  0  0  0  0  0
   -2.5748   -5.6606    1.9498 C   0  0  0  0  0  0  0  0  0  0  0  0
   -1.2326   -5.9160    2.0050 C   0  0  0  0  0  0  0  0  0  0  0  0
   -0.2852   -4.5748    1.5465 S   0  0  0  0  0  0  0  0  0  0  0  0
   -0.6081   -1.5133    0.5309 N   0  0  0  0  0  4  0  0  0  0  0  0
    3.1112   -3.2108    0.8745 H   0  0  0  0  0  0  0  0  0  0  0  0
    5.4556   -4.2449    1.1911 H   0  0  0  0  0  0  0  0  0  0  0  0
    7.3591   -2.5256    0.6528 H   0  0  0  0  0  0  0  0  0  0  0  0
    4.2238    1.3137   -0.6326 H   0  0  0  0  0  0  0  0  0  0  0  0
   -0.2221    2.4376   -1.7617 H   0  0  0  0  0  0  0  0  0  0  0  0
   -0.6721    4.7371   -2.5144 H   0  0  0  0  0  0  0  0  0  0  0  0
    1.0612    6.4802   -2.2747 H   0  0  0  0  0  0  0  0  0  0  0  0
    3.2424    5.9098   -1.2735 H   0  0  0  0  0  0  0  0  0  0  0  0
    3.6854    3.6217   -0.5014 H   0  0  0  0  0  0  0  0  0  0  0  0
   -1.7739    2.3702    0.2483 H   0  0  0  0  0  0  0  0  0  0  0  0
   -3.1938    4.2977   -0.3205 H   0  0  0  0  0  0  0  0  0  0  0  0
   -5.5430    3.9483   -0.9992 H   0  0  0  0  0  0  0  0  0  0  0  0
   -6.4584    1.6605   -1.1112 H   0  0  0  0  0  0  0  0  0  0  0  0
   -5.0368   -0.2654   -0.5679 H   0  0  0  0  0  0  0  0  0  0  0  0
   -3.8587   -1.8126    0.7975 H   0  0  0  0  0  0  0  0  0  0  0  0
   -3.8420   -3.9679    1.4228 H   0  0  0  0  0  0  0  0  0  0  0  0
   -3.3326   -6.3809    2.2006 H   0  0  0  0  0  0  0  0  0  0  0  0
   -0.7541   -6.8312    2.2939 H   0  0  0  0  0  0  0  0  0  0  0  0
  1  2  1  0  0  0  0
  2  3  1  0  0  0  0
  2  4  1  0  0  0  0
  4  5  1  0  0  0  0
  5  6  1  0  0  0  0
  6  7  2  0  0  0  0
  7  8  1  0  0  0  0
  8  9  2  0  0  0  0
  9 10  1  0  0  0  0
  5 11  2  0  0  0  0
 11 12  1  0  0  0  0
 12 13  1  0  0  0  0
 13 14  2  0  0  0  0
 14 15  1  0  0  0  0
 15 16  2  0  0  0  0
 16 17  1  0  0  0  0
 17 18  2  0  0  0  0
 12 19  2  0  0  0  0
 19 20  1  0  0  0  0
 20 21  2  0  0  0  0
 21 22  1  0  0  0  0
 22 23  1  0  0  0  0
 23 24  2  0  0  0  0
 24 25  1  0  0  0  0
 25 26  2  0  0  0  0
 26 27  1  0  0  0  0
 27 28  2  0  0  0  0
 22 29  2  0  0  0  0
 29 30  1  0  0  0  0
 30 31  1  0  0  0  0
 31 32  2  0  0  0  0
 32 33  1  0  0  0  0
 33 34  2  0  0  0  0
 34 35  1  0  0  0  0
 30 36  2  0  0  0  0
 36  2  1  0  0  0  0
 19  4  1  0  0  0  0
 36 21  1  0  0  0  0
 10  6  1  0  0  0  0
 18 13  1  0  0  0  0
 28 23  1  0  0  0  0
 35 31  1  0  0  0  0
  7 37  1  0  0  0  0
  8 38  1  0  0  0  0
  9 39  1  0  0  0  0
 11 40  1  0  0  0  0
 14 41  1  0  0  0  0
 15 42  1  0  0  0  0
 16 43  1  0  0  0  0
 17 44  1  0  0  0  0
 18 45  1  0  0  0  0
 24 46  1  0  0  0  0
 25 47  1  0  0  0  0
 26 48  1  0  0  0  0
 27 49  1  0  0  0  0
 28 50  1  0  0  0  0
 29 51  1  0  0  0  0
 32 52  1  0  0  0  0
 33 53  1  0  0  0  0
 34 54  1  0  0  0  0
M  CHG  1   2  -1
M  CHG  1  36   1
M  END
