
  xtb     03022212293D
 energy: -83.477250742180 gnorm: 0.000092167595 xtb: 6.4.1 (afa7bdf)
 53 57  0     0  0            999 V2000
    9.4554   -0.1134    0.0884 C   0  0  0  0  0  0  0  0  0  0  0  0
    8.5528   -1.1834    0.2223 O   0  0  0  0  0  0  0  0  0  0  0  0
    7.2175   -0.9168    0.1919 C   0  0  0  0  0  0  0  0  0  0  0  0
    6.3725   -2.0192    0.3347 C   0  0  0  0  0  0  0  0  0  0  0  0
    5.0054   -1.8609    0.3113 C   0  0  0  0  0  0  0  0  0  0  0  0
    4.4322   -0.5982    0.1543 C   0  0  0  0  0  0  0  0  0  0  0  0
    2.9743   -0.4275    0.1270 C   0  0  0  0  0  0  0  0  0  0  0  0
    2.3674    0.6546    0.7629 C   0  0  0  0  0  0  0  0  0  0  0  0
    0.9982    0.8206    0.7277 C   0  0  0  0  0  0  0  0  0  0  0  0
    0.1877   -0.0947    0.0594 C   0  0  0  0  0  0  0  0  0  0  0  0
   -1.2693    0.0839    0.0207 C   0  0  0  0  0  0  0  0  0  0  0  0
   -2.1321   -1.0061    0.1206 C   0  0  0  0  0  0  0  0  0  0  0  0
   -3.5085   -0.7908    0.0756 C   0  0  0  0  0  0  0  0  0  0  0  0
   -4.4591   -1.9155    0.1711 C   0  0  0  0  0  0  0  0  0  0  0  0
   -4.1709   -3.1561   -0.4008 C   0  0  0  0  0  0  0  0  0  0  0  0
   -5.0980   -4.1760   -0.2813 C   0  0  0  0  0  0  0  0  0  0  0  0
   -6.2789   -3.9307    0.4014 C   0  0  0  0  0  0  0  0  0  0  0  0
   -6.4749   -2.6603    0.9243 C   0  0  0  0  0  0  0  0  0  0  0  0
   -5.5983   -1.6828    0.8143 N   0  0  0  0  0  0  0  0  0  0  0  0
   -4.0364    0.4185   -0.0456 N   0  0  0  0  0  0  0  0  0  0  0  0
   -3.2255    1.4660   -0.1373 C   0  0  0  0  0  0  0  0  0  0  0  0
   -3.8628    2.7845   -0.2654 C   0  0  0  0  0  0  0  0  0  0  0  0
   -5.2537    2.8999   -0.2387 C   0  0  0  0  0  0  0  0  0  0  0  0
   -5.8161    4.1568   -0.3598 C   0  0  0  0  0  0  0  0  0  0  0  0
   -4.9789    5.2538   -0.5025 C   0  0  0  0  0  0  0  0  0  0  0  0
   -3.6093    5.0330   -0.5147 C   0  0  0  0  0  0  0  0  0  0  0  0
   -3.0610    3.8392   -0.4001 N   0  0  0  0  0  0  0  0  0  0  0  0
   -1.8375    1.3467   -0.1163 C   0  0  0  0  0  0  0  0  0  0  0  0
    0.7917   -1.1793   -0.5729 C   0  0  0  0  0  0  0  0  0  0  0  0
    2.1615   -1.3414   -0.5415 C   0  0  0  0  0  0  0  0  0  0  0  0
    5.2817    0.4942    0.0190 C   0  0  0  0  0  0  0  0  0  0  0  0
    6.6570    0.3455    0.0320 C   0  0  0  0  0  0  0  0  0  0  0  0
   10.4485   -0.5564    0.1447 H   0  0  0  0  0  0  0  0  0  0  0  0
    9.3389    0.6154    0.8972 H   0  0  0  0  0  0  0  0  0  0  0  0
    9.3402    0.3923   -0.8760 H   0  0  0  0  0  0  0  0  0  0  0  0
    6.8195   -2.9923    0.4641 H   0  0  0  0  0  0  0  0  0  0  0  0
    4.3689   -2.7238    0.4392 H   0  0  0  0  0  0  0  0  0  0  0  0
    2.9768    1.3610    1.3074 H   0  0  0  0  0  0  0  0  0  0  0  0
    0.5452    1.6550    1.2426 H   0  0  0  0  0  0  0  0  0  0  0  0
   -1.7384   -1.9995    0.2725 H   0  0  0  0  0  0  0  0  0  0  0  0
   -3.2514   -3.3096   -0.9445 H   0  0  0  0  0  0  0  0  0  0  0  0
   -4.9041   -5.1463   -0.7168 H   0  0  0  0  0  0  0  0  0  0  0  0
   -7.0264   -4.6997    0.5197 H   0  0  0  0  0  0  0  0  0  0  0  0
   -7.3814   -2.4123    1.4620 H   0  0  0  0  0  0  0  0  0  0  0  0
   -5.8466    2.0075   -0.1218 H   0  0  0  0  0  0  0  0  0  0  0  0
   -6.8894    4.2834   -0.3429 H   0  0  0  0  0  0  0  0  0  0  0  0
   -5.3755    6.2527   -0.6003 H   0  0  0  0  0  0  0  0  0  0  0  0
   -2.9123    5.8551   -0.6221 H   0  0  0  0  0  0  0  0  0  0  0  0
   -1.2346    2.2339   -0.2202 H   0  0  0  0  0  0  0  0  0  0  0  0
    0.1831   -1.8862   -1.1185 H   0  0  0  0  0  0  0  0  0  0  0  0
    2.6132   -2.1740   -1.0609 H   0  0  0  0  0  0  0  0  0  0  0  0
    4.8636    1.4800   -0.1239 H   0  0  0  0  0  0  0  0  0  0  0  0
    7.2783    1.2194   -0.0865 H   0  0  0  0  0  0  0  0  0  0  0  0
  1  2  1  0  0  0  0
  2  3  1  0  0  0  0
  3  4  2  0  0  0  0
  4  5  1  0  0  0  0
  5  6  2  0  0  0  0
  6  7  1  0  0  0  0
  7  8  2  0  0  0  0
  8  9  1  0  0  0  0
  9 10  2  0  0  0  0
 10 11  1  0  0  0  0
 11 12  2  0  0  0  0
 12 13  1  0  0  0  0
 13 14  1  0  0  0  0
 14 15  2  0  0  0  0
 15 16  1  0  0  0  0
 16 17  2  0  0  0  0
 17 18  1  0  0  0  0
 18 19  2  0  0  0  0
 13 20  2  0  0  0  0
 20 21  1  0  0  0  0
 21 22  1  0  0  0  0
 22 23  2  0  0  0  0
 23 24  1  0  0  0  0
 24 25  2  0  0  0  0
 25 26  1  0  0  0  0
 26 27  2  0  0  0  0
 21 28  2  0  0  0  0
 10 29  1  0  0  0  0
 29 30  2  0  0  0  0
  6 31  1  0  0  0  0
 31 32  2  0  0  0  0
 32  3  1  0  0  0  0
 30  7  1  0  0  0  0
 28 11  1  0  0  0  0
 19 14  1  0  0  0  0
 27 22  1  0  0  0  0
  1 33  1  0  0  0  0
  1 34  1  0  0  0  0
  1 35  1  0  0  0  0
  4 36  1  0  0  0  0
  5 37  1  0  0  0  0
  8 38  1  0  0  0  0
  9 39  1  0  0  0  0
 12 40  1  0  0  0  0
 15 41  1  0  0  0  0
 16 42  1  0  0  0  0
 17 43  1  0  0  0  0
 18 44  1  0  0  0  0
 23 45  1  0  0  0  0
 24 46  1  0  0  0  0
 25 47  1  0  0  0  0
 26 48  1  0  0  0  0
 28 49  1  0  0  0  0
 29 50  1  0  0  0  0
 30 51  1  0  0  0  0
 31 52  1  0  0  0  0
 32 53  1  0  0  0  0
M  END
