
  xtb     03022216043D
 energy: -86.088197690429 gnorm: 0.000197407733 xtb: 6.4.1 (afa7bdf)
 54 58  0     0  0            999 V2000
    6.9762   -2.8820    0.8801 C   0  0  0  0  0  0  0  0  0  0  0  0
    5.6554   -2.1846    0.7693 C   0  0  0  0  0  0  0  0  0  0  0  0
    4.5187   -2.8818    0.3712 C   0  0  0  0  0  0  0  0  0  0  0  0
    3.2954   -2.2524    0.2857 C   0  0  0  0  0  0  0  0  0  0  0  0
    3.1684   -0.8992    0.6049 C   0  0  0  0  0  0  0  0  0  0  0  0
    1.8490   -0.2685    0.4982 C   0  0  0  0  0  0  0  0  0  0  0  0
    1.5374    0.9424    1.1489 C   0  0  0  0  0  0  0  0  0  0  0  0
    0.2920    1.5085    0.9874 C   0  0  0  0  0  0  0  0  0  0  0  0
    0.0019    2.7437    1.7484 C   0  0  0  0  0  0  0  0  0  0  0  0
   -0.8248    2.7013    2.8681 C   0  0  0  0  0  0  0  0  0  0  0  0
   -1.0446    3.8353    3.6274 C   0  0  0  0  0  0  0  0  0  0  0  0
   -0.4377    5.0313    3.2792 C   0  0  0  0  0  0  0  0  0  0  0  0
    0.3892    5.0947    2.1713 C   0  0  0  0  0  0  0  0  0  0  0  0
    0.6091    3.9535    1.4170 C   0  0  0  0  0  0  0  0  0  0  0  0
    1.6326    4.0379    0.0164 Cl  0  0  0  0  0  0  0  0  0  0  0  0
   -0.6506    0.8638    0.1597 C   0  0  0  0  0  0  0  0  0  0  0  0
   -1.9522    1.3387   -0.1993 C   0  0  0  0  0  0  0  0  0  0  0  0
   -2.4204    2.5499    0.2046 N   0  0  0  0  0  0  0  0  0  0  0  0
   -2.7917    0.6312   -0.9189 N   0  0  0  0  0  0  0  0  0  0  0  0
   -2.4702   -0.5958   -1.3783 C   0  0  0  0  0  0  0  0  0  0  0  0
   -3.4570   -1.2005   -2.0618 N   0  0  0  0  0  0  0  0  0  0  0  0
   -3.3750   -2.4688   -2.7533 C   0  0  0  0  0  0  0  0  0  0  0  0
   -4.6756   -2.5383   -3.5532 C   0  0  0  0  0  0  0  0  0  0  0  0
   -5.6468   -1.7324   -2.6943 C   0  0  0  0  0  0  0  0  0  0  0  0
   -4.7682   -0.5943   -2.1872 C   0  0  0  0  0  0  0  0  0  0  0  0
   -1.1959   -1.1454   -1.1580 C   0  0  0  0  0  0  0  0  0  0  0  0
   -0.7669   -2.4022   -1.6069 C   0  0  0  0  0  0  0  0  0  0  0  0
   -0.3819   -3.4347   -1.9379 N   0  0  0  0  0  0  0  0  0  0  0  0
   -0.2664   -0.3922   -0.3928 C   0  0  0  0  0  0  0  0  0  0  0  0
    0.9545   -0.9122   -0.2191 N   0  0  0  0  0  0  0  0  0  0  0  0
    4.3071   -0.1967    0.9921 C   0  0  0  0  0  0  0  0  0  0  0  0
    5.5303   -0.8345    1.0714 C   0  0  0  0  0  0  0  0  0  0  0  0
    7.0247   -3.4399    1.8160 H   0  0  0  0  0  0  0  0  0  0  0  0
    7.7974   -2.1693    0.8668 H   0  0  0  0  0  0  0  0  0  0  0  0
    7.1077   -3.5894    0.0640 H   0  0  0  0  0  0  0  0  0  0  0  0
    4.5996   -3.9305    0.1228 H   0  0  0  0  0  0  0  0  0  0  0  0
    2.4150   -2.7881   -0.0334 H   0  0  0  0  0  0  0  0  0  0  0  0
    2.2527    1.4166    1.8023 H   0  0  0  0  0  0  0  0  0  0  0  0
   -1.2912    1.7644    3.1330 H   0  0  0  0  0  0  0  0  0  0  0  0
   -1.6862    3.7855    4.4937 H   0  0  0  0  0  0  0  0  0  0  0  0
   -0.6048    5.9182    3.8708 H   0  0  0  0  0  0  0  0  0  0  0  0
    0.8679    6.0195    1.8910 H   0  0  0  0  0  0  0  0  0  0  0  0
   -1.7742    3.2659    0.4859 H   0  0  0  0  0  0  0  0  0  0  0  0
   -3.2843    2.8362   -0.2252 H   0  0  0  0  0  0  0  0  0  0  0  0
   -3.3097   -3.2933   -2.0332 H   0  0  0  0  0  0  0  0  0  0  0  0
   -2.4921   -2.5105   -3.3948 H   0  0  0  0  0  0  0  0  0  0  0  0
   -4.5456   -2.0543   -4.5217 H   0  0  0  0  0  0  0  0  0  0  0  0
   -5.0008   -3.5630   -3.7167 H   0  0  0  0  0  0  0  0  0  0  0  0
   -5.9971   -2.3379   -1.8577 H   0  0  0  0  0  0  0  0  0  0  0  0
   -6.5088   -1.3738   -3.2525 H   0  0  0  0  0  0  0  0  0  0  0  0
   -5.0874   -0.1912   -1.2247 H   0  0  0  0  0  0  0  0  0  0  0  0
   -4.7312    0.2326   -2.9066 H   0  0  0  0  0  0  0  0  0  0  0  0
    4.2522    0.8595    1.2110 H   0  0  0  0  0  0  0  0  0  0  0  0
    6.4049   -0.2723    1.3687 H   0  0  0  0  0  0  0  0  0  0  0  0
  1  2  1  0  0  0  0
  2  3  2  0  0  0  0
  3  4  1  0  0  0  0
  4  5  2  0  0  0  0
  5  6  1  0  0  0  0
  6  7  2  0  0  0  0
  7  8  1  0  0  0  0
  8  9  1  0  0  0  0
  9 10  2  0  0  0  0
 10 11  1  0  0  0  0
 11 12  2  0  0  0  0
 12 13  1  0  0  0  0
 13 14  2  0  0  0  0
 14 15  1  0  0  0  0
  8 16  2  0  0  0  0
 16 17  1  0  0  0  0
 17 18  1  0  0  0  0
 17 19  2  0  0  0  0
 19 20  1  0  0  0  0
 20 21  1  0  0  0  0
 21 22  1  0  0  0  0
 22 23  1  0  0  0  0
 23 24  1  0  0  0  0
 24 25  1  0  0  0  0
 20 26  2  0  0  0  0
 26 27  1  0  0  0  0
 27 28  3  0  0  0  0
 26 29  1  0  0  0  0
 29 30  2  0  0  0  0
  5 31  1  0  0  0  0
 31 32  2  0  0  0  0
 32  2  1  0  0  0  0
 30  6  1  0  0  0  0
 14  9  1  0  0  0  0
 29 16  1  0  0  0  0
 25 21  1  0  0  0  0
  1 33  1  0  0  0  0
  1 34  1  0  0  0  0
  1 35  1  0  0  0  0
  3 36  1  0  0  0  0
  4 37  1  0  0  0  0
  7 38  1  0  0  0  0
 10 39  1  0  0  0  0
 11 40  1  0  0  0  0
 12 41  1  0  0  0  0
 13 42  1  0  0  0  0
 18 43  1  0  0  0  0
 18 44  1  0  0  0  0
 22 45  1  0  0  0  0
 22 46  1  0  0  0  0
 23 47  1  0  0  0  0
 23 48  1  0  0  0  0
 24 49  1  0  0  0  0
 24 50  1  0  0  0  0
 25 51  1  0  0  0  0
 25 52  1  0  0  0  0
 31 53  1  0  0  0  0
 32 54  1  0  0  0  0
M  END
