
  xtb     03022212243D
 energy: -120.415993011214 gnorm: 0.000305784959 xtb: 6.4.1 (afa7bdf)
 78 81  0     0  0            999 V2000
    0.2496    5.9362   -0.4455 C   0  0  0  0  0  0  0  0  0  0  0  0
    0.1742    4.4440   -0.3415 C   0  0  0  0  0  0  0  0  0  0  0  0
    0.3166    3.6417   -1.4641 C   0  0  0  0  0  0  0  0  0  0  0  0
    0.2679    2.2586   -1.3770 C   0  0  0  0  0  0  0  0  0  0  0  0
    0.4182    1.4013   -2.5969 C   0  0  0  0  0  0  0  0  0  0  0  0
    0.0680    1.6699   -0.1279 C   0  0  0  0  0  0  0  0  0  0  0  0
    0.0084    0.1994   -0.0152 C   0  0  0  0  0  0  0  0  0  0  0  0
    1.1825   -0.5399    0.1182 C   0  0  0  0  0  0  0  0  0  0  0  0
    2.5231   -0.1150    0.1746 C   0  0  0  0  0  0  0  0  0  0  0  0
    3.3117   -1.2530    0.3140 C   0  0  0  0  0  0  0  0  0  0  0  0
    4.7452   -1.2869    0.4136 C   0  0  0  0  0  0  0  0  0  0  0  0
    5.4867   -2.3936    0.5491 C   0  0  0  0  0  0  0  0  0  0  0  0
    6.9573   -2.3886    0.6554 C   0  0  0  0  0  0  0  0  0  0  0  0
    7.6030   -3.4027    0.7893 O   0  0  0  0  0  0  0  0  0  0  0  0
    7.4616   -1.1538    0.5884 O   0  0  0  0  0  0  0  0  0  0  0  0
    8.8875   -0.9187    0.6821 C   0  0  0  0  0  0  0  0  0  0  0  0
    9.0203    0.6003    0.5610 C   0  0  0  0  0  0  0  0  0  0  0  0
    9.4142   -1.3958    2.0353 C   0  0  0  0  0  0  0  0  0  0  0  0
    9.6168   -1.6129   -0.4678 C   0  0  0  0  0  0  0  0  0  0  0  0
    2.4125   -2.3451    0.3389 C   0  0  0  0  0  0  0  0  0  0  0  0
    1.1660   -1.9177    0.2241 N   0  0  0  0  0  4  0  0  0  0  0  0
   -0.1146   -2.7941    0.2180 B   0  0  0  0  0  4  0  0  0  0  0  0
   -0.0772   -3.6669   -0.8422 F   0  0  0  0  0  0  0  0  0  0  0  0
   -0.2163   -3.4763    1.4064 F   0  0  0  0  0  0  0  0  0  0  0  0
   -1.3191   -1.8284    0.0616 N   0  0  0  0  0  0  0  0  0  0  0  0
   -2.5968   -2.1653    0.0023 C   0  0  0  0  0  0  0  0  0  0  0  0
   -3.4036   -1.0125   -0.1462 C   0  0  0  0  0  0  0  0  0  0  0  0
   -4.8356   -0.9444   -0.2500 C   0  0  0  0  0  0  0  0  0  0  0  0
   -5.6649   -1.9954   -0.2256 C   0  0  0  0  0  0  0  0  0  0  0  0
   -7.1312   -1.8877   -0.3375 C   0  0  0  0  0  0  0  0  0  0  0  0
   -7.8576   -2.8546   -0.3141 O   0  0  0  0  0  0  0  0  0  0  0  0
   -7.5337   -0.6206   -0.4639 O   0  0  0  0  0  0  0  0  0  0  0  0
   -8.9375   -0.2879   -0.5906 C   0  0  0  0  0  0  0  0  0  0  0  0
   -9.5210   -0.9253   -1.8514 C   0  0  0  0  0  0  0  0  0  0  0  0
   -9.7024   -0.7333    0.6554 C   0  0  0  0  0  0  0  0  0  0  0  0
   -8.9469    1.2372   -0.7080 C   0  0  0  0  0  0  0  0  0  0  0  0
   -2.5241    0.0655   -0.1743 C   0  0  0  0  0  0  0  0  0  0  0  0
   -1.2225   -0.4537   -0.0429 C   0  0  0  0  0  0  0  0  0  0  0  0
   -0.0791    2.4562    1.0165 C   0  0  0  0  0  0  0  0  0  0  0  0
   -0.2916    1.8086    2.3511 C   0  0  0  0  0  0  0  0  0  0  0  0
   -0.0217    3.8348    0.8909 C   0  0  0  0  0  0  0  0  0  0  0  0
    1.2369    6.2809   -0.1373 H   0  0  0  0  0  0  0  0  0  0  0  0
   -0.4849    6.4059    0.2051 H   0  0  0  0  0  0  0  0  0  0  0  0
    0.0788    6.2652   -1.4672 H   0  0  0  0  0  0  0  0  0  0  0  0
    0.4677    4.1016   -2.4301 H   0  0  0  0  0  0  0  0  0  0  0  0
    0.5141    2.0149   -3.4887 H   0  0  0  0  0  0  0  0  0  0  0  0
   -0.4448    0.7470   -2.7138 H   0  0  0  0  0  0  0  0  0  0  0  0
    1.3015    0.7691   -2.5137 H   0  0  0  0  0  0  0  0  0  0  0  0
    2.8527    0.9044    0.1198 H   0  0  0  0  0  0  0  0  0  0  0  0
    5.2406   -0.3259    0.3745 H   0  0  0  0  0  0  0  0  0  0  0  0
    5.0477   -3.3785    0.5942 H   0  0  0  0  0  0  0  0  0  0  0  0
   10.0654    0.8885    0.6222 H   0  0  0  0  0  0  0  0  0  0  0  0
    8.6152    0.9352   -0.3904 H   0  0  0  0  0  0  0  0  0  0  0  0
    8.4705    1.0875    1.3621 H   0  0  0  0  0  0  0  0  0  0  0  0
   10.4618   -1.1261    2.1351 H   0  0  0  0  0  0  0  0  0  0  0  0
    8.8505   -0.9296    2.8409 H   0  0  0  0  0  0  0  0  0  0  0  0
    9.3181   -2.4747    2.1186 H   0  0  0  0  0  0  0  0  0  0  0  0
    9.5207   -2.6914   -0.3794 H   0  0  0  0  0  0  0  0  0  0  0  0
   10.6704   -1.3493   -0.4434 H   0  0  0  0  0  0  0  0  0  0  0  0
    9.1957   -1.2994   -1.4208 H   0  0  0  0  0  0  0  0  0  0  0  0
    2.6243   -3.3924    0.4340 H   0  0  0  0  0  0  0  0  0  0  0  0
   -2.8939   -3.1941    0.0658 H   0  0  0  0  0  0  0  0  0  0  0  0
   -5.2512    0.0487   -0.3568 H   0  0  0  0  0  0  0  0  0  0  0  0
   -5.3070   -3.0084   -0.1220 H   0  0  0  0  0  0  0  0  0  0  0  0
   -8.9346   -0.6367   -2.7214 H   0  0  0  0  0  0  0  0  0  0  0  0
   -9.5119   -2.0082   -1.7656 H   0  0  0  0  0  0  0  0  0  0  0  0
  -10.5453   -0.5907   -1.9889 H   0  0  0  0  0  0  0  0  0  0  0  0
  -10.7316   -0.3910    0.5936 H   0  0  0  0  0  0  0  0  0  0  0  0
   -9.2423   -0.3117    1.5468 H   0  0  0  0  0  0  0  0  0  0  0  0
   -9.6950   -1.8167    0.7358 H   0  0  0  0  0  0  0  0  0  0  0  0
   -8.5017    1.6820    0.1782 H   0  0  0  0  0  0  0  0  0  0  0  0
   -9.9665    1.5960   -0.8106 H   0  0  0  0  0  0  0  0  0  0  0  0
   -8.3725    1.5476   -1.5771 H   0  0  0  0  0  0  0  0  0  0  0  0
   -2.7690    1.1047   -0.2777 H   0  0  0  0  0  0  0  0  0  0  0  0
   -1.2272    1.2505    2.3605 H   0  0  0  0  0  0  0  0  0  0  0  0
    0.5123    1.1067    2.5688 H   0  0  0  0  0  0  0  0  0  0  0  0
   -0.3260    2.5556    3.1396 H   0  0  0  0  0  0  0  0  0  0  0  0
   -0.1329    4.4490    1.7729 H   0  0  0  0  0  0  0  0  0  0  0  0
  1  2  1  0  0  0  0
  2  3  2  0  0  0  0
  3  4  1  0  0  0  0
  4  5  1  0  0  0  0
  4  6  2  0  0  0  0
  6  7  1  0  0  0  0
  7  8  2  0  0  0  0
  8  9  1  0  0  0  0
  9 10  2  0  0  0  0
 10 11  1  0  0  0  0
 11 12  2  0  0  0  0
 12 13  1  0  0  0  0
 13 14  2  0  0  0  0
 13 15  1  0  0  0  0
 15 16  1  0  0  0  0
 16 17  1  0  0  0  0
 16 18  1  0  0  0  0
 16 19  1  0  0  0  0
 10 20  1  0  0  0  0
 20 21  2  0  0  0  0
 21 22  1  0  0  0  0
 22 23  1  0  0  0  0
 22 24  1  0  0  0  0
 22 25  1  0  0  0  0
 25 26  1  0  0  0  0
 26 27  2  0  0  0  0
 27 28  1  0  0  0  0
 28 29  2  0  0  0  0
 29 30  1  0  0  0  0
 30 31  2  0  0  0  0
 30 32  1  0  0  0  0
 32 33  1  0  0  0  0
 33 34  1  0  0  0  0
 33 35  1  0  0  0  0
 33 36  1  0  0  0  0
 27 37  1  0  0  0  0
 37 38  2  0  0  0  0
  6 39  1  0  0  0  0
 39 40  1  0  0  0  0
 39 41  2  0  0  0  0
 41  2  1  0  0  0  0
 38  7  1  0  0  0  0
 21  8  1  0  0  0  0
 38 25  1  0  0  0  0
  1 42  1  0  0  0  0
  1 43  1  0  0  0  0
  1 44  1  0  0  0  0
  3 45  1  0  0  0  0
  5 46  1  0  0  0  0
  5 47  1  0  0  0  0
  5 48  1  0  0  0  0
  9 49  1  0  0  0  0
 11 50  1  0  0  0  0
 12 51  1  0  0  0  0
 17 52  1  0  0  0  0
 17 53  1  0  0  0  0
 17 54  1  0  0  0  0
 18 55  1  0  0  0  0
 18 56  1  0  0  0  0
 18 57  1  0  0  0  0
 19 58  1  0  0  0  0
 19 59  1  0  0  0  0
 19 60  1  0  0  0  0
 20 61  1  0  0  0  0
 26 62  1  0  0  0  0
 28 63  1  0  0  0  0
 29 64  1  0  0  0  0
 34 65  1  0  0  0  0
 34 66  1  0  0  0  0
 34 67  1  0  0  0  0
 35 68  1  0  0  0  0
 35 69  1  0  0  0  0
 35 70  1  0  0  0  0
 36 71  1  0  0  0  0
 36 72  1  0  0  0  0
 36 73  1  0  0  0  0
 37 74  1  0  0  0  0
 40 75  1  0  0  0  0
 40 76  1  0  0  0  0
 40 77  1  0  0  0  0
 41 78  1  0  0  0  0
M  CHG  1  21   1
M  CHG  1  22  -1
M  END
