
  xtb     03022213383D
 energy: -51.499002399824 gnorm: 0.000335272230 xtb: 6.4.1 (afa7bdf)
 28 29  0     0  0            999 V2000
   -1.8305    2.0638    1.8058 N   0  0  0  0  0  0  0  0  0  0  0  0
   -1.8946    1.4668    0.8290 C   0  0  0  0  0  0  0  0  0  0  0  0
   -1.9877    0.6870   -0.3478 C   0  0  0  0  0  0  0  0  0  0  0  0
   -3.1662    0.6868   -1.0903 C   0  0  0  0  0  0  0  0  0  0  0  0
   -3.2746   -0.1238   -2.2040 C   0  0  0  0  0  0  0  0  0  0  0  0
   -2.2199   -0.9447   -2.5725 C   0  0  0  0  0  0  0  0  0  0  0  0
   -1.0477   -0.9524   -1.8364 C   0  0  0  0  0  0  0  0  0  0  0  0
   -0.9129   -0.1322   -0.7253 C   0  0  0  0  0  0  0  0  0  0  0  0
    0.3324   -0.1013    0.0586 C   0  0  0  0  0  0  0  0  0  0  0  0
    0.8490   -1.2629    0.6361 C   0  0  0  0  0  0  0  0  0  0  0  0
    0.2096   -2.5044    0.5044 C   0  0  0  0  0  0  0  0  0  0  0  0
   -0.2776   -3.5428    0.4282 N   0  0  0  0  0  0  0  0  0  0  0  0
    2.0363   -1.1621    1.4124 C   0  0  0  0  0  0  0  0  0  0  0  0
    2.5864   -2.2546    1.9748 N   0  0  0  0  0  0  0  0  0  0  0  0
    2.6609   -0.0080    1.6063 N   0  0  0  0  0  0  0  0  0  0  0  0
    2.1873    1.0999    1.0498 C   0  0  0  0  0  0  0  0  0  0  0  0
    2.8833    2.2332    1.2537 N   0  0  0  0  0  0  0  0  0  0  0  0
    1.0138    1.1021    0.2479 C   0  0  0  0  0  0  0  0  0  0  0  0
    0.5919    2.2913   -0.3680 C   0  0  0  0  0  0  0  0  0  0  0  0
    0.2999    3.2755   -0.8843 N   0  0  0  0  0  0  0  0  0  0  0  0
   -3.9843    1.3211   -0.7831 H   0  0  0  0  0  0  0  0  0  0  0  0
   -4.1853   -0.1200   -2.7833 H   0  0  0  0  0  0  0  0  0  0  0  0
   -2.3090   -1.5825   -3.4386 H   0  0  0  0  0  0  0  0  0  0  0  0
   -0.2248   -1.5869   -2.1308 H   0  0  0  0  0  0  0  0  0  0  0  0
    3.3849   -2.1327    2.5712 H   0  0  0  0  0  0  0  0  0  0  0  0
    2.1128   -3.1399    1.9400 H   0  0  0  0  0  0  0  0  0  0  0  0
    3.6570    2.2079    1.8935 H   0  0  0  0  0  0  0  0  0  0  0  0
    2.5101    3.1163    0.9522 H   0  0  0  0  0  0  0  0  0  0  0  0
  1  2  3  0  0  0  0
  2  3  1  0  0  0  0
  3  4  2  0  0  0  0
  4  5  1  0  0  0  0
  5  6  2  0  0  0  0
  6  7  1  0  0  0  0
  7  8  2  0  0  0  0
  8  9  1  0  0  0  0
  9 10  2  0  0  0  0
 10 11  1  0  0  0  0
 11 12  3  0  0  0  0
 10 13  1  0  0  0  0
 13 14  1  0  0  0  0
 13 15  2  0  0  0  0
 15 16  1  0  0  0  0
 16 17  1  0  0  0  0
 16 18  2  0  0  0  0
 18 19  1  0  0  0  0
 19 20  3  0  0  0  0
  8  3  1  0  0  0  0
 18  9  1  0  0  0  0
  4 21  1  0  0  0  0
  5 22  1  0  0  0  0
  6 23  1  0  0  0  0
  7 24  1  0  0  0  0
 14 25  1  0  0  0  0
 14 26  1  0  0  0  0
 17 27  1  0  0  0  0
 17 28  1  0  0  0  0
M  END
