
  xtb     03022212263D
 energy: -135.640770286137 gnorm: 0.000190663640 xtb: 6.4.1 (afa7bdf)
 83 88  0     0  0            999 V2000
    5.1946    6.7013    1.8688 C   0  0  0  0  0  0  0  0  0  0  0  0
    5.6970    5.7954    0.9201 O   0  0  0  0  0  0  0  0  0  0  0  0
    4.8425    4.7170    0.6268 C   0  0  0  0  0  0  0  0  0  0  0  0
    4.7649    3.6580    1.7432 C   0  0  0  0  0  0  0  0  0  0  0  0
    3.9422    2.5014    1.2975 C   0  0  0  0  0  0  0  0  0  0  0  0
    4.3810    1.3243    0.7768 C   0  0  0  0  0  0  0  0  0  0  0  0
    3.2107    0.5555    0.4544 C   0  0  0  0  0  0  0  0  0  0  0  0
    2.0984    1.2449    0.7593 N   0  0  0  0  0  0  0  0  0  0  0  0
    2.4879    2.4330    1.2699 C   0  0  0  0  0  0  0  0  0  0  0  0
    1.6474    3.4586    1.7107 C   0  0  0  0  0  0  0  0  0  0  0  0
    0.2719    3.5792    1.6768 C   0  0  0  0  0  0  0  0  0  0  0  0
   -0.6939    2.6991    1.1907 C   0  0  0  0  0  0  0  0  0  0  0  0
   -0.4803    1.4499    0.7158 N   0  0  0  0  0  0  0  0  0  0  0  0
   -1.6314    0.8391    0.3405 C   0  0  0  0  0  0  0  0  0  0  0  0
   -1.6673   -0.5167   -0.0128 C   0  0  0  0  0  0  0  0  0  0  0  0
   -0.5460   -1.2017   -0.3104 N   0  0  0  0  0  0  0  0  0  0  0  0
   -0.9032   -2.4734   -0.5711 C   0  0  0  0  0  0  0  0  0  0  0  0
   -0.0625   -3.5177   -0.9821 C   0  0  0  0  0  0  0  0  0  0  0  0
    1.3082   -3.5933   -1.1185 C   0  0  0  0  0  0  0  0  0  0  0  0
    2.2831   -2.6380   -0.8151 C   0  0  0  0  0  0  0  0  0  0  0  0
    2.0212   -1.3954   -0.3452 N   0  0  0  0  0  0  0  0  0  0  0  0
    3.1732   -0.7400   -0.0827 C   0  0  0  0  0  0  0  0  0  0  0  0
    4.2454   -1.6076   -0.4168 C   0  0  0  0  0  0  0  0  0  0  0  0
    3.7070   -2.7855   -0.8713 C   0  0  0  0  0  0  0  0  0  0  0  0
    4.4466   -3.9829   -1.3561 C   0  0  0  0  0  0  0  0  0  0  0  0
    4.4567   -4.0263   -2.8973 C   0  0  0  0  0  0  0  0  0  0  0  0
    4.9323   -5.2386   -3.4276 O   0  0  0  0  0  0  0  0  0  0  0  0
    6.3177   -5.4353   -3.2954 C   0  0  0  0  0  0  0  0  0  0  0  0
   -2.3411   -2.6279   -0.3775 C   0  0  0  0  0  0  0  0  0  0  0  0
   -3.0815   -3.9166   -0.5107 C   0  0  0  0  0  0  0  0  0  0  0  0
   -4.5124   -3.8413    0.0098 C   0  0  0  0  0  0  0  0  0  0  0  0
   -4.4788   -3.6488    1.4055 O   0  0  0  0  0  0  0  0  0  0  0  0
   -5.7441   -3.4271    1.9635 C   0  0  0  0  0  0  0  0  0  0  0  0
   -2.8043   -1.3996   -0.0323 C   0  0  0  0  0  0  0  0  0  0  0  0
   -2.6917    1.8034    0.4925 C   0  0  0  0  0  0  0  0  0  0  0  0
   -4.0286    1.8553    0.0855 C   0  0  0  0  0  0  0  0  0  0  0  0
   -4.6535    0.8446   -0.8250 C   0  0  0  0  0  0  0  0  0  0  0  0
   -4.2673    0.6419   -1.9437 O   0  0  0  0  0  0  0  0  0  0  0  0
   -5.6894    0.2195   -0.2506 O   0  0  0  0  0  0  0  0  0  0  0  0
   -6.4934   -0.5606   -1.1253 C   0  0  0  0  0  0  0  0  0  0  0  0
   -4.7699    2.9973    0.3989 C   0  0  0  0  0  0  0  0  0  0  0  0
   -6.1515    3.1430   -0.1092 C   0  0  0  0  0  0  0  0  0  0  0  0
   -6.5995    2.5918   -1.0844 O   0  0  0  0  0  0  0  0  0  0  0  0
   -6.8864    4.0037    0.6118 O   0  0  0  0  0  0  0  0  0  0  0  0
   -4.1986    4.0700    1.1018 C   0  0  0  0  0  0  0  0  0  0  0  0
   -2.8623    4.0702    1.4184 C   0  0  0  0  0  0  0  0  0  0  0  0
   -2.1012    2.9529    1.0895 C   0  0  0  0  0  0  0  0  0  0  0  0
    4.1944    7.0549    1.5876 H   0  0  0  0  0  0  0  0  0  0  0  0
    5.8836    7.5438    1.8827 H   0  0  0  0  0  0  0  0  0  0  0  0
    5.1473    6.2648    2.8731 H   0  0  0  0  0  0  0  0  0  0  0  0
    5.2604    4.2573   -0.2727 H   0  0  0  0  0  0  0  0  0  0  0  0
    3.8306    5.0831    0.3935 H   0  0  0  0  0  0  0  0  0  0  0  0
    5.7793    3.3249    1.9708 H   0  0  0  0  0  0  0  0  0  0  0  0
    4.3384    4.1027    2.6452 H   0  0  0  0  0  0  0  0  0  0  0  0
    5.3948    1.0061    0.6335 H   0  0  0  0  0  0  0  0  0  0  0  0
    2.1684    4.3091    2.1317 H   0  0  0  0  0  0  0  0  0  0  0  0
   -0.1292    4.5051    2.0680 H   0  0  0  0  0  0  0  0  0  0  0  0
    0.5183    1.0936    0.6632 H   0  0  0  0  0  0  0  0  0  0  0  0
   -0.5938   -4.4282   -1.2294 H   0  0  0  0  0  0  0  0  0  0  0  0
    1.6957   -4.5385   -1.4755 H   0  0  0  0  0  0  0  0  0  0  0  0
    1.0278   -1.0641   -0.2491 H   0  0  0  0  0  0  0  0  0  0  0  0
    5.2873   -1.3739   -0.3175 H   0  0  0  0  0  0  0  0  0  0  0  0
    5.4716   -3.9490   -0.9831 H   0  0  0  0  0  0  0  0  0  0  0  0
    3.9753   -4.8985   -0.9921 H   0  0  0  0  0  0  0  0  0  0  0  0
    3.4335   -3.9335   -3.2705 H   0  0  0  0  0  0  0  0  0  0  0  0
    5.0475   -3.1807   -3.2811 H   0  0  0  0  0  0  0  0  0  0  0  0
    6.8783   -4.5799   -3.6922 H   0  0  0  0  0  0  0  0  0  0  0  0
    6.5573   -6.3242   -3.8761 H   0  0  0  0  0  0  0  0  0  0  0  0
    6.6126   -5.6002   -2.2531 H   0  0  0  0  0  0  0  0  0  0  0  0
   -2.5573   -4.6918    0.0543 H   0  0  0  0  0  0  0  0  0  0  0  0
   -3.1071   -4.2184   -1.5627 H   0  0  0  0  0  0  0  0  0  0  0  0
   -5.0461   -4.7780   -0.2257 H   0  0  0  0  0  0  0  0  0  0  0  0
   -5.0521   -3.0173   -0.4781 H   0  0  0  0  0  0  0  0  0  0  0  0
   -6.1964   -2.5044    1.5766 H   0  0  0  0  0  0  0  0  0  0  0  0
   -6.4252   -4.2640    1.7585 H   0  0  0  0  0  0  0  0  0  0  0  0
   -5.5995   -3.3332    3.0379 H   0  0  0  0  0  0  0  0  0  0  0  0
   -3.7919   -1.1284    0.2720 H   0  0  0  0  0  0  0  0  0  0  0  0
   -7.1216   -1.1884   -0.4972 H   0  0  0  0  0  0  0  0  0  0  0  0
   -7.1055    0.1094   -1.7320 H   0  0  0  0  0  0  0  0  0  0  0  0
   -5.8639   -1.1634   -1.7838 H   0  0  0  0  0  0  0  0  0  0  0  0
   -7.7720    4.0808    0.2236 H   0  0  0  0  0  0  0  0  0  0  0  0
   -4.8196    4.9194    1.3375 H   0  0  0  0  0  0  0  0  0  0  0  0
   -2.4104    4.9266    1.8947 H   0  0  0  0  0  0  0  0  0  0  0  0
  1  2  1  0  0  0  0
  2  3  1  0  0  0  0
  3  4  1  0  0  0  0
  4  5  1  0  0  0  0
  5  6  2  0  0  0  0
  6  7  1  0  0  0  0
  7  8  2  0  0  0  0
  8  9  1  0  0  0  0
  9 10  2  0  0  0  0
 10 11  1  0  0  0  0
 11 12  2  0  0  0  0
 12 13  1  0  0  0  0
 13 14  1  0  0  0  0
 14 15  2  0  0  0  0
 15 16  1  0  0  0  0
 16 17  2  0  0  0  0
 17 18  1  0  0  0  0
 18 19  2  0  0  0  0
 19 20  1  0  0  0  0
 20 21  1  0  0  0  0
 21 22  1  0  0  0  0
 22 23  2  0  0  0  0
 23 24  1  0  0  0  0
 24 25  1  0  0  0  0
 25 26  1  0  0  0  0
 26 27  1  0  0  0  0
 27 28  1  0  0  0  0
 17 29  1  0  0  0  0
 29 30  1  0  0  0  0
 30 31  1  0  0  0  0
 31 32  1  0  0  0  0
 32 33  1  0  0  0  0
 29 34  2  0  0  0  0
 14 35  1  0  0  0  0
 35 36  2  0  0  0  0
 36 37  1  0  0  0  0
 37 38  2  0  0  0  0
 37 39  1  0  0  0  0
 39 40  1  0  0  0  0
 36 41  1  0  0  0  0
 41 42  1  0  0  0  0
 42 43  2  0  0  0  0
 42 44  1  0  0  0  0
 41 45  2  0  0  0  0
 45 46  1  0  0  0  0
 46 47  2  0  0  0  0
  9  5  1  0  0  0  0
 47 12  1  0  0  0  0
 22  7  1  0  0  0  0
 47 35  1  0  0  0  0
 34 15  1  0  0  0  0
 24 20  2  0  0  0  0
  1 48  1  0  0  0  0
  1 49  1  0  0  0  0
  1 50  1  0  0  0  0
  3 51  1  0  0  0  0
  3 52  1  0  0  0  0
  4 53  1  0  0  0  0
  4 54  1  0  0  0  0
  6 55  1  0  0  0  0
 10 56  1  0  0  0  0
 11 57  1  0  0  0  0
 13 58  1  0  0  0  0
 18 59  1  0  0  0  0
 19 60  1  0  0  0  0
 21 61  1  0  0  0  0
 23 62  1  0  0  0  0
 25 63  1  0  0  0  0
 25 64  1  0  0  0  0
 26 65  1  0  0  0  0
 26 66  1  0  0  0  0
 28 67  1  0  0  0  0
 28 68  1  0  0  0  0
 28 69  1  0  0  0  0
 30 70  1  0  0  0  0
 30 71  1  0  0  0  0
 31 72  1  0  0  0  0
 31 73  1  0  0  0  0
 33 74  1  0  0  0  0
 33 75  1  0  0  0  0
 33 76  1  0  0  0  0
 34 77  1  0  0  0  0
 40 78  1  0  0  0  0
 40 79  1  0  0  0  0
 40 80  1  0  0  0  0
 44 81  1  0  0  0  0
 45 82  1  0  0  0  0
 46 83  1  0  0  0  0
M  END
