
  xtb     03022213053D
 energy: -51.315266202830 gnorm: 0.000165950833 xtb: 6.4.1 (afa7bdf)
 33 35  0     0  0            999 V2000
    6.0787    0.6820    0.2427 C   0  0  0  0  0  0  0  0  0  0  0  0
    5.4794   -0.3408   -0.5128 O   0  0  0  0  0  0  0  0  0  0  0  0
    4.1287   -0.5114   -0.4196 C   0  0  0  0  0  0  0  0  0  0  0  0
    3.5907   -1.5490   -1.1834 C   0  0  0  0  0  0  0  0  0  0  0  0
    2.2378   -1.7982   -1.1732 C   0  0  0  0  0  0  0  0  0  0  0  0
    1.3733   -1.0192   -0.3999 C   0  0  0  0  0  0  0  0  0  0  0  0
    0.0144   -1.3168   -0.4096 N   0  0  0  0  0  0  0  0  0  0  0  0
   -1.0591   -0.4974   -0.1981 C   0  0  0  0  0  0  0  0  0  0  0  0
   -0.9702    0.9174   -0.3094 C   0  0  0  0  0  0  0  0  0  0  0  0
   -2.0960    1.6573   -0.1131 C   0  0  0  0  0  0  0  0  0  0  0  0
   -3.3198    1.0159    0.1899 C   0  0  0  0  0  0  0  0  0  0  0  0
   -4.5221    1.7073    0.4162 C   0  0  0  0  0  0  0  0  0  0  0  0
   -5.6780    1.0213    0.6753 C   0  0  0  0  0  0  0  0  0  0  0  0
   -5.6735   -0.3807    0.7158 C   0  0  0  0  0  0  0  0  0  0  0  0
   -4.5199   -1.0831    0.4991 C   0  0  0  0  0  0  0  0  0  0  0  0
   -3.3129   -0.4044    0.2347 C   0  0  0  0  0  0  0  0  0  0  0  0
   -2.1923   -1.1238    0.0383 N   0  0  0  0  0  0  0  0  0  0  0  0
    1.9178   -0.0111    0.3885 C   0  0  0  0  0  0  0  0  0  0  0  0
    3.2779    0.2487    0.3730 C   0  0  0  0  0  0  0  0  0  0  0  0
    5.9371    0.5256    1.3172 H   0  0  0  0  0  0  0  0  0  0  0  0
    7.1416    0.6357    0.0107 H   0  0  0  0  0  0  0  0  0  0  0  0
    5.6916    1.6680   -0.0350 H   0  0  0  0  0  0  0  0  0  0  0  0
    4.2610   -2.1458   -1.7811 H   0  0  0  0  0  0  0  0  0  0  0  0
    1.8340   -2.6038   -1.7687 H   0  0  0  0  0  0  0  0  0  0  0  0
   -0.2393   -2.2868   -0.5358 H   0  0  0  0  0  0  0  0  0  0  0  0
   -0.0359    1.3769   -0.5889 H   0  0  0  0  0  0  0  0  0  0  0  0
   -2.0731    2.7352   -0.2020 H   0  0  0  0  0  0  0  0  0  0  0  0
   -4.5161    2.7883    0.3813 H   0  0  0  0  0  0  0  0  0  0  0  0
   -6.6010    1.5550    0.8489 H   0  0  0  0  0  0  0  0  0  0  0  0
   -6.5959   -0.9047    0.9212 H   0  0  0  0  0  0  0  0  0  0  0  0
   -4.4994   -2.1613    0.5293 H   0  0  0  0  0  0  0  0  0  0  0  0
    1.2815    0.5629    1.0441 H   0  0  0  0  0  0  0  0  0  0  0  0
    3.6589    1.0408    0.9982 H   0  0  0  0  0  0  0  0  0  0  0  0
  1  2  1  0  0  0  0
  2  3  1  0  0  0  0
  3  4  2  0  0  0  0
  4  5  1  0  0  0  0
  5  6  2  0  0  0  0
  6  7  1  0  0  0  0
  7  8  1  0  0  0  0
  8  9  2  0  0  0  0
  9 10  1  0  0  0  0
 10 11  2  0  0  0  0
 11 12  1  0  0  0  0
 12 13  2  0  0  0  0
 13 14  1  0  0  0  0
 14 15  2  0  0  0  0
 15 16  1  0  0  0  0
 16 17  2  0  0  0  0
  6 18  1  0  0  0  0
 18 19  2  0  0  0  0
 19  3  1  0  0  0  0
 17  8  1  0  0  0  0
 16 11  1  0  0  0  0
  1 20  1  0  0  0  0
  1 21  1  0  0  0  0
  1 22  1  0  0  0  0
  4 23  1  0  0  0  0
  5 24  1  0  0  0  0
  7 25  1  0  0  0  0
  9 26  1  0  0  0  0
 10 27  1  0  0  0  0
 12 28  1  0  0  0  0
 13 29  1  0  0  0  0
 14 30  1  0  0  0  0
 15 31  1  0  0  0  0
 18 32  1  0  0  0  0
 19 33  1  0  0  0  0
M  END
