
  xtb     03022212363D
 energy: -98.629685505601 gnorm: 0.000159227488 xtb: 6.4.1 (afa7bdf)
 72 77  0     0  0            999 V2000
    0.0725   -4.4584   -2.1316 C   0  0  0  0  0  0  0  0  0  0  0  0
   -0.1969   -3.1421   -1.4697 C   0  0  0  0  0  0  0  0  0  0  0  0
   -0.4701   -3.0737   -0.1141 C   0  0  0  0  0  0  0  0  0  0  0  0
   -0.6893   -1.8611    0.5220 C   0  0  0  0  0  0  0  0  0  0  0  0
   -1.0687   -1.9007    1.9752 C   0  0  0  0  0  0  0  0  0  0  0  0
   -0.6435   -0.6581   -0.2000 C   0  0  0  0  0  0  0  0  0  0  0  0
   -0.7311    0.7461    0.4951 B   0  0  0  0  0  0  0  0  0  0  0  0
    0.2419    1.0662    1.6924 C   0  0  0  0  0  0  0  0  0  0  0  0
   -0.2308    1.8932    2.7209 C   0  0  0  0  0  0  0  0  0  0  0  0
    0.4917    2.1287    3.8744 C   0  0  0  0  0  0  0  0  0  0  0  0
    1.7398    1.5498    4.0360 C   0  0  0  0  0  0  0  0  0  0  0  0
    2.2500    0.7448    3.0347 C   0  0  0  0  0  0  0  0  0  0  0  0
    1.5167    0.5002    1.8790 C   0  0  0  0  0  0  0  0  0  0  0  0
    2.0921   -0.3549    0.9154 N   0  0  0  0  0  0  0  0  0  0  0  0
    2.4603   -0.0296   -0.3692 C   0  0  0  0  0  0  0  0  0  0  0  0
    2.5362    1.2168   -0.9712 C   0  0  0  0  0  0  0  0  0  0  0  0
    2.9919    1.2789   -2.2744 C   0  0  0  0  0  0  0  0  0  0  0  0
    3.3689    0.1306   -2.9667 C   0  0  0  0  0  0  0  0  0  0  0  0
    3.3344   -1.1082   -2.3584 C   0  0  0  0  0  0  0  0  0  0  0  0
    2.8936   -1.1937   -1.0451 C   0  0  0  0  0  0  0  0  0  0  0  0
    2.8011   -2.2680   -0.0995 C   0  0  0  0  0  0  0  0  0  0  0  0
    3.0842   -3.6254   -0.1603 C   0  0  0  0  0  0  0  0  0  0  0  0
    2.9056   -4.3903    0.9747 C   0  0  0  0  0  0  0  0  0  0  0  0
    2.4610   -3.8160    2.1637 C   0  0  0  0  0  0  0  0  0  0  0  0
    2.1688   -2.4686    2.2481 C   0  0  0  0  0  0  0  0  0  0  0  0
    2.3284   -1.6991    1.1054 C   0  0  0  0  0  0  0  0  0  0  0  0
   -1.8274    1.8046    0.1046 C   0  0  0  0  0  0  0  0  0  0  0  0
   -1.5211    3.1411   -0.2054 C   0  0  0  0  0  0  0  0  0  0  0  0
   -0.1067    3.6405   -0.2573 C   0  0  0  0  0  0  0  0  0  0  0  0
   -2.5246    4.0425   -0.5320 C   0  0  0  0  0  0  0  0  0  0  0  0
   -3.8584    3.6732   -0.5505 C   0  0  0  0  0  0  0  0  0  0  0  0
   -4.9315    4.6507   -0.9200 C   0  0  0  0  0  0  0  0  0  0  0  0
   -4.1685    2.3593   -0.2324 C   0  0  0  0  0  0  0  0  0  0  0  0
   -3.1867    1.4347    0.0823 C   0  0  0  0  0  0  0  0  0  0  0  0
   -3.6163    0.0436    0.4457 C   0  0  0  0  0  0  0  0  0  0  0  0
   -0.4484   -0.7389   -1.5902 C   0  0  0  0  0  0  0  0  0  0  0  0
   -0.4907    0.4964   -2.4411 C   0  0  0  0  0  0  0  0  0  0  0  0
   -0.2140   -1.9612   -2.1967 C   0  0  0  0  0  0  0  0  0  0  0  0
    0.6346   -4.3203   -3.0522 H   0  0  0  0  0  0  0  0  0  0  0  0
    0.6346   -5.1104   -1.4664 H   0  0  0  0  0  0  0  0  0  0  0  0
   -0.8666   -4.9558   -2.3781 H   0  0  0  0  0  0  0  0  0  0  0  0
   -0.4974   -3.9843    0.4683 H   0  0  0  0  0  0  0  0  0  0  0  0
   -0.4837   -2.6528    2.5000 H   0  0  0  0  0  0  0  0  0  0  0  0
   -2.1195   -2.1805    2.0663 H   0  0  0  0  0  0  0  0  0  0  0  0
   -0.9311   -0.9379    2.4585 H   0  0  0  0  0  0  0  0  0  0  0  0
   -1.2051    2.3467    2.6043 H   0  0  0  0  0  0  0  0  0  0  0  0
    0.0840    2.7639    4.6470 H   0  0  0  0  0  0  0  0  0  0  0  0
    2.3150    1.7287    4.9324 H   0  0  0  0  0  0  0  0  0  0  0  0
    3.2269    0.2942    3.1382 H   0  0  0  0  0  0  0  0  0  0  0  0
    2.2685    2.1104   -0.4299 H   0  0  0  0  0  0  0  0  0  0  0  0
    3.0621    2.2389   -2.7656 H   0  0  0  0  0  0  0  0  0  0  0  0
    3.7123    0.2194   -3.9869 H   0  0  0  0  0  0  0  0  0  0  0  0
    3.6562   -1.9940   -2.8853 H   0  0  0  0  0  0  0  0  0  0  0  0
    3.4385   -4.0688   -1.0788 H   0  0  0  0  0  0  0  0  0  0  0  0
    3.1198   -5.4489    0.9491 H   0  0  0  0  0  0  0  0  0  0  0  0
    2.3446   -4.4388    3.0392 H   0  0  0  0  0  0  0  0  0  0  0  0
    1.8302   -2.0274    3.1740 H   0  0  0  0  0  0  0  0  0  0  0  0
   -0.0786    4.7192   -0.1170 H   0  0  0  0  0  0  0  0  0  0  0  0
    0.3298    3.4201   -1.2323 H   0  0  0  0  0  0  0  0  0  0  0  0
    0.5058    3.1725    0.5072 H   0  0  0  0  0  0  0  0  0  0  0  0
   -2.2558    5.0618   -0.7747 H   0  0  0  0  0  0  0  0  0  0  0  0
   -5.8440    4.4543   -0.3610 H   0  0  0  0  0  0  0  0  0  0  0  0
   -4.6107    5.6720   -0.7272 H   0  0  0  0  0  0  0  0  0  0  0  0
   -5.1638    4.5639   -1.9822 H   0  0  0  0  0  0  0  0  0  0  0  0
   -5.2049    2.0496   -0.2310 H   0  0  0  0  0  0  0  0  0  0  0  0
   -4.6948   -0.0610    0.3496 H   0  0  0  0  0  0  0  0  0  0  0  0
   -3.1357   -0.6888   -0.1985 H   0  0  0  0  0  0  0  0  0  0  0  0
   -3.3392   -0.1811    1.4738 H   0  0  0  0  0  0  0  0  0  0  0  0
   -1.4897    0.9306   -2.4230 H   0  0  0  0  0  0  0  0  0  0  0  0
   -0.2323    0.2608   -3.4709 H   0  0  0  0  0  0  0  0  0  0  0  0
    0.2076    1.2434   -2.0744 H   0  0  0  0  0  0  0  0  0  0  0  0
   -0.0324   -1.9935   -3.2623 H   0  0  0  0  0  0  0  0  0  0  0  0
  1  2  1  0  0  0  0
  2  3  2  0  0  0  0
  3  4  1  0  0  0  0
  4  5  1  0  0  0  0
  4  6  2  0  0  0  0
  6  7  1  0  0  0  0
  7  8  1  0  0  0  0
  8  9  2  0  0  0  0
  9 10  1  0  0  0  0
 10 11  2  0  0  0  0
 11 12  1  0  0  0  0
 12 13  2  0  0  0  0
 13 14  1  0  0  0  0
 14 15  1  0  0  0  0
 15 16  2  0  0  0  0
 16 17  1  0  0  0  0
 17 18  2  0  0  0  0
 18 19  1  0  0  0  0
 19 20  2  0  0  0  0
 20 21  1  0  0  0  0
 21 22  2  0  0  0  0
 22 23  1  0  0  0  0
 23 24  2  0  0  0  0
 24 25  1  0  0  0  0
 25 26  2  0  0  0  0
  7 27  1  0  0  0  0
 27 28  2  0  0  0  0
 28 29  1  0  0  0  0
 28 30  1  0  0  0  0
 30 31  2  0  0  0  0
 31 32  1  0  0  0  0
 31 33  1  0  0  0  0
 33 34  2  0  0  0  0
 34 35  1  0  0  0  0
  6 36  1  0  0  0  0
 36 37  1  0  0  0  0
 36 38  2  0  0  0  0
 38  2  1  0  0  0  0
 13  8  1  0  0  0  0
 26 14  1  0  0  0  0
 34 27  1  0  0  0  0
 20 15  1  0  0  0  0
 26 21  1  0  0  0  0
  1 39  1  0  0  0  0
  1 40  1  0  0  0  0
  1 41  1  0  0  0  0
  3 42  1  0  0  0  0
  5 43  1  0  0  0  0
  5 44  1  0  0  0  0
  5 45  1  0  0  0  0
  9 46  1  0  0  0  0
 10 47  1  0  0  0  0
 11 48  1  0  0  0  0
 12 49  1  0  0  0  0
 16 50  1  0  0  0  0
 17 51  1  0  0  0  0
 18 52  1  0  0  0  0
 19 53  1  0  0  0  0
 22 54  1  0  0  0  0
 23 55  1  0  0  0  0
 24 56  1  0  0  0  0
 25 57  1  0  0  0  0
 29 58  1  0  0  0  0
 29 59  1  0  0  0  0
 29 60  1  0  0  0  0
 30 61  1  0  0  0  0
 32 62  1  0  0  0  0
 32 63  1  0  0  0  0
 32 64  1  0  0  0  0
 33 65  1  0  0  0  0
 35 66  1  0  0  0  0
 35 67  1  0  0  0  0
 35 68  1  0  0  0  0
 37 69  1  0  0  0  0
 37 70  1  0  0  0  0
 37 71  1  0  0  0  0
 38 72  1  0  0  0  0
M  END
