
  xtb     03022214573D
 energy: -67.678623777067 gnorm: 0.000251531245 xtb: 6.4.1 (afa7bdf)
 35 37  0     0  0            999 V2000
   -7.8618   -0.2929    0.0115 C   0  0  0  0  0  0  0  0  0  0  0  0
   -6.4308   -0.7745   -0.0533 C   0  0  0  0  0  0  0  0  0  0  0  0
   -6.1166   -1.9284   -0.1983 O   0  0  0  0  0  0  0  0  0  0  0  0
   -5.5325    0.2630    0.0731 N   0  0  0  0  0  0  0  0  0  0  0  0
   -4.1486    0.2297    0.0678 C   0  0  0  0  0  0  0  0  0  0  0  0
   -3.4677    1.4470    0.2165 C   0  0  0  0  0  0  0  0  0  0  0  0
   -2.0968    1.4843    0.2228 C   0  0  0  0  0  0  0  0  0  0  0  0
   -1.3574    0.2976    0.0796 C   0  0  0  0  0  0  0  0  0  0  0  0
   -0.0031    0.4280    0.0996 N   0  0  0  0  0  0  0  0  0  0  0  0
    0.6981   -0.6343   -0.0211 N   0  0  0  0  0  0  0  0  0  0  0  0
    2.0163   -0.4824   -0.0201 C   0  0  0  0  0  0  0  0  0  0  0  0
    2.8520   -1.4594   -0.0869 N   0  0  0  0  0  0  0  0  0  0  0  0
    4.1343   -1.0529   -0.0804 C   0  0  0  0  0  0  0  0  0  0  0  0
    5.2512   -1.8944   -0.1384 C   0  0  0  0  0  0  0  0  0  0  0  0
    6.5062   -1.3399   -0.1274 C   0  0  0  0  0  0  0  0  0  0  0  0
    6.6625    0.0517   -0.0588 C   0  0  0  0  0  0  0  0  0  0  0  0
    7.9911    0.6043   -0.0484 N   0  0  0  0  0  4  0  0  0  0  0  0
    8.9247   -0.1689   -0.0980 O   0  0  0  0  0  0  0  0  0  0  0  0
    8.0998    1.8114    0.0090 O   0  0  0  0  0  1  0  0  0  0  0  0
    5.5796    0.9153    0.0004 C   0  0  0  0  0  0  0  0  0  0  0  0
    4.3136    0.3601   -0.0095 C   0  0  0  0  0  0  0  0  0  0  0  0
    2.7916    1.1685    0.0556 S   0  0  0  0  0  0  0  0  0  0  0  0
   -2.0450   -0.9217   -0.0714 C   0  0  0  0  0  0  0  0  0  0  0  0
   -3.4167   -0.9561   -0.0772 C   0  0  0  0  0  0  0  0  0  0  0  0
   -8.5281   -1.1444   -0.0906 H   0  0  0  0  0  0  0  0  0  0  0  0
   -8.0523    0.1972    0.9644 H   0  0  0  0  0  0  0  0  0  0  0  0
   -8.0589    0.4133   -0.7927 H   0  0  0  0  0  0  0  0  0  0  0  0
   -5.9308    1.1863    0.1879 H   0  0  0  0  0  0  0  0  0  0  0  0
   -4.0342    2.3613    0.3272 H   0  0  0  0  0  0  0  0  0  0  0  0
   -1.5616    2.4138    0.3366 H   0  0  0  0  0  0  0  0  0  0  0  0
    5.1012   -2.9600   -0.1900 H   0  0  0  0  0  0  0  0  0  0  0  0
    7.3920   -1.9544   -0.1706 H   0  0  0  0  0  0  0  0  0  0  0  0
    5.7366    1.9814    0.0536 H   0  0  0  0  0  0  0  0  0  0  0  0
   -1.4663   -1.8260   -0.1807 H   0  0  0  0  0  0  0  0  0  0  0  0
   -3.9417   -1.8897   -0.1920 H   0  0  0  0  0  0  0  0  0  0  0  0
  1  2  1  0  0  0  0
  2  3  2  0  0  0  0
  2  4  1  0  0  0  0
  4  5  1  0  0  0  0
  5  6  2  0  0  0  0
  6  7  1  0  0  0  0
  7  8  2  0  0  0  0
  8  9  1  0  0  0  0
  9 10  2  0  0  0  0
 10 11  1  0  0  0  0
 11 12  2  0  0  0  0
 12 13  1  0  0  0  0
 13 14  2  0  0  0  0
 14 15  1  0  0  0  0
 15 16  2  0  0  0  0
 16 17  1  0  0  0  0
 17 18  2  0  0  0  0
 17 19  1  0  0  0  0
 16 20  1  0  0  0  0
 20 21  2  0  0  0  0
 21 22  1  0  0  0  0
  8 23  1  0  0  0  0
 23 24  2  0  0  0  0
 24  5  1  0  0  0  0
 22 11  1  0  0  0  0
 21 13  1  0  0  0  0
  1 25  1  0  0  0  0
  1 26  1  0  0  0  0
  1 27  1  0  0  0  0
  4 28  1  0  0  0  0
  6 29  1  0  0  0  0
  7 30  1  0  0  0  0
 14 31  1  0  0  0  0
 15 32  1  0  0  0  0
 20 33  1  0  0  0  0
 23 34  1  0  0  0  0
 24 35  1  0  0  0  0
M  CHG  1  17   1
M  CHG  1  19  -1
M  END
