
  xtb     03022212113D
 energy: -53.393220943759 gnorm: 0.000059971167 xtb: 6.4.1 (afa7bdf)
 36 39  0     0  0            999 V2000
    4.0247   -0.8022    1.8028 C   0  0  0  0  0  0  0  0  0  0  0  0
    3.2550   -0.3361    0.6061 C   0  0  0  0  0  0  0  0  0  0  0  0
    3.9018    0.0500   -0.5660 C   0  0  0  0  0  0  0  0  0  0  0  0
    3.1345    0.4555   -1.6437 C   0  0  0  0  0  0  0  0  0  0  0  0
    1.7559    0.4741   -1.5182 C   0  0  0  0  0  0  0  0  0  0  0  0
    1.1922    0.0827   -0.3038 C   0  0  0  0  0  0  0  0  0  0  0  0
   -0.2753    0.0780   -0.1313 C   0  0  0  0  0  0  0  0  0  0  0  0
   -0.9954    1.2743   -0.2848 C   0  0  0  0  0  0  0  0  0  0  0  0
   -0.3624    2.5278   -0.4937 C   0  0  0  0  0  0  0  0  0  0  0  0
   -1.0885    3.6694   -0.6467 C   0  0  0  0  0  0  0  0  0  0  0  0
   -2.4971    3.6375   -0.5959 C   0  0  0  0  0  0  0  0  0  0  0  0
   -3.1431    2.4623   -0.3689 C   0  0  0  0  0  0  0  0  0  0  0  0
   -2.4228    1.2525   -0.1956 C   0  0  0  0  0  0  0  0  0  0  0  0
   -3.0745    0.0513    0.0623 C   0  0  0  0  0  0  0  0  0  0  0  0
   -2.3683   -1.1323    0.2490 C   0  0  0  0  0  0  0  0  0  0  0  0
   -3.0341   -2.3539    0.5269 C   0  0  0  0  0  0  0  0  0  0  0  0
   -2.3369   -3.5093    0.6968 C   0  0  0  0  0  0  0  0  0  0  0  0
   -0.9308   -3.5073    0.5913 C   0  0  0  0  0  0  0  0  0  0  0  0
   -0.2558   -2.3559    0.3229 C   0  0  0  0  0  0  0  0  0  0  0  0
   -0.9414   -1.1255    0.1518 C   0  0  0  0  0  0  0  0  0  0  0  0
    1.9367   -0.3168    0.7218 N   0  0  0  0  0  0  0  0  0  0  0  0
    3.3335   -1.0632    2.5986 H   0  0  0  0  0  0  0  0  0  0  0  0
    4.6943   -0.0176    2.1512 H   0  0  0  0  0  0  0  0  0  0  0  0
    4.6279   -1.6725    1.5489 H   0  0  0  0  0  0  0  0  0  0  0  0
    4.9794    0.0252   -0.6264 H   0  0  0  0  0  0  0  0  0  0  0  0
    3.6034    0.7523   -2.5715 H   0  0  0  0  0  0  0  0  0  0  0  0
    1.1221    0.7716   -2.3397 H   0  0  0  0  0  0  0  0  0  0  0  0
    0.7165    2.5686   -0.5153 H   0  0  0  0  0  0  0  0  0  0  0  0
   -0.5888    4.6145   -0.8026 H   0  0  0  0  0  0  0  0  0  0  0  0
   -3.0521    4.5551   -0.7267 H   0  0  0  0  0  0  0  0  0  0  0  0
   -4.2217    2.4262   -0.3094 H   0  0  0  0  0  0  0  0  0  0  0  0
   -4.1542    0.0386    0.1241 H   0  0  0  0  0  0  0  0  0  0  0  0
   -4.1125   -2.3417    0.6004 H   0  0  0  0  0  0  0  0  0  0  0  0
   -2.8504   -4.4356    0.9100 H   0  0  0  0  0  0  0  0  0  0  0  0
   -0.3925   -4.4345    0.7245 H   0  0  0  0  0  0  0  0  0  0  0  0
    0.8202   -2.3627    0.2507 H   0  0  0  0  0  0  0  0  0  0  0  0
  1  2  1  0  0  0  0
  2  3  2  0  0  0  0
  3  4  1  0  0  0  0
  4  5  2  0  0  0  0
  5  6  1  0  0  0  0
  6  7  1  0  0  0  0
  7  8  1  0  0  0  0
  8  9  2  0  0  0  0
  9 10  1  0  0  0  0
 10 11  2  0  0  0  0
 11 12  1  0  0  0  0
 12 13  2  0  0  0  0
 13 14  1  0  0  0  0
 14 15  2  0  0  0  0
 15 16  1  0  0  0  0
 16 17  2  0  0  0  0
 17 18  1  0  0  0  0
 18 19  2  0  0  0  0
 19 20  1  0  0  0  0
  6 21  2  0  0  0  0
 21  2  1  0  0  0  0
 20  7  2  0  0  0  0
 13  8  1  0  0  0  0
 20 15  1  0  0  0  0
  1 22  1  0  0  0  0
  1 23  1  0  0  0  0
  1 24  1  0  0  0  0
  3 25  1  0  0  0  0
  4 26  1  0  0  0  0
  5 27  1  0  0  0  0
  9 28  1  0  0  0  0
 10 29  1  0  0  0  0
 11 30  1  0  0  0  0
 12 31  1  0  0  0  0
 14 32  1  0  0  0  0
 16 33  1  0  0  0  0
 17 34  1  0  0  0  0
 18 35  1  0  0  0  0
 19 36  1  0  0  0  0
M  END
