
  xtb     03022214263D
 energy: -63.545645240669 gnorm: 0.000296649138 xtb: 6.4.1 (afa7bdf)
 37 40  0     0  0            999 V2000
    6.6980   -0.2134    0.1088 C   0  0  0  0  0  0  0  0  0  0  0  0
    5.2037   -0.1559    0.0619 C   0  0  0  0  0  0  0  0  0  0  0  0
    4.4864   -0.9154   -0.8562 C   0  0  0  0  0  0  0  0  0  0  0  0
    3.1068   -0.8815   -0.8907 C   0  0  0  0  0  0  0  0  0  0  0  0
    2.3951   -0.0781    0.0016 C   0  0  0  0  0  0  0  0  0  0  0  0
    0.9289    0.0051    0.0162 C   0  0  0  0  0  0  0  0  0  0  0  0
    0.1226   -0.6692   -0.8700 C   0  0  0  0  0  0  0  0  0  0  0  0
   -1.2845   -0.5638   -0.8263 C   0  0  0  0  0  0  0  0  0  0  0  0
   -2.0632   -1.2915   -1.7706 C   0  0  0  0  0  0  0  0  0  0  0  0
   -3.4149   -1.2107   -1.7550 C   0  0  0  0  0  0  0  0  0  0  0  0
   -4.0574   -0.3937   -0.7910 C   0  0  0  0  0  0  0  0  0  0  0  0
   -5.4556   -0.2757   -0.7357 C   0  0  0  0  0  0  0  0  0  0  0  0
   -6.0518    0.5216    0.2052 C   0  0  0  0  0  0  0  0  0  0  0  0
   -5.2589    1.2233    1.1180 C   0  0  0  0  0  0  0  0  0  0  0  0
   -3.8901    1.1283    1.0897 C   0  0  0  0  0  0  0  0  0  0  0  0
   -3.2531    0.3180    0.1354 C   0  0  0  0  0  0  0  0  0  0  0  0
   -1.8885    0.2096    0.0893 N   0  0  0  0  0  4  0  0  0  0  0  0
   -0.9976    1.0135    1.1376 B   0  0  0  0  0  4  0  0  0  0  0  0
   -1.3457    0.6031    2.4059 F   0  0  0  0  0  0  0  0  0  0  0  0
   -1.2502    2.3587    0.9776 F   0  0  0  0  0  0  0  0  0  0  0  0
    0.4265    0.7755    0.9407 O   0  0  0  0  0  0  0  0  0  0  0  0
    3.1172    0.6834    0.9252 C   0  0  0  0  0  0  0  0  0  0  0  0
    4.4948    0.6437    0.9526 C   0  0  0  0  0  0  0  0  0  0  0  0
    7.0164   -0.9236    0.8727 H   0  0  0  0  0  0  0  0  0  0  0  0
    7.1146    0.7585    0.3634 H   0  0  0  0  0  0  0  0  0  0  0  0
    7.1070   -0.5371   -0.8451 H   0  0  0  0  0  0  0  0  0  0  0  0
    5.0196   -1.5431   -1.5559 H   0  0  0  0  0  0  0  0  0  0  0  0
    2.5915   -1.4879   -1.6183 H   0  0  0  0  0  0  0  0  0  0  0  0
    0.5437   -1.3007   -1.6307 H   0  0  0  0  0  0  0  0  0  0  0  0
   -1.5415   -1.9026   -2.4900 H   0  0  0  0  0  0  0  0  0  0  0  0
   -4.0187   -1.7575   -2.4649 H   0  0  0  0  0  0  0  0  0  0  0  0
   -6.0476   -0.8274   -1.4516 H   0  0  0  0  0  0  0  0  0  0  0  0
   -7.1268    0.6106    0.2451 H   0  0  0  0  0  0  0  0  0  0  0  0
   -5.7308    1.8511    1.8583 H   0  0  0  0  0  0  0  0  0  0  0  0
   -3.3009    1.6772    1.8017 H   0  0  0  0  0  0  0  0  0  0  0  0
    2.5720    1.3062    1.6168 H   0  0  0  0  0  0  0  0  0  0  0  0
    5.0330    1.2415    1.6740 H   0  0  0  0  0  0  0  0  0  0  0  0
  1  2  1  0  0  0  0
  2  3  2  0  0  0  0
  3  4  1  0  0  0  0
  4  5  2  0  0  0  0
  5  6  1  0  0  0  0
  6  7  2  0  0  0  0
  7  8  1  0  0  0  0
  8  9  2  0  0  0  0
  9 10  1  0  0  0  0
 10 11  2  0  0  0  0
 11 12  1  0  0  0  0
 12 13  2  0  0  0  0
 13 14  1  0  0  0  0
 14 15  2  0  0  0  0
 15 16  1  0  0  0  0
 16 17  2  0  0  0  0
 17 18  1  0  0  0  0
 18 19  1  0  0  0  0
 18 20  1  0  0  0  0
 18 21  1  0  0  0  0
  5 22  1  0  0  0  0
 22 23  2  0  0  0  0
 23  2  1  0  0  0  0
 21  6  1  0  0  0  0
 17  8  1  0  0  0  0
 16 11  1  0  0  0  0
  1 24  1  0  0  0  0
  1 25  1  0  0  0  0
  1 26  1  0  0  0  0
  3 27  1  0  0  0  0
  4 28  1  0  0  0  0
  7 29  1  0  0  0  0
  9 30  1  0  0  0  0
 10 31  1  0  0  0  0
 12 32  1  0  0  0  0
 13 33  1  0  0  0  0
 14 34  1  0  0  0  0
 15 35  1  0  0  0  0
 22 36  1  0  0  0  0
 23 37  1  0  0  0  0
M  CHG  1  17   1
M  CHG  1  18  -1
M  END
