
  xtb     03022213403D
 energy: -104.132234671169 gnorm: 0.000089409907 xtb: 6.4.1 (afa7bdf)
 62 64  0     0  0            999 V2000
    3.0306   -4.3652    3.1450 C   0  0  0  0  0  0  0  0  0  0  0  0
    2.8740   -3.4962    2.0286 O   0  0  0  0  0  0  0  0  0  0  0  0
    3.4729   -2.3128    2.1140 C   0  0  0  0  0  0  0  0  0  0  0  0
    4.1402   -1.9495    3.0471 O   0  0  0  0  0  0  0  0  0  0  0  0
    3.1652   -1.4482    0.8967 C   0  0  0  0  0  0  0  0  0  0  0  0
    4.1338   -0.3853    0.7973 N   0  0  0  0  0  0  0  0  0  0  0  0
    4.8210   -0.1520   -0.3506 C   0  0  0  0  0  0  0  0  0  0  0  0
    4.5927   -0.7146   -1.3940 O   0  0  0  0  0  0  0  0  0  0  0  0
    5.7456    0.7943   -0.1293 O   0  0  0  0  0  0  0  0  0  0  0  0
    6.5789    1.2727   -1.2135 C   0  0  0  0  0  0  0  0  0  0  0  0
    7.4610    2.3371   -0.5595 C   0  0  0  0  0  0  0  0  0  0  0  0
    7.4344    0.1328   -1.7656 C   0  0  0  0  0  0  0  0  0  0  0  0
    5.7159    1.8929   -2.3117 C   0  0  0  0  0  0  0  0  0  0  0  0
    1.7549   -0.9108    1.0612 C   0  0  0  0  0  0  0  0  0  0  0  0
    1.4658   -0.1194    2.1796 C   0  0  0  0  0  0  0  0  0  0  0  0
    0.2105    0.4193    2.3917 C   0  0  0  0  0  0  0  0  0  0  0  0
   -0.7512    0.1352    1.4422 C   0  0  0  0  0  0  0  0  0  0  0  0
   -2.0494    0.5149    1.3709 O   0  0  0  0  0  0  0  0  0  0  0  0
   -2.5108   -0.0569    0.2182 C   0  0  0  0  0  0  0  0  0  0  0  0
   -3.8802    0.1476   -0.1812 C   0  0  0  0  0  0  0  0  0  0  0  0
   -4.3352   -0.4316   -1.3652 C   0  0  0  0  0  0  0  0  0  0  0  0
   -5.6435   -0.2369   -1.7596 C   0  0  0  0  0  0  0  0  0  0  0  0
   -6.1946   -0.7479   -2.8919 O   0  0  0  0  0  0  0  0  0  0  0  0
   -5.3803   -1.5360   -3.7269 C   0  0  0  0  0  0  0  0  0  0  0  0
   -6.5287    0.5427   -0.9757 C   0  0  0  0  0  0  0  0  0  0  0  0
   -7.7745    0.6295   -1.5050 O   0  0  0  0  0  0  0  0  0  0  0  0
   -8.7742    1.4396   -0.9310 C   0  0  0  0  0  0  0  0  0  0  0  0
   -6.0583    1.1149    0.2181 C   0  0  0  0  0  0  0  0  0  0  0  0
   -6.9387    1.8566    0.9673 O   0  0  0  0  0  0  0  0  0  0  0  0
   -6.4780    2.4522    2.1550 C   0  0  0  0  0  0  0  0  0  0  0  0
   -4.7389    0.9130    0.5998 C   0  0  0  0  0  0  0  0  0  0  0  0
   -1.6277   -0.7542   -0.4288 N   0  0  0  0  0  0  0  0  0  0  0  0
   -0.4784   -0.6648    0.3114 C   0  0  0  0  0  0  0  0  0  0  0  0
    0.7889   -1.1972    0.1143 C   0  0  0  0  0  0  0  0  0  0  0  0
    4.0895   -4.5026    3.3718 H   0  0  0  0  0  0  0  0  0  0  0  0
    2.5722   -5.3086    2.8613 H   0  0  0  0  0  0  0  0  0  0  0  0
    2.5328   -3.9456    4.0213 H   0  0  0  0  0  0  0  0  0  0  0  0
    3.2287   -2.0462   -0.0178 H   0  0  0  0  0  0  0  0  0  0  0  0
    4.4733    0.0201    1.6563 H   0  0  0  0  0  0  0  0  0  0  0  0
    8.1349    2.7644   -1.2958 H   0  0  0  0  0  0  0  0  0  0  0  0
    8.0446    1.8948    0.2434 H   0  0  0  0  0  0  0  0  0  0  0  0
    6.8427    3.1271   -0.1417 H   0  0  0  0  0  0  0  0  0  0  0  0
    8.1177    0.5181   -2.5172 H   0  0  0  0  0  0  0  0  0  0  0  0
    8.0110   -0.3232   -0.9636 H   0  0  0  0  0  0  0  0  0  0  0  0
    6.8004   -0.6246   -2.2180 H   0  0  0  0  0  0  0  0  0  0  0  0
    5.0833    1.1343   -2.7640 H   0  0  0  0  0  0  0  0  0  0  0  0
    5.0839    2.6735   -1.8936 H   0  0  0  0  0  0  0  0  0  0  0  0
    6.3532    2.3259   -3.0776 H   0  0  0  0  0  0  0  0  0  0  0  0
    2.2478    0.0718    2.8985 H   0  0  0  0  0  0  0  0  0  0  0  0
   -0.0085    1.0296    3.2529 H   0  0  0  0  0  0  0  0  0  0  0  0
   -3.6388   -1.0159   -1.9402 H   0  0  0  0  0  0  0  0  0  0  0  0
   -5.0165   -2.4284   -3.2082 H   0  0  0  0  0  0  0  0  0  0  0  0
   -4.5271   -0.9677   -4.1101 H   0  0  0  0  0  0  0  0  0  0  0  0
   -6.0183   -1.8349   -4.5570 H   0  0  0  0  0  0  0  0  0  0  0  0
   -9.6286    1.3453   -1.6013 H   0  0  0  0  0  0  0  0  0  0  0  0
   -8.4675    2.4863   -0.8781 H   0  0  0  0  0  0  0  0  0  0  0  0
   -9.0543    1.0952    0.0665 H   0  0  0  0  0  0  0  0  0  0  0  0
   -5.6676    3.1627    1.9638 H   0  0  0  0  0  0  0  0  0  0  0  0
   -7.3364    2.9868    2.5597 H   0  0  0  0  0  0  0  0  0  0  0  0
   -6.1447    1.7035    2.8805 H   0  0  0  0  0  0  0  0  0  0  0  0
   -4.3563    1.3434    1.5094 H   0  0  0  0  0  0  0  0  0  0  0  0
    1.0048   -1.8009   -0.7512 H   0  0  0  0  0  0  0  0  0  0  0  0
  1  2  1  0  0  0  0
  2  3  1  0  0  0  0
  3  4  2  0  0  0  0
  3  5  1  0  0  0  0
  5  6  1  0  0  0  0
  6  7  1  0  0  0  0
  7  8  2  0  0  0  0
  7  9  1  0  0  0  0
  9 10  1  0  0  0  0
 10 11  1  0  0  0  0
 10 12  1  0  0  0  0
 10 13  1  0  0  0  0
  5 14  1  0  0  0  0
 14 15  2  0  0  0  0
 15 16  1  0  0  0  0
 16 17  2  0  0  0  0
 17 18  1  0  0  0  0
 18 19  1  0  0  0  0
 19 20  1  0  0  0  0
 20 21  2  0  0  0  0
 21 22  1  0  0  0  0
 22 23  1  0  0  0  0
 23 24  1  0  0  0  0
 22 25  2  0  0  0  0
 25 26  1  0  0  0  0
 26 27  1  0  0  0  0
 25 28  1  0  0  0  0
 28 29  1  0  0  0  0
 29 30  1  0  0  0  0
 28 31  2  0  0  0  0
 19 32  2  0  0  0  0
 32 33  1  0  0  0  0
 33 34  2  0  0  0  0
 34 14  1  0  0  0  0
 33 17  1  0  0  0  0
 31 20  1  0  0  0  0
  1 35  1  0  0  0  0
  1 36  1  0  0  0  0
  1 37  1  0  0  0  0
  5 38  1  0  0  0  0
  6 39  1  0  0  0  0
 11 40  1  0  0  0  0
 11 41  1  0  0  0  0
 11 42  1  0  0  0  0
 12 43  1  0  0  0  0
 12 44  1  0  0  0  0
 12 45  1  0  0  0  0
 13 46  1  0  0  0  0
 13 47  1  0  0  0  0
 13 48  1  0  0  0  0
 15 49  1  0  0  0  0
 16 50  1  0  0  0  0
 21 51  1  0  0  0  0
 24 52  1  0  0  0  0
 24 53  1  0  0  0  0
 24 54  1  0  0  0  0
 27 55  1  0  0  0  0
 27 56  1  0  0  0  0
 27 57  1  0  0  0  0
 30 58  1  0  0  0  0
 30 59  1  0  0  0  0
 30 60  1  0  0  0  0
 31 61  1  0  0  0  0
 34 62  1  0  0  0  0
M  END
