
  xtb     03022213223D
 energy: -50.454353302005 gnorm: 0.000322052217 xtb: 6.4.1 (afa7bdf)
 32 34  0     0  0            999 V2000
   -4.9741   -0.7890    0.6274 C   0  0  0  0  0  0  0  0  0  0  0  0
   -3.4944   -0.7089    0.4267 C   0  0  0  0  0  0  0  0  0  0  0  0
   -2.7523   -1.8777    0.2029 C   0  0  0  0  0  0  0  0  0  0  0  0
   -1.3954   -1.8367    0.0124 C   0  0  0  0  0  0  0  0  0  0  0  0
   -0.6878   -0.6231    0.0337 C   0  0  0  0  0  0  0  0  0  0  0  0
   -1.4351    0.5566    0.2623 C   0  0  0  0  0  0  0  0  0  0  0  0
   -2.8248    0.4909    0.4533 C   0  0  0  0  0  0  0  0  0  0  0  0
   -0.7611    1.8179    0.2992 C   0  0  0  0  0  0  0  0  0  0  0  0
   -1.5007    3.0005    0.5261 C   0  0  0  0  0  0  0  0  0  0  0  0
   -2.1065    3.9570    0.7090 N   0  0  0  0  0  0  0  0  0  0  0  0
    0.6022    1.8966    0.1173 C   0  0  0  0  0  0  0  0  0  0  0  0
    1.2368    3.1585    0.1638 C   0  0  0  0  0  0  0  0  0  0  0  0
    1.7566    4.1800    0.2009 N   0  0  0  0  0  0  0  0  0  0  0  0
    1.3806    0.7198   -0.1185 C   0  0  0  0  0  0  0  0  0  0  0  0
    2.7692    0.8154   -0.3048 C   0  0  0  0  0  0  0  0  0  0  0  0
    3.5381   -0.2999   -0.5363 C   0  0  0  0  0  0  0  0  0  0  0  0
    5.0166   -0.2079   -0.7403 C   0  0  0  0  0  0  0  0  0  0  0  0
    2.8994   -1.5476   -0.5838 C   0  0  0  0  0  0  0  0  0  0  0  0
    1.5455   -1.6642   -0.4029 C   0  0  0  0  0  0  0  0  0  0  0  0
    0.7378   -0.5400   -0.1631 C   0  0  0  0  0  0  0  0  0  0  0  0
   -5.3958    0.1946    0.8157 H   0  0  0  0  0  0  0  0  0  0  0  0
   -5.4514   -1.2107   -0.2566 H   0  0  0  0  0  0  0  0  0  0  0  0
   -5.2063   -1.4381    1.4709 H   0  0  0  0  0  0  0  0  0  0  0  0
   -3.2667   -2.8278    0.1814 H   0  0  0  0  0  0  0  0  0  0  0  0
   -0.8702   -2.7631   -0.1555 H   0  0  0  0  0  0  0  0  0  0  0  0
   -3.3657    1.4110    0.6244 H   0  0  0  0  0  0  0  0  0  0  0  0
    3.2290    1.7928   -0.2632 H   0  0  0  0  0  0  0  0  0  0  0  0
    5.2785   -0.5419   -1.7442 H   0  0  0  0  0  0  0  0  0  0  0  0
    5.3655    0.8134   -0.6113 H   0  0  0  0  0  0  0  0  0  0  0  0
    5.5374   -0.8502   -0.0312 H   0  0  0  0  0  0  0  0  0  0  0  0
    3.4924   -2.4322   -0.7669 H   0  0  0  0  0  0  0  0  0  0  0  0
    1.1022   -2.6458   -0.4486 H   0  0  0  0  0  0  0  0  0  0  0  0
  1  2  1  0  0  0  0
  2  3  2  0  0  0  0
  3  4  1  0  0  0  0
  4  5  2  0  0  0  0
  5  6  1  0  0  0  0
  6  7  2  0  0  0  0
  6  8  1  0  0  0  0
  8  9  1  0  0  0  0
  9 10  3  0  0  0  0
  8 11  2  0  0  0  0
 11 12  1  0  0  0  0
 12 13  3  0  0  0  0
 11 14  1  0  0  0  0
 14 15  2  0  0  0  0
 15 16  1  0  0  0  0
 16 17  1  0  0  0  0
 16 18  2  0  0  0  0
 18 19  1  0  0  0  0
 19 20  2  0  0  0  0
  7  2  1  0  0  0  0
 20 14  1  0  0  0  0
 20  5  1  0  0  0  0
  1 21  1  0  0  0  0
  1 22  1  0  0  0  0
  1 23  1  0  0  0  0
  3 24  1  0  0  0  0
  4 25  1  0  0  0  0
  7 26  1  0  0  0  0
 15 27  1  0  0  0  0
 17 28  1  0  0  0  0
 17 29  1  0  0  0  0
 17 30  1  0  0  0  0
 18 31  1  0  0  0  0
 19 32  1  0  0  0  0
M  END
