
  xtb     03022212203D
 energy: -76.307206856178 gnorm: 0.000123209055 xtb: 6.4.1 (afa7bdf)
 54 56  0     0  0            999 V2000
   -9.1495   -1.0735   -0.1612 C   0  0  0  0  0  0  0  0  0  0  0  0
   -7.9172   -1.8207   -0.1695 N   0  0  0  0  0  0  0  0  0  0  0  0
   -7.9734   -3.2602   -0.2086 C   0  0  0  0  0  0  0  0  0  0  0  0
   -6.7117   -1.1737   -0.1432 C   0  0  0  0  0  0  0  0  0  0  0  0
   -5.4996   -1.8814   -0.0912 C   0  0  0  0  0  0  0  0  0  0  0  0
   -4.2934   -1.2223   -0.0656 C   0  0  0  0  0  0  0  0  0  0  0  0
   -4.2103    0.1747   -0.0888 C   0  0  0  0  0  0  0  0  0  0  0  0
   -2.9170    0.8079   -0.0592 C   0  0  0  0  0  0  0  0  0  0  0  0
   -2.6555    2.1265   -0.0680 C   0  0  0  0  0  0  0  0  0  0  0  0
   -1.3108    2.6563   -0.0353 C   0  0  0  0  0  0  0  0  0  0  0  0
   -1.0815    4.0408   -0.0453 C   0  0  0  0  0  0  0  0  0  0  0  0
    0.2378    4.4530   -0.0118 C   0  0  0  0  0  0  0  0  0  0  0  0
    1.2502    3.6073    0.0277 N   0  0  0  0  0  0  0  0  0  0  0  0
    0.9478    2.3022    0.0348 C   0  0  0  0  0  0  0  0  0  0  0  0
    2.0314    1.3448    0.0780 C   0  0  0  0  0  0  0  0  0  0  0  0
    3.3210    1.7203    0.1100 C   0  0  0  0  0  0  0  0  0  0  0  0
    4.4820    0.8680    0.1542 C   0  0  0  0  0  0  0  0  0  0  0  0
    4.4227   -0.5295    0.1673 C   0  0  0  0  0  0  0  0  0  0  0  0
    5.5606   -1.3003    0.2096 C   0  0  0  0  0  0  0  0  0  0  0  0
    6.8386   -0.7174    0.2422 C   0  0  0  0  0  0  0  0  0  0  0  0
    7.9733   -1.4824    0.2871 N   0  0  0  0  0  0  0  0  0  0  0  0
    9.2735   -0.8613    0.2655 C   0  0  0  0  0  0  0  0  0  0  0  0
    7.8856   -2.9201    0.3264 C   0  0  0  0  0  0  0  0  0  0  0  0
    6.9008    0.6854    0.2291 C   0  0  0  0  0  0  0  0  0  0  0  0
    5.7562    1.4457    0.1863 C   0  0  0  0  0  0  0  0  0  0  0  0
   -0.2852    1.8043    0.0049 N   0  0  0  0  0  0  0  0  0  0  0  0
   -5.4195    0.8768   -0.1405 C   0  0  0  0  0  0  0  0  0  0  0  0
   -6.6315    0.2289   -0.1671 C   0  0  0  0  0  0  0  0  0  0  0  0
   -9.2571   -0.4691   -1.0684 H   0  0  0  0  0  0  0  0  0  0  0  0
   -9.2007   -0.4100    0.7072 H   0  0  0  0  0  0  0  0  0  0  0  0
   -9.9913   -1.7598   -0.1098 H   0  0  0  0  0  0  0  0  0  0  0  0
   -7.4178   -3.6517   -1.0660 H   0  0  0  0  0  0  0  0  0  0  0  0
   -7.5607   -3.7014    0.7051 H   0  0  0  0  0  0  0  0  0  0  0  0
   -9.0078   -3.5819   -0.3028 H   0  0  0  0  0  0  0  0  0  0  0  0
   -5.4977   -2.9588   -0.0660 H   0  0  0  0  0  0  0  0  0  0  0  0
   -3.3805   -1.7997   -0.0245 H   0  0  0  0  0  0  0  0  0  0  0  0
   -2.0626    0.1439   -0.0256 H   0  0  0  0  0  0  0  0  0  0  0  0
   -3.4452    2.8642   -0.0999 H   0  0  0  0  0  0  0  0  0  0  0  0
   -1.8975    4.7455   -0.0774 H   0  0  0  0  0  0  0  0  0  0  0  0
    0.5036    5.5045   -0.0169 H   0  0  0  0  0  0  0  0  0  0  0  0
    1.7204    0.3113    0.0824 H   0  0  0  0  0  0  0  0  0  0  0  0
    3.5185    2.7849    0.1022 H   0  0  0  0  0  0  0  0  0  0  0  0
    3.4630   -1.0225    0.1422 H   0  0  0  0  0  0  0  0  0  0  0  0
    5.4527   -2.3728    0.2142 H   0  0  0  0  0  0  0  0  0  0  0  0
    9.4013   -0.2425   -0.6282 H   0  0  0  0  0  0  0  0  0  0  0  0
   10.0440   -1.6285    0.2571 H   0  0  0  0  0  0  0  0  0  0  0  0
    9.4287   -0.2331    1.1489 H   0  0  0  0  0  0  0  0  0  0  0  0
    7.3061   -3.2549    1.1922 H   0  0  0  0  0  0  0  0  0  0  0  0
    7.4175   -3.3174   -0.5807 H   0  0  0  0  0  0  0  0  0  0  0  0
    8.8838   -3.3439    0.4057 H   0  0  0  0  0  0  0  0  0  0  0  0
    7.8528    1.1899    0.2553 H   0  0  0  0  0  0  0  0  0  0  0  0
    5.8423    2.5233    0.1781 H   0  0  0  0  0  0  0  0  0  0  0  0
   -5.4116    1.9559   -0.1624 H   0  0  0  0  0  0  0  0  0  0  0  0
   -7.5292    0.8238   -0.2120 H   0  0  0  0  0  0  0  0  0  0  0  0
  1  2  1  0  0  0  0
  2  3  1  0  0  0  0
  2  4  1  0  0  0  0
  4  5  2  0  0  0  0
  5  6  1  0  0  0  0
  6  7  2  0  0  0  0
  7  8  1  0  0  0  0
  8  9  2  0  0  0  0
  9 10  1  0  0  0  0
 10 11  2  0  0  0  0
 11 12  1  0  0  0  0
 12 13  2  0  0  0  0
 13 14  1  0  0  0  0
 14 15  1  0  0  0  0
 15 16  2  0  0  0  0
 16 17  1  0  0  0  0
 17 18  2  0  0  0  0
 18 19  1  0  0  0  0
 19 20  2  0  0  0  0
 20 21  1  0  0  0  0
 21 22  1  0  0  0  0
 21 23  1  0  0  0  0
 20 24  1  0  0  0  0
 24 25  2  0  0  0  0
 14 26  2  0  0  0  0
  7 27  1  0  0  0  0
 27 28  2  0  0  0  0
 28  4  1  0  0  0  0
 26 10  1  0  0  0  0
 25 17  1  0  0  0  0
  1 29  1  0  0  0  0
  1 30  1  0  0  0  0
  1 31  1  0  0  0  0
  3 32  1  0  0  0  0
  3 33  1  0  0  0  0
  3 34  1  0  0  0  0
  5 35  1  0  0  0  0
  6 36  1  0  0  0  0
  8 37  1  0  0  0  0
  9 38  1  0  0  0  0
 11 39  1  0  0  0  0
 12 40  1  0  0  0  0
 15 41  1  0  0  0  0
 16 42  1  0  0  0  0
 18 43  1  0  0  0  0
 19 44  1  0  0  0  0
 22 45  1  0  0  0  0
 22 46  1  0  0  0  0
 22 47  1  0  0  0  0
 23 48  1  0  0  0  0
 23 49  1  0  0  0  0
 23 50  1  0  0  0  0
 24 51  1  0  0  0  0
 25 52  1  0  0  0  0
 27 53  1  0  0  0  0
 28 54  1  0  0  0  0
M  END
