
  xtb     03022213093D
 energy: -27.888492145355 gnorm: 0.000335238488 xtb: 6.4.1 (afa7bdf)
 15 16  0     0  0            999 V2000
    0.1194    2.3430   -0.0442 N   0  0  0  0  0  0  0  0  0  0  0  0
    0.5276    1.0411   -0.0135 C   0  0  0  0  0  0  0  0  0  0  0  0
    1.8347    0.8033   -0.0471 N   0  0  0  0  0  0  0  0  0  0  0  0
    2.2622   -0.4548   -0.0775 C   0  0  0  0  0  0  0  0  0  0  0  0
    1.5507   -1.5565   -0.0683 N   0  0  0  0  0  0  0  0  0  0  0  0
    0.2338   -1.3529   -0.0366 C   0  0  0  0  0  0  0  0  0  0  0  0
   -0.7613   -2.2871   -0.0248 N   0  0  0  0  0  0  0  0  0  0  0  0
   -1.8682   -1.6141   -0.0005 C   0  0  0  0  0  0  0  0  0  0  0  0
   -1.6968   -0.2631    0.0116 N   0  0  0  0  0  0  0  0  0  0  0  0
   -0.3388   -0.0557   -0.0138 C   0  0  0  0  0  0  0  0  0  0  0  0
   -0.7897    2.5825    0.3116 H   0  0  0  0  0  0  0  0  0  0  0  0
    0.8527    3.0195    0.0924 H   0  0  0  0  0  0  0  0  0  0  0  0
    3.3369   -0.5758   -0.1055 H   0  0  0  0  0  0  0  0  0  0  0  0
   -2.8420   -2.0644    0.0118 H   0  0  0  0  0  0  0  0  0  0  0  0
   -2.4212    0.4353    0.0043 H   0  0  0  0  0  0  0  0  0  0  0  0
  1  2  1  0  0  0  0
  2  3  2  0  0  0  0
  3  4  1  0  0  0  0
  4  5  2  0  0  0  0
  5  6  1  0  0  0  0
  6  7  1  0  0  0  0
  7  8  2  0  0  0  0
  8  9  1  0  0  0  0
  9 10  1  0  0  0  0
 10  2  1  0  0  0  0
 10  6  2  0  0  0  0
  1 11  1  0  0  0  0
  1 12  1  0  0  0  0
  4 13  1  0  0  0  0
  8 14  1  0  0  0  0
  9 15  1  0  0  0  0
M  END
