
  xtb     03022212033D
 energy: -70.146031891031 gnorm: 0.000172894628 xtb: 6.4.1 (afa7bdf)
 42 45  0     0  0            999 V2000
   -6.5166   -0.0908    0.4167 C   0  0  0  0  0  0  0  0  0  0  0  0
   -5.6295    0.3921   -0.6124 N   0  0  0  0  0  0  0  0  0  0  0  0
   -6.2026    0.9725   -1.8021 C   0  0  0  0  0  0  0  0  0  0  0  0
   -4.2774    0.2960   -0.4693 C   0  0  0  0  0  0  0  0  0  0  0  0
   -3.4017    0.6411   -1.5148 C   0  0  0  0  0  0  0  0  0  0  0  0
   -2.0419    0.5424   -1.3619 C   0  0  0  0  0  0  0  0  0  0  0  0
   -1.4640    0.1028   -0.1638 C   0  0  0  0  0  0  0  0  0  0  0  0
   -0.0125    0.0264   -0.0663 C   0  0  0  0  0  0  0  0  0  0  0  0
    0.6589   -0.2600    1.1046 C   0  0  0  0  0  0  0  0  0  0  0  0
    2.0632   -0.3130    1.1637 C   0  0  0  0  0  0  0  0  0  0  0  0
    2.6959   -0.6079    2.4072 C   0  0  0  0  0  0  0  0  0  0  0  0
    4.0445   -0.6636    2.4982 C   0  0  0  0  0  0  0  0  0  0  0  0
    4.8363   -0.4265    1.3444 C   0  0  0  0  0  0  0  0  0  0  0  0
    6.2381   -0.4726    1.3886 C   0  0  0  0  0  0  0  0  0  0  0  0
    6.9809   -0.2399    0.2606 C   0  0  0  0  0  0  0  0  0  0  0  0
    6.3330    0.0455   -0.9439 C   0  0  0  0  0  0  0  0  0  0  0  0
    4.9633    0.0977   -1.0185 C   0  0  0  0  0  0  0  0  0  0  0  0
    4.1787   -0.1362    0.1226 C   0  0  0  0  0  0  0  0  0  0  0  0
    2.8108   -0.0874    0.0686 N   0  0  0  0  0  4  0  0  0  0  0  0
    2.0859    0.2468   -1.3069 B   0  0  0  0  0  4  0  0  0  0  0  0
    2.5056    1.4924   -1.7284 F   0  0  0  0  0  0  0  0  0  0  0  0
    2.4397   -0.7153   -2.2307 F   0  0  0  0  0  0  0  0  0  0  0  0
    0.6365    0.2610   -1.1756 O   0  0  0  0  0  0  0  0  0  0  0  0
   -2.3318   -0.2447    0.8761 C   0  0  0  0  0  0  0  0  0  0  0  0
   -3.6953   -0.1536    0.7301 C   0  0  0  0  0  0  0  0  0  0  0  0
   -7.5392   -0.0828    0.0474 H   0  0  0  0  0  0  0  0  0  0  0  0
   -6.2669   -1.1179    0.6941 H   0  0  0  0  0  0  0  0  0  0  0  0
   -6.4706    0.5355    1.3141 H   0  0  0  0  0  0  0  0  0  0  0  0
   -6.0583    0.3269   -2.6748 H   0  0  0  0  0  0  0  0  0  0  0  0
   -7.2705    1.1173   -1.6570 H   0  0  0  0  0  0  0  0  0  0  0  0
   -5.7556    1.9474   -2.0109 H   0  0  0  0  0  0  0  0  0  0  0  0
   -3.7895    0.9792   -2.4611 H   0  0  0  0  0  0  0  0  0  0  0  0
   -1.3868    0.8077   -2.1766 H   0  0  0  0  0  0  0  0  0  0  0  0
    0.1191   -0.4397    2.0166 H   0  0  0  0  0  0  0  0  0  0  0  0
    2.0633   -0.7826    3.2633 H   0  0  0  0  0  0  0  0  0  0  0  0
    4.5367   -0.8856    3.4342 H   0  0  0  0  0  0  0  0  0  0  0  0
    6.7169   -0.6955    2.3314 H   0  0  0  0  0  0  0  0  0  0  0  0
    8.0592   -0.2759    0.2983 H   0  0  0  0  0  0  0  0  0  0  0  0
    6.9188    0.2284   -1.8320 H   0  0  0  0  0  0  0  0  0  0  0  0
    4.4866    0.3191   -1.9561 H   0  0  0  0  0  0  0  0  0  0  0  0
   -1.9424   -0.6013    1.8167 H   0  0  0  0  0  0  0  0  0  0  0  0
   -4.3187   -0.4285    1.5650 H   0  0  0  0  0  0  0  0  0  0  0  0
  1  2  1  0  0  0  0
  2  3  1  0  0  0  0
  2  4  1  0  0  0  0
  4  5  2  0  0  0  0
  5  6  1  0  0  0  0
  6  7  2  0  0  0  0
  7  8  1  0  0  0  0
  8  9  2  0  0  0  0
  9 10  1  0  0  0  0
 10 11  2  0  0  0  0
 11 12  1  0  0  0  0
 12 13  2  0  0  0  0
 13 14  1  0  0  0  0
 14 15  2  0  0  0  0
 15 16  1  0  0  0  0
 16 17  2  0  0  0  0
 17 18  1  0  0  0  0
 18 19  2  0  0  0  0
 19 20  1  0  0  0  0
 20 21  1  0  0  0  0
 20 22  1  0  0  0  0
 20 23  1  0  0  0  0
  7 24  1  0  0  0  0
 24 25  2  0  0  0  0
 25  4  1  0  0  0  0
 23  8  1  0  0  0  0
 19 10  1  0  0  0  0
 18 13  1  0  0  0  0
  1 26  1  0  0  0  0
  1 27  1  0  0  0  0
  1 28  1  0  0  0  0
  3 29  1  0  0  0  0
  3 30  1  0  0  0  0
  3 31  1  0  0  0  0
  5 32  1  0  0  0  0
  6 33  1  0  0  0  0
  9 34  1  0  0  0  0
 11 35  1  0  0  0  0
 12 36  1  0  0  0  0
 14 37  1  0  0  0  0
 15 38  1  0  0  0  0
 16 39  1  0  0  0  0
 17 40  1  0  0  0  0
 24 41  1  0  0  0  0
 25 42  1  0  0  0  0
M  CHG  1  19   1
M  CHG  1  20  -1
M  END
