
  xtb     03022212463D
 energy: -120.860582655494 gnorm: 0.000086833814 xtb: 6.4.1 (afa7bdf)
 90 96  0     0  0            999 V2000
   -6.5288   -0.8633   -0.1607 C   0  0  0  0  0  0  0  0  0  0  0  0
   -5.3267   -1.8096   -0.0863 C   0  0  0  0  0  0  0  0  0  0  0  0
   -5.5870   -2.7732    1.0838 C   0  0  0  0  0  0  0  0  0  0  0  0
   -5.2701   -2.5697   -1.4223 C   0  0  0  0  0  0  0  0  0  0  0  0
   -4.0315   -1.0729    0.1380 C   0  0  0  0  0  0  0  0  0  0  0  0
   -2.7069   -1.7105    0.2623 C   0  0  0  0  0  0  0  0  0  0  0  0
   -2.3401   -3.0702    0.1413 C   0  0  0  0  0  0  0  0  0  0  0  0
   -1.1108   -3.7105    0.0692 C   0  0  0  0  0  0  0  0  0  0  0  0
    0.2112   -3.2155    0.0944 C   0  0  0  0  0  0  0  0  0  0  0  0
    0.4318   -1.9077    0.3431 N   0  0  0  0  0  0  0  0  0  0  0  0
    1.7359   -1.6310    0.2246 C   0  0  0  0  0  0  0  0  0  0  0  0
    2.4528   -2.8272   -0.0855 C   0  0  0  0  0  0  0  0  0  0  0  0
    3.8731   -2.6717   -0.2603 C   0  0  0  0  0  0  0  0  0  0  0  0
    4.4800   -1.4581   -0.1934 C   0  0  0  0  0  0  0  0  0  0  0  0
    3.7529   -0.2466    0.0577 C   0  0  0  0  0  0  0  0  0  0  0  0
    4.0038    1.1227    0.1186 C   0  0  0  0  0  0  0  0  0  0  0  0
    5.3732    1.7271   -0.0811 C   0  0  0  0  0  0  0  0  0  0  0  0
    5.4487    3.2517    0.0305 C   0  0  0  0  0  0  0  0  0  0  0  0
    5.8722    1.3510   -1.4869 C   0  0  0  0  0  0  0  0  0  0  0  0
    6.3161    1.1514    0.9899 C   0  0  0  0  0  0  0  0  0  0  0  0
    2.6947    1.7449    0.3765 C   0  0  0  0  0  0  0  0  0  0  0  0
    2.3184    3.1057    0.4508 C   0  0  0  0  0  0  0  0  0  0  0  0
    1.0839    3.7388    0.5122 C   0  0  0  0  0  0  0  0  0  0  0  0
   -0.2370    3.2411    0.5238 C   0  0  0  0  0  0  0  0  0  0  0  0
   -0.4529    1.9123    0.6062 N   0  0  0  0  0  0  0  0  0  0  0  0
   -1.7634    1.6540    0.5082 C   0  0  0  0  0  0  0  0  0  0  0  0
   -2.4860    2.8804    0.3885 C   0  0  0  0  0  0  0  0  0  0  0  0
   -3.9129    2.7431    0.2573 C   0  0  0  0  0  0  0  0  0  0  0  0
   -4.5243    1.5319    0.1894 C   0  0  0  0  0  0  0  0  0  0  0  0
   -3.7970    0.2933    0.2452 C   0  0  0  0  0  0  0  0  0  0  0  0
   -2.3763    0.4208    0.4446 C   0  0  0  0  0  0  0  0  0  0  0  0
   -1.7759   -0.7694    0.4687 N   0  0  0  0  0  0  0  0  0  0  0  0
   -1.5272    3.8989    0.4095 C   0  0  0  0  0  0  0  0  0  0  0  0
   -1.7146    5.3934    0.3098 C   0  0  0  0  0  0  0  0  0  0  0  0
   -3.1885    5.7956    0.2078 C   0  0  0  0  0  0  0  0  0  0  0  0
   -1.0149    5.9194   -0.9543 C   0  0  0  0  0  0  0  0  0  0  0  0
   -1.1498    6.0697    1.5699 C   0  0  0  0  0  0  0  0  0  0  0  0
    1.7617    0.7858    0.4967 N   0  0  0  0  0  0  0  0  0  0  0  0
    2.3459   -0.3955    0.2959 C   0  0  0  0  0  0  0  0  0  0  0  0
    1.4942   -3.8450   -0.1589 C   0  0  0  0  0  0  0  0  0  0  0  0
    1.6754   -5.3127   -0.4618 C   0  0  0  0  0  0  0  0  0  0  0  0
    1.1604   -6.1507    0.7200 C   0  0  0  0  0  0  0  0  0  0  0  0
    0.9244   -5.6704   -1.7551 C   0  0  0  0  0  0  0  0  0  0  0  0
    3.1430   -5.6935   -0.6749 C   0  0  0  0  0  0  0  0  0  0  0  0
   -7.4381   -1.4448   -0.3049 H   0  0  0  0  0  0  0  0  0  0  0  0
   -6.6344   -0.2977    0.7614 H   0  0  0  0  0  0  0  0  0  0  0  0
   -6.4320   -0.1788   -0.9993 H   0  0  0  0  0  0  0  0  0  0  0  0
   -5.6694   -2.2104    2.0118 H   0  0  0  0  0  0  0  0  0  0  0  0
   -6.5216   -3.3071    0.9214 H   0  0  0  0  0  0  0  0  0  0  0  0
   -4.7938   -3.5028    1.2060 H   0  0  0  0  0  0  0  0  0  0  0  0
   -5.1106   -1.8674   -2.2384 H   0  0  0  0  0  0  0  0  0  0  0  0
   -6.2126   -3.0868   -1.5930 H   0  0  0  0  0  0  0  0  0  0  0  0
   -4.4689   -3.3004   -1.4495 H   0  0  0  0  0  0  0  0  0  0  0  0
   -3.1708   -3.7561    0.0502 H   0  0  0  0  0  0  0  0  0  0  0  0
   -1.1986   -4.7796   -0.0646 H   0  0  0  0  0  0  0  0  0  0  0  0
   -0.3944   -1.2425    0.4763 H   0  0  0  0  0  0  0  0  0  0  0  0
    4.4917   -3.5302   -0.4588 H   0  0  0  0  0  0  0  0  0  0  0  0
    5.5494   -1.4222   -0.3451 H   0  0  0  0  0  0  0  0  0  0  0  0
    5.1318    3.5922    1.0135 H   0  0  0  0  0  0  0  0  0  0  0  0
    6.4835    3.5627   -0.1082 H   0  0  0  0  0  0  0  0  0  0  0  0
    4.8548    3.7345   -0.7419 H   0  0  0  0  0  0  0  0  0  0  0  0
    5.2126    1.7767   -2.2411 H   0  0  0  0  0  0  0  0  0  0  0  0
    5.8957    0.2761   -1.6294 H   0  0  0  0  0  0  0  0  0  0  0  0
    6.8751    1.7432   -1.6449 H   0  0  0  0  0  0  0  0  0  0  0  0
    5.9758    1.4463    1.9808 H   0  0  0  0  0  0  0  0  0  0  0  0
    7.3247    1.5334    0.8437 H   0  0  0  0  0  0  0  0  0  0  0  0
    6.3500    0.0680    0.9550 H   0  0  0  0  0  0  0  0  0  0  0  0
    3.1377    3.8044    0.4218 H   0  0  0  0  0  0  0  0  0  0  0  0
    1.1658    4.8167    0.5187 H   0  0  0  0  0  0  0  0  0  0  0  0
    0.3827    1.2411    0.6172 H   0  0  0  0  0  0  0  0  0  0  0  0
   -4.5369    3.6188    0.2029 H   0  0  0  0  0  0  0  0  0  0  0  0
   -5.5966    1.5224    0.0848 H   0  0  0  0  0  0  0  0  0  0  0  0
   -3.7428    5.4622    1.0810 H   0  0  0  0  0  0  0  0  0  0  0  0
   -3.6409    5.3857   -0.6911 H   0  0  0  0  0  0  0  0  0  0  0  0
   -3.2630    6.8806    0.1562 H   0  0  0  0  0  0  0  0  0  0  0  0
   -1.1598    6.9948   -1.0367 H   0  0  0  0  0  0  0  0  0  0  0  0
    0.0504    5.7163   -0.9495 H   0  0  0  0  0  0  0  0  0  0  0  0
   -1.4429    5.4464   -1.8360 H   0  0  0  0  0  0  0  0  0  0  0  0
   -0.0961    5.8581    1.7149 H   0  0  0  0  0  0  0  0  0  0  0  0
   -1.6866    5.7176    2.4486 H   0  0  0  0  0  0  0  0  0  0  0  0
   -1.2767    7.1482    1.4989 H   0  0  0  0  0  0  0  0  0  0  0  0
    1.2826   -7.2101    0.5033 H   0  0  0  0  0  0  0  0  0  0  0  0
    0.1136   -5.9639    0.9333 H   0  0  0  0  0  0  0  0  0  0  0  0
    1.7322   -5.9148    1.6153 H   0  0  0  0  0  0  0  0  0  0  0  0
   -0.1395   -5.4733   -1.6810 H   0  0  0  0  0  0  0  0  0  0  0  0
    1.0636   -6.7252   -1.9839 H   0  0  0  0  0  0  0  0  0  0  0  0
    1.3174   -5.0842   -2.5834 H   0  0  0  0  0  0  0  0  0  0  0  0
    3.7332   -5.4740    0.2107 H   0  0  0  0  0  0  0  0  0  0  0  0
    3.5590   -5.1698   -1.5312 H   0  0  0  0  0  0  0  0  0  0  0  0
    3.2131   -6.7626   -0.8691 H   0  0  0  0  0  0  0  0  0  0  0  0
  1  2  1  0  0  0  0
  2  3  1  0  0  0  0
  2  4  1  0  0  0  0
  2  5  1  0  0  0  0
  5  6  1  0  0  0  0
  6  7  2  0  0  0  0
  7  8  1  0  0  0  0
  8  9  2  0  0  0  0
  9 10  1  0  0  0  0
 10 11  1  0  0  0  0
 11 12  1  0  0  0  0
 12 13  1  0  0  0  0
 13 14  2  0  0  0  0
 14 15  1  0  0  0  0
 15 16  2  0  0  0  0
 16 17  1  0  0  0  0
 17 18  1  0  0  0  0
 17 19  1  0  0  0  0
 17 20  1  0  0  0  0
 16 21  1  0  0  0  0
 21 22  1  0  0  0  0
 22 23  2  0  0  0  0
 23 24  1  0  0  0  0
 24 25  1  0  0  0  0
 25 26  1  0  0  0  0
 26 27  2  0  0  0  0
 27 28  1  0  0  0  0
 28 29  2  0  0  0  0
 29 30  1  0  0  0  0
 30 31  1  0  0  0  0
 31 32  2  0  0  0  0
 27 33  1  0  0  0  0
 33 34  1  0  0  0  0
 34 35  1  0  0  0  0
 34 36  1  0  0  0  0
 34 37  1  0  0  0  0
 21 38  2  0  0  0  0
 38 39  1  0  0  0  0
 12 40  2  0  0  0  0
 40 41  1  0  0  0  0
 41 42  1  0  0  0  0
 41 43  1  0  0  0  0
 41 44  1  0  0  0  0
 30  5  2  0  0  0  0
 32  6  1  0  0  0  0
 40  9  1  0  0  0  0
 39 11  2  0  0  0  0
 39 15  1  0  0  0  0
 33 24  2  0  0  0  0
 31 26  1  0  0  0  0
  1 45  1  0  0  0  0
  1 46  1  0  0  0  0
  1 47  1  0  0  0  0
  3 48  1  0  0  0  0
  3 49  1  0  0  0  0
  3 50  1  0  0  0  0
  4 51  1  0  0  0  0
  4 52  1  0  0  0  0
  4 53  1  0  0  0  0
  7 54  1  0  0  0  0
  8 55  1  0  0  0  0
 10 56  1  0  0  0  0
 13 57  1  0  0  0  0
 14 58  1  0  0  0  0
 18 59  1  0  0  0  0
 18 60  1  0  0  0  0
 18 61  1  0  0  0  0
 19 62  1  0  0  0  0
 19 63  1  0  0  0  0
 19 64  1  0  0  0  0
 20 65  1  0  0  0  0
 20 66  1  0  0  0  0
 20 67  1  0  0  0  0
 22 68  1  0  0  0  0
 23 69  1  0  0  0  0
 25 70  1  0  0  0  0
 28 71  1  0  0  0  0
 29 72  1  0  0  0  0
 35 73  1  0  0  0  0
 35 74  1  0  0  0  0
 35 75  1  0  0  0  0
 36 76  1  0  0  0  0
 36 77  1  0  0  0  0
 36 78  1  0  0  0  0
 37 79  1  0  0  0  0
 37 80  1  0  0  0  0
 37 81  1  0  0  0  0
 42 82  1  0  0  0  0
 42 83  1  0  0  0  0
 42 84  1  0  0  0  0
 43 85  1  0  0  0  0
 43 86  1  0  0  0  0
 43 87  1  0  0  0  0
 44 88  1  0  0  0  0
 44 89  1  0  0  0  0
 44 90  1  0  0  0  0
M  END
