
  xtb     03022212273D
 energy: -46.356202865032 gnorm: 0.000150486495 xtb: 6.4.1 (afa7bdf)
 32 33  0     0  0            999 V2000
   -4.9679   -0.7573    0.8670 C   0  0  0  0  0  0  0  0  0  0  0  0
   -4.1056    0.1934    0.2108 N   0  0  0  0  0  0  0  0  0  0  0  0
   -4.6993    1.3093   -0.4822 C   0  0  0  0  0  0  0  0  0  0  0  0
   -2.7479    0.0403    0.2477 C   0  0  0  0  0  0  0  0  0  0  0  0
   -2.1518   -1.0840    0.8428 C   0  0  0  0  0  0  0  0  0  0  0  0
   -0.7855   -1.2288    0.8738 C   0  0  0  0  0  0  0  0  0  0  0  0
    0.0759   -0.2751    0.3183 C   0  0  0  0  0  0  0  0  0  0  0  0
    1.4997   -0.4879    0.3816 C   0  0  0  0  0  0  0  0  0  0  0  0
    2.4544    0.3167   -0.1192 C   0  0  0  0  0  0  0  0  0  0  0  0
    3.8766    0.0857   -0.0465 C   0  0  0  0  0  0  0  0  0  0  0  0
    4.4874   -1.0177    0.5744 C   0  0  0  0  0  0  0  0  0  0  0  0
    5.7949   -1.1759    0.6077 N   0  0  0  0  0  0  0  0  0  0  0  0
    6.5387   -0.2419    0.0255 C   0  0  0  0  0  0  0  0  0  0  0  0
    5.9540    0.8557   -0.5906 C   0  0  0  0  0  0  0  0  0  0  0  0
    4.6452    1.0190   -0.6274 N   0  0  0  0  0  0  0  0  0  0  0  0
   -0.5206    0.8447   -0.2727 C   0  0  0  0  0  0  0  0  0  0  0  0
   -1.8852    1.0010   -0.3081 C   0  0  0  0  0  0  0  0  0  0  0  0
   -4.9224   -1.7396    0.3845 H   0  0  0  0  0  0  0  0  0  0  0  0
   -4.6935   -0.8726    1.9193 H   0  0  0  0  0  0  0  0  0  0  0  0
   -5.9959   -0.4054    0.8248 H   0  0  0  0  0  0  0  0  0  0  0  0
   -4.3480    1.3583   -1.5166 H   0  0  0  0  0  0  0  0  0  0  0  0
   -4.4656    2.2588    0.0115 H   0  0  0  0  0  0  0  0  0  0  0  0
   -5.7802    1.1926   -0.5001 H   0  0  0  0  0  0  0  0  0  0  0  0
   -2.7611   -1.8576    1.2805 H   0  0  0  0  0  0  0  0  0  0  0  0
   -0.3643   -2.1094    1.3393 H   0  0  0  0  0  0  0  0  0  0  0  0
    1.7928   -1.3989    0.8886 H   0  0  0  0  0  0  0  0  0  0  0  0
    2.1970    1.2306   -0.6347 H   0  0  0  0  0  0  0  0  0  0  0  0
    3.9115   -1.7943    1.0581 H   0  0  0  0  0  0  0  0  0  0  0  0
    7.6092   -0.3869    0.0612 H   0  0  0  0  0  0  0  0  0  0  0  0
    6.5450    1.6265   -1.0684 H   0  0  0  0  0  0  0  0  0  0  0  0
    0.0984    1.6121   -0.7109 H   0  0  0  0  0  0  0  0  0  0  0  0
   -2.2864    1.8886   -0.7692 H   0  0  0  0  0  0  0  0  0  0  0  0
  1  2  1  0  0  0  0
  2  3  1  0  0  0  0
  2  4  1  0  0  0  0
  4  5  2  0  0  0  0
  5  6  1  0  0  0  0
  6  7  2  0  0  0  0
  7  8  1  0  0  0  0
  8  9  2  0  0  0  0
  9 10  1  0  0  0  0
 10 11  2  0  0  0  0
 11 12  1  0  0  0  0
 12 13  2  0  0  0  0
 13 14  1  0  0  0  0
 14 15  2  0  0  0  0
  7 16  1  0  0  0  0
 16 17  2  0  0  0  0
 17  4  1  0  0  0  0
 15 10  1  0  0  0  0
  1 18  1  0  0  0  0
  1 19  1  0  0  0  0
  1 20  1  0  0  0  0
  3 21  1  0  0  0  0
  3 22  1  0  0  0  0
  3 23  1  0  0  0  0
  5 24  1  0  0  0  0
  6 25  1  0  0  0  0
  8 26  1  0  0  0  0
  9 27  1  0  0  0  0
 11 28  1  0  0  0  0
 13 29  1  0  0  0  0
 14 30  1  0  0  0  0
 16 31  1  0  0  0  0
 17 32  1  0  0  0  0
M  END
