
  xtb     03022213133D
 energy: -92.218002909635 gnorm: 0.000099169122 xtb: 6.4.1 (afa7bdf)
 54 58  0     0  0            999 V2000
    5.2303   -2.6620   -2.4727 C   0  0  0  0  0  0  0  0  0  0  0  0
    3.9477   -2.2540   -2.8885 O   0  0  0  0  0  0  0  0  0  0  0  0
    3.0642   -1.8417   -1.9468 C   0  0  0  0  0  0  0  0  0  0  0  0
    1.7912   -1.4709   -2.4262 C   0  0  0  0  0  0  0  0  0  0  0  0
    0.8338   -0.9927   -1.5786 C   0  0  0  0  0  0  0  0  0  0  0  0
    1.0756   -0.8587   -0.1957 C   0  0  0  0  0  0  0  0  0  0  0  0
    2.3092   -1.3468    0.2911 C   0  0  0  0  0  0  0  0  0  0  0  0
    3.3038   -1.7974   -0.5914 C   0  0  0  0  0  0  0  0  0  0  0  0
    2.5046   -1.4174    1.7079 C   0  0  0  0  0  0  0  0  0  0  0  0
    3.7625   -1.7884    2.2277 C   0  0  0  0  0  0  0  0  0  0  0  0
    4.7844   -2.0916    2.6533 N   0  0  0  0  0  0  0  0  0  0  0  0
    1.4547   -1.2051    2.5588 C   0  0  0  0  0  0  0  0  0  0  0  0
    0.2018   -0.7572    2.0773 C   0  0  0  0  0  0  0  0  0  0  0  0
   -0.9092   -0.6794    2.9688 C   0  0  0  0  0  0  0  0  0  0  0  0
   -0.7402   -1.1660    4.2592 O   0  0  0  0  0  0  0  0  0  0  0  0
   -0.7868   -2.5765    4.3552 C   0  0  0  0  0  0  0  0  0  0  0  0
   -2.1115   -0.1800    2.5230 C   0  0  0  0  0  0  0  0  0  0  0  0
   -3.2779   -0.1022    3.2100 O   0  0  0  0  0  0  0  0  0  0  0  0
   -3.3227   -0.2972    4.6073 C   0  0  0  0  0  0  0  0  0  0  0  0
   -2.1784    0.3871    1.2055 C   0  0  0  0  0  0  0  0  0  0  0  0
   -3.4043    0.9309    0.7558 C   0  0  0  0  0  0  0  0  0  0  0  0
   -3.5046    1.5432   -0.4627 C   0  0  0  0  0  0  0  0  0  0  0  0
   -4.7635    1.9942   -0.9144 C   0  0  0  0  0  0  0  0  0  0  0  0
   -5.7954    2.3469   -1.2709 N   0  0  0  0  0  0  0  0  0  0  0  0
   -2.3278    1.8036   -1.2369 C   0  0  0  0  0  0  0  0  0  0  0  0
   -2.3763    2.6212   -2.3689 C   0  0  0  0  0  0  0  0  0  0  0  0
   -1.2198    2.9943   -3.0292 C   0  0  0  0  0  0  0  0  0  0  0  0
   -1.3745    3.7799   -4.1231 O   0  0  0  0  0  0  0  0  0  0  0  0
   -0.2301    4.2067   -4.8233 C   0  0  0  0  0  0  0  0  0  0  0  0
    0.0171    2.5806   -2.5090 C   0  0  0  0  0  0  0  0  0  0  0  0
    0.0692    1.7453   -1.4231 C   0  0  0  0  0  0  0  0  0  0  0  0
   -1.0928    1.2740   -0.7885 C   0  0  0  0  0  0  0  0  0  0  0  0
   -1.0567    0.3997    0.3550 C   0  0  0  0  0  0  0  0  0  0  0  0
    0.0813   -0.3783    0.7245 C   0  0  0  0  0  0  0  0  0  0  0  0
    5.7616   -1.8536   -1.9609 H   0  0  0  0  0  0  0  0  0  0  0  0
    5.7649   -2.9268   -3.3832 H   0  0  0  0  0  0  0  0  0  0  0  0
    5.1792   -3.5351   -1.8150 H   0  0  0  0  0  0  0  0  0  0  0  0
    1.5953   -1.5866   -3.4802 H   0  0  0  0  0  0  0  0  0  0  0  0
   -0.1398   -0.7444   -1.9697 H   0  0  0  0  0  0  0  0  0  0  0  0
    4.2386   -2.1341   -0.1705 H   0  0  0  0  0  0  0  0  0  0  0  0
    1.5854   -1.3348    3.6231 H   0  0  0  0  0  0  0  0  0  0  0  0
   -0.5921   -2.8128    5.3999 H   0  0  0  0  0  0  0  0  0  0  0  0
   -1.7729   -2.9626    4.0704 H   0  0  0  0  0  0  0  0  0  0  0  0
   -0.0327   -3.0564    3.7238 H   0  0  0  0  0  0  0  0  0  0  0  0
   -2.5269    0.2490    5.1154 H   0  0  0  0  0  0  0  0  0  0  0  0
   -3.2639   -1.3554    4.8729 H   0  0  0  0  0  0  0  0  0  0  0  0
   -4.2930    0.0923    4.9166 H   0  0  0  0  0  0  0  0  0  0  0  0
   -4.2718    0.8328    1.3890 H   0  0  0  0  0  0  0  0  0  0  0  0
   -3.3239    2.9983   -2.7214 H   0  0  0  0  0  0  0  0  0  0  0  0
    0.3500    3.3592   -5.2019 H   0  0  0  0  0  0  0  0  0  0  0  0
   -0.6025    4.7912   -5.6629 H   0  0  0  0  0  0  0  0  0  0  0  0
    0.4106    4.8393   -4.2007 H   0  0  0  0  0  0  0  0  0  0  0  0
    0.9404    2.9249   -2.9470 H   0  0  0  0  0  0  0  0  0  0  0  0
    1.0347    1.4718   -1.0286 H   0  0  0  0  0  0  0  0  0  0  0  0
  1  2  1  0  0  0  0
  2  3  1  0  0  0  0
  3  4  2  0  0  0  0
  4  5  1  0  0  0  0
  5  6  2  0  0  0  0
  6  7  1  0  0  0  0
  7  8  2  0  0  0  0
  7  9  1  0  0  0  0
  9 10  1  0  0  0  0
 10 11  3  0  0  0  0
  9 12  2  0  0  0  0
 12 13  1  0  0  0  0
 13 14  2  0  0  0  0
 14 15  1  0  0  0  0
 15 16  1  0  0  0  0
 14 17  1  0  0  0  0
 17 18  1  0  0  0  0
 18 19  1  0  0  0  0
 17 20  2  0  0  0  0
 20 21  1  0  0  0  0
 21 22  2  0  0  0  0
 22 23  1  0  0  0  0
 23 24  3  0  0  0  0
 22 25  1  0  0  0  0
 25 26  2  0  0  0  0
 26 27  1  0  0  0  0
 27 28  1  0  0  0  0
 28 29  1  0  0  0  0
 27 30  2  0  0  0  0
 30 31  1  0  0  0  0
 31 32  2  0  0  0  0
 32 33  1  0  0  0  0
 33 34  2  0  0  0  0
  8  3  1  0  0  0  0
 34 13  1  0  0  0  0
 34  6  1  0  0  0  0
 33 20  1  0  0  0  0
 32 25  1  0  0  0  0
  1 35  1  0  0  0  0
  1 36  1  0  0  0  0
  1 37  1  0  0  0  0
  4 38  1  0  0  0  0
  5 39  1  0  0  0  0
  8 40  1  0  0  0  0
 12 41  1  0  0  0  0
 16 42  1  0  0  0  0
 16 43  1  0  0  0  0
 16 44  1  0  0  0  0
 19 45  1  0  0  0  0
 19 46  1  0  0  0  0
 19 47  1  0  0  0  0
 21 48  1  0  0  0  0
 26 49  1  0  0  0  0
 29 50  1  0  0  0  0
 29 51  1  0  0  0  0
 29 52  1  0  0  0  0
 30 53  1  0  0  0  0
 31 54  1  0  0  0  0
M  END
