
  xtb     03022216073D
 energy: -153.153139112283 gnorm: 0.000188608928 xtb: 6.4.1 (afa7bdf)
104111  0     0  0            999 V2000
   -0.1408   11.0301   -0.9552 C   0  0  0  0  0  0  0  0  0  0  0  0
   -1.3252   10.2134   -1.0493 N   0  0  0  0  0  0  0  0  0  0  0  0
   -2.6124   10.8620   -1.0110 C   0  0  0  0  0  0  0  0  0  0  0  0
   -1.2368    8.8519   -0.9155 C   0  0  0  0  0  0  0  0  0  0  0  0
    0.0052    8.2029   -0.8165 C   0  0  0  0  0  0  0  0  0  0  0  0
    0.0924    6.8350   -0.7082 C   0  0  0  0  0  0  0  0  0  0  0  0
   -1.0479    6.0252   -0.6882 C   0  0  0  0  0  0  0  0  0  0  0  0
   -1.0072    4.5890   -0.5734 C   0  0  0  0  0  0  0  0  0  0  0  0
    0.0841    3.8123   -0.4761 C   0  0  0  0  0  0  0  0  0  0  0  0
    0.0103    2.3716   -0.3617 C   0  0  0  0  0  0  0  0  0  0  0  0
   -1.1893    1.7910   -0.3615 N   0  0  0  0  0  0  0  0  0  0  0  0
   -1.2450    0.4631   -0.2511 C   0  0  0  0  0  0  0  0  0  0  0  0
   -2.5845   -0.0951   -0.2566 C   0  0  0  0  0  0  0  0  0  0  0  0
   -2.8954   -1.3882   -0.0843 C   0  0  0  0  0  0  0  0  0  0  0  0
   -4.2227   -1.9632   -0.0830 C   0  0  0  0  0  0  0  0  0  0  0  0
   -4.3676   -3.3359    0.1487 C   0  0  0  0  0  0  0  0  0  0  0  0
   -5.6043   -3.9395    0.1597 C   0  0  0  0  0  0  0  0  0  0  0  0
   -6.7591   -3.1862   -0.0619 C   0  0  0  0  0  0  0  0  0  0  0  0
   -8.0163   -3.7892   -0.0529 N   0  0  0  0  0  0  0  0  0  0  0  0
   -9.0184   -3.3390   -0.9217 C   0  0  0  0  0  0  0  0  0  0  0  0
   -8.7021   -2.9413   -2.2204 C   0  0  0  0  0  0  0  0  0  0  0  0
   -9.6943   -2.4976   -3.0727 C   0  0  0  0  0  0  0  0  0  0  0  0
  -11.0130   -2.4508   -2.6510 C   0  0  0  0  0  0  0  0  0  0  0  0
  -11.3329   -2.8493   -1.3634 C   0  0  0  0  0  0  0  0  0  0  0  0
  -10.3468   -3.2868   -0.5007 C   0  0  0  0  0  0  0  0  0  0  0  0
   -8.2829   -4.8481    0.8239 C   0  0  0  0  0  0  0  0  0  0  0  0
   -7.7588   -4.8455    2.1163 C   0  0  0  0  0  0  0  0  0  0  0  0
   -8.0245   -5.8929    2.9765 C   0  0  0  0  0  0  0  0  0  0  0  0
   -8.8200   -6.9515    2.5693 C   0  0  0  0  0  0  0  0  0  0  0  0
   -9.3469   -6.9563    1.2882 C   0  0  0  0  0  0  0  0  0  0  0  0
   -9.0802   -5.9177    0.4176 C   0  0  0  0  0  0  0  0  0  0  0  0
   -6.6271   -1.8144   -0.2937 C   0  0  0  0  0  0  0  0  0  0  0  0
   -5.3868   -1.2191   -0.3045 C   0  0  0  0  0  0  0  0  0  0  0  0
   -0.0735   -0.2905   -0.1450 C   0  0  0  0  0  0  0  0  0  0  0  0
    1.1406    0.4000   -0.1554 C   0  0  0  0  0  0  0  0  0  0  0  0
    2.3985   -0.3129   -0.0479 C   0  0  0  0  0  0  0  0  0  0  0  0
    3.5843    0.3151   -0.0536 C   0  0  0  0  0  0  0  0  0  0  0  0
    4.8923   -0.2882    0.0512 C   0  0  0  0  0  0  0  0  0  0  0  0
    6.0261    0.5303   -0.0137 C   0  0  0  0  0  0  0  0  0  0  0  0
    7.2966    0.0099    0.0800 C   0  0  0  0  0  0  0  0  0  0  0  0
    7.4870   -1.3635    0.2500 C   0  0  0  0  0  0  0  0  0  0  0  0
    8.7709   -1.8983    0.3514 N   0  0  0  0  0  0  0  0  0  0  0  0
    9.0529   -3.1602   -0.1863 C   0  0  0  0  0  0  0  0  0  0  0  0
    9.9163   -4.0326    0.4758 C   0  0  0  0  0  0  0  0  0  0  0  0
   10.1978   -5.2736   -0.0613 C   0  0  0  0  0  0  0  0  0  0  0  0
    9.6207   -5.6682   -1.2572 C   0  0  0  0  0  0  0  0  0  0  0  0
    8.7595   -4.8066   -1.9170 C   0  0  0  0  0  0  0  0  0  0  0  0
    8.4781   -3.5603   -1.3924 C   0  0  0  0  0  0  0  0  0  0  0  0
    9.7845   -1.1773    0.9951 C   0  0  0  0  0  0  0  0  0  0  0  0
   11.0903   -1.2062    0.5067 C   0  0  0  0  0  0  0  0  0  0  0  0
   12.0887   -0.4999    1.1487 C   0  0  0  0  0  0  0  0  0  0  0  0
   11.8031    0.2500    2.2779 C   0  0  0  0  0  0  0  0  0  0  0  0
   10.5067    0.2846    2.7650 C   0  0  0  0  0  0  0  0  0  0  0  0
    9.5030   -0.4248    2.1350 C   0  0  0  0  0  0  0  0  0  0  0  0
    6.3627   -2.1903    0.3193 C   0  0  0  0  0  0  0  0  0  0  0  0
    5.0960   -1.6623    0.2198 C   0  0  0  0  0  0  0  0  0  0  0  0
    1.1729    1.7292   -0.2628 N   0  0  0  0  0  0  0  0  0  0  0  0
   -2.2837    6.6741   -0.7829 C   0  0  0  0  0  0  0  0  0  0  0  0
   -2.3830    8.0413   -0.8916 C   0  0  0  0  0  0  0  0  0  0  0  0
   -0.4081   12.0748   -1.0963 H   0  0  0  0  0  0  0  0  0  0  0  0
    0.5759   10.7591   -1.7346 H   0  0  0  0  0  0  0  0  0  0  0  0
    0.3489   10.9295    0.0204 H   0  0  0  0  0  0  0  0  0  0  0  0
   -2.4814   11.9362   -1.1183 H   0  0  0  0  0  0  0  0  0  0  0  0
   -3.2426   10.5166   -1.8348 H   0  0  0  0  0  0  0  0  0  0  0  0
   -3.1365   10.6727   -0.0672 H   0  0  0  0  0  0  0  0  0  0  0  0
    0.9191    8.7742   -0.8219 H   0  0  0  0  0  0  0  0  0  0  0  0
    1.0692    6.3826   -0.6339 H   0  0  0  0  0  0  0  0  0  0  0  0
   -1.9671    4.0882   -0.5653 H   0  0  0  0  0  0  0  0  0  0  0  0
    1.0873    4.2099   -0.4745 H   0  0  0  0  0  0  0  0  0  0  0  0
   -3.3524    0.6498   -0.4059 H   0  0  0  0  0  0  0  0  0  0  0  0
   -2.1007   -2.1056    0.0788 H   0  0  0  0  0  0  0  0  0  0  0  0
   -3.4860   -3.9390    0.3154 H   0  0  0  0  0  0  0  0  0  0  0  0
   -5.6885   -5.0026    0.3320 H   0  0  0  0  0  0  0  0  0  0  0  0
   -7.6760   -2.9870   -2.5548 H   0  0  0  0  0  0  0  0  0  0  0  0
   -9.4364   -2.1944   -4.0768 H   0  0  0  0  0  0  0  0  0  0  0  0
  -11.7860   -2.1065   -3.3211 H   0  0  0  0  0  0  0  0  0  0  0  0
  -12.3577   -2.8114   -1.0243 H   0  0  0  0  0  0  0  0  0  0  0  0
  -10.5969   -3.5884    0.5060 H   0  0  0  0  0  0  0  0  0  0  0  0
   -7.1475   -4.0156    2.4396 H   0  0  0  0  0  0  0  0  0  0  0  0
   -7.6145   -5.8775    3.9757 H   0  0  0  0  0  0  0  0  0  0  0  0
   -9.0282   -7.7665    3.2457 H   0  0  0  0  0  0  0  0  0  0  0  0
   -9.9643   -7.7798    0.9604 H   0  0  0  0  0  0  0  0  0  0  0  0
   -9.4846   -5.9279   -0.5841 H   0  0  0  0  0  0  0  0  0  0  0  0
   -7.5136   -1.2191   -0.4580 H   0  0  0  0  0  0  0  0  0  0  0  0
   -5.3197   -0.1571   -0.4801 H   0  0  0  0  0  0  0  0  0  0  0  0
   -0.0903   -1.3651   -0.0629 H   0  0  0  0  0  0  0  0  0  0  0  0
    2.3195   -1.3877    0.0377 H   0  0  0  0  0  0  0  0  0  0  0  0
    3.5631    1.3931   -0.1480 H   0  0  0  0  0  0  0  0  0  0  0  0
    5.8980    1.5943   -0.1511 H   0  0  0  0  0  0  0  0  0  0  0  0
    8.1568    0.6604    0.0163 H   0  0  0  0  0  0  0  0  0  0  0  0
   10.3601   -3.7304    1.4132 H   0  0  0  0  0  0  0  0  0  0  0  0
   10.8665   -5.9407    0.4627 H   0  0  0  0  0  0  0  0  0  0  0  0
    9.8407   -6.6400   -1.6722 H   0  0  0  0  0  0  0  0  0  0  0  0
    8.3097   -5.1035   -2.8530 H   0  0  0  0  0  0  0  0  0  0  0  0
    7.8148   -2.8858   -1.9139 H   0  0  0  0  0  0  0  0  0  0  0  0
   11.3131   -1.7831   -0.3791 H   0  0  0  0  0  0  0  0  0  0  0  0
   13.0956   -0.5288    0.7589 H   0  0  0  0  0  0  0  0  0  0  0  0
   12.5854    0.8032    2.7751 H   0  0  0  0  0  0  0  0  0  0  0  0
   10.2760    0.8618    3.6484 H   0  0  0  0  0  0  0  0  0  0  0  0
    8.4949   -0.4051    2.5227 H   0  0  0  0  0  0  0  0  0  0  0  0
    6.4964   -3.2530    0.4613 H   0  0  0  0  0  0  0  0  0  0  0  0
    4.2487   -2.3269    0.2868 H   0  0  0  0  0  0  0  0  0  0  0  0
   -3.1884    6.0824   -0.7677 H   0  0  0  0  0  0  0  0  0  0  0  0
   -3.3646    8.4812   -0.9582 H   0  0  0  0  0  0  0  0  0  0  0  0
  1  2  1  0  0  0  0
  2  3  1  0  0  0  0
  2  4  1  0  0  0  0
  4  5  2  0  0  0  0
  5  6  1  0  0  0  0
  6  7  2  0  0  0  0
  7  8  1  0  0  0  0
  8  9  2  0  0  0  0
  9 10  1  0  0  0  0
 10 11  2  0  0  0  0
 11 12  1  0  0  0  0
 12 13  1  0  0  0  0
 13 14  2  0  0  0  0
 14 15  1  0  0  0  0
 15 16  2  0  0  0  0
 16 17  1  0  0  0  0
 17 18  2  0  0  0  0
 18 19  1  0  0  0  0
 19 20  1  0  0  0  0
 20 21  2  0  0  0  0
 21 22  1  0  0  0  0
 22 23  2  0  0  0  0
 23 24  1  0  0  0  0
 24 25  2  0  0  0  0
 19 26  1  0  0  0  0
 26 27  2  0  0  0  0
 27 28  1  0  0  0  0
 28 29  2  0  0  0  0
 29 30  1  0  0  0  0
 30 31  2  0  0  0  0
 18 32  1  0  0  0  0
 32 33  2  0  0  0  0
 12 34  2  0  0  0  0
 34 35  1  0  0  0  0
 35 36  1  0  0  0  0
 36 37  2  0  0  0  0
 37 38  1  0  0  0  0
 38 39  2  0  0  0  0
 39 40  1  0  0  0  0
 40 41  2  0  0  0  0
 41 42  1  0  0  0  0
 42 43  1  0  0  0  0
 43 44  2  0  0  0  0
 44 45  1  0  0  0  0
 45 46  2  0  0  0  0
 46 47  1  0  0  0  0
 47 48  2  0  0  0  0
 42 49  1  0  0  0  0
 49 50  2  0  0  0  0
 50 51  1  0  0  0  0
 51 52  2  0  0  0  0
 52 53  1  0  0  0  0
 53 54  2  0  0  0  0
 41 55  1  0  0  0  0
 55 56  2  0  0  0  0
 35 57  2  0  0  0  0
  7 58  1  0  0  0  0
 58 59  2  0  0  0  0
 59  4  1  0  0  0  0
 57 10  1  0  0  0  0
 33 15  1  0  0  0  0
 56 38  1  0  0  0  0
 25 20  1  0  0  0  0
 31 26  1  0  0  0  0
 48 43  1  0  0  0  0
 54 49  1  0  0  0  0
  1 60  1  0  0  0  0
  1 61  1  0  0  0  0
  1 62  1  0  0  0  0
  3 63  1  0  0  0  0
  3 64  1  0  0  0  0
  3 65  1  0  0  0  0
  5 66  1  0  0  0  0
  6 67  1  0  0  0  0
  8 68  1  0  0  0  0
  9 69  1  0  0  0  0
 13 70  1  0  0  0  0
 14 71  1  0  0  0  0
 16 72  1  0  0  0  0
 17 73  1  0  0  0  0
 21 74  1  0  0  0  0
 22 75  1  0  0  0  0
 23 76  1  0  0  0  0
 24 77  1  0  0  0  0
 25 78  1  0  0  0  0
 27 79  1  0  0  0  0
 28 80  1  0  0  0  0
 29 81  1  0  0  0  0
 30 82  1  0  0  0  0
 31 83  1  0  0  0  0
 32 84  1  0  0  0  0
 33 85  1  0  0  0  0
 34 86  1  0  0  0  0
 36 87  1  0  0  0  0
 37 88  1  0  0  0  0
 39 89  1  0  0  0  0
 40 90  1  0  0  0  0
 44 91  1  0  0  0  0
 45 92  1  0  0  0  0
 46 93  1  0  0  0  0
 47 94  1  0  0  0  0
 48 95  1  0  0  0  0
 50 96  1  0  0  0  0
 51 97  1  0  0  0  0
 52 98  1  0  0  0  0
 53 99  1  0  0  0  0
 54100  1  0  0  0  0
 55101  1  0  0  0  0
 56102  1  0  0  0  0
 58103  1  0  0  0  0
 59104  1  0  0  0  0
M  END
