
  xtb     03022212443D
 energy: -69.058977997211 gnorm: 0.000180860107 xtb: 6.4.1 (afa7bdf)
 42 44  0     0  0            999 V2000
    5.0156    3.5720    0.4810 C   0  0  0  0  0  0  0  0  0  0  0  0
    4.8442    2.1765    0.2806 O   0  0  0  0  0  0  0  0  0  0  0  0
    3.5842    1.7441    0.2474 C   0  0  0  0  0  0  0  0  0  0  0  0
    2.6215    2.4644    0.3759 O   0  0  0  0  0  0  0  0  0  0  0  0
    3.4705    0.2814    0.0363 C   0  0  0  0  0  0  0  0  0  0  0  0
    4.5346   -0.5583   -0.1210 C   0  0  0  0  0  0  0  0  0  0  0  0
    4.3810   -1.9801   -0.3260 C   0  0  0  0  0  0  0  0  0  0  0  0
    5.3130   -2.7552   -0.4701 O   0  0  0  0  0  0  0  0  0  0  0  0
    3.0646   -2.4529   -0.3539 N   0  0  0  0  0  0  0  0  0  0  0  0
    2.8569   -3.8692   -0.5544 C   0  0  0  0  0  0  0  0  0  0  0  0
    1.9898   -1.6322   -0.1990 C   0  0  0  0  0  0  0  0  0  0  0  0
    0.6251   -1.9880   -0.2087 C   0  0  0  0  0  0  0  0  0  0  0  0
   -0.2088   -0.9142   -0.0251 C   0  0  0  0  0  0  0  0  0  0  0  0
   -1.6571   -0.9088    0.0221 C   0  0  0  0  0  0  0  0  0  0  0  0
   -2.3912   -2.0978    0.0143 C   0  0  0  0  0  0  0  0  0  0  0  0
   -3.7700   -2.0372    0.0662 C   0  0  0  0  0  0  0  0  0  0  0  0
   -4.4374   -0.8299    0.1229 C   0  0  0  0  0  0  0  0  0  0  0  0
   -3.7269    0.3814    0.1327 C   0  0  0  0  0  0  0  0  0  0  0  0
   -4.3711    1.5879    0.1805 N   0  0  0  0  0  0  0  0  0  0  0  0
   -3.6227    2.8187    0.1213 C   0  0  0  0  0  0  0  0  0  0  0  0
   -5.7976    1.6461    0.3766 C   0  0  0  0  0  0  0  0  0  0  0  0
   -2.3310    0.3075    0.0841 C   0  0  0  0  0  0  0  0  0  0  0  0
    0.6821    0.5782    0.1653 S   0  0  0  0  0  0  0  0  0  0  0  0
    2.1747   -0.2640   -0.0032 C   0  0  0  0  0  0  0  0  0  0  0  0
    4.5376    4.1321   -0.3254 H   0  0  0  0  0  0  0  0  0  0  0  0
    4.5703    3.8760    1.4307 H   0  0  0  0  0  0  0  0  0  0  0  0
    6.0880    3.7480    0.4867 H   0  0  0  0  0  0  0  0  0  0  0  0
    5.5455   -0.1861   -0.0979 H   0  0  0  0  0  0  0  0  0  0  0  0
    3.8413   -4.3283   -0.6429 H   0  0  0  0  0  0  0  0  0  0  0  0
    2.2874   -4.0456   -1.4681 H   0  0  0  0  0  0  0  0  0  0  0  0
    2.3264   -4.3005    0.2956 H   0  0  0  0  0  0  0  0  0  0  0  0
    0.2740   -2.9918   -0.3538 H   0  0  0  0  0  0  0  0  0  0  0  0
   -1.8953   -3.0535   -0.0221 H   0  0  0  0  0  0  0  0  0  0  0  0
   -4.3430   -2.9533    0.0616 H   0  0  0  0  0  0  0  0  0  0  0  0
   -5.5141   -0.8351    0.1537 H   0  0  0  0  0  0  0  0  0  0  0  0
   -3.0013    2.9603    1.0125 H   0  0  0  0  0  0  0  0  0  0  0  0
   -2.9753    2.8359   -0.7592 H   0  0  0  0  0  0  0  0  0  0  0  0
   -4.3109    3.6574    0.0475 H   0  0  0  0  0  0  0  0  0  0  0  0
   -6.1027    2.6798    0.5198 H   0  0  0  0  0  0  0  0  0  0  0  0
   -6.0976    1.0794    1.2633 H   0  0  0  0  0  0  0  0  0  0  0  0
   -6.3370    1.2486   -0.4901 H   0  0  0  0  0  0  0  0  0  0  0  0
   -1.7375    1.2065    0.0989 H   0  0  0  0  0  0  0  0  0  0  0  0
  1  2  1  0  0  0  0
  2  3  1  0  0  0  0
  3  4  2  0  0  0  0
  3  5  1  0  0  0  0
  5  6  2  0  0  0  0
  6  7  1  0  0  0  0
  7  8  2  0  0  0  0
  7  9  1  0  0  0  0
  9 10  1  0  0  0  0
  9 11  1  0  0  0  0
 11 12  1  0  0  0  0
 12 13  2  0  0  0  0
 13 14  1  0  0  0  0
 14 15  2  0  0  0  0
 15 16  1  0  0  0  0
 16 17  2  0  0  0  0
 17 18  1  0  0  0  0
 18 19  1  0  0  0  0
 19 20  1  0  0  0  0
 19 21  1  0  0  0  0
 18 22  2  0  0  0  0
 13 23  1  0  0  0  0
 23 24  1  0  0  0  0
 24  5  1  0  0  0  0
 24 11  2  0  0  0  0
 22 14  1  0  0  0  0
  1 25  1  0  0  0  0
  1 26  1  0  0  0  0
  1 27  1  0  0  0  0
  6 28  1  0  0  0  0
 10 29  1  0  0  0  0
 10 30  1  0  0  0  0
 10 31  1  0  0  0  0
 12 32  1  0  0  0  0
 15 33  1  0  0  0  0
 16 34  1  0  0  0  0
 17 35  1  0  0  0  0
 20 36  1  0  0  0  0
 20 37  1  0  0  0  0
 20 38  1  0  0  0  0
 21 39  1  0  0  0  0
 21 40  1  0  0  0  0
 21 41  1  0  0  0  0
 22 42  1  0  0  0  0
M  END
