
  xtb     03022214243D
 energy: -36.370778955986 gnorm: 0.000271584058 xtb: 6.4.1 (afa7bdf)
 25 27  0     0  0            999 V2000
    4.3660   -0.0466   -0.2630 N   0  0  0  0  0  0  0  0  0  0  0  0
    3.0054    0.1279   -0.1045 C   0  0  0  0  0  0  0  0  0  0  0  0
    2.4853    1.3987    0.1569 C   0  0  0  0  0  0  0  0  0  0  0  0
    1.1236    1.6101    0.2471 C   0  0  0  0  0  0  0  0  0  0  0  0
    0.2624    0.5374    0.0753 C   0  0  0  0  0  0  0  0  0  0  0  0
    0.7787   -0.7417   -0.1864 C   0  0  0  0  0  0  0  0  0  0  0  0
    2.1344   -0.9532   -0.2752 C   0  0  0  0  0  0  0  0  0  0  0  0
   -0.3405   -1.7327   -0.3306 C   0  0  0  0  0  0  0  0  0  0  0  0
   -1.5598   -0.8805   -0.1217 C   0  0  0  0  0  0  0  0  0  0  0  0
   -2.8890   -1.2433   -0.1387 C   0  0  0  0  0  0  0  0  0  0  0  0
   -3.8516   -0.2668    0.0827 C   0  0  0  0  0  0  0  0  0  0  0  0
   -3.4843    1.0494    0.3169 C   0  0  0  0  0  0  0  0  0  0  0  0
   -2.1503    1.4222    0.3358 C   0  0  0  0  0  0  0  0  0  0  0  0
   -1.1854    0.4520    0.1155 C   0  0  0  0  0  0  0  0  0  0  0  0
    4.7116   -0.9868   -0.1593 H   0  0  0  0  0  0  0  0  0  0  0  0
    4.9579    0.6639    0.1353 H   0  0  0  0  0  0  0  0  0  0  0  0
    3.1708    2.2244    0.2878 H   0  0  0  0  0  0  0  0  0  0  0  0
    0.7405    2.5988    0.4520 H   0  0  0  0  0  0  0  0  0  0  0  0
    2.5352   -1.9374   -0.4760 H   0  0  0  0  0  0  0  0  0  0  0  0
   -0.3396   -2.2015   -1.3179 H   0  0  0  0  0  0  0  0  0  0  0  0
   -0.2732   -2.5321    0.4117 H   0  0  0  0  0  0  0  0  0  0  0  0
   -3.1813   -2.2680   -0.3209 H   0  0  0  0  0  0  0  0  0  0  0  0
   -4.8979   -0.5358    0.0721 H   0  0  0  0  0  0  0  0  0  0  0  0
   -4.2500    1.7930    0.4865 H   0  0  0  0  0  0  0  0  0  0  0  0
   -1.8690    2.4489    0.5183 H   0  0  0  0  0  0  0  0  0  0  0  0
  1  2  1  0  0  0  0
  2  3  2  0  0  0  0
  3  4  1  0  0  0  0
  4  5  2  0  0  0  0
  5  6  1  0  0  0  0
  6  7  2  0  0  0  0
  6  8  1  0  0  0  0
  8  9  1  0  0  0  0
  9 10  2  0  0  0  0
 10 11  1  0  0  0  0
 11 12  2  0  0  0  0
 12 13  1  0  0  0  0
 13 14  2  0  0  0  0
  7  2  1  0  0  0  0
 14  9  1  0  0  0  0
 14  5  1  0  0  0  0
  1 15  1  0  0  0  0
  1 16  1  0  0  0  0
  3 17  1  0  0  0  0
  4 18  1  0  0  0  0
  7 19  1  0  0  0  0
  8 20  1  0  0  0  0
  8 21  1  0  0  0  0
 10 22  1  0  0  0  0
 11 23  1  0  0  0  0
 12 24  1  0  0  0  0
 13 25  1  0  0  0  0
M  END
