
  xtb     03022213193D
 energy: -92.792605454976 gnorm: 0.000212284371 xtb: 6.4.1 (afa7bdf)
 55 60  0     0  0            999 V2000
   -2.9897    5.1936    1.2714 C   0  0  0  0  0  0  0  0  0  0  0  0
   -2.3117    3.8833    1.0064 C   0  0  0  0  0  0  0  0  0  0  0  0
   -1.0959    3.5711    1.5980 C   0  0  0  0  0  0  0  0  0  0  0  0
   -0.4849    2.3526    1.3618 C   0  0  0  0  0  0  0  0  0  0  0  0
   -1.0685    1.3989    0.5347 C   0  0  0  0  0  0  0  0  0  0  0  0
   -0.3370   -0.0055    0.2271 B   0  0  0  0  0  4  0  0  0  0  0  0
   -1.3667   -1.2007   -0.1114 C   0  0  0  0  0  0  0  0  0  0  0  0
   -1.4729   -1.8254   -1.3476 C   0  0  0  0  0  0  0  0  0  0  0  0
   -2.3892   -2.8416   -1.5620 C   0  0  0  0  0  0  0  0  0  0  0  0
   -3.2263   -3.2721   -0.5435 C   0  0  0  0  0  0  0  0  0  0  0  0
   -4.2043   -4.3864   -0.7656 C   0  0  0  0  0  0  0  0  0  0  0  0
   -3.1163   -2.6590    0.6990 C   0  0  0  0  0  0  0  0  0  0  0  0
   -2.2041   -1.6435    0.9096 C   0  0  0  0  0  0  0  0  0  0  0  0
    0.6315   -0.4543    1.3133 N   0  0  0  0  0  0  0  0  0  0  0  0
    0.5311   -0.8147    2.5561 N   0  0  0  0  0  0  0  0  0  0  0  0
    1.7693   -1.1510    2.9476 C   0  0  0  0  0  0  0  0  0  0  0  0
    2.0439   -1.6039    4.3364 C   0  0  0  0  0  0  0  0  0  0  0  0
    1.2656   -2.6237    4.7285 F   0  0  0  0  0  0  0  0  0  0  0  0
    1.8771   -0.6294    5.2498 F   0  0  0  0  0  0  0  0  0  0  0  0
    3.3163   -2.0253    4.4746 F   0  0  0  0  0  0  0  0  0  0  0  0
    2.6938   -0.9956    1.9145 C   0  0  0  0  0  0  0  0  0  0  0  0
    1.9119   -0.5380    0.8547 C   0  0  0  0  0  0  0  0  0  0  0  0
    1.9548   -0.1152   -0.5057 C   0  0  0  0  0  0  0  0  0  0  0  0
    3.0543   -0.0033   -1.3936 C   0  0  0  0  0  0  0  0  0  0  0  0
    4.3705   -0.3504   -1.0376 C   0  0  0  0  0  0  0  0  0  0  0  0
    5.3882   -0.2232   -1.9452 C   0  0  0  0  0  0  0  0  0  0  0  0
    5.1336    0.2551   -3.2378 C   0  0  0  0  0  0  0  0  0  0  0  0
    3.8622    0.6014   -3.6112 C   0  0  0  0  0  0  0  0  0  0  0  0
    2.7945    0.4816   -2.7038 C   0  0  0  0  0  0  0  0  0  0  0  0
    1.4647    0.8360   -3.0431 C   0  0  0  0  0  0  0  0  0  0  0  0
    0.4691    0.6924   -2.1261 C   0  0  0  0  0  0  0  0  0  0  0  0
    0.7151    0.2142   -0.8938 N   0  0  0  0  0  4  0  0  0  0  0  0
   -2.2883    1.7191   -0.0536 C   0  0  0  0  0  0  0  0  0  0  0  0
   -2.8996    2.9375    0.1758 C   0  0  0  0  0  0  0  0  0  0  0  0
   -2.2823    5.9299    1.6459 H   0  0  0  0  0  0  0  0  0  0  0  0
   -3.7722    5.0632    2.0196 H   0  0  0  0  0  0  0  0  0  0  0  0
   -3.4550    5.5788    0.3661 H   0  0  0  0  0  0  0  0  0  0  0  0
   -0.6201    4.2895    2.2514 H   0  0  0  0  0  0  0  0  0  0  0  0
    0.4615    2.1408    1.8403 H   0  0  0  0  0  0  0  0  0  0  0  0
   -0.8341   -1.5254   -2.1689 H   0  0  0  0  0  0  0  0  0  0  0  0
   -2.4508   -3.3065   -2.5369 H   0  0  0  0  0  0  0  0  0  0  0  0
   -5.1119   -4.2246   -0.1881 H   0  0  0  0  0  0  0  0  0  0  0  0
   -3.7686   -5.3339   -0.4461 H   0  0  0  0  0  0  0  0  0  0  0  0
   -4.4653   -4.4725   -1.8181 H   0  0  0  0  0  0  0  0  0  0  0  0
   -3.7544   -2.9822    1.5094 H   0  0  0  0  0  0  0  0  0  0  0  0
   -2.1275   -1.1820    1.8824 H   0  0  0  0  0  0  0  0  0  0  0  0
    3.7436   -1.1938    1.9634 H   0  0  0  0  0  0  0  0  0  0  0  0
    4.5650   -0.7196   -0.0449 H   0  0  0  0  0  0  0  0  0  0  0  0
    6.3962   -0.4922   -1.6685 H   0  0  0  0  0  0  0  0  0  0  0  0
    5.9494    0.3487   -3.9386 H   0  0  0  0  0  0  0  0  0  0  0  0
    3.6598    0.9707   -4.6056 H   0  0  0  0  0  0  0  0  0  0  0  0
    1.2528    1.2205   -4.0278 H   0  0  0  0  0  0  0  0  0  0  0  0
   -0.5559    0.9634   -2.3263 H   0  0  0  0  0  0  0  0  0  0  0  0
   -2.7731    0.9945   -0.6934 H   0  0  0  0  0  0  0  0  0  0  0  0
   -3.8488    3.1585   -0.2928 H   0  0  0  0  0  0  0  0  0  0  0  0
  1  2  1  0  0  0  0
  2  3  2  0  0  0  0
  3  4  1  0  0  0  0
  4  5  2  0  0  0  0
  5  6  1  0  0  0  0
  6  7  1  0  0  0  0
  7  8  2  0  0  0  0
  8  9  1  0  0  0  0
  9 10  2  0  0  0  0
 10 11  1  0  0  0  0
 10 12  1  0  0  0  0
 12 13  2  0  0  0  0
  6 14  1  0  0  0  0
 14 15  1  0  0  0  0
 15 16  2  0  0  0  0
 16 17  1  0  0  0  0
 17 18  1  0  0  0  0
 17 19  1  0  0  0  0
 17 20  1  0  0  0  0
 16 21  1  0  0  0  0
 21 22  2  0  0  0  0
 22 23  1  0  0  0  0
 23 24  2  0  0  0  0
 24 25  1  0  0  0  0
 25 26  2  0  0  0  0
 26 27  1  0  0  0  0
 27 28  2  0  0  0  0
 28 29  1  0  0  0  0
 29 30  2  0  0  0  0
 30 31  1  0  0  0  0
 31 32  2  0  0  0  0
  5 33  1  0  0  0  0
 33 34  2  0  0  0  0
 34  2  1  0  0  0  0
 32  6  1  0  0  0  0
 13  7  1  0  0  0  0
 22 14  1  0  0  0  0
 32 23  1  0  0  0  0
 29 24  1  0  0  0  0
  1 35  1  0  0  0  0
  1 36  1  0  0  0  0
  1 37  1  0  0  0  0
  3 38  1  0  0  0  0
  4 39  1  0  0  0  0
  8 40  1  0  0  0  0
  9 41  1  0  0  0  0
 11 42  1  0  0  0  0
 11 43  1  0  0  0  0
 11 44  1  0  0  0  0
 12 45  1  0  0  0  0
 13 46  1  0  0  0  0
 21 47  1  0  0  0  0
 25 48  1  0  0  0  0
 26 49  1  0  0  0  0
 27 50  1  0  0  0  0
 28 51  1  0  0  0  0
 30 52  1  0  0  0  0
 31 53  1  0  0  0  0
 33 54  1  0  0  0  0
 34 55  1  0  0  0  0
M  CHG  1   6  -1
M  CHG  1  32   1
M  END
