
  xtb     03022212203D
 energy: -117.005360492838 gnorm: 0.000152105163 xtb: 6.4.1 (afa7bdf)
 76 84  0     0  0            999 V2000
   -4.3134    2.9607    0.8331 C   0  0  0  0  0  0  0  0  0  0  0  0
   -4.7320    2.2034   -0.4312 C   0  0  0  0  0  0  0  0  0  0  0  0
   -4.1069    2.8484   -1.6721 C   0  0  0  0  0  0  0  0  0  0  0  0
   -6.2377    2.1355   -0.5525 C   0  0  0  0  0  0  0  0  0  0  0  0
   -7.1413    3.1682   -0.6768 C   0  0  0  0  0  0  0  0  0  0  0  0
   -8.4933    2.8672   -0.7776 C   0  0  0  0  0  0  0  0  0  0  0  0
   -8.9301    1.5520   -0.7539 C   0  0  0  0  0  0  0  0  0  0  0  0
   -8.0279    0.5082   -0.6284 C   0  0  0  0  0  0  0  0  0  0  0  0
   -6.6787    0.8050   -0.5276 C   0  0  0  0  0  0  0  0  0  0  0  0
   -5.5234   -0.0666   -0.3917 C   0  0  0  0  0  0  0  0  0  0  0  0
   -5.4466   -1.4450   -0.3388 C   0  0  0  0  0  0  0  0  0  0  0  0
   -4.1843   -2.0098   -0.2087 C   0  0  0  0  0  0  0  0  0  0  0  0
   -3.7251   -3.3699   -0.1488 C   0  0  0  0  0  0  0  0  0  0  0  0
   -4.3759   -4.5962   -0.1599 C   0  0  0  0  0  0  0  0  0  0  0  0
   -3.6202   -5.7471   -0.0589 C   0  0  0  0  0  0  0  0  0  0  0  0
   -2.2348   -5.6848    0.0697 C   0  0  0  0  0  0  0  0  0  0  0  0
   -1.5649   -4.4760    0.0839 C   0  0  0  0  0  0  0  0  0  0  0  0
   -2.3168   -3.3176   -0.0454 C   0  0  0  0  0  0  0  0  0  0  0  0
   -1.9104   -1.9957   -0.0309 N   0  0  0  0  0  0  0  0  0  0  0  0
   -0.5902   -1.5486    0.0564 C   0  0  0  0  0  0  0  0  0  0  0  0
    0.3887   -2.0884   -0.7783 C   0  0  0  0  0  0  0  0  0  0  0  0
    1.6912   -1.6479   -0.6919 C   0  0  0  0  0  0  0  0  0  0  0  0
    2.0421   -0.6573    0.2246 C   0  0  0  0  0  0  0  0  0  0  0  0
    3.4235   -0.1908    0.3096 C   0  0  0  0  0  0  0  0  0  0  0  0
    4.3169   -0.7400   -0.5089 N   0  0  0  0  0  0  0  0  0  0  0  0
    5.5615   -0.2841   -0.4039 C   0  0  0  0  0  0  0  0  0  0  0  0
    6.5780   -0.8547   -1.2883 C   0  0  0  0  0  0  0  0  0  0  0  0
    7.8974   -0.4123   -1.2179 C   0  0  0  0  0  0  0  0  0  0  0  0
    8.8540   -0.9546   -2.0539 C   0  0  0  0  0  0  0  0  0  0  0  0
    8.5043   -1.9397   -2.9644 C   0  0  0  0  0  0  0  0  0  0  0  0
    7.1929   -2.3830   -3.0386 C   0  0  0  0  0  0  0  0  0  0  0  0
    6.2315   -1.8448   -2.2057 C   0  0  0  0  0  0  0  0  0  0  0  0
    5.9378    0.6576    0.4568 N   0  0  0  0  0  0  0  0  0  0  0  0
    4.9819    1.1472    1.2414 C   0  0  0  0  0  0  0  0  0  0  0  0
    5.3511    2.1792    2.2109 C   0  0  0  0  0  0  0  0  0  0  0  0
    4.3896    2.7139    3.0660 C   0  0  0  0  0  0  0  0  0  0  0  0
    4.7425    3.6851    3.9827 C   0  0  0  0  0  0  0  0  0  0  0  0
    6.0533    4.1305    4.0541 C   0  0  0  0  0  0  0  0  0  0  0  0
    7.0135    3.6024    3.2050 C   0  0  0  0  0  0  0  0  0  0  0  0
    6.6672    2.6307    2.2864 C   0  0  0  0  0  0  0  0  0  0  0  0
    3.7116    0.7554    1.1993 N   0  0  0  0  0  0  0  0  0  0  0  0
    1.0619   -0.1184    1.0571 C   0  0  0  0  0  0  0  0  0  0  0  0
   -0.2410   -0.5600    0.9768 C   0  0  0  0  0  0  0  0  0  0  0  0
   -3.0315   -1.1929   -0.1271 C   0  0  0  0  0  0  0  0  0  0  0  0
   -3.1098    0.1939   -0.2078 C   0  0  0  0  0  0  0  0  0  0  0  0
   -4.3665    0.7389   -0.3336 C   0  0  0  0  0  0  0  0  0  0  0  0
   -4.6466    3.9946    0.7814 H   0  0  0  0  0  0  0  0  0  0  0  0
   -3.2311    2.9490    0.9401 H   0  0  0  0  0  0  0  0  0  0  0  0
   -4.7561    2.4969    1.7122 H   0  0  0  0  0  0  0  0  0  0  0  0
   -4.4063    2.3073   -2.5672 H   0  0  0  0  0  0  0  0  0  0  0  0
   -4.4335    3.8815   -1.7653 H   0  0  0  0  0  0  0  0  0  0  0  0
   -3.0217    2.8313   -1.6022 H   0  0  0  0  0  0  0  0  0  0  0  0
   -6.8118    4.1971   -0.6970 H   0  0  0  0  0  0  0  0  0  0  0  0
   -9.2127    3.6671   -0.8762 H   0  0  0  0  0  0  0  0  0  0  0  0
   -9.9865    1.3398   -0.8345 H   0  0  0  0  0  0  0  0  0  0  0  0
   -8.3711   -0.5156   -0.6103 H   0  0  0  0  0  0  0  0  0  0  0  0
   -6.3280   -2.0642   -0.4027 H   0  0  0  0  0  0  0  0  0  0  0  0
   -5.4514   -4.6434   -0.2406 H   0  0  0  0  0  0  0  0  0  0  0  0
   -4.1064   -6.7113   -0.0683 H   0  0  0  0  0  0  0  0  0  0  0  0
   -1.6712   -6.6012    0.1649 H   0  0  0  0  0  0  0  0  0  0  0  0
   -0.4929   -4.4388    0.2054 H   0  0  0  0  0  0  0  0  0  0  0  0
    0.1116   -2.8379   -1.5045 H   0  0  0  0  0  0  0  0  0  0  0  0
    2.4556   -2.0531   -1.3356 H   0  0  0  0  0  0  0  0  0  0  0  0
    8.1510    0.3546   -0.5033 H   0  0  0  0  0  0  0  0  0  0  0  0
    9.8765   -0.6107   -1.9981 H   0  0  0  0  0  0  0  0  0  0  0  0
    9.2544   -2.3625   -3.6168 H   0  0  0  0  0  0  0  0  0  0  0  0
    6.9225   -3.1506   -3.7490 H   0  0  0  0  0  0  0  0  0  0  0  0
    5.2064   -2.1772   -2.2493 H   0  0  0  0  0  0  0  0  0  0  0  0
    3.3749    2.3547    2.9967 H   0  0  0  0  0  0  0  0  0  0  0  0
    3.9960    4.0979    4.6454 H   0  0  0  0  0  0  0  0  0  0  0  0
    6.3268    4.8897    4.7723 H   0  0  0  0  0  0  0  0  0  0  0  0
    8.0342    3.9511    3.2623 H   0  0  0  0  0  0  0  0  0  0  0  0
    7.4007    2.2081    1.6180 H   0  0  0  0  0  0  0  0  0  0  0  0
    1.3454    0.6410    1.7686 H   0  0  0  0  0  0  0  0  0  0  0  0
   -0.9955   -0.1616    1.6386 H   0  0  0  0  0  0  0  0  0  0  0  0
   -2.2231    0.8092   -0.1874 H   0  0  0  0  0  0  0  0  0  0  0  0
  1  2  1  0  0  0  0
  2  3  1  0  0  0  0
  2  4  1  0  0  0  0
  4  5  2  0  0  0  0
  5  6  1  0  0  0  0
  6  7  2  0  0  0  0
  7  8  1  0  0  0  0
  8  9  2  0  0  0  0
  9 10  1  0  0  0  0
 10 11  2  0  0  0  0
 11 12  1  0  0  0  0
 12 13  1  0  0  0  0
 13 14  2  0  0  0  0
 14 15  1  0  0  0  0
 15 16  2  0  0  0  0
 16 17  1  0  0  0  0
 17 18  2  0  0  0  0
 18 19  1  0  0  0  0
 19 20  1  0  0  0  0
 20 21  2  0  0  0  0
 21 22  1  0  0  0  0
 22 23  2  0  0  0  0
 23 24  1  0  0  0  0
 24 25  2  0  0  0  0
 25 26  1  0  0  0  0
 26 27  1  0  0  0  0
 27 28  2  0  0  0  0
 28 29  1  0  0  0  0
 29 30  2  0  0  0  0
 30 31  1  0  0  0  0
 31 32  2  0  0  0  0
 26 33  2  0  0  0  0
 33 34  1  0  0  0  0
 34 35  1  0  0  0  0
 35 36  2  0  0  0  0
 36 37  1  0  0  0  0
 37 38  2  0  0  0  0
 38 39  1  0  0  0  0
 39 40  2  0  0  0  0
 34 41  2  0  0  0  0
 23 42  1  0  0  0  0
 42 43  2  0  0  0  0
 19 44  1  0  0  0  0
 44 45  1  0  0  0  0
 45 46  2  0  0  0  0
 46  2  1  0  0  0  0
  9  4  1  0  0  0  0
 46 10  1  0  0  0  0
 44 12  2  0  0  0  0
 18 13  1  0  0  0  0
 43 20  1  0  0  0  0
 41 24  1  0  0  0  0
 32 27  1  0  0  0  0
 40 35  1  0  0  0  0
  1 47  1  0  0  0  0
  1 48  1  0  0  0  0
  1 49  1  0  0  0  0
  3 50  1  0  0  0  0
  3 51  1  0  0  0  0
  3 52  1  0  0  0  0
  5 53  1  0  0  0  0
  6 54  1  0  0  0  0
  7 55  1  0  0  0  0
  8 56  1  0  0  0  0
 11 57  1  0  0  0  0
 14 58  1  0  0  0  0
 15 59  1  0  0  0  0
 16 60  1  0  0  0  0
 17 61  1  0  0  0  0
 21 62  1  0  0  0  0
 22 63  1  0  0  0  0
 28 64  1  0  0  0  0
 29 65  1  0  0  0  0
 30 66  1  0  0  0  0
 31 67  1  0  0  0  0
 32 68  1  0  0  0  0
 36 69  1  0  0  0  0
 37 70  1  0  0  0  0
 38 71  1  0  0  0  0
 39 72  1  0  0  0  0
 40 73  1  0  0  0  0
 42 74  1  0  0  0  0
 43 75  1  0  0  0  0
 45 76  1  0  0  0  0
M  END
