
  xtb     03022212253D
 energy: -112.385974707227 gnorm: 0.000052008068 xtb: 6.4.1 (afa7bdf)
 71 80  0     0  0            999 V2000
   -7.5511   -0.6095    4.2094 C   0  0  0  0  0  0  0  0  0  0  0  0
   -8.0698    0.3634    3.3711 C   0  0  0  0  0  0  0  0  0  0  0  0
   -7.5090    0.5835    2.1268 C   0  0  0  0  0  0  0  0  0  0  0  0
   -6.4250   -0.1826    1.7084 C   0  0  0  0  0  0  0  0  0  0  0  0
   -5.8558    0.0326    0.4448 N   0  0  0  0  0  0  0  0  0  0  0  0
   -6.5419    0.0883   -0.7529 C   0  0  0  0  0  0  0  0  0  0  0  0
   -7.8942   -0.0905   -1.0065 C   0  0  0  0  0  0  0  0  0  0  0  0
   -8.3210   -0.0058   -2.3179 C   0  0  0  0  0  0  0  0  0  0  0  0
   -7.4294    0.2420   -3.3594 C   0  0  0  0  0  0  0  0  0  0  0  0
   -6.0795    0.3966   -3.1161 C   0  0  0  0  0  0  0  0  0  0  0  0
   -5.6264    0.3155   -1.8061 C   0  0  0  0  0  0  0  0  0  0  0  0
   -4.3263    0.4072   -1.2028 C   0  0  0  0  0  0  0  0  0  0  0  0
   -3.0576    0.6378   -1.7104 C   0  0  0  0  0  0  0  0  0  0  0  0
   -1.9770    0.6884   -0.8392 C   0  0  0  0  0  0  0  0  0  0  0  0
   -0.6206    0.9260   -1.3543 C   0  0  0  0  0  0  0  0  0  0  0  0
   -0.3980    1.8475   -2.3763 C   0  0  0  0  0  0  0  0  0  0  0  0
    0.8784    2.0677   -2.8590 C   0  0  0  0  0  0  0  0  0  0  0  0
    1.9552    1.3720   -2.3406 C   0  0  0  0  0  0  0  0  0  0  0  0
    1.7479    0.4546   -1.3152 C   0  0  0  0  0  0  0  0  0  0  0  0
    2.8325   -0.2574   -0.7779 N   0  0  0  0  0  0  0  0  0  0  0  0
    2.9064   -1.6283   -0.6339 C   0  0  0  0  0  0  0  0  0  0  0  0
    1.9900   -2.6077   -0.9891 C   0  0  0  0  0  0  0  0  0  0  0  0
    2.3322   -3.9251   -0.7522 C   0  0  0  0  0  0  0  0  0  0  0  0
    3.5571   -4.2702   -0.1834 C   0  0  0  0  0  0  0  0  0  0  0  0
    4.4827   -3.3036    0.1526 C   0  0  0  0  0  0  0  0  0  0  0  0
    4.1600   -1.9719   -0.0768 C   0  0  0  0  0  0  0  0  0  0  0  0
    4.8623   -0.7401    0.1231 C   0  0  0  0  0  0  0  0  0  0  0  0
    6.1063   -0.3972    0.6358 C   0  0  0  0  0  0  0  0  0  0  0  0
    7.3304   -1.4873    1.2361 S   0  0  0  0  0  0  0  0  0  0  0  0
    8.3864   -0.1377    1.5958 C   0  0  0  0  0  0  0  0  0  0  0  0
    9.6551   -0.2265    2.1421 C   0  0  0  0  0  0  0  0  0  0  0  0
   10.3596    0.9412    2.3638 C   0  0  0  0  0  0  0  0  0  0  0  0
    9.8035    2.1761    2.0445 C   0  0  0  0  0  0  0  0  0  0  0  0
    8.5389    2.2620    1.4999 C   0  0  0  0  0  0  0  0  0  0  0  0
    7.8081    1.1001    1.2663 C   0  0  0  0  0  0  0  0  0  0  0  0
    6.4883    0.9507    0.7122 C   0  0  0  0  0  0  0  0  0  0  0  0
    5.6085    1.9522    0.2852 C   0  0  0  0  0  0  0  0  0  0  0  0
    4.3713    1.6382   -0.2294 C   0  0  0  0  0  0  0  0  0  0  0  0
    4.0096    0.2951   -0.3245 C   0  0  0  0  0  0  0  0  0  0  0  0
    0.4668    0.2384   -0.8248 C   0  0  0  0  0  0  0  0  0  0  0  0
   -2.1879    0.5240    0.5370 C   0  0  0  0  0  0  0  0  0  0  0  0
   -3.4425    0.2994    1.0643 C   0  0  0  0  0  0  0  0  0  0  0  0
   -4.5150    0.2226    0.1866 C   0  0  0  0  0  0  0  0  0  0  0  0
   -5.9077   -1.1632    2.5498 C   0  0  0  0  0  0  0  0  0  0  0  0
   -6.4687   -1.3685    3.7965 C   0  0  0  0  0  0  0  0  0  0  0  0
   -7.9893   -0.7756    5.1818 H   0  0  0  0  0  0  0  0  0  0  0  0
   -8.9109    0.9606    3.6909 H   0  0  0  0  0  0  0  0  0  0  0  0
   -7.8962    1.3561    1.4793 H   0  0  0  0  0  0  0  0  0  0  0  0
   -8.5907   -0.3004   -0.2088 H   0  0  0  0  0  0  0  0  0  0  0  0
   -9.3694   -0.1380   -2.5409 H   0  0  0  0  0  0  0  0  0  0  0  0
   -7.8034    0.3039   -4.3705 H   0  0  0  0  0  0  0  0  0  0  0  0
   -5.3857    0.5724   -3.9245 H   0  0  0  0  0  0  0  0  0  0  0  0
   -2.9118    0.7573   -2.7733 H   0  0  0  0  0  0  0  0  0  0  0  0
   -1.2287    2.4070   -2.7790 H   0  0  0  0  0  0  0  0  0  0  0  0
    1.0375    2.7844   -3.6513 H   0  0  0  0  0  0  0  0  0  0  0  0
    2.9501    1.5231   -2.7313 H   0  0  0  0  0  0  0  0  0  0  0  0
    1.0452   -2.3522   -1.4449 H   0  0  0  0  0  0  0  0  0  0  0  0
    1.6349   -4.7062   -1.0174 H   0  0  0  0  0  0  0  0  0  0  0  0
    3.7842   -5.3120   -0.0129 H   0  0  0  0  0  0  0  0  0  0  0  0
    5.4387   -3.5660    0.5797 H   0  0  0  0  0  0  0  0  0  0  0  0
   10.0777   -1.1890    2.3863 H   0  0  0  0  0  0  0  0  0  0  0  0
   11.3510    0.8939    2.7887 H   0  0  0  0  0  0  0  0  0  0  0  0
   10.3706    3.0772    2.2257 H   0  0  0  0  0  0  0  0  0  0  0  0
    8.1122    3.2228    1.2537 H   0  0  0  0  0  0  0  0  0  0  0  0
    5.9100    2.9852    0.3669 H   0  0  0  0  0  0  0  0  0  0  0  0
    3.6907    2.4151   -0.5421 H   0  0  0  0  0  0  0  0  0  0  0  0
    0.3195   -0.4770   -0.0295 H   0  0  0  0  0  0  0  0  0  0  0  0
   -1.3447    0.6034    1.2071 H   0  0  0  0  0  0  0  0  0  0  0  0
   -3.5832    0.2015    2.1301 H   0  0  0  0  0  0  0  0  0  0  0  0
   -5.0779   -1.7677    2.2153 H   0  0  0  0  0  0  0  0  0  0  0  0
   -6.0636   -2.1308    4.4454 H   0  0  0  0  0  0  0  0  0  0  0  0
  1  2  2  0  0  0  0
  2  3  1  0  0  0  0
  3  4  2  0  0  0  0
  4  5  1  0  0  0  0
  5  6  1  0  0  0  0
  6  7  2  0  0  0  0
  7  8  1  0  0  0  0
  8  9  2  0  0  0  0
  9 10  1  0  0  0  0
 10 11  2  0  0  0  0
 11 12  1  0  0  0  0
 12 13  2  0  0  0  0
 13 14  1  0  0  0  0
 14 15  1  0  0  0  0
 15 16  2  0  0  0  0
 16 17  1  0  0  0  0
 17 18  2  0  0  0  0
 18 19  1  0  0  0  0
 19 20  1  0  0  0  0
 20 21  1  0  0  0  0
 21 22  2  0  0  0  0
 22 23  1  0  0  0  0
 23 24  2  0  0  0  0
 24 25  1  0  0  0  0
 25 26  2  0  0  0  0
 26 27  1  0  0  0  0
 27 28  2  0  0  0  0
 28 29  1  0  0  0  0
 29 30  1  0  0  0  0
 30 31  2  0  0  0  0
 31 32  1  0  0  0  0
 32 33  2  0  0  0  0
 33 34  1  0  0  0  0
 34 35  2  0  0  0  0
 35 36  1  0  0  0  0
 36 37  2  0  0  0  0
 37 38  1  0  0  0  0
 38 39  2  0  0  0  0
 19 40  2  0  0  0  0
 14 41  2  0  0  0  0
 41 42  1  0  0  0  0
 42 43  2  0  0  0  0
  4 44  1  0  0  0  0
 44 45  2  0  0  0  0
 45  1  1  0  0  0  0
 43  5  1  0  0  0  0
 11  6  1  0  0  0  0
 43 12  1  0  0  0  0
 40 15  1  0  0  0  0
 39 20  1  0  0  0  0
 26 21  1  0  0  0  0
 39 27  1  0  0  0  0
 36 28  1  0  0  0  0
 35 30  1  0  0  0  0
  1 46  1  0  0  0  0
  2 47  1  0  0  0  0
  3 48  1  0  0  0  0
  7 49  1  0  0  0  0
  8 50  1  0  0  0  0
  9 51  1  0  0  0  0
 10 52  1  0  0  0  0
 13 53  1  0  0  0  0
 16 54  1  0  0  0  0
 17 55  1  0  0  0  0
 18 56  1  0  0  0  0
 22 57  1  0  0  0  0
 23 58  1  0  0  0  0
 24 59  1  0  0  0  0
 25 60  1  0  0  0  0
 31 61  1  0  0  0  0
 32 62  1  0  0  0  0
 33 63  1  0  0  0  0
 34 64  1  0  0  0  0
 37 65  1  0  0  0  0
 38 66  1  0  0  0  0
 40 67  1  0  0  0  0
 41 68  1  0  0  0  0
 42 69  1  0  0  0  0
 44 70  1  0  0  0  0
 45 71  1  0  0  0  0
M  END
