
  xtb     03022214183D
 energy: -74.417865001396 gnorm: 0.000050919488 xtb: 6.4.1 (afa7bdf)
 48 52  0     0  0            999 V2000
   -0.9343   -1.8742    0.1823 C   0  0  0  0  0  0  0  0  0  0  0  0
   -2.0835   -1.0119    0.2249 N   0  0  0  0  0  0  0  0  0  0  0  0
   -2.0158    0.3489    0.1074 C   0  0  0  0  0  0  0  0  0  0  0  0
   -0.8255    0.9924   -0.0619 C   0  0  0  0  0  0  0  0  0  0  0  0
   -0.6025    2.3746   -0.1965 C   0  0  0  0  0  0  0  0  0  0  0  0
    0.6310    2.9428   -0.3638 C   0  0  0  0  0  0  0  0  0  0  0  0
    1.8588    2.2529   -0.4277 C   0  0  0  0  0  0  0  0  0  0  0  0
    2.0547    0.9779   -0.3429 N   0  0  0  0  0  0  0  0  0  0  0  0
    3.3518    0.6342   -0.4416 C   0  0  0  0  0  0  0  0  0  0  0  0
    3.8006   -0.5925   -0.3855 N   0  0  0  0  0  0  0  0  0  0  0  0
    5.1348   -0.7546   -0.5024 C   0  0  0  0  0  0  0  0  0  0  0  0
    5.6775   -2.0538   -0.4494 C   0  0  0  0  0  0  0  0  0  0  0  0
    7.0273   -2.2384   -0.5659 C   0  0  0  0  0  0  0  0  0  0  0  0
    7.8902   -1.1440   -0.7392 C   0  0  0  0  0  0  0  0  0  0  0  0
    7.3979    0.1312   -0.7952 C   0  0  0  0  0  0  0  0  0  0  0  0
    6.0145    0.3547   -0.6786 C   0  0  0  0  0  0  0  0  0  0  0  0
    5.5404    1.6223   -0.7357 N   0  0  0  0  0  0  0  0  0  0  0  0
    4.2557    1.7527   -0.6210 C   0  0  0  0  0  0  0  0  0  0  0  0
    3.3607    3.2312   -0.6542 S   0  0  0  0  0  0  0  0  0  0  0  0
   -3.4213    0.9207    0.1988 C   0  0  0  0  0  0  0  0  0  0  0  0
   -3.8326    1.6333   -1.0953 C   0  0  0  0  0  0  0  0  0  0  0  0
   -3.5857    1.8381    1.4167 C   0  0  0  0  0  0  0  0  0  0  0  0
   -4.2432   -0.3314    0.3817 C   0  0  0  0  0  0  0  0  0  0  0  0
   -5.6011   -0.4916    0.5282 C   0  0  0  0  0  0  0  0  0  0  0  0
   -6.1087   -1.7764    0.6829 C   0  0  0  0  0  0  0  0  0  0  0  0
   -5.2607   -2.8709    0.6889 C   0  0  0  0  0  0  0  0  0  0  0  0
   -3.8897   -2.7219    0.5420 C   0  0  0  0  0  0  0  0  0  0  0  0
   -3.3889   -1.4395    0.3882 C   0  0  0  0  0  0  0  0  0  0  0  0
   -0.2379   -1.6279    0.9867 H   0  0  0  0  0  0  0  0  0  0  0  0
   -0.4095   -1.7695   -0.7697 H   0  0  0  0  0  0  0  0  0  0  0  0
   -1.2538   -2.9062    0.2967 H   0  0  0  0  0  0  0  0  0  0  0  0
    0.0717    0.3949   -0.1011 H   0  0  0  0  0  0  0  0  0  0  0  0
   -1.4432    3.0532   -0.1695 H   0  0  0  0  0  0  0  0  0  0  0  0
    0.7045    4.0165   -0.4586 H   0  0  0  0  0  0  0  0  0  0  0  0
    4.9972   -2.8805   -0.3157 H   0  0  0  0  0  0  0  0  0  0  0  0
    7.4422   -3.2350   -0.5251 H   0  0  0  0  0  0  0  0  0  0  0  0
    8.9524   -1.3182   -0.8285 H   0  0  0  0  0  0  0  0  0  0  0  0
    8.0409    0.9874   -0.9276 H   0  0  0  0  0  0  0  0  0  0  0  0
   -3.7164    0.9631   -1.9443 H   0  0  0  0  0  0  0  0  0  0  0  0
   -3.2256    2.5161   -1.2694 H   0  0  0  0  0  0  0  0  0  0  0  0
   -4.8760    1.9334   -1.0331 H   0  0  0  0  0  0  0  0  0  0  0  0
   -2.9707    2.7278    1.3260 H   0  0  0  0  0  0  0  0  0  0  0  0
   -3.2965    1.3111    2.3235 H   0  0  0  0  0  0  0  0  0  0  0  0
   -4.6261    2.1404    1.5104 H   0  0  0  0  0  0  0  0  0  0  0  0
   -6.2644    0.3602    0.5239 H   0  0  0  0  0  0  0  0  0  0  0  0
   -7.1717   -1.9216    0.7991 H   0  0  0  0  0  0  0  0  0  0  0  0
   -5.6709   -3.8623    0.8101 H   0  0  0  0  0  0  0  0  0  0  0  0
   -3.2490   -3.5900    0.5499 H   0  0  0  0  0  0  0  0  0  0  0  0
  1  2  1  0  0  0  0
  2  3  1  0  0  0  0
  3  4  2  0  0  0  0
  4  5  1  0  0  0  0
  5  6  2  0  0  0  0
  6  7  1  0  0  0  0
  7  8  2  0  0  0  0
  8  9  1  0  0  0  0
  9 10  2  0  0  0  0
 10 11  1  0  0  0  0
 11 12  2  0  0  0  0
 12 13  1  0  0  0  0
 13 14  2  0  0  0  0
 14 15  1  0  0  0  0
 15 16  2  0  0  0  0
 16 17  1  0  0  0  0
 17 18  2  0  0  0  0
 18 19  1  0  0  0  0
  3 20  1  0  0  0  0
 20 21  1  0  0  0  0
 20 22  1  0  0  0  0
 20 23  1  0  0  0  0
 23 24  2  0  0  0  0
 24 25  1  0  0  0  0
 25 26  2  0  0  0  0
 26 27  1  0  0  0  0
 27 28  2  0  0  0  0
 28  2  1  0  0  0  0
 19  7  1  0  0  0  0
 28 23  1  0  0  0  0
 18  9  1  0  0  0  0
 16 11  1  0  0  0  0
  1 29  1  0  0  0  0
  1 30  1  0  0  0  0
  1 31  1  0  0  0  0
  4 32  1  0  0  0  0
  5 33  1  0  0  0  0
  6 34  1  0  0  0  0
 12 35  1  0  0  0  0
 13 36  1  0  0  0  0
 14 37  1  0  0  0  0
 15 38  1  0  0  0  0
 21 39  1  0  0  0  0
 21 40  1  0  0  0  0
 21 41  1  0  0  0  0
 22 42  1  0  0  0  0
 22 43  1  0  0  0  0
 22 44  1  0  0  0  0
 24 45  1  0  0  0  0
 25 46  1  0  0  0  0
 26 47  1  0  0  0  0
 27 48  1  0  0  0  0
M  END
