
  xtb     03022212283D
 energy: -94.738438193495 gnorm: 0.000206691798 xtb: 6.4.1 (afa7bdf)
 62 67  0     0  0            999 V2000
    0.3563   -1.9631   -4.3718 C   0  0  0  0  0  0  0  0  0  0  0  0
   -0.6680   -1.5000   -3.4112 C   0  0  0  0  0  0  0  0  0  0  0  0
   -0.3521   -0.9813   -2.2194 N   0  0  0  0  0  4  0  0  0  0  0  0
   -1.5181   -0.6465   -1.5637 C   0  0  0  0  0  0  0  0  0  0  0  0
   -1.5027   -0.0659   -0.2971 C   0  0  0  0  0  0  0  0  0  0  0  0
   -2.7695    0.2826    0.3727 C   0  0  0  0  0  0  0  0  0  0  0  0
   -3.5809   -0.7367    0.8925 C   0  0  0  0  0  0  0  0  0  0  0  0
   -3.2123   -2.1060    0.8299 C   0  0  0  0  0  0  0  0  0  0  0  0
   -4.0214   -3.0730    1.3431 C   0  0  0  0  0  0  0  0  0  0  0  0
   -5.2450   -2.7351    1.9581 C   0  0  0  0  0  0  0  0  0  0  0  0
   -5.6257   -1.4326    2.0541 C   0  0  0  0  0  0  0  0  0  0  0  0
   -4.8118   -0.3935    1.5339 C   0  0  0  0  0  0  0  0  0  0  0  0
   -5.1797    0.9442    1.6384 C   0  0  0  0  0  0  0  0  0  0  0  0
   -4.3779    1.9610    1.1293 C   0  0  0  0  0  0  0  0  0  0  0  0
   -4.7512    3.3259    1.2319 C   0  0  0  0  0  0  0  0  0  0  0  0
   -3.9644    4.3080    0.7153 C   0  0  0  0  0  0  0  0  0  0  0  0
   -2.7606    3.9799    0.0574 C   0  0  0  0  0  0  0  0  0  0  0  0
   -2.3659    2.6825   -0.0614 C   0  0  0  0  0  0  0  0  0  0  0  0
   -3.1486    1.6290    0.4790 C   0  0  0  0  0  0  0  0  0  0  0  0
   -0.2852    0.1838    0.3336 C   0  0  0  0  0  0  0  0  0  0  0  0
   -0.0269    0.7394    1.6097 C   0  0  0  0  0  0  0  0  0  0  0  0
    1.3338    0.7562    1.7707 C   0  0  0  0  0  0  0  0  0  0  0  0
    1.9088    0.2098    0.5973 C   0  0  0  0  0  0  0  0  0  0  0  0
    3.2881    0.0069    0.2734 C   0  0  0  0  0  0  0  0  0  0  0  0
    4.3122    0.3033    1.0810 C   0  0  0  0  0  0  0  0  0  0  0  0
    5.7579    0.0778    0.7282 C   0  0  0  0  0  0  0  0  0  0  0  0
    6.6476    0.5479    1.8821 C   0  0  0  0  0  0  0  0  0  0  0  0
    5.9958   -1.4181    0.4793 C   0  0  0  0  0  0  0  0  0  0  0  0
    6.1092    0.8687   -0.5393 C   0  0  0  0  0  0  0  0  0  0  0  0
    0.9195   -0.1267   -0.2511 N   0  0  0  0  0  0  0  0  0  0  0  0
    1.0671   -0.7686   -1.6495 B   0  0  0  0  0  4  0  0  0  0  0  0
    1.7205   -1.9863   -1.5505 F   0  0  0  0  0  0  0  0  0  0  0  0
    1.7885    0.0680   -2.4858 F   0  0  0  0  0  0  0  0  0  0  0  0
   -2.6038   -0.9781   -2.4040 C   0  0  0  0  0  0  0  0  0  0  0  0
   -2.0667   -1.5115   -3.5535 C   0  0  0  0  0  0  0  0  0  0  0  0
    1.0148   -1.1358   -4.6348 H   0  0  0  0  0  0  0  0  0  0  0  0
   -0.1094   -2.3616   -5.2683 H   0  0  0  0  0  0  0  0  0  0  0  0
    0.9782   -2.7277   -3.9077 H   0  0  0  0  0  0  0  0  0  0  0  0
   -2.2729   -2.3701    0.3679 H   0  0  0  0  0  0  0  0  0  0  0  0
   -3.7299   -4.1112    1.2866 H   0  0  0  0  0  0  0  0  0  0  0  0
   -5.8703   -3.5206    2.3560 H   0  0  0  0  0  0  0  0  0  0  0  0
   -6.5562   -1.1612    2.5320 H   0  0  0  0  0  0  0  0  0  0  0  0
   -6.1102    1.1995    2.1263 H   0  0  0  0  0  0  0  0  0  0  0  0
   -5.6804    3.5647    1.7294 H   0  0  0  0  0  0  0  0  0  0  0  0
   -4.2553    5.3448    0.7975 H   0  0  0  0  0  0  0  0  0  0  0  0
   -2.1542    4.7719   -0.3563 H   0  0  0  0  0  0  0  0  0  0  0  0
   -1.4476    2.4371   -0.5735 H   0  0  0  0  0  0  0  0  0  0  0  0
   -0.7778    1.0759    2.2980 H   0  0  0  0  0  0  0  0  0  0  0  0
    1.8775    1.1132    2.6224 H   0  0  0  0  0  0  0  0  0  0  0  0
    3.4685   -0.4209   -0.7007 H   0  0  0  0  0  0  0  0  0  0  0  0
    4.1192    0.7292    2.0559 H   0  0  0  0  0  0  0  0  0  0  0  0
    6.4988    1.6088    2.0729 H   0  0  0  0  0  0  0  0  0  0  0  0
    7.6964    0.3885    1.6422 H   0  0  0  0  0  0  0  0  0  0  0  0
    6.4184   -0.0034    2.7918 H   0  0  0  0  0  0  0  0  0  0  0  0
    5.3779   -1.7753   -0.3393 H   0  0  0  0  0  0  0  0  0  0  0  0
    5.7504   -1.9941    1.3691 H   0  0  0  0  0  0  0  0  0  0  0  0
    7.0398   -1.5944    0.2297 H   0  0  0  0  0  0  0  0  0  0  0  0
    5.9367    1.9314   -0.3829 H   0  0  0  0  0  0  0  0  0  0  0  0
    5.5003    0.5439   -1.3779 H   0  0  0  0  0  0  0  0  0  0  0  0
    7.1565    0.7215   -0.7935 H   0  0  0  0  0  0  0  0  0  0  0  0
   -3.6387   -0.8317   -2.1638 H   0  0  0  0  0  0  0  0  0  0  0  0
   -2.5972   -1.8736   -4.4123 H   0  0  0  0  0  0  0  0  0  0  0  0
  1  2  1  0  0  0  0
  2  3  2  0  0  0  0
  3  4  1  0  0  0  0
  4  5  2  0  0  0  0
  5  6  1  0  0  0  0
  6  7  1  0  0  0  0
  7  8  2  0  0  0  0
  8  9  1  0  0  0  0
  9 10  2  0  0  0  0
 10 11  1  0  0  0  0
 11 12  2  0  0  0  0
 12 13  1  0  0  0  0
 13 14  2  0  0  0  0
 14 15  1  0  0  0  0
 15 16  2  0  0  0  0
 16 17  1  0  0  0  0
 17 18  2  0  0  0  0
 18 19  1  0  0  0  0
  5 20  1  0  0  0  0
 20 21  2  0  0  0  0
 21 22  1  0  0  0  0
 22 23  2  0  0  0  0
 23 24  1  0  0  0  0
 24 25  2  0  0  0  0
 25 26  1  0  0  0  0
 26 27  1  0  0  0  0
 26 28  1  0  0  0  0
 26 29  1  0  0  0  0
 23 30  1  0  0  0  0
 30 31  1  0  0  0  0
 31 32  1  0  0  0  0
 31 33  1  0  0  0  0
  4 34  1  0  0  0  0
 34 35  2  0  0  0  0
 35  2  1  0  0  0  0
 31  3  1  0  0  0  0
 19  6  2  0  0  0  0
 30 20  1  0  0  0  0
 12  7  1  0  0  0  0
 19 14  1  0  0  0  0
  1 36  1  0  0  0  0
  1 37  1  0  0  0  0
  1 38  1  0  0  0  0
  8 39  1  0  0  0  0
  9 40  1  0  0  0  0
 10 41  1  0  0  0  0
 11 42  1  0  0  0  0
 13 43  1  0  0  0  0
 15 44  1  0  0  0  0
 16 45  1  0  0  0  0
 17 46  1  0  0  0  0
 18 47  1  0  0  0  0
 21 48  1  0  0  0  0
 22 49  1  0  0  0  0
 24 50  1  0  0  0  0
 25 51  1  0  0  0  0
 27 52  1  0  0  0  0
 27 53  1  0  0  0  0
 27 54  1  0  0  0  0
 28 55  1  0  0  0  0
 28 56  1  0  0  0  0
 28 57  1  0  0  0  0
 29 58  1  0  0  0  0
 29 59  1  0  0  0  0
 29 60  1  0  0  0  0
 34 61  1  0  0  0  0
 35 62  1  0  0  0  0
M  CHG  1   3   1
M  CHG  1  31  -1
M  END
