
  xtb     03022213013D
 energy: -28.141233548980 gnorm: 0.000159144957 xtb: 6.4.1 (afa7bdf)
 17 18  0     0  0            999 V2000
    2.7506    2.9212   -0.6753 N   0  0  0  0  0  0  0  0  0  0  0  0
    2.2502    1.9092   -0.4664 C   0  0  0  0  0  0  0  0  0  0  0  0
    1.6188    0.6870   -0.2125 C   0  0  0  0  0  0  0  0  0  0  0  0
    2.2218   -0.5336   -0.0267 C   0  0  0  0  0  0  0  0  0  0  0  0
    1.2756   -1.4827    0.1957 N   0  0  0  0  0  0  0  0  0  0  0  0
    0.0332   -0.9056    0.1606 C   0  0  0  0  0  0  0  0  0  0  0  0
   -1.2270   -1.4638    0.3303 C   0  0  0  0  0  0  0  0  0  0  0  0
   -2.3127   -0.6191    0.2385 C   0  0  0  0  0  0  0  0  0  0  0  0
   -2.1551    0.7462   -0.0153 C   0  0  0  0  0  0  0  0  0  0  0  0
   -0.9085    1.3070   -0.1846 C   0  0  0  0  0  0  0  0  0  0  0  0
    0.2032    0.4731   -0.0961 C   0  0  0  0  0  0  0  0  0  0  0  0
    3.2675   -0.7752   -0.0409 H   0  0  0  0  0  0  0  0  0  0  0  0
    1.4588   -2.4583    0.3607 H   0  0  0  0  0  0  0  0  0  0  0  0
   -1.3487   -2.5187    0.5263 H   0  0  0  0  0  0  0  0  0  0  0  0
   -3.3078   -1.0184    0.3651 H   0  0  0  0  0  0  0  0  0  0  0  0
   -3.0339    1.3701   -0.0788 H   0  0  0  0  0  0  0  0  0  0  0  0
   -0.7863    2.3614   -0.3806 H   0  0  0  0  0  0  0  0  0  0  0  0
  1  2  3  0  0  0  0
  2  3  1  0  0  0  0
  3  4  2  0  0  0  0
  4  5  1  0  0  0  0
  5  6  1  0  0  0  0
  6  7  2  0  0  0  0
  7  8  1  0  0  0  0
  8  9  2  0  0  0  0
  9 10  1  0  0  0  0
 10 11  2  0  0  0  0
 11  3  1  0  0  0  0
 11  6  1  0  0  0  0
  4 12  1  0  0  0  0
  5 13  1  0  0  0  0
  7 14  1  0  0  0  0
  8 15  1  0  0  0  0
  9 16  1  0  0  0  0
 10 17  1  0  0  0  0
M  END
