
  xtb     03022214273D
 energy: -79.445447201532 gnorm: 0.000078130815 xtb: 6.4.1 (afa7bdf)
 45 50  0     0  0            999 V2000
    7.2546    1.0784   -1.2538 C   0  0  0  0  0  0  0  0  0  0  0  0
    7.2136   -0.3377   -1.2255 O   0  0  0  0  0  0  0  0  0  0  0  0
    6.0348   -0.8912   -1.0356 C   0  0  0  0  0  0  0  0  0  0  0  0
    6.0315   -2.2287   -1.0145 N   0  0  0  0  0  0  0  0  0  0  0  0
    4.8453   -2.7563   -0.8238 C   0  0  0  0  0  0  0  0  0  0  0  0
    4.7655   -4.4521   -0.7852 Cl  0  0  0  0  0  0  0  0  0  0  0  0
    3.7081   -2.1186   -0.6590 N   0  0  0  0  0  0  0  0  0  0  0  0
    3.8063   -0.7862   -0.6948 C   0  0  0  0  0  0  0  0  0  0  0  0
    2.7401    0.0134   -0.5432 N   0  0  0  0  0  0  0  0  0  0  0  0
    1.3941   -0.2752   -0.3358 C   0  0  0  0  0  0  0  0  0  0  0  0
    0.9402   -1.5727   -0.2566 C   0  0  0  0  0  0  0  0  0  0  0  0
   -0.4056   -1.8406   -0.0531 C   0  0  0  0  0  0  0  0  0  0  0  0
   -1.3495   -0.8363    0.0783 C   0  0  0  0  0  0  0  0  0  0  0  0
   -2.7596   -1.1334    0.2886 C   0  0  0  0  0  0  0  0  0  0  0  0
   -3.2372   -2.4317    0.3678 C   0  0  0  0  0  0  0  0  0  0  0  0
   -4.5888   -2.7075    0.5690 C   0  0  0  0  0  0  0  0  0  0  0  0
   -5.4900   -1.6871    0.6950 C   0  0  0  0  0  0  0  0  0  0  0  0
   -5.0589   -0.3483    0.6222 C   0  0  0  0  0  0  0  0  0  0  0  0
   -5.9807    0.7086    0.7507 C   0  0  0  0  0  0  0  0  0  0  0  0
   -5.5544    2.0054    0.6787 C   0  0  0  0  0  0  0  0  0  0  0  0
   -4.2047    2.2920    0.4776 C   0  0  0  0  0  0  0  0  0  0  0  0
   -3.2558    1.2915    0.3449 C   0  0  0  0  0  0  0  0  0  0  0  0
   -1.8418    1.5852    0.1341 C   0  0  0  0  0  0  0  0  0  0  0  0
   -1.3801    2.8875    0.0580 C   0  0  0  0  0  0  0  0  0  0  0  0
   -0.0333    3.1684   -0.1425 C   0  0  0  0  0  0  0  0  0  0  0  0
    0.8749    2.1533   -0.2715 C   0  0  0  0  0  0  0  0  0  0  0  0
    0.4697    0.8050   -0.2043 C   0  0  0  0  0  0  0  0  0  0  0  0
   -0.9120    0.5148    0.0032 C   0  0  0  0  0  0  0  0  0  0  0  0
   -3.6822   -0.0612    0.4173 C   0  0  0  0  0  0  0  0  0  0  0  0
    4.9654   -0.1319   -0.8828 N   0  0  0  0  0  0  0  0  0  0  0  0
    6.6318    1.4652   -2.0629 H   0  0  0  0  0  0  0  0  0  0  0  0
    8.2974    1.3401   -1.4176 H   0  0  0  0  0  0  0  0  0  0  0  0
    6.9007    1.4925   -0.3075 H   0  0  0  0  0  0  0  0  0  0  0  0
    2.9923    0.9915   -0.5967 H   0  0  0  0  0  0  0  0  0  0  0  0
    1.6396   -2.3843   -0.3545 H   0  0  0  0  0  0  0  0  0  0  0  0
   -0.6948   -2.8767   -0.0009 H   0  0  0  0  0  0  0  0  0  0  0  0
   -2.5670   -3.2703    0.2744 H   0  0  0  0  0  0  0  0  0  0  0  0
   -4.9147   -3.7359    0.6240 H   0  0  0  0  0  0  0  0  0  0  0  0
   -6.5396   -1.8887    0.8511 H   0  0  0  0  0  0  0  0  0  0  0  0
   -7.0237    0.4744    0.9061 H   0  0  0  0  0  0  0  0  0  0  0  0
   -6.2576    2.8196    0.7765 H   0  0  0  0  0  0  0  0  0  0  0  0
   -3.9215    3.3307    0.4283 H   0  0  0  0  0  0  0  0  0  0  0  0
   -2.0563    3.7205    0.1533 H   0  0  0  0  0  0  0  0  0  0  0  0
    0.2925    4.1968   -0.1960 H   0  0  0  0  0  0  0  0  0  0  0  0
    1.9111    2.4181   -0.4251 H   0  0  0  0  0  0  0  0  0  0  0  0
  1  2  1  0  0  0  0
  2  3  1  0  0  0  0
  3  4  2  0  0  0  0
  4  5  1  0  0  0  0
  5  6  1  0  0  0  0
  5  7  2  0  0  0  0
  7  8  1  0  0  0  0
  8  9  1  0  0  0  0
  9 10  1  0  0  0  0
 10 11  2  0  0  0  0
 11 12  1  0  0  0  0
 12 13  2  0  0  0  0
 13 14  1  0  0  0  0
 14 15  2  0  0  0  0
 15 16  1  0  0  0  0
 16 17  2  0  0  0  0
 17 18  1  0  0  0  0
 18 19  2  0  0  0  0
 19 20  1  0  0  0  0
 20 21  2  0  0  0  0
 21 22  1  0  0  0  0
 22 23  1  0  0  0  0
 23 24  1  0  0  0  0
 24 25  2  0  0  0  0
 25 26  1  0  0  0  0
 26 27  2  0  0  0  0
 27 28  1  0  0  0  0
 22 29  2  0  0  0  0
  8 30  2  0  0  0  0
 30  3  1  0  0  0  0
 27 10  1  0  0  0  0
 28 13  1  0  0  0  0
 29 14  1  0  0  0  0
 29 18  1  0  0  0  0
 28 23  2  0  0  0  0
  1 31  1  0  0  0  0
  1 32  1  0  0  0  0
  1 33  1  0  0  0  0
  9 34  1  0  0  0  0
 11 35  1  0  0  0  0
 12 36  1  0  0  0  0
 15 37  1  0  0  0  0
 16 38  1  0  0  0  0
 17 39  1  0  0  0  0
 19 40  1  0  0  0  0
 20 41  1  0  0  0  0
 21 42  1  0  0  0  0
 24 43  1  0  0  0  0
 25 44  1  0  0  0  0
 26 45  1  0  0  0  0
M  END
