
  xtb     03022212503D
 energy: -47.104041239609 gnorm: 0.000086577643 xtb: 6.4.1 (afa7bdf)
 31 34  0     0  0            999 V2000
    5.3913    1.0053    0.1063 C   0  0  0  0  0  0  0  0  0  0  0  0
    3.9654    0.5863    0.0915 C   0  0  0  0  0  0  0  0  0  0  0  0
    3.4532   -0.6560   -0.0498 C   0  0  0  0  0  0  0  0  0  0  0  0
    2.0275   -0.7028   -0.0187 C   0  0  0  0  0  0  0  0  0  0  0  0
    1.1834   -1.8164   -0.1367 C   0  0  0  0  0  0  0  0  0  0  0  0
   -0.1877   -1.6918   -0.0876 C   0  0  0  0  0  0  0  0  0  0  0  0
   -1.0686   -2.8955   -0.2169 C   0  0  0  0  0  0  0  0  0  0  0  0
   -0.7373   -0.4079    0.0863 C   0  0  0  0  0  0  0  0  0  0  0  0
   -2.0827    0.0932    0.1816 C   0  0  0  0  0  0  0  0  0  0  0  0
   -3.3472   -0.4870    0.1384 C   0  0  0  0  0  0  0  0  0  0  0  0
   -4.4590    0.3213    0.2669 C   0  0  0  0  0  0  0  0  0  0  0  0
   -4.3398    1.6986    0.4380 C   0  0  0  0  0  0  0  0  0  0  0  0
   -3.0998    2.3043    0.4846 C   0  0  0  0  0  0  0  0  0  0  0  0
   -1.9811    1.4963    0.3557 C   0  0  0  0  0  0  0  0  0  0  0  0
   -0.6569    1.8474    0.3677 N   0  0  0  0  0  0  0  0  0  0  0  0
    0.1033    0.7219    0.2077 C   0  0  0  0  0  0  0  0  0  0  0  0
    1.4799    0.5765    0.1551 C   0  0  0  0  0  0  0  0  0  0  0  0
    2.7165    1.7995    0.2759 S   0  0  0  0  0  0  0  0  0  0  0  0
    5.5874    1.7267   -0.6868 H   0  0  0  0  0  0  0  0  0  0  0  0
    5.6422    1.4788    1.0555 H   0  0  0  0  0  0  0  0  0  0  0  0
    6.0350    0.1406   -0.0366 H   0  0  0  0  0  0  0  0  0  0  0  0
    4.0645   -1.5326   -0.1753 H   0  0  0  0  0  0  0  0  0  0  0  0
    1.6325   -2.7898   -0.2692 H   0  0  0  0  0  0  0  0  0  0  0  0
   -1.6875   -3.0094    0.6722 H   0  0  0  0  0  0  0  0  0  0  0  0
   -1.7266   -2.7924   -1.0789 H   0  0  0  0  0  0  0  0  0  0  0  0
   -0.4713   -3.7954   -0.3418 H   0  0  0  0  0  0  0  0  0  0  0  0
   -3.4675   -1.5500    0.0068 H   0  0  0  0  0  0  0  0  0  0  0  0
   -5.4441   -0.1206    0.2344 H   0  0  0  0  0  0  0  0  0  0  0  0
   -5.2312    2.3005    0.5355 H   0  0  0  0  0  0  0  0  0  0  0  0
   -3.0006    3.3717    0.6169 H   0  0  0  0  0  0  0  0  0  0  0  0
   -0.2931    2.7785    0.4763 H   0  0  0  0  0  0  0  0  0  0  0  0
  1  2  1  0  0  0  0
  2  3  2  0  0  0  0
  3  4  1  0  0  0  0
  4  5  2  0  0  0  0
  5  6  1  0  0  0  0
  6  7  1  0  0  0  0
  6  8  2  0  0  0  0
  8  9  1  0  0  0  0
  9 10  2  0  0  0  0
 10 11  1  0  0  0  0
 11 12  2  0  0  0  0
 12 13  1  0  0  0  0
 13 14  2  0  0  0  0
 14 15  1  0  0  0  0
 15 16  1  0  0  0  0
 16 17  2  0  0  0  0
 17 18  1  0  0  0  0
 18  2  1  0  0  0  0
 17  4  1  0  0  0  0
 16  8  1  0  0  0  0
 14  9  1  0  0  0  0
  1 19  1  0  0  0  0
  1 20  1  0  0  0  0
  1 21  1  0  0  0  0
  3 22  1  0  0  0  0
  5 23  1  0  0  0  0
  7 24  1  0  0  0  0
  7 25  1  0  0  0  0
  7 26  1  0  0  0  0
 10 27  1  0  0  0  0
 11 28  1  0  0  0  0
 12 29  1  0  0  0  0
 13 30  1  0  0  0  0
 15 31  1  0  0  0  0
M  END
