
  xtb     03022216103D
 energy: -83.051122179731 gnorm: 0.000073709222 xtb: 6.4.1 (afa7bdf)
 54 61  0     0  0            999 V2000
   -7.7235    0.9388    0.4202 C   0  0  0  0  0  0  0  0  0  0  0  0
   -7.1280    0.5525   -0.7692 C   0  0  0  0  0  0  0  0  0  0  0  0
   -5.7615    0.3493   -0.8294 C   0  0  0  0  0  0  0  0  0  0  0  0
   -4.9709    0.5331    0.3019 C   0  0  0  0  0  0  0  0  0  0  0  0
   -3.5091    0.3475    0.2443 C   0  0  0  0  0  0  0  0  0  0  0  0
   -2.6947    1.3780    0.5868 C   0  0  0  0  0  0  0  0  0  0  0  0
   -1.2731    1.2832    0.5191 C   0  0  0  0  0  0  0  0  0  0  0  0
   -0.4469    2.3322    0.8664 C   0  0  0  0  0  0  0  0  0  0  0  0
    0.9542    2.2254    0.7948 C   0  0  0  0  0  0  0  0  0  0  0  0
    1.7986    3.2845    1.1715 C   0  0  0  0  0  0  0  0  0  0  0  0
    3.1638    3.1398    1.1238 C   0  0  0  0  0  0  0  0  0  0  0  0
    3.7392    1.9535    0.6812 C   0  0  0  0  0  0  0  0  0  0  0  0
    2.9498    0.8874    0.2651 C   0  0  0  0  0  0  0  0  0  0  0  0
    3.5096   -0.3550   -0.2077 C   0  0  0  0  0  0  0  0  0  0  0  0
    4.9688   -0.5098   -0.3538 C   0  0  0  0  0  0  0  0  0  0  0  0
    5.6297   -1.5413    0.3061 C   0  0  0  0  0  0  0  0  0  0  0  0
    6.9949   -1.7074    0.1602 C   0  0  0  0  0  0  0  0  0  0  0  0
    7.7161   -0.8511   -0.6546 C   0  0  0  0  0  0  0  0  0  0  0  0
    7.0646    0.1701   -1.3261 C   0  0  0  0  0  0  0  0  0  0  0  0
    5.7007    0.3419   -1.1768 C   0  0  0  0  0  0  0  0  0  0  0  0
    2.6960   -1.3937   -0.5264 C   0  0  0  0  0  0  0  0  0  0  0  0
    1.2747   -1.3035   -0.4455 C   0  0  0  0  0  0  0  0  0  0  0  0
    0.4492   -2.3599   -0.7711 C   0  0  0  0  0  0  0  0  0  0  0  0
   -0.9515   -2.2576   -0.6864 C   0  0  0  0  0  0  0  0  0  0  0  0
   -1.7938   -3.3404   -0.9939 C   0  0  0  0  0  0  0  0  0  0  0  0
   -3.1567   -3.2223   -0.8686 C   0  0  0  0  0  0  0  0  0  0  0  0
   -3.7331   -2.0249   -0.4584 C   0  0  0  0  0  0  0  0  0  0  0  0
   -2.9478   -0.9132   -0.1752 C   0  0  0  0  0  0  0  0  0  0  0  0
   -1.5347   -1.0301   -0.2660 C   0  0  0  0  0  0  0  0  0  0  0  0
   -0.6994    0.0548    0.0719 C   0  0  0  0  0  0  0  0  0  0  0  0
    0.7006   -0.0700   -0.0131 C   0  0  0  0  0  0  0  0  0  0  0  0
    1.5363    1.0093    0.3414 C   0  0  0  0  0  0  0  0  0  0  0  0
   -5.5763    0.9344    1.4888 C   0  0  0  0  0  0  0  0  0  0  0  0
   -6.9439    1.1310    1.5482 C   0  0  0  0  0  0  0  0  0  0  0  0
   -8.7916    1.0923    0.4666 H   0  0  0  0  0  0  0  0  0  0  0  0
   -7.7311    0.4097   -1.6541 H   0  0  0  0  0  0  0  0  0  0  0  0
   -5.2961    0.0623   -1.7617 H   0  0  0  0  0  0  0  0  0  0  0  0
   -3.1240    2.3195    0.9018 H   0  0  0  0  0  0  0  0  0  0  0  0
   -0.8800    3.2617    1.2099 H   0  0  0  0  0  0  0  0  0  0  0  0
    1.3560    4.2098    1.5114 H   0  0  0  0  0  0  0  0  0  0  0  0
    3.8040    3.9531    1.4342 H   0  0  0  0  0  0  0  0  0  0  0  0
    4.8146    1.8594    0.6691 H   0  0  0  0  0  0  0  0  0  0  0  0
    5.0664   -2.2045    0.9469 H   0  0  0  0  0  0  0  0  0  0  0  0
    7.4979   -2.5073    0.6840 H   0  0  0  0  0  0  0  0  0  0  0  0
    8.7823   -0.9808   -0.7685 H   0  0  0  0  0  0  0  0  0  0  0  0
    7.6219    0.8353   -1.9698 H   0  0  0  0  0  0  0  0  0  0  0  0
    5.1911    1.1302   -1.7126 H   0  0  0  0  0  0  0  0  0  0  0  0
    3.1242   -2.3224   -0.8786 H   0  0  0  0  0  0  0  0  0  0  0  0
    0.8828   -3.2964   -1.0942 H   0  0  0  0  0  0  0  0  0  0  0  0
   -1.3508   -4.2712   -1.3179 H   0  0  0  0  0  0  0  0  0  0  0  0
   -3.7941   -4.0668   -1.0883 H   0  0  0  0  0  0  0  0  0  0  0  0
   -4.8056   -1.9634   -0.3517 H   0  0  0  0  0  0  0  0  0  0  0  0
   -4.9673    1.0773    2.3700 H   0  0  0  0  0  0  0  0  0  0  0  0
   -7.4032    1.4351    2.4777 H   0  0  0  0  0  0  0  0  0  0  0  0
  1  2  2  0  0  0  0
  2  3  1  0  0  0  0
  3  4  2  0  0  0  0
  4  5  1  0  0  0  0
  5  6  2  0  0  0  0
  6  7  1  0  0  0  0
  7  8  2  0  0  0  0
  8  9  1  0  0  0  0
  9 10  2  0  0  0  0
 10 11  1  0  0  0  0
 11 12  2  0  0  0  0
 12 13  1  0  0  0  0
 13 14  2  0  0  0  0
 14 15  1  0  0  0  0
 15 16  2  0  0  0  0
 16 17  1  0  0  0  0
 17 18  2  0  0  0  0
 18 19  1  0  0  0  0
 19 20  2  0  0  0  0
 14 21  1  0  0  0  0
 21 22  2  0  0  0  0
 22 23  1  0  0  0  0
 23 24  2  0  0  0  0
 24 25  1  0  0  0  0
 25 26  2  0  0  0  0
 26 27  1  0  0  0  0
 27 28  2  0  0  0  0
 28 29  1  0  0  0  0
 29 30  2  0  0  0  0
 30 31  1  0  0  0  0
 31 32  2  0  0  0  0
  4 33  1  0  0  0  0
 33 34  2  0  0  0  0
 34  1  1  0  0  0  0
 28  5  1  0  0  0  0
 30  7  1  0  0  0  0
 32  9  1  0  0  0  0
 32 13  1  0  0  0  0
 20 15  1  0  0  0  0
 31 22  1  0  0  0  0
 29 24  1  0  0  0  0
  1 35  1  0  0  0  0
  2 36  1  0  0  0  0
  3 37  1  0  0  0  0
  6 38  1  0  0  0  0
  8 39  1  0  0  0  0
 10 40  1  0  0  0  0
 11 41  1  0  0  0  0
 12 42  1  0  0  0  0
 16 43  1  0  0  0  0
 17 44  1  0  0  0  0
 18 45  1  0  0  0  0
 19 46  1  0  0  0  0
 20 47  1  0  0  0  0
 21 48  1  0  0  0  0
 23 49  1  0  0  0  0
 25 50  1  0  0  0  0
 26 51  1  0  0  0  0
 27 52  1  0  0  0  0
 33 53  1  0  0  0  0
 34 54  1  0  0  0  0
M  END
