
  xtb     03022214503D
 energy: -132.861874439165 gnorm: 0.000568011931 xtb: 6.4.1 (afa7bdf)
 71 76  0     0  0            999 V2000
   -8.1393   -5.7007   -1.3853 F   0  0  0  0  0  0  0  0  0  0  0  0
   -6.9450   -5.0956   -1.2259 C   0  0  0  0  0  0  0  0  0  0  0  0
   -5.8343   -5.8699   -0.9355 C   0  0  0  0  0  0  0  0  0  0  0  0
   -4.6129   -5.2481   -0.7705 C   0  0  0  0  0  0  0  0  0  0  0  0
   -4.5089   -3.8606   -0.8942 C   0  0  0  0  0  0  0  0  0  0  0  0
   -3.2695   -3.2138   -0.7175 C   0  0  0  0  0  0  0  0  0  0  0  0
   -2.2145   -2.6456   -0.5642 C   0  0  0  0  0  0  0  0  0  0  0  0
   -1.0308   -1.8998   -0.3878 C   0  0  0  0  0  0  0  0  0  0  0  0
    0.1359   -2.5226   -0.4768 N   0  0  0  0  0  0  0  0  0  0  0  0
    1.2525   -1.8269   -0.3227 C   0  0  0  0  0  0  0  0  0  0  0  0
    2.4872   -2.4983   -0.4445 C   0  0  0  0  0  0  0  0  0  0  0  0
    3.5747   -3.0117   -0.5594 C   0  0  0  0  0  0  0  0  0  0  0  0
    4.8516   -3.5934   -0.6936 C   0  0  0  0  0  0  0  0  0  0  0  0
    5.9199   -2.8183   -1.1532 C   0  0  0  0  0  0  0  0  0  0  0  0
    7.1776   -3.3728   -1.2789 C   0  0  0  0  0  0  0  0  0  0  0  0
    7.3565   -4.7042   -0.9426 C   0  0  0  0  0  0  0  0  0  0  0  0
    8.5846   -5.2476   -1.0619 F   0  0  0  0  0  0  0  0  0  0  0  0
    6.3140   -5.4948   -0.4893 C   0  0  0  0  0  0  0  0  0  0  0  0
    5.0579   -4.9356   -0.3667 C   0  0  0  0  0  0  0  0  0  0  0  0
    1.2679   -0.4359   -0.0550 C   0  0  0  0  0  0  0  0  0  0  0  0
    2.4803    0.2366    0.1522 C   0  0  0  0  0  0  0  0  0  0  0  0
    3.5327    0.7909    0.3687 C   0  0  0  0  0  0  0  0  0  0  0  0
    4.7609    1.4312    0.6217 C   0  0  0  0  0  0  0  0  0  0  0  0
    4.8173    2.8212    0.7545 C   0  0  0  0  0  0  0  0  0  0  0  0
    6.0219    3.4486    0.9988 C   0  0  0  0  0  0  0  0  0  0  0  0
    7.1662    2.6767    1.1104 C   0  0  0  0  0  0  0  0  0  0  0  0
    8.3447    3.2874    1.3464 F   0  0  0  0  0  0  0  0  0  0  0  0
    7.1374    1.2973    0.9905 C   0  0  0  0  0  0  0  0  0  0  0  0
    5.9300    0.6752    0.7465 C   0  0  0  0  0  0  0  0  0  0  0  0
    0.0354    0.2325    0.0267 C   0  0  0  0  0  0  0  0  0  0  0  0
   -0.0357    1.6152    0.2700 C   0  0  0  0  0  0  0  0  0  0  0  0
   -0.1493    2.8027    0.4609 C   0  0  0  0  0  0  0  0  0  0  0  0
   -0.2906    4.1866    0.6836 C   0  0  0  0  0  0  0  0  0  0  0  0
   -1.4826    4.6844    1.2171 C   0  0  0  0  0  0  0  0  0  0  0  0
   -1.6350    6.0391    1.4323 C   0  0  0  0  0  0  0  0  0  0  0  0
   -0.5897    6.8883    1.1092 C   0  0  0  0  0  0  0  0  0  0  0  0
   -0.7365    8.2118    1.3165 F   0  0  0  0  0  0  0  0  0  0  0  0
    0.6010    6.4210    0.5787 C   0  0  0  0  0  0  0  0  0  0  0  0
    0.7483    5.0651    0.3671 C   0  0  0  0  0  0  0  0  0  0  0  0
   -1.1456   -0.5117   -0.1383 C   0  0  0  0  0  0  0  0  0  0  0  0
   -2.4027    0.1030   -0.0472 C   0  0  0  0  0  0  0  0  0  0  0  0
   -3.4840    0.6346    0.0480 C   0  0  0  0  0  0  0  0  0  0  0  0
   -4.7413    1.2593    0.1626 C   0  0  0  0  0  0  0  0  0  0  0  0
   -4.8697    2.6258   -0.1013 C   0  0  0  0  0  0  0  0  0  0  0  0
   -6.0984    3.2436    0.0151 C   0  0  0  0  0  0  0  0  0  0  0  0
   -7.1933    2.4861    0.3964 C   0  0  0  0  0  0  0  0  0  0  0  0
   -8.3944    3.0874    0.5118 F   0  0  0  0  0  0  0  0  0  0  0  0
   -7.0933    1.1311    0.6639 C   0  0  0  0  0  0  0  0  0  0  0  0
   -5.8623    0.5180    0.5461 C   0  0  0  0  0  0  0  0  0  0  0  0
   -5.6450   -3.1024   -1.1918 C   0  0  0  0  0  0  0  0  0  0  0  0
   -6.8683   -3.7192   -1.3584 C   0  0  0  0  0  0  0  0  0  0  0  0
   -5.9374   -6.9396   -0.8434 H   0  0  0  0  0  0  0  0  0  0  0  0
   -3.7314   -5.8281   -0.5437 H   0  0  0  0  0  0  0  0  0  0  0  0
    5.7502   -1.7851   -1.4183 H   0  0  0  0  0  0  0  0  0  0  0  0
    8.0153   -2.7926   -1.6329 H   0  0  0  0  0  0  0  0  0  0  0  0
    6.4957   -6.5285   -0.2409 H   0  0  0  0  0  0  0  0  0  0  0  0
    4.2278   -5.5293   -0.0155 H   0  0  0  0  0  0  0  0  0  0  0  0
    3.9092    3.3986    0.6685 H   0  0  0  0  0  0  0  0  0  0  0  0
    6.0872    4.5200    1.1048 H   0  0  0  0  0  0  0  0  0  0  0  0
    8.0506    0.7321    1.0904 H   0  0  0  0  0  0  0  0  0  0  0  0
    5.8784   -0.3997    0.6583 H   0  0  0  0  0  0  0  0  0  0  0  0
   -2.2794    3.9987    1.4648 H   0  0  0  0  0  0  0  0  0  0  0  0
   -2.5458    6.4438    1.8445 H   0  0  0  0  0  0  0  0  0  0  0  0
    1.3895    7.1170    0.3394 H   0  0  0  0  0  0  0  0  0  0  0  0
    1.6634    4.6750   -0.0526 H   0  0  0  0  0  0  0  0  0  0  0  0
   -4.0006    3.1912   -0.4034 H   0  0  0  0  0  0  0  0  0  0  0  0
   -6.2192    4.2964   -0.1852 H   0  0  0  0  0  0  0  0  0  0  0  0
   -7.9705    0.5781    0.9606 H   0  0  0  0  0  0  0  0  0  0  0  0
   -5.7552   -0.5354    0.7583 H   0  0  0  0  0  0  0  0  0  0  0  0
   -5.5544   -2.0315   -1.2976 H   0  0  0  0  0  0  0  0  0  0  0  0
   -7.7568   -3.1529   -1.5892 H   0  0  0  0  0  0  0  0  0  0  0  0
  1  2  1  0  0  0  0
  2  3  2  0  0  0  0
  3  4  1  0  0  0  0
  4  5  2  0  0  0  0
  5  6  1  0  0  0  0
  6  7  3  0  0  0  0
  7  8  1  0  0  0  0
  8  9  2  0  0  0  0
  9 10  1  0  0  0  0
 10 11  1  0  0  0  0
 11 12  3  0  0  0  0
 12 13  1  0  0  0  0
 13 14  2  0  0  0  0
 14 15  1  0  0  0  0
 15 16  2  0  0  0  0
 16 17  1  0  0  0  0
 16 18  1  0  0  0  0
 18 19  2  0  0  0  0
 10 20  2  0  0  0  0
 20 21  1  0  0  0  0
 21 22  3  0  0  0  0
 22 23  1  0  0  0  0
 23 24  2  0  0  0  0
 24 25  1  0  0  0  0
 25 26  2  0  0  0  0
 26 27  1  0  0  0  0
 26 28  1  0  0  0  0
 28 29  2  0  0  0  0
 20 30  1  0  0  0  0
 30 31  1  0  0  0  0
 31 32  3  0  0  0  0
 32 33  1  0  0  0  0
 33 34  2  0  0  0  0
 34 35  1  0  0  0  0
 35 36  2  0  0  0  0
 36 37  1  0  0  0  0
 36 38  1  0  0  0  0
 38 39  2  0  0  0  0
 30 40  2  0  0  0  0
 40 41  1  0  0  0  0
 41 42  3  0  0  0  0
 42 43  1  0  0  0  0
 43 44  2  0  0  0  0
 44 45  1  0  0  0  0
 45 46  2  0  0  0  0
 46 47  1  0  0  0  0
 46 48  1  0  0  0  0
 48 49  2  0  0  0  0
  5 50  1  0  0  0  0
 50 51  2  0  0  0  0
 51  2  1  0  0  0  0
 40  8  1  0  0  0  0
 49 43  1  0  0  0  0
 19 13  1  0  0  0  0
 29 23  1  0  0  0  0
 39 33  1  0  0  0  0
  3 52  1  0  0  0  0
  4 53  1  0  0  0  0
 14 54  1  0  0  0  0
 15 55  1  0  0  0  0
 18 56  1  0  0  0  0
 19 57  1  0  0  0  0
 24 58  1  0  0  0  0
 25 59  1  0  0  0  0
 28 60  1  0  0  0  0
 29 61  1  0  0  0  0
 34 62  1  0  0  0  0
 35 63  1  0  0  0  0
 38 64  1  0  0  0  0
 39 65  1  0  0  0  0
 44 66  1  0  0  0  0
 45 67  1  0  0  0  0
 48 68  1  0  0  0  0
 49 69  1  0  0  0  0
 50 70  1  0  0  0  0
 51 71  1  0  0  0  0
M  END
