
  xtb     03022212153D
 energy: -59.164998832736 gnorm: 0.000234945633 xtb: 6.4.1 (afa7bdf)
 38 41  0     0  0            999 V2000
   -5.4682    0.2512    1.3497 O   0  0  0  0  0  0  0  0  0  0  0  0
   -5.3572    0.1770    0.1553 C   0  0  0  0  0  0  0  0  0  0  0  0
   -6.1020   -0.6580   -0.5814 O   0  0  0  0  0  0  0  0  0  0  0  0
   -4.3803    0.9478   -0.6931 C   0  0  0  0  0  0  0  0  0  0  0  0
   -2.9847    0.3123   -0.5970 C   0  0  0  0  0  0  0  0  0  0  0  0
   -2.3461    0.5308    0.7797 C   0  0  0  0  0  0  0  0  0  0  0  0
   -1.0337   -0.1951    0.8787 C   0  0  0  0  0  0  0  0  0  0  0  0
   -1.0091   -1.4407    1.4928 C   0  0  0  0  0  0  0  0  0  0  0  0
    0.1510   -2.1806    1.5938 C   0  0  0  0  0  0  0  0  0  0  0  0
    1.3486   -1.6943    1.0711 C   0  0  0  0  0  0  0  0  0  0  0  0
    2.5647   -2.4328    1.1581 C   0  0  0  0  0  0  0  0  0  0  0  0
    3.7183   -1.9495    0.6442 C   0  0  0  0  0  0  0  0  0  0  0  0
    3.7586   -0.6812   -0.0056 C   0  0  0  0  0  0  0  0  0  0  0  0
    4.9374   -0.1643   -0.5452 C   0  0  0  0  0  0  0  0  0  0  0  0
    4.9488    1.0690   -1.1703 C   0  0  0  0  0  0  0  0  0  0  0  0
    3.7889    1.8141   -1.2727 C   0  0  0  0  0  0  0  0  0  0  0  0
    2.5879    1.3357   -0.7472 C   0  0  0  0  0  0  0  0  0  0  0  0
    1.3741    2.0761   -0.8280 C   0  0  0  0  0  0  0  0  0  0  0  0
    0.2187    1.5974   -0.3123 C   0  0  0  0  0  0  0  0  0  0  0  0
    0.1536    0.3268    0.3373 C   0  0  0  0  0  0  0  0  0  0  0  0
    1.3527   -0.4282    0.4351 C   0  0  0  0  0  0  0  0  0  0  0  0
    2.5632    0.0743   -0.1044 C   0  0  0  0  0  0  0  0  0  0  0  0
   -6.7049   -1.1669   -0.0162 H   0  0  0  0  0  0  0  0  0  0  0  0
   -4.7273    0.9267   -1.7258 H   0  0  0  0  0  0  0  0  0  0  0  0
   -4.3374    1.9774   -0.3359 H   0  0  0  0  0  0  0  0  0  0  0  0
   -3.0597   -0.7592   -0.7966 H   0  0  0  0  0  0  0  0  0  0  0  0
   -2.3480    0.7465   -1.3700 H   0  0  0  0  0  0  0  0  0  0  0  0
   -2.2136    1.5998    0.9540 H   0  0  0  0  0  0  0  0  0  0  0  0
   -3.0247    0.1568    1.5477 H   0  0  0  0  0  0  0  0  0  0  0  0
   -1.9267   -1.8352    1.9065 H   0  0  0  0  0  0  0  0  0  0  0  0
    0.1388   -3.1450    2.0814 H   0  0  0  0  0  0  0  0  0  0  0  0
    2.5385   -3.3952    1.6500 H   0  0  0  0  0  0  0  0  0  0  0  0
    4.6367   -2.5153    0.7149 H   0  0  0  0  0  0  0  0  0  0  0  0
    5.8478   -0.7418   -0.4691 H   0  0  0  0  0  0  0  0  0  0  0  0
    5.8713    1.4530   -1.5818 H   0  0  0  0  0  0  0  0  0  0  0  0
    3.8032    2.7776   -1.7620 H   0  0  0  0  0  0  0  0  0  0  0  0
    1.3988    3.0412   -1.3149 H   0  0  0  0  0  0  0  0  0  0  0  0
   -0.6781    2.1921   -0.3895 H   0  0  0  0  0  0  0  0  0  0  0  0
  1  2  2  0  0  0  0
  2  3  1  0  0  0  0
  2  4  1  0  0  0  0
  4  5  1  0  0  0  0
  5  6  1  0  0  0  0
  6  7  1  0  0  0  0
  7  8  2  0  0  0  0
  8  9  1  0  0  0  0
  9 10  2  0  0  0  0
 10 11  1  0  0  0  0
 11 12  2  0  0  0  0
 12 13  1  0  0  0  0
 13 14  2  0  0  0  0
 14 15  1  0  0  0  0
 15 16  2  0  0  0  0
 16 17  1  0  0  0  0
 17 18  2  0  0  0  0
 18 19  1  0  0  0  0
 19 20  2  0  0  0  0
 20 21  1  0  0  0  0
 21 22  2  0  0  0  0
 20  7  1  0  0  0  0
 21 10  1  0  0  0  0
 22 13  1  0  0  0  0
 22 17  1  0  0  0  0
  3 23  1  0  0  0  0
  4 24  1  0  0  0  0
  4 25  1  0  0  0  0
  5 26  1  0  0  0  0
  5 27  1  0  0  0  0
  6 28  1  0  0  0  0
  6 29  1  0  0  0  0
  8 30  1  0  0  0  0
  9 31  1  0  0  0  0
 11 32  1  0  0  0  0
 12 33  1  0  0  0  0
 14 34  1  0  0  0  0
 15 35  1  0  0  0  0
 16 36  1  0  0  0  0
 18 37  1  0  0  0  0
 19 38  1  0  0  0  0
M  END
