
  xtb     03022212403D
 energy: -52.787098119767 gnorm: 0.000231271756 xtb: 6.4.1 (afa7bdf)
 33 35  0     0  0            999 V2000
    4.9484   -0.7222   -0.3102 C   0  0  0  0  0  0  0  0  0  0  0  0
    4.1178    0.3217    0.1344 O   0  0  0  0  0  0  0  0  0  0  0  0
    2.7682    0.1567    0.0519 C   0  0  0  0  0  0  0  0  0  0  0  0
    2.0301    1.2682    0.5130 C   0  0  0  0  0  0  0  0  0  0  0  0
    0.6550    1.2821    0.5021 C   0  0  0  0  0  0  0  0  0  0  0  0
   -0.1242    2.3095    0.9276 O   0  0  0  0  0  0  0  0  0  0  0  0
    0.5078    3.4669    1.4189 C   0  0  0  0  0  0  0  0  0  0  0  0
   -0.0153    0.1402    0.0101 C   0  0  0  0  0  0  0  0  0  0  0  0
   -1.3776   -0.2038   -0.1489 C   0  0  0  0  0  0  0  0  0  0  0  0
   -1.4052   -1.4772   -0.6855 C   0  0  0  0  0  0  0  0  0  0  0  0
   -0.1135   -1.9282   -0.8549 N   0  0  0  0  0  0  0  0  0  0  0  0
    0.7473   -0.9667   -0.4441 C   0  0  0  0  0  0  0  0  0  0  0  0
    2.1418   -0.9740   -0.4304 C   0  0  0  0  0  0  0  0  0  0  0  0
   -2.5920   -2.2197   -1.0289 C   0  0  0  0  0  0  0  0  0  0  0  0
   -2.5814   -3.3462   -1.4941 O   0  0  0  0  0  0  0  0  0  0  0  0
   -3.8692   -1.4310   -0.7897 C   0  0  0  0  0  0  0  0  0  0  0  0
   -3.7560   -0.4592    0.3844 C   0  0  0  0  0  0  0  0  0  0  0  0
   -2.6229    0.5455    0.1659 C   0  0  0  0  0  0  0  0  0  0  0  0
    4.7917   -1.6358    0.2723 H   0  0  0  0  0  0  0  0  0  0  0  0
    4.7894   -0.9369   -1.3719 H   0  0  0  0  0  0  0  0  0  0  0  0
    5.9687   -0.3719   -0.1626 H   0  0  0  0  0  0  0  0  0  0  0  0
    2.6078    2.1030    0.8727 H   0  0  0  0  0  0  0  0  0  0  0  0
    1.1353    3.9352    0.6543 H   0  0  0  0  0  0  0  0  0  0  0  0
   -0.2959    4.1483    1.6941 H   0  0  0  0  0  0  0  0  0  0  0  0
    1.1161    3.2468    2.3017 H   0  0  0  0  0  0  0  0  0  0  0  0
    0.1163   -2.8326   -1.2310 H   0  0  0  0  0  0  0  0  0  0  0  0
    2.6826   -1.8352   -0.7855 H   0  0  0  0  0  0  0  0  0  0  0  0
   -4.6911   -2.1332   -0.6408 H   0  0  0  0  0  0  0  0  0  0  0  0
   -4.0727   -0.8731   -1.7096 H   0  0  0  0  0  0  0  0  0  0  0  0
   -4.7034    0.0681    0.5126 H   0  0  0  0  0  0  0  0  0  0  0  0
   -3.5594   -1.0255    1.2979 H   0  0  0  0  0  0  0  0  0  0  0  0
   -2.8692    1.2074   -0.6712 H   0  0  0  0  0  0  0  0  0  0  0  0
   -2.4754    1.1725    1.0456 H   0  0  0  0  0  0  0  0  0  0  0  0
  1  2  1  0  0  0  0
  2  3  1  0  0  0  0
  3  4  2  0  0  0  0
  4  5  1  0  0  0  0
  5  6  1  0  0  0  0
  6  7  1  0  0  0  0
  5  8  2  0  0  0  0
  8  9  1  0  0  0  0
  9 10  2  0  0  0  0
 10 11  1  0  0  0  0
 11 12  1  0  0  0  0
 12 13  2  0  0  0  0
 10 14  1  0  0  0  0
 14 15  2  0  0  0  0
 14 16  1  0  0  0  0
 16 17  1  0  0  0  0
 17 18  1  0  0  0  0
 13  3  1  0  0  0  0
 12  8  1  0  0  0  0
 18  9  1  0  0  0  0
  1 19  1  0  0  0  0
  1 20  1  0  0  0  0
  1 21  1  0  0  0  0
  4 22  1  0  0  0  0
  7 23  1  0  0  0  0
  7 24  1  0  0  0  0
  7 25  1  0  0  0  0
 11 26  1  0  0  0  0
 13 27  1  0  0  0  0
 16 28  1  0  0  0  0
 16 29  1  0  0  0  0
 17 30  1  0  0  0  0
 17 31  1  0  0  0  0
 18 32  1  0  0  0  0
 18 33  1  0  0  0  0
M  END
