
  xtb     03022213143D
 energy: -105.641026351033 gnorm: 0.000143996762 xtb: 6.4.1 (afa7bdf)
 63 71  0     0  0            999 V2000
    0.2627   -1.3108    2.0559 F   0  0  0  0  0  0  0  0  0  0  0  0
    0.1508   -1.1067    0.6838 B   0  0  0  0  0  4  0  0  0  0  0  0
    0.2180   -2.3023    0.0044 F   0  0  0  0  0  0  0  0  0  0  0  0
    1.3091   -0.1768    0.2367 N   0  0  0  0  0  0  0  0  0  0  0  0
    1.1013    1.1444   -0.0889 C   0  0  0  0  0  0  0  0  0  0  0  0
    2.3625    1.7526   -0.3819 C   0  0  0  0  0  0  0  0  0  0  0  0
    2.5768    3.1127   -0.7914 C   0  0  0  0  0  0  0  0  0  0  0  0
    1.7836    3.9153   -1.5686 C   0  0  0  0  0  0  0  0  0  0  0  0
    2.3180    5.2022   -1.7700 C   0  0  0  0  0  0  0  0  0  0  0  0
    3.5119    5.3773   -1.1459 C   0  0  0  0  0  0  0  0  0  0  0  0
    4.0157    3.9670   -0.3070 S   0  0  0  0  0  0  0  0  0  0  0  0
    3.3096    0.7539   -0.2226 C   0  0  0  0  0  0  0  0  0  0  0  0
    2.6320   -0.4236    0.1676 C   0  0  0  0  0  0  0  0  0  0  0  0
    3.3705   -1.6416    0.4215 C   0  0  0  0  0  0  0  0  0  0  0  0
    2.9124   -2.6902    1.2191 C   0  0  0  0  0  0  0  0  0  0  0  0
    3.6952   -3.8092    1.4275 C   0  0  0  0  0  0  0  0  0  0  0  0
    4.9503   -3.8995    0.8509 C   0  0  0  0  0  0  0  0  0  0  0  0
    5.4252   -2.8555    0.0741 C   0  0  0  0  0  0  0  0  0  0  0  0
    4.6587   -1.7245   -0.1443 C   0  0  0  0  0  0  0  0  0  0  0  0
    5.1765   -0.6078   -1.0071 C   0  0  0  0  0  0  0  0  0  0  0  0
    4.7817    0.7553   -0.4372 C   0  0  0  0  0  0  0  0  0  0  0  0
   -0.1676    1.6936   -0.1140 C   0  0  0  0  0  0  0  0  0  0  0  0
   -1.2971    0.9179    0.0737 C   0  0  0  0  0  0  0  0  0  0  0  0
   -2.6772    1.2769   -0.0398 C   0  0  0  0  0  0  0  0  0  0  0  0
   -3.1939    2.5683   -0.3990 C   0  0  0  0  0  0  0  0  0  0  0  0
   -2.6756    3.4950   -1.2650 C   0  0  0  0  0  0  0  0  0  0  0  0
   -3.4623    4.6573   -1.3760 C   0  0  0  0  0  0  0  0  0  0  0  0
   -4.5731    4.6147   -0.5949 C   0  0  0  0  0  0  0  0  0  0  0  0
   -4.6885    3.1454    0.2852 S   0  0  0  0  0  0  0  0  0  0  0  0
   -3.3917    0.1213    0.2317 C   0  0  0  0  0  0  0  0  0  0  0  0
   -4.8535   -0.1543    0.2160 C   0  0  0  0  0  0  0  0  0  0  0  0
   -5.0601   -1.5736   -0.3142 C   0  0  0  0  0  0  0  0  0  0  0  0
   -4.2326   -2.5640    0.4563 C   0  0  0  0  0  0  0  0  0  0  0  0
   -4.7386   -3.8155    0.7597 C   0  0  0  0  0  0  0  0  0  0  0  0
   -3.9779   -4.7435    1.4519 C   0  0  0  0  0  0  0  0  0  0  0  0
   -2.6960   -4.4140    1.8569 C   0  0  0  0  0  0  0  0  0  0  0  0
   -2.1705   -3.1711    1.5611 C   0  0  0  0  0  0  0  0  0  0  0  0
   -2.9185   -2.2358    0.8461 C   0  0  0  0  0  0  0  0  0  0  0  0
   -2.4606   -0.9045    0.5121 C   0  0  0  0  0  0  0  0  0  0  0  0
   -1.2097   -0.4147    0.4069 N   0  0  0  0  0  4  0  0  0  0  0  0
    0.8699    3.5776   -2.0223 H   0  0  0  0  0  0  0  0  0  0  0  0
    1.8347    5.9633   -2.3563 H   0  0  0  0  0  0  0  0  0  0  0  0
    4.1344    6.2495   -1.1288 H   0  0  0  0  0  0  0  0  0  0  0  0
    1.9519   -2.6266    1.6937 H   0  0  0  0  0  0  0  0  0  0  0  0
    3.3241   -4.6126    2.0457 H   0  0  0  0  0  0  0  0  0  0  0  0
    5.5632   -4.7744    1.0109 H   0  0  0  0  0  0  0  0  0  0  0  0
    6.4093   -2.9210   -0.3687 H   0  0  0  0  0  0  0  0  0  0  0  0
    4.7447   -0.7099   -2.0089 H   0  0  0  0  0  0  0  0  0  0  0  0
    6.2609   -0.6805   -1.1025 H   0  0  0  0  0  0  0  0  0  0  0  0
    5.0767    1.5567   -1.1167 H   0  0  0  0  0  0  0  0  0  0  0  0
    5.2943    0.9202    0.5164 H   0  0  0  0  0  0  0  0  0  0  0  0
   -0.2796    2.7491   -0.2956 H   0  0  0  0  0  0  0  0  0  0  0  0
   -1.7844    3.3278   -1.8416 H   0  0  0  0  0  0  0  0  0  0  0  0
   -3.2124    5.4879   -2.0118 H   0  0  0  0  0  0  0  0  0  0  0  0
   -5.3391    5.3557   -0.4830 H   0  0  0  0  0  0  0  0  0  0  0  0
   -5.3809    0.5700   -0.4070 H   0  0  0  0  0  0  0  0  0  0  0  0
   -5.2553   -0.0766    1.2317 H   0  0  0  0  0  0  0  0  0  0  0  0
   -4.7550   -1.6053   -1.3661 H   0  0  0  0  0  0  0  0  0  0  0  0
   -6.1148   -1.8483   -0.2647 H   0  0  0  0  0  0  0  0  0  0  0  0
   -5.7435   -4.0686    0.4515 H   0  0  0  0  0  0  0  0  0  0  0  0
   -4.3899   -5.7155    1.6803 H   0  0  0  0  0  0  0  0  0  0  0  0
   -2.1024   -5.1268    2.4090 H   0  0  0  0  0  0  0  0  0  0  0  0
   -1.1840   -2.9239    1.9040 H   0  0  0  0  0  0  0  0  0  0  0  0
  1  2  1  0  0  0  0
  2  3  1  0  0  0  0
  2  4  1  0  0  0  0
  4  5  1  0  0  0  0
  5  6  2  0  0  0  0
  6  7  1  0  0  0  0
  7  8  2  0  0  0  0
  8  9  1  0  0  0  0
  9 10  2  0  0  0  0
 10 11  1  0  0  0  0
  6 12  1  0  0  0  0
 12 13  2  0  0  0  0
 13 14  1  0  0  0  0
 14 15  2  0  0  0  0
 15 16  1  0  0  0  0
 16 17  2  0  0  0  0
 17 18  1  0  0  0  0
 18 19  2  0  0  0  0
 19 20  1  0  0  0  0
 20 21  1  0  0  0  0
  5 22  1  0  0  0  0
 22 23  2  0  0  0  0
 23 24  1  0  0  0  0
 24 25  1  0  0  0  0
 25 26  2  0  0  0  0
 26 27  1  0  0  0  0
 27 28  2  0  0  0  0
 28 29  1  0  0  0  0
 24 30  2  0  0  0  0
 30 31  1  0  0  0  0
 31 32  1  0  0  0  0
 32 33  1  0  0  0  0
 33 34  2  0  0  0  0
 34 35  1  0  0  0  0
 35 36  2  0  0  0  0
 36 37  1  0  0  0  0
 37 38  2  0  0  0  0
 38 39  1  0  0  0  0
 39 40  2  0  0  0  0
 40  2  1  0  0  0  0
 13  4  1  0  0  0  0
 19 14  1  0  0  0  0
 40 23  1  0  0  0  0
 11  7  1  0  0  0  0
 21 12  1  0  0  0  0
 29 25  1  0  0  0  0
 39 30  1  0  0  0  0
 38 33  1  0  0  0  0
  8 41  1  0  0  0  0
  9 42  1  0  0  0  0
 10 43  1  0  0  0  0
 15 44  1  0  0  0  0
 16 45  1  0  0  0  0
 17 46  1  0  0  0  0
 18 47  1  0  0  0  0
 20 48  1  0  0  0  0
 20 49  1  0  0  0  0
 21 50  1  0  0  0  0
 21 51  1  0  0  0  0
 22 52  1  0  0  0  0
 26 53  1  0  0  0  0
 27 54  1  0  0  0  0
 28 55  1  0  0  0  0
 31 56  1  0  0  0  0
 31 57  1  0  0  0  0
 32 58  1  0  0  0  0
 32 59  1  0  0  0  0
 34 60  1  0  0  0  0
 35 61  1  0  0  0  0
 36 62  1  0  0  0  0
 37 63  1  0  0  0  0
M  CHG  1   2  -1
M  CHG  1  40   1
M  END
