
  xtb     03022212003D
 energy: -28.643940126533 gnorm: 0.000264760239 xtb: 6.4.1 (afa7bdf)
 21 22  0     0  0            999 V2000
   -2.3019    1.3156    0.2217 C   0  0  0  0  0  0  0  0  0  0  0  0
   -1.3957    0.1264    0.1057 C   0  0  0  0  0  0  0  0  0  0  0  0
   -1.9199   -1.1405    0.0905 C   0  0  0  0  0  0  0  0  0  0  0  0
   -1.1012   -2.2737   -0.0164 C   0  0  0  0  0  0  0  0  0  0  0  0
    0.2533   -2.1355   -0.1093 C   0  0  0  0  0  0  0  0  0  0  0  0
    0.8416   -0.8537   -0.0979 C   0  0  0  0  0  0  0  0  0  0  0  0
    2.2393   -0.6894   -0.1927 C   0  0  0  0  0  0  0  0  0  0  0  0
    2.8037    0.5542   -0.1802 C   0  0  0  0  0  0  0  0  0  0  0  0
    1.9893    1.6904   -0.0712 C   0  0  0  0  0  0  0  0  0  0  0  0
    0.6312    1.5645    0.0222 C   0  0  0  0  0  0  0  0  0  0  0  0
    0.0126    0.2955    0.0116 C   0  0  0  0  0  0  0  0  0  0  0  0
   -2.0785    1.8830    1.1248 H   0  0  0  0  0  0  0  0  0  0  0  0
   -2.1810    1.9783   -0.6344 H   0  0  0  0  0  0  0  0  0  0  0  0
   -3.3406    0.9973    0.2651 H   0  0  0  0  0  0  0  0  0  0  0  0
   -2.9900   -1.2764    0.1621 H   0  0  0  0  0  0  0  0  0  0  0  0
   -1.5552   -3.2541   -0.0245 H   0  0  0  0  0  0  0  0  0  0  0  0
    0.8944   -3.0014   -0.1926 H   0  0  0  0  0  0  0  0  0  0  0  0
    2.8571   -1.5727   -0.2757 H   0  0  0  0  0  0  0  0  0  0  0  0
    3.8751    0.6716   -0.2534 H   0  0  0  0  0  0  0  0  0  0  0  0
    2.4450    2.6701   -0.0615 H   0  0  0  0  0  0  0  0  0  0  0  0
    0.0212    2.4506    0.1061 H   0  0  0  0  0  0  0  0  0  0  0  0
  1  2  1  0  0  0  0
  2  3  2  0  0  0  0
  3  4  1  0  0  0  0
  4  5  2  0  0  0  0
  5  6  1  0  0  0  0
  6  7  2  0  0  0  0
  7  8  1  0  0  0  0
  8  9  2  0  0  0  0
  9 10  1  0  0  0  0
 10 11  2  0  0  0  0
 11  2  1  0  0  0  0
 11  6  1  0  0  0  0
  1 12  1  0  0  0  0
  1 13  1  0  0  0  0
  1 14  1  0  0  0  0
  3 15  1  0  0  0  0
  4 16  1  0  0  0  0
  5 17  1  0  0  0  0
  7 18  1  0  0  0  0
  8 19  1  0  0  0  0
  9 20  1  0  0  0  0
 10 21  1  0  0  0  0
M  END
