
  xtb     03022214393D
 energy: -41.320825472712 gnorm: 0.000348756794 xtb: 6.4.1 (afa7bdf)
 20 20  0     0  0            999 V2000
    2.9198   -1.9484    0.6205 O   0  0  0  0  0  0  0  0  0  0  0  0
    2.0428   -1.1278    0.5645 C   0  0  0  0  0  0  0  0  0  0  0  0
    0.7361   -1.3864    0.8231 O   0  0  0  0  0  0  0  0  0  0  0  0
   -0.0500   -0.2176    0.6340 C   0  0  0  0  0  0  0  0  0  0  0  0
   -1.1099   -0.4956   -0.4598 C   0  0  0  0  0  0  0  0  0  0  0  0
   -1.7525   -1.7169   -0.2036 O   0  0  0  0  0  0  0  0  0  0  0  0
   -2.1927    0.5943   -0.4361 C   0  0  0  0  0  0  0  0  0  0  0  0
   -2.8929    0.5704    0.7748 O   0  0  0  0  0  0  0  0  0  0  0  0
    0.9417    0.8453    0.2621 C   0  0  0  0  0  0  0  0  0  0  0  0
    0.5549    2.1067    0.0176 O   0  0  0  0  0  0  0  0  0  0  0  0
    2.1654    0.2884    0.2163 C   0  0  0  0  0  0  0  0  0  0  0  0
    3.3546    0.8715   -0.0920 O   0  0  0  0  0  0  0  0  0  0  0  0
   -0.5803    0.0095    1.5677 H   0  0  0  0  0  0  0  0  0  0  0  0
   -0.6120   -0.5181   -1.4420 H   0  0  0  0  0  0  0  0  0  0  0  0
   -1.0836   -2.3752    0.0246 H   0  0  0  0  0  0  0  0  0  0  0  0
   -1.7378    1.5812   -0.5241 H   0  0  0  0  0  0  0  0  0  0  0  0
   -2.8689    0.4241   -1.2844 H   0  0  0  0  0  0  0  0  0  0  0  0
   -3.2078   -0.3355    0.8995 H   0  0  0  0  0  0  0  0  0  0  0  0
    1.3350    2.6404   -0.1898 H   0  0  0  0  0  0  0  0  0  0  0  0
    4.0380    0.1899   -0.0153 H   0  0  0  0  0  0  0  0  0  0  0  0
  1  2  2  0  0  0  0
  2  3  1  0  0  0  0
  3  4  1  0  0  0  0
  4  5  1  0  0  0  0
  5  6  1  0  0  0  0
  5  7  1  0  0  0  0
  7  8  1  0  0  0  0
  4  9  1  0  0  0  0
  9 10  1  0  0  0  0
  9 11  2  0  0  0  0
 11 12  1  0  0  0  0
 11  2  1  0  0  0  0
  4 13  1  0  0  0  0
  5 14  1  0  0  0  0
  6 15  1  0  0  0  0
  7 16  1  0  0  0  0
  7 17  1  0  0  0  0
  8 18  1  0  0  0  0
 10 19  1  0  0  0  0
 12 20  1  0  0  0  0
M  END
