
  xtb     03022212523D
 energy: -42.241214346216 gnorm: 0.000076775149 xtb: 6.4.1 (afa7bdf)
 28 29  0     0  0            999 V2000
    0.8662   -2.4824    0.2823 O   0  0  0  0  0  0  0  0  0  0  0  0
    1.0607   -1.2821    0.1735 C   0  0  0  0  0  0  0  0  0  0  0  0
   -0.0588   -0.3307    0.1353 C   0  0  0  0  0  0  0  0  0  0  0  0
   -1.3213   -0.7779    0.2208 C   0  0  0  0  0  0  0  0  0  0  0  0
   -2.5381    0.0065    0.2004 C   0  0  0  0  0  0  0  0  0  0  0  0
   -2.5453    1.3996    0.0827 C   0  0  0  0  0  0  0  0  0  0  0  0
   -3.7351    2.0996    0.0684 C   0  0  0  0  0  0  0  0  0  0  0  0
   -4.9437    1.4286    0.1710 C   0  0  0  0  0  0  0  0  0  0  0  0
   -4.9547    0.0480    0.2883 C   0  0  0  0  0  0  0  0  0  0  0  0
   -3.7662   -0.6548    0.3028 C   0  0  0  0  0  0  0  0  0  0  0  0
    2.4519   -0.7539    0.0762 C   0  0  0  0  0  0  0  0  0  0  0  0
    2.7868    0.5931   -0.0508 C   0  0  0  0  0  0  0  0  0  0  0  0
    4.1124    0.9792   -0.1335 C   0  0  0  0  0  0  0  0  0  0  0  0
    5.1242    0.0344   -0.0915 C   0  0  0  0  0  0  0  0  0  0  0  0
    4.8055   -1.3082    0.0344 C   0  0  0  0  0  0  0  0  0  0  0  0
    3.4834   -1.6950    0.1171 C   0  0  0  0  0  0  0  0  0  0  0  0
    0.1587    0.7188    0.0384 H   0  0  0  0  0  0  0  0  0  0  0  0
   -1.4526   -1.8501    0.3164 H   0  0  0  0  0  0  0  0  0  0  0  0
   -1.6142    1.9388    0.0018 H   0  0  0  0  0  0  0  0  0  0  0  0
   -3.7232    3.1759   -0.0232 H   0  0  0  0  0  0  0  0  0  0  0  0
   -5.8720    1.9801    0.1593 H   0  0  0  0  0  0  0  0  0  0  0  0
   -5.8938   -0.4796    0.3684 H   0  0  0  0  0  0  0  0  0  0  0  0
   -3.7780   -1.7314    0.3945 H   0  0  0  0  0  0  0  0  0  0  0  0
    2.0284    1.3592   -0.0872 H   0  0  0  0  0  0  0  0  0  0  0  0
    4.3578    2.0268   -0.2317 H   0  0  0  0  0  0  0  0  0  0  0  0
    6.1568    0.3447   -0.1568 H   0  0  0  0  0  0  0  0  0  0  0  0
    5.5892   -2.0505    0.0679 H   0  0  0  0  0  0  0  0  0  0  0  0
    3.2150   -2.7365    0.2156 H   0  0  0  0  0  0  0  0  0  0  0  0
  1  2  2  0  0  0  0
  2  3  1  0  0  0  0
  3  4  2  0  0  0  0
  4  5  1  0  0  0  0
  5  6  2  0  0  0  0
  6  7  1  0  0  0  0
  7  8  2  0  0  0  0
  8  9  1  0  0  0  0
  9 10  2  0  0  0  0
  2 11  1  0  0  0  0
 11 12  2  0  0  0  0
 12 13  1  0  0  0  0
 13 14  2  0  0  0  0
 14 15  1  0  0  0  0
 15 16  2  0  0  0  0
 10  5  1  0  0  0  0
 16 11  1  0  0  0  0
  3 17  1  0  0  0  0
  4 18  1  0  0  0  0
  6 19  1  0  0  0  0
  7 20  1  0  0  0  0
  8 21  1  0  0  0  0
  9 22  1  0  0  0  0
 10 23  1  0  0  0  0
 12 24  1  0  0  0  0
 13 25  1  0  0  0  0
 14 26  1  0  0  0  0
 15 27  1  0  0  0  0
 16 28  1  0  0  0  0
M  END
