
  xtb     03022214243D
 energy: -87.616817794412 gnorm: 0.000096643224 xtb: 6.4.1 (afa7bdf)
 55 59  0     0  0            999 V2000
   -6.6236   -1.8894    1.3639 C   0  0  0  0  0  0  0  0  0  0  0  0
   -5.4904   -2.0388    0.3560 C   0  0  0  0  0  0  0  0  0  0  0  0
   -4.2068   -1.3859    0.8637 C   0  0  0  0  0  0  0  0  0  0  0  0
   -2.9936   -1.6353   -0.0341 C   0  0  0  0  0  0  0  0  0  0  0  0
   -3.1231   -1.1046   -1.4623 C   0  0  0  0  0  0  0  0  0  0  0  0
   -3.2708    0.4149   -1.5574 C   0  0  0  0  0  0  0  0  0  0  0  0
   -2.1281    1.1139   -0.9776 N   0  0  0  0  0  0  0  0  0  0  0  0
   -2.3115    1.7559    0.2373 C   0  0  0  0  0  0  0  0  0  0  0  0
   -3.4000    1.7768    0.7774 O   0  0  0  0  0  0  0  0  0  0  0  0
   -1.1278    2.4063    0.8228 C   0  0  0  0  0  0  0  0  0  0  0  0
   -1.2228    3.0268    2.0516 C   0  0  0  0  0  0  0  0  0  0  0  0
   -0.1054    3.6522    2.6127 C   0  0  0  0  0  0  0  0  0  0  0  0
    1.0949    3.6626    1.9511 C   0  0  0  0  0  0  0  0  0  0  0  0
    1.2315    3.0398    0.6918 C   0  0  0  0  0  0  0  0  0  0  0  0
    2.4439    3.0257   -0.0180 C   0  0  0  0  0  0  0  0  0  0  0  0
    2.5432    2.3935   -1.2439 C   0  0  0  0  0  0  0  0  0  0  0  0
    3.6960    2.4757   -1.9883 N   0  0  0  0  0  0  0  0  0  0  0  0
    4.6238    1.6249   -2.0583 C   0  0  0  0  0  0  0  0  0  0  0  0
    4.7402    0.3688   -1.3520 C   0  0  0  0  0  0  0  0  0  0  0  0
    5.7509   -0.4134   -1.4974 N   0  0  0  0  0  0  0  0  0  0  0  0
    5.6615   -1.5278   -0.7347 C   0  0  0  0  0  0  0  0  0  0  0  0
    6.6001   -2.5594   -0.6754 C   0  0  0  0  0  0  0  0  0  0  0  0
    6.3584   -3.6267    0.1582 C   0  0  0  0  0  0  0  0  0  0  0  0
    5.1994   -3.6891    0.9353 C   0  0  0  0  0  0  0  0  0  0  0  0
    4.2558   -2.6834    0.8948 C   0  0  0  0  0  0  0  0  0  0  0  0
    4.4891   -1.6030    0.0587 C   0  0  0  0  0  0  0  0  0  0  0  0
    3.5066   -0.2003   -0.2069 S   0  0  0  0  0  0  0  0  0  0  0  0
    1.4049    1.7749   -1.8028 C   0  0  0  0  0  0  0  0  0  0  0  0
    0.2082    1.7735   -1.1270 C   0  0  0  0  0  0  0  0  0  0  0  0
    0.0972    2.4014    0.1297 C   0  0  0  0  0  0  0  0  0  0  0  0
   -0.9597    1.0981   -1.7203 C   0  0  0  0  0  0  0  0  0  0  0  0
   -0.9201    0.5502   -2.8034 O   0  0  0  0  0  0  0  0  0  0  0  0
   -6.3664   -2.3731    2.3040 H   0  0  0  0  0  0  0  0  0  0  0  0
   -7.5382   -2.3404    0.9850 H   0  0  0  0  0  0  0  0  0  0  0  0
   -6.8148   -0.8373    1.5633 H   0  0  0  0  0  0  0  0  0  0  0  0
   -5.7945   -1.5795   -0.5861 H   0  0  0  0  0  0  0  0  0  0  0  0
   -5.3082   -3.1001    0.1674 H   0  0  0  0  0  0  0  0  0  0  0  0
   -4.3652   -0.3137    0.9838 H   0  0  0  0  0  0  0  0  0  0  0  0
   -3.9792   -1.7901    1.8539 H   0  0  0  0  0  0  0  0  0  0  0  0
   -2.8122   -2.7121   -0.0915 H   0  0  0  0  0  0  0  0  0  0  0  0
   -2.1152   -1.1831    0.4361 H   0  0  0  0  0  0  0  0  0  0  0  0
   -2.2370   -1.3983   -2.0285 H   0  0  0  0  0  0  0  0  0  0  0  0
   -3.9886   -1.5548   -1.9490 H   0  0  0  0  0  0  0  0  0  0  0  0
   -4.1593    0.7570   -1.0272 H   0  0  0  0  0  0  0  0  0  0  0  0
   -3.3359    0.7012   -2.6102 H   0  0  0  0  0  0  0  0  0  0  0  0
   -2.1714    3.0196    2.5665 H   0  0  0  0  0  0  0  0  0  0  0  0
   -0.1968    4.1316    3.5758 H   0  0  0  0  0  0  0  0  0  0  0  0
    1.9563    4.1498    2.3844 H   0  0  0  0  0  0  0  0  0  0  0  0
    3.3144    3.5053    0.4049 H   0  0  0  0  0  0  0  0  0  0  0  0
    5.4564    1.8474   -2.7181 H   0  0  0  0  0  0  0  0  0  0  0  0
    7.4893   -2.4969   -1.2815 H   0  0  0  0  0  0  0  0  0  0  0  0
    7.0741   -4.4325    0.2161 H   0  0  0  0  0  0  0  0  0  0  0  0
    5.0386   -4.5401    1.5794 H   0  0  0  0  0  0  0  0  0  0  0  0
    3.3597   -2.7301    1.4935 H   0  0  0  0  0  0  0  0  0  0  0  0
    1.4721    1.2913   -2.7659 H   0  0  0  0  0  0  0  0  0  0  0  0
  1  2  1  0  0  0  0
  2  3  1  0  0  0  0
  3  4  1  0  0  0  0
  4  5  1  0  0  0  0
  5  6  1  0  0  0  0
  6  7  1  0  0  0  0
  7  8  1  0  0  0  0
  8  9  2  0  0  0  0
  8 10  1  0  0  0  0
 10 11  1  0  0  0  0
 11 12  2  0  0  0  0
 12 13  1  0  0  0  0
 13 14  2  0  0  0  0
 14 15  1  0  0  0  0
 15 16  2  0  0  0  0
 16 17  1  0  0  0  0
 17 18  2  0  0  0  0
 18 19  1  0  0  0  0
 19 20  2  0  0  0  0
 20 21  1  0  0  0  0
 21 22  2  0  0  0  0
 22 23  1  0  0  0  0
 23 24  2  0  0  0  0
 24 25  1  0  0  0  0
 25 26  2  0  0  0  0
 26 27  1  0  0  0  0
 16 28  1  0  0  0  0
 28 29  2  0  0  0  0
 29 30  1  0  0  0  0
 29 31  1  0  0  0  0
 31 32  2  0  0  0  0
 31  7  1  0  0  0  0
 30 10  2  0  0  0  0
 30 14  1  0  0  0  0
 27 19  1  0  0  0  0
 26 21  1  0  0  0  0
  1 33  1  0  0  0  0
  1 34  1  0  0  0  0
  1 35  1  0  0  0  0
  2 36  1  0  0  0  0
  2 37  1  0  0  0  0
  3 38  1  0  0  0  0
  3 39  1  0  0  0  0
  4 40  1  0  0  0  0
  4 41  1  0  0  0  0
  5 42  1  0  0  0  0
  5 43  1  0  0  0  0
  6 44  1  0  0  0  0
  6 45  1  0  0  0  0
 11 46  1  0  0  0  0
 12 47  1  0  0  0  0
 13 48  1  0  0  0  0
 15 49  1  0  0  0  0
 18 50  1  0  0  0  0
 22 51  1  0  0  0  0
 23 52  1  0  0  0  0
 24 53  1  0  0  0  0
 25 54  1  0  0  0  0
 28 55  1  0  0  0  0
M  END
