
  xtb     03022214323D
 energy: -69.793390157331 gnorm: 0.000414421796 xtb: 6.4.1 (afa7bdf)
 46 49  0     0  0            999 V2000
    7.3402    0.3750    0.2188 C   0  0  0  0  0  0  0  0  0  0  0  0
    6.2965    1.3671    0.1456 N   0  0  0  0  0  0  0  0  0  0  0  0
    6.6721    2.7589    0.1544 C   0  0  0  0  0  0  0  0  0  0  0  0
    4.9816    0.9963    0.1148 C   0  0  0  0  0  0  0  0  0  0  0  0
    3.9511    1.9432    0.2515 C   0  0  0  0  0  0  0  0  0  0  0  0
    2.6296    1.5685    0.2147 C   0  0  0  0  0  0  0  0  0  0  0  0
    2.2670    0.2293    0.0381 C   0  0  0  0  0  0  0  0  0  0  0  0
    0.9156   -0.1452   -0.0006 C   0  0  0  0  0  0  0  0  0  0  0  0
   -0.2525   -0.4629   -0.0326 C   0  0  0  0  0  0  0  0  0  0  0  0
   -1.6080   -0.8365   -0.0689 C   0  0  0  0  0  0  0  0  0  0  0  0
   -2.5138    0.0896    0.1678 N   0  0  0  0  0  0  0  0  0  0  0  0
   -3.8109   -0.2648    0.1359 C   0  0  0  0  0  0  0  0  0  0  0  0
   -4.7839    0.7963    0.4131 C   0  0  0  0  0  0  0  0  0  0  0  0
   -4.3518    2.0902    0.6968 C   0  0  0  0  0  0  0  0  0  0  0  0
   -5.2728    3.0858    0.9608 C   0  0  0  0  0  0  0  0  0  0  0  0
   -6.6292    2.8022    0.9445 C   0  0  0  0  0  0  0  0  0  0  0  0
   -7.0645    1.5166    0.6623 C   0  0  0  0  0  0  0  0  0  0  0  0
   -6.1490    0.5169    0.3977 C   0  0  0  0  0  0  0  0  0  0  0  0
   -4.2689   -1.4707   -0.1186 N   0  0  0  0  0  0  0  0  0  0  0  0
   -3.3728   -2.4443   -0.3681 C   0  0  0  0  0  0  0  0  0  0  0  0
   -3.8231   -3.7514   -0.6468 C   0  0  0  0  0  0  0  0  0  0  0  0
   -2.9180   -4.7448   -0.8999 C   0  0  0  0  0  0  0  0  0  0  0  0
   -1.5385   -4.4849   -0.8873 C   0  0  0  0  0  0  0  0  0  0  0  0
   -1.0711   -3.2257   -0.6201 C   0  0  0  0  0  0  0  0  0  0  0  0
   -1.9772   -2.1873   -0.3568 C   0  0  0  0  0  0  0  0  0  0  0  0
    3.2846   -0.7199   -0.0978 C   0  0  0  0  0  0  0  0  0  0  0  0
    4.6073   -0.3478   -0.0591 C   0  0  0  0  0  0  0  0  0  0  0  0
    7.4660   -0.1513   -0.7341 H   0  0  0  0  0  0  0  0  0  0  0  0
    7.1226   -0.3601    0.9975 H   0  0  0  0  0  0  0  0  0  0  0  0
    8.2820    0.8581    0.4684 H   0  0  0  0  0  0  0  0  0  0  0  0
    6.4787    3.2281    1.1265 H   0  0  0  0  0  0  0  0  0  0  0  0
    7.7343    2.8476   -0.0638 H   0  0  0  0  0  0  0  0  0  0  0  0
    6.1248    3.3092   -0.6145 H   0  0  0  0  0  0  0  0  0  0  0  0
    4.1857    2.9840    0.4030 H   0  0  0  0  0  0  0  0  0  0  0  0
    1.8544    2.3123    0.3262 H   0  0  0  0  0  0  0  0  0  0  0  0
   -3.2922    2.2931    0.7056 H   0  0  0  0  0  0  0  0  0  0  0  0
   -4.9345    4.0882    1.1809 H   0  0  0  0  0  0  0  0  0  0  0  0
   -7.3473    3.5826    1.1518 H   0  0  0  0  0  0  0  0  0  0  0  0
   -8.1223    1.2966    0.6498 H   0  0  0  0  0  0  0  0  0  0  0  0
   -6.4683   -0.4895    0.1764 H   0  0  0  0  0  0  0  0  0  0  0  0
   -4.8863   -3.9333   -0.6524 H   0  0  0  0  0  0  0  0  0  0  0  0
   -3.2613   -5.7469   -1.1138 H   0  0  0  0  0  0  0  0  0  0  0  0
   -0.8469   -5.2893   -1.0911 H   0  0  0  0  0  0  0  0  0  0  0  0
   -0.0122   -3.0092   -0.6075 H   0  0  0  0  0  0  0  0  0  0  0  0
    3.0245   -1.7595   -0.2373 H   0  0  0  0  0  0  0  0  0  0  0  0
    5.3595   -1.1101   -0.1797 H   0  0  0  0  0  0  0  0  0  0  0  0
  1  2  1  0  0  0  0
  2  3  1  0  0  0  0
  2  4  1  0  0  0  0
  4  5  2  0  0  0  0
  5  6  1  0  0  0  0
  6  7  2  0  0  0  0
  7  8  1  0  0  0  0
  8  9  3  0  0  0  0
  9 10  1  0  0  0  0
 10 11  2  0  0  0  0
 11 12  1  0  0  0  0
 12 13  1  0  0  0  0
 13 14  2  0  0  0  0
 14 15  1  0  0  0  0
 15 16  2  0  0  0  0
 16 17  1  0  0  0  0
 17 18  2  0  0  0  0
 12 19  2  0  0  0  0
 19 20  1  0  0  0  0
 20 21  2  0  0  0  0
 21 22  1  0  0  0  0
 22 23  2  0  0  0  0
 23 24  1  0  0  0  0
 24 25  2  0  0  0  0
  7 26  1  0  0  0  0
 26 27  2  0  0  0  0
 27  4  1  0  0  0  0
 25 10  1  0  0  0  0
 18 13  1  0  0  0  0
 25 20  1  0  0  0  0
  1 28  1  0  0  0  0
  1 29  1  0  0  0  0
  1 30  1  0  0  0  0
  3 31  1  0  0  0  0
  3 32  1  0  0  0  0
  3 33  1  0  0  0  0
  5 34  1  0  0  0  0
  6 35  1  0  0  0  0
 14 36  1  0  0  0  0
 15 37  1  0  0  0  0
 16 38  1  0  0  0  0
 17 39  1  0  0  0  0
 18 40  1  0  0  0  0
 21 41  1  0  0  0  0
 22 42  1  0  0  0  0
 23 43  1  0  0  0  0
 24 44  1  0  0  0  0
 26 45  1  0  0  0  0
 27 46  1  0  0  0  0
M  END
