
  xtb     03022213343D
 energy: -95.509289623549 gnorm: 0.000194565299 xtb: 6.4.1 (afa7bdf)
 61 68  0     0  0            999 V2000
    8.0233    0.5441    1.5618 C   0  0  0  0  0  0  0  0  0  0  0  0
    7.1823    1.6306    1.3872 C   0  0  0  0  0  0  0  0  0  0  0  0
    5.9761    1.4803    0.7287 C   0  0  0  0  0  0  0  0  0  0  0  0
    5.5988    0.2301    0.2473 C   0  0  0  0  0  0  0  0  0  0  0  0
    4.3732    0.0723   -0.4159 N   0  0  0  0  0  0  0  0  0  0  0  0
    4.1893   -0.5299   -1.6457 C   0  0  0  0  0  0  0  0  0  0  0  0
    5.1269   -1.0668   -2.5160 C   0  0  0  0  0  0  0  0  0  0  0  0
    4.6716   -1.5913   -3.7105 C   0  0  0  0  0  0  0  0  0  0  0  0
    3.3186   -1.5784   -4.0428 C   0  0  0  0  0  0  0  0  0  0  0  0
    2.3839   -1.0244   -3.1914 C   0  0  0  0  0  0  0  0  0  0  0  0
    2.8175   -0.4907   -1.9851 C   0  0  0  0  0  0  0  0  0  0  0  0
    2.1471    0.1639   -0.8964 C   0  0  0  0  0  0  0  0  0  0  0  0
    0.8200    0.4758   -0.6475 C   0  0  0  0  0  0  0  0  0  0  0  0
    0.4846    1.1159    0.5388 C   0  0  0  0  0  0  0  0  0  0  0  0
   -0.9131    1.4698    0.8262 C   0  0  0  0  0  0  0  0  0  0  0  0
   -1.2331    2.6834    1.4326 C   0  0  0  0  0  0  0  0  0  0  0  0
   -2.5495    3.0100    1.7004 C   0  0  0  0  0  0  0  0  0  0  0  0
   -3.5707    2.1348    1.3787 C   0  0  0  0  0  0  0  0  0  0  0  0
   -3.2658    0.9240    0.7644 C   0  0  0  0  0  0  0  0  0  0  0  0
   -4.2903    0.0222    0.4343 N   0  0  0  0  0  0  0  0  0  0  0  0
   -5.4550    0.3263   -0.2458 C   0  0  0  0  0  0  0  0  0  0  0  0
   -5.8576    1.5279   -0.8120 C   0  0  0  0  0  0  0  0  0  0  0  0
   -7.0739    1.5562   -1.4662 C   0  0  0  0  0  0  0  0  0  0  0  0
   -7.8755    0.4200   -1.5688 C   0  0  0  0  0  0  0  0  0  0  0  0
   -7.4712   -0.7842   -1.0307 C   0  0  0  0  0  0  0  0  0  0  0  0
   -6.2513   -0.8357   -0.3681 C   0  0  0  0  0  0  0  0  0  0  0  0
   -5.5240   -1.8918    0.2754 C   0  0  0  0  0  0  0  0  0  0  0  0
   -5.8456   -3.1661    0.4422 N   0  0  0  0  0  0  0  0  0  0  0  0
   -4.9763   -3.9107    1.0979 C   0  0  0  0  0  0  0  0  0  0  0  0
   -3.7764   -3.4355    1.6271 C   0  0  0  0  0  0  0  0  0  0  0  0
   -3.4250   -2.1061    1.4642 C   0  0  0  0  0  0  0  0  0  0  0  0
   -4.3155   -1.3157    0.7535 C   0  0  0  0  0  0  0  0  0  0  0  0
   -1.9442    0.5992    0.4878 C   0  0  0  0  0  0  0  0  0  0  0  0
    1.4871    1.4155    1.4721 C   0  0  0  0  0  0  0  0  0  0  0  0
    2.8129    1.1089    1.2477 C   0  0  0  0  0  0  0  0  0  0  0  0
    3.1464    0.4972    0.0472 C   0  0  0  0  0  0  0  0  0  0  0  0
    6.4422   -0.8620    0.4281 C   0  0  0  0  0  0  0  0  0  0  0  0
    7.6512   -0.6995    1.0788 C   0  0  0  0  0  0  0  0  0  0  0  0
    8.9663    0.6662    2.0727 H   0  0  0  0  0  0  0  0  0  0  0  0
    7.4705    2.6029    1.7587 H   0  0  0  0  0  0  0  0  0  0  0  0
    5.3274    2.3290    0.5709 H   0  0  0  0  0  0  0  0  0  0  0  0
    6.1794   -1.0656   -2.2757 H   0  0  0  0  0  0  0  0  0  0  0  0
    5.3814   -2.0176   -4.4038 H   0  0  0  0  0  0  0  0  0  0  0  0
    3.0027   -2.0010   -4.9848 H   0  0  0  0  0  0  0  0  0  0  0  0
    1.3374   -1.0004   -3.4554 H   0  0  0  0  0  0  0  0  0  0  0  0
    0.0618    0.2416   -1.3794 H   0  0  0  0  0  0  0  0  0  0  0  0
   -0.4463    3.3810    1.6770 H   0  0  0  0  0  0  0  0  0  0  0  0
   -2.7841    3.9534    2.1711 H   0  0  0  0  0  0  0  0  0  0  0  0
   -4.5969    2.3747    1.6115 H   0  0  0  0  0  0  0  0  0  0  0  0
   -5.2371    2.4095   -0.7550 H   0  0  0  0  0  0  0  0  0  0  0  0
   -7.4098    2.4809   -1.9122 H   0  0  0  0  0  0  0  0  0  0  0  0
   -8.8207    0.4878   -2.0864 H   0  0  0  0  0  0  0  0  0  0  0  0
   -8.0727   -1.6752   -1.1164 H   0  0  0  0  0  0  0  0  0  0  0  0
   -5.2541   -4.9493    1.2185 H   0  0  0  0  0  0  0  0  0  0  0  0
   -3.1261   -4.1061    2.1674 H   0  0  0  0  0  0  0  0  0  0  0  0
   -2.5097   -1.7093    1.8796 H   0  0  0  0  0  0  0  0  0  0  0  0
   -1.7196   -0.3430    0.0103 H   0  0  0  0  0  0  0  0  0  0  0  0
    1.2069    1.8775    2.4072 H   0  0  0  0  0  0  0  0  0  0  0  0
    3.5636    1.3279    1.9920 H   0  0  0  0  0  0  0  0  0  0  0  0
    6.1382   -1.8341    0.0695 H   0  0  0  0  0  0  0  0  0  0  0  0
    8.3021   -1.5501    1.2163 H   0  0  0  0  0  0  0  0  0  0  0  0
  1  2  2  0  0  0  0
  2  3  1  0  0  0  0
  3  4  2  0  0  0  0
  4  5  1  0  0  0  0
  5  6  1  0  0  0  0
  6  7  2  0  0  0  0
  7  8  1  0  0  0  0
  8  9  2  0  0  0  0
  9 10  1  0  0  0  0
 10 11  2  0  0  0  0
 11 12  1  0  0  0  0
 12 13  2  0  0  0  0
 13 14  1  0  0  0  0
 14 15  1  0  0  0  0
 15 16  2  0  0  0  0
 16 17  1  0  0  0  0
 17 18  2  0  0  0  0
 18 19  1  0  0  0  0
 19 20  1  0  0  0  0
 20 21  1  0  0  0  0
 21 22  2  0  0  0  0
 22 23  1  0  0  0  0
 23 24  2  0  0  0  0
 24 25  1  0  0  0  0
 25 26  2  0  0  0  0
 26 27  1  0  0  0  0
 27 28  2  0  0  0  0
 28 29  1  0  0  0  0
 29 30  2  0  0  0  0
 30 31  1  0  0  0  0
 31 32  2  0  0  0  0
 19 33  2  0  0  0  0
 14 34  2  0  0  0  0
 34 35  1  0  0  0  0
 35 36  2  0  0  0  0
  4 37  1  0  0  0  0
 37 38  2  0  0  0  0
 38  1  1  0  0  0  0
 36  5  1  0  0  0  0
 11  6  1  0  0  0  0
 36 12  1  0  0  0  0
 33 15  1  0  0  0  0
 32 20  1  0  0  0  0
 26 21  1  0  0  0  0
 32 27  1  0  0  0  0
  1 39  1  0  0  0  0
  2 40  1  0  0  0  0
  3 41  1  0  0  0  0
  7 42  1  0  0  0  0
  8 43  1  0  0  0  0
  9 44  1  0  0  0  0
 10 45  1  0  0  0  0
 13 46  1  0  0  0  0
 16 47  1  0  0  0  0
 17 48  1  0  0  0  0
 18 49  1  0  0  0  0
 22 50  1  0  0  0  0
 23 51  1  0  0  0  0
 24 52  1  0  0  0  0
 25 53  1  0  0  0  0
 29 54  1  0  0  0  0
 30 55  1  0  0  0  0
 31 56  1  0  0  0  0
 33 57  1  0  0  0  0
 34 58  1  0  0  0  0
 35 59  1  0  0  0  0
 37 60  1  0  0  0  0
 38 61  1  0  0  0  0
M  END
