
  xtb     03022214243D
 energy: -101.177362847349 gnorm: 0.000048988823 xtb: 6.4.1 (afa7bdf)
 68 71  0     0  0            999 V2000
   -4.4805    9.0013   -2.2499 C   0  0  0  0  0  0  0  0  0  0  0  0
   -5.2899    7.9142   -1.8734 O   0  0  0  0  0  0  0  0  0  0  0  0
   -4.6931    6.7284   -1.5766 C   0  0  0  0  0  0  0  0  0  0  0  0
   -3.3222    6.4893   -1.6127 C   0  0  0  0  0  0  0  0  0  0  0  0
   -2.8257    5.2417   -1.2901 C   0  0  0  0  0  0  0  0  0  0  0  0
   -3.6686    4.1925   -0.9220 C   0  0  0  0  0  0  0  0  0  0  0  0
   -3.1937    2.8687   -0.5757 C   0  0  0  0  0  0  0  0  0  0  0  0
   -1.9182    2.4576   -0.5524 C   0  0  0  0  0  0  0  0  0  0  0  0
   -1.4598    1.1250   -0.2032 C   0  0  0  0  0  0  0  0  0  0  0  0
   -2.2970    0.0695    0.1662 C   0  0  0  0  0  0  0  0  0  0  0  0
   -1.6960   -1.1537    0.4719 C   0  0  0  0  0  0  0  0  0  0  0  0
   -2.4991   -2.2965    0.8634 C   0  0  0  0  0  0  0  0  0  0  0  0
   -1.9583   -3.4866    1.1630 C   0  0  0  0  0  0  0  0  0  0  0  0
   -2.6549   -4.6891    1.5627 C   0  0  0  0  0  0  0  0  0  0  0  0
   -4.0469   -4.7675    1.6942 C   0  0  0  0  0  0  0  0  0  0  0  0
   -4.6587   -5.9368    2.0776 C   0  0  0  0  0  0  0  0  0  0  0  0
   -3.9049   -7.0825    2.3473 C   0  0  0  0  0  0  0  0  0  0  0  0
   -4.6117   -8.1844    2.7188 O   0  0  0  0  0  0  0  0  0  0  0  0
   -3.9108   -9.3699    3.0043 C   0  0  0  0  0  0  0  0  0  0  0  0
   -2.5207   -7.0223    2.2216 C   0  0  0  0  0  0  0  0  0  0  0  0
   -1.9161   -5.8417    1.8356 C   0  0  0  0  0  0  0  0  0  0  0  0
   -0.3717   -1.3013    0.4112 N   0  0  0  0  0  0  0  0  0  0  0  0
    0.3542   -0.2444    0.0504 C   0  0  0  0  0  0  0  0  0  0  0  0
    1.7867   -0.4411   -0.0055 C   0  0  0  0  0  0  0  0  0  0  0  0
    2.6400    0.5365   -0.3524 C   0  0  0  0  0  0  0  0  0  0  0  0
    4.0758    0.4501   -0.4424 C   0  0  0  0  0  0  0  0  0  0  0  0
    4.8108    1.5761   -0.8294 C   0  0  0  0  0  0  0  0  0  0  0  0
    6.1816    1.5510   -0.9348 C   0  0  0  0  0  0  0  0  0  0  0  0
    6.9080    0.3825   -0.6548 C   0  0  0  0  0  0  0  0  0  0  0  0
    8.2725    0.3471   -0.7589 N   0  0  0  0  0  0  0  0  0  0  0  0
    9.0195    1.5517   -1.0192 C   0  0  0  0  0  0  0  0  0  0  0  0
    8.9898   -0.8925   -0.5992 C   0  0  0  0  0  0  0  0  0  0  0  0
    6.1728   -0.7491   -0.2639 C   0  0  0  0  0  0  0  0  0  0  0  0
    4.8023   -0.7123   -0.1629 C   0  0  0  0  0  0  0  0  0  0  0  0
   -0.1383    0.9554   -0.2567 N   0  0  0  0  0  0  0  0  0  0  0  0
   -5.0450    4.4500   -0.8910 C   0  0  0  0  0  0  0  0  0  0  0  0
   -5.5500    5.6880   -1.2101 C   0  0  0  0  0  0  0  0  0  0  0  0
   -3.9174    8.7862   -3.1639 H   0  0  0  0  0  0  0  0  0  0  0  0
   -3.7853    9.2808   -1.4516 H   0  0  0  0  0  0  0  0  0  0  0  0
   -5.1647    9.8278   -2.4358 H   0  0  0  0  0  0  0  0  0  0  0  0
   -2.6314    7.2698   -1.8915 H   0  0  0  0  0  0  0  0  0  0  0  0
   -1.7590    5.0859   -1.3272 H   0  0  0  0  0  0  0  0  0  0  0  0
   -3.9793    2.1704   -0.3157 H   0  0  0  0  0  0  0  0  0  0  0  0
   -1.1099    3.1279   -0.8063 H   0  0  0  0  0  0  0  0  0  0  0  0
   -3.3678    0.1804    0.2175 H   0  0  0  0  0  0  0  0  0  0  0  0
   -3.5661   -2.1266    0.8979 H   0  0  0  0  0  0  0  0  0  0  0  0
   -0.8803   -3.5603    1.0999 H   0  0  0  0  0  0  0  0  0  0  0  0
   -4.6562   -3.9004    1.4932 H   0  0  0  0  0  0  0  0  0  0  0  0
   -5.7311   -5.9983    2.1793 H   0  0  0  0  0  0  0  0  0  0  0  0
   -3.3556   -9.7292    2.1317 H   0  0  0  0  0  0  0  0  0  0  0  0
   -3.2214   -9.2372    3.8445 H   0  0  0  0  0  0  0  0  0  0  0  0
   -4.6691  -10.1032    3.2744 H   0  0  0  0  0  0  0  0  0  0  0  0
   -1.9061   -7.8864    2.4213 H   0  0  0  0  0  0  0  0  0  0  0  0
   -0.8400   -5.8102    1.7422 H   0  0  0  0  0  0  0  0  0  0  0  0
    2.1119   -1.4370    0.2535 H   0  0  0  0  0  0  0  0  0  0  0  0
    2.2085    1.4997   -0.5939 H   0  0  0  0  0  0  0  0  0  0  0  0
    4.2841    2.4927   -1.0558 H   0  0  0  0  0  0  0  0  0  0  0  0
    6.6912    2.4476   -1.2483 H   0  0  0  0  0  0  0  0  0  0  0  0
    8.8550    1.9164   -2.0395 H   0  0  0  0  0  0  0  0  0  0  0  0
   10.0819    1.3543   -0.8953 H   0  0  0  0  0  0  0  0  0  0  0  0
    8.7396    2.3421   -0.3177 H   0  0  0  0  0  0  0  0  0  0  0  0
   10.0290   -0.7503   -0.8867 H   0  0  0  0  0  0  0  0  0  0  0  0
    8.9656   -1.2436    0.4388 H   0  0  0  0  0  0  0  0  0  0  0  0
    8.5667   -1.6707   -1.2398 H   0  0  0  0  0  0  0  0  0  0  0  0
    6.6803   -1.6697   -0.0252 H   0  0  0  0  0  0  0  0  0  0  0  0
    4.2810   -1.6058    0.1442 H   0  0  0  0  0  0  0  0  0  0  0  0
   -5.7250    3.6583   -0.6100 H   0  0  0  0  0  0  0  0  0  0  0  0
   -6.6106    5.8834   -1.1852 H   0  0  0  0  0  0  0  0  0  0  0  0
  1  2  1  0  0  0  0
  2  3  1  0  0  0  0
  3  4  2  0  0  0  0
  4  5  1  0  0  0  0
  5  6  2  0  0  0  0
  6  7  1  0  0  0  0
  7  8  2  0  0  0  0
  8  9  1  0  0  0  0
  9 10  2  0  0  0  0
 10 11  1  0  0  0  0
 11 12  1  0  0  0  0
 12 13  2  0  0  0  0
 13 14  1  0  0  0  0
 14 15  2  0  0  0  0
 15 16  1  0  0  0  0
 16 17  2  0  0  0  0
 17 18  1  0  0  0  0
 18 19  1  0  0  0  0
 17 20  1  0  0  0  0
 20 21  2  0  0  0  0
 11 22  2  0  0  0  0
 22 23  1  0  0  0  0
 23 24  1  0  0  0  0
 24 25  2  0  0  0  0
 25 26  1  0  0  0  0
 26 27  2  0  0  0  0
 27 28  1  0  0  0  0
 28 29  2  0  0  0  0
 29 30  1  0  0  0  0
 30 31  1  0  0  0  0
 30 32  1  0  0  0  0
 29 33  1  0  0  0  0
 33 34  2  0  0  0  0
 23 35  2  0  0  0  0
  6 36  1  0  0  0  0
 36 37  2  0  0  0  0
 37  3  1  0  0  0  0
 35  9  1  0  0  0  0
 21 14  1  0  0  0  0
 34 26  1  0  0  0  0
  1 38  1  0  0  0  0
  1 39  1  0  0  0  0
  1 40  1  0  0  0  0
  4 41  1  0  0  0  0
  5 42  1  0  0  0  0
  7 43  1  0  0  0  0
  8 44  1  0  0  0  0
 10 45  1  0  0  0  0
 12 46  1  0  0  0  0
 13 47  1  0  0  0  0
 15 48  1  0  0  0  0
 16 49  1  0  0  0  0
 19 50  1  0  0  0  0
 19 51  1  0  0  0  0
 19 52  1  0  0  0  0
 20 53  1  0  0  0  0
 21 54  1  0  0  0  0
 24 55  1  0  0  0  0
 25 56  1  0  0  0  0
 27 57  1  0  0  0  0
 28 58  1  0  0  0  0
 31 59  1  0  0  0  0
 31 60  1  0  0  0  0
 31 61  1  0  0  0  0
 32 62  1  0  0  0  0
 32 63  1  0  0  0  0
 32 64  1  0  0  0  0
 33 65  1  0  0  0  0
 34 66  1  0  0  0  0
 36 67  1  0  0  0  0
 37 68  1  0  0  0  0
M  END
