
  xtb     03022213483D
 energy: -134.055023170682 gnorm: 0.000264661929 xtb: 6.4.1 (afa7bdf)
 87 97  0     0  0            999 V2000
    2.6951   -3.0109   -0.8848 C   0  0  0  0  0  0  0  0  0  0  0  0
    1.9158   -1.9981   -0.1127 C   0  0  0  0  0  0  0  0  0  0  0  0
    0.5951   -2.2730    0.2082 C   0  0  0  0  0  0  0  0  0  0  0  0
   -0.1974   -1.3824    0.9199 C   0  0  0  0  0  0  0  0  0  0  0  0
   -1.5287   -1.7316    1.2043 N   0  0  0  0  0  0  0  0  0  0  0  0
   -1.9285   -2.8068    1.9680 C   0  0  0  0  0  0  0  0  0  0  0  0
   -1.1560   -3.7532    2.6246 C   0  0  0  0  0  0  0  0  0  0  0  0
   -1.8140   -4.7256    3.3524 C   0  0  0  0  0  0  0  0  0  0  0  0
   -3.2050   -4.7553    3.4341 C   0  0  0  0  0  0  0  0  0  0  0  0
   -3.9772   -3.8074    2.7931 C   0  0  0  0  0  0  0  0  0  0  0  0
   -3.3403   -2.8200    2.0522 C   0  0  0  0  0  0  0  0  0  0  0  0
   -3.8045   -1.7024    1.2801 C   0  0  0  0  0  0  0  0  0  0  0  0
   -5.0705   -1.2140    0.9698 C   0  0  0  0  0  0  0  0  0  0  0  0
   -5.1517   -0.1086    0.1546 C   0  0  0  0  0  0  0  0  0  0  0  0
   -4.0011    0.5003   -0.3697 C   0  0  0  0  0  0  0  0  0  0  0  0
   -2.7384    0.0337   -0.0797 C   0  0  0  0  0  0  0  0  0  0  0  0
   -2.6514   -1.0625    0.7709 C   0  0  0  0  0  0  0  0  0  0  0  0
   -4.3043    1.6819   -1.2599 C   0  0  0  0  0  0  0  0  0  0  0  0
   -5.2418    1.1558   -2.3199 C   0  0  0  0  0  0  0  0  0  0  0  0
   -5.0512    1.2291   -3.6840 C   0  0  0  0  0  0  0  0  0  0  0  0
   -6.0137    0.6963   -4.5302 C   0  0  0  0  0  0  0  0  0  0  0  0
   -7.1493    0.0992   -4.0127 C   0  0  0  0  0  0  0  0  0  0  0  0
   -7.3420    0.0246   -2.6402 C   0  0  0  0  0  0  0  0  0  0  0  0
   -6.3864    0.5537   -1.7979 C   0  0  0  0  0  0  0  0  0  0  0  0
   -6.4324    0.5612   -0.2889 C   0  0  0  0  0  0  0  0  0  0  0  0
   -6.2847    2.0104    0.1069 C   0  0  0  0  0  0  0  0  0  0  0  0
   -7.1533    2.7319    0.8993 C   0  0  0  0  0  0  0  0  0  0  0  0
   -6.8728    4.0636    1.1715 C   0  0  0  0  0  0  0  0  0  0  0  0
   -5.7364    4.6607    0.6556 C   0  0  0  0  0  0  0  0  0  0  0  0
   -4.8614    3.9362   -0.1419 C   0  0  0  0  0  0  0  0  0  0  0  0
   -5.1398    2.6129   -0.4142 C   0  0  0  0  0  0  0  0  0  0  0  0
    0.3353   -0.1680    1.3656 C   0  0  0  0  0  0  0  0  0  0  0  0
   -0.4677    0.7784    2.2041 C   0  0  0  0  0  0  0  0  0  0  0  0
    1.6479    0.1103    1.0368 C   0  0  0  0  0  0  0  0  0  0  0  0
    2.4499   -0.7682    0.3044 C   0  0  0  0  0  0  0  0  0  0  0  0
    3.8234   -0.3367    0.0320 C   0  0  0  0  0  0  0  0  0  0  0  0
    4.6568   -1.1276   -0.6373 N   0  0  0  0  0  0  0  0  0  0  0  0
    5.8854   -0.6562   -0.8374 C   0  0  0  0  0  0  0  0  0  0  0  0
    6.8375   -1.4912   -1.5728 C   0  0  0  0  0  0  0  0  0  0  0  0
    6.4653   -2.7482   -2.0443 C   0  0  0  0  0  0  0  0  0  0  0  0
    7.3740   -3.5249   -2.7369 C   0  0  0  0  0  0  0  0  0  0  0  0
    8.6586   -3.0575   -2.9656 C   0  0  0  0  0  0  0  0  0  0  0  0
    9.0345   -1.8074   -2.4989 C   0  0  0  0  0  0  0  0  0  0  0  0
    8.1307   -1.0262   -1.8059 C   0  0  0  0  0  0  0  0  0  0  0  0
    6.3082    0.5290   -0.4113 N   0  0  0  0  0  0  0  0  0  0  0  0
    5.4132    1.2601    0.2486 C   0  0  0  0  0  0  0  0  0  0  0  0
    5.8293    2.5754    0.7385 C   0  0  0  0  0  0  0  0  0  0  0  0
    4.9247    3.3919    1.4140 C   0  0  0  0  0  0  0  0  0  0  0  0
    5.3223    4.6317    1.8752 C   0  0  0  0  0  0  0  0  0  0  0  0
    6.6219    5.0669    1.6677 C   0  0  0  0  0  0  0  0  0  0  0  0
    7.5258    4.2585    0.9961 C   0  0  0  0  0  0  0  0  0  0  0  0
    7.1343    3.0178    0.5322 C   0  0  0  0  0  0  0  0  0  0  0  0
    4.1688    0.8688    0.4886 N   0  0  0  0  0  0  0  0  0  0  0  0
    3.0497   -2.5801   -1.8188 H   0  0  0  0  0  0  0  0  0  0  0  0
    3.5694   -3.3228   -0.3172 H   0  0  0  0  0  0  0  0  0  0  0  0
    2.0791   -3.8810   -1.1020 H   0  0  0  0  0  0  0  0  0  0  0  0
    0.1537   -3.2073   -0.1096 H   0  0  0  0  0  0  0  0  0  0  0  0
   -0.0778   -3.7263    2.5696 H   0  0  0  0  0  0  0  0  0  0  0  0
   -1.2386   -5.4780    3.8715 H   0  0  0  0  0  0  0  0  0  0  0  0
   -3.6816   -5.5323    4.0131 H   0  0  0  0  0  0  0  0  0  0  0  0
   -5.0542   -3.8281    2.8649 H   0  0  0  0  0  0  0  0  0  0  0  0
   -5.9581   -1.6935    1.3543 H   0  0  0  0  0  0  0  0  0  0  0  0
   -1.8563    0.4855   -0.5089 H   0  0  0  0  0  0  0  0  0  0  0  0
   -3.4104    2.1532   -1.6689 H   0  0  0  0  0  0  0  0  0  0  0  0
   -4.1643    1.6955   -4.0884 H   0  0  0  0  0  0  0  0  0  0  0  0
   -5.8736    0.7494   -5.5999 H   0  0  0  0  0  0  0  0  0  0  0  0
   -7.8923   -0.3120   -4.6801 H   0  0  0  0  0  0  0  0  0  0  0  0
   -8.2293   -0.4417   -2.2367 H   0  0  0  0  0  0  0  0  0  0  0  0
   -7.3269    0.0905    0.1186 H   0  0  0  0  0  0  0  0  0  0  0  0
   -8.0410    2.2661    1.3024 H   0  0  0  0  0  0  0  0  0  0  0  0
   -7.5476    4.6366    1.7902 H   0  0  0  0  0  0  0  0  0  0  0  0
   -5.5276    5.6978    0.8732 H   0  0  0  0  0  0  0  0  0  0  0  0
   -3.9744    4.4032   -0.5457 H   0  0  0  0  0  0  0  0  0  0  0  0
    0.1916    1.4394    2.7608 H   0  0  0  0  0  0  0  0  0  0  0  0
   -1.0950    0.2306    2.9054 H   0  0  0  0  0  0  0  0  0  0  0  0
   -1.1245    1.3915    1.5873 H   0  0  0  0  0  0  0  0  0  0  0  0
    2.0941    1.0364    1.3642 H   0  0  0  0  0  0  0  0  0  0  0  0
    5.4635   -3.1004   -1.8604 H   0  0  0  0  0  0  0  0  0  0  0  0
    7.0820   -4.4992   -3.1010 H   0  0  0  0  0  0  0  0  0  0  0  0
    9.3670   -3.6672   -3.5073 H   0  0  0  0  0  0  0  0  0  0  0  0
   10.0358   -1.4437   -2.6776 H   0  0  0  0  0  0  0  0  0  0  0  0
    8.4059   -0.0512   -1.4361 H   0  0  0  0  0  0  0  0  0  0  0  0
    3.9173    3.0381    1.5659 H   0  0  0  0  0  0  0  0  0  0  0  0
    4.6193    5.2633    2.3986 H   0  0  0  0  0  0  0  0  0  0  0  0
    6.9305    6.0368    2.0296 H   0  0  0  0  0  0  0  0  0  0  0  0
    8.5382    4.5995    0.8354 H   0  0  0  0  0  0  0  0  0  0  0  0
    7.8241    2.3753    0.0081 H   0  0  0  0  0  0  0  0  0  0  0  0
  1  2  1  0  0  0  0
  2  3  2  0  0  0  0
  3  4  1  0  0  0  0
  4  5  1  0  0  0  0
  5  6  1  0  0  0  0
  6  7  2  0  0  0  0
  7  8  1  0  0  0  0
  8  9  2  0  0  0  0
  9 10  1  0  0  0  0
 10 11  2  0  0  0  0
 11 12  1  0  0  0  0
 12 13  2  0  0  0  0
 13 14  1  0  0  0  0
 14 15  2  0  0  0  0
 15 16  1  0  0  0  0
 16 17  2  0  0  0  0
 15 18  1  0  0  0  0
 18 19  1  0  0  0  0
 19 20  2  0  0  0  0
 20 21  1  0  0  0  0
 21 22  2  0  0  0  0
 22 23  1  0  0  0  0
 23 24  2  0  0  0  0
 24 25  1  0  0  0  0
 25 26  1  0  0  0  0
 26 27  2  0  0  0  0
 27 28  1  0  0  0  0
 28 29  2  0  0  0  0
 29 30  1  0  0  0  0
 30 31  2  0  0  0  0
  4 32  2  0  0  0  0
 32 33  1  0  0  0  0
 32 34  1  0  0  0  0
 34 35  2  0  0  0  0
 35 36  1  0  0  0  0
 36 37  2  0  0  0  0
 37 38  1  0  0  0  0
 38 39  1  0  0  0  0
 39 40  2  0  0  0  0
 40 41  1  0  0  0  0
 41 42  2  0  0  0  0
 42 43  1  0  0  0  0
 43 44  2  0  0  0  0
 38 45  2  0  0  0  0
 45 46  1  0  0  0  0
 46 47  1  0  0  0  0
 47 48  2  0  0  0  0
 48 49  1  0  0  0  0
 49 50  2  0  0  0  0
 50 51  1  0  0  0  0
 51 52  2  0  0  0  0
 46 53  2  0  0  0  0
 35  2  1  0  0  0  0
 53 36  1  0  0  0  0
 17  5  1  0  0  0  0
 31 18  1  0  0  0  0
 44 39  1  0  0  0  0
 52 47  1  0  0  0  0
 11  6  1  0  0  0  0
 17 12  1  0  0  0  0
 24 19  1  0  0  0  0
 31 26  1  0  0  0  0
 25 14  1  0  0  0  0
  1 54  1  0  0  0  0
  1 55  1  0  0  0  0
  1 56  1  0  0  0  0
  3 57  1  0  0  0  0
  7 58  1  0  0  0  0
  8 59  1  0  0  0  0
  9 60  1  0  0  0  0
 10 61  1  0  0  0  0
 13 62  1  0  0  0  0
 16 63  1  0  0  0  0
 18 64  1  0  0  0  0
 20 65  1  0  0  0  0
 21 66  1  0  0  0  0
 22 67  1  0  0  0  0
 23 68  1  0  0  0  0
 25 69  1  0  0  0  0
 27 70  1  0  0  0  0
 28 71  1  0  0  0  0
 29 72  1  0  0  0  0
 30 73  1  0  0  0  0
 33 74  1  0  0  0  0
 33 75  1  0  0  0  0
 33 76  1  0  0  0  0
 34 77  1  0  0  0  0
 40 78  1  0  0  0  0
 41 79  1  0  0  0  0
 42 80  1  0  0  0  0
 43 81  1  0  0  0  0
 44 82  1  0  0  0  0
 48 83  1  0  0  0  0
 49 84  1  0  0  0  0
 50 85  1  0  0  0  0
 51 86  1  0  0  0  0
 52 87  1  0  0  0  0
M  END
