
  xtb     03022215353D
 energy: -129.089055204800 gnorm: 0.000134915333 xtb: 6.4.1 (afa7bdf)
 90 94  0     0  0            999 V2000
   -8.6102   -2.9766   -0.4879 C   0  0  0  0  0  0  0  0  0  0  0  0
   -7.1164   -2.6800   -0.4816 C   0  0  0  0  0  0  0  0  0  0  0  0
   -6.6333   -2.2380    0.9061 C   0  0  0  0  0  0  0  0  0  0  0  0
   -5.1738   -1.9416    0.8981 C   0  0  0  0  0  0  0  0  0  0  0  0
   -4.1599   -2.7586    1.2928 C   0  0  0  0  0  0  0  0  0  0  0  0
   -2.9363   -2.0436    1.0517 C   0  0  0  0  0  0  0  0  0  0  0  0
   -3.2036   -0.8374    0.5231 N   0  0  0  0  0  0  0  0  0  0  0  0
   -4.5399   -0.7254    0.4054 C   0  0  0  0  0  0  0  0  0  0  0  0
   -5.2289    0.3789   -0.1136 C   0  0  0  0  0  0  0  0  0  0  0  0
   -4.7707    1.5595   -0.6633 C   0  0  0  0  0  0  0  0  0  0  0  0
   -3.4634    2.0185   -0.8580 C   0  0  0  0  0  0  0  0  0  0  0  0
   -2.3403    1.3574   -0.4808 N   0  0  0  0  0  0  0  0  0  0  0  0
   -1.2404    2.0488   -0.8522 C   0  0  0  0  0  0  0  0  0  0  0  0
   -1.6805    3.2342   -1.4969 C   0  0  0  0  0  0  0  0  0  0  0  0
   -3.0528    3.2300   -1.5016 C   0  0  0  0  0  0  0  0  0  0  0  0
   -3.9495    4.2963   -2.0313 C   0  0  0  0  0  0  0  0  0  0  0  0
   -4.4550    5.2046   -0.9026 C   0  0  0  0  0  0  0  0  0  0  0  0
   -5.3853    6.2891   -1.4296 C   0  0  0  0  0  0  0  0  0  0  0  0
    0.0772    1.6196   -0.6183 C   0  0  0  0  0  0  0  0  0  0  0  0
    0.3848    0.5286    0.1036 N   0  0  0  0  0  0  0  0  0  0  0  0
    1.7292    0.4103    0.1238 C   0  0  0  0  0  0  0  0  0  0  0  0
    2.4011   -0.6161    0.8380 C   0  0  0  0  0  0  0  0  0  0  0  0
    3.7777   -0.3984    1.0493 N   0  0  0  0  0  0  0  0  0  0  0  0
    4.7742   -1.2839    1.3203 C   0  0  0  0  0  0  0  0  0  0  0  0
    4.6634   -2.4919    1.3276 O   0  0  0  0  0  0  0  0  0  0  0  0
    6.0996   -0.5902    1.6026 C   0  0  0  0  0  0  0  0  0  0  0  0
    6.8368   -0.2746    0.2966 C   0  0  0  0  0  0  0  0  0  0  0  0
    8.0196    0.6611    0.5316 C   0  0  0  0  0  0  0  0  0  0  0  0
    7.5772    2.0550    0.8977 C   0  0  0  0  0  0  0  0  0  0  0  0
    6.4395    2.4427    0.9567 O   0  0  0  0  0  0  0  0  0  0  0  0
    8.6190    2.8520    1.1527 O   0  0  0  0  0  0  0  0  0  0  0  0
    1.8814   -1.7821    1.3854 C   0  0  0  0  0  0  0  0  0  0  0  0
    0.5923   -2.3049    1.4404 C   0  0  0  0  0  0  0  0  0  0  0  0
   -0.5444   -1.6725    1.0637 N   0  0  0  0  0  0  0  0  0  0  0  0
   -1.6227   -2.4554    1.3097 C   0  0  0  0  0  0  0  0  0  0  0  0
   -1.1473   -3.6711    1.8668 C   0  0  0  0  0  0  0  0  0  0  0  0
    0.2188   -3.5908    1.9603 C   0  0  0  0  0  0  0  0  0  0  0  0
    1.1385   -4.6561    2.4494 C   0  0  0  0  0  0  0  0  0  0  0  0
    1.5112   -5.6471    1.3354 C   0  0  0  0  0  0  0  0  0  0  0  0
    2.3077   -4.9949    0.2133 C   0  0  0  0  0  0  0  0  0  0  0  0
    2.3202    1.4842   -0.6686 C   0  0  0  0  0  0  0  0  0  0  0  0
    3.7550    1.6668   -1.0456 C   0  0  0  0  0  0  0  0  0  0  0  0
    3.9547    2.5811   -2.2553 C   0  0  0  0  0  0  0  0  0  0  0  0
    5.4254    2.6385   -2.6506 C   0  0  0  0  0  0  0  0  0  0  0  0
    1.2710    2.2327   -1.1139 C   0  0  0  0  0  0  0  0  0  0  0  0
   -8.8454   -3.7692    0.2195 H   0  0  0  0  0  0  0  0  0  0  0  0
   -8.9328   -3.2930   -1.4773 H   0  0  0  0  0  0  0  0  0  0  0  0
   -9.1779   -2.0910   -0.2089 H   0  0  0  0  0  0  0  0  0  0  0  0
   -6.5627   -3.5729   -0.7804 H   0  0  0  0  0  0  0  0  0  0  0  0
   -6.8933   -1.8963   -1.2092 H   0  0  0  0  0  0  0  0  0  0  0  0
   -7.1973   -1.3557    1.2204 H   0  0  0  0  0  0  0  0  0  0  0  0
   -6.8329   -3.0376    1.6234 H   0  0  0  0  0  0  0  0  0  0  0  0
   -4.2339   -3.7435    1.7115 H   0  0  0  0  0  0  0  0  0  0  0  0
   -6.3067    0.2748   -0.0914 H   0  0  0  0  0  0  0  0  0  0  0  0
   -5.5377    2.2373   -1.0164 H   0  0  0  0  0  0  0  0  0  0  0  0
   -2.4261    0.4164   -0.0152 H   0  0  0  0  0  0  0  0  0  0  0  0
   -1.0421    3.9957   -1.9008 H   0  0  0  0  0  0  0  0  0  0  0  0
   -4.8051    3.8486   -2.5426 H   0  0  0  0  0  0  0  0  0  0  0  0
   -3.4011    4.9009   -2.7568 H   0  0  0  0  0  0  0  0  0  0  0  0
   -4.9783    4.5989   -0.1599 H   0  0  0  0  0  0  0  0  0  0  0  0
   -3.5971    5.6644   -0.4074 H   0  0  0  0  0  0  0  0  0  0  0  0
   -5.7284    6.9260   -0.6175 H   0  0  0  0  0  0  0  0  0  0  0  0
   -4.8724    6.9112   -2.1602 H   0  0  0  0  0  0  0  0  0  0  0  0
   -6.2560    5.8467   -1.9096 H   0  0  0  0  0  0  0  0  0  0  0  0
    4.0571    0.5711    1.0093 H   0  0  0  0  0  0  0  0  0  0  0  0
    6.7082   -1.2591    2.2127 H   0  0  0  0  0  0  0  0  0  0  0  0
    5.9195    0.3315    2.1565 H   0  0  0  0  0  0  0  0  0  0  0  0
    7.1870   -1.2045   -0.1524 H   0  0  0  0  0  0  0  0  0  0  0  0
    6.1543    0.2053   -0.4057 H   0  0  0  0  0  0  0  0  0  0  0  0
    8.6665    0.2913    1.3295 H   0  0  0  0  0  0  0  0  0  0  0  0
    8.6317    0.7433   -0.3694 H   0  0  0  0  0  0  0  0  0  0  0  0
    8.3216    3.7472    1.3807 H   0  0  0  0  0  0  0  0  0  0  0  0
    2.6225   -2.4223    1.8383 H   0  0  0  0  0  0  0  0  0  0  0  0
   -0.4733   -0.7102    0.6553 H   0  0  0  0  0  0  0  0  0  0  0  0
   -1.7638   -4.4968    2.1652 H   0  0  0  0  0  0  0  0  0  0  0  0
    0.6451   -5.2063    3.2544 H   0  0  0  0  0  0  0  0  0  0  0  0
    2.0531   -4.2146    2.8476 H   0  0  0  0  0  0  0  0  0  0  0  0
    2.1013   -6.4537    1.7762 H   0  0  0  0  0  0  0  0  0  0  0  0
    0.5960   -6.0844    0.9290 H   0  0  0  0  0  0  0  0  0  0  0  0
    2.5995   -5.7415   -0.5223 H   0  0  0  0  0  0  0  0  0  0  0  0
    1.7128   -4.2348   -0.2878 H   0  0  0  0  0  0  0  0  0  0  0  0
    3.2074   -4.5235    0.6009 H   0  0  0  0  0  0  0  0  0  0  0  0
    4.3268    2.0971   -0.2148 H   0  0  0  0  0  0  0  0  0  0  0  0
    4.1790    0.6854   -1.2846 H   0  0  0  0  0  0  0  0  0  0  0  0
    3.6105    3.5877   -2.0123 H   0  0  0  0  0  0  0  0  0  0  0  0
    3.3614    2.2124   -3.0947 H   0  0  0  0  0  0  0  0  0  0  0  0
    5.5731    3.3174   -3.4872 H   0  0  0  0  0  0  0  0  0  0  0  0
    5.7833    1.6529   -2.9435 H   0  0  0  0  0  0  0  0  0  0  0  0
    6.0266    2.9875   -1.8132 H   0  0  0  0  0  0  0  0  0  0  0  0
    1.2994    3.1018   -1.7395 H   0  0  0  0  0  0  0  0  0  0  0  0
  1  2  1  0  0  0  0
  2  3  1  0  0  0  0
  3  4  1  0  0  0  0
  4  5  2  0  0  0  0
  5  6  1  0  0  0  0
  6  7  2  0  0  0  0
  7  8  1  0  0  0  0
  8  9  2  0  0  0  0
  9 10  1  0  0  0  0
 10 11  2  0  0  0  0
 11 12  1  0  0  0  0
 12 13  1  0  0  0  0
 13 14  1  0  0  0  0
 14 15  2  0  0  0  0
 15 16  1  0  0  0  0
 16 17  1  0  0  0  0
 17 18  1  0  0  0  0
 13 19  2  0  0  0  0
 19 20  1  0  0  0  0
 20 21  2  0  0  0  0
 21 22  1  0  0  0  0
 22 23  1  0  0  0  0
 23 24  1  0  0  0  0
 24 25  2  0  0  0  0
 24 26  1  0  0  0  0
 26 27  1  0  0  0  0
 27 28  1  0  0  0  0
 28 29  1  0  0  0  0
 29 30  2  0  0  0  0
 29 31  1  0  0  0  0
 22 32  2  0  0  0  0
 32 33  1  0  0  0  0
 33 34  1  0  0  0  0
 34 35  1  0  0  0  0
 35 36  2  0  0  0  0
 36 37  1  0  0  0  0
 37 38  1  0  0  0  0
 38 39  1  0  0  0  0
 39 40  1  0  0  0  0
 21 41  1  0  0  0  0
 41 42  1  0  0  0  0
 42 43  1  0  0  0  0
 43 44  1  0  0  0  0
 41 45  2  0  0  0  0
  8  4  1  0  0  0  0
 15 11  1  0  0  0  0
 45 19  1  0  0  0  0
 35  6  1  0  0  0  0
 37 33  2  0  0  0  0
  1 46  1  0  0  0  0
  1 47  1  0  0  0  0
  1 48  1  0  0  0  0
  2 49  1  0  0  0  0
  2 50  1  0  0  0  0
  3 51  1  0  0  0  0
  3 52  1  0  0  0  0
  5 53  1  0  0  0  0
  9 54  1  0  0  0  0
 10 55  1  0  0  0  0
 12 56  1  0  0  0  0
 14 57  1  0  0  0  0
 16 58  1  0  0  0  0
 16 59  1  0  0  0  0
 17 60  1  0  0  0  0
 17 61  1  0  0  0  0
 18 62  1  0  0  0  0
 18 63  1  0  0  0  0
 18 64  1  0  0  0  0
 23 65  1  0  0  0  0
 26 66  1  0  0  0  0
 26 67  1  0  0  0  0
 27 68  1  0  0  0  0
 27 69  1  0  0  0  0
 28 70  1  0  0  0  0
 28 71  1  0  0  0  0
 31 72  1  0  0  0  0
 32 73  1  0  0  0  0
 34 74  1  0  0  0  0
 36 75  1  0  0  0  0
 38 76  1  0  0  0  0
 38 77  1  0  0  0  0
 39 78  1  0  0  0  0
 39 79  1  0  0  0  0
 40 80  1  0  0  0  0
 40 81  1  0  0  0  0
 40 82  1  0  0  0  0
 42 83  1  0  0  0  0
 42 84  1  0  0  0  0
 43 85  1  0  0  0  0
 43 86  1  0  0  0  0
 44 87  1  0  0  0  0
 44 88  1  0  0  0  0
 44 89  1  0  0  0  0
 45 90  1  0  0  0  0
M  END
