
  xtb     03022215533D
 energy: -117.939432514288 gnorm: 0.000206438650 xtb: 6.4.1 (afa7bdf)
 66 73  0     0  0            999 V2000
    8.4034    2.4662   -0.4399 O   0  0  0  0  0  0  0  0  0  0  0  0
    7.6841    1.4920   -0.4970 C   0  0  0  0  0  0  0  0  0  0  0  0
    6.2130    1.5788   -0.4793 C   0  0  0  0  0  0  0  0  0  0  0  0
    5.6061    2.8133   -0.3781 C   0  0  0  0  0  0  0  0  0  0  0  0
    4.2133    2.9157   -0.3614 C   0  0  0  0  0  0  0  0  0  0  0  0
    3.4322    1.7910   -0.4458 C   0  0  0  0  0  0  0  0  0  0  0  0
    4.0180    0.5150   -0.5515 C   0  0  0  0  0  0  0  0  0  0  0  0
    3.2460   -0.6810   -0.6410 C   0  0  0  0  0  0  0  0  0  0  0  0
    1.8458   -0.6130   -0.6222 C   0  0  0  0  0  0  0  0  0  0  0  0
    0.6310   -0.5661   -0.6041 C   0  0  0  0  0  0  0  0  0  0  0  0
   -0.7130   -0.4962   -0.5731 C   0  0  0  0  0  0  0  0  0  0  0  0
   -1.9261   -0.4269   -0.5321 C   0  0  0  0  0  0  0  0  0  0  0  0
   -3.3242   -0.3297   -0.4951 C   0  0  0  0  0  0  0  0  0  0  0  0
   -4.0256   -0.0037   -1.6462 C   0  0  0  0  0  0  0  0  0  0  0  0
   -5.4110    0.1113   -1.6236 C   0  0  0  0  0  0  0  0  0  0  0  0
   -6.1163   -0.0935   -0.4528 C   0  0  0  0  0  0  0  0  0  0  0  0
   -5.4326   -0.4315    0.7333 C   0  0  0  0  0  0  0  0  0  0  0  0
   -6.1416   -0.6458    1.9333 C   0  0  0  0  0  0  0  0  0  0  0  0
   -5.4655   -0.9796    3.0883 C   0  0  0  0  0  0  0  0  0  0  0  0
   -4.0748   -1.1078    3.0800 C   0  0  0  0  0  0  0  0  0  0  0  0
   -3.3642   -0.9000    1.9249 C   0  0  0  0  0  0  0  0  0  0  0  0
   -4.0218   -0.5578    0.7279 C   0  0  0  0  0  0  0  0  0  0  0  0
   -7.6084   -0.5056    1.9654 C   0  0  0  0  0  0  0  0  0  0  0  0
   -8.2637   -0.6575    2.9739 O   0  0  0  0  0  0  0  0  0  0  0  0
   -8.2153   -0.1709    0.7621 N   0  0  0  0  0  0  0  0  0  0  0  0
   -9.6428   -0.0241    0.7799 C   0  0  0  0  0  0  0  0  0  0  0  0
  -10.4430   -1.1272    1.0288 C   0  0  0  0  0  0  0  0  0  0  0  0
  -11.8181   -0.9774    1.0523 C   0  0  0  0  0  0  0  0  0  0  0  0
  -12.3874    0.2630    0.8199 C   0  0  0  0  0  0  0  0  0  0  0  0
  -11.5810    1.3595    0.5669 C   0  0  0  0  0  0  0  0  0  0  0  0
  -10.2047    1.2214    0.5503 C   0  0  0  0  0  0  0  0  0  0  0  0
   -7.5816    0.0422   -0.4559 C   0  0  0  0  0  0  0  0  0  0  0  0
   -8.2179    0.3162   -1.4512 O   0  0  0  0  0  0  0  0  0  0  0  0
    3.8777   -1.9113   -0.7430 C   0  0  0  0  0  0  0  0  0  0  0  0
    5.2654   -1.9966   -0.7589 C   0  0  0  0  0  0  0  0  0  0  0  0
    6.0427   -0.8570   -0.6730 C   0  0  0  0  0  0  0  0  0  0  0  0
    5.4303    0.4090   -0.5684 C   0  0  0  0  0  0  0  0  0  0  0  0
    7.5092   -0.9773   -0.6846 C   0  0  0  0  0  0  0  0  0  0  0  0
    8.0846   -2.0423   -0.7576 O   0  0  0  0  0  0  0  0  0  0  0  0
    8.2183    0.2140   -0.5938 N   0  0  0  0  0  0  0  0  0  0  0  0
    9.6499    0.1134   -0.6029 C   0  0  0  0  0  0  0  0  0  0  0  0
   10.3677    0.4661    0.5284 C   0  0  0  0  0  0  0  0  0  0  0  0
   11.7477    0.3715    0.5143 C   0  0  0  0  0  0  0  0  0  0  0  0
   12.4028   -0.0804   -0.6185 C   0  0  0  0  0  0  0  0  0  0  0  0
   11.6780   -0.4352   -1.7435 C   0  0  0  0  0  0  0  0  0  0  0  0
   10.2982   -0.3356   -1.7419 C   0  0  0  0  0  0  0  0  0  0  0  0
    6.2294    3.6923   -0.3126 H   0  0  0  0  0  0  0  0  0  0  0  0
    3.7534    3.8889   -0.2813 H   0  0  0  0  0  0  0  0  0  0  0  0
    2.3545    1.8677   -0.4328 H   0  0  0  0  0  0  0  0  0  0  0  0
   -3.4849    0.1630   -2.5660 H   0  0  0  0  0  0  0  0  0  0  0  0
   -5.9582    0.3652   -2.5190 H   0  0  0  0  0  0  0  0  0  0  0  0
   -6.0333   -1.1374    3.9929 H   0  0  0  0  0  0  0  0  0  0  0  0
   -3.5603   -1.3711    3.9916 H   0  0  0  0  0  0  0  0  0  0  0  0
   -2.2881   -0.9969    1.9163 H   0  0  0  0  0  0  0  0  0  0  0  0
   -9.9900   -2.0904    1.2083 H   0  0  0  0  0  0  0  0  0  0  0  0
  -12.4453   -1.8337    1.2499 H   0  0  0  0  0  0  0  0  0  0  0  0
  -13.4613    0.3754    0.8362 H   0  0  0  0  0  0  0  0  0  0  0  0
  -12.0229    2.3278    0.3853 H   0  0  0  0  0  0  0  0  0  0  0  0
   -9.5676    2.0708    0.3555 H   0  0  0  0  0  0  0  0  0  0  0  0
    3.2808   -2.8087   -0.8104 H   0  0  0  0  0  0  0  0  0  0  0  0
    5.7585   -2.9538   -0.8374 H   0  0  0  0  0  0  0  0  0  0  0  0
    9.8478    0.8166    1.4072 H   0  0  0  0  0  0  0  0  0  0  0  0
   12.3112    0.6487    1.3926 H   0  0  0  0  0  0  0  0  0  0  0  0
   13.4800   -0.1562   -0.6247 H   0  0  0  0  0  0  0  0  0  0  0  0
   12.1870   -0.7878   -2.6279 H   0  0  0  0  0  0  0  0  0  0  0  0
    9.7245   -0.6090   -2.6144 H   0  0  0  0  0  0  0  0  0  0  0  0
  1  2  2  0  0  0  0
  2  3  1  0  0  0  0
  3  4  1  0  0  0  0
  4  5  2  0  0  0  0
  5  6  1  0  0  0  0
  6  7  2  0  0  0  0
  7  8  1  0  0  0  0
  8  9  1  0  0  0  0
  9 10  3  0  0  0  0
 10 11  1  0  0  0  0
 11 12  3  0  0  0  0
 12 13  1  0  0  0  0
 13 14  2  0  0  0  0
 14 15  1  0  0  0  0
 15 16  2  0  0  0  0
 16 17  1  0  0  0  0
 17 18  2  0  0  0  0
 18 19  1  0  0  0  0
 19 20  2  0  0  0  0
 20 21  1  0  0  0  0
 21 22  2  0  0  0  0
 18 23  1  0  0  0  0
 23 24  2  0  0  0  0
 23 25  1  0  0  0  0
 25 26  1  0  0  0  0
 26 27  2  0  0  0  0
 27 28  1  0  0  0  0
 28 29  2  0  0  0  0
 29 30  1  0  0  0  0
 30 31  2  0  0  0  0
 25 32  1  0  0  0  0
 32 33  2  0  0  0  0
  8 34  2  0  0  0  0
 34 35  1  0  0  0  0
 35 36  2  0  0  0  0
 36 37  1  0  0  0  0
 36 38  1  0  0  0  0
 38 39  2  0  0  0  0
 38 40  1  0  0  0  0
 40 41  1  0  0  0  0
 41 42  2  0  0  0  0
 42 43  1  0  0  0  0
 43 44  2  0  0  0  0
 44 45  1  0  0  0  0
 45 46  2  0  0  0  0
 40  2  1  0  0  0  0
 46 41  1  0  0  0  0
 37  3  2  0  0  0  0
 37  7  1  0  0  0  0
 22 13  1  0  0  0  0
 31 26  1  0  0  0  0
 32 16  1  0  0  0  0
 22 17  1  0  0  0  0
  4 47  1  0  0  0  0
  5 48  1  0  0  0  0
  6 49  1  0  0  0  0
 14 50  1  0  0  0  0
 15 51  1  0  0  0  0
 19 52  1  0  0  0  0
 20 53  1  0  0  0  0
 21 54  1  0  0  0  0
 27 55  1  0  0  0  0
 28 56  1  0  0  0  0
 29 57  1  0  0  0  0
 30 58  1  0  0  0  0
 31 59  1  0  0  0  0
 34 60  1  0  0  0  0
 35 61  1  0  0  0  0
 42 62  1  0  0  0  0
 43 63  1  0  0  0  0
 44 64  1  0  0  0  0
 45 65  1  0  0  0  0
 46 66  1  0  0  0  0
M  END
