
  xtb     03022214033D
 energy: -91.302529453398 gnorm: 0.000169052235 xtb: 6.4.1 (afa7bdf)
 61 64  0     0  0            999 V2000
    7.2147    0.3292   -0.3653 C   0  0  0  0  0  0  0  0  0  0  0  0
    6.2032    1.2722   -1.0063 C   0  0  0  0  0  0  0  0  0  0  0  0
    4.8968    1.3765   -0.2177 C   0  0  0  0  0  0  0  0  0  0  0  0
    5.0689    2.0699    1.1323 C   0  0  0  0  0  0  0  0  0  0  0  0
    3.7530    2.4037    1.8389 C   0  0  0  0  0  0  0  0  0  0  0  0
    2.9452    1.1750    2.2793 C   0  0  0  0  0  0  0  0  0  0  0  0
    1.8521    0.7839    1.2855 C   0  0  0  0  0  0  0  0  0  0  0  0
    1.1081   -0.4768    1.7544 C   0  0  0  0  0  0  0  0  0  0  0  0
    0.3344   -1.1420    0.7225 N   0  0  0  0  0  0  0  0  0  0  0  0
   -0.9912   -0.7512    0.5208 C   0  0  0  0  0  0  0  0  0  0  0  0
   -1.4696    0.4630    1.0225 C   0  0  0  0  0  0  0  0  0  0  0  0
   -2.7801    0.8609    0.8524 C   0  0  0  0  0  0  0  0  0  0  0  0
   -3.6787    0.0626    0.1480 C   0  0  0  0  0  0  0  0  0  0  0  0
   -5.0181    0.4557   -0.0341 C   0  0  0  0  0  0  0  0  0  0  0  0
   -6.1687    0.7898   -0.1907 C   0  0  0  0  0  0  0  0  0  0  0  0
   -7.5112    1.1791   -0.3758 C   0  0  0  0  0  0  0  0  0  0  0  0
   -8.3966    0.3409   -1.0588 C   0  0  0  0  0  0  0  0  0  0  0  0
   -9.7115    0.7178   -1.2429 C   0  0  0  0  0  0  0  0  0  0  0  0
  -10.1335    1.9367   -0.7400 C   0  0  0  0  0  0  0  0  0  0  0  0
  -11.4187    2.3084   -0.9186 F   0  0  0  0  0  0  0  0  0  0  0  0
   -9.2782    2.7863   -0.0595 C   0  0  0  0  0  0  0  0  0  0  0  0
   -7.9644    2.4038    0.1216 C   0  0  0  0  0  0  0  0  0  0  0  0
   -3.2164   -1.1462   -0.3730 C   0  0  0  0  0  0  0  0  0  0  0  0
   -1.9089   -1.5449   -0.1789 C   0  0  0  0  0  0  0  0  0  0  0  0
   -1.4742   -3.1408   -0.8041 S   0  0  0  0  0  0  0  0  0  0  0  0
    0.2819   -2.9582   -0.9125 C   0  0  0  0  0  0  0  0  0  0  0  0
    0.9369   -3.8226   -1.7641 C   0  0  0  0  0  0  0  0  0  0  0  0
    2.3300   -3.8412   -1.8350 C   0  0  0  0  0  0  0  0  0  0  0  0
    3.0291   -4.7596   -2.7269 C   0  0  0  0  0  0  0  0  0  0  0  0
    4.2279   -4.8386   -2.8495 O   0  0  0  0  0  0  0  0  0  0  0  0
    3.0381   -2.9635   -1.0157 C   0  0  0  0  0  0  0  0  0  0  0  0
    2.3815   -2.0866   -0.1820 C   0  0  0  0  0  0  0  0  0  0  0  0
    0.9805   -2.0401   -0.1098 C   0  0  0  0  0  0  0  0  0  0  0  0
    7.5329    0.6974    0.6066 H   0  0  0  0  0  0  0  0  0  0  0  0
    8.0954    0.2368   -0.9963 H   0  0  0  0  0  0  0  0  0  0  0  0
    6.7835   -0.6614   -0.2364 H   0  0  0  0  0  0  0  0  0  0  0  0
    5.9733    0.9097   -2.0110 H   0  0  0  0  0  0  0  0  0  0  0  0
    6.6454    2.2661   -1.1071 H   0  0  0  0  0  0  0  0  0  0  0  0
    4.1745    1.9405   -0.8137 H   0  0  0  0  0  0  0  0  0  0  0  0
    4.5029    0.3693   -0.0731 H   0  0  0  0  0  0  0  0  0  0  0  0
    5.6148    3.0036    0.9743 H   0  0  0  0  0  0  0  0  0  0  0  0
    5.6720    1.4445    1.7931 H   0  0  0  0  0  0  0  0  0  0  0  0
    3.9963    2.9989    2.7218 H   0  0  0  0  0  0  0  0  0  0  0  0
    3.1392    3.0283    1.1864 H   0  0  0  0  0  0  0  0  0  0  0  0
    2.4707    1.3785    3.2423 H   0  0  0  0  0  0  0  0  0  0  0  0
    3.6258    0.3336    2.4287 H   0  0  0  0  0  0  0  0  0  0  0  0
    2.2821    0.6086    0.3004 H   0  0  0  0  0  0  0  0  0  0  0  0
    1.1561    1.6176    1.1799 H   0  0  0  0  0  0  0  0  0  0  0  0
    1.8286   -1.2024    2.1427 H   0  0  0  0  0  0  0  0  0  0  0  0
    0.4336   -0.2331    2.5792 H   0  0  0  0  0  0  0  0  0  0  0  0
   -0.8153    1.1250    1.5621 H   0  0  0  0  0  0  0  0  0  0  0  0
   -3.1108    1.8019    1.2652 H   0  0  0  0  0  0  0  0  0  0  0  0
   -8.0433   -0.6047   -1.4415 H   0  0  0  0  0  0  0  0  0  0  0  0
  -10.4096    0.0844   -1.7673 H   0  0  0  0  0  0  0  0  0  0  0  0
   -9.6465    3.7278    0.3168 H   0  0  0  0  0  0  0  0  0  0  0  0
   -7.2782    3.0493    0.6489 H   0  0  0  0  0  0  0  0  0  0  0  0
   -3.8867   -1.7941   -0.9169 H   0  0  0  0  0  0  0  0  0  0  0  0
    0.3527   -4.5085   -2.3598 H   0  0  0  0  0  0  0  0  0  0  0  0
    2.3520   -5.4115   -3.3150 H   0  0  0  0  0  0  0  0  0  0  0  0
    4.1167   -2.9795   -1.0518 H   0  0  0  0  0  0  0  0  0  0  0  0
    2.9793   -1.4299    0.4244 H   0  0  0  0  0  0  0  0  0  0  0  0
  1  2  1  0  0  0  0
  2  3  1  0  0  0  0
  3  4  1  0  0  0  0
  4  5  1  0  0  0  0
  5  6  1  0  0  0  0
  6  7  1  0  0  0  0
  7  8  1  0  0  0  0
  8  9  1  0  0  0  0
  9 10  1  0  0  0  0
 10 11  2  0  0  0  0
 11 12  1  0  0  0  0
 12 13  2  0  0  0  0
 13 14  1  0  0  0  0
 14 15  3  0  0  0  0
 15 16  1  0  0  0  0
 16 17  2  0  0  0  0
 17 18  1  0  0  0  0
 18 19  2  0  0  0  0
 19 20  1  0  0  0  0
 19 21  1  0  0  0  0
 21 22  2  0  0  0  0
 13 23  1  0  0  0  0
 23 24  2  0  0  0  0
 24 25  1  0  0  0  0
 25 26  1  0  0  0  0
 26 27  2  0  0  0  0
 27 28  1  0  0  0  0
 28 29  1  0  0  0  0
 29 30  2  0  0  0  0
 28 31  2  0  0  0  0
 31 32  1  0  0  0  0
 32 33  2  0  0  0  0
 33  9  1  0  0  0  0
 24 10  1  0  0  0  0
 33 26  1  0  0  0  0
 22 16  1  0  0  0  0
  1 34  1  0  0  0  0
  1 35  1  0  0  0  0
  1 36  1  0  0  0  0
  2 37  1  0  0  0  0
  2 38  1  0  0  0  0
  3 39  1  0  0  0  0
  3 40  1  0  0  0  0
  4 41  1  0  0  0  0
  4 42  1  0  0  0  0
  5 43  1  0  0  0  0
  5 44  1  0  0  0  0
  6 45  1  0  0  0  0
  6 46  1  0  0  0  0
  7 47  1  0  0  0  0
  7 48  1  0  0  0  0
  8 49  1  0  0  0  0
  8 50  1  0  0  0  0
 11 51  1  0  0  0  0
 12 52  1  0  0  0  0
 17 53  1  0  0  0  0
 18 54  1  0  0  0  0
 21 55  1  0  0  0  0
 22 56  1  0  0  0  0
 23 57  1  0  0  0  0
 27 58  1  0  0  0  0
 29 59  1  0  0  0  0
 31 60  1  0  0  0  0
 32 61  1  0  0  0  0
M  END
