
  xtb     03022214203D
 energy: -60.676976863506 gnorm: 0.000061455719 xtb: 6.4.1 (afa7bdf)
 40 44  0     0  0            999 V2000
    5.1907   -0.7480    2.2409 C   0  0  0  0  0  0  0  0  0  0  0  0
    4.3215   -0.5518    1.0362 C   0  0  0  0  0  0  0  0  0  0  0  0
    3.2501    0.3305    1.0554 C   0  0  0  0  0  0  0  0  0  0  0  0
    2.4589    0.5236   -0.0622 C   0  0  0  0  0  0  0  0  0  0  0  0
    2.7273   -0.1866   -1.2218 C   0  0  0  0  0  0  0  0  0  0  0  0
    1.7842    0.0280   -2.7118 S   0  0  0  0  0  0  0  0  0  0  0  0
    0.2536    0.7083   -2.1052 C   0  0  0  0  0  0  0  0  0  0  0  0
   -0.1192    1.9572   -2.5799 C   0  0  0  0  0  0  0  0  0  0  0  0
   -1.2964    2.5450   -2.1660 C   0  0  0  0  0  0  0  0  0  0  0  0
   -2.1336    1.8957   -1.2570 C   0  0  0  0  0  0  0  0  0  0  0  0
   -3.3460    2.4848   -0.7939 C   0  0  0  0  0  0  0  0  0  0  0  0
   -4.1506    1.8399    0.0818 C   0  0  0  0  0  0  0  0  0  0  0  0
   -3.8179    0.5431    0.5723 C   0  0  0  0  0  0  0  0  0  0  0  0
   -4.6372   -0.1425    1.4703 C   0  0  0  0  0  0  0  0  0  0  0  0
   -4.2896   -1.4014    1.9254 C   0  0  0  0  0  0  0  0  0  0  0  0
   -3.1225   -2.0059    1.4972 C   0  0  0  0  0  0  0  0  0  0  0  0
   -2.2725   -1.3578    0.5991 C   0  0  0  0  0  0  0  0  0  0  0  0
   -1.0707   -1.9560    0.1230 C   0  0  0  0  0  0  0  0  0  0  0  0
   -0.2582   -1.3111   -0.7456 C   0  0  0  0  0  0  0  0  0  0  0  0
   -0.5687   -0.0042   -1.2200 C   0  0  0  0  0  0  0  0  0  0  0  0
   -1.7705    0.6102   -0.7819 C   0  0  0  0  0  0  0  0  0  0  0  0
   -2.6177   -0.0669    0.1292 C   0  0  0  0  0  0  0  0  0  0  0  0
    3.7979   -1.0721   -1.2597 C   0  0  0  0  0  0  0  0  0  0  0  0
    4.5852   -1.2466   -0.1401 C   0  0  0  0  0  0  0  0  0  0  0  0
    4.7675   -0.2535    3.1115 H   0  0  0  0  0  0  0  0  0  0  0  0
    6.1833   -0.3356    2.0591 H   0  0  0  0  0  0  0  0  0  0  0  0
    5.3071   -1.8079    2.4609 H   0  0  0  0  0  0  0  0  0  0  0  0
    3.0290    0.8854    1.9561 H   0  0  0  0  0  0  0  0  0  0  0  0
    1.6370    1.2235   -0.0272 H   0  0  0  0  0  0  0  0  0  0  0  0
    0.5325    2.4670   -3.2737 H   0  0  0  0  0  0  0  0  0  0  0  0
   -1.5719    3.5212   -2.5377 H   0  0  0  0  0  0  0  0  0  0  0  0
   -3.6060    3.4662   -1.1645 H   0  0  0  0  0  0  0  0  0  0  0  0
   -5.0682    2.2947    0.4274 H   0  0  0  0  0  0  0  0  0  0  0  0
   -5.5528    0.3223    1.8074 H   0  0  0  0  0  0  0  0  0  0  0  0
   -4.9369   -1.9173    2.6198 H   0  0  0  0  0  0  0  0  0  0  0  0
   -2.8580   -2.9909    1.8544 H   0  0  0  0  0  0  0  0  0  0  0  0
   -0.8227   -2.9491    0.4697 H   0  0  0  0  0  0  0  0  0  0  0  0
    0.6415   -1.7888   -1.1034 H   0  0  0  0  0  0  0  0  0  0  0  0
    4.0044   -1.6163   -2.1691 H   0  0  0  0  0  0  0  0  0  0  0  0
    5.4163   -1.9363   -0.1763 H   0  0  0  0  0  0  0  0  0  0  0  0
  1  2  1  0  0  0  0
  2  3  2  0  0  0  0
  3  4  1  0  0  0  0
  4  5  2  0  0  0  0
  5  6  1  0  0  0  0
  6  7  1  0  0  0  0
  7  8  2  0  0  0  0
  8  9  1  0  0  0  0
  9 10  2  0  0  0  0
 10 11  1  0  0  0  0
 11 12  2  0  0  0  0
 12 13  1  0  0  0  0
 13 14  2  0  0  0  0
 14 15  1  0  0  0  0
 15 16  2  0  0  0  0
 16 17  1  0  0  0  0
 17 18  2  0  0  0  0
 18 19  1  0  0  0  0
 19 20  2  0  0  0  0
 20 21  1  0  0  0  0
 21 22  2  0  0  0  0
  5 23  1  0  0  0  0
 23 24  2  0  0  0  0
 24  2  1  0  0  0  0
 20  7  1  0  0  0  0
 21 10  1  0  0  0  0
 22 13  1  0  0  0  0
 22 17  1  0  0  0  0
  1 25  1  0  0  0  0
  1 26  1  0  0  0  0
  1 27  1  0  0  0  0
  3 28  1  0  0  0  0
  4 29  1  0  0  0  0
  8 30  1  0  0  0  0
  9 31  1  0  0  0  0
 11 32  1  0  0  0  0
 12 33  1  0  0  0  0
 14 34  1  0  0  0  0
 15 35  1  0  0  0  0
 16 36  1  0  0  0  0
 18 37  1  0  0  0  0
 19 38  1  0  0  0  0
 23 39  1  0  0  0  0
 24 40  1  0  0  0  0
M  END
