
  xtb     03022214053D
 energy: -50.696222932775 gnorm: 0.000128867336 xtb: 6.4.1 (afa7bdf)
 28 30  0     0  0            999 V2000
   -4.1271   -0.3798    0.2200 C   0  0  0  0  0  0  0  0  0  0  0  0
   -2.7337    0.1659    0.1972 C   0  0  0  0  0  0  0  0  0  0  0  0
   -2.5274    1.5517    0.3489 C   0  0  0  0  0  0  0  0  0  0  0  0
   -1.2792    2.1092    0.3355 C   0  0  0  0  0  0  0  0  0  0  0  0
   -0.1576    1.2810    0.1645 C   0  0  0  0  0  0  0  0  0  0  0  0
    1.0792    1.8158    0.1460 N   0  0  0  0  0  0  0  0  0  0  0  0
    2.0880    0.9943   -0.0176 C   0  0  0  0  0  0  0  0  0  0  0  0
    3.3539    1.5159   -0.0417 N   0  0  0  0  0  0  0  0  0  0  0  0
    4.4971    0.7730   -0.2064 C   0  0  0  0  0  0  0  0  0  0  0  0
    5.5981    1.2599   -0.2254 O   0  0  0  0  0  0  0  0  0  0  0  0
    4.2802   -0.5844   -0.3490 N   0  0  0  0  0  0  0  0  0  0  0  0
    3.0808   -1.2843   -0.3489 C   0  0  0  0  0  0  0  0  0  0  0  0
    3.0616   -2.4804   -0.4856 O   0  0  0  0  0  0  0  0  0  0  0  0
    1.9041   -0.4107   -0.1696 C   0  0  0  0  0  0  0  0  0  0  0  0
    0.7066   -0.9395   -0.1532 N   0  0  0  0  0  0  0  0  0  0  0  0
   -0.3495   -0.1278    0.0106 C   0  0  0  0  0  0  0  0  0  0  0  0
   -1.6555   -0.6802    0.0289 C   0  0  0  0  0  0  0  0  0  0  0  0
   -1.8230   -2.1545   -0.1340 C   0  0  0  0  0  0  0  0  0  0  0  0
   -4.2416   -1.0977    1.0314 H   0  0  0  0  0  0  0  0  0  0  0  0
   -4.3472   -0.9008   -0.7110 H   0  0  0  0  0  0  0  0  0  0  0  0
   -4.8552    0.4155    0.3540 H   0  0  0  0  0  0  0  0  0  0  0  0
   -3.3913    2.1879    0.4798 H   0  0  0  0  0  0  0  0  0  0  0  0
   -1.1253    3.1699    0.4518 H   0  0  0  0  0  0  0  0  0  0  0  0
    3.4549    2.5173    0.0678 H   0  0  0  0  0  0  0  0  0  0  0  0
    5.1189   -1.1426   -0.4706 H   0  0  0  0  0  0  0  0  0  0  0  0
   -2.3223   -2.5788    0.7362 H   0  0  0  0  0  0  0  0  0  0  0  0
   -0.8507   -2.6220   -0.2528 H   0  0  0  0  0  0  0  0  0  0  0  0
   -2.4366   -2.3736   -1.0070 H   0  0  0  0  0  0  0  0  0  0  0  0
  1  2  1  0  0  0  0
  2  3  2  0  0  0  0
  3  4  1  0  0  0  0
  4  5  2  0  0  0  0
  5  6  1  0  0  0  0
  6  7  2  0  0  0  0
  7  8  1  0  0  0  0
  8  9  1  0  0  0  0
  9 10  2  0  0  0  0
  9 11  1  0  0  0  0
 11 12  1  0  0  0  0
 12 13  2  0  0  0  0
 12 14  1  0  0  0  0
 14 15  2  0  0  0  0
 15 16  1  0  0  0  0
 16 17  2  0  0  0  0
 17 18  1  0  0  0  0
 17  2  1  0  0  0  0
 16  5  1  0  0  0  0
 14  7  1  0  0  0  0
  1 19  1  0  0  0  0
  1 20  1  0  0  0  0
  1 21  1  0  0  0  0
  3 22  1  0  0  0  0
  4 23  1  0  0  0  0
  8 24  1  0  0  0  0
 11 25  1  0  0  0  0
 18 26  1  0  0  0  0
 18 27  1  0  0  0  0
 18 28  1  0  0  0  0
M  END
