
  xtb     03022214063D
 energy: -160.222082569412 gnorm: 0.000122471322 xtb: 6.4.1 (afa7bdf)
116123  0     0  0            999 V2000
    7.2345    4.5957   -2.3542 C   0  0  0  0  0  0  0  0  0  0  0  0
    6.4416    3.4835   -3.0551 C   0  0  0  0  0  0  0  0  0  0  0  0
    7.3563    2.7289   -4.0305 C   0  0  0  0  0  0  0  0  0  0  0  0
    5.3209    4.1382   -3.8673 C   0  0  0  0  0  0  0  0  0  0  0  0
    5.9230    2.5083   -2.0080 C   0  0  0  0  0  0  0  0  0  0  0  0
    4.5606    2.2722   -1.8103 C   0  0  0  0  0  0  0  0  0  0  0  0
    4.0866    1.3778   -0.8666 C   0  0  0  0  0  0  0  0  0  0  0  0
    5.0055    0.6829   -0.0996 C   0  0  0  0  0  0  0  0  0  0  0  0
    6.3860    0.9313   -0.2547 C   0  0  0  0  0  0  0  0  0  0  0  0
    6.8338    1.8332   -1.2053 C   0  0  0  0  0  0  0  0  0  0  0  0
    7.0618    0.1167    0.7191 C   0  0  0  0  0  0  0  0  0  0  0  0
    8.4036   -0.0729    1.0198 C   0  0  0  0  0  0  0  0  0  0  0  0
    8.7650   -0.9658    2.0156 C   0  0  0  0  0  0  0  0  0  0  0  0
   10.2135   -1.2168    2.4076 C   0  0  0  0  0  0  0  0  0  0  0  0
   10.5531   -2.6937    2.1616 C   0  0  0  0  0  0  0  0  0  0  0  0
   11.1969   -0.3622    1.6030 C   0  0  0  0  0  0  0  0  0  0  0  0
   10.3978   -0.8808    3.8942 C   0  0  0  0  0  0  0  0  0  0  0  0
    7.7526   -1.6744    2.6753 C   0  0  0  0  0  0  0  0  0  0  0  0
    6.4113   -1.5056    2.3953 C   0  0  0  0  0  0  0  0  0  0  0  0
    6.0610   -0.5815    1.4236 C   0  0  0  0  0  0  0  0  0  0  0  0
    4.8153   -0.2342    0.9219 N   0  0  0  0  0  0  0  0  0  0  0  0
    3.5950   -0.7265    1.3684 C   0  0  0  0  0  0  0  0  0  0  0  0
    2.6129   -1.1260    0.4594 C   0  0  0  0  0  0  0  0  0  0  0  0
    1.4087   -1.6194    0.9090 C   0  0  0  0  0  0  0  0  0  0  0  0
    1.1585   -1.7607    2.2770 C   0  0  0  0  0  0  0  0  0  0  0  0
   -0.1042   -2.3368    2.7268 C   0  0  0  0  0  0  0  0  0  0  0  0
   -0.1424   -3.2113    3.7795 C   0  0  0  0  0  0  0  0  0  0  0  0
    1.0150   -3.7238    4.4047 C   0  0  0  0  0  0  0  0  0  0  0  0
    1.9276   -4.1943    4.9175 N   0  0  0  0  0  0  0  0  0  0  0  0
   -1.3412   -3.6907    4.3502 C   0  0  0  0  0  0  0  0  0  0  0  0
   -2.2897   -4.0756    4.8694 N   0  0  0  0  0  0  0  0  0  0  0  0
   -1.3238   -1.9509    2.0260 C   0  0  0  0  0  0  0  0  0  0  0  0
   -1.4991   -0.6250    1.6188 C   0  0  0  0  0  0  0  0  0  0  0  0
   -2.6668   -0.2220    1.0107 C   0  0  0  0  0  0  0  0  0  0  0  0
   -3.6868   -1.1430    0.7628 C   0  0  0  0  0  0  0  0  0  0  0  0
   -4.8762   -0.7404    0.1674 N   0  0  0  0  0  0  0  0  0  0  0  0
   -6.1495   -1.1024    0.5816 C   0  0  0  0  0  0  0  0  0  0  0  0
   -6.5583   -1.8659    1.6636 C   0  0  0  0  0  0  0  0  0  0  0  0
   -7.9139   -2.0390    1.8587 C   0  0  0  0  0  0  0  0  0  0  0  0
   -8.8839   -1.4702    1.0233 C   0  0  0  0  0  0  0  0  0  0  0  0
  -10.3532   -1.7357    1.3161 C   0  0  0  0  0  0  0  0  0  0  0  0
  -10.6119   -3.2476    1.2500 C   0  0  0  0  0  0  0  0  0  0  0  0
  -10.6920   -1.2104    2.7182 C   0  0  0  0  0  0  0  0  0  0  0  0
  -11.2857   -1.0505    0.3134 C   0  0  0  0  0  0  0  0  0  0  0  0
   -8.4630   -0.6774   -0.0319 C   0  0  0  0  0  0  0  0  0  0  0  0
   -7.1053   -0.4877   -0.2515 C   0  0  0  0  0  0  0  0  0  0  0  0
   -6.3718    0.2807   -1.2205 C   0  0  0  0  0  0  0  0  0  0  0  0
   -6.7679    1.0714   -2.2903 C   0  0  0  0  0  0  0  0  0  0  0  0
   -5.8116    1.6833   -3.0845 C   0  0  0  0  0  0  0  0  0  0  0  0
   -6.1723    2.5751   -4.2634 C   0  0  0  0  0  0  0  0  0  0  0  0
   -5.5762    3.9719   -4.0376 C   0  0  0  0  0  0  0  0  0  0  0  0
   -5.5994    1.9664   -5.5510 C   0  0  0  0  0  0  0  0  0  0  0  0
   -7.6851    2.7293   -4.4426 C   0  0  0  0  0  0  0  0  0  0  0  0
   -4.4602    1.4592   -2.7928 C   0  0  0  0  0  0  0  0  0  0  0  0
   -4.0393    0.6772   -1.7357 C   0  0  0  0  0  0  0  0  0  0  0  0
   -5.0051    0.1017   -0.9252 C   0  0  0  0  0  0  0  0  0  0  0  0
   -3.4970   -2.4780    1.1256 C   0  0  0  0  0  0  0  0  0  0  0  0
   -2.3387   -2.8722    1.7567 C   0  0  0  0  0  0  0  0  0  0  0  0
    2.1388   -1.3475    3.1821 C   0  0  0  0  0  0  0  0  0  0  0  0
    3.3333   -0.8277    2.7362 C   0  0  0  0  0  0  0  0  0  0  0  0
    7.5983    5.3150   -3.0851 H   0  0  0  0  0  0  0  0  0  0  0  0
    6.5994    5.1182   -1.6418 H   0  0  0  0  0  0  0  0  0  0  0  0
    8.0896    4.1950   -1.8171 H   0  0  0  0  0  0  0  0  0  0  0  0
    7.7280    3.4062   -4.7966 H   0  0  0  0  0  0  0  0  0  0  0  0
    8.2099    2.2940   -3.5185 H   0  0  0  0  0  0  0  0  0  0  0  0
    6.8060    1.9261   -4.5170 H   0  0  0  0  0  0  0  0  0  0  0  0
    5.7547    4.8126   -4.6030 H   0  0  0  0  0  0  0  0  0  0  0  0
    4.7360    3.3922   -4.4005 H   0  0  0  0  0  0  0  0  0  0  0  0
    4.6614    4.7207   -3.2280 H   0  0  0  0  0  0  0  0  0  0  0  0
    3.8317    2.8001   -2.4024 H   0  0  0  0  0  0  0  0  0  0  0  0
    3.0233    1.2465   -0.7328 H   0  0  0  0  0  0  0  0  0  0  0  0
    7.8948    2.0022   -1.3042 H   0  0  0  0  0  0  0  0  0  0  0  0
    9.1401    0.4805    0.4617 H   0  0  0  0  0  0  0  0  0  0  0  0
   11.5949   -2.8849    2.4102 H   0  0  0  0  0  0  0  0  0  0  0  0
   10.3957   -2.9460    1.1149 H   0  0  0  0  0  0  0  0  0  0  0  0
    9.9337   -3.3498    2.7665 H   0  0  0  0  0  0  0  0  0  0  0  0
   12.2126   -0.5722    1.9322 H   0  0  0  0  0  0  0  0  0  0  0  0
   11.0080    0.6982    1.7540 H   0  0  0  0  0  0  0  0  0  0  0  0
   11.1355   -0.5893    0.5412 H   0  0  0  0  0  0  0  0  0  0  0  0
   11.4324   -1.0434    4.1894 H   0  0  0  0  0  0  0  0  0  0  0  0
   10.1462    0.1618    4.0777 H   0  0  0  0  0  0  0  0  0  0  0  0
    9.7642   -1.4996    4.5233 H   0  0  0  0  0  0  0  0  0  0  0  0
    8.0181   -2.3921    3.4361 H   0  0  0  0  0  0  0  0  0  0  0  0
    5.6691   -2.0937    2.9132 H   0  0  0  0  0  0  0  0  0  0  0  0
    2.8148   -1.0733   -0.5993 H   0  0  0  0  0  0  0  0  0  0  0  0
    0.6622   -1.9428    0.1979 H   0  0  0  0  0  0  0  0  0  0  0  0
   -0.7246    0.0994    1.8257 H   0  0  0  0  0  0  0  0  0  0  0  0
   -2.8119    0.8154    0.7513 H   0  0  0  0  0  0  0  0  0  0  0  0
   -5.8494   -2.3039    2.3497 H   0  0  0  0  0  0  0  0  0  0  0  0
   -8.2254   -2.6388    2.6999 H   0  0  0  0  0  0  0  0  0  0  0  0
  -10.0198   -3.7847    1.9856 H   0  0  0  0  0  0  0  0  0  0  0  0
  -10.3576   -3.6293    0.2633 H   0  0  0  0  0  0  0  0  0  0  0  0
  -11.6625   -3.4567    1.4408 H   0  0  0  0  0  0  0  0  0  0  0  0
  -10.4863   -0.1437    2.7796 H   0  0  0  0  0  0  0  0  0  0  0  0
  -10.1080   -1.7140    3.4833 H   0  0  0  0  0  0  0  0  0  0  0  0
  -11.7461   -1.3720    2.9339 H   0  0  0  0  0  0  0  0  0  0  0  0
  -11.1679    0.0302    0.3443 H   0  0  0  0  0  0  0  0  0  0  0  0
  -12.3192   -1.2821    0.5634 H   0  0  0  0  0  0  0  0  0  0  0  0
  -11.0986   -1.4023   -0.6986 H   0  0  0  0  0  0  0  0  0  0  0  0
   -9.1642   -0.1937   -0.6911 H   0  0  0  0  0  0  0  0  0  0  0  0
   -7.8212    1.1877   -2.4826 H   0  0  0  0  0  0  0  0  0  0  0  0
   -5.9649    4.4014   -3.1165 H   0  0  0  0  0  0  0  0  0  0  0  0
   -5.8395    4.6297   -4.8633 H   0  0  0  0  0  0  0  0  0  0  0  0
   -4.4928    3.9352   -3.9653 H   0  0  0  0  0  0  0  0  0  0  0  0
   -4.5163    1.8937   -5.5089 H   0  0  0  0  0  0  0  0  0  0  0  0
   -5.8659    2.5823   -6.4074 H   0  0  0  0  0  0  0  0  0  0  0  0
   -6.0021    0.9674   -5.7053 H   0  0  0  0  0  0  0  0  0  0  0  0
   -7.8847    3.3835   -5.2890 H   0  0  0  0  0  0  0  0  0  0  0  0
   -8.1401    3.1737   -3.5605 H   0  0  0  0  0  0  0  0  0  0  0  0
   -8.1556    1.7695   -4.6431 H   0  0  0  0  0  0  0  0  0  0  0  0
   -3.7026    1.9085   -3.4167 H   0  0  0  0  0  0  0  0  0  0  0  0
   -2.9858    0.5140   -1.5646 H   0  0  0  0  0  0  0  0  0  0  0  0
   -4.2580   -3.2058    0.8907 H   0  0  0  0  0  0  0  0  0  0  0  0
   -2.2013   -3.9128    2.0098 H   0  0  0  0  0  0  0  0  0  0  0  0
    1.9458   -1.3969    4.2433 H   0  0  0  0  0  0  0  0  0  0  0  0
    4.0664   -0.4757    3.4451 H   0  0  0  0  0  0  0  0  0  0  0  0
  1  2  1  0  0  0  0
  2  3  1  0  0  0  0
  2  4  1  0  0  0  0
  2  5  1  0  0  0  0
  5  6  2  0  0  0  0
  6  7  1  0  0  0  0
  7  8  2  0  0  0  0
  8  9  1  0  0  0  0
  9 10  2  0  0  0  0
  9 11  1  0  0  0  0
 11 12  2  0  0  0  0
 12 13  1  0  0  0  0
 13 14  1  0  0  0  0
 14 15  1  0  0  0  0
 14 16  1  0  0  0  0
 14 17  1  0  0  0  0
 13 18  2  0  0  0  0
 18 19  1  0  0  0  0
 19 20  2  0  0  0  0
 20 21  1  0  0  0  0
 21 22  1  0  0  0  0
 22 23  2  0  0  0  0
 23 24  1  0  0  0  0
 24 25  2  0  0  0  0
 25 26  1  0  0  0  0
 26 27  2  0  0  0  0
 27 28  1  0  0  0  0
 28 29  3  0  0  0  0
 27 30  1  0  0  0  0
 30 31  3  0  0  0  0
 26 32  1  0  0  0  0
 32 33  2  0  0  0  0
 33 34  1  0  0  0  0
 34 35  2  0  0  0  0
 35 36  1  0  0  0  0
 36 37  1  0  0  0  0
 37 38  2  0  0  0  0
 38 39  1  0  0  0  0
 39 40  2  0  0  0  0
 40 41  1  0  0  0  0
 41 42  1  0  0  0  0
 41 43  1  0  0  0  0
 41 44  1  0  0  0  0
 40 45  1  0  0  0  0
 45 46  2  0  0  0  0
 46 47  1  0  0  0  0
 47 48  2  0  0  0  0
 48 49  1  0  0  0  0
 49 50  1  0  0  0  0
 50 51  1  0  0  0  0
 50 52  1  0  0  0  0
 50 53  1  0  0  0  0
 49 54  2  0  0  0  0
 54 55  1  0  0  0  0
 55 56  2  0  0  0  0
 35 57  1  0  0  0  0
 57 58  2  0  0  0  0
 25 59  1  0  0  0  0
 59 60  2  0  0  0  0
 10  5  1  0  0  0  0
 20 11  1  0  0  0  0
 60 22  1  0  0  0  0
 21  8  1  0  0  0  0
 58 32  1  0  0  0  0
 56 36  1  0  0  0  0
 46 37  1  0  0  0  0
 56 47  1  0  0  0  0
  1 61  1  0  0  0  0
  1 62  1  0  0  0  0
  1 63  1  0  0  0  0
  3 64  1  0  0  0  0
  3 65  1  0  0  0  0
  3 66  1  0  0  0  0
  4 67  1  0  0  0  0
  4 68  1  0  0  0  0
  4 69  1  0  0  0  0
  6 70  1  0  0  0  0
  7 71  1  0  0  0  0
 10 72  1  0  0  0  0
 12 73  1  0  0  0  0
 15 74  1  0  0  0  0
 15 75  1  0  0  0  0
 15 76  1  0  0  0  0
 16 77  1  0  0  0  0
 16 78  1  0  0  0  0
 16 79  1  0  0  0  0
 17 80  1  0  0  0  0
 17 81  1  0  0  0  0
 17 82  1  0  0  0  0
 18 83  1  0  0  0  0
 19 84  1  0  0  0  0
 23 85  1  0  0  0  0
 24 86  1  0  0  0  0
 33 87  1  0  0  0  0
 34 88  1  0  0  0  0
 38 89  1  0  0  0  0
 39 90  1  0  0  0  0
 42 91  1  0  0  0  0
 42 92  1  0  0  0  0
 42 93  1  0  0  0  0
 43 94  1  0  0  0  0
 43 95  1  0  0  0  0
 43 96  1  0  0  0  0
 44 97  1  0  0  0  0
 44 98  1  0  0  0  0
 44 99  1  0  0  0  0
 45100  1  0  0  0  0
 48101  1  0  0  0  0
 51102  1  0  0  0  0
 51103  1  0  0  0  0
 51104  1  0  0  0  0
 52105  1  0  0  0  0
 52106  1  0  0  0  0
 52107  1  0  0  0  0
 53108  1  0  0  0  0
 53109  1  0  0  0  0
 53110  1  0  0  0  0
 54111  1  0  0  0  0
 55112  1  0  0  0  0
 57113  1  0  0  0  0
 58114  1  0  0  0  0
 59115  1  0  0  0  0
 60116  1  0  0  0  0
M  END
