
  xtb     03022211593D
 energy: -64.535260753304 gnorm: 0.000095928667 xtb: 6.4.1 (afa7bdf)
 42 45  0     0  0            999 V2000
   -3.4611    3.6725   -0.1668 C   0  0  0  0  0  0  0  0  0  0  0  0
   -2.3055    3.4895   -0.9084 C   0  0  0  0  0  0  0  0  0  0  0  0
   -1.6219    2.2903   -0.8542 C   0  0  0  0  0  0  0  0  0  0  0  0
   -2.0853    1.2557   -0.0429 C   0  0  0  0  0  0  0  0  0  0  0  0
   -1.3984    0.0340    0.0150 N   0  0  0  0  0  0  0  0  0  0  0  0
   -2.1324   -1.1594    0.0853 C   0  0  0  0  0  0  0  0  0  0  0  0
   -1.7081   -2.2038    0.9055 C   0  0  0  0  0  0  0  0  0  0  0  0
   -2.4398   -3.3736    0.9744 C   0  0  0  0  0  0  0  0  0  0  0  0
   -3.6042   -3.5173    0.2379 C   0  0  0  0  0  0  0  0  0  0  0  0
   -4.0322   -2.4799   -0.5743 C   0  0  0  0  0  0  0  0  0  0  0  0
   -3.3033   -1.3092   -0.6560 C   0  0  0  0  0  0  0  0  0  0  0  0
   -0.0089    0.0066    0.0095 C   0  0  0  0  0  0  0  0  0  0  0  0
    0.7307    1.0329    0.6062 C   0  0  0  0  0  0  0  0  0  0  0  0
    2.1050    0.9992    0.5957 C   0  0  0  0  0  0  0  0  0  0  0  0
    2.8002   -0.0516   -0.0115 C   0  0  0  0  0  0  0  0  0  0  0  0
    4.2608   -0.0369    0.0031 C   0  0  0  0  0  0  0  0  0  0  0  0
    5.0592   -0.9338   -0.7186 C   0  0  0  0  0  0  0  0  0  0  0  0
    6.4294   -0.7940   -0.6008 C   0  0  0  0  0  0  0  0  0  0  0  0
    6.9905    0.1404    0.1548 N   0  0  0  0  0  0  0  0  0  0  0  0
    6.1548    0.9432    0.7904 C   0  0  0  0  0  0  0  0  0  0  0  0
    4.8420    0.9066    0.7549 N   0  0  0  0  0  0  0  0  0  0  0  0
    2.0579   -1.0765   -0.6019 C   0  0  0  0  0  0  0  0  0  0  0  0
    0.6813   -1.0501   -0.5918 C   0  0  0  0  0  0  0  0  0  0  0  0
   -3.2476    1.4446    0.7029 C   0  0  0  0  0  0  0  0  0  0  0  0
   -3.9289    2.6446    0.6352 C   0  0  0  0  0  0  0  0  0  0  0  0
   -3.9940    4.6099   -0.2142 H   0  0  0  0  0  0  0  0  0  0  0  0
   -1.9374    4.2832   -1.5415 H   0  0  0  0  0  0  0  0  0  0  0  0
   -0.7273    2.1453   -1.4420 H   0  0  0  0  0  0  0  0  0  0  0  0
   -0.8069   -2.0881    1.4898 H   0  0  0  0  0  0  0  0  0  0  0  0
   -2.1029   -4.1746    1.6158 H   0  0  0  0  0  0  0  0  0  0  0  0
   -4.1752   -4.4313    0.2976 H   0  0  0  0  0  0  0  0  0  0  0  0
   -4.9367   -2.5852   -1.1548 H   0  0  0  0  0  0  0  0  0  0  0  0
   -3.6340   -0.5033   -1.2948 H   0  0  0  0  0  0  0  0  0  0  0  0
    0.2123    1.8494    1.0869 H   0  0  0  0  0  0  0  0  0  0  0  0
    2.6759    1.7843    1.0654 H   0  0  0  0  0  0  0  0  0  0  0  0
    4.6386   -1.6982   -1.3501 H   0  0  0  0  0  0  0  0  0  0  0  0
    7.1128   -1.4484   -1.1279 H   0  0  0  0  0  0  0  0  0  0  0  0
    6.5994    1.7148    1.4075 H   0  0  0  0  0  0  0  0  0  0  0  0
    2.5524   -1.9107   -1.0753 H   0  0  0  0  0  0  0  0  0  0  0  0
    0.1241   -1.8481   -1.0603 H   0  0  0  0  0  0  0  0  0  0  0  0
   -3.6089    0.6467    1.3351 H   0  0  0  0  0  0  0  0  0  0  0  0
   -4.8270    2.7799    1.2196 H   0  0  0  0  0  0  0  0  0  0  0  0
  1  2  2  0  0  0  0
  2  3  1  0  0  0  0
  3  4  2  0  0  0  0
  4  5  1  0  0  0  0
  5  6  1  0  0  0  0
  6  7  2  0  0  0  0
  7  8  1  0  0  0  0
  8  9  2  0  0  0  0
  9 10  1  0  0  0  0
 10 11  2  0  0  0  0
  5 12  1  0  0  0  0
 12 13  2  0  0  0  0
 13 14  1  0  0  0  0
 14 15  2  0  0  0  0
 15 16  1  0  0  0  0
 16 17  2  0  0  0  0
 17 18  1  0  0  0  0
 18 19  2  0  0  0  0
 19 20  1  0  0  0  0
 20 21  2  0  0  0  0
 15 22  1  0  0  0  0
 22 23  2  0  0  0  0
  4 24  1  0  0  0  0
 24 25  2  0  0  0  0
 25  1  1  0  0  0  0
 11  6  1  0  0  0  0
 23 12  1  0  0  0  0
 21 16  1  0  0  0  0
  1 26  1  0  0  0  0
  2 27  1  0  0  0  0
  3 28  1  0  0  0  0
  7 29  1  0  0  0  0
  8 30  1  0  0  0  0
  9 31  1  0  0  0  0
 10 32  1  0  0  0  0
 11 33  1  0  0  0  0
 13 34  1  0  0  0  0
 14 35  1  0  0  0  0
 17 36  1  0  0  0  0
 18 37  1  0  0  0  0
 20 38  1  0  0  0  0
 22 39  1  0  0  0  0
 23 40  1  0  0  0  0
 24 41  1  0  0  0  0
 25 42  1  0  0  0  0
M  END
