
  xtb     03022215483D
 energy: -63.054098861714 gnorm: 0.000110800610 xtb: 6.4.1 (afa7bdf)
 40 43  0     0  0            999 V2000
    3.5808    1.4264   -0.9530 O   0  0  0  0  0  0  0  0  0  0  0  0
    3.9505    0.1806   -0.6332 C   0  0  0  0  0  0  0  0  0  0  0  0
    5.3000   -0.1567   -0.7332 C   0  0  0  0  0  0  0  0  0  0  0  0
    5.7364   -1.4255   -0.4163 C   0  0  0  0  0  0  0  0  0  0  0  0
    4.8331   -2.3894    0.0092 C   0  0  0  0  0  0  0  0  0  0  0  0
    3.4950   -2.0738    0.1136 C   0  0  0  0  0  0  0  0  0  0  0  0
    3.0281   -0.7962   -0.2018 C   0  0  0  0  0  0  0  0  0  0  0  0
    1.6283   -0.4481   -0.0981 C   0  0  0  0  0  0  0  0  0  0  0  0
    1.1318    0.7407   -0.3847 N   0  0  0  0  0  0  0  0  0  0  0  0
   -0.2104    0.6892   -0.1650 C   0  0  0  0  0  0  0  0  0  0  0  0
   -1.0312    1.8790   -0.3400 C   0  0  0  0  0  0  0  0  0  0  0  0
   -0.6785    2.8175   -1.3079 C   0  0  0  0  0  0  0  0  0  0  0  0
   -1.4374    3.9587   -1.4838 C   0  0  0  0  0  0  0  0  0  0  0  0
   -2.5520    4.1825   -0.6926 C   0  0  0  0  0  0  0  0  0  0  0  0
   -2.8974    3.2633    0.2850 C   0  0  0  0  0  0  0  0  0  0  0  0
   -2.1426    2.1202    0.4655 C   0  0  0  0  0  0  0  0  0  0  0  0
   -0.5514   -0.5851    0.2641 C   0  0  0  0  0  0  0  0  0  0  0  0
   -1.8220   -1.2158    0.5714 C   0  0  0  0  0  0  0  0  0  0  0  0
   -1.9068   -2.1896    1.5669 C   0  0  0  0  0  0  0  0  0  0  0  0
   -3.1142   -2.8004    1.8492 C   0  0  0  0  0  0  0  0  0  0  0  0
   -4.2527   -2.4537    1.1416 C   0  0  0  0  0  0  0  0  0  0  0  0
   -4.1767   -1.4926    0.1458 C   0  0  0  0  0  0  0  0  0  0  0  0
   -2.9734   -0.8795   -0.1420 C   0  0  0  0  0  0  0  0  0  0  0  0
    0.6329   -1.2796    0.3091 N   0  0  0  0  0  0  0  0  0  0  0  0
    2.6028    1.5078   -0.8192 H   0  0  0  0  0  0  0  0  0  0  0  0
    5.9874    0.6054   -1.0649 H   0  0  0  0  0  0  0  0  0  0  0  0
    6.7851   -1.6682   -0.4998 H   0  0  0  0  0  0  0  0  0  0  0  0
    5.1741   -3.3829    0.2576 H   0  0  0  0  0  0  0  0  0  0  0  0
    2.8009   -2.8331    0.4453 H   0  0  0  0  0  0  0  0  0  0  0  0
    0.1921    2.6359   -1.9196 H   0  0  0  0  0  0  0  0  0  0  0  0
   -1.1591    4.6773   -2.2409 H   0  0  0  0  0  0  0  0  0  0  0  0
   -3.1466    5.0735   -0.8318 H   0  0  0  0  0  0  0  0  0  0  0  0
   -3.7578    3.4410    0.9140 H   0  0  0  0  0  0  0  0  0  0  0  0
   -2.4061    1.4149    1.2400 H   0  0  0  0  0  0  0  0  0  0  0  0
   -1.0288   -2.4518    2.1413 H   0  0  0  0  0  0  0  0  0  0  0  0
   -3.1670   -3.5480    2.6272 H   0  0  0  0  0  0  0  0  0  0  0  0
   -5.1953   -2.9307    1.3647 H   0  0  0  0  0  0  0  0  0  0  0  0
   -5.0606   -1.2230   -0.4130 H   0  0  0  0  0  0  0  0  0  0  0  0
   -2.9124   -0.1398   -0.9258 H   0  0  0  0  0  0  0  0  0  0  0  0
    0.7208   -2.2510    0.5550 H   0  0  0  0  0  0  0  0  0  0  0  0
  1  2  1  0  0  0  0
  2  3  2  0  0  0  0
  3  4  1  0  0  0  0
  4  5  2  0  0  0  0
  5  6  1  0  0  0  0
  6  7  2  0  0  0  0
  7  8  1  0  0  0  0
  8  9  2  0  0  0  0
  9 10  1  0  0  0  0
 10 11  1  0  0  0  0
 11 12  2  0  0  0  0
 12 13  1  0  0  0  0
 13 14  2  0  0  0  0
 14 15  1  0  0  0  0
 15 16  2  0  0  0  0
 10 17  2  0  0  0  0
 17 18  1  0  0  0  0
 18 19  2  0  0  0  0
 19 20  1  0  0  0  0
 20 21  2  0  0  0  0
 21 22  1  0  0  0  0
 22 23  2  0  0  0  0
 17 24  1  0  0  0  0
  7  2  1  0  0  0  0
 24  8  1  0  0  0  0
 16 11  1  0  0  0  0
 23 18  1  0  0  0  0
  1 25  1  0  0  0  0
  3 26  1  0  0  0  0
  4 27  1  0  0  0  0
  5 28  1  0  0  0  0
  6 29  1  0  0  0  0
 12 30  1  0  0  0  0
 13 31  1  0  0  0  0
 14 32  1  0  0  0  0
 15 33  1  0  0  0  0
 16 34  1  0  0  0  0
 19 35  1  0  0  0  0
 20 36  1  0  0  0  0
 21 37  1  0  0  0  0
 22 38  1  0  0  0  0
 23 39  1  0  0  0  0
 24 40  1  0  0  0  0
M  END
