
  xtb     03022212253D
 energy: -71.382189059899 gnorm: 0.000145069949 xtb: 6.4.1 (afa7bdf)
 53 56  0     0  0            999 V2000
   -4.9464   -1.1348   -1.4840 C   0  0  0  0  0  0  0  0  0  0  0  0
   -4.0854   -1.4953   -0.2651 C   0  0  0  0  0  0  0  0  0  0  0  0
   -4.9469   -1.4737    1.0054 C   0  0  0  0  0  0  0  0  0  0  0  0
   -3.5621   -2.9209   -0.4611 C   0  0  0  0  0  0  0  0  0  0  0  0
   -2.9647   -0.4756   -0.1228 C   0  0  0  0  0  0  0  0  0  0  0  0
   -3.2972    0.8755    0.0395 C   0  0  0  0  0  0  0  0  0  0  0  0
   -2.3496    1.8709    0.1702 C   0  0  0  0  0  0  0  0  0  0  0  0
   -1.0144    1.5049    0.1374 C   0  0  0  0  0  0  0  0  0  0  0  0
   -0.6514    0.1501    0.0016 C   0  0  0  0  0  0  0  0  0  0  0  0
   -1.6254   -0.8301   -0.1326 C   0  0  0  0  0  0  0  0  0  0  0  0
    0.7850    0.1026    0.0545 C   0  0  0  0  0  0  0  0  0  0  0  0
    1.7027   -0.9317   -0.0285 C   0  0  0  0  0  0  0  0  0  0  0  0
    3.0631   -0.6631    0.0534 C   0  0  0  0  0  0  0  0  0  0  0  0
    4.0512   -1.8177   -0.0387 C   0  0  0  0  0  0  0  0  0  0  0  0
    5.5093   -1.3656    0.0782 C   0  0  0  0  0  0  0  0  0  0  0  0
    3.7698   -2.8108    1.0979 C   0  0  0  0  0  0  0  0  0  0  0  0
    3.8771   -2.5167   -1.3946 C   0  0  0  0  0  0  0  0  0  0  0  0
    3.4723    0.6632    0.2111 C   0  0  0  0  0  0  0  0  0  0  0  0
    2.5780    1.7155    0.2945 C   0  0  0  0  0  0  0  0  0  0  0  0
    1.2265    1.4318    0.2232 C   0  0  0  0  0  0  0  0  0  0  0  0
    0.1298    2.2787    0.2608 N   0  0  0  0  0  0  0  0  0  0  0  0
    0.1547    3.6497    0.4012 C   0  0  0  0  0  0  0  0  0  0  0  0
   -0.5871    4.5700   -0.2804 C   0  0  0  0  0  0  0  0  0  0  0  0
   -0.3479    5.8930    0.1503 C   0  0  0  0  0  0  0  0  0  0  0  0
    0.5696    5.9674    1.1448 C   0  0  0  0  0  0  0  0  0  0  0  0
    1.1596    4.4171    1.6063 S   0  0  0  0  0  0  0  0  0  0  0  0
   -4.3367   -1.1270   -2.3852 H   0  0  0  0  0  0  0  0  0  0  0  0
   -5.4028   -0.1553   -1.3736 H   0  0  0  0  0  0  0  0  0  0  0  0
   -5.7412   -1.8670   -1.6111 H   0  0  0  0  0  0  0  0  0  0  0  0
   -5.4021   -0.4993    1.1594 H   0  0  0  0  0  0  0  0  0  0  0  0
   -4.3371   -1.7058    1.8761 H   0  0  0  0  0  0  0  0  0  0  0  0
   -5.7417   -2.2134    0.9328 H   0  0  0  0  0  0  0  0  0  0  0  0
   -4.4026   -3.6037   -0.5700 H   0  0  0  0  0  0  0  0  0  0  0  0
   -2.9768   -3.2447    0.3964 H   0  0  0  0  0  0  0  0  0  0  0  0
   -2.9521   -2.9932   -1.3587 H   0  0  0  0  0  0  0  0  0  0  0  0
   -4.3364    1.1653    0.0682 H   0  0  0  0  0  0  0  0  0  0  0  0
   -2.6485    2.8985    0.3095 H   0  0  0  0  0  0  0  0  0  0  0  0
   -1.3129   -1.8556   -0.2375 H   0  0  0  0  0  0  0  0  0  0  0  0
    1.3411   -1.9401   -0.1583 H   0  0  0  0  0  0  0  0  0  0  0  0
    6.1631   -2.2331    0.0107 H   0  0  0  0  0  0  0  0  0  0  0  0
    5.6936   -0.8806    1.0340 H   0  0  0  0  0  0  0  0  0  0  0  0
    5.7744   -0.6836   -0.7263 H   0  0  0  0  0  0  0  0  0  0  0  0
    2.7652   -3.2184    1.0293 H   0  0  0  0  0  0  0  0  0  0  0  0
    4.4761   -3.6376    1.0574 H   0  0  0  0  0  0  0  0  0  0  0  0
    3.8714   -2.3164    2.0618 H   0  0  0  0  0  0  0  0  0  0  0  0
    4.0545   -1.8128   -2.2052 H   0  0  0  0  0  0  0  0  0  0  0  0
    4.5858   -3.3371   -1.4881 H   0  0  0  0  0  0  0  0  0  0  0  0
    2.8742   -2.9188   -1.5073 H   0  0  0  0  0  0  0  0  0  0  0  0
    4.5216    0.8996    0.2707 H   0  0  0  0  0  0  0  0  0  0  0  0
    2.9382    2.7262    0.4099 H   0  0  0  0  0  0  0  0  0  0  0  0
   -1.2566    4.3105   -1.0802 H   0  0  0  0  0  0  0  0  0  0  0  0
   -0.8328    6.7519   -0.2779 H   0  0  0  0  0  0  0  0  0  0  0  0
    0.9510    6.8374    1.6404 H   0  0  0  0  0  0  0  0  0  0  0  0
  1  2  1  0  0  0  0
  2  3  1  0  0  0  0
  2  4  1  0  0  0  0
  2  5  1  0  0  0  0
  5  6  2  0  0  0  0
  6  7  1  0  0  0  0
  7  8  2  0  0  0  0
  8  9  1  0  0  0  0
  9 10  2  0  0  0  0
  9 11  1  0  0  0  0
 11 12  2  0  0  0  0
 12 13  1  0  0  0  0
 13 14  1  0  0  0  0
 14 15  1  0  0  0  0
 14 16  1  0  0  0  0
 14 17  1  0  0  0  0
 13 18  2  0  0  0  0
 18 19  1  0  0  0  0
 19 20  2  0  0  0  0
 20 21  1  0  0  0  0
 21 22  1  0  0  0  0
 22 23  2  0  0  0  0
 23 24  1  0  0  0  0
 24 25  2  0  0  0  0
 25 26  1  0  0  0  0
 10  5  1  0  0  0  0
 20 11  1  0  0  0  0
 26 22  1  0  0  0  0
 21  8  1  0  0  0  0
  1 27  1  0  0  0  0
  1 28  1  0  0  0  0
  1 29  1  0  0  0  0
  3 30  1  0  0  0  0
  3 31  1  0  0  0  0
  3 32  1  0  0  0  0
  4 33  1  0  0  0  0
  4 34  1  0  0  0  0
  4 35  1  0  0  0  0
  6 36  1  0  0  0  0
  7 37  1  0  0  0  0
 10 38  1  0  0  0  0
 12 39  1  0  0  0  0
 15 40  1  0  0  0  0
 15 41  1  0  0  0  0
 15 42  1  0  0  0  0
 16 43  1  0  0  0  0
 16 44  1  0  0  0  0
 16 45  1  0  0  0  0
 17 46  1  0  0  0  0
 17 47  1  0  0  0  0
 17 48  1  0  0  0  0
 18 49  1  0  0  0  0
 19 50  1  0  0  0  0
 23 51  1  0  0  0  0
 24 52  1  0  0  0  0
 25 53  1  0  0  0  0
M  END
