
  xtb     03022212263D
 energy: -68.397829873072 gnorm: 0.000063315907 xtb: 6.4.1 (afa7bdf)
 38 41  0     0  0            999 V2000
   -5.9904   -1.1276    0.6124 C   0  0  0  0  0  0  0  0  0  0  0  0
   -5.2931    0.0536    0.1646 N   0  0  0  0  0  0  0  0  0  0  0  0
   -6.0647    1.2060   -0.2344 C   0  0  0  0  0  0  0  0  0  0  0  0
   -3.9349    0.0816    0.1208 C   0  0  0  0  0  0  0  0  0  0  0  0
   -3.1646   -1.0398    0.4937 C   0  0  0  0  0  0  0  0  0  0  0  0
   -1.7947   -1.0090    0.4489 C   0  0  0  0  0  0  0  0  0  0  0  0
   -1.1145    0.1413    0.0303 C   0  0  0  0  0  0  0  0  0  0  0  0
    0.3274    0.1783   -0.0171 C   0  0  0  0  0  0  0  0  0  0  0  0
    0.9817   -0.9139    0.3480 N   0  0  0  0  0  0  0  0  0  0  0  0
    2.2985   -0.8919    0.3095 C   0  0  0  0  0  0  0  0  0  0  0  0
    3.2205   -2.2940    0.7751 S   0  0  0  0  0  0  0  0  0  0  0  0
    4.6980   -1.4174    0.4365 C   0  0  0  0  0  0  0  0  0  0  0  0
    6.0075   -1.8489    0.5563 C   0  0  0  0  0  0  0  0  0  0  0  0
    7.0177   -0.9644    0.2260 C   0  0  0  0  0  0  0  0  0  0  0  0
    6.7277    0.3241   -0.2146 C   0  0  0  0  0  0  0  0  0  0  0  0
    5.4242    0.7613   -0.3366 C   0  0  0  0  0  0  0  0  0  0  0  0
    4.4013   -0.1193   -0.0074 C   0  0  0  0  0  0  0  0  0  0  0  0
    3.0541    0.1320   -0.0638 N   0  0  0  0  0  4  0  0  0  0  0  0
    2.3522    1.4709   -0.5133 B   0  0  0  0  0  4  0  0  0  0  0  0
    2.7492    2.4824    0.3215 F   0  0  0  0  0  0  0  0  0  0  0  0
    2.7022    1.7423   -1.8099 F   0  0  0  0  0  0  0  0  0  0  0  0
    0.8906    1.2766   -0.4136 O   0  0  0  0  0  0  0  0  0  0  0  0
   -1.8698    1.2604   -0.3424 C   0  0  0  0  0  0  0  0  0  0  0  0
   -3.2396    1.2342   -0.2996 C   0  0  0  0  0  0  0  0  0  0  0  0
   -7.0620   -0.9466    0.5946 H   0  0  0  0  0  0  0  0  0  0  0  0
   -5.7066   -1.3875    1.6360 H   0  0  0  0  0  0  0  0  0  0  0  0
   -5.7784   -1.9815   -0.0375 H   0  0  0  0  0  0  0  0  0  0  0  0
   -7.1249    0.9824   -0.1480 H   0  0  0  0  0  0  0  0  0  0  0  0
   -5.8583    1.4767   -1.2736 H   0  0  0  0  0  0  0  0  0  0  0  0
   -5.8453    2.0678    0.4024 H   0  0  0  0  0  0  0  0  0  0  0  0
   -3.6484   -1.9449    0.8206 H   0  0  0  0  0  0  0  0  0  0  0  0
   -1.2154   -1.8717    0.7356 H   0  0  0  0  0  0  0  0  0  0  0  0
    6.2240   -2.8481    0.8983 H   0  0  0  0  0  0  0  0  0  0  0  0
    8.0461   -1.2799    0.3121 H   0  0  0  0  0  0  0  0  0  0  0  0
    7.5361    0.9932   -0.4654 H   0  0  0  0  0  0  0  0  0  0  0  0
    5.1785    1.7539   -0.6756 H   0  0  0  0  0  0  0  0  0  0  0  0
   -1.3515    2.1497   -0.6655 H   0  0  0  0  0  0  0  0  0  0  0  0
   -3.7802    2.1179   -0.5939 H   0  0  0  0  0  0  0  0  0  0  0  0
  1  2  1  0  0  0  0
  2  3  1  0  0  0  0
  2  4  1  0  0  0  0
  4  5  2  0  0  0  0
  5  6  1  0  0  0  0
  6  7  2  0  0  0  0
  7  8  1  0  0  0  0
  8  9  2  0  0  0  0
  9 10  1  0  0  0  0
 10 11  1  0  0  0  0
 11 12  1  0  0  0  0
 12 13  2  0  0  0  0
 13 14  1  0  0  0  0
 14 15  2  0  0  0  0
 15 16  1  0  0  0  0
 16 17  2  0  0  0  0
 17 18  1  0  0  0  0
 18 19  1  0  0  0  0
 19 20  1  0  0  0  0
 19 21  1  0  0  0  0
 19 22  1  0  0  0  0
  7 23  1  0  0  0  0
 23 24  2  0  0  0  0
 24  4  1  0  0  0  0
 22  8  1  0  0  0  0
 18 10  2  0  0  0  0
 17 12  1  0  0  0  0
  1 25  1  0  0  0  0
  1 26  1  0  0  0  0
  1 27  1  0  0  0  0
  3 28  1  0  0  0  0
  3 29  1  0  0  0  0
  3 30  1  0  0  0  0
  5 31  1  0  0  0  0
  6 32  1  0  0  0  0
 13 33  1  0  0  0  0
 14 34  1  0  0  0  0
 15 35  1  0  0  0  0
 16 36  1  0  0  0  0
 23 37  1  0  0  0  0
 24 38  1  0  0  0  0
M  CHG  1  18   1
M  CHG  1  19  -1
M  END
