
  xtb     03022213303D
 energy: -63.565103533087 gnorm: 0.000617618370 xtb: 6.4.1 (afa7bdf)
 42 44  0     0  0            999 V2000
    5.4613   -2.7324    0.2171 C   0  0  0  0  0  0  0  0  0  0  0  0
    5.1351   -1.4309    0.6350 O   0  0  0  0  0  0  0  0  0  0  0  0
    3.8579   -0.9876    0.4418 C   0  0  0  0  0  0  0  0  0  0  0  0
    3.5877    0.3070    0.8889 C   0  0  0  0  0  0  0  0  0  0  0  0
    2.3317    0.8520    0.7502 C   0  0  0  0  0  0  0  0  0  0  0  0
    1.3050    0.1228    0.1465 C   0  0  0  0  0  0  0  0  0  0  0  0
    0.0242    0.6728    0.0036 N   0  0  0  0  0  0  0  0  0  0  0  0
   -0.1309    2.0210   -0.3233 C   0  0  0  0  0  0  0  0  0  0  0  0
   -1.2014    2.7559    0.1884 C   0  0  0  0  0  0  0  0  0  0  0  0
   -1.3565    4.0870   -0.1444 C   0  0  0  0  0  0  0  0  0  0  0  0
   -0.4481    4.7130   -0.9822 C   0  0  0  0  0  0  0  0  0  0  0  0
    0.6205    3.9911   -1.4877 C   0  0  0  0  0  0  0  0  0  0  0  0
    0.7799    2.6571   -1.1679 C   0  0  0  0  0  0  0  0  0  0  0  0
   -1.1000   -0.1453    0.1778 C   0  0  0  0  0  0  0  0  0  0  0  0
   -1.1173   -1.1268    1.1710 C   0  0  0  0  0  0  0  0  0  0  0  0
   -2.2179   -1.9367    1.3346 C   0  0  0  0  0  0  0  0  0  0  0  0
   -3.3419   -1.7869    0.5203 C   0  0  0  0  0  0  0  0  0  0  0  0
   -4.3786   -2.6395    0.7723 O   0  0  0  0  0  0  0  0  0  0  0  0
   -5.5367   -2.5354   -0.0172 C   0  0  0  0  0  0  0  0  0  0  0  0
   -3.3321   -0.8079   -0.4660 C   0  0  0  0  0  0  0  0  0  0  0  0
   -2.2193   -0.0036   -0.6362 C   0  0  0  0  0  0  0  0  0  0  0  0
    1.5793   -1.1652   -0.3020 C   0  0  0  0  0  0  0  0  0  0  0  0
    2.8377   -1.7204   -0.1528 C   0  0  0  0  0  0  0  0  0  0  0  0
    5.3343   -2.8536   -0.8638 H   0  0  0  0  0  0  0  0  0  0  0  0
    4.8618   -3.4854    0.7393 H   0  0  0  0  0  0  0  0  0  0  0  0
    6.5112   -2.8700    0.4718 H   0  0  0  0  0  0  0  0  0  0  0  0
    4.3850    0.8645    1.3543 H   0  0  0  0  0  0  0  0  0  0  0  0
    2.1339    1.8503    1.1109 H   0  0  0  0  0  0  0  0  0  0  0  0
   -1.9053    2.2748    0.8517 H   0  0  0  0  0  0  0  0  0  0  0  0
   -2.1885    4.6436    0.2627 H   0  0  0  0  0  0  0  0  0  0  0  0
   -0.5717    5.7544   -1.2383 H   0  0  0  0  0  0  0  0  0  0  0  0
    1.3315    4.4682   -2.1466 H   0  0  0  0  0  0  0  0  0  0  0  0
    1.6084    2.0953   -1.5740 H   0  0  0  0  0  0  0  0  0  0  0  0
   -0.2580   -1.2466    1.8136 H   0  0  0  0  0  0  0  0  0  0  0  0
   -2.2382   -2.6959    2.1001 H   0  0  0  0  0  0  0  0  0  0  0  0
   -5.3230   -2.7240   -1.0745 H   0  0  0  0  0  0  0  0  0  0  0  0
   -6.0093   -1.5530    0.0877 H   0  0  0  0  0  0  0  0  0  0  0  0
   -6.2164   -3.3015    0.3531 H   0  0  0  0  0  0  0  0  0  0  0  0
   -4.1797   -0.6641   -1.1174 H   0  0  0  0  0  0  0  0  0  0  0  0
   -2.2200    0.7467   -1.4131 H   0  0  0  0  0  0  0  0  0  0  0  0
    0.7964   -1.7417   -0.7726 H   0  0  0  0  0  0  0  0  0  0  0  0
    3.0078   -2.7227   -0.5133 H   0  0  0  0  0  0  0  0  0  0  0  0
  1  2  1  0  0  0  0
  2  3  1  0  0  0  0
  3  4  2  0  0  0  0
  4  5  1  0  0  0  0
  5  6  2  0  0  0  0
  6  7  1  0  0  0  0
  7  8  1  0  0  0  0
  8  9  2  0  0  0  0
  9 10  1  0  0  0  0
 10 11  2  0  0  0  0
 11 12  1  0  0  0  0
 12 13  2  0  0  0  0
  7 14  1  0  0  0  0
 14 15  2  0  0  0  0
 15 16  1  0  0  0  0
 16 17  2  0  0  0  0
 17 18  1  0  0  0  0
 18 19  1  0  0  0  0
 17 20  1  0  0  0  0
 20 21  2  0  0  0  0
  6 22  1  0  0  0  0
 22 23  2  0  0  0  0
 23  3  1  0  0  0  0
 13  8  1  0  0  0  0
 21 14  1  0  0  0  0
  1 24  1  0  0  0  0
  1 25  1  0  0  0  0
  1 26  1  0  0  0  0
  4 27  1  0  0  0  0
  5 28  1  0  0  0  0
  9 29  1  0  0  0  0
 10 30  1  0  0  0  0
 11 31  1  0  0  0  0
 12 32  1  0  0  0  0
 13 33  1  0  0  0  0
 15 34  1  0  0  0  0
 16 35  1  0  0  0  0
 19 36  1  0  0  0  0
 19 37  1  0  0  0  0
 19 38  1  0  0  0  0
 20 39  1  0  0  0  0
 21 40  1  0  0  0  0
 22 41  1  0  0  0  0
 23 42  1  0  0  0  0
M  END
