
  xtb     03022216043D
 energy: -124.951462862700 gnorm: 0.000684677865 xtb: 6.4.1 (afa7bdf)
 79 85  0     0  0            999 V2000
   -0.9305   -5.7611    5.5269 C   0  0  0  0  0  0  0  0  0  0  0  0
    0.0398   -4.5993    5.7091 C   0  0  0  0  0  0  0  0  0  0  0  0
   -0.1396   -3.4984    4.6642 C   0  0  0  0  0  0  0  0  0  0  0  0
    0.2992   -3.9432    3.2650 C   0  0  0  0  0  0  0  0  0  0  0  0
    0.2483   -2.8303    2.3372 N   0  0  0  0  0  0  0  0  0  0  0  0
    1.3446   -2.5359    1.5366 C   0  0  0  0  0  0  0  0  0  0  0  0
    2.2351   -3.5287    1.1197 C   0  0  0  0  0  0  0  0  0  0  0  0
    3.3305   -3.2250    0.3405 C   0  0  0  0  0  0  0  0  0  0  0  0
    3.5905   -1.9183   -0.0816 C   0  0  0  0  0  0  0  0  0  0  0  0
    4.7638   -1.6568   -0.8839 C   0  0  0  0  0  0  0  0  0  0  0  0
    5.1724   -0.4613   -1.3369 C   0  0  0  0  0  0  0  0  0  0  0  0
    6.3719   -0.2557   -2.1262 C   0  0  0  0  0  0  0  0  0  0  0  0
    7.4491   -1.0814   -2.0238 C   0  0  0  0  0  0  0  0  0  0  0  0
    8.6727   -0.8852   -2.7655 C   0  0  0  0  0  0  0  0  0  0  0  0
    9.6429   -1.6024   -2.7110 O   0  0  0  0  0  0  0  0  0  0  0  0
    8.7276    0.2108   -3.5863 O   0  0  0  0  0  0  0  0  0  0  0  0
    7.6788    1.0516   -3.7227 C   0  0  0  0  0  0  0  0  0  0  0  0
    7.8496    2.1212   -4.6001 C   0  0  0  0  0  0  0  0  0  0  0  0
    6.8270    3.0219   -4.8217 C   0  0  0  0  0  0  0  0  0  0  0  0
    7.0010    4.1814   -5.7506 C   0  0  0  0  0  0  0  0  0  0  0  0
    5.6128    2.8324   -4.1554 C   0  0  0  0  0  0  0  0  0  0  0  0
    5.4370    1.7838   -3.2855 C   0  0  0  0  0  0  0  0  0  0  0  0
    6.4695    0.8720   -3.0324 C   0  0  0  0  0  0  0  0  0  0  0  0
    2.6794   -0.9295    0.3007 C   0  0  0  0  0  0  0  0  0  0  0  0
    1.5906   -1.2320    1.0902 C   0  0  0  0  0  0  0  0  0  0  0  0
    0.5226    0.0947    1.5810 S   0  0  0  0  0  0  0  0  0  0  0  0
   -0.9865   -0.8218    1.7424 C   0  0  0  0  0  0  0  0  0  0  0  0
   -2.1746   -0.1573    1.5249 C   0  0  0  0  0  0  0  0  0  0  0  0
   -3.4031   -0.8006    1.7008 C   0  0  0  0  0  0  0  0  0  0  0  0
   -4.6796   -0.1515    1.5067 C   0  0  0  0  0  0  0  0  0  0  0  0
   -4.8820    1.1113    1.0998 C   0  0  0  0  0  0  0  0  0  0  0  0
   -6.1931    1.7104    0.9354 C   0  0  0  0  0  0  0  0  0  0  0  0
   -7.2603    1.3152    1.6818 C   0  0  0  0  0  0  0  0  0  0  0  0
   -8.5708    1.9118    1.5697 C   0  0  0  0  0  0  0  0  0  0  0  0
   -9.5442    1.5790    2.2023 O   0  0  0  0  0  0  0  0  0  0  0  0
   -8.7035    2.9467    0.6810 O   0  0  0  0  0  0  0  0  0  0  0  0
   -7.6722    3.3638   -0.0858 C   0  0  0  0  0  0  0  0  0  0  0  0
   -7.9364    4.4088   -0.9696 C   0  0  0  0  0  0  0  0  0  0  0  0
   -6.9516    4.8868   -1.8110 C   0  0  0  0  0  0  0  0  0  0  0  0
   -7.2185    6.0138   -2.7576 C   0  0  0  0  0  0  0  0  0  0  0  0
   -5.6862    4.2943   -1.7646 C   0  0  0  0  0  0  0  0  0  0  0  0
   -5.4150    3.2679   -0.8927 C   0  0  0  0  0  0  0  0  0  0  0  0
   -6.3956    2.7835   -0.0180 C   0  0  0  0  0  0  0  0  0  0  0  0
   -3.3723   -2.1436    2.0867 C   0  0  0  0  0  0  0  0  0  0  0  0
   -2.1842   -2.8103    2.2924 C   0  0  0  0  0  0  0  0  0  0  0  0
   -0.9549   -2.1653    2.1336 C   0  0  0  0  0  0  0  0  0  0  0  0
   -0.7374   -6.2972    4.6010 H   0  0  0  0  0  0  0  0  0  0  0  0
   -0.8294   -6.4659    6.3486 H   0  0  0  0  0  0  0  0  0  0  0  0
   -1.9569   -5.4007    5.5120 H   0  0  0  0  0  0  0  0  0  0  0  0
   -0.1188   -4.1617    6.6967 H   0  0  0  0  0  0  0  0  0  0  0  0
    1.0663   -4.9714    5.6748 H   0  0  0  0  0  0  0  0  0  0  0  0
    0.4647   -2.6330    4.9468 H   0  0  0  0  0  0  0  0  0  0  0  0
   -1.1833   -3.1806    4.6497 H   0  0  0  0  0  0  0  0  0  0  0  0
   -0.3077   -4.7839    2.9122 H   0  0  0  0  0  0  0  0  0  0  0  0
    1.3357   -4.2759    3.3305 H   0  0  0  0  0  0  0  0  0  0  0  0
    2.0611   -4.5567    1.3963 H   0  0  0  0  0  0  0  0  0  0  0  0
    4.0002   -4.0197    0.0462 H   0  0  0  0  0  0  0  0  0  0  0  0
    5.3387   -2.5370   -1.1415 H   0  0  0  0  0  0  0  0  0  0  0  0
    4.5936    0.4226   -1.1169 H   0  0  0  0  0  0  0  0  0  0  0  0
    7.4581   -1.9216   -1.3485 H   0  0  0  0  0  0  0  0  0  0  0  0
    8.7999    2.2183   -5.1014 H   0  0  0  0  0  0  0  0  0  0  0  0
    6.9894    5.1147   -5.1876 H   0  0  0  0  0  0  0  0  0  0  0  0
    6.1848    4.2185   -6.4702 H   0  0  0  0  0  0  0  0  0  0  0  0
    7.9428    4.1133   -6.2878 H   0  0  0  0  0  0  0  0  0  0  0  0
    4.8018    3.5234   -4.3321 H   0  0  0  0  0  0  0  0  0  0  0  0
    4.4823    1.6586   -2.7997 H   0  0  0  0  0  0  0  0  0  0  0  0
    2.8177    0.0974    0.0027 H   0  0  0  0  0  0  0  0  0  0  0  0
   -2.1286    0.8819    1.2410 H   0  0  0  0  0  0  0  0  0  0  0  0
   -5.5392   -0.7830    1.6914 H   0  0  0  0  0  0  0  0  0  0  0  0
   -4.0394    1.7448    0.8689 H   0  0  0  0  0  0  0  0  0  0  0  0
   -7.1747    0.5439    2.4300 H   0  0  0  0  0  0  0  0  0  0  0  0
   -8.9316    4.8251   -0.9790 H   0  0  0  0  0  0  0  0  0  0  0  0
   -6.6292    6.8860   -2.4754 H   0  0  0  0  0  0  0  0  0  0  0  0
   -6.9327    5.7348   -3.7706 H   0  0  0  0  0  0  0  0  0  0  0  0
   -8.2695    6.2888   -2.7509 H   0  0  0  0  0  0  0  0  0  0  0  0
   -4.9131    4.6515   -2.4288 H   0  0  0  0  0  0  0  0  0  0  0  0
   -4.4327    2.8227   -0.8929 H   0  0  0  0  0  0  0  0  0  0  0  0
   -4.3022   -2.6758    2.2240 H   0  0  0  0  0  0  0  0  0  0  0  0
   -2.2126   -3.8507    2.5725 H   0  0  0  0  0  0  0  0  0  0  0  0
  1  2  1  0  0  0  0
  2  3  1  0  0  0  0
  3  4  1  0  0  0  0
  4  5  1  0  0  0  0
  5  6  1  0  0  0  0
  6  7  2  0  0  0  0
  7  8  1  0  0  0  0
  8  9  2  0  0  0  0
  9 10  1  0  0  0  0
 10 11  2  0  0  0  0
 11 12  1  0  0  0  0
 12 13  2  0  0  0  0
 13 14  1  0  0  0  0
 14 15  2  0  0  0  0
 14 16  1  0  0  0  0
 16 17  1  0  0  0  0
 17 18  2  0  0  0  0
 18 19  1  0  0  0  0
 19 20  1  0  0  0  0
 19 21  2  0  0  0  0
 21 22  1  0  0  0  0
 22 23  2  0  0  0  0
  9 24  1  0  0  0  0
 24 25  2  0  0  0  0
 25 26  1  0  0  0  0
 26 27  1  0  0  0  0
 27 28  2  0  0  0  0
 28 29  1  0  0  0  0
 29 30  1  0  0  0  0
 30 31  2  0  0  0  0
 31 32  1  0  0  0  0
 32 33  2  0  0  0  0
 33 34  1  0  0  0  0
 34 35  2  0  0  0  0
 34 36  1  0  0  0  0
 36 37  1  0  0  0  0
 37 38  2  0  0  0  0
 38 39  1  0  0  0  0
 39 40  1  0  0  0  0
 39 41  2  0  0  0  0
 41 42  1  0  0  0  0
 42 43  2  0  0  0  0
 29 44  2  0  0  0  0
 44 45  1  0  0  0  0
 45 46  2  0  0  0  0
 46  5  1  0  0  0  0
 25  6  1  0  0  0  0
 46 27  1  0  0  0  0
 23 12  1  0  0  0  0
 43 32  1  0  0  0  0
 23 17  1  0  0  0  0
 43 37  1  0  0  0  0
  1 47  1  0  0  0  0
  1 48  1  0  0  0  0
  1 49  1  0  0  0  0
  2 50  1  0  0  0  0
  2 51  1  0  0  0  0
  3 52  1  0  0  0  0
  3 53  1  0  0  0  0
  4 54  1  0  0  0  0
  4 55  1  0  0  0  0
  7 56  1  0  0  0  0
  8 57  1  0  0  0  0
 10 58  1  0  0  0  0
 11 59  1  0  0  0  0
 13 60  1  0  0  0  0
 18 61  1  0  0  0  0
 20 62  1  0  0  0  0
 20 63  1  0  0  0  0
 20 64  1  0  0  0  0
 21 65  1  0  0  0  0
 22 66  1  0  0  0  0
 24 67  1  0  0  0  0
 28 68  1  0  0  0  0
 30 69  1  0  0  0  0
 31 70  1  0  0  0  0
 33 71  1  0  0  0  0
 38 72  1  0  0  0  0
 40 73  1  0  0  0  0
 40 74  1  0  0  0  0
 40 75  1  0  0  0  0
 41 76  1  0  0  0  0
 42 77  1  0  0  0  0
 44 78  1  0  0  0  0
 45 79  1  0  0  0  0
M  END
