
  xtb     03022215023D
 energy: -44.848909230812 gnorm: 0.000201386849 xtb: 6.4.1 (afa7bdf)
 32 34  0     0  0            999 V2000
   -4.7513    1.2298   -0.0529 C   0  0  0  0  0  0  0  0  0  0  0  0
   -3.3629    0.6757    0.0282 C   0  0  0  0  0  0  0  0  0  0  0  0
   -3.1910   -0.7273    0.1203 C   0  0  0  0  0  0  0  0  0  0  0  0
   -1.9623   -1.3135    0.1931 C   0  0  0  0  0  0  0  0  0  0  0  0
   -1.8388   -2.8043    0.2901 C   0  0  0  0  0  0  0  0  0  0  0  0
   -0.7900   -0.4933    0.1757 C   0  0  0  0  0  0  0  0  0  0  0  0
    0.4964   -1.0206    0.2413 C   0  0  0  0  0  0  0  0  0  0  0  0
    1.6223   -0.1995    0.2199 C   0  0  0  0  0  0  0  0  0  0  0  0
    2.9482   -0.6917    0.2779 C   0  0  0  0  0  0  0  0  0  0  0  0
    4.0048    0.1776    0.2483 C   0  0  0  0  0  0  0  0  0  0  0  0
    5.4269   -0.2913    0.3010 C   0  0  0  0  0  0  0  0  0  0  0  0
    3.8354    1.5194    0.1689 N   0  0  0  0  0  0  0  0  0  0  0  0
    2.6334    2.0030    0.1154 C   0  0  0  0  0  0  0  0  0  0  0  0
    1.4528    1.2155    0.1325 C   0  0  0  0  0  0  0  0  0  0  0  0
    0.1704    1.7487    0.0674 C   0  0  0  0  0  0  0  0  0  0  0  0
   -0.9536    0.9280    0.0851 C   0  0  0  0  0  0  0  0  0  0  0  0
   -2.2599    1.4745    0.0133 C   0  0  0  0  0  0  0  0  0  0  0  0
   -5.2497    0.8666   -0.9515 H   0  0  0  0  0  0  0  0  0  0  0  0
   -5.3390    0.9070    0.8057 H   0  0  0  0  0  0  0  0  0  0  0  0
   -4.7371    2.3163   -0.0784 H   0  0  0  0  0  0  0  0  0  0  0  0
   -4.0784   -1.3456    0.1322 H   0  0  0  0  0  0  0  0  0  0  0  0
   -1.3196   -3.0888    1.2046 H   0  0  0  0  0  0  0  0  0  0  0  0
   -2.8228   -3.2665    0.2958 H   0  0  0  0  0  0  0  0  0  0  0  0
   -1.2779   -3.1997   -0.5561 H   0  0  0  0  0  0  0  0  0  0  0  0
    0.6443   -2.0877    0.3088 H   0  0  0  0  0  0  0  0  0  0  0  0
    3.1152   -1.7574    0.3439 H   0  0  0  0  0  0  0  0  0  0  0  0
    6.0903    0.5673    0.2592 H   0  0  0  0  0  0  0  0  0  0  0  0
    5.6131   -0.8430    1.2211 H   0  0  0  0  0  0  0  0  0  0  0  0
    5.6419   -0.9512   -0.5380 H   0  0  0  0  0  0  0  0  0  0  0  0
    2.5533    3.0824    0.0532 H   0  0  0  0  0  0  0  0  0  0  0  0
    0.0452    2.8207    0.0002 H   0  0  0  0  0  0  0  0  0  0  0  0
   -2.3595    2.5488   -0.0552 H   0  0  0  0  0  0  0  0  0  0  0  0
  1  2  1  0  0  0  0
  2  3  2  0  0  0  0
  3  4  1  0  0  0  0
  4  5  1  0  0  0  0
  4  6  2  0  0  0  0
  6  7  1  0  0  0  0
  7  8  2  0  0  0  0
  8  9  1  0  0  0  0
  9 10  2  0  0  0  0
 10 11  1  0  0  0  0
 10 12  1  0  0  0  0
 12 13  2  0  0  0  0
 13 14  1  0  0  0  0
 14 15  2  0  0  0  0
 15 16  1  0  0  0  0
 16 17  2  0  0  0  0
 17  2  1  0  0  0  0
 16  6  1  0  0  0  0
 14  8  1  0  0  0  0
  1 18  1  0  0  0  0
  1 19  1  0  0  0  0
  1 20  1  0  0  0  0
  3 21  1  0  0  0  0
  5 22  1  0  0  0  0
  5 23  1  0  0  0  0
  5 24  1  0  0  0  0
  7 25  1  0  0  0  0
  9 26  1  0  0  0  0
 11 27  1  0  0  0  0
 11 28  1  0  0  0  0
 11 29  1  0  0  0  0
 13 30  1  0  0  0  0
 15 31  1  0  0  0  0
 17 32  1  0  0  0  0
M  END
