
  xtb     03022216003D
 energy: -59.000041981970 gnorm: 0.000175045015 xtb: 6.4.1 (afa7bdf)
 30 32  0     0  0            999 V2000
    0.7465   -0.3116    1.8327 O   0  0  0  0  0  0  0  0  0  0  0  0
   -0.3144   -0.2387    1.2592 C   0  0  0  0  0  0  0  0  0  0  0  0
   -1.4131   -1.0092    1.5382 N   0  0  0  0  0  0  0  0  0  0  0  0
   -2.4963   -0.6786    0.7413 C   0  0  0  0  0  0  0  0  0  0  0  0
   -3.7671   -1.2135    0.7241 C   0  0  0  0  0  0  0  0  0  0  0  0
   -4.6741   -0.6882   -0.1886 C   0  0  0  0  0  0  0  0  0  0  0  0
   -4.3166    0.3357   -1.0527 C   0  0  0  0  0  0  0  0  0  0  0  0
   -3.0368    0.8716   -1.0325 C   0  0  0  0  0  0  0  0  0  0  0  0
   -2.1220    0.3608   -0.1293 C   0  0  0  0  0  0  0  0  0  0  0  0
   -0.7301    0.6796    0.1447 C   0  0  0  0  0  0  0  0  0  0  0  0
    0.0273    1.6215   -0.4339 C   0  0  0  0  0  0  0  0  0  0  0  0
    1.4278    1.9567   -0.0651 C   0  0  0  0  0  0  0  0  0  0  0  0
    1.7327    3.1032    0.1727 O   0  0  0  0  0  0  0  0  0  0  0  0
    2.3883    0.8263   -0.0627 C   0  0  0  0  0  0  0  0  0  0  0  0
    2.2125   -0.2316   -0.9551 C   0  0  0  0  0  0  0  0  0  0  0  0
    3.0945   -1.2904   -1.0009 C   0  0  0  0  0  0  0  0  0  0  0  0
    4.1731   -1.3065   -0.1265 C   0  0  0  0  0  0  0  0  0  0  0  0
    5.2742   -2.6280   -0.1579 Cl  0  0  0  0  0  0  0  0  0  0  0  0
    4.3773   -0.2733    0.7712 C   0  0  0  0  0  0  0  0  0  0  0  0
    3.4943    0.7963    0.7940 C   0  0  0  0  0  0  0  0  0  0  0  0
    3.7667    2.0445    1.9303 Cl  0  0  0  0  0  0  0  0  0  0  0  0
   -1.4249   -1.7095    2.2623 H   0  0  0  0  0  0  0  0  0  0  0  0
   -4.0500   -2.0097    1.3951 H   0  0  0  0  0  0  0  0  0  0  0  0
   -5.6769   -1.0863   -0.2223 H   0  0  0  0  0  0  0  0  0  0  0  0
   -5.0452    0.7222   -1.7485 H   0  0  0  0  0  0  0  0  0  0  0  0
   -2.7645    1.6708   -1.7043 H   0  0  0  0  0  0  0  0  0  0  0  0
   -0.4188    2.2911   -1.1592 H   0  0  0  0  0  0  0  0  0  0  0  0
    1.3722   -0.2121   -1.6334 H   0  0  0  0  0  0  0  0  0  0  0  0
    2.9504   -2.0996   -1.6989 H   0  0  0  0  0  0  0  0  0  0  0  0
    5.2131   -0.2936    1.4518 H   0  0  0  0  0  0  0  0  0  0  0  0
  1  2  2  0  0  0  0
  2  3  1  0  0  0  0
  3  4  1  0  0  0  0
  4  5  2  0  0  0  0
  5  6  1  0  0  0  0
  6  7  2  0  0  0  0
  7  8  1  0  0  0  0
  8  9  2  0  0  0  0
  9 10  1  0  0  0  0
 10 11  2  0  0  0  0
 11 12  1  0  0  0  0
 12 13  2  0  0  0  0
 12 14  1  0  0  0  0
 14 15  2  0  0  0  0
 15 16  1  0  0  0  0
 16 17  2  0  0  0  0
 17 18  1  0  0  0  0
 17 19  1  0  0  0  0
 19 20  2  0  0  0  0
 20 21  1  0  0  0  0
 10  2  1  0  0  0  0
 20 14  1  0  0  0  0
  9  4  1  0  0  0  0
  3 22  1  0  0  0  0
  5 23  1  0  0  0  0
  6 24  1  0  0  0  0
  7 25  1  0  0  0  0
  8 26  1  0  0  0  0
 11 27  1  0  0  0  0
 15 28  1  0  0  0  0
 16 29  1  0  0  0  0
 19 30  1  0  0  0  0
M  END
