
  xtb     03022212273D
 energy: -115.377226489615 gnorm: 0.000088172855 xtb: 6.4.1 (afa7bdf)
 64 72  0     0  0            999 V2000
  -11.1779   -0.3144    1.1177 N   0  0  0  0  0  0  0  0  0  0  0  0
   -9.8149   -0.2436    0.9378 C   0  0  0  0  0  0  0  0  0  0  0  0
   -9.0591    0.7208    1.6073 C   0  0  0  0  0  0  0  0  0  0  0  0
   -7.6863    0.7483    1.4838 C   0  0  0  0  0  0  0  0  0  0  0  0
   -7.0459   -0.1821    0.6800 C   0  0  0  0  0  0  0  0  0  0  0  0
   -5.6183   -0.1446    0.5413 N   0  0  0  0  0  0  0  0  0  0  0  0
   -5.0757    0.9836   -0.0543 C   0  0  0  0  0  0  0  0  0  0  0  0
   -5.7830    1.8819   -0.4607 O   0  0  0  0  0  0  0  0  0  0  0  0
   -3.6073    1.0159   -0.1685 C   0  0  0  0  0  0  0  0  0  0  0  0
   -2.9948    2.1185   -0.7304 C   0  0  0  0  0  0  0  0  0  0  0  0
   -1.6131    2.1773   -0.8378 C   0  0  0  0  0  0  0  0  0  0  0  0
   -0.8000    1.1365   -0.4037 C   0  0  0  0  0  0  0  0  0  0  0  0
    0.6503    1.1994   -0.4848 C   0  0  0  0  0  0  0  0  0  0  0  0
    1.3213    2.3453   -0.8965 C   0  0  0  0  0  0  0  0  0  0  0  0
    2.7042    2.3858   -0.9968 C   0  0  0  0  0  0  0  0  0  0  0  0
    3.4608    1.2695   -0.7003 C   0  0  0  0  0  0  0  0  0  0  0  0
    2.8228    0.0913   -0.2663 C   0  0  0  0  0  0  0  0  0  0  0  0
    3.5959   -1.0474    0.0330 C   0  0  0  0  0  0  0  0  0  0  0  0
    2.9721   -2.2025    0.4608 C   0  0  0  0  0  0  0  0  0  0  0  0
    1.5951   -2.2395    0.6237 C   0  0  0  0  0  0  0  0  0  0  0  0
    0.7957   -1.1349    0.3524 C   0  0  0  0  0  0  0  0  0  0  0  0
   -0.6451   -1.1532    0.5471 C   0  0  0  0  0  0  0  0  0  0  0  0
   -1.3024   -2.2354    1.1212 C   0  0  0  0  0  0  0  0  0  0  0  0
   -2.6806   -2.2542    1.2770 C   0  0  0  0  0  0  0  0  0  0  0  0
   -3.4484   -1.1902    0.8471 C   0  0  0  0  0  0  0  0  0  0  0  0
   -2.8223   -0.0673    0.2721 C   0  0  0  0  0  0  0  0  0  0  0  0
   -1.4099   -0.0277    0.1373 C   0  0  0  0  0  0  0  0  0  0  0  0
   -4.9115   -1.2404    1.0133 C   0  0  0  0  0  0  0  0  0  0  0  0
   -5.4782   -2.1762    1.5372 O   0  0  0  0  0  0  0  0  0  0  0  0
    1.4104    0.0516   -0.1317 C   0  0  0  0  0  0  0  0  0  0  0  0
    5.0610   -1.0301   -0.1198 C   0  0  0  0  0  0  0  0  0  0  0  0
    5.7518   -2.0053    0.0906 O   0  0  0  0  0  0  0  0  0  0  0  0
    5.6192    0.1706   -0.5304 N   0  0  0  0  0  0  0  0  0  0  0  0
    7.0474    0.2105   -0.6630 C   0  0  0  0  0  0  0  0  0  0  0  0
    7.8498    0.0331    0.4536 C   0  0  0  0  0  0  0  0  0  0  0  0
    9.2221    0.0586    0.3247 C   0  0  0  0  0  0  0  0  0  0  0  0
    9.8164    0.2720   -0.9207 C   0  0  0  0  0  0  0  0  0  0  0  0
   11.1847    0.3679   -1.0366 N   0  0  0  0  0  0  0  0  0  0  0  0
    8.9938    0.4548   -2.0340 C   0  0  0  0  0  0  0  0  0  0  0  0
    7.6213    0.4209   -1.9072 C   0  0  0  0  0  0  0  0  0  0  0  0
    4.9273    1.3352   -0.8268 C   0  0  0  0  0  0  0  0  0  0  0  0
    5.5099    2.3448   -1.1626 O   0  0  0  0  0  0  0  0  0  0  0  0
   -7.7817   -1.1447    0.0062 C   0  0  0  0  0  0  0  0  0  0  0  0
   -9.1539   -1.1770    0.1369 C   0  0  0  0  0  0  0  0  0  0  0  0
  -11.6330    0.5136    1.4645 H   0  0  0  0  0  0  0  0  0  0  0  0
  -11.6998   -0.8316    0.4299 H   0  0  0  0  0  0  0  0  0  0  0  0
   -9.5595    1.4480    2.2300 H   0  0  0  0  0  0  0  0  0  0  0  0
   -7.1088    1.4977    2.0033 H   0  0  0  0  0  0  0  0  0  0  0  0
   -3.6124    2.9336   -1.0763 H   0  0  0  0  0  0  0  0  0  0  0  0
   -1.1800    3.0600   -1.2784 H   0  0  0  0  0  0  0  0  0  0  0  0
    0.7728    3.2393   -1.1430 H   0  0  0  0  0  0  0  0  0  0  0  0
    3.2106    3.2850   -1.3138 H   0  0  0  0  0  0  0  0  0  0  0  0
    3.5783   -3.0706    0.6717 H   0  0  0  0  0  0  0  0  0  0  0  0
    1.1536   -3.1614    0.9646 H   0  0  0  0  0  0  0  0  0  0  0  0
   -0.7454   -3.0904    1.4674 H   0  0  0  0  0  0  0  0  0  0  0  0
   -3.1756   -3.1005    1.7290 H   0  0  0  0  0  0  0  0  0  0  0  0
    7.3977   -0.1339    1.4193 H   0  0  0  0  0  0  0  0  0  0  0  0
    9.8483   -0.0839    1.1933 H   0  0  0  0  0  0  0  0  0  0  0  0
   11.5708    0.2538   -1.9591 H   0  0  0  0  0  0  0  0  0  0  0  0
   11.7319   -0.0323   -0.2927 H   0  0  0  0  0  0  0  0  0  0  0  0
    9.4421    0.6217   -3.0026 H   0  0  0  0  0  0  0  0  0  0  0  0
    6.9920    0.5597   -2.7730 H   0  0  0  0  0  0  0  0  0  0  0  0
   -7.2780   -1.8675   -0.6173 H   0  0  0  0  0  0  0  0  0  0  0  0
   -9.7280   -1.9284   -0.3853 H   0  0  0  0  0  0  0  0  0  0  0  0
  1  2  1  0  0  0  0
  2  3  2  0  0  0  0
  3  4  1  0  0  0  0
  4  5  2  0  0  0  0
  5  6  1  0  0  0  0
  6  7  1  0  0  0  0
  7  8  2  0  0  0  0
  7  9  1  0  0  0  0
  9 10  2  0  0  0  0
 10 11  1  0  0  0  0
 11 12  2  0  0  0  0
 12 13  1  0  0  0  0
 13 14  2  0  0  0  0
 14 15  1  0  0  0  0
 15 16  2  0  0  0  0
 16 17  1  0  0  0  0
 17 18  1  0  0  0  0
 18 19  2  0  0  0  0
 19 20  1  0  0  0  0
 20 21  2  0  0  0  0
 21 22  1  0  0  0  0
 22 23  1  0  0  0  0
 23 24  2  0  0  0  0
 24 25  1  0  0  0  0
 25 26  2  0  0  0  0
 26 27  1  0  0  0  0
 25 28  1  0  0  0  0
 28 29  2  0  0  0  0
 21 30  1  0  0  0  0
 18 31  1  0  0  0  0
 31 32  2  0  0  0  0
 31 33  1  0  0  0  0
 33 34  1  0  0  0  0
 34 35  2  0  0  0  0
 35 36  1  0  0  0  0
 36 37  2  0  0  0  0
 37 38  1  0  0  0  0
 37 39  1  0  0  0  0
 39 40  2  0  0  0  0
 33 41  1  0  0  0  0
 41 42  2  0  0  0  0
  5 43  1  0  0  0  0
 43 44  2  0  0  0  0
 44  2  1  0  0  0  0
 28  6  1  0  0  0  0
 40 34  1  0  0  0  0
 26  9  1  0  0  0  0
 27 12  1  0  0  0  0
 30 13  1  0  0  0  0
 41 16  1  0  0  0  0
 30 17  2  0  0  0  0
 27 22  2  0  0  0  0
  1 45  1  0  0  0  0
  1 46  1  0  0  0  0
  3 47  1  0  0  0  0
  4 48  1  0  0  0  0
 10 49  1  0  0  0  0
 11 50  1  0  0  0  0
 14 51  1  0  0  0  0
 15 52  1  0  0  0  0
 19 53  1  0  0  0  0
 20 54  1  0  0  0  0
 23 55  1  0  0  0  0
 24 56  1  0  0  0  0
 35 57  1  0  0  0  0
 36 58  1  0  0  0  0
 38 59  1  0  0  0  0
 38 60  1  0  0  0  0
 39 61  1  0  0  0  0
 40 62  1  0  0  0  0
 43 63  1  0  0  0  0
 44 64  1  0  0  0  0
M  END
