
  xtb     03022215513D
 energy: -63.309851943786 gnorm: 0.000247733234 xtb: 6.4.1 (afa7bdf)
 35 37  0     0  0            999 V2000
    6.1383    0.4594    0.9265 C   0  0  0  0  0  0  0  0  0  0  0  0
    5.5980    0.0526   -0.7622 S   0  0  0  0  0  6  0  0  0  0  0  0
    5.9380    1.1543   -1.6212 O   0  0  0  0  0  0  0  0  0  0  0  0
    6.1026   -1.2513   -1.0945 O   0  0  0  0  0  0  0  0  0  0  0  0
    3.8144   -0.0298   -0.6009 C   0  0  0  0  0  0  0  0  0  0  0  0
    3.2241   -1.2001   -0.1640 C   0  0  0  0  0  0  0  0  0  0  0  0
    1.8527   -1.2492   -0.0063 C   0  0  0  0  0  0  0  0  0  0  0  0
    1.0662   -0.1280   -0.2906 C   0  0  0  0  0  0  0  0  0  0  0  0
   -0.3856   -0.2094   -0.1221 C   0  0  0  0  0  0  0  0  0  0  0  0
   -1.2885    0.6166   -0.7024 C   0  0  0  0  0  0  0  0  0  0  0  0
   -2.6833    0.4280   -0.4701 C   0  0  0  0  0  0  0  0  0  0  0  0
   -3.6738    1.2406   -1.0377 C   0  0  0  0  0  0  0  0  0  0  0  0
   -5.0009    1.0136   -0.7762 C   0  0  0  0  0  0  0  0  0  0  0  0
   -5.4065   -0.0371    0.0668 C   0  0  0  0  0  0  0  0  0  0  0  0
   -6.7287   -0.2101    0.3690 N   0  0  0  0  0  0  0  0  0  0  0  0
   -4.4314   -0.8538    0.6313 C   0  0  0  0  0  0  0  0  0  0  0  0
   -3.0873   -0.6277    0.3685 C   0  0  0  0  0  0  0  0  0  0  0  0
   -2.0808   -1.5076    0.9646 C   0  0  0  0  0  0  0  0  0  0  0  0
   -2.3193   -2.4470    1.6836 O   0  0  0  0  0  0  0  0  0  0  0  0
   -0.7763   -1.2386    0.6788 O   0  0  0  0  0  0  0  0  0  0  0  0
    1.6863    1.0459   -0.7281 C   0  0  0  0  0  0  0  0  0  0  0  0
    3.0583    1.0922   -0.8820 C   0  0  0  0  0  0  0  0  0  0  0  0
    7.2193    0.5232    0.9221 H   0  0  0  0  0  0  0  0  0  0  0  0
    5.7010    1.4114    1.1972 H   0  0  0  0  0  0  0  0  0  0  0  0
    5.8061   -0.3319    1.5855 H   0  0  0  0  0  0  0  0  0  0  0  0
    3.8457   -2.0605    0.0281 H   0  0  0  0  0  0  0  0  0  0  0  0
    1.3740   -2.1544    0.3321 H   0  0  0  0  0  0  0  0  0  0  0  0
   -0.9702    1.4090   -1.3576 H   0  0  0  0  0  0  0  0  0  0  0  0
   -3.3797    2.0514   -1.6875 H   0  0  0  0  0  0  0  0  0  0  0  0
   -5.7564    1.6471   -1.2188 H   0  0  0  0  0  0  0  0  0  0  0  0
   -7.0011   -1.0762    0.8010 H   0  0  0  0  0  0  0  0  0  0  0  0
   -7.4138    0.2322   -0.2189 H   0  0  0  0  0  0  0  0  0  0  0  0
   -4.7004   -1.6734    1.2802 H   0  0  0  0  0  0  0  0  0  0  0  0
    1.0989    1.9269   -0.9316 H   0  0  0  0  0  0  0  0  0  0  0  0
    3.5604    1.9820   -1.2283 H   0  0  0  0  0  0  0  0  0  0  0  0
  1  2  1  0  0  0  0
  2  3  2  0  0  0  0
  2  4  2  0  0  0  0
  2  5  1  0  0  0  0
  5  6  2  0  0  0  0
  6  7  1  0  0  0  0
  7  8  2  0  0  0  0
  8  9  1  0  0  0  0
  9 10  2  0  0  0  0
 10 11  1  0  0  0  0
 11 12  2  0  0  0  0
 12 13  1  0  0  0  0
 13 14  2  0  0  0  0
 14 15  1  0  0  0  0
 14 16  1  0  0  0  0
 16 17  2  0  0  0  0
 17 18  1  0  0  0  0
 18 19  2  0  0  0  0
 18 20  1  0  0  0  0
  8 21  1  0  0  0  0
 21 22  2  0  0  0  0
 22  5  1  0  0  0  0
 20  9  1  0  0  0  0
 17 11  1  0  0  0  0
  1 23  1  0  0  0  0
  1 24  1  0  0  0  0
  1 25  1  0  0  0  0
  6 26  1  0  0  0  0
  7 27  1  0  0  0  0
 10 28  1  0  0  0  0
 12 29  1  0  0  0  0
 13 30  1  0  0  0  0
 15 31  1  0  0  0  0
 15 32  1  0  0  0  0
 16 33  1  0  0  0  0
 21 34  1  0  0  0  0
 22 35  1  0  0  0  0
M  END
