
  xtb     03022215003D
 energy: -118.015849052298 gnorm: 0.000077278617 xtb: 6.4.1 (afa7bdf)
 80 85  0     0  0            999 V2000
    8.3327    3.1074    0.5630 C   0  0  0  0  0  0  0  0  0  0  0  0
    7.7384    1.8218    0.0018 C   0  0  0  0  0  0  0  0  0  0  0  0
    7.9062    0.6541    0.9718 C   0  0  0  0  0  0  0  0  0  0  0  0
    7.2955   -0.6260    0.4049 C   0  0  0  0  0  0  0  0  0  0  0  0
    7.3440   -1.8500    1.3298 C   0  0  0  0  0  0  0  0  0  0  0  0
    8.7584   -2.2228    1.7878 C   0  0  0  0  0  0  0  0  0  0  0  0
    9.6970   -2.5550    0.6339 C   0  0  0  0  0  0  0  0  0  0  0  0
    6.4645   -1.6735    2.5783 C   0  0  0  0  0  0  0  0  0  0  0  0
    5.0945   -1.2997    2.2527 N   0  0  0  0  0  0  0  0  0  0  0  0
    4.6921   -0.0058    2.5367 C   0  0  0  0  0  0  0  0  0  0  0  0
    5.4379    0.7786    3.0911 O   0  0  0  0  0  0  0  0  0  0  0  0
    3.3235    0.3600    2.1376 C   0  0  0  0  0  0  0  0  0  0  0  0
    2.8726    1.6472    2.3483 C   0  0  0  0  0  0  0  0  0  0  0  0
    1.5772    2.0106    1.9759 C   0  0  0  0  0  0  0  0  0  0  0  0
    0.7363    1.0925    1.3982 C   0  0  0  0  0  0  0  0  0  0  0  0
    1.1618   -0.2289    1.1689 C   0  0  0  0  0  0  0  0  0  0  0  0
    0.3211   -1.2152    0.5727 C   0  0  0  0  0  0  0  0  0  0  0  0
   -0.9890   -0.8884    0.1909 C   0  0  0  0  0  0  0  0  0  0  0  0
   -2.1226   -0.6230   -0.1418 C   0  0  0  0  0  0  0  0  0  0  0  0
   -3.4385   -0.3175   -0.5263 C   0  0  0  0  0  0  0  0  0  0  0  0
   -4.0235    0.9011   -0.1655 C   0  0  0  0  0  0  0  0  0  0  0  0
   -5.3148    1.1939   -0.5377 C   0  0  0  0  0  0  0  0  0  0  0  0
   -6.0643    0.2824   -1.2898 C   0  0  0  0  0  0  0  0  0  0  0  0
   -7.3684    0.5786   -1.6668 N   0  0  0  0  0  0  0  0  0  0  0  0
   -7.7499    1.9023   -1.9323 C   0  0  0  0  0  0  0  0  0  0  0  0
   -9.0018    2.3655   -1.5306 C   0  0  0  0  0  0  0  0  0  0  0  0
   -9.3810    3.6658   -1.8022 C   0  0  0  0  0  0  0  0  0  0  0  0
   -8.5205    4.5228   -2.4685 C   0  0  0  0  0  0  0  0  0  0  0  0
   -7.2750    4.0669   -2.8686 C   0  0  0  0  0  0  0  0  0  0  0  0
   -6.8897    2.7659   -2.6089 C   0  0  0  0  0  0  0  0  0  0  0  0
   -8.3223   -0.4429   -1.7900 C   0  0  0  0  0  0  0  0  0  0  0  0
   -8.3585   -1.4929   -0.8737 C   0  0  0  0  0  0  0  0  0  0  0  0
   -9.3022   -2.4936   -1.0016 C   0  0  0  0  0  0  0  0  0  0  0  0
  -10.2257   -2.4592   -2.0335 C   0  0  0  0  0  0  0  0  0  0  0  0
  -10.1980   -1.4136   -2.9418 C   0  0  0  0  0  0  0  0  0  0  0  0
   -9.2531   -0.4124   -2.8271 C   0  0  0  0  0  0  0  0  0  0  0  0
   -5.4761   -0.9340   -1.6544 C   0  0  0  0  0  0  0  0  0  0  0  0
   -4.1876   -1.2307   -1.2766 C   0  0  0  0  0  0  0  0  0  0  0  0
    0.8007   -2.5021    0.3724 C   0  0  0  0  0  0  0  0  0  0  0  0
    2.0926   -2.8472    0.7476 C   0  0  0  0  0  0  0  0  0  0  0  0
    2.9327   -1.9135    1.3279 C   0  0  0  0  0  0  0  0  0  0  0  0
    2.4768   -0.5973    1.5432 C   0  0  0  0  0  0  0  0  0  0  0  0
    4.2973   -2.2963    1.7091 C   0  0  0  0  0  0  0  0  0  0  0  0
    4.7293   -3.4237    1.5659 O   0  0  0  0  0  0  0  0  0  0  0  0
    8.1954    3.9320   -0.1333 H   0  0  0  0  0  0  0  0  0  0  0  0
    9.3984    2.9871    0.7469 H   0  0  0  0  0  0  0  0  0  0  0  0
    7.8502    3.3649    1.5031 H   0  0  0  0  0  0  0  0  0  0  0  0
    8.2210    1.5806   -0.9493 H   0  0  0  0  0  0  0  0  0  0  0  0
    6.6743    1.9734   -0.1969 H   0  0  0  0  0  0  0  0  0  0  0  0
    8.9699    0.5071    1.1655 H   0  0  0  0  0  0  0  0  0  0  0  0
    7.4206    0.9134    1.9129 H   0  0  0  0  0  0  0  0  0  0  0  0
    6.2496   -0.4291    0.1489 H   0  0  0  0  0  0  0  0  0  0  0  0
    7.8024   -0.8788   -0.5291 H   0  0  0  0  0  0  0  0  0  0  0  0
    6.9391   -2.6974    0.7651 H   0  0  0  0  0  0  0  0  0  0  0  0
    8.6831   -3.0969    2.4391 H   0  0  0  0  0  0  0  0  0  0  0  0
    9.1789   -1.4092    2.3812 H   0  0  0  0  0  0  0  0  0  0  0  0
    9.8948   -1.6789    0.0224 H   0  0  0  0  0  0  0  0  0  0  0  0
   10.6471   -2.9203    1.0177 H   0  0  0  0  0  0  0  0  0  0  0  0
    9.2633   -3.3270    0.0022 H   0  0  0  0  0  0  0  0  0  0  0  0
    6.8657   -0.8945    3.2269 H   0  0  0  0  0  0  0  0  0  0  0  0
    6.4303   -2.6208    3.1230 H   0  0  0  0  0  0  0  0  0  0  0  0
    3.5409    2.3619    2.8045 H   0  0  0  0  0  0  0  0  0  0  0  0
    1.2400    3.0219    2.1464 H   0  0  0  0  0  0  0  0  0  0  0  0
   -0.2675    1.3681    1.1089 H   0  0  0  0  0  0  0  0  0  0  0  0
   -3.4570    1.6087    0.4221 H   0  0  0  0  0  0  0  0  0  0  0  0
   -5.7628    2.1307   -0.2409 H   0  0  0  0  0  0  0  0  0  0  0  0
   -9.6704    1.6999   -1.0045 H   0  0  0  0  0  0  0  0  0  0  0  0
  -10.3525    4.0140   -1.4840 H   0  0  0  0  0  0  0  0  0  0  0  0
   -8.8189    5.5390   -2.6760 H   0  0  0  0  0  0  0  0  0  0  0  0
   -6.6010    4.7261   -3.3953 H   0  0  0  0  0  0  0  0  0  0  0  0
   -5.9231    2.4084   -2.9329 H   0  0  0  0  0  0  0  0  0  0  0  0
   -7.6467   -1.5150   -0.0612 H   0  0  0  0  0  0  0  0  0  0  0  0
   -9.3215   -3.3012   -0.2848 H   0  0  0  0  0  0  0  0  0  0  0  0
  -10.9631   -3.2415   -2.1284 H   0  0  0  0  0  0  0  0  0  0  0  0
  -10.9124   -1.3807   -3.7510 H   0  0  0  0  0  0  0  0  0  0  0  0
   -9.2272    0.3986   -3.5402 H   0  0  0  0  0  0  0  0  0  0  0  0
   -6.0411   -1.6393   -2.2458 H   0  0  0  0  0  0  0  0  0  0  0  0
   -3.7394   -2.1691   -1.5679 H   0  0  0  0  0  0  0  0  0  0  0  0
    0.1544   -3.2397   -0.0799 H   0  0  0  0  0  0  0  0  0  0  0  0
    2.4638   -3.8491    0.5923 H   0  0  0  0  0  0  0  0  0  0  0  0
  1  2  1  0  0  0  0
  2  3  1  0  0  0  0
  3  4  1  0  0  0  0
  4  5  1  0  0  0  0
  5  6  1  0  0  0  0
  6  7  1  0  0  0  0
  5  8  1  0  0  0  0
  8  9  1  0  0  0  0
  9 10  1  0  0  0  0
 10 11  2  0  0  0  0
 10 12  1  0  0  0  0
 12 13  1  0  0  0  0
 13 14  2  0  0  0  0
 14 15  1  0  0  0  0
 15 16  2  0  0  0  0
 16 17  1  0  0  0  0
 17 18  1  0  0  0  0
 18 19  3  0  0  0  0
 19 20  1  0  0  0  0
 20 21  2  0  0  0  0
 21 22  1  0  0  0  0
 22 23  2  0  0  0  0
 23 24  1  0  0  0  0
 24 25  1  0  0  0  0
 25 26  2  0  0  0  0
 26 27  1  0  0  0  0
 27 28  2  0  0  0  0
 28 29  1  0  0  0  0
 29 30  2  0  0  0  0
 24 31  1  0  0  0  0
 31 32  2  0  0  0  0
 32 33  1  0  0  0  0
 33 34  2  0  0  0  0
 34 35  1  0  0  0  0
 35 36  2  0  0  0  0
 23 37  1  0  0  0  0
 37 38  2  0  0  0  0
 17 39  2  0  0  0  0
 39 40  1  0  0  0  0
 40 41  2  0  0  0  0
 41 42  1  0  0  0  0
 41 43  1  0  0  0  0
 43 44  2  0  0  0  0
 43  9  1  0  0  0  0
 42 12  2  0  0  0  0
 42 16  1  0  0  0  0
 38 20  1  0  0  0  0
 30 25  1  0  0  0  0
 36 31  1  0  0  0  0
  1 45  1  0  0  0  0
  1 46  1  0  0  0  0
  1 47  1  0  0  0  0
  2 48  1  0  0  0  0
  2 49  1  0  0  0  0
  3 50  1  0  0  0  0
  3 51  1  0  0  0  0
  4 52  1  0  0  0  0
  4 53  1  0  0  0  0
  5 54  1  0  0  0  0
  6 55  1  0  0  0  0
  6 56  1  0  0  0  0
  7 57  1  0  0  0  0
  7 58  1  0  0  0  0
  7 59  1  0  0  0  0
  8 60  1  0  0  0  0
  8 61  1  0  0  0  0
 13 62  1  0  0  0  0
 14 63  1  0  0  0  0
 15 64  1  0  0  0  0
 21 65  1  0  0  0  0
 22 66  1  0  0  0  0
 26 67  1  0  0  0  0
 27 68  1  0  0  0  0
 28 69  1  0  0  0  0
 29 70  1  0  0  0  0
 30 71  1  0  0  0  0
 32 72  1  0  0  0  0
 33 73  1  0  0  0  0
 34 74  1  0  0  0  0
 35 75  1  0  0  0  0
 36 76  1  0  0  0  0
 37 77  1  0  0  0  0
 38 78  1  0  0  0  0
 39 79  1  0  0  0  0
 40 80  1  0  0  0  0
M  END
