
  xtb     03022215413D
 energy: -73.038185180227 gnorm: 0.000244021136 xtb: 6.4.1 (afa7bdf)
 49 53  0     0  0            999 V2000
    7.8519    0.9524   -0.8664 C   0  0  0  0  0  0  0  0  0  0  0  0
    7.1526   -0.1990   -0.3544 N   0  0  0  0  0  0  0  0  0  0  0  0
    7.9129   -1.3442    0.0788 C   0  0  0  0  0  0  0  0  0  0  0  0
    5.7851   -0.2157   -0.3040 C   0  0  0  0  0  0  0  0  0  0  0  0
    5.0827   -1.3257    0.1933 C   0  0  0  0  0  0  0  0  0  0  0  0
    3.7092   -1.3316    0.2447 C   0  0  0  0  0  0  0  0  0  0  0  0
    2.9450   -0.2426   -0.1910 C   0  0  0  0  0  0  0  0  0  0  0  0
    1.5101   -0.3102   -0.1061 C   0  0  0  0  0  0  0  0  0  0  0  0
    0.6238    0.6387   -0.4622 C   0  0  0  0  0  0  0  0  0  0  0  0
   -0.7860    0.4494   -0.3222 C   0  0  0  0  0  0  0  0  0  0  0  0
   -1.3845   -0.6262    0.1468 N   0  0  0  0  0  0  0  0  0  0  0  0
   -2.7154   -0.3640    0.1013 C   0  0  0  0  0  0  0  0  0  0  0  0
   -3.8031   -1.1954    0.4939 C   0  0  0  0  0  0  0  0  0  0  0  0
   -3.5853   -2.4775    1.0089 C   0  0  0  0  0  0  0  0  0  0  0  0
   -4.6442   -3.2662    1.3833 C   0  0  0  0  0  0  0  0  0  0  0  0
   -5.9424   -2.7785    1.2461 C   0  0  0  0  0  0  0  0  0  0  0  0
   -6.1698   -1.5198    0.7410 C   0  0  0  0  0  0  0  0  0  0  0  0
   -5.1147   -0.6826    0.3469 C   0  0  0  0  0  0  0  0  0  0  0  0
   -5.3335    0.6504   -0.1887 C   0  0  0  0  0  0  0  0  0  0  0  0
   -6.6145    1.1966   -0.3497 C   0  0  0  0  0  0  0  0  0  0  0  0
   -6.8074    2.4603   -0.8577 C   0  0  0  0  0  0  0  0  0  0  0  0
   -5.7201    3.2455   -1.2328 C   0  0  0  0  0  0  0  0  0  0  0  0
   -4.4488    2.7487   -1.0916 C   0  0  0  0  0  0  0  0  0  0  0  0
   -4.2347    1.4630   -0.5753 C   0  0  0  0  0  0  0  0  0  0  0  0
   -2.9400    0.9131   -0.4121 C   0  0  0  0  0  0  0  0  0  0  0  0
   -1.6968    1.4163   -0.6769 N   0  0  0  0  0  0  0  0  0  0  0  0
    3.6474    0.8604   -0.6883 C   0  0  0  0  0  0  0  0  0  0  0  0
    5.0210    0.8776   -0.7453 C   0  0  0  0  0  0  0  0  0  0  0  0
    7.5946    1.1420   -1.9138 H   0  0  0  0  0  0  0  0  0  0  0  0
    7.6174    1.8479   -0.2825 H   0  0  0  0  0  0  0  0  0  0  0  0
    8.9243    0.7833   -0.8071 H   0  0  0  0  0  0  0  0  0  0  0  0
    8.9742   -1.1478   -0.0524 H   0  0  0  0  0  0  0  0  0  0  0  0
    7.7356   -1.5594    1.1374 H   0  0  0  0  0  0  0  0  0  0  0  0
    7.6571   -2.2341   -0.5052 H   0  0  0  0  0  0  0  0  0  0  0  0
    5.6139   -2.1946    0.5454 H   0  0  0  0  0  0  0  0  0  0  0  0
    3.2017   -2.2027    0.6343 H   0  0  0  0  0  0  0  0  0  0  0  0
    1.0984   -1.2280    0.2923 H   0  0  0  0  0  0  0  0  0  0  0  0
    0.9352    1.5911   -0.8692 H   0  0  0  0  0  0  0  0  0  0  0  0
   -2.5646   -2.8156    1.0982 H   0  0  0  0  0  0  0  0  0  0  0  0
   -4.4788   -4.2567    1.7813 H   0  0  0  0  0  0  0  0  0  0  0  0
   -6.7799   -3.3954    1.5394 H   0  0  0  0  0  0  0  0  0  0  0  0
   -7.1911   -1.1840    0.6526 H   0  0  0  0  0  0  0  0  0  0  0  0
   -7.4838    0.6223   -0.0717 H   0  0  0  0  0  0  0  0  0  0  0  0
   -7.8099    2.8475   -0.9670 H   0  0  0  0  0  0  0  0  0  0  0  0
   -5.8790    4.2369   -1.6310 H   0  0  0  0  0  0  0  0  0  0  0  0
   -3.5980    3.3506   -1.3799 H   0  0  0  0  0  0  0  0  0  0  0  0
   -1.4809    2.3217   -1.0581 H   0  0  0  0  0  0  0  0  0  0  0  0
    3.1069    1.7260   -1.0406 H   0  0  0  0  0  0  0  0  0  0  0  0
    5.5059    1.7554   -1.1404 H   0  0  0  0  0  0  0  0  0  0  0  0
  1  2  1  0  0  0  0
  2  3  1  0  0  0  0
  2  4  1  0  0  0  0
  4  5  2  0  0  0  0
  5  6  1  0  0  0  0
  6  7  2  0  0  0  0
  7  8  1  0  0  0  0
  8  9  2  0  0  0  0
  9 10  1  0  0  0  0
 10 11  2  0  0  0  0
 11 12  1  0  0  0  0
 12 13  2  0  0  0  0
 13 14  1  0  0  0  0
 14 15  2  0  0  0  0
 15 16  1  0  0  0  0
 16 17  2  0  0  0  0
 17 18  1  0  0  0  0
 18 19  2  0  0  0  0
 19 20  1  0  0  0  0
 20 21  2  0  0  0  0
 21 22  1  0  0  0  0
 22 23  2  0  0  0  0
 23 24  1  0  0  0  0
 24 25  2  0  0  0  0
 25 26  1  0  0  0  0
  7 27  1  0  0  0  0
 27 28  2  0  0  0  0
 28  4  1  0  0  0  0
 26 10  1  0  0  0  0
 25 12  1  0  0  0  0
 18 13  1  0  0  0  0
 24 19  1  0  0  0  0
  1 29  1  0  0  0  0
  1 30  1  0  0  0  0
  1 31  1  0  0  0  0
  3 32  1  0  0  0  0
  3 33  1  0  0  0  0
  3 34  1  0  0  0  0
  5 35  1  0  0  0  0
  6 36  1  0  0  0  0
  8 37  1  0  0  0  0
  9 38  1  0  0  0  0
 14 39  1  0  0  0  0
 15 40  1  0  0  0  0
 16 41  1  0  0  0  0
 17 42  1  0  0  0  0
 20 43  1  0  0  0  0
 21 44  1  0  0  0  0
 22 45  1  0  0  0  0
 23 46  1  0  0  0  0
 26 47  1  0  0  0  0
 27 48  1  0  0  0  0
 28 49  1  0  0  0  0
M  END
