
  xtb     03022214173D
 energy: -66.147101942115 gnorm: 0.000169987928 xtb: 6.4.1 (afa7bdf)
 44 45  0     0  0            999 V2000
   -3.1246    1.2667   -2.9691 C   0  0  0  0  0  0  0  0  0  0  0  0
   -3.9095    0.9502   -1.6954 C   0  0  0  0  0  0  0  0  0  0  0  0
   -3.7520   -0.4198   -1.2508 N   0  0  0  0  0  0  0  0  0  0  0  0
   -4.8037   -1.3529   -1.5957 C   0  0  0  0  0  0  0  0  0  0  0  0
   -4.5458   -2.1049   -2.9026 C   0  0  0  0  0  0  0  0  0  0  0  0
   -2.6047   -0.8326   -0.6479 C   0  0  0  0  0  0  0  0  0  0  0  0
   -2.3883   -2.1931   -0.3158 C   0  0  0  0  0  0  0  0  0  0  0  0
   -1.2489   -2.6045    0.3189 C   0  0  0  0  0  0  0  0  0  0  0  0
   -0.2384   -1.6985    0.6700 C   0  0  0  0  0  0  0  0  0  0  0  0
    0.9769   -2.0580    1.3024 C   0  0  0  0  0  0  0  0  0  0  0  0
    1.8939   -1.0948    1.6057 C   0  0  0  0  0  0  0  0  0  0  0  0
    3.1460   -1.4274    2.1574 C   0  0  0  0  0  0  0  0  0  0  0  0
    4.1756   -1.7463    2.5505 N   0  0  0  0  0  0  0  0  0  0  0  0
    1.6158    0.3060    1.3060 C   0  0  0  0  0  0  0  0  0  0  0  0
    2.3886    1.2804    1.5473 N   0  0  0  0  0  0  0  0  0  0  0  0
    3.4789    1.4103    2.3519 C   0  0  0  0  0  0  0  0  0  0  0  0
    3.4034    1.3885    3.5590 O   0  0  0  0  0  0  0  0  0  0  0  0
    4.7403    1.7844    1.5833 C   0  0  0  0  0  0  0  0  0  0  0  0
    5.9629    1.2448    2.3166 C   0  0  0  0  0  0  0  0  0  0  0  0
    4.7835    3.3103    1.4705 C   0  0  0  0  0  0  0  0  0  0  0  0
    0.4703    0.6108    0.6496 O   0  0  0  0  0  0  0  0  0  0  0  0
   -0.4438   -0.3436    0.3425 C   0  0  0  0  0  0  0  0  0  0  0  0
   -1.5891    0.0749   -0.3059 C   0  0  0  0  0  0  0  0  0  0  0  0
   -3.2325    2.3200   -3.2136 H   0  0  0  0  0  0  0  0  0  0  0  0
   -3.4946    0.6796   -3.8052 H   0  0  0  0  0  0  0  0  0  0  0  0
   -2.0691    1.0457   -2.8373 H   0  0  0  0  0  0  0  0  0  0  0  0
   -4.9721    1.1235   -1.8781 H   0  0  0  0  0  0  0  0  0  0  0  0
   -3.6061    1.6278   -0.8923 H   0  0  0  0  0  0  0  0  0  0  0  0
   -5.7359   -0.7899   -1.6854 H   0  0  0  0  0  0  0  0  0  0  0  0
   -4.9379   -2.0628   -0.7754 H   0  0  0  0  0  0  0  0  0  0  0  0
   -3.5831   -2.6085   -2.8739 H   0  0  0  0  0  0  0  0  0  0  0  0
   -4.5491   -1.4205   -3.7464 H   0  0  0  0  0  0  0  0  0  0  0  0
   -5.3245   -2.8467   -3.0600 H   0  0  0  0  0  0  0  0  0  0  0  0
   -3.1227   -2.9392   -0.5652 H   0  0  0  0  0  0  0  0  0  0  0  0
   -1.1116   -3.6490    0.5560 H   0  0  0  0  0  0  0  0  0  0  0  0
    1.1739   -3.0960    1.5310 H   0  0  0  0  0  0  0  0  0  0  0  0
    4.6773    1.3515    0.5791 H   0  0  0  0  0  0  0  0  0  0  0  0
    6.8759    1.5518    1.8110 H   0  0  0  0  0  0  0  0  0  0  0  0
    5.9733    1.6253    3.3348 H   0  0  0  0  0  0  0  0  0  0  0  0
    5.9277    0.1585    2.3602 H   0  0  0  0  0  0  0  0  0  0  0  0
    5.6715    3.6209    0.9233 H   0  0  0  0  0  0  0  0  0  0  0  0
    4.8113    3.7522    2.4638 H   0  0  0  0  0  0  0  0  0  0  0  0
    3.9020    3.6779    0.9504 H   0  0  0  0  0  0  0  0  0  0  0  0
   -1.6609    1.1268   -0.5180 H   0  0  0  0  0  0  0  0  0  0  0  0
  1  2  1  0  0  0  0
  2  3  1  0  0  0  0
  3  4  1  0  0  0  0
  4  5  1  0  0  0  0
  3  6  1  0  0  0  0
  6  7  2  0  0  0  0
  7  8  1  0  0  0  0
  8  9  2  0  0  0  0
  9 10  1  0  0  0  0
 10 11  2  0  0  0  0
 11 12  1  0  0  0  0
 12 13  3  0  0  0  0
 11 14  1  0  0  0  0
 14 15  2  0  0  0  0
 15 16  1  0  0  0  0
 16 17  2  0  0  0  0
 16 18  1  0  0  0  0
 18 19  1  0  0  0  0
 18 20  1  0  0  0  0
 14 21  1  0  0  0  0
 21 22  1  0  0  0  0
 22 23  2  0  0  0  0
 23  6  1  0  0  0  0
 22  9  1  0  0  0  0
  1 24  1  0  0  0  0
  1 25  1  0  0  0  0
  1 26  1  0  0  0  0
  2 27  1  0  0  0  0
  2 28  1  0  0  0  0
  4 29  1  0  0  0  0
  4 30  1  0  0  0  0
  5 31  1  0  0  0  0
  5 32  1  0  0  0  0
  5 33  1  0  0  0  0
  7 34  1  0  0  0  0
  8 35  1  0  0  0  0
 10 36  1  0  0  0  0
 18 37  1  0  0  0  0
 19 38  1  0  0  0  0
 19 39  1  0  0  0  0
 19 40  1  0  0  0  0
 20 41  1  0  0  0  0
 20 42  1  0  0  0  0
 20 43  1  0  0  0  0
 23 44  1  0  0  0  0
M  END
