
  xtb     03022212293D
 energy: -81.200768964111 gnorm: 0.000178312336 xtb: 6.4.1 (afa7bdf)
 56 59  0     0  0            999 V2000
    7.5813    2.0605    0.6155 C   0  0  0  0  0  0  0  0  0  0  0  0
    7.2086    0.7330    0.1969 N   0  0  0  0  0  0  0  0  0  0  0  0
    8.2368   -0.1480   -0.2994 C   0  0  0  0  0  0  0  0  0  0  0  0
    5.8898    0.3761    0.1019 C   0  0  0  0  0  0  0  0  0  0  0  0
    4.8580    1.2843    0.3922 C   0  0  0  0  0  0  0  0  0  0  0  0
    3.5359    0.9163    0.3105 C   0  0  0  0  0  0  0  0  0  0  0  0
    3.1545   -0.3759   -0.0676 C   0  0  0  0  0  0  0  0  0  0  0  0
    1.7890   -0.8193   -0.1780 C   0  0  0  0  0  0  0  0  0  0  0  0
    0.6911   -0.0775    0.0713 C   0  0  0  0  0  0  0  0  0  0  0  0
   -0.6801   -0.4911   -0.0268 C   0  0  0  0  0  0  0  0  0  0  0  0
   -1.5779    0.4427    0.2415 N   0  0  0  0  0  0  0  0  0  0  0  0
   -2.8798    0.2010    0.2046 C   0  0  0  0  0  0  0  0  0  0  0  0
   -3.6999    1.2725    0.4993 N   0  0  0  0  0  0  0  0  0  0  0  0
   -3.0303    2.4374    1.0595 C   0  0  0  0  0  0  0  0  0  0  0  0
   -4.0729    3.5015    1.3689 C   0  0  0  0  0  0  0  0  0  0  0  0
   -4.7168    3.9818    0.2008 O   0  0  0  0  0  0  0  0  0  0  0  0
   -4.7073    3.0505   -0.8582 C   0  0  0  0  0  0  0  0  0  0  0  0
   -4.8237    1.6071   -0.3644 C   0  0  0  0  0  0  0  0  0  0  0  0
   -3.3542   -1.1110   -0.0215 C   0  0  0  0  0  0  0  0  0  0  0  0
   -2.3999   -2.0628   -0.3207 C   0  0  0  0  0  0  0  0  0  0  0  0
   -1.0707   -1.7523   -0.3887 N   0  0  0  0  0  4  0  0  0  0  0  0
   -0.2449   -2.6551   -0.7415 O   0  0  0  0  0  1  0  0  0  0  0  0
   -2.7122   -3.4979   -0.6030 C   0  0  0  0  0  0  0  0  0  0  0  0
   -4.0917   -3.9064   -0.1086 C   0  0  0  0  0  0  0  0  0  0  0  0
   -5.1084   -2.8481   -0.5125 C   0  0  0  0  0  0  0  0  0  0  0  0
   -4.7853   -1.5320    0.1877 C   0  0  0  0  0  0  0  0  0  0  0  0
    4.1853   -1.2783   -0.3578 C   0  0  0  0  0  0  0  0  0  0  0  0
    5.5102   -0.9217   -0.2780 C   0  0  0  0  0  0  0  0  0  0  0  0
    7.2986    2.8192   -0.1242 H   0  0  0  0  0  0  0  0  0  0  0  0
    8.6587    2.1061    0.7579 H   0  0  0  0  0  0  0  0  0  0  0  0
    7.1070    2.3085    1.5678 H   0  0  0  0  0  0  0  0  0  0  0  0
    8.3159   -1.0491    0.3171 H   0  0  0  0  0  0  0  0  0  0  0  0
    9.1964    0.3629   -0.2762 H   0  0  0  0  0  0  0  0  0  0  0  0
    8.0369   -0.4494   -1.3324 H   0  0  0  0  0  0  0  0  0  0  0  0
    5.0903    2.2978    0.6771 H   0  0  0  0  0  0  0  0  0  0  0  0
    2.7807    1.6525    0.5400 H   0  0  0  0  0  0  0  0  0  0  0  0
    1.6550   -1.8444   -0.4931 H   0  0  0  0  0  0  0  0  0  0  0  0
    0.7741    0.9541    0.3846 H   0  0  0  0  0  0  0  0  0  0  0  0
   -2.2707    2.8373    0.3760 H   0  0  0  0  0  0  0  0  0  0  0  0
   -2.5230    2.1262    1.9745 H   0  0  0  0  0  0  0  0  0  0  0  0
   -3.6066    4.3675    1.8459 H   0  0  0  0  0  0  0  0  0  0  0  0
   -4.8243    3.0856    2.0561 H   0  0  0  0  0  0  0  0  0  0  0  0
   -3.7878    3.1581   -1.4531 H   0  0  0  0  0  0  0  0  0  0  0  0
   -5.5610    3.3011   -1.4933 H   0  0  0  0  0  0  0  0  0  0  0  0
   -5.7658    1.5002    0.1900 H   0  0  0  0  0  0  0  0  0  0  0  0
   -4.8418    0.9496   -1.2360 H   0  0  0  0  0  0  0  0  0  0  0  0
   -2.6301   -3.6536   -1.6841 H   0  0  0  0  0  0  0  0  0  0  0  0
   -1.9243   -4.1068   -0.1506 H   0  0  0  0  0  0  0  0  0  0  0  0
   -4.0819   -4.0001    0.9794 H   0  0  0  0  0  0  0  0  0  0  0  0
   -4.3588   -4.8777   -0.5273 H   0  0  0  0  0  0  0  0  0  0  0  0
   -5.0755   -2.7062   -1.5951 H   0  0  0  0  0  0  0  0  0  0  0  0
   -6.1182   -3.1641   -0.2440 H   0  0  0  0  0  0  0  0  0  0  0  0
   -5.4770   -0.7628   -0.1457 H   0  0  0  0  0  0  0  0  0  0  0  0
   -4.9379   -1.6507    1.2664 H   0  0  0  0  0  0  0  0  0  0  0  0
    3.9278   -2.2858   -0.6524 H   0  0  0  0  0  0  0  0  0  0  0  0
    6.2582   -1.6630   -0.5070 H   0  0  0  0  0  0  0  0  0  0  0  0
  1  2  1  0  0  0  0
  2  3  1  0  0  0  0
  2  4  1  0  0  0  0
  4  5  2  0  0  0  0
  5  6  1  0  0  0  0
  6  7  2  0  0  0  0
  7  8  1  0  0  0  0
  8  9  2  0  0  0  0
  9 10  1  0  0  0  0
 10 11  2  0  0  0  0
 11 12  1  0  0  0  0
 12 13  1  0  0  0  0
 13 14  1  0  0  0  0
 14 15  1  0  0  0  0
 15 16  1  0  0  0  0
 16 17  1  0  0  0  0
 17 18  1  0  0  0  0
 12 19  2  0  0  0  0
 19 20  1  0  0  0  0
 20 21  2  0  0  0  0
 21 22  1  0  0  0  0
 20 23  1  0  0  0  0
 23 24  1  0  0  0  0
 24 25  1  0  0  0  0
 25 26  1  0  0  0  0
  7 27  1  0  0  0  0
 27 28  2  0  0  0  0
 28  4  1  0  0  0  0
 21 10  1  0  0  0  0
 18 13  1  0  0  0  0
 26 19  1  0  0  0  0
  1 29  1  0  0  0  0
  1 30  1  0  0  0  0
  1 31  1  0  0  0  0
  3 32  1  0  0  0  0
  3 33  1  0  0  0  0
  3 34  1  0  0  0  0
  5 35  1  0  0  0  0
  6 36  1  0  0  0  0
  8 37  1  0  0  0  0
  9 38  1  0  0  0  0
 14 39  1  0  0  0  0
 14 40  1  0  0  0  0
 15 41  1  0  0  0  0
 15 42  1  0  0  0  0
 17 43  1  0  0  0  0
 17 44  1  0  0  0  0
 18 45  1  0  0  0  0
 18 46  1  0  0  0  0
 23 47  1  0  0  0  0
 23 48  1  0  0  0  0
 24 49  1  0  0  0  0
 24 50  1  0  0  0  0
 25 51  1  0  0  0  0
 25 52  1  0  0  0  0
 26 53  1  0  0  0  0
 26 54  1  0  0  0  0
 27 55  1  0  0  0  0
 28 56  1  0  0  0  0
M  CHG  1  21   1
M  CHG  1  22  -1
M  END
