
  xtb     03022215403D
 energy: -129.251983456405 gnorm: 0.000175984923 xtb: 6.4.1 (afa7bdf)
 83 91  0     0  0            999 V2000
   -1.4231   -8.4740    0.5520 C   0  0  0  0  0  0  0  0  0  0  0  0
   -1.1716   -6.9993    0.4680 C   0  0  0  0  0  0  0  0  0  0  0  0
   -0.5994   -6.4356   -0.6654 C   0  0  0  0  0  0  0  0  0  0  0  0
   -0.3448   -5.0786   -0.7328 C   0  0  0  0  0  0  0  0  0  0  0  0
   -0.6635   -4.2461    0.3345 C   0  0  0  0  0  0  0  0  0  0  0  0
   -0.3895   -2.7924    0.2661 C   0  0  0  0  0  0  0  0  0  0  0  0
    0.9458   -2.3935    0.2298 C   0  0  0  0  0  0  0  0  0  0  0  0
    1.3972   -1.1211    0.1896 N   0  0  0  0  0  0  0  0  0  0  0  0
    2.7376   -1.1928    0.2112 C   0  0  0  0  0  0  0  0  0  0  0  0
    3.5642   -0.0626    0.2036 C   0  0  0  0  0  0  0  0  0  0  0  0
    5.0260   -0.2368    0.2576 C   0  0  0  0  0  0  0  0  0  0  0  0
    5.8383    0.2660   -0.7551 C   0  0  0  0  0  0  0  0  0  0  0  0
    7.2081    0.0949   -0.7064 C   0  0  0  0  0  0  0  0  0  0  0  0
    7.8078   -0.5731    0.3550 C   0  0  0  0  0  0  0  0  0  0  0  0
    9.2925   -0.7710    0.3913 C   0  0  0  0  0  0  0  0  0  0  0  0
    6.9952   -1.0689    1.3669 C   0  0  0  0  0  0  0  0  0  0  0  0
    5.6234   -0.9075    1.3205 C   0  0  0  0  0  0  0  0  0  0  0  0
    3.0270    1.2170    0.1605 C   0  0  0  0  0  0  0  0  0  0  0  0
    3.7489    2.4227    0.2599 C   0  0  0  0  0  0  0  0  0  0  0  0
    2.9553    3.5310    0.2180 C   0  0  0  0  0  0  0  0  0  0  0  0
    1.5857    3.2341    0.0767 C   0  0  0  0  0  0  0  0  0  0  0  0
    1.3083    1.5125    0.0572 S   0  0  0  0  0  0  0  0  0  0  0  0
    0.5358    4.1469   -0.0039 C   0  0  0  0  0  0  0  0  0  0  0  0
    0.8195    5.5704   -0.0954 C   0  0  0  0  0  0  0  0  0  0  0  0
    1.7686    6.2525   -0.8179 C   0  0  0  0  0  0  0  0  0  0  0  0
    1.5638    7.6240   -0.5525 C   0  0  0  0  0  0  0  0  0  0  0  0
    0.5135    7.6832    0.3117 C   0  0  0  0  0  0  0  0  0  0  0  0
    0.0549    6.4539    0.5862 O   0  0  0  0  0  0  0  0  0  0  0  0
   -0.7954    3.6987   -0.0212 C   0  0  0  0  0  0  0  0  0  0  0  0
   -1.1218    2.4008    0.0741 N   0  0  0  0  0  0  0  0  0  0  0  0
   -2.4699    2.3366   -0.0057 C   0  0  0  0  0  0  0  0  0  0  0  0
   -3.2553    1.1862    0.0371 C   0  0  0  0  0  0  0  0  0  0  0  0
   -4.7234    1.3726   -0.0339 C   0  0  0  0  0  0  0  0  0  0  0  0
   -5.4061    2.0209    0.9897 C   0  0  0  0  0  0  0  0  0  0  0  0
   -6.7755    2.1962    0.9197 C   0  0  0  0  0  0  0  0  0  0  0  0
   -7.4992    1.7374   -0.1738 C   0  0  0  0  0  0  0  0  0  0  0  0
   -8.9795    1.9514   -0.2627 C   0  0  0  0  0  0  0  0  0  0  0  0
   -6.8131    1.0938   -1.1970 C   0  0  0  0  0  0  0  0  0  0  0  0
   -5.4454    0.9090   -1.1290 C   0  0  0  0  0  0  0  0  0  0  0  0
   -2.8042   -0.1359    0.1302 C   0  0  0  0  0  0  0  0  0  0  0  0
   -3.6520   -1.2772    0.2033 C   0  0  0  0  0  0  0  0  0  0  0  0
   -2.8585   -2.3830    0.2657 C   0  0  0  0  0  0  0  0  0  0  0  0
   -1.5042   -1.9469    0.2468 C   0  0  0  0  0  0  0  0  0  0  0  0
   -1.5190   -0.5862    0.1680 N   0  0  0  0  0  0  0  0  0  0  0  0
   -3.0234    3.6708   -0.1815 C   0  0  0  0  0  0  0  0  0  0  0  0
   -1.9771    4.5202   -0.1900 C   0  0  0  0  0  0  0  0  0  0  0  0
    3.1840   -2.5718    0.2469 C   0  0  0  0  0  0  0  0  0  0  0  0
    2.0647   -3.3230    0.2690 C   0  0  0  0  0  0  0  0  0  0  0  0
   -1.2401   -4.8065    1.4697 C   0  0  0  0  0  0  0  0  0  0  0  0
   -1.4859   -6.1648    1.5340 C   0  0  0  0  0  0  0  0  0  0  0  0
   -1.5341   -8.9069   -0.4394 H   0  0  0  0  0  0  0  0  0  0  0  0
   -2.3200   -8.6819    1.1315 H   0  0  0  0  0  0  0  0  0  0  0  0
   -0.5843   -8.9674    1.0444 H   0  0  0  0  0  0  0  0  0  0  0  0
   -0.3499   -7.0671   -1.5065 H   0  0  0  0  0  0  0  0  0  0  0  0
    0.0967   -4.6530   -1.6224 H   0  0  0  0  0  0  0  0  0  0  0  0
    5.3854    0.7786   -1.5917 H   0  0  0  0  0  0  0  0  0  0  0  0
    7.8238    0.4857   -1.5044 H   0  0  0  0  0  0  0  0  0  0  0  0
    9.8082    0.0874   -0.0339 H   0  0  0  0  0  0  0  0  0  0  0  0
    9.6401   -0.9237    1.4103 H   0  0  0  0  0  0  0  0  0  0  0  0
    9.5654   -1.6495   -0.1947 H   0  0  0  0  0  0  0  0  0  0  0  0
    7.4425   -1.5869    2.2036 H   0  0  0  0  0  0  0  0  0  0  0  0
    5.0056   -1.2872    2.1216 H   0  0  0  0  0  0  0  0  0  0  0  0
    4.8183    2.4435    0.3779 H   0  0  0  0  0  0  0  0  0  0  0  0
    3.3193    4.5382    0.3119 H   0  0  0  0  0  0  0  0  0  0  0  0
    2.4909    5.8285   -1.4849 H   0  0  0  0  0  0  0  0  0  0  0  0
    2.1201    8.4481   -0.9499 H   0  0  0  0  0  0  0  0  0  0  0  0
    0.0188    8.5085    0.7847 H   0  0  0  0  0  0  0  0  0  0  0  0
   -4.8564    2.3800    1.8476 H   0  0  0  0  0  0  0  0  0  0  0  0
   -7.2906    2.6975    1.7270 H   0  0  0  0  0  0  0  0  0  0  0  0
   -9.4185    2.0498    0.7274 H   0  0  0  0  0  0  0  0  0  0  0  0
   -9.4600    1.1256   -0.7828 H   0  0  0  0  0  0  0  0  0  0  0  0
   -9.1908    2.8659   -0.8184 H   0  0  0  0  0  0  0  0  0  0  0  0
   -7.3583    0.7327   -2.0578 H   0  0  0  0  0  0  0  0  0  0  0  0
   -4.9247    0.4113   -1.9343 H   0  0  0  0  0  0  0  0  0  0  0  0
   -4.7237   -1.2490    0.2116 H   0  0  0  0  0  0  0  0  0  0  0  0
   -3.1757   -3.4059    0.3149 H   0  0  0  0  0  0  0  0  0  0  0  0
   -0.6929   -0.0011    0.1411 H   0  0  0  0  0  0  0  0  0  0  0  0
   -4.0648    3.8987   -0.2986 H   0  0  0  0  0  0  0  0  0  0  0  0
   -1.9878    5.5849   -0.3105 H   0  0  0  0  0  0  0  0  0  0  0  0
    4.2073   -2.8935    0.2461 H   0  0  0  0  0  0  0  0  0  0  0  0
    1.9805   -4.3912    0.3152 H   0  0  0  0  0  0  0  0  0  0  0  0
   -1.4853   -4.1705    2.3080 H   0  0  0  0  0  0  0  0  0  0  0  0
   -1.9295   -6.5853    2.4256 H   0  0  0  0  0  0  0  0  0  0  0  0
  1  2  1  0  0  0  0
  2  3  2  0  0  0  0
  3  4  1  0  0  0  0
  4  5  2  0  0  0  0
  5  6  1  0  0  0  0
  6  7  1  0  0  0  0
  7  8  2  0  0  0  0
  8  9  1  0  0  0  0
  9 10  2  0  0  0  0
 10 11  1  0  0  0  0
 11 12  2  0  0  0  0
 12 13  1  0  0  0  0
 13 14  2  0  0  0  0
 14 15  1  0  0  0  0
 14 16  1  0  0  0  0
 16 17  2  0  0  0  0
 10 18  1  0  0  0  0
 18 19  2  0  0  0  0
 19 20  1  0  0  0  0
 20 21  2  0  0  0  0
 21 22  1  0  0  0  0
 21 23  1  0  0  0  0
 23 24  1  0  0  0  0
 24 25  2  0  0  0  0
 25 26  1  0  0  0  0
 26 27  2  0  0  0  0
 27 28  1  0  0  0  0
 23 29  2  0  0  0  0
 29 30  1  0  0  0  0
 30 31  2  0  0  0  0
 31 32  1  0  0  0  0
 32 33  1  0  0  0  0
 33 34  2  0  0  0  0
 34 35  1  0  0  0  0
 35 36  2  0  0  0  0
 36 37  1  0  0  0  0
 36 38  1  0  0  0  0
 38 39  2  0  0  0  0
 32 40  2  0  0  0  0
 40 41  1  0  0  0  0
 41 42  2  0  0  0  0
 42 43  1  0  0  0  0
 43 44  1  0  0  0  0
 31 45  1  0  0  0  0
 45 46  2  0  0  0  0
  9 47  1  0  0  0  0
 47 48  2  0  0  0  0
  5 49  1  0  0  0  0
 49 50  2  0  0  0  0
 50  2  1  0  0  0  0
 43  6  2  0  0  0  0
 48  7  1  0  0  0  0
 17 11  1  0  0  0  0
 22 18  1  0  0  0  0
 28 24  1  0  0  0  0
 46 29  1  0  0  0  0
 39 33  1  0  0  0  0
 44 40  1  0  0  0  0
  1 51  1  0  0  0  0
  1 52  1  0  0  0  0
  1 53  1  0  0  0  0
  3 54  1  0  0  0  0
  4 55  1  0  0  0  0
 12 56  1  0  0  0  0
 13 57  1  0  0  0  0
 15 58  1  0  0  0  0
 15 59  1  0  0  0  0
 15 60  1  0  0  0  0
 16 61  1  0  0  0  0
 17 62  1  0  0  0  0
 19 63  1  0  0  0  0
 20 64  1  0  0  0  0
 25 65  1  0  0  0  0
 26 66  1  0  0  0  0
 27 67  1  0  0  0  0
 34 68  1  0  0  0  0
 35 69  1  0  0  0  0
 37 70  1  0  0  0  0
 37 71  1  0  0  0  0
 37 72  1  0  0  0  0
 38 73  1  0  0  0  0
 39 74  1  0  0  0  0
 41 75  1  0  0  0  0
 42 76  1  0  0  0  0
 44 77  1  0  0  0  0
 45 78  1  0  0  0  0
 46 79  1  0  0  0  0
 47 80  1  0  0  0  0
 48 81  1  0  0  0  0
 49 82  1  0  0  0  0
 50 83  1  0  0  0  0
M  END
