
  xtb     03022213463D
 energy: -137.574191234472 gnorm: 0.000154000873 xtb: 6.4.1 (afa7bdf)
 96103  0     0  0            999 V2000
    8.1202    3.7497    2.5081 C   0  0  0  0  0  0  0  0  0  0  0  0
    6.9756    3.0720    2.9616 O   0  0  0  0  0  0  0  0  0  0  0  0
    6.4847    2.0476    2.2036 C   0  0  0  0  0  0  0  0  0  0  0  0
    7.0319    1.6064    1.0044 C   0  0  0  0  0  0  0  0  0  0  0  0
    6.4460    0.5594    0.3164 C   0  0  0  0  0  0  0  0  0  0  0  0
    5.3120   -0.0787    0.8110 C   0  0  0  0  0  0  0  0  0  0  0  0
    4.7220   -1.1341    0.1072 N   0  0  0  0  0  0  0  0  0  0  0  0
    5.5205   -2.0771   -0.5514 C   0  0  0  0  0  0  0  0  0  0  0  0
    6.7740   -2.4438   -0.0580 C   0  0  0  0  0  0  0  0  0  0  0  0
    7.5438   -3.3683   -0.7263 C   0  0  0  0  0  0  0  0  0  0  0  0
    7.0844   -3.9661   -1.9012 C   0  0  0  0  0  0  0  0  0  0  0  0
    7.9279   -4.8713   -2.4785 O   0  0  0  0  0  0  0  0  0  0  0  0
    7.5162   -5.5093   -3.6612 C   0  0  0  0  0  0  0  0  0  0  0  0
    5.8325   -3.6122   -2.3908 C   0  0  0  0  0  0  0  0  0  0  0  0
    5.0656   -2.6746   -1.7233 C   0  0  0  0  0  0  0  0  0  0  0  0
    3.3458   -1.3740    0.2095 C   0  0  0  0  0  0  0  0  0  0  0  0
    2.9101   -2.6662    0.5068 C   0  0  0  0  0  0  0  0  0  0  0  0
    1.5732   -2.9506    0.6564 C   0  0  0  0  0  0  0  0  0  0  0  0
    0.6086   -1.9487    0.5199 C   0  0  0  0  0  0  0  0  0  0  0  0
   -0.7766   -2.2053    0.7055 C   0  0  0  0  0  0  0  0  0  0  0  0
   -1.7005   -1.2249    0.5671 C   0  0  0  0  0  0  0  0  0  0  0  0
   -1.3301    0.1026    0.2057 C   0  0  0  0  0  0  0  0  0  0  0  0
   -2.2943    1.1237    0.0528 C   0  0  0  0  0  0  0  0  0  0  0  0
   -3.8392    0.9131    0.1416 B   0  0  0  0  0  0  0  0  0  0  0  0
   -4.6707    2.0552    0.8295 C   0  0  0  0  0  0  0  0  0  0  0  0
   -4.3586    2.4819    2.1294 C   0  0  0  0  0  0  0  0  0  0  0  0
   -3.2422    1.8456    2.9090 C   0  0  0  0  0  0  0  0  0  0  0  0
   -5.0844    3.4998    2.7284 C   0  0  0  0  0  0  0  0  0  0  0  0
   -6.1226    4.1362    2.0657 C   0  0  0  0  0  0  0  0  0  0  0  0
   -6.8828    5.2523    2.7157 C   0  0  0  0  0  0  0  0  0  0  0  0
   -6.4239    3.7244    0.7760 C   0  0  0  0  0  0  0  0  0  0  0  0
   -5.7234    2.6997    0.1597 C   0  0  0  0  0  0  0  0  0  0  0  0
   -6.0925    2.3068   -1.2418 C   0  0  0  0  0  0  0  0  0  0  0  0
   -4.5343   -0.3377   -0.5035 C   0  0  0  0  0  0  0  0  0  0  0  0
   -5.4853   -1.0907    0.2108 C   0  0  0  0  0  0  0  0  0  0  0  0
   -5.8470   -0.7311    1.6232 C   0  0  0  0  0  0  0  0  0  0  0  0
   -6.0832   -2.1971   -0.3676 C   0  0  0  0  0  0  0  0  0  0  0  0
   -5.7830   -2.5916   -1.6644 C   0  0  0  0  0  0  0  0  0  0  0  0
   -6.4516   -3.7899   -2.2665 C   0  0  0  0  0  0  0  0  0  0  0  0
   -4.8545   -1.8473   -2.3720 C   0  0  0  0  0  0  0  0  0  0  0  0
   -4.2291   -0.7422   -1.8127 C   0  0  0  0  0  0  0  0  0  0  0  0
   -3.2301    0.0018   -2.6531 C   0  0  0  0  0  0  0  0  0  0  0  0
   -1.8377    2.4137   -0.2436 C   0  0  0  0  0  0  0  0  0  0  0  0
   -0.5055    2.6961   -0.4454 C   0  0  0  0  0  0  0  0  0  0  0  0
    0.4601    1.6943   -0.3228 C   0  0  0  0  0  0  0  0  0  0  0  0
    1.8411    1.9441   -0.5477 C   0  0  0  0  0  0  0  0  0  0  0  0
    2.7695    0.9716   -0.3886 C   0  0  0  0  0  0  0  0  0  0  0  0
    2.4014   -0.3440    0.0149 C   0  0  0  0  0  0  0  0  0  0  0  0
    1.0231   -0.6350    0.1906 C   0  0  0  0  0  0  0  0  0  0  0  0
    0.0498    0.3848    0.0279 C   0  0  0  0  0  0  0  0  0  0  0  0
    4.7701    0.3638    2.0196 C   0  0  0  0  0  0  0  0  0  0  0  0
    5.3445    1.4133    2.6992 C   0  0  0  0  0  0  0  0  0  0  0  0
    8.9821    3.0785    2.4292 H   0  0  0  0  0  0  0  0  0  0  0  0
    8.3276    4.5128    3.2568 H   0  0  0  0  0  0  0  0  0  0  0  0
    7.9466    4.2321    1.5403 H   0  0  0  0  0  0  0  0  0  0  0  0
    7.9101    2.0728    0.5866 H   0  0  0  0  0  0  0  0  0  0  0  0
    6.8727    0.2347   -0.6213 H   0  0  0  0  0  0  0  0  0  0  0  0
    7.1368   -2.0017    0.8578 H   0  0  0  0  0  0  0  0  0  0  0  0
    8.5123   -3.6572   -0.3500 H   0  0  0  0  0  0  0  0  0  0  0  0
    8.3310   -6.1778   -3.9349 H   0  0  0  0  0  0  0  0  0  0  0  0
    7.3518   -4.7907   -4.4711 H   0  0  0  0  0  0  0  0  0  0  0  0
    6.6046   -6.0961   -3.5065 H   0  0  0  0  0  0  0  0  0  0  0  0
    5.4424   -4.0520   -3.2951 H   0  0  0  0  0  0  0  0  0  0  0  0
    4.0965   -2.4021   -2.1149 H   0  0  0  0  0  0  0  0  0  0  0  0
    3.6486   -3.4443    0.6378 H   0  0  0  0  0  0  0  0  0  0  0  0
    1.2593   -3.9546    0.9036 H   0  0  0  0  0  0  0  0  0  0  0  0
   -1.0773   -3.2101    0.9674 H   0  0  0  0  0  0  0  0  0  0  0  0
   -2.7462   -1.4405    0.7195 H   0  0  0  0  0  0  0  0  0  0  0  0
   -3.1438    0.7880    2.6802 H   0  0  0  0  0  0  0  0  0  0  0  0
   -3.4094    1.9604    3.9783 H   0  0  0  0  0  0  0  0  0  0  0  0
   -2.2956    2.3270    2.6621 H   0  0  0  0  0  0  0  0  0  0  0  0
   -4.8343    3.8050    3.7356 H   0  0  0  0  0  0  0  0  0  0  0  0
   -7.8976    5.3086    2.3278 H   0  0  0  0  0  0  0  0  0  0  0  0
   -6.9231    5.1176    3.7944 H   0  0  0  0  0  0  0  0  0  0  0  0
   -6.3914    6.2051    2.5139 H   0  0  0  0  0  0  0  0  0  0  0  0
   -7.2287    4.2113    0.2416 H   0  0  0  0  0  0  0  0  0  0  0  0
   -6.4200    1.2694   -1.2745 H   0  0  0  0  0  0  0  0  0  0  0  0
   -6.8953    2.9367   -1.6188 H   0  0  0  0  0  0  0  0  0  0  0  0
   -5.2370    2.4030   -1.9081 H   0  0  0  0  0  0  0  0  0  0  0  0
   -6.5589   -1.4459    2.0300 H   0  0  0  0  0  0  0  0  0  0  0  0
   -4.9646   -0.7244    2.2611 H   0  0  0  0  0  0  0  0  0  0  0  0
   -6.2899    0.2620    1.6642 H   0  0  0  0  0  0  0  0  0  0  0  0
   -6.8062   -2.7672    0.2005 H   0  0  0  0  0  0  0  0  0  0  0  0
   -6.1403   -3.9328   -3.2983 H   0  0  0  0  0  0  0  0  0  0  0  0
   -6.2007   -4.6871   -1.7010 H   0  0  0  0  0  0  0  0  0  0  0  0
   -7.5347   -3.6742   -2.2413 H   0  0  0  0  0  0  0  0  0  0  0  0
   -4.6075   -2.1338   -3.3855 H   0  0  0  0  0  0  0  0  0  0  0  0
   -2.2236   -0.3582   -2.4391 H   0  0  0  0  0  0  0  0  0  0  0  0
   -3.2502    1.0693   -2.4527 H   0  0  0  0  0  0  0  0  0  0  0  0
   -3.4277   -0.1607   -3.7110 H   0  0  0  0  0  0  0  0  0  0  0  0
   -2.5650    3.2088   -0.3375 H   0  0  0  0  0  0  0  0  0  0  0  0
   -0.1927    3.7003   -0.6962 H   0  0  0  0  0  0  0  0  0  0  0  0
    2.1361    2.9366   -0.8579 H   0  0  0  0  0  0  0  0  0  0  0  0
    3.8087    1.1852   -0.5843 H   0  0  0  0  0  0  0  0  0  0  0  0
    3.8927   -0.1218    2.4196 H   0  0  0  0  0  0  0  0  0  0  0  0
    4.9302    1.7601    3.6324 H   0  0  0  0  0  0  0  0  0  0  0  0
  1  2  1  0  0  0  0
  2  3  1  0  0  0  0
  3  4  2  0  0  0  0
  4  5  1  0  0  0  0
  5  6  2  0  0  0  0
  6  7  1  0  0  0  0
  7  8  1  0  0  0  0
  8  9  2  0  0  0  0
  9 10  1  0  0  0  0
 10 11  2  0  0  0  0
 11 12  1  0  0  0  0
 12 13  1  0  0  0  0
 11 14  1  0  0  0  0
 14 15  2  0  0  0  0
  7 16  1  0  0  0  0
 16 17  2  0  0  0  0
 17 18  1  0  0  0  0
 18 19  2  0  0  0  0
 19 20  1  0  0  0  0
 20 21  2  0  0  0  0
 21 22  1  0  0  0  0
 22 23  2  0  0  0  0
 23 24  1  0  0  0  0
 24 25  1  0  0  0  0
 25 26  2  0  0  0  0
 26 27  1  0  0  0  0
 26 28  1  0  0  0  0
 28 29  2  0  0  0  0
 29 30  1  0  0  0  0
 29 31  1  0  0  0  0
 31 32  2  0  0  0  0
 32 33  1  0  0  0  0
 24 34  1  0  0  0  0
 34 35  2  0  0  0  0
 35 36  1  0  0  0  0
 35 37  1  0  0  0  0
 37 38  2  0  0  0  0
 38 39  1  0  0  0  0
 38 40  1  0  0  0  0
 40 41  2  0  0  0  0
 41 42  1  0  0  0  0
 23 43  1  0  0  0  0
 43 44  2  0  0  0  0
 44 45  1  0  0  0  0
 45 46  2  0  0  0  0
 46 47  1  0  0  0  0
 47 48  2  0  0  0  0
 48 49  1  0  0  0  0
 49 50  2  0  0  0  0
  6 51  1  0  0  0  0
 51 52  2  0  0  0  0
 52  3  1  0  0  0  0
 15  8  1  0  0  0  0
 48 16  1  0  0  0  0
 49 19  1  0  0  0  0
 50 22  1  0  0  0  0
 32 25  1  0  0  0  0
 41 34  1  0  0  0  0
 50 45  1  0  0  0  0
  1 53  1  0  0  0  0
  1 54  1  0  0  0  0
  1 55  1  0  0  0  0
  4 56  1  0  0  0  0
  5 57  1  0  0  0  0
  9 58  1  0  0  0  0
 10 59  1  0  0  0  0
 13 60  1  0  0  0  0
 13 61  1  0  0  0  0
 13 62  1  0  0  0  0
 14 63  1  0  0  0  0
 15 64  1  0  0  0  0
 17 65  1  0  0  0  0
 18 66  1  0  0  0  0
 20 67  1  0  0  0  0
 21 68  1  0  0  0  0
 27 69  1  0  0  0  0
 27 70  1  0  0  0  0
 27 71  1  0  0  0  0
 28 72  1  0  0  0  0
 30 73  1  0  0  0  0
 30 74  1  0  0  0  0
 30 75  1  0  0  0  0
 31 76  1  0  0  0  0
 33 77  1  0  0  0  0
 33 78  1  0  0  0  0
 33 79  1  0  0  0  0
 36 80  1  0  0  0  0
 36 81  1  0  0  0  0
 36 82  1  0  0  0  0
 37 83  1  0  0  0  0
 39 84  1  0  0  0  0
 39 85  1  0  0  0  0
 39 86  1  0  0  0  0
 40 87  1  0  0  0  0
 42 88  1  0  0  0  0
 42 89  1  0  0  0  0
 42 90  1  0  0  0  0
 43 91  1  0  0  0  0
 44 92  1  0  0  0  0
 46 93  1  0  0  0  0
 47 94  1  0  0  0  0
 51 95  1  0  0  0  0
 52 96  1  0  0  0  0
M  END
