
  xtb     03022215263D
 energy: -22.071753154211 gnorm: 0.000575479404 xtb: 6.4.1 (afa7bdf)
 14 14  0     0  0            999 V2000
    3.0174   -0.9772    0.3501 O   0  0  0  0  0  0  0  0  0  0  0  0
    2.3380   -0.0228    0.0708 C   0  0  0  0  0  0  0  0  0  0  0  0
    0.8713   -0.0057    0.0255 C   0  0  0  0  0  0  0  0  0  0  0  0
    0.1866    1.1607   -0.3131 C   0  0  0  0  0  0  0  0  0  0  0  0
   -1.1945    1.1656   -0.3522 C   0  0  0  0  0  0  0  0  0  0  0  0
   -1.9011    0.0101   -0.0546 C   0  0  0  0  0  0  0  0  0  0  0  0
   -1.2276   -1.1544    0.2831 C   0  0  0  0  0  0  0  0  0  0  0  0
    0.1524   -1.1644    0.3235 C   0  0  0  0  0  0  0  0  0  0  0  0
    2.8017    0.9517   -0.1855 H   0  0  0  0  0  0  0  0  0  0  0  0
    0.7429    2.0581   -0.5440 H   0  0  0  0  0  0  0  0  0  0  0  0
   -1.7248    2.0691   -0.6145 H   0  0  0  0  0  0  0  0  0  0  0  0
   -2.9807    0.0179   -0.0863 H   0  0  0  0  0  0  0  0  0  0  0  0
   -1.7828   -2.0513    0.5139 H   0  0  0  0  0  0  0  0  0  0  0  0
    0.7009   -2.0575    0.5835 H   0  0  0  0  0  0  0  0  0  0  0  0
  1  2  2  0  0  0  0
  2  3  1  0  0  0  0
  3  4  2  0  0  0  0
  4  5  1  0  0  0  0
  5  6  2  0  0  0  0
  6  7  1  0  0  0  0
  7  8  2  0  0  0  0
  8  3  1  0  0  0  0
  2  9  1  0  0  0  0
  4 10  1  0  0  0  0
  5 11  1  0  0  0  0
  6 12  1  0  0  0  0
  7 13  1  0  0  0  0
  8 14  1  0  0  0  0
M  END
