
  xtb     03022212033D
 energy: -86.900060525442 gnorm: 0.000167291878 xtb: 6.4.1 (afa7bdf)
 59 62  0     0  0            999 V2000
   -5.6463   -4.1011   -2.7802 C   0  0  0  0  0  0  0  0  0  0  0  0
   -4.4644   -3.4442   -3.1632 O   0  0  0  0  0  0  0  0  0  0  0  0
   -3.8823   -2.5841   -2.2764 C   0  0  0  0  0  0  0  0  0  0  0  0
   -2.7092   -1.9639   -2.7097 C   0  0  0  0  0  0  0  0  0  0  0  0
   -2.0430   -1.0733   -1.8994 C   0  0  0  0  0  0  0  0  0  0  0  0
   -2.5228   -0.7815   -0.6208 C   0  0  0  0  0  0  0  0  0  0  0  0
   -1.8481    0.1237    0.2082 N   0  0  0  0  0  0  0  0  0  0  0  0
   -0.4534    0.1525    0.2262 C   0  0  0  0  0  0  0  0  0  0  0  0
    0.2857   -1.0203    0.0678 C   0  0  0  0  0  0  0  0  0  0  0  0
    1.6642   -0.9905    0.0675 C   0  0  0  0  0  0  0  0  0  0  0  0
    2.3609    0.2070    0.2360 C   0  0  0  0  0  0  0  0  0  0  0  0
    3.8147    0.2947    0.2546 C   0  0  0  0  0  0  0  0  0  0  0  0
    4.6950   -0.3855   -0.4943 C   0  0  0  0  0  0  0  0  0  0  0  0
    4.3066   -1.3743   -1.5554 C   0  0  0  0  0  0  0  0  0  0  0  0
    6.1391   -0.1595   -0.3209 C   0  0  0  0  0  0  0  0  0  0  0  0
    6.6508    1.1149   -0.0792 C   0  0  0  0  0  0  0  0  0  0  0  0
    8.0084    1.3159    0.0831 C   0  0  0  0  0  0  0  0  0  0  0  0
    8.8860    0.2474    0.0091 C   0  0  0  0  0  0  0  0  0  0  0  0
    8.3932   -1.0231   -0.2353 C   0  0  0  0  0  0  0  0  0  0  0  0
    7.0363   -1.2239   -0.4052 C   0  0  0  0  0  0  0  0  0  0  0  0
    1.6121    1.3702    0.4355 C   0  0  0  0  0  0  0  0  0  0  0  0
    0.2355    1.3524    0.4162 C   0  0  0  0  0  0  0  0  0  0  0  0
   -2.5833    1.0031    1.0137 C   0  0  0  0  0  0  0  0  0  0  0  0
   -2.1581    1.3109    2.3077 C   0  0  0  0  0  0  0  0  0  0  0  0
   -2.8823    2.1781    3.0935 C   0  0  0  0  0  0  0  0  0  0  0  0
   -4.0605    2.7573    2.6191 C   0  0  0  0  0  0  0  0  0  0  0  0
   -4.7015    3.5984    3.4832 O   0  0  0  0  0  0  0  0  0  0  0  0
   -5.8879    4.2187    3.0559 C   0  0  0  0  0  0  0  0  0  0  0  0
   -4.4930    2.4471    1.3352 C   0  0  0  0  0  0  0  0  0  0  0  0
   -3.7567    1.5841    0.5435 C   0  0  0  0  0  0  0  0  0  0  0  0
   -3.6901   -1.4046   -0.1908 C   0  0  0  0  0  0  0  0  0  0  0  0
   -4.3683   -2.2917   -1.0075 C   0  0  0  0  0  0  0  0  0  0  0  0
   -6.4531   -3.3907   -2.5705 H   0  0  0  0  0  0  0  0  0  0  0  0
   -5.9273   -4.7221   -3.6294 H   0  0  0  0  0  0  0  0  0  0  0  0
   -5.4878   -4.7386   -1.9039 H   0  0  0  0  0  0  0  0  0  0  0  0
   -2.3440   -2.1931   -3.6982 H   0  0  0  0  0  0  0  0  0  0  0  0
   -1.1426   -0.5927   -2.2517 H   0  0  0  0  0  0  0  0  0  0  0  0
   -0.2333   -1.9608   -0.0476 H   0  0  0  0  0  0  0  0  0  0  0  0
    2.2061   -1.9189   -0.0153 H   0  0  0  0  0  0  0  0  0  0  0  0
    4.2027    1.0245    0.9552 H   0  0  0  0  0  0  0  0  0  0  0  0
    3.3137   -1.1524   -1.9393 H   0  0  0  0  0  0  0  0  0  0  0  0
    4.3024   -2.3922   -1.1648 H   0  0  0  0  0  0  0  0  0  0  0  0
    5.0205   -1.3349   -2.3767 H   0  0  0  0  0  0  0  0  0  0  0  0
    5.9785    1.9595   -0.0427 H   0  0  0  0  0  0  0  0  0  0  0  0
    8.3853    2.3125    0.2631 H   0  0  0  0  0  0  0  0  0  0  0  0
    9.9469    0.4044    0.1368 H   0  0  0  0  0  0  0  0  0  0  0  0
    9.0707   -1.8630   -0.2949 H   0  0  0  0  0  0  0  0  0  0  0  0
    6.6672   -2.2226   -0.5850 H   0  0  0  0  0  0  0  0  0  0  0  0
    2.1267    2.3093    0.5823 H   0  0  0  0  0  0  0  0  0  0  0  0
   -0.3207    2.2690    0.5478 H   0  0  0  0  0  0  0  0  0  0  0  0
   -1.2537    0.8625    2.6910 H   0  0  0  0  0  0  0  0  0  0  0  0
   -2.5590    2.4205    4.0934 H   0  0  0  0  0  0  0  0  0  0  0  0
   -5.7175    4.8568    2.1823 H   0  0  0  0  0  0  0  0  0  0  0  0
   -6.6659    3.4842    2.8221 H   0  0  0  0  0  0  0  0  0  0  0  0
   -6.2163    4.8350    3.8915 H   0  0  0  0  0  0  0  0  0  0  0  0
   -5.3969    2.8760    0.9323 H   0  0  0  0  0  0  0  0  0  0  0  0
   -4.0976    1.3571   -0.4560 H   0  0  0  0  0  0  0  0  0  0  0  0
   -4.0726   -1.1914    0.7965 H   0  0  0  0  0  0  0  0  0  0  0  0
   -5.2697   -2.7529   -0.6357 H   0  0  0  0  0  0  0  0  0  0  0  0
  1  2  1  0  0  0  0
  2  3  1  0  0  0  0
  3  4  2  0  0  0  0
  4  5  1  0  0  0  0
  5  6  2  0  0  0  0
  6  7  1  0  0  0  0
  7  8  1  0  0  0  0
  8  9  2  0  0  0  0
  9 10  1  0  0  0  0
 10 11  2  0  0  0  0
 11 12  1  0  0  0  0
 12 13  2  0  0  0  0
 13 14  1  0  0  0  0
 13 15  1  0  0  0  0
 15 16  2  0  0  0  0
 16 17  1  0  0  0  0
 17 18  2  0  0  0  0
 18 19  1  0  0  0  0
 19 20  2  0  0  0  0
 11 21  1  0  0  0  0
 21 22  2  0  0  0  0
  7 23  1  0  0  0  0
 23 24  2  0  0  0  0
 24 25  1  0  0  0  0
 25 26  2  0  0  0  0
 26 27  1  0  0  0  0
 27 28  1  0  0  0  0
 26 29  1  0  0  0  0
 29 30  2  0  0  0  0
  6 31  1  0  0  0  0
 31 32  2  0  0  0  0
 32  3  1  0  0  0  0
 22  8  1  0  0  0  0
 30 23  1  0  0  0  0
 20 15  1  0  0  0  0
  1 33  1  0  0  0  0
  1 34  1  0  0  0  0
  1 35  1  0  0  0  0
  4 36  1  0  0  0  0
  5 37  1  0  0  0  0
  9 38  1  0  0  0  0
 10 39  1  0  0  0  0
 12 40  1  0  0  0  0
 14 41  1  0  0  0  0
 14 42  1  0  0  0  0
 14 43  1  0  0  0  0
 16 44  1  0  0  0  0
 17 45  1  0  0  0  0
 18 46  1  0  0  0  0
 19 47  1  0  0  0  0
 20 48  1  0  0  0  0
 21 49  1  0  0  0  0
 22 50  1  0  0  0  0
 24 51  1  0  0  0  0
 25 52  1  0  0  0  0
 28 53  1  0  0  0  0
 28 54  1  0  0  0  0
 28 55  1  0  0  0  0
 29 56  1  0  0  0  0
 30 57  1  0  0  0  0
 31 58  1  0  0  0  0
 32 59  1  0  0  0  0
M  END
