
  xtb     03022216123D
 energy: -70.295000376078 gnorm: 0.000122145342 xtb: 6.4.1 (afa7bdf)
 42 44  0     0  0            999 V2000
   -5.2361   -1.8159    1.3225 C   0  0  0  0  0  0  0  0  0  0  0  0
   -4.9132   -0.7428    0.2819 C   0  0  0  0  0  0  0  0  0  0  0  0
   -3.6581   -0.0728    0.5496 N   0  0  0  0  0  0  0  0  0  0  0  0
   -3.7463    1.1233    1.3611 C   0  0  0  0  0  0  0  0  0  0  0  0
   -3.9326    2.3878    0.5223 C   0  0  0  0  0  0  0  0  0  0  0  0
   -2.4759   -0.5208    0.0566 C   0  0  0  0  0  0  0  0  0  0  0  0
   -2.3734   -1.7802   -0.5852 C   0  0  0  0  0  0  0  0  0  0  0  0
   -1.1840   -2.2356   -1.0816 C   0  0  0  0  0  0  0  0  0  0  0  0
   -0.0098   -1.4747   -0.9797 C   0  0  0  0  0  0  0  0  0  0  0  0
    1.2599   -1.8938   -1.4441 C   0  0  0  0  0  0  0  0  0  0  0  0
    2.3388   -1.0681   -1.3101 C   0  0  0  0  0  0  0  0  0  0  0  0
    3.6299   -1.4955   -1.6794 C   0  0  0  0  0  0  0  0  0  0  0  0
    4.6679   -1.9103   -1.9359 N   0  0  0  0  0  0  0  0  0  0  0  0
    2.1795    0.2555   -0.7226 C   0  0  0  0  0  0  0  0  0  0  0  0
    3.1050    1.1120   -0.5581 N   0  0  0  0  0  0  0  0  0  0  0  0
    4.3029    1.2416   -1.2047 C   0  0  0  0  0  0  0  0  0  0  0  0
    4.3904    1.3803   -2.4073 O   0  0  0  0  0  0  0  0  0  0  0  0
    5.4321    1.3460   -0.2716 C   0  0  0  0  0  0  0  0  0  0  0  0
    5.4730    1.2337    1.0983 C   0  0  0  0  0  0  0  0  0  0  0  0
    6.8248    1.3841    1.4626 C   0  0  0  0  0  0  0  0  0  0  0  0
    7.5036    1.5725    0.2922 C   0  0  0  0  0  0  0  0  0  0  0  0
    6.6748    1.5512   -0.7497 O   0  0  0  0  0  0  0  0  0  0  0  0
    0.9713    0.5987   -0.2236 O   0  0  0  0  0  0  0  0  0  0  0  0
   -0.1044   -0.2191   -0.3461 C   0  0  0  0  0  0  0  0  0  0  0  0
   -1.3025    0.2425    0.1620 C   0  0  0  0  0  0  0  0  0  0  0  0
   -5.3030   -1.3754    2.3144 H   0  0  0  0  0  0  0  0  0  0  0  0
   -4.4631   -2.5795    1.3422 H   0  0  0  0  0  0  0  0  0  0  0  0
   -6.1873   -2.2860    1.0883 H   0  0  0  0  0  0  0  0  0  0  0  0
   -4.8916   -1.1793   -0.7189 H   0  0  0  0  0  0  0  0  0  0  0  0
   -5.7026    0.0132    0.2871 H   0  0  0  0  0  0  0  0  0  0  0  0
   -2.8520    1.2088    1.9818 H   0  0  0  0  0  0  0  0  0  0  0  0
   -4.5994    1.0066    2.0346 H   0  0  0  0  0  0  0  0  0  0  0  0
   -3.9988    3.2566    1.1714 H   0  0  0  0  0  0  0  0  0  0  0  0
   -3.0985    2.5242   -0.1605 H   0  0  0  0  0  0  0  0  0  0  0  0
   -4.8458    2.3246   -0.0649 H   0  0  0  0  0  0  0  0  0  0  0  0
   -3.2393   -2.4130   -0.6789 H   0  0  0  0  0  0  0  0  0  0  0  0
   -1.1329   -3.2026   -1.5595 H   0  0  0  0  0  0  0  0  0  0  0  0
    1.3696   -2.8716   -1.8916 H   0  0  0  0  0  0  0  0  0  0  0  0
    4.6353    1.0732    1.7453 H   0  0  0  0  0  0  0  0  0  0  0  0
    7.2375    1.3561    2.4503 H   0  0  0  0  0  0  0  0  0  0  0  0
    8.5459    1.7273    0.0910 H   0  0  0  0  0  0  0  0  0  0  0  0
   -1.2914    1.2176    0.6162 H   0  0  0  0  0  0  0  0  0  0  0  0
  1  2  1  0  0  0  0
  2  3  1  0  0  0  0
  3  4  1  0  0  0  0
  4  5  1  0  0  0  0
  3  6  1  0  0  0  0
  6  7  2  0  0  0  0
  7  8  1  0  0  0  0
  8  9  2  0  0  0  0
  9 10  1  0  0  0  0
 10 11  2  0  0  0  0
 11 12  1  0  0  0  0
 12 13  3  0  0  0  0
 11 14  1  0  0  0  0
 14 15  2  0  0  0  0
 15 16  1  0  0  0  0
 16 17  2  0  0  0  0
 16 18  1  0  0  0  0
 18 19  2  0  0  0  0
 19 20  1  0  0  0  0
 20 21  2  0  0  0  0
 21 22  1  0  0  0  0
 14 23  1  0  0  0  0
 23 24  1  0  0  0  0
 24 25  2  0  0  0  0
 25  6  1  0  0  0  0
 24  9  1  0  0  0  0
 22 18  1  0  0  0  0
  1 26  1  0  0  0  0
  1 27  1  0  0  0  0
  1 28  1  0  0  0  0
  2 29  1  0  0  0  0
  2 30  1  0  0  0  0
  4 31  1  0  0  0  0
  4 32  1  0  0  0  0
  5 33  1  0  0  0  0
  5 34  1  0  0  0  0
  5 35  1  0  0  0  0
  7 36  1  0  0  0  0
  8 37  1  0  0  0  0
 10 38  1  0  0  0  0
 19 39  1  0  0  0  0
 20 40  1  0  0  0  0
 21 41  1  0  0  0  0
 25 42  1  0  0  0  0
M  END
