
  xtb     03022214473D
 energy: -40.249176072252 gnorm: 0.000177238056 xtb: 6.4.1 (afa7bdf)
 28 30  0     0  0            999 V2000
    4.7695   -1.3578    0.3732 C   0  0  0  0  0  0  0  0  0  0  0  0
    3.4489   -1.4764    0.4608 C   0  0  0  0  0  0  0  0  0  0  0  0
    2.4111   -0.3821    0.0648 B   0  0  0  0  0  0  0  0  0  0  0  0
    2.7028    1.0073   -0.4911 C   0  0  0  0  0  0  0  0  0  0  0  0
    1.6653    1.8300   -0.7769 C   0  0  0  0  0  0  0  0  0  0  0  0
    0.3071    1.4408   -0.5758 C   0  0  0  0  0  0  0  0  0  0  0  0
   -0.7478    2.3331   -0.8856 C   0  0  0  0  0  0  0  0  0  0  0  0
   -2.0461    1.9836   -0.7016 C   0  0  0  0  0  0  0  0  0  0  0  0
   -2.3855    0.7060   -0.1920 C   0  0  0  0  0  0  0  0  0  0  0  0
   -3.7304    0.3398   -0.0005 C   0  0  0  0  0  0  0  0  0  0  0  0
   -4.0652   -0.8928    0.4902 C   0  0  0  0  0  0  0  0  0  0  0  0
   -3.0576   -1.8088    0.8082 C   0  0  0  0  0  0  0  0  0  0  0  0
   -1.7395   -1.4789    0.6324 C   0  0  0  0  0  0  0  0  0  0  0  0
   -1.3588   -0.2188    0.1304 C   0  0  0  0  0  0  0  0  0  0  0  0
    0.0074    0.1685   -0.0682 C   0  0  0  0  0  0  0  0  0  0  0  0
    1.0350   -0.6742    0.2263 N   0  0  0  0  0  0  0  0  0  0  0  0
    5.2298   -0.4552    0.0048 H   0  0  0  0  0  0  0  0  0  0  0  0
    5.4510   -2.1445    0.6611 H   0  0  0  0  0  0  0  0  0  0  0  0
    3.0669   -2.4208    0.8433 H   0  0  0  0  0  0  0  0  0  0  0  0
    3.7035    1.3767   -0.6725 H   0  0  0  0  0  0  0  0  0  0  0  0
    1.8258    2.8264   -1.1735 H   0  0  0  0  0  0  0  0  0  0  0  0
   -0.4915    3.3082   -1.2750 H   0  0  0  0  0  0  0  0  0  0  0  0
   -2.8446    2.6711   -0.9398 H   0  0  0  0  0  0  0  0  0  0  0  0
   -4.4992    1.0570   -0.2508 H   0  0  0  0  0  0  0  0  0  0  0  0
   -5.1005   -1.1644    0.6338 H   0  0  0  0  0  0  0  0  0  0  0  0
   -3.3233   -2.7819    1.1947 H   0  0  0  0  0  0  0  0  0  0  0  0
   -0.9910   -2.2158    0.8900 H   0  0  0  0  0  0  0  0  0  0  0  0
    0.7574   -1.5756    0.5897 H   0  0  0  0  0  0  0  0  0  0  0  0
  1  2  2  0  0  0  0
  2  3  1  0  0  0  0
  3  4  1  0  0  0  0
  4  5  2  0  0  0  0
  5  6  1  0  0  0  0
  6  7  2  0  0  0  0
  7  8  1  0  0  0  0
  8  9  2  0  0  0  0
  9 10  1  0  0  0  0
 10 11  2  0  0  0  0
 11 12  1  0  0  0  0
 12 13  2  0  0  0  0
 13 14  1  0  0  0  0
 14 15  2  0  0  0  0
 15 16  1  0  0  0  0
 16  3  1  0  0  0  0
 15  6  1  0  0  0  0
 14  9  1  0  0  0  0
  1 17  1  0  0  0  0
  1 18  1  0  0  0  0
  2 19  1  0  0  0  0
  4 20  1  0  0  0  0
  5 21  1  0  0  0  0
  7 22  1  0  0  0  0
  8 23  1  0  0  0  0
 10 24  1  0  0  0  0
 11 25  1  0  0  0  0
 12 26  1  0  0  0  0
 13 27  1  0  0  0  0
 16 28  1  0  0  0  0
M  END
