
  xtb     03022216113D
 energy: -120.806937847700 gnorm: 0.000147772593 xtb: 6.4.1 (afa7bdf)
 75 82  0     0  0            999 V2000
   -3.8294    3.7418   -1.5533 C   0  0  0  0  0  0  0  0  0  0  0  0
   -3.0247    4.4784   -0.6697 O   0  0  0  0  0  0  0  0  0  0  0  0
   -1.9420    3.8724   -0.0989 C   0  0  0  0  0  0  0  0  0  0  0  0
   -1.6797    2.5133   -0.2040 C   0  0  0  0  0  0  0  0  0  0  0  0
   -0.5236    1.9919    0.3659 C   0  0  0  0  0  0  0  0  0  0  0  0
    0.4101    2.8554    0.9603 C   0  0  0  0  0  0  0  0  0  0  0  0
    0.1345    4.1970    1.0957 C   0  0  0  0  0  0  0  0  0  0  0  0
   -1.0541    4.7221    0.5946 C   0  0  0  0  0  0  0  0  0  0  0  0
   -1.3391    6.1481    0.7426 C   0  0  0  0  0  0  0  0  0  0  0  0
   -2.6223    6.6994    1.0193 C   0  0  0  0  0  0  0  0  0  0  0  0
   -2.6026    8.0474    1.1325 C   0  0  0  0  0  0  0  0  0  0  0  0
   -1.0260    8.6964    0.8957 S   0  0  0  0  0  0  0  0  0  0  0  0
   -0.3863    7.1235    0.6565 C   0  0  0  0  0  0  0  0  0  0  0  0
    1.6635    2.1162    1.3112 C   0  0  0  0  0  0  0  0  0  0  0  0
    1.3734    0.7450    0.7958 C   0  0  0  0  0  0  0  0  0  0  0  0
    2.2097   -0.3393    0.7019 C   0  0  0  0  0  0  0  0  0  0  0  0
    1.7481   -1.5450    0.1422 C   0  0  0  0  0  0  0  0  0  0  0  0
    0.4304   -1.6805   -0.2178 C   0  0  0  0  0  0  0  0  0  0  0  0
   -0.4686   -0.5958   -0.0455 C   0  0  0  0  0  0  0  0  0  0  0  0
    0.0314    0.6486    0.3436 C   0  0  0  0  0  0  0  0  0  0  0  0
   -1.8059   -1.1052   -0.3014 C   0  0  0  0  0  0  0  0  0  0  0  0
   -3.0572   -0.5626   -0.0332 C   0  0  0  0  0  0  0  0  0  0  0  0
   -4.1989   -1.3072   -0.2982 C   0  0  0  0  0  0  0  0  0  0  0  0
   -5.4654   -0.8544   -0.0646 O   0  0  0  0  0  0  0  0  0  0  0  0
   -5.6408    0.3937    0.5529 C   0  0  0  0  0  0  0  0  0  0  0  0
   -4.0968   -2.6007   -0.8518 C   0  0  0  0  0  0  0  0  0  0  0  0
   -5.2865   -3.3861   -1.1791 C   0  0  0  0  0  0  0  0  0  0  0  0
   -6.4690   -3.4679   -0.3906 C   0  0  0  0  0  0  0  0  0  0  0  0
   -7.3997   -4.2928   -0.9233 C   0  0  0  0  0  0  0  0  0  0  0  0
   -6.8778   -4.9910   -2.4076 S   0  0  0  0  0  0  0  0  0  0  0  0
   -5.3772   -4.1688   -2.2953 C   0  0  0  0  0  0  0  0  0  0  0  0
   -2.8349   -3.1516   -1.0620 C   0  0  0  0  0  0  0  0  0  0  0  0
   -1.7038   -2.4269   -0.7638 C   0  0  0  0  0  0  0  0  0  0  0  0
   -0.2745   -2.8710   -0.7802 C   0  0  0  0  0  0  0  0  0  0  0  0
    2.8762   -2.4964    0.1176 C   0  0  0  0  0  0  0  0  0  0  0  0
    2.9147   -3.6372   -0.2767 O   0  0  0  0  0  0  0  0  0  0  0  0
    3.9471   -1.8144    0.6786 N   0  0  0  0  0  0  0  0  0  0  0  0
    5.2681   -2.3858    0.8193 C   0  0  0  0  0  0  0  0  0  0  0  0
    6.0743   -2.1990   -0.4672 C   0  0  0  0  0  0  0  0  0  0  0  0
    7.4962   -2.7718   -0.4145 C   0  0  0  0  0  0  0  0  0  0  0  0
    7.4949   -4.2827   -0.1918 C   0  0  0  0  0  0  0  0  0  0  0  0
    8.3542   -2.0744    0.6390 C   0  0  0  0  0  0  0  0  0  0  0  0
    3.6332   -0.5144    1.0499 C   0  0  0  0  0  0  0  0  0  0  0  0
    4.4059    0.2655    1.5530 O   0  0  0  0  0  0  0  0  0  0  0  0
   -3.2438    3.3081   -2.3702 H   0  0  0  0  0  0  0  0  0  0  0  0
   -4.3771    2.9448   -1.0377 H   0  0  0  0  0  0  0  0  0  0  0  0
   -4.5447    4.4544   -1.9615 H   0  0  0  0  0  0  0  0  0  0  0  0
   -2.3323    1.8723   -0.7715 H   0  0  0  0  0  0  0  0  0  0  0  0
    0.8368    4.8542    1.5855 H   0  0  0  0  0  0  0  0  0  0  0  0
   -3.5068    6.1027    1.1396 H   0  0  0  0  0  0  0  0  0  0  0  0
   -3.4168    8.7117    1.3433 H   0  0  0  0  0  0  0  0  0  0  0  0
    0.6566    7.0113    0.4356 H   0  0  0  0  0  0  0  0  0  0  0  0
    2.5488    2.5522    0.8445 H   0  0  0  0  0  0  0  0  0  0  0  0
    1.8541    2.0918    2.3870 H   0  0  0  0  0  0  0  0  0  0  0  0
   -3.1311    0.4076    0.4270 H   0  0  0  0  0  0  0  0  0  0  0  0
   -5.1582    0.4338    1.5351 H   0  0  0  0  0  0  0  0  0  0  0  0
   -6.7167    0.5118    0.6752 H   0  0  0  0  0  0  0  0  0  0  0  0
   -5.2624    1.2115   -0.0702 H   0  0  0  0  0  0  0  0  0  0  0  0
   -6.5979   -2.9428    0.5367 H   0  0  0  0  0  0  0  0  0  0  0  0
   -8.3682   -4.5430   -0.5384 H   0  0  0  0  0  0  0  0  0  0  0  0
   -4.6533   -4.2886   -3.0768 H   0  0  0  0  0  0  0  0  0  0  0  0
   -2.7571   -4.1660   -1.4233 H   0  0  0  0  0  0  0  0  0  0  0  0
   -0.1104   -3.7679   -0.1799 H   0  0  0  0  0  0  0  0  0  0  0  0
    0.0885   -3.0945   -1.7865 H   0  0  0  0  0  0  0  0  0  0  0  0
    5.1421   -3.4470    1.0424 H   0  0  0  0  0  0  0  0  0  0  0  0
    5.7496   -1.8760    1.6557 H   0  0  0  0  0  0  0  0  0  0  0  0
    6.1307   -1.1290   -0.6837 H   0  0  0  0  0  0  0  0  0  0  0  0
    5.5288   -2.6796   -1.2833 H   0  0  0  0  0  0  0  0  0  0  0  0
    7.9438   -2.5763   -1.3966 H   0  0  0  0  0  0  0  0  0  0  0  0
    6.8256   -4.7741   -0.8939 H   0  0  0  0  0  0  0  0  0  0  0  0
    8.4962   -4.6831   -0.3344 H   0  0  0  0  0  0  0  0  0  0  0  0
    7.1768   -4.5268    0.8186 H   0  0  0  0  0  0  0  0  0  0  0  0
    9.3915   -2.3882    0.5444 H   0  0  0  0  0  0  0  0  0  0  0  0
    8.3102   -0.9947    0.5179 H   0  0  0  0  0  0  0  0  0  0  0  0
    8.0182   -2.3237    1.6422 H   0  0  0  0  0  0  0  0  0  0  0  0
  1  2  1  0  0  0  0
  2  3  1  0  0  0  0
  3  4  2  0  0  0  0
  4  5  1  0  0  0  0
  5  6  2  0  0  0  0
  6  7  1  0  0  0  0
  7  8  2  0  0  0  0
  8  9  1  0  0  0  0
  9 10  1  0  0  0  0
 10 11  2  0  0  0  0
 11 12  1  0  0  0  0
 12 13  1  0  0  0  0
  6 14  1  0  0  0  0
 14 15  1  0  0  0  0
 15 16  2  0  0  0  0
 16 17  1  0  0  0  0
 17 18  2  0  0  0  0
 18 19  1  0  0  0  0
 19 20  2  0  0  0  0
 19 21  1  0  0  0  0
 21 22  2  0  0  0  0
 22 23  1  0  0  0  0
 23 24  1  0  0  0  0
 24 25  1  0  0  0  0
 23 26  2  0  0  0  0
 26 27  1  0  0  0  0
 27 28  1  0  0  0  0
 28 29  2  0  0  0  0
 29 30  1  0  0  0  0
 30 31  1  0  0  0  0
 26 32  1  0  0  0  0
 32 33  2  0  0  0  0
 33 34  1  0  0  0  0
 17 35  1  0  0  0  0
 35 36  2  0  0  0  0
 35 37  1  0  0  0  0
 37 38  1  0  0  0  0
 38 39  1  0  0  0  0
 39 40  1  0  0  0  0
 40 41  1  0  0  0  0
 40 42  1  0  0  0  0
 37 43  1  0  0  0  0
 43 44  2  0  0  0  0
  8  3  1  0  0  0  0
 13  9  2  0  0  0  0
 20 15  1  0  0  0  0
 33 21  1  0  0  0  0
 20  5  1  0  0  0  0
 31 27  2  0  0  0  0
 43 16  1  0  0  0  0
 34 18  1  0  0  0  0
  1 45  1  0  0  0  0
  1 46  1  0  0  0  0
  1 47  1  0  0  0  0
  4 48  1  0  0  0  0
  7 49  1  0  0  0  0
 10 50  1  0  0  0  0
 11 51  1  0  0  0  0
 13 52  1  0  0  0  0
 14 53  1  0  0  0  0
 14 54  1  0  0  0  0
 22 55  1  0  0  0  0
 25 56  1  0  0  0  0
 25 57  1  0  0  0  0
 25 58  1  0  0  0  0
 28 59  1  0  0  0  0
 29 60  1  0  0  0  0
 31 61  1  0  0  0  0
 32 62  1  0  0  0  0
 34 63  1  0  0  0  0
 34 64  1  0  0  0  0
 38 65  1  0  0  0  0
 38 66  1  0  0  0  0
 39 67  1  0  0  0  0
 39 68  1  0  0  0  0
 40 69  1  0  0  0  0
 41 70  1  0  0  0  0
 41 71  1  0  0  0  0
 41 72  1  0  0  0  0
 42 73  1  0  0  0  0
 42 74  1  0  0  0  0
 42 75  1  0  0  0  0
M  END
