
  xtb     03022213013D
 energy: -71.165804923363 gnorm: 0.000098494200 xtb: 6.4.1 (afa7bdf)
 39 41  0     0  0            999 V2000
   -4.6117    2.7789   -0.8925 C   0  0  0  0  0  0  0  0  0  0  0  0
   -4.7626    1.3839   -0.7404 O   0  0  0  0  0  0  0  0  0  0  0  0
   -3.6633    0.6411   -0.4689 C   0  0  0  0  0  0  0  0  0  0  0  0
   -3.8934   -0.7296   -0.3126 C   0  0  0  0  0  0  0  0  0  0  0  0
   -2.8431   -1.5873   -0.0236 C   0  0  0  0  0  0  0  0  0  0  0  0
   -2.9671   -2.9263    0.1567 O   0  0  0  0  0  0  0  0  0  0  0  0
   -4.2473   -3.5060    0.0516 C   0  0  0  0  0  0  0  0  0  0  0  0
   -1.5481   -1.0803    0.1010 C   0  0  0  0  0  0  0  0  0  0  0  0
   -1.3164    0.2786   -0.0627 C   0  0  0  0  0  0  0  0  0  0  0  0
    0.0257    0.8637    0.0576 C   0  0  0  0  0  0  0  0  0  0  0  0
    0.0685    2.1388    0.2312 O   0  0  0  0  0  3  0  0  0  0  0  0
    1.3578    2.9086    0.2626 B   0  0  0  0  0  4  0  0  0  0  0  0
    1.4343    3.6523   -0.8842 F   0  0  0  0  0  0  0  0  0  0  0  0
    1.3723    3.6886    1.3763 F   0  0  0  0  0  0  0  0  0  0  0  0
    2.5388    1.9837    0.3018 O   0  0  0  0  0  0  0  0  0  0  0  0
    2.4225    0.7125    0.1343 C   0  0  0  0  0  0  0  0  0  0  0  0
    3.6803   -0.0462    0.1021 C   0  0  0  0  0  0  0  0  0  0  0  0
    4.8585    0.6255   -0.2313 C   0  0  0  0  0  0  0  0  0  0  0  0
    6.0606   -0.0528   -0.2768 C   0  0  0  0  0  0  0  0  0  0  0  0
    6.1056   -1.4056    0.0215 C   0  0  0  0  0  0  0  0  0  0  0  0
    4.9435   -2.0767    0.3694 C   0  0  0  0  0  0  0  0  0  0  0  0
    3.7356   -1.4066    0.4085 C   0  0  0  0  0  0  0  0  0  0  0  0
    1.1843    0.0909   -0.0192 C   0  0  0  0  0  0  0  0  0  0  0  0
   -2.3783    1.1444   -0.3428 C   0  0  0  0  0  0  0  0  0  0  0  0
   -5.6125    3.1613   -1.0855 H   0  0  0  0  0  0  0  0  0  0  0  0
   -3.9607    3.0209   -1.7374 H   0  0  0  0  0  0  0  0  0  0  0  0
   -4.2148    3.2393    0.0166 H   0  0  0  0  0  0  0  0  0  0  0  0
   -4.9078   -1.0758   -0.4199 H   0  0  0  0  0  0  0  0  0  0  0  0
   -4.6688   -3.3670   -0.9485 H   0  0  0  0  0  0  0  0  0  0  0  0
   -4.1036   -4.5689    0.2378 H   0  0  0  0  0  0  0  0  0  0  0  0
   -4.9347   -3.0967    0.7978 H   0  0  0  0  0  0  0  0  0  0  0  0
   -0.7624   -1.7718    0.3514 H   0  0  0  0  0  0  0  0  0  0  0  0
    4.8061    1.6787   -0.4597 H   0  0  0  0  0  0  0  0  0  0  0  0
    6.9652    0.4730   -0.5423 H   0  0  0  0  0  0  0  0  0  0  0  0
    7.0455   -1.9361   -0.0105 H   0  0  0  0  0  0  0  0  0  0  0  0
    4.9810   -3.1275    0.6151 H   0  0  0  0  0  0  0  0  0  0  0  0
    2.8434   -1.9345    0.7066 H   0  0  0  0  0  0  0  0  0  0  0  0
    1.1251   -0.9611   -0.2194 H   0  0  0  0  0  0  0  0  0  0  0  0
   -2.1585    2.1920   -0.4584 H   0  0  0  0  0  0  0  0  0  0  0  0
  1  2  1  0  0  0  0
  2  3  1  0  0  0  0
  3  4  2  0  0  0  0
  4  5  1  0  0  0  0
  5  6  1  0  0  0  0
  6  7  1  0  0  0  0
  5  8  2  0  0  0  0
  8  9  1  0  0  0  0
  9 10  1  0  0  0  0
 10 11  2  0  0  0  0
 11 12  1  0  0  0  0
 12 13  1  0  0  0  0
 12 14  1  0  0  0  0
 12 15  1  0  0  0  0
 15 16  1  0  0  0  0
 16 17  1  0  0  0  0
 17 18  2  0  0  0  0
 18 19  1  0  0  0  0
 19 20  2  0  0  0  0
 20 21  1  0  0  0  0
 21 22  2  0  0  0  0
 16 23  2  0  0  0  0
  9 24  2  0  0  0  0
 24  3  1  0  0  0  0
 23 10  1  0  0  0  0
 22 17  1  0  0  0  0
  1 25  1  0  0  0  0
  1 26  1  0  0  0  0
  1 27  1  0  0  0  0
  4 28  1  0  0  0  0
  7 29  1  0  0  0  0
  7 30  1  0  0  0  0
  7 31  1  0  0  0  0
  8 32  1  0  0  0  0
 18 33  1  0  0  0  0
 19 34  1  0  0  0  0
 20 35  1  0  0  0  0
 21 36  1  0  0  0  0
 22 37  1  0  0  0  0
 23 38  1  0  0  0  0
 24 39  1  0  0  0  0
M  CHG  1  11   1
M  CHG  1  12  -1
M  END
