
  xtb     03022213233D
 energy: -93.120791742954 gnorm: 0.000291171129 xtb: 6.4.1 (afa7bdf)
 60 63  0     0  0            999 V2000
    4.0049   -3.6578    0.3203 C   0  0  0  0  0  0  0  0  0  0  0  0
    5.0052   -2.6757    0.2293 O   0  0  0  0  0  0  0  0  0  0  0  0
    4.6284   -1.3614    0.0699 C   0  0  0  0  0  0  0  0  0  0  0  0
    3.3010   -0.9602    0.0594 C   0  0  0  0  0  0  0  0  0  0  0  0
    2.9416    0.3789   -0.0817 C   0  0  0  0  0  0  0  0  0  0  0  0
    1.5714    0.8357   -0.0965 C   0  0  0  0  0  0  0  0  0  0  0  0
    0.4764    0.0761    0.0955 C   0  0  0  0  0  0  0  0  0  0  0  0
   -0.8949    0.5093    0.0869 C   0  0  0  0  0  0  0  0  0  0  0  0
   -1.7899   -0.4375    0.3138 N   0  0  0  0  0  0  0  0  0  0  0  0
   -3.0898   -0.1855    0.3490 C   0  0  0  0  0  0  0  0  0  0  0  0
   -3.9167   -1.2481    0.6464 N   0  0  0  0  0  0  0  0  0  0  0  0
   -5.1306   -1.4813   -0.1225 C   0  0  0  0  0  0  0  0  0  0  0  0
   -5.0527   -2.8437   -0.8444 C   0  0  0  0  0  0  0  0  0  0  0  0
   -3.7455   -3.0988   -1.2861 O   0  0  0  0  0  0  0  0  0  0  0  0
   -2.8393   -3.2832   -0.2112 C   0  0  0  0  0  0  0  0  0  0  0  0
   -3.2682   -2.4855    1.0297 C   0  0  0  0  0  0  0  0  0  0  0  0
   -3.5586    1.1417    0.2109 C   0  0  0  0  0  0  0  0  0  0  0  0
   -2.6102    2.1057   -0.0545 C   0  0  0  0  0  0  0  0  0  0  0  0
   -1.2800    1.8001   -0.1449 N   0  0  0  0  0  4  0  0  0  0  0  0
   -0.4545    2.7345   -0.4013 O   0  0  0  0  0  1  0  0  0  0  0  0
   -2.9124    3.5604   -0.2162 C   0  0  0  0  0  0  0  0  0  0  0  0
   -4.4037    3.8651   -0.2045 C   0  0  0  0  0  0  0  0  0  0  0  0
   -5.0886    3.0111    0.8548 C   0  0  0  0  0  0  0  0  0  0  0  0
   -4.9891    1.5436    0.4490 C   0  0  0  0  0  0  0  0  0  0  0  0
    3.9563    1.3311   -0.2161 C   0  0  0  0  0  0  0  0  0  0  0  0
    5.2840    0.9532   -0.2131 C   0  0  0  0  0  0  0  0  0  0  0  0
    6.3372    1.8091   -0.3426 O   0  0  0  0  0  0  0  0  0  0  0  0
    6.0648    3.1810   -0.4813 C   0  0  0  0  0  0  0  0  0  0  0  0
    5.6461   -0.4053   -0.0764 C   0  0  0  0  0  0  0  0  0  0  0  0
    6.9903   -0.6179   -0.0798 O   0  0  0  0  0  0  0  0  0  0  0  0
    7.5251   -1.9061   -0.2745 C   0  0  0  0  0  0  0  0  0  0  0  0
    4.5375   -4.6043    0.4058 H   0  0  0  0  0  0  0  0  0  0  0  0
    3.3739   -3.6789   -0.5742 H   0  0  0  0  0  0  0  0  0  0  0  0
    3.3778   -3.5171    1.2069 H   0  0  0  0  0  0  0  0  0  0  0  0
    2.5237   -1.6963    0.1648 H   0  0  0  0  0  0  0  0  0  0  0  0
    1.4339    1.8923   -0.2759 H   0  0  0  0  0  0  0  0  0  0  0  0
    0.5555   -0.9848    0.2885 H   0  0  0  0  0  0  0  0  0  0  0  0
   -6.0061   -1.4679    0.5394 H   0  0  0  0  0  0  0  0  0  0  0  0
   -5.2356   -0.6967   -0.8697 H   0  0  0  0  0  0  0  0  0  0  0  0
   -5.4028   -3.6526   -0.1863 H   0  0  0  0  0  0  0  0  0  0  0  0
   -5.6790   -2.8300   -1.7382 H   0  0  0  0  0  0  0  0  0  0  0  0
   -2.7658   -4.3534    0.0353 H   0  0  0  0  0  0  0  0  0  0  0  0
   -1.8739   -2.9254   -0.5734 H   0  0  0  0  0  0  0  0  0  0  0  0
   -2.3964   -2.2498    1.6372 H   0  0  0  0  0  0  0  0  0  0  0  0
   -3.9843   -3.0547    1.6302 H   0  0  0  0  0  0  0  0  0  0  0  0
   -2.4374    3.9043   -1.1396 H   0  0  0  0  0  0  0  0  0  0  0  0
   -2.4008    4.0909    0.5942 H   0  0  0  0  0  0  0  0  0  0  0  0
   -4.5586    4.9263   -0.0053 H   0  0  0  0  0  0  0  0  0  0  0  0
   -4.8380    3.6412   -1.1812 H   0  0  0  0  0  0  0  0  0  0  0  0
   -6.1383    3.2916    0.9552 H   0  0  0  0  0  0  0  0  0  0  0  0
   -4.6014    3.1634    1.8198 H   0  0  0  0  0  0  0  0  0  0  0  0
   -5.4091    0.9020    1.2260 H   0  0  0  0  0  0  0  0  0  0  0  0
   -5.5809    1.4001   -0.4599 H   0  0  0  0  0  0  0  0  0  0  0  0
    3.6775    2.3662   -0.3253 H   0  0  0  0  0  0  0  0  0  0  0  0
    5.4787    3.3884   -1.3829 H   0  0  0  0  0  0  0  0  0  0  0  0
    7.0370    3.6643   -0.5656 H   0  0  0  0  0  0  0  0  0  0  0  0
    5.5380    3.5791    0.3923 H   0  0  0  0  0  0  0  0  0  0  0  0
    7.3482   -2.5561    0.5852 H   0  0  0  0  0  0  0  0  0  0  0  0
    8.5970   -1.7505   -0.3983 H   0  0  0  0  0  0  0  0  0  0  0  0
    7.1213   -2.3803   -1.1725 H   0  0  0  0  0  0  0  0  0  0  0  0
  1  2  1  0  0  0  0
  2  3  1  0  0  0  0
  3  4  2  0  0  0  0
  4  5  1  0  0  0  0
  5  6  1  0  0  0  0
  6  7  2  0  0  0  0
  7  8  1  0  0  0  0
  8  9  2  0  0  0  0
  9 10  1  0  0  0  0
 10 11  1  0  0  0  0
 11 12  1  0  0  0  0
 12 13  1  0  0  0  0
 13 14  1  0  0  0  0
 14 15  1  0  0  0  0
 15 16  1  0  0  0  0
 10 17  2  0  0  0  0
 17 18  1  0  0  0  0
 18 19  2  0  0  0  0
 19 20  1  0  0  0  0
 18 21  1  0  0  0  0
 21 22  1  0  0  0  0
 22 23  1  0  0  0  0
 23 24  1  0  0  0  0
  5 25  2  0  0  0  0
 25 26  1  0  0  0  0
 26 27  1  0  0  0  0
 27 28  1  0  0  0  0
 26 29  2  0  0  0  0
 29 30  1  0  0  0  0
 30 31  1  0  0  0  0
 29  3  1  0  0  0  0
 19  8  1  0  0  0  0
 16 11  1  0  0  0  0
 24 17  1  0  0  0  0
  1 32  1  0  0  0  0
  1 33  1  0  0  0  0
  1 34  1  0  0  0  0
  4 35  1  0  0  0  0
  6 36  1  0  0  0  0
  7 37  1  0  0  0  0
 12 38  1  0  0  0  0
 12 39  1  0  0  0  0
 13 40  1  0  0  0  0
 13 41  1  0  0  0  0
 15 42  1  0  0  0  0
 15 43  1  0  0  0  0
 16 44  1  0  0  0  0
 16 45  1  0  0  0  0
 21 46  1  0  0  0  0
 21 47  1  0  0  0  0
 22 48  1  0  0  0  0
 22 49  1  0  0  0  0
 23 50  1  0  0  0  0
 23 51  1  0  0  0  0
 24 52  1  0  0  0  0
 24 53  1  0  0  0  0
 25 54  1  0  0  0  0
 28 55  1  0  0  0  0
 28 56  1  0  0  0  0
 28 57  1  0  0  0  0
 31 58  1  0  0  0  0
 31 59  1  0  0  0  0
 31 60  1  0  0  0  0
M  CHG  1  19   1
M  CHG  1  20  -1
M  END
