
  xtb     03022212033D
 energy: -69.060655390827 gnorm: 0.000087414165 xtb: 6.4.1 (afa7bdf)
 42 44  0     0  0            999 V2000
    6.0261    2.9721    1.4242 C   0  0  0  0  0  0  0  0  0  0  0  0
    5.6199    1.7327    0.8633 O   0  0  0  0  0  0  0  0  0  0  0  0
    4.3035    1.5400    0.7671 C   0  0  0  0  0  0  0  0  0  0  0  0
    3.4780    2.3477    1.1248 O   0  0  0  0  0  0  0  0  0  0  0  0
    3.9455    0.2305    0.1747 C   0  0  0  0  0  0  0  0  0  0  0  0
    4.8580   -0.6996   -0.2367 C   0  0  0  0  0  0  0  0  0  0  0  0
    4.4731   -1.9663   -0.8100 C   0  0  0  0  0  0  0  0  0  0  0  0
    5.2637   -2.8179   -1.1870 O   0  0  0  0  0  0  0  0  0  0  0  0
    3.0964   -2.1904   -0.9224 N   0  0  0  0  0  0  0  0  0  0  0  0
    2.6578   -3.4447   -1.4908 C   0  0  0  0  0  0  0  0  0  0  0  0
    2.1707   -1.2774   -0.5188 C   0  0  0  0  0  0  0  0  0  0  0  0
    0.7688   -1.3911   -0.5815 C   0  0  0  0  0  0  0  0  0  0  0  0
    0.1179   -0.2850   -0.0883 C   0  0  0  0  0  0  0  0  0  0  0  0
   -1.3022   -0.0617    0.0013 C   0  0  0  0  0  0  0  0  0  0  0  0
   -1.8096    1.1296    0.5313 C   0  0  0  0  0  0  0  0  0  0  0  0
   -3.1596    1.3630    0.6266 C   0  0  0  0  0  0  0  0  0  0  0  0
   -4.0963    0.4085    0.1931 C   0  0  0  0  0  0  0  0  0  0  0  0
   -5.4402    0.6322    0.2859 N   0  0  0  0  0  0  0  0  0  0  0  0
   -6.3804   -0.3289   -0.2345 C   0  0  0  0  0  0  0  0  0  0  0  0
   -5.9413    1.8386    0.8959 C   0  0  0  0  0  0  0  0  0  0  0  0
   -3.5865   -0.7878   -0.3398 C   0  0  0  0  0  0  0  0  0  0  0  0
   -2.2338   -1.0123   -0.4313 C   0  0  0  0  0  0  0  0  0  0  0  0
    1.2418    0.9351    0.4707 S   0  0  0  0  0  0  0  0  0  0  0  0
    2.5785   -0.0618    0.0321 C   0  0  0  0  0  0  0  0  0  0  0  0
    5.6488    3.8022    0.8233 H   0  0  0  0  0  0  0  0  0  0  0  0
    5.6411    3.0724    2.4413 H   0  0  0  0  0  0  0  0  0  0  0  0
    7.1129    2.9626    1.4252 H   0  0  0  0  0  0  0  0  0  0  0  0
    5.9159   -0.5177   -0.1462 H   0  0  0  0  0  0  0  0  0  0  0  0
    2.0722   -3.2698   -2.3946 H   0  0  0  0  0  0  0  0  0  0  0  0
    3.5533   -4.0139   -1.7392 H   0  0  0  0  0  0  0  0  0  0  0  0
    2.0581   -4.0013   -0.7692 H   0  0  0  0  0  0  0  0  0  0  0  0
    0.2600   -2.2510   -0.9734 H   0  0  0  0  0  0  0  0  0  0  0  0
   -1.1174    1.8855    0.8725 H   0  0  0  0  0  0  0  0  0  0  0  0
   -3.4888    2.3023    1.0384 H   0  0  0  0  0  0  0  0  0  0  0  0
   -6.3337   -1.2730    0.3183 H   0  0  0  0  0  0  0  0  0  0  0  0
   -7.3898    0.0653   -0.1474 H   0  0  0  0  0  0  0  0  0  0  0  0
   -6.1874   -0.5336   -1.2915 H   0  0  0  0  0  0  0  0  0  0  0  0
   -7.0258    1.7919    0.9571 H   0  0  0  0  0  0  0  0  0  0  0  0
   -5.5501    1.9553    1.9104 H   0  0  0  0  0  0  0  0  0  0  0  0
   -5.6694    2.7246    0.3126 H   0  0  0  0  0  0  0  0  0  0  0  0
   -4.2556   -1.5591   -0.6839 H   0  0  0  0  0  0  0  0  0  0  0  0
   -1.8943   -1.9484   -0.8465 H   0  0  0  0  0  0  0  0  0  0  0  0
  1  2  1  0  0  0  0
  2  3  1  0  0  0  0
  3  4  2  0  0  0  0
  3  5  1  0  0  0  0
  5  6  2  0  0  0  0
  6  7  1  0  0  0  0
  7  8  2  0  0  0  0
  7  9  1  0  0  0  0
  9 10  1  0  0  0  0
  9 11  1  0  0  0  0
 11 12  1  0  0  0  0
 12 13  2  0  0  0  0
 13 14  1  0  0  0  0
 14 15  2  0  0  0  0
 15 16  1  0  0  0  0
 16 17  2  0  0  0  0
 17 18  1  0  0  0  0
 18 19  1  0  0  0  0
 18 20  1  0  0  0  0
 17 21  1  0  0  0  0
 21 22  2  0  0  0  0
 13 23  1  0  0  0  0
 23 24  1  0  0  0  0
 24  5  1  0  0  0  0
 24 11  2  0  0  0  0
 22 14  1  0  0  0  0
  1 25  1  0  0  0  0
  1 26  1  0  0  0  0
  1 27  1  0  0  0  0
  6 28  1  0  0  0  0
 10 29  1  0  0  0  0
 10 30  1  0  0  0  0
 10 31  1  0  0  0  0
 12 32  1  0  0  0  0
 15 33  1  0  0  0  0
 16 34  1  0  0  0  0
 19 35  1  0  0  0  0
 19 36  1  0  0  0  0
 19 37  1  0  0  0  0
 20 38  1  0  0  0  0
 20 39  1  0  0  0  0
 20 40  1  0  0  0  0
 21 41  1  0  0  0  0
 22 42  1  0  0  0  0
M  END
