
  xtb     03022214323D
 energy: -26.290992692742 gnorm: 0.000222672602 xtb: 6.4.1 (afa7bdf)
 16 16  0     0  0            999 V2000
    3.2429   -0.6392    3.5790 O   0  0  0  0  0  0  0  0  0  0  0  0
    3.1392    0.0410    2.5900 C   0  0  0  0  0  0  0  0  0  0  0  0
    2.0448    0.0272    1.6836 C   0  0  0  0  0  0  0  0  0  0  0  0
    1.1073    0.0047    0.9187 C   0  0  0  0  0  0  0  0  0  0  0  0
    0.0217   -0.0055    0.0193 C   0  0  0  0  0  0  0  0  0  0  0  0
   -1.0449   -0.8849    0.2230 C   0  0  0  0  0  0  0  0  0  0  0  0
   -2.1080   -0.8908   -0.6583 C   0  0  0  0  0  0  0  0  0  0  0  0
   -2.1198   -0.0272   -1.7432 C   0  0  0  0  0  0  0  0  0  0  0  0
   -1.0630    0.8467   -1.9494 C   0  0  0  0  0  0  0  0  0  0  0  0
    0.0064    0.8622   -1.0758 C   0  0  0  0  0  0  0  0  0  0  0  0
    3.9261    0.7665    2.2953 H   0  0  0  0  0  0  0  0  0  0  0  0
   -1.0252   -1.5528    1.0712 H   0  0  0  0  0  0  0  0  0  0  0  0
   -2.9323   -1.5704   -0.5007 H   0  0  0  0  0  0  0  0  0  0  0  0
   -2.9538   -0.0349   -2.4291 H   0  0  0  0  0  0  0  0  0  0  0  0
   -1.0752    1.5180   -2.7954 H   0  0  0  0  0  0  0  0  0  0  0  0
    0.8338    1.5395   -1.2282 H   0  0  0  0  0  0  0  0  0  0  0  0
  1  2  2  0  0  0  0
  2  3  1  0  0  0  0
  3  4  3  0  0  0  0
  4  5  1  0  0  0  0
  5  6  2  0  0  0  0
  6  7  1  0  0  0  0
  7  8  2  0  0  0  0
  8  9  1  0  0  0  0
  9 10  2  0  0  0  0
 10  5  1  0  0  0  0
  2 11  1  0  0  0  0
  6 12  1  0  0  0  0
  7 13  1  0  0  0  0
  8 14  1  0  0  0  0
  9 15  1  0  0  0  0
 10 16  1  0  0  0  0
M  END
