
  xtb     03022214153D
 energy: -90.276591087557 gnorm: 0.000090502750 xtb: 6.4.1 (afa7bdf)
 56 61  0     0  0            999 V2000
    6.5611    1.3063   -2.0249 O   0  0  0  0  0  0  0  0  0  0  0  0
    6.0712    0.5924   -1.1675 C   0  0  0  0  0  0  0  0  0  0  0  0
    6.9091   -0.2350   -0.2696 C   0  0  0  0  0  0  0  0  0  0  0  0
    8.2933   -0.1837   -0.4119 C   0  0  0  0  0  0  0  0  0  0  0  0
    9.1152   -0.9375    0.4054 C   0  0  0  0  0  0  0  0  0  0  0  0
    8.5613   -1.7560    1.3789 C   0  0  0  0  0  0  0  0  0  0  0  0
    7.1884   -1.8163    1.5296 C   0  0  0  0  0  0  0  0  0  0  0  0
    6.3498   -1.0613    0.7130 C   0  0  0  0  0  0  0  0  0  0  0  0
    4.8875   -1.1586    0.9137 C   0  0  0  0  0  0  0  0  0  0  0  0
    4.4013   -1.8795    1.7657 O   0  0  0  0  0  0  0  0  0  0  0  0
    4.0522   -0.3248    0.0226 C   0  0  0  0  0  0  0  0  0  0  0  0
    2.6729   -0.3690    0.1754 C   0  0  0  0  0  0  0  0  0  0  0  0
    1.8254    0.3926   -0.6273 C   0  0  0  0  0  0  0  0  0  0  0  0
    0.3742    0.3393   -0.4451 C   0  0  0  0  0  0  0  0  0  0  0  0
   -0.4928    0.4223   -1.5359 C   0  0  0  0  0  0  0  0  0  0  0  0
   -1.8584    0.3730   -1.3653 C   0  0  0  0  0  0  0  0  0  0  0  0
   -2.4112    0.2538   -0.0876 C   0  0  0  0  0  0  0  0  0  0  0  0
   -3.7911    0.2150    0.0893 N   0  0  0  0  0  0  0  0  0  0  0  0
   -4.6320    0.9549   -0.7535 C   0  0  0  0  0  0  0  0  0  0  0  0
   -4.2612    2.2293   -1.1809 C   0  0  0  0  0  0  0  0  0  0  0  0
   -5.0949    2.9544   -2.0099 C   0  0  0  0  0  0  0  0  0  0  0  0
   -6.3099    2.4283   -2.4173 C   0  0  0  0  0  0  0  0  0  0  0  0
   -6.6852    1.1650   -1.9904 C   0  0  0  0  0  0  0  0  0  0  0  0
   -5.8546    0.4285   -1.1683 C   0  0  0  0  0  0  0  0  0  0  0  0
   -4.3514   -0.5631    1.1122 C   0  0  0  0  0  0  0  0  0  0  0  0
   -5.4581   -0.1009    1.8230 C   0  0  0  0  0  0  0  0  0  0  0  0
   -6.0144   -0.8749    2.8229 C   0  0  0  0  0  0  0  0  0  0  0  0
   -5.4747   -2.1119    3.1351 C   0  0  0  0  0  0  0  0  0  0  0  0
   -4.3730   -2.5736    2.4338 C   0  0  0  0  0  0  0  0  0  0  0  0
   -3.8149   -1.8111    1.4262 C   0  0  0  0  0  0  0  0  0  0  0  0
   -1.5476    0.1742    1.0081 C   0  0  0  0  0  0  0  0  0  0  0  0
   -0.1829    0.2086    0.8284 C   0  0  0  0  0  0  0  0  0  0  0  0
    2.4002    1.2105   -1.6048 C   0  0  0  0  0  0  0  0  0  0  0  0
    3.7684    1.2612   -1.7660 C   0  0  0  0  0  0  0  0  0  0  0  0
    4.6154    0.5011   -0.9605 C   0  0  0  0  0  0  0  0  0  0  0  0
    8.7029    0.4601   -1.1763 H   0  0  0  0  0  0  0  0  0  0  0  0
   10.1873   -0.8884    0.2851 H   0  0  0  0  0  0  0  0  0  0  0  0
    9.2008   -2.3456    2.0189 H   0  0  0  0  0  0  0  0  0  0  0  0
    6.7354   -2.4466    2.2807 H   0  0  0  0  0  0  0  0  0  0  0  0
    2.2707   -1.0315    0.9278 H   0  0  0  0  0  0  0  0  0  0  0  0
   -0.0895    0.4879   -2.5356 H   0  0  0  0  0  0  0  0  0  0  0  0
   -2.5123    0.4170   -2.2238 H   0  0  0  0  0  0  0  0  0  0  0  0
   -3.3197    2.6463   -0.8540 H   0  0  0  0  0  0  0  0  0  0  0  0
   -4.7973    3.9413   -2.3321 H   0  0  0  0  0  0  0  0  0  0  0  0
   -6.9603    2.9994   -3.0621 H   0  0  0  0  0  0  0  0  0  0  0  0
   -7.6290    0.7456   -2.3063 H   0  0  0  0  0  0  0  0  0  0  0  0
   -6.1451   -0.5597   -0.8431 H   0  0  0  0  0  0  0  0  0  0  0  0
   -5.8749    0.8672    1.5867 H   0  0  0  0  0  0  0  0  0  0  0  0
   -6.8708   -0.5052    3.3673 H   0  0  0  0  0  0  0  0  0  0  0  0
   -5.9103   -2.7123    3.9192 H   0  0  0  0  0  0  0  0  0  0  0  0
   -3.9492   -3.5394    2.6665 H   0  0  0  0  0  0  0  0  0  0  0  0
   -2.9632   -2.1784    0.8725 H   0  0  0  0  0  0  0  0  0  0  0  0
   -1.9597    0.0955    2.0032 H   0  0  0  0  0  0  0  0  0  0  0  0
    0.4635    0.1710    1.6923 H   0  0  0  0  0  0  0  0  0  0  0  0
    1.7659    1.8259   -2.2253 H   0  0  0  0  0  0  0  0  0  0  0  0
    4.2161    1.8964   -2.5162 H   0  0  0  0  0  0  0  0  0  0  0  0
  1  2  2  0  0  0  0
  2  3  1  0  0  0  0
  3  4  2  0  0  0  0
  4  5  1  0  0  0  0
  5  6  2  0  0  0  0
  6  7  1  0  0  0  0
  7  8  2  0  0  0  0
  8  9  1  0  0  0  0
  9 10  2  0  0  0  0
  9 11  1  0  0  0  0
 11 12  2  0  0  0  0
 12 13  1  0  0  0  0
 13 14  1  0  0  0  0
 14 15  2  0  0  0  0
 15 16  1  0  0  0  0
 16 17  2  0  0  0  0
 17 18  1  0  0  0  0
 18 19  1  0  0  0  0
 19 20  2  0  0  0  0
 20 21  1  0  0  0  0
 21 22  2  0  0  0  0
 22 23  1  0  0  0  0
 23 24  2  0  0  0  0
 18 25  1  0  0  0  0
 25 26  2  0  0  0  0
 26 27  1  0  0  0  0
 27 28  2  0  0  0  0
 28 29  1  0  0  0  0
 29 30  2  0  0  0  0
 17 31  1  0  0  0  0
 31 32  2  0  0  0  0
 13 33  2  0  0  0  0
 33 34  1  0  0  0  0
 34 35  2  0  0  0  0
 35  2  1  0  0  0  0
  8  3  1  0  0  0  0
 35 11  1  0  0  0  0
 32 14  1  0  0  0  0
 24 19  1  0  0  0  0
 30 25  1  0  0  0  0
  4 36  1  0  0  0  0
  5 37  1  0  0  0  0
  6 38  1  0  0  0  0
  7 39  1  0  0  0  0
 12 40  1  0  0  0  0
 15 41  1  0  0  0  0
 16 42  1  0  0  0  0
 20 43  1  0  0  0  0
 21 44  1  0  0  0  0
 22 45  1  0  0  0  0
 23 46  1  0  0  0  0
 24 47  1  0  0  0  0
 26 48  1  0  0  0  0
 27 49  1  0  0  0  0
 28 50  1  0  0  0  0
 29 51  1  0  0  0  0
 30 52  1  0  0  0  0
 31 53  1  0  0  0  0
 32 54  1  0  0  0  0
 33 55  1  0  0  0  0
 34 56  1  0  0  0  0
M  END
