
  xtb     03022213563D
 energy: -92.557789680668 gnorm: 0.000083335397 xtb: 6.4.1 (afa7bdf)
 56 61  0     0  0            999 V2000
   -4.0942   -2.3568    2.3183 C   0  0  0  0  0  0  0  0  0  0  0  0
   -4.3967   -0.9124    1.9470 C   0  0  0  0  0  0  0  0  0  0  0  0
   -3.2890   -0.2539    1.2560 N   0  0  0  0  0  0  0  0  0  0  0  0
   -2.3389    0.3506    2.0557 C   0  0  0  0  0  0  0  0  0  0  0  0
   -2.3698    0.2319    3.2572 O   0  0  0  0  0  0  0  0  0  0  0  0
   -1.3004    1.1883    1.3583 C   0  0  0  0  0  0  0  0  0  0  0  0
    0.1472    0.7486    1.7119 C   0  0  0  0  0  0  0  0  0  0  0  0
    1.0607    1.9973    1.5884 C   0  0  0  0  0  0  0  0  0  0  0  0
    0.8896    3.0137    2.2196 O   0  0  0  0  0  0  0  0  0  0  0  0
    2.0645    1.6921    0.5764 C   0  0  0  0  0  0  0  0  0  0  0  0
    3.1114    2.4472    0.0434 C   0  0  0  0  0  0  0  0  0  0  0  0
    3.4204    3.7571    0.4778 C   0  0  0  0  0  0  0  0  0  0  0  0
    4.4579    4.4433   -0.0777 C   0  0  0  0  0  0  0  0  0  0  0  0
    5.2426    3.8590   -1.0959 C   0  0  0  0  0  0  0  0  0  0  0  0
    4.9735    2.6023   -1.5426 C   0  0  0  0  0  0  0  0  0  0  0  0
    3.9025    1.8431   -0.9980 C   0  0  0  0  0  0  0  0  0  0  0  0
    3.6295    0.5575   -1.4619 C   0  0  0  0  0  0  0  0  0  0  0  0
    2.5822   -0.2087   -0.9316 C   0  0  0  0  0  0  0  0  0  0  0  0
    2.1973   -1.4986   -1.3186 C   0  0  0  0  0  0  0  0  0  0  0  0
    1.1418   -2.1515   -0.6885 C   0  0  0  0  0  0  0  0  0  0  0  0
    0.7551   -3.4593   -1.0911 C   0  0  0  0  0  0  0  0  0  0  0  0
   -0.2591   -4.1200   -0.4734 C   0  0  0  0  0  0  0  0  0  0  0  0
   -0.9432   -3.5266    0.6107 C   0  0  0  0  0  0  0  0  0  0  0  0
   -0.6220   -2.2719    1.0242 C   0  0  0  0  0  0  0  0  0  0  0  0
    0.4015   -1.5275    0.3824 C   0  0  0  0  0  0  0  0  0  0  0  0
    0.7439   -0.2273    0.7347 C   0  0  0  0  0  0  0  0  0  0  0  0
    1.8185    0.3959    0.0979 C   0  0  0  0  0  0  0  0  0  0  0  0
   -1.3955    1.2867   -0.1426 C   0  0  0  0  0  0  0  0  0  0  0  0
   -0.6973    2.0385   -0.7795 O   0  0  0  0  0  0  0  0  0  0  0  0
   -2.2905    0.4392   -0.7649 N   0  0  0  0  0  0  0  0  0  0  0  0
   -2.2612    0.4214   -2.2253 C   0  0  0  0  0  0  0  0  0  0  0  0
   -1.3131   -0.6490   -2.7465 C   0  0  0  0  0  0  0  0  0  0  0  0
   -3.1926   -0.3574   -0.1084 C   0  0  0  0  0  0  0  0  0  0  0  0
   -4.1586   -1.3993   -0.9360 S   0  0  0  0  0  0  0  0  0  0  0  0
   -4.9574   -2.7819    2.8222 H   0  0  0  0  0  0  0  0  0  0  0  0
   -3.2421   -2.4047    2.9910 H   0  0  0  0  0  0  0  0  0  0  0  0
   -3.8883   -2.9417    1.4261 H   0  0  0  0  0  0  0  0  0  0  0  0
   -4.5829   -0.3303    2.8518 H   0  0  0  0  0  0  0  0  0  0  0  0
   -5.2680   -0.8653    1.2918 H   0  0  0  0  0  0  0  0  0  0  0  0
   -1.3989    2.2035    1.7749 H   0  0  0  0  0  0  0  0  0  0  0  0
    0.1490    0.3920    2.7468 H   0  0  0  0  0  0  0  0  0  0  0  0
    2.8095    4.1896    1.2545 H   0  0  0  0  0  0  0  0  0  0  0  0
    4.6915    5.4436    0.2554 H   0  0  0  0  0  0  0  0  0  0  0  0
    6.0607    4.4241   -1.5181 H   0  0  0  0  0  0  0  0  0  0  0  0
    5.5723    2.1551   -2.3234 H   0  0  0  0  0  0  0  0  0  0  0  0
    4.2423    0.1429   -2.2508 H   0  0  0  0  0  0  0  0  0  0  0  0
    2.7232   -1.9981   -2.1198 H   0  0  0  0  0  0  0  0  0  0  0  0
    1.2961   -3.9196   -1.9053 H   0  0  0  0  0  0  0  0  0  0  0  0
   -0.5432   -5.1114   -0.7930 H   0  0  0  0  0  0  0  0  0  0  0  0
   -1.7176   -4.0874    1.1121 H   0  0  0  0  0  0  0  0  0  0  0  0
   -1.1212   -1.8279    1.8715 H   0  0  0  0  0  0  0  0  0  0  0  0
   -1.9235    1.4094   -2.5431 H   0  0  0  0  0  0  0  0  0  0  0  0
   -3.2758    0.2444   -2.5849 H   0  0  0  0  0  0  0  0  0  0  0  0
   -0.2970   -0.4445   -2.4183 H   0  0  0  0  0  0  0  0  0  0  0  0
   -1.6101   -1.6315   -2.3869 H   0  0  0  0  0  0  0  0  0  0  0  0
   -1.3365   -0.6537   -3.8322 H   0  0  0  0  0  0  0  0  0  0  0  0
  1  2  1  0  0  0  0
  2  3  1  0  0  0  0
  3  4  1  0  0  0  0
  4  5  2  0  0  0  0
  4  6  1  0  0  0  0
  6  7  1  0  0  0  0
  7  8  1  0  0  0  0
  8  9  2  0  0  0  0
  8 10  1  0  0  0  0
 10 11  1  0  0  0  0
 11 12  2  0  0  0  0
 12 13  1  0  0  0  0
 13 14  2  0  0  0  0
 14 15  1  0  0  0  0
 15 16  2  0  0  0  0
 16 17  1  0  0  0  0
 17 18  2  0  0  0  0
 18 19  1  0  0  0  0
 19 20  2  0  0  0  0
 20 21  1  0  0  0  0
 21 22  2  0  0  0  0
 22 23  1  0  0  0  0
 23 24  2  0  0  0  0
 24 25  1  0  0  0  0
 25 26  2  0  0  0  0
 26 27  1  0  0  0  0
  6 28  1  0  0  0  0
 28 29  2  0  0  0  0
 28 30  1  0  0  0  0
 30 31  1  0  0  0  0
 31 32  1  0  0  0  0
 30 33  1  0  0  0  0
 33 34  2  0  0  0  0
 33  3  1  0  0  0  0
 26  7  1  0  0  0  0
 27 10  2  0  0  0  0
 16 11  1  0  0  0  0
 27 18  1  0  0  0  0
 25 20  1  0  0  0  0
  1 35  1  0  0  0  0
  1 36  1  0  0  0  0
  1 37  1  0  0  0  0
  2 38  1  0  0  0  0
  2 39  1  0  0  0  0
  6 40  1  0  0  0  0
  7 41  1  0  0  0  0
 12 42  1  0  0  0  0
 13 43  1  0  0  0  0
 14 44  1  0  0  0  0
 15 45  1  0  0  0  0
 17 46  1  0  0  0  0
 19 47  1  0  0  0  0
 21 48  1  0  0  0  0
 22 49  1  0  0  0  0
 23 50  1  0  0  0  0
 24 51  1  0  0  0  0
 31 52  1  0  0  0  0
 31 53  1  0  0  0  0
 32 54  1  0  0  0  0
 32 55  1  0  0  0  0
 32 56  1  0  0  0  0
M  END
