
  xtb     03022212493D
 energy: -110.318684818500 gnorm: 0.000065374708 xtb: 6.4.1 (afa7bdf)
 72 78  0     0  0            999 V2000
   -3.8009   -2.7276   -0.8672 C   0  0  0  0  0  0  0  0  0  0  0  0
   -3.6735   -3.3091    0.5366 C   0  0  0  0  0  0  0  0  0  0  0  0
   -4.0020   -2.3155    1.6514 C   0  0  0  0  0  0  0  0  0  0  0  0
   -2.9810   -1.1918    1.8727 C   0  0  0  0  0  0  0  0  0  0  0  0
   -2.9262   -0.2133    0.8143 N   0  0  0  0  0  0  0  0  0  0  0  0
   -1.8439    0.1560    0.0594 C   0  0  0  0  0  0  0  0  0  0  0  0
   -0.4936   -0.3841    0.1187 C   0  0  0  0  0  0  0  0  0  0  0  0
    0.5625    0.5233   -0.0060 C   0  0  0  0  0  0  0  0  0  0  0  0
    1.8700    0.0925    0.0201 C   0  0  0  0  0  0  0  0  0  0  0  0
    2.1536   -1.2659    0.1689 C   0  0  0  0  0  0  0  0  0  0  0  0
    3.5126   -1.7443    0.2097 C   0  0  0  0  0  0  0  0  0  0  0  0
    3.9003   -2.9783    0.3658 N   0  0  0  0  0  0  0  0  0  0  0  0
    5.2371   -2.9825    0.3436 N   0  0  0  0  0  0  0  0  0  0  0  0
    5.6277   -1.7515    0.1746 C   0  0  0  0  0  0  0  0  0  0  0  0
    6.9885   -1.2817    0.0853 C   0  0  0  0  0  0  0  0  0  0  0  0
    8.0376   -2.2238    0.1907 C   0  0  0  0  0  0  0  0  0  0  0  0
    9.3336   -1.8122    0.1066 C   0  0  0  0  0  0  0  0  0  0  0  0
    9.6544   -0.4491   -0.0859 C   0  0  0  0  0  0  0  0  0  0  0  0
   10.9864    0.0013   -0.1779 C   0  0  0  0  0  0  0  0  0  0  0  0
   11.2650    1.3271   -0.3652 C   0  0  0  0  0  0  0  0  0  0  0  0
   10.2243    2.2634   -0.4686 C   0  0  0  0  0  0  0  0  0  0  0  0
    8.9216    1.8594   -0.3835 C   0  0  0  0  0  0  0  0  0  0  0  0
    8.6008    0.4984   -0.1909 C   0  0  0  0  0  0  0  0  0  0  0  0
    7.2693    0.0529   -0.1013 C   0  0  0  0  0  0  0  0  0  0  0  0
    4.5710   -0.9084    0.0828 O   0  0  0  0  0  0  0  0  0  0  0  0
    1.1056   -2.1814    0.2617 C   0  0  0  0  0  0  0  0  0  0  0  0
   -0.2014   -1.7447    0.2296 C   0  0  0  0  0  0  0  0  0  0  0  0
   -2.1480    1.1424   -0.7516 N   0  0  0  0  0  0  0  0  0  0  0  0
   -3.4583    1.4371   -0.5504 C   0  0  0  0  0  0  0  0  0  0  0  0
   -4.1105    2.4959   -1.3053 C   0  0  0  0  0  0  0  0  0  0  0  0
   -3.5751    2.8686   -2.5380 C   0  0  0  0  0  0  0  0  0  0  0  0
   -4.1659    3.8677   -3.2859 C   0  0  0  0  0  0  0  0  0  0  0  0
   -5.2978    4.5132   -2.8146 C   0  0  0  0  0  0  0  0  0  0  0  0
   -5.8263    4.1603   -1.5841 C   0  0  0  0  0  0  0  0  0  0  0  0
   -5.2382    3.1622   -0.8300 C   0  0  0  0  0  0  0  0  0  0  0  0
   -3.9618    0.6069    0.4384 C   0  0  0  0  0  0  0  0  0  0  0  0
   -5.3152    0.5336    0.9868 C   0  0  0  0  0  0  0  0  0  0  0  0
   -5.5729    0.7976    2.3297 C   0  0  0  0  0  0  0  0  0  0  0  0
   -6.8659    0.7358    2.8173 C   0  0  0  0  0  0  0  0  0  0  0  0
   -7.9150    0.4150    1.9728 C   0  0  0  0  0  0  0  0  0  0  0  0
   -7.6691    0.1670    0.6317 C   0  0  0  0  0  0  0  0  0  0  0  0
   -6.3796    0.2275    0.1396 C   0  0  0  0  0  0  0  0  0  0  0  0
   -3.6612   -3.5112   -1.6087 H   0  0  0  0  0  0  0  0  0  0  0  0
   -4.7906   -2.2979   -1.0069 H   0  0  0  0  0  0  0  0  0  0  0  0
   -3.0616   -1.9542   -1.0556 H   0  0  0  0  0  0  0  0  0  0  0  0
   -2.6695   -3.7132    0.6869 H   0  0  0  0  0  0  0  0  0  0  0  0
   -4.3698   -4.1466    0.6271 H   0  0  0  0  0  0  0  0  0  0  0  0
   -4.0685   -2.8644    2.5939 H   0  0  0  0  0  0  0  0  0  0  0  0
   -4.9819   -1.8760    1.4577 H   0  0  0  0  0  0  0  0  0  0  0  0
   -3.2488   -0.6766    2.8025 H   0  0  0  0  0  0  0  0  0  0  0  0
   -1.9802   -1.6076    2.0014 H   0  0  0  0  0  0  0  0  0  0  0  0
    0.3279    1.5691   -0.1267 H   0  0  0  0  0  0  0  0  0  0  0  0
    2.6806    0.7998   -0.0715 H   0  0  0  0  0  0  0  0  0  0  0  0
    7.7753   -3.2593    0.3365 H   0  0  0  0  0  0  0  0  0  0  0  0
   10.1406   -2.5262    0.1858 H   0  0  0  0  0  0  0  0  0  0  0  0
   11.7849   -0.7224   -0.0979 H   0  0  0  0  0  0  0  0  0  0  0  0
   12.2888    1.6642   -0.4352 H   0  0  0  0  0  0  0  0  0  0  0  0
   10.4632    3.3063   -0.6165 H   0  0  0  0  0  0  0  0  0  0  0  0
    8.1164    2.5758   -0.4627 H   0  0  0  0  0  0  0  0  0  0  0  0
    6.4660    0.7711   -0.1819 H   0  0  0  0  0  0  0  0  0  0  0  0
    1.3420   -3.2301    0.3473 H   0  0  0  0  0  0  0  0  0  0  0  0
   -0.9954   -2.4730    0.2503 H   0  0  0  0  0  0  0  0  0  0  0  0
   -2.6913    2.3587   -2.8889 H   0  0  0  0  0  0  0  0  0  0  0  0
   -3.7445    4.1458   -4.2413 H   0  0  0  0  0  0  0  0  0  0  0  0
   -5.7627    5.2928   -3.4005 H   0  0  0  0  0  0  0  0  0  0  0  0
   -6.7013    4.6697   -1.2060 H   0  0  0  0  0  0  0  0  0  0  0  0
   -5.6480    2.9093    0.1363 H   0  0  0  0  0  0  0  0  0  0  0  0
   -4.7624    1.0750    2.9887 H   0  0  0  0  0  0  0  0  0  0  0  0
   -7.0553    0.9449    3.8600 H   0  0  0  0  0  0  0  0  0  0  0  0
   -8.9231    0.3665    2.3566 H   0  0  0  0  0  0  0  0  0  0  0  0
   -8.4860   -0.0737   -0.0325 H   0  0  0  0  0  0  0  0  0  0  0  0
   -6.1829    0.0436   -0.9066 H   0  0  0  0  0  0  0  0  0  0  0  0
  1  2  1  0  0  0  0
  2  3  1  0  0  0  0
  3  4  1  0  0  0  0
  4  5  1  0  0  0  0
  5  6  1  0  0  0  0
  6  7  1  0  0  0  0
  7  8  2  0  0  0  0
  8  9  1  0  0  0  0
  9 10  2  0  0  0  0
 10 11  1  0  0  0  0
 11 12  2  0  0  0  0
 12 13  1  0  0  0  0
 13 14  2  0  0  0  0
 14 15  1  0  0  0  0
 15 16  2  0  0  0  0
 16 17  1  0  0  0  0
 17 18  2  0  0  0  0
 18 19  1  0  0  0  0
 19 20  2  0  0  0  0
 20 21  1  0  0  0  0
 21 22  2  0  0  0  0
 22 23  1  0  0  0  0
 23 24  2  0  0  0  0
 14 25  1  0  0  0  0
 10 26  1  0  0  0  0
 26 27  2  0  0  0  0
  6 28  2  0  0  0  0
 28 29  1  0  0  0  0
 29 30  1  0  0  0  0
 30 31  2  0  0  0  0
 31 32  1  0  0  0  0
 32 33  2  0  0  0  0
 33 34  1  0  0  0  0
 34 35  2  0  0  0  0
 29 36  2  0  0  0  0
 36 37  1  0  0  0  0
 37 38  2  0  0  0  0
 38 39  1  0  0  0  0
 39 40  2  0  0  0  0
 40 41  1  0  0  0  0
 41 42  2  0  0  0  0
 36  5  1  0  0  0  0
 42 37  1  0  0  0  0
 27  7  1  0  0  0  0
 35 30  1  0  0  0  0
 25 11  1  0  0  0  0
 24 15  1  0  0  0  0
 23 18  1  0  0  0  0
  1 43  1  0  0  0  0
  1 44  1  0  0  0  0
  1 45  1  0  0  0  0
  2 46  1  0  0  0  0
  2 47  1  0  0  0  0
  3 48  1  0  0  0  0
  3 49  1  0  0  0  0
  4 50  1  0  0  0  0
  4 51  1  0  0  0  0
  8 52  1  0  0  0  0
  9 53  1  0  0  0  0
 16 54  1  0  0  0  0
 17 55  1  0  0  0  0
 19 56  1  0  0  0  0
 20 57  1  0  0  0  0
 21 58  1  0  0  0  0
 22 59  1  0  0  0  0
 24 60  1  0  0  0  0
 26 61  1  0  0  0  0
 27 62  1  0  0  0  0
 31 63  1  0  0  0  0
 32 64  1  0  0  0  0
 33 65  1  0  0  0  0
 34 66  1  0  0  0  0
 35 67  1  0  0  0  0
 38 68  1  0  0  0  0
 39 69  1  0  0  0  0
 40 70  1  0  0  0  0
 41 71  1  0  0  0  0
 42 72  1  0  0  0  0
M  END
