
  xtb     03022213423D
 energy: -100.918979201935 gnorm: 0.000138289012 xtb: 6.4.1 (afa7bdf)
 59 63  0     0  0            999 V2000
    8.3114   -0.2008    3.3049 C   0  0  0  0  0  0  0  0  0  0  0  0
    8.2519    0.1893    1.9536 O   0  0  0  0  0  0  0  0  0  0  0  0
    7.0539    0.1911    1.3244 C   0  0  0  0  0  0  0  0  0  0  0  0
    5.8584   -0.1682    1.9087 C   0  0  0  0  0  0  0  0  0  0  0  0
    4.6798   -0.1423    1.1693 C   0  0  0  0  0  0  0  0  0  0  0  0
    4.6413    0.2334   -0.1628 C   0  0  0  0  0  0  0  0  0  0  0  0
    3.4080    0.1876   -0.9013 C   0  0  0  0  0  0  0  0  0  0  0  0
    2.1566    0.1531   -0.3946 C   0  0  0  0  0  0  0  0  0  0  0  0
    1.0004    0.0902   -1.2561 C   0  0  0  0  0  0  0  0  0  0  0  0
   -0.2846    0.0571   -0.7078 C   0  0  0  0  0  0  0  0  0  0  0  0
   -1.3864   -0.0348   -1.5581 C   0  0  0  0  0  0  0  0  0  0  0  0
   -2.7553   -0.1077   -1.0938 C   0  0  0  0  0  0  0  0  0  0  0  0
   -3.1473   -0.2872    0.1810 C   0  0  0  0  0  0  0  0  0  0  0  0
   -4.5148   -0.4124    0.6354 C   0  0  0  0  0  0  0  0  0  0  0  0
   -4.7681   -1.3130    1.6532 C   0  0  0  0  0  0  0  0  0  0  0  0
   -6.0605   -1.6334    2.0643 C   0  0  0  0  0  0  0  0  0  0  0  0
   -7.1460   -1.0314    1.4673 C   0  0  0  0  0  0  0  0  0  0  0  0
   -8.4399   -1.3031    1.7607 O   0  0  0  0  0  0  0  0  0  0  0  0
   -8.7257   -2.2856    2.7272 C   0  0  0  0  0  0  0  0  0  0  0  0
   -6.9353   -0.0257    0.4759 C   0  0  0  0  0  0  0  0  0  0  0  0
   -8.0286    0.6597   -0.0893 C   0  0  0  0  0  0  0  0  0  0  0  0
   -7.8329    1.6656   -0.9948 C   0  0  0  0  0  0  0  0  0  0  0  0
   -6.5312    2.0455   -1.3409 C   0  0  0  0  0  0  0  0  0  0  0  0
   -5.4518    1.3852   -0.8176 C   0  0  0  0  0  0  0  0  0  0  0  0
   -5.6160    0.3045    0.0718 C   0  0  0  0  0  0  0  0  0  0  0  0
   -1.2538   -0.0529   -2.8463 O   0  0  0  0  0  3  0  0  0  0  0  0
    0.0764    0.0660   -3.5209 B   0  0  0  0  0  4  0  0  0  0  0  0
    0.2367   -0.9947   -4.3656 F   0  0  0  0  0  0  0  0  0  0  0  0
    0.1125    1.2575   -4.1984 F   0  0  0  0  0  0  0  0  0  0  0  0
    1.2039    0.0587   -2.5333 O   0  0  0  0  0  0  0  0  0  0  0  0
    5.8684    0.6281   -0.7920 C   0  0  0  0  0  0  0  0  0  0  0  0
    5.9396    1.0746   -2.1267 C   0  0  0  0  0  0  0  0  0  0  0  0
    7.1304    1.4440   -2.6937 C   0  0  0  0  0  0  0  0  0  0  0  0
    8.3165    1.3972   -1.9535 C   0  0  0  0  0  0  0  0  0  0  0  0
    8.2850    0.9867   -0.6497 C   0  0  0  0  0  0  0  0  0  0  0  0
    7.0734    0.6011   -0.0430 C   0  0  0  0  0  0  0  0  0  0  0  0
    7.9755   -1.2336    3.4390 H   0  0  0  0  0  0  0  0  0  0  0  0
    7.7165    0.4625    3.9403 H   0  0  0  0  0  0  0  0  0  0  0  0
    9.3603   -0.1241    3.5869 H   0  0  0  0  0  0  0  0  0  0  0  0
    5.8145   -0.4850    2.9387 H   0  0  0  0  0  0  0  0  0  0  0  0
    3.7714   -0.4619    1.6557 H   0  0  0  0  0  0  0  0  0  0  0  0
    3.4716    0.1707   -1.9801 H   0  0  0  0  0  0  0  0  0  0  0  0
    1.9562    0.1933    0.6649 H   0  0  0  0  0  0  0  0  0  0  0  0
   -0.4099    0.0968    0.3584 H   0  0  0  0  0  0  0  0  0  0  0  0
   -3.4842   -0.0635   -1.8903 H   0  0  0  0  0  0  0  0  0  0  0  0
   -2.3983   -0.4521    0.9455 H   0  0  0  0  0  0  0  0  0  0  0  0
   -3.9404   -1.8325    2.1147 H   0  0  0  0  0  0  0  0  0  0  0  0
   -6.1868   -2.3705    2.8411 H   0  0  0  0  0  0  0  0  0  0  0  0
   -9.8119   -2.3463    2.7726 H   0  0  0  0  0  0  0  0  0  0  0  0
   -8.3380   -2.0048    3.7114 H   0  0  0  0  0  0  0  0  0  0  0  0
   -8.3203   -3.2606    2.4397 H   0  0  0  0  0  0  0  0  0  0  0  0
   -9.0221    0.3789    0.2225 H   0  0  0  0  0  0  0  0  0  0  0  0
   -8.6758    2.1852   -1.4252 H   0  0  0  0  0  0  0  0  0  0  0  0
   -6.3793    2.8714   -2.0198 H   0  0  0  0  0  0  0  0  0  0  0  0
   -4.4559    1.7160   -1.0646 H   0  0  0  0  0  0  0  0  0  0  0  0
    5.0419    1.1379   -2.7201 H   0  0  0  0  0  0  0  0  0  0  0  0
    7.1554    1.7783   -3.7202 H   0  0  0  0  0  0  0  0  0  0  0  0
    9.2486    1.6905   -2.4126 H   0  0  0  0  0  0  0  0  0  0  0  0
    9.1851    0.9529   -0.0564 H   0  0  0  0  0  0  0  0  0  0  0  0
  1  2  1  0  0  0  0
  2  3  1  0  0  0  0
  3  4  2  0  0  0  0
  4  5  1  0  0  0  0
  5  6  2  0  0  0  0
  6  7  1  0  0  0  0
  7  8  2  0  0  0  0
  8  9  1  0  0  0  0
  9 10  2  0  0  0  0
 10 11  1  0  0  0  0
 11 12  1  0  0  0  0
 12 13  2  0  0  0  0
 13 14  1  0  0  0  0
 14 15  2  0  0  0  0
 15 16  1  0  0  0  0
 16 17  2  0  0  0  0
 17 18  1  0  0  0  0
 18 19  1  0  0  0  0
 17 20  1  0  0  0  0
 20 21  2  0  0  0  0
 21 22  1  0  0  0  0
 22 23  2  0  0  0  0
 23 24  1  0  0  0  0
 24 25  2  0  0  0  0
 11 26  2  0  0  0  0
 26 27  1  0  0  0  0
 27 28  1  0  0  0  0
 27 29  1  0  0  0  0
 27 30  1  0  0  0  0
  6 31  1  0  0  0  0
 31 32  2  0  0  0  0
 32 33  1  0  0  0  0
 33 34  2  0  0  0  0
 34 35  1  0  0  0  0
 35 36  2  0  0  0  0
 36  3  1  0  0  0  0
 30  9  1  0  0  0  0
 36 31  1  0  0  0  0
 25 14  1  0  0  0  0
 25 20  1  0  0  0  0
  1 37  1  0  0  0  0
  1 38  1  0  0  0  0
  1 39  1  0  0  0  0
  4 40  1  0  0  0  0
  5 41  1  0  0  0  0
  7 42  1  0  0  0  0
  8 43  1  0  0  0  0
 10 44  1  0  0  0  0
 12 45  1  0  0  0  0
 13 46  1  0  0  0  0
 15 47  1  0  0  0  0
 16 48  1  0  0  0  0
 19 49  1  0  0  0  0
 19 50  1  0  0  0  0
 19 51  1  0  0  0  0
 21 52  1  0  0  0  0
 22 53  1  0  0  0  0
 23 54  1  0  0  0  0
 24 55  1  0  0  0  0
 32 56  1  0  0  0  0
 33 57  1  0  0  0  0
 34 58  1  0  0  0  0
 35 59  1  0  0  0  0
M  CHG  1  26   1
M  CHG  1  27  -1
M  END
