
  xtb     03022212073D
 energy: -64.667125834501 gnorm: 0.000087660293 xtb: 6.4.1 (afa7bdf)
 42 45  0     0  0            999 V2000
    7.9081   -2.1698    2.5631 O   0  0  0  0  0  0  0  0  0  0  0  0
    8.1430   -1.4924    1.5894 C   0  0  0  0  0  0  0  0  0  0  0  0
    7.1687   -0.8528    0.7485 C   0  0  0  0  0  0  0  0  0  0  0  0
    7.3966   -0.0746   -0.3691 C   0  0  0  0  0  0  0  0  0  0  0  0
    6.2298    0.3959   -0.9614 C   0  0  0  0  0  0  0  0  0  0  0  0
    5.0834   -0.0169   -0.3024 C   0  0  0  0  0  0  0  0  0  0  0  0
    3.7359    0.2848   -0.6485 C   0  0  0  0  0  0  0  0  0  0  0  0
    3.2770    1.0334   -1.7112 C   0  0  0  0  0  0  0  0  0  0  0  0
    1.8856    1.1292   -1.7623 C   0  0  0  0  0  0  0  0  0  0  0  0
    1.2441    0.4627   -0.7416 C   0  0  0  0  0  0  0  0  0  0  0  0
   -0.1700    0.3296   -0.4762 C   0  0  0  0  0  0  0  0  0  0  0  0
   -1.0975    0.8354   -1.2996 C   0  0  0  0  0  0  0  0  0  0  0  0
   -2.5692    0.6983   -1.0965 C   0  0  0  0  0  0  0  0  0  0  0  0
   -2.9111   -0.3830   -0.0663 C   0  0  0  0  0  0  0  0  0  0  0  0
   -4.3736   -0.3516    0.2934 C   0  0  0  0  0  0  0  0  0  0  0  0
   -4.9341    0.7476    0.9339 C   0  0  0  0  0  0  0  0  0  0  0  0
   -6.2791    0.7701    1.2544 C   0  0  0  0  0  0  0  0  0  0  0  0
   -7.0888   -0.3077    0.9388 C   0  0  0  0  0  0  0  0  0  0  0  0
   -6.5424   -1.4080    0.3024 C   0  0  0  0  0  0  0  0  0  0  0  0
   -5.1959   -1.4272   -0.0162 C   0  0  0  0  0  0  0  0  0  0  0  0
   -2.0078   -0.1933    1.1547 C   0  0  0  0  0  0  0  0  0  0  0  0
   -0.5543   -0.4343    0.7630 C   0  0  0  0  0  0  0  0  0  0  0  0
    2.4047   -0.3015    0.3019 S   0  0  0  0  0  0  0  0  0  0  0  0
    5.4670   -1.0015    1.0696 S   0  0  0  0  0  0  0  0  0  0  0  0
    9.1847   -1.3051    1.2553 H   0  0  0  0  0  0  0  0  0  0  0  0
    8.3850    0.1394   -0.7359 H   0  0  0  0  0  0  0  0  0  0  0  0
    6.2114    1.0163   -1.8386 H   0  0  0  0  0  0  0  0  0  0  0  0
    3.9294    1.4962   -2.4292 H   0  0  0  0  0  0  0  0  0  0  0  0
    1.3678    1.6780   -2.5275 H   0  0  0  0  0  0  0  0  0  0  0  0
   -0.8011    1.3882   -2.1790 H   0  0  0  0  0  0  0  0  0  0  0  0
   -2.9723    1.6631   -0.7698 H   0  0  0  0  0  0  0  0  0  0  0  0
   -3.0476    0.4679   -2.0527 H   0  0  0  0  0  0  0  0  0  0  0  0
   -2.6820   -1.3593   -0.5072 H   0  0  0  0  0  0  0  0  0  0  0  0
   -4.3167    1.5966    1.1893 H   0  0  0  0  0  0  0  0  0  0  0  0
   -6.6978    1.6326    1.7527 H   0  0  0  0  0  0  0  0  0  0  0  0
   -8.1393   -0.2895    1.1885 H   0  0  0  0  0  0  0  0  0  0  0  0
   -7.1658   -2.2543    0.0530 H   0  0  0  0  0  0  0  0  0  0  0  0
   -4.7771   -2.2914   -0.5130 H   0  0  0  0  0  0  0  0  0  0  0  0
   -2.2988   -0.8842    1.9479 H   0  0  0  0  0  0  0  0  0  0  0  0
   -2.1162    0.8232    1.5358 H   0  0  0  0  0  0  0  0  0  0  0  0
    0.1028   -0.1422    1.5862 H   0  0  0  0  0  0  0  0  0  0  0  0
   -0.3870   -1.5012    0.5828 H   0  0  0  0  0  0  0  0  0  0  0  0
  1  2  2  0  0  0  0
  2  3  1  0  0  0  0
  3  4  2  0  0  0  0
  4  5  1  0  0  0  0
  5  6  2  0  0  0  0
  6  7  1  0  0  0  0
  7  8  2  0  0  0  0
  8  9  1  0  0  0  0
  9 10  2  0  0  0  0
 10 11  1  0  0  0  0
 11 12  2  0  0  0  0
 12 13  1  0  0  0  0
 13 14  1  0  0  0  0
 14 15  1  0  0  0  0
 15 16  2  0  0  0  0
 16 17  1  0  0  0  0
 17 18  2  0  0  0  0
 18 19  1  0  0  0  0
 19 20  2  0  0  0  0
 14 21  1  0  0  0  0
 21 22  1  0  0  0  0
 10 23  1  0  0  0  0
  6 24  1  0  0  0  0
 24  3  1  0  0  0  0
 23  7  1  0  0  0  0
 22 11  1  0  0  0  0
 20 15  1  0  0  0  0
  2 25  1  0  0  0  0
  4 26  1  0  0  0  0
  5 27  1  0  0  0  0
  8 28  1  0  0  0  0
  9 29  1  0  0  0  0
 12 30  1  0  0  0  0
 13 31  1  0  0  0  0
 13 32  1  0  0  0  0
 14 33  1  0  0  0  0
 16 34  1  0  0  0  0
 17 35  1  0  0  0  0
 18 36  1  0  0  0  0
 19 37  1  0  0  0  0
 20 38  1  0  0  0  0
 21 39  1  0  0  0  0
 21 40  1  0  0  0  0
 22 41  1  0  0  0  0
 22 42  1  0  0  0  0
M  END
