
  xtb     03022214023D
 energy: -93.779282798411 gnorm: 0.000142617530 xtb: 6.4.1 (afa7bdf)
 61 63  0     0  0            999 V2000
   -6.6057    0.9490   -0.8552 C   0  0  0  0  0  0  0  0  0  0  0  0
   -5.4472    1.9009   -0.6197 C   0  0  0  0  0  0  0  0  0  0  0  0
   -4.2616    1.1285   -0.4413 O   0  0  0  0  0  0  0  0  0  0  0  0
   -3.0932    1.8330   -0.4037 C   0  0  0  0  0  0  0  0  0  0  0  0
   -3.0734    3.0355   -0.5129 O   0  0  0  0  0  0  0  0  0  0  0  0
   -1.9502    0.9613   -0.2525 C   0  0  0  0  0  0  0  0  0  0  0  0
   -1.9208   -0.4289   -0.3315 C   0  0  0  0  0  0  0  0  0  0  0  0
   -2.9411   -1.2840   -0.4870 N   0  0  0  0  0  0  0  0  0  0  0  0
   -2.8568   -2.7349   -0.6064 C   0  0  0  0  0  0  0  0  0  0  0  0
   -4.2859   -3.2394   -0.8025 C   0  0  0  0  0  0  0  0  0  0  0  0
   -2.2648   -3.3246    0.6776 C   0  0  0  0  0  0  0  0  0  0  0  0
   -1.9960   -3.1117   -1.8164 C   0  0  0  0  0  0  0  0  0  0  0  0
   -0.6661   -0.8742   -0.2323 O   0  0  0  0  0  0  0  0  0  0  0  0
    0.1734    0.2135   -0.0992 C   0  0  0  0  0  0  0  0  0  0  0  0
    1.5826   -0.0754    0.0607 C   0  0  0  0  0  0  0  0  0  0  0  0
    1.9870   -1.3805    0.3603 C   0  0  0  0  0  0  0  0  0  0  0  0
    3.3203   -1.6886    0.5206 C   0  0  0  0  0  0  0  0  0  0  0  0
    4.3016   -0.7082    0.3825 C   0  0  0  0  0  0  0  0  0  0  0  0
    5.7229   -1.0365    0.5540 C   0  0  0  0  0  0  0  0  0  0  0  0
    6.6857   -0.4936   -0.2945 C   0  0  0  0  0  0  0  0  0  0  0  0
    8.0226   -0.8055   -0.1335 C   0  0  0  0  0  0  0  0  0  0  0  0
    8.4221   -1.6600    0.8805 C   0  0  0  0  0  0  0  0  0  0  0  0
    7.4744   -2.2034    1.7317 C   0  0  0  0  0  0  0  0  0  0  0  0
    6.1364   -1.8973    1.5689 C   0  0  0  0  0  0  0  0  0  0  0  0
    3.8976    0.5898    0.0714 C   0  0  0  0  0  0  0  0  0  0  0  0
    2.5653    0.9063   -0.0896 C   0  0  0  0  0  0  0  0  0  0  0  0
   -0.5784    1.3601   -0.0975 C   0  0  0  0  0  0  0  0  0  0  0  0
   -0.1535    2.7650    0.1051 C   0  0  0  0  0  0  0  0  0  0  0  0
    0.6752    3.3426   -0.5541 O   0  0  0  0  0  0  0  0  0  0  0  0
   -0.7927    3.2911    1.1448 O   0  0  0  0  0  0  0  0  0  0  0  0
   -0.5540    4.6711    1.4248 C   0  0  0  0  0  0  0  0  0  0  0  0
   -1.2721    5.5748    0.4335 C   0  0  0  0  0  0  0  0  0  0  0  0
   -6.4302    0.3551   -1.7488 H   0  0  0  0  0  0  0  0  0  0  0  0
   -7.5225    1.5165   -0.9841 H   0  0  0  0  0  0  0  0  0  0  0  0
   -6.7210    0.2798   -0.0061 H   0  0  0  0  0  0  0  0  0  0  0  0
   -5.3059    2.5777   -1.4697 H   0  0  0  0  0  0  0  0  0  0  0  0
   -5.6112    2.5109    0.2759 H   0  0  0  0  0  0  0  0  0  0  0  0
   -3.8450   -0.8416   -0.5547 H   0  0  0  0  0  0  0  0  0  0  0  0
   -4.7179   -2.8185   -1.7077 H   0  0  0  0  0  0  0  0  0  0  0  0
   -4.2917   -4.3221   -0.8914 H   0  0  0  0  0  0  0  0  0  0  0  0
   -4.9077   -2.9610    0.0454 H   0  0  0  0  0  0  0  0  0  0  0  0
   -1.2530   -2.9619    0.8302 H   0  0  0  0  0  0  0  0  0  0  0  0
   -2.8683   -3.0387    1.5359 H   0  0  0  0  0  0  0  0  0  0  0  0
   -2.2389   -4.4089    0.6134 H   0  0  0  0  0  0  0  0  0  0  0  0
   -0.9773   -2.7589   -1.6851 H   0  0  0  0  0  0  0  0  0  0  0  0
   -1.9762   -4.1912   -1.9377 H   0  0  0  0  0  0  0  0  0  0  0  0
   -2.4033   -2.6661   -2.7211 H   0  0  0  0  0  0  0  0  0  0  0  0
    1.2420   -2.1542    0.4698 H   0  0  0  0  0  0  0  0  0  0  0  0
    3.6103   -2.7068    0.7367 H   0  0  0  0  0  0  0  0  0  0  0  0
    6.3785    0.1601   -1.0977 H   0  0  0  0  0  0  0  0  0  0  0  0
    8.7572   -0.3814   -0.8029 H   0  0  0  0  0  0  0  0  0  0  0  0
    9.4672   -1.9013    1.0070 H   0  0  0  0  0  0  0  0  0  0  0  0
    7.7806   -2.8673    2.5274 H   0  0  0  0  0  0  0  0  0  0  0  0
    5.4040   -2.3104    2.2474 H   0  0  0  0  0  0  0  0  0  0  0  0
    4.6414    1.3661   -0.0315 H   0  0  0  0  0  0  0  0  0  0  0  0
    2.2813    1.9118   -0.3497 H   0  0  0  0  0  0  0  0  0  0  0  0
   -0.9337    4.8138    2.4388 H   0  0  0  0  0  0  0  0  0  0  0  0
    0.5260    4.8561    1.4020 H   0  0  0  0  0  0  0  0  0  0  0  0
   -1.2276    6.6052    0.7750 H   0  0  0  0  0  0  0  0  0  0  0  0
   -0.8023    5.5001   -0.5435 H   0  0  0  0  0  0  0  0  0  0  0  0
   -2.3081    5.2609    0.3401 H   0  0  0  0  0  0  0  0  0  0  0  0
  1  2  1  0  0  0  0
  2  3  1  0  0  0  0
  3  4  1  0  0  0  0
  4  5  2  0  0  0  0
  4  6  1  0  0  0  0
  6  7  2  0  0  0  0
  7  8  1  0  0  0  0
  8  9  1  0  0  0  0
  9 10  1  0  0  0  0
  9 11  1  0  0  0  0
  9 12  1  0  0  0  0
  7 13  1  0  0  0  0
 13 14  1  0  0  0  0
 14 15  1  0  0  0  0
 15 16  2  0  0  0  0
 16 17  1  0  0  0  0
 17 18  2  0  0  0  0
 18 19  1  0  0  0  0
 19 20  2  0  0  0  0
 20 21  1  0  0  0  0
 21 22  2  0  0  0  0
 22 23  1  0  0  0  0
 23 24  2  0  0  0  0
 18 25  1  0  0  0  0
 25 26  2  0  0  0  0
 14 27  2  0  0  0  0
 27 28  1  0  0  0  0
 28 29  2  0  0  0  0
 28 30  1  0  0  0  0
 30 31  1  0  0  0  0
 31 32  1  0  0  0  0
 27  6  1  0  0  0  0
 26 15  1  0  0  0  0
 24 19  1  0  0  0  0
  1 33  1  0  0  0  0
  1 34  1  0  0  0  0
  1 35  1  0  0  0  0
  2 36  1  0  0  0  0
  2 37  1  0  0  0  0
  8 38  1  0  0  0  0
 10 39  1  0  0  0  0
 10 40  1  0  0  0  0
 10 41  1  0  0  0  0
 11 42  1  0  0  0  0
 11 43  1  0  0  0  0
 11 44  1  0  0  0  0
 12 45  1  0  0  0  0
 12 46  1  0  0  0  0
 12 47  1  0  0  0  0
 16 48  1  0  0  0  0
 17 49  1  0  0  0  0
 20 50  1  0  0  0  0
 21 51  1  0  0  0  0
 22 52  1  0  0  0  0
 23 53  1  0  0  0  0
 24 54  1  0  0  0  0
 25 55  1  0  0  0  0
 26 56  1  0  0  0  0
 31 57  1  0  0  0  0
 31 58  1  0  0  0  0
 32 59  1  0  0  0  0
 32 60  1  0  0  0  0
 32 61  1  0  0  0  0
M  END
