
  xtb     03022214163D
 energy: -90.785201130622 gnorm: 0.000073469375 xtb: 6.4.1 (afa7bdf)
 66 71  0     0  0            999 V2000
   -6.9976    0.4515    0.8687 C   0  0  0  0  0  0  0  0  0  0  0  0
   -5.7144    0.9306    0.2007 C   0  0  0  0  0  0  0  0  0  0  0  0
   -4.6783    1.3734    1.2323 C   0  0  0  0  0  0  0  0  0  0  0  0
   -3.3878    1.9078    0.6071 C   0  0  0  0  0  0  0  0  0  0  0  0
   -2.5151    0.8437   -0.0689 C   0  0  0  0  0  0  0  0  0  0  0  0
   -1.4968    1.4749   -1.0268 C   0  0  0  0  0  0  0  0  0  0  0  0
   -2.1218    1.9789   -2.3224 C   0  0  0  0  0  0  0  0  0  0  0  0
   -1.7856    0.0070    0.9988 C   0  0  0  0  0  0  0  0  0  0  0  0
   -1.1532   -1.1594    0.4469 N   0  0  0  0  0  0  0  0  0  0  0  0
   -1.8161   -2.3033    0.0664 C   0  0  0  0  0  0  0  0  0  0  0  0
   -3.1621   -2.6241    0.1776 C   0  0  0  0  0  0  0  0  0  0  0  0
   -3.5718   -3.8610   -0.2814 C   0  0  0  0  0  0  0  0  0  0  0  0
   -2.6707   -4.7656   -0.8395 C   0  0  0  0  0  0  0  0  0  0  0  0
   -1.3302   -4.4560   -0.9498 C   0  0  0  0  0  0  0  0  0  0  0  0
   -0.8937   -3.2183   -0.4950 C   0  0  0  0  0  0  0  0  0  0  0  0
    0.3876   -2.5763   -0.4501 C   0  0  0  0  0  0  0  0  0  0  0  0
    1.6641   -2.9540   -0.8461 C   0  0  0  0  0  0  0  0  0  0  0  0
    2.7084   -2.0723   -0.6666 C   0  0  0  0  0  0  0  0  0  0  0  0
    2.4941   -0.8185   -0.0813 C   0  0  0  0  0  0  0  0  0  0  0  0
    3.5745    0.0631    0.0844 N   0  0  0  0  0  0  0  0  0  0  0  0
    3.6101    1.3773   -0.3323 C   0  0  0  0  0  0  0  0  0  0  0  0
    2.6612    2.1090   -1.0326 C   0  0  0  0  0  0  0  0  0  0  0  0
    2.9615    3.4195   -1.3498 C   0  0  0  0  0  0  0  0  0  0  0  0
    4.1787    3.9947   -0.9903 C   0  0  0  0  0  0  0  0  0  0  0  0
    5.1359    3.2655   -0.3139 C   0  0  0  0  0  0  0  0  0  0  0  0
    4.8573    1.9459    0.0172 C   0  0  0  0  0  0  0  0  0  0  0  0
    5.6019    0.9147    0.6830 C   0  0  0  0  0  0  0  0  0  0  0  0
    6.8627    0.8679    1.2633 C   0  0  0  0  0  0  0  0  0  0  0  0
    7.2751   -0.3087    1.8556 C   0  0  0  0  0  0  0  0  0  0  0  0
    6.4428   -1.4260    1.8860 C   0  0  0  0  0  0  0  0  0  0  0  0
    5.1847   -1.4045    1.3161 C   0  0  0  0  0  0  0  0  0  0  0  0
    4.7729   -0.2312    0.6999 C   0  0  0  0  0  0  0  0  0  0  0  0
    1.2298   -0.4235    0.3315 C   0  0  0  0  0  0  0  0  0  0  0  0
    0.1754   -1.3031    0.1354 C   0  0  0  0  0  0  0  0  0  0  0  0
   -7.7263    0.1436    0.1226 H   0  0  0  0  0  0  0  0  0  0  0  0
   -6.7962   -0.3963    1.5207 H   0  0  0  0  0  0  0  0  0  0  0  0
   -7.4359    1.2458    1.4693 H   0  0  0  0  0  0  0  0  0  0  0  0
   -5.3117    0.1236   -0.4141 H   0  0  0  0  0  0  0  0  0  0  0  0
   -5.9412    1.7682   -0.4627 H   0  0  0  0  0  0  0  0  0  0  0  0
   -4.4585    0.5395    1.9024 H   0  0  0  0  0  0  0  0  0  0  0  0
   -5.1169    2.1667    1.8428 H   0  0  0  0  0  0  0  0  0  0  0  0
   -2.7939    2.4014    1.3811 H   0  0  0  0  0  0  0  0  0  0  0  0
   -3.6592    2.6666   -0.1279 H   0  0  0  0  0  0  0  0  0  0  0  0
   -3.1488    0.1687   -0.6512 H   0  0  0  0  0  0  0  0  0  0  0  0
   -0.9863    2.2982   -0.5203 H   0  0  0  0  0  0  0  0  0  0  0  0
   -0.7479    0.7226   -1.2841 H   0  0  0  0  0  0  0  0  0  0  0  0
   -2.6283    1.1668   -2.8397 H   0  0  0  0  0  0  0  0  0  0  0  0
   -1.3514    2.3747   -2.9801 H   0  0  0  0  0  0  0  0  0  0  0  0
   -2.8443    2.7696   -2.1367 H   0  0  0  0  0  0  0  0  0  0  0  0
   -1.0246    0.6194    1.4876 H   0  0  0  0  0  0  0  0  0  0  0  0
   -2.4966   -0.3201    1.7631 H   0  0  0  0  0  0  0  0  0  0  0  0
   -3.8730   -1.9361    0.6093 H   0  0  0  0  0  0  0  0  0  0  0  0
   -4.6145   -4.1333   -0.2069 H   0  0  0  0  0  0  0  0  0  0  0  0
   -3.0315   -5.7219   -1.1879 H   0  0  0  0  0  0  0  0  0  0  0  0
   -0.6317   -5.1582   -1.3796 H   0  0  0  0  0  0  0  0  0  0  0  0
    1.8327   -3.9197   -1.2975 H   0  0  0  0  0  0  0  0  0  0  0  0
    3.7048   -2.3318   -0.9901 H   0  0  0  0  0  0  0  0  0  0  0  0
    1.7231    1.6670   -1.3324 H   0  0  0  0  0  0  0  0  0  0  0  0
    2.2380    4.0104   -1.8925 H   0  0  0  0  0  0  0  0  0  0  0  0
    4.3748    5.0232   -1.2552 H   0  0  0  0  0  0  0  0  0  0  0  0
    6.0852    3.7064   -0.0490 H   0  0  0  0  0  0  0  0  0  0  0  0
    7.5019    1.7380    1.2524 H   0  0  0  0  0  0  0  0  0  0  0  0
    8.2526   -0.3668    2.3110 H   0  0  0  0  0  0  0  0  0  0  0  0
    6.7880   -2.3281    2.3696 H   0  0  0  0  0  0  0  0  0  0  0  0
    4.5397   -2.2693    1.3579 H   0  0  0  0  0  0  0  0  0  0  0  0
    1.0942    0.5419    0.7943 H   0  0  0  0  0  0  0  0  0  0  0  0
  1  2  1  0  0  0  0
  2  3  1  0  0  0  0
  3  4  1  0  0  0  0
  4  5  1  0  0  0  0
  5  6  1  0  0  0  0
  6  7  1  0  0  0  0
  5  8  1  0  0  0  0
  8  9  1  0  0  0  0
  9 10  1  0  0  0  0
 10 11  2  0  0  0  0
 11 12  1  0  0  0  0
 12 13  2  0  0  0  0
 13 14  1  0  0  0  0
 14 15  2  0  0  0  0
 15 16  1  0  0  0  0
 16 17  2  0  0  0  0
 17 18  1  0  0  0  0
 18 19  2  0  0  0  0
 19 20  1  0  0  0  0
 20 21  1  0  0  0  0
 21 22  2  0  0  0  0
 22 23  1  0  0  0  0
 23 24  2  0  0  0  0
 24 25  1  0  0  0  0
 25 26  2  0  0  0  0
 26 27  1  0  0  0  0
 27 28  2  0  0  0  0
 28 29  1  0  0  0  0
 29 30  2  0  0  0  0
 30 31  1  0  0  0  0
 31 32  2  0  0  0  0
 19 33  1  0  0  0  0
 33 34  2  0  0  0  0
 34  9  1  0  0  0  0
 15 10  1  0  0  0  0
 34 16  1  0  0  0  0
 32 20  1  0  0  0  0
 26 21  1  0  0  0  0
 32 27  1  0  0  0  0
  1 35  1  0  0  0  0
  1 36  1  0  0  0  0
  1 37  1  0  0  0  0
  2 38  1  0  0  0  0
  2 39  1  0  0  0  0
  3 40  1  0  0  0  0
  3 41  1  0  0  0  0
  4 42  1  0  0  0  0
  4 43  1  0  0  0  0
  5 44  1  0  0  0  0
  6 45  1  0  0  0  0
  6 46  1  0  0  0  0
  7 47  1  0  0  0  0
  7 48  1  0  0  0  0
  7 49  1  0  0  0  0
  8 50  1  0  0  0  0
  8 51  1  0  0  0  0
 11 52  1  0  0  0  0
 12 53  1  0  0  0  0
 13 54  1  0  0  0  0
 14 55  1  0  0  0  0
 17 56  1  0  0  0  0
 18 57  1  0  0  0  0
 22 58  1  0  0  0  0
 23 59  1  0  0  0  0
 24 60  1  0  0  0  0
 25 61  1  0  0  0  0
 28 62  1  0  0  0  0
 29 63  1  0  0  0  0
 30 64  1  0  0  0  0
 31 65  1  0  0  0  0
 33 66  1  0  0  0  0
M  END
