
  xtb     03022212343D
 energy: -84.705615455208 gnorm: 0.000151951816 xtb: 6.4.1 (afa7bdf)
 56 60  0     0  0            999 V2000
    5.8096    0.1419   -0.2035 C   0  0  0  0  0  0  0  0  0  0  0  0
    6.6818    0.1803    0.8175 C   0  0  0  0  0  0  0  0  0  0  0  0
    8.1125    0.2118    0.6100 C   0  0  0  0  0  0  0  0  0  0  0  0
    9.0060    0.2471    1.6901 C   0  0  0  0  0  0  0  0  0  0  0  0
   10.3545    0.2739    1.3903 C   0  0  0  0  0  0  0  0  0  0  0  0
   10.8037    0.2679    0.1419 N   0  0  0  0  0  0  0  0  0  0  0  0
    9.8827    0.2346   -0.8065 C   0  0  0  0  0  0  0  0  0  0  0  0
    8.5789    0.2062   -0.6457 N   0  0  0  0  0  0  0  0  0  0  0  0
    4.3679    0.1064   -0.1209 C   0  0  0  0  0  0  0  0  0  0  0  0
    3.6649    0.1215    1.0887 C   0  0  0  0  0  0  0  0  0  0  0  0
    2.2884    0.0825    1.1090 C   0  0  0  0  0  0  0  0  0  0  0  0
    1.5504    0.0323   -0.0751 C   0  0  0  0  0  0  0  0  0  0  0  0
    0.0856   -0.0052   -0.0478 C   0  0  0  0  0  0  0  0  0  0  0  0
   -0.5961   -0.7416    0.9212 C   0  0  0  0  0  0  0  0  0  0  0  0
   -1.9733   -0.7783    0.9507 C   0  0  0  0  0  0  0  0  0  0  0  0
   -2.7218   -0.0720    0.0075 C   0  0  0  0  0  0  0  0  0  0  0  0
   -4.1165   -0.1036    0.0367 N   0  0  0  0  0  0  0  0  0  0  0  0
   -4.7858   -1.2732    0.4191 C   0  0  0  0  0  0  0  0  0  0  0  0
   -4.3033   -2.5234    0.0329 C   0  0  0  0  0  0  0  0  0  0  0  0
   -4.9686   -3.6729    0.4123 C   0  0  0  0  0  0  0  0  0  0  0  0
   -6.1246   -3.5970    1.1718 C   0  0  0  0  0  0  0  0  0  0  0  0
   -6.6100   -2.3573    1.5546 C   0  0  0  0  0  0  0  0  0  0  0  0
   -5.9474   -1.2023    1.1873 C   0  0  0  0  0  0  0  0  0  0  0  0
   -4.8548    1.0326   -0.3173 C   0  0  0  0  0  0  0  0  0  0  0  0
   -4.4104    2.3056    0.0388 C   0  0  0  0  0  0  0  0  0  0  0  0
   -5.1430    3.4221   -0.3143 C   0  0  0  0  0  0  0  0  0  0  0  0
   -6.3298    3.2901   -1.0164 C   0  0  0  0  0  0  0  0  0  0  0  0
   -6.7783    2.0274   -1.3678 C   0  0  0  0  0  0  0  0  0  0  0  0
   -6.0483    0.9054   -1.0273 C   0  0  0  0  0  0  0  0  0  0  0  0
   -2.0454    0.6666   -0.9651 C   0  0  0  0  0  0  0  0  0  0  0  0
   -0.6679    0.6956   -0.9897 C   0  0  0  0  0  0  0  0  0  0  0  0
    2.2473    0.0204   -1.2842 C   0  0  0  0  0  0  0  0  0  0  0  0
    3.6241    0.0542   -1.3054 C   0  0  0  0  0  0  0  0  0  0  0  0
    6.2286    0.1354   -1.2018 H   0  0  0  0  0  0  0  0  0  0  0  0
    6.3589    0.1884    1.8488 H   0  0  0  0  0  0  0  0  0  0  0  0
    8.6514    0.2525    2.7088 H   0  0  0  0  0  0  0  0  0  0  0  0
   11.1109    0.3009    2.1651 H   0  0  0  0  0  0  0  0  0  0  0  0
   10.2429    0.2298   -1.8284 H   0  0  0  0  0  0  0  0  0  0  0  0
    4.2028    0.1685    2.0231 H   0  0  0  0  0  0  0  0  0  0  0  0
    1.7688    0.1141    2.0558 H   0  0  0  0  0  0  0  0  0  0  0  0
   -0.0376   -1.3072    1.6524 H   0  0  0  0  0  0  0  0  0  0  0  0
   -2.4829   -1.3534    1.7101 H   0  0  0  0  0  0  0  0  0  0  0  0
   -3.4081   -2.5847   -0.5686 H   0  0  0  0  0  0  0  0  0  0  0  0
   -4.5861   -4.6349    0.1041 H   0  0  0  0  0  0  0  0  0  0  0  0
   -6.6438   -4.4974    1.4628 H   0  0  0  0  0  0  0  0  0  0  0  0
   -7.5077   -2.2886    2.1513 H   0  0  0  0  0  0  0  0  0  0  0  0
   -6.3228   -0.2370    1.4941 H   0  0  0  0  0  0  0  0  0  0  0  0
   -3.4909    2.4108    0.5961 H   0  0  0  0  0  0  0  0  0  0  0  0
   -4.7885    4.4022   -0.0306 H   0  0  0  0  0  0  0  0  0  0  0  0
   -6.9013    4.1648   -1.2872 H   0  0  0  0  0  0  0  0  0  0  0  0
   -7.7000    1.9149   -1.9194 H   0  0  0  0  0  0  0  0  0  0  0  0
   -6.3954   -0.0776   -1.3106 H   0  0  0  0  0  0  0  0  0  0  0  0
   -2.6111    1.2154   -1.7037 H   0  0  0  0  0  0  0  0  0  0  0  0
   -0.1660    1.2857   -1.7422 H   0  0  0  0  0  0  0  0  0  0  0  0
    1.6993   -0.0388   -2.2132 H   0  0  0  0  0  0  0  0  0  0  0  0
    4.1455    0.0367   -2.2519 H   0  0  0  0  0  0  0  0  0  0  0  0
  1  2  2  0  0  0  0
  2  3  1  0  0  0  0
  3  4  2  0  0  0  0
  4  5  1  0  0  0  0
  5  6  2  0  0  0  0
  6  7  1  0  0  0  0
  7  8  2  0  0  0  0
  1  9  1  0  0  0  0
  9 10  2  0  0  0  0
 10 11  1  0  0  0  0
 11 12  2  0  0  0  0
 12 13  1  0  0  0  0
 13 14  2  0  0  0  0
 14 15  1  0  0  0  0
 15 16  2  0  0  0  0
 16 17  1  0  0  0  0
 17 18  1  0  0  0  0
 18 19  2  0  0  0  0
 19 20  1  0  0  0  0
 20 21  2  0  0  0  0
 21 22  1  0  0  0  0
 22 23  2  0  0  0  0
 17 24  1  0  0  0  0
 24 25  2  0  0  0  0
 25 26  1  0  0  0  0
 26 27  2  0  0  0  0
 27 28  1  0  0  0  0
 28 29  2  0  0  0  0
 16 30  1  0  0  0  0
 30 31  2  0  0  0  0
 12 32  1  0  0  0  0
 32 33  2  0  0  0  0
  8  3  1  0  0  0  0
 33  9  1  0  0  0  0
 31 13  1  0  0  0  0
 23 18  1  0  0  0  0
 29 24  1  0  0  0  0
  1 34  1  0  0  0  0
  2 35  1  0  0  0  0
  4 36  1  0  0  0  0
  5 37  1  0  0  0  0
  7 38  1  0  0  0  0
 10 39  1  0  0  0  0
 11 40  1  0  0  0  0
 14 41  1  0  0  0  0
 15 42  1  0  0  0  0
 19 43  1  0  0  0  0
 20 44  1  0  0  0  0
 21 45  1  0  0  0  0
 22 46  1  0  0  0  0
 23 47  1  0  0  0  0
 25 48  1  0  0  0  0
 26 49  1  0  0  0  0
 27 50  1  0  0  0  0
 28 51  1  0  0  0  0
 29 52  1  0  0  0  0
 30 53  1  0  0  0  0
 31 54  1  0  0  0  0
 32 55  1  0  0  0  0
 33 56  1  0  0  0  0
M  END
