
  xtb     03022213193D
 energy: -129.909613249849 gnorm: 0.000443648222 xtb: 6.4.1 (afa7bdf)
 77 84  0     0  0            999 V2000
   -2.0725   -3.9142   -0.0946 C   0  0  0  0  0  0  0  0  0  0  0  0
   -2.1321   -2.4443    0.0534 C   0  0  0  0  0  0  0  0  0  0  0  0
   -3.2798   -1.7920    0.2460 N   0  0  0  0  0  4  0  0  0  0  0  0
   -3.0179   -0.4379    0.3390 C   0  0  0  0  0  0  0  0  0  0  0  0
   -4.0309    0.4989    0.5526 C   0  0  0  0  0  0  0  0  0  0  0  0
   -3.7000    1.9268    0.6319 C   0  0  0  0  0  0  0  0  0  0  0  0
   -4.1026    2.6829    1.7333 C   0  0  0  0  0  0  0  0  0  0  0  0
   -3.7854    4.0232    1.8137 C   0  0  0  0  0  0  0  0  0  0  0  0
   -3.0625    4.6371    0.7912 C   0  0  0  0  0  0  0  0  0  0  0  0
   -2.7159    6.0616    0.8670 C   0  0  0  0  0  0  0  0  0  0  0  0
   -2.0785    6.6660    0.0432 O   0  0  0  0  0  0  0  0  0  0  0  0
   -2.6648    3.8817   -0.3137 C   0  0  0  0  0  0  0  0  0  0  0  0
   -2.9778    2.5417   -0.3920 C   0  0  0  0  0  0  0  0  0  0  0  0
   -5.3526    0.0769    0.6875 C   0  0  0  0  0  0  0  0  0  0  0  0
   -6.5454    0.8183    0.8572 C   0  0  0  0  0  0  0  0  0  0  0  0
   -7.5760   -0.0908    0.9081 C   0  0  0  0  0  0  0  0  0  0  0  0
   -7.0155   -1.3731    0.7606 C   0  0  0  0  0  0  0  0  0  0  0  0
   -7.7071   -2.6785    0.7418 C   0  0  0  0  0  0  0  0  0  0  0  0
   -5.6906   -1.2585    0.6250 N   0  0  0  0  0  0  0  0  0  0  0  0
   -4.6934   -2.4126    0.3896 B   0  0  0  0  0  4  0  0  0  0  0  0
   -5.0332   -3.0921   -0.7656 F   0  0  0  0  0  0  0  0  0  0  0  0
   -4.7191   -3.2821    1.4640 F   0  0  0  0  0  0  0  0  0  0  0  0
   -1.6284   -0.2571    0.2124 C   0  0  0  0  0  0  0  0  0  0  0  0
   -1.0597   -1.5085    0.0242 C   0  0  0  0  0  0  0  0  0  0  0  0
    0.3475   -1.7613   -0.1686 C   0  0  0  0  0  0  0  0  0  0  0  0
    1.3501   -0.7963   -0.1996 C   0  0  0  0  0  0  0  0  0  0  0  0
    2.5682   -1.4626   -0.4274 C   0  0  0  0  0  0  0  0  0  0  0  0
    2.3038   -2.8121   -0.5276 N   0  0  0  0  0  0  0  0  0  0  0  0
    0.9998   -2.9962   -0.3760 C   0  0  0  0  0  0  0  0  0  0  0  0
    3.3700   -3.9100   -0.7685 B   0  0  0  0  0  4  0  0  0  0  0  0
    3.0785   -4.5951   -1.9274 F   0  0  0  0  0  0  0  0  0  0  0  0
    3.3955   -4.7755    0.3031 F   0  0  0  0  0  0  0  0  0  0  0  0
    4.7328   -3.1913   -0.9040 N   0  0  0  0  0  4  0  0  0  0  0  0
    5.9122   -3.7553   -1.1405 C   0  0  0  0  0  0  0  0  0  0  0  0
    6.9125   -2.7775   -1.1956 C   0  0  0  0  0  0  0  0  0  0  0  0
    6.2973   -1.5637   -0.9797 C   0  0  0  0  0  0  0  0  0  0  0  0
    4.9210   -1.8302   -0.7950 C   0  0  0  0  0  0  0  0  0  0  0  0
    3.8619   -0.9586   -0.5548 C   0  0  0  0  0  0  0  0  0  0  0  0
    4.1012    0.4932   -0.4390 C   0  0  0  0  0  0  0  0  0  0  0  0
    3.9059    1.3172   -1.5495 C   0  0  0  0  0  0  0  0  0  0  0  0
    3.4681    0.7271   -2.8558 C   0  0  0  0  0  0  0  0  0  0  0  0
    4.1299    2.6779   -1.4192 C   0  0  0  0  0  0  0  0  0  0  0  0
    4.5391    3.2345   -0.2141 C   0  0  0  0  0  0  0  0  0  0  0  0
    4.7812    4.7090   -0.1089 C   0  0  0  0  0  0  0  0  0  0  0  0
    4.7262    2.3964    0.8747 C   0  0  0  0  0  0  0  0  0  0  0  0
    4.5139    1.0288    0.7812 C   0  0  0  0  0  0  0  0  0  0  0  0
    4.7126    0.1340    1.9669 C   0  0  0  0  0  0  0  0  0  0  0  0
   -3.0678   -4.3398   -0.0239 H   0  0  0  0  0  0  0  0  0  0  0  0
   -1.4493   -4.3451    0.6882 H   0  0  0  0  0  0  0  0  0  0  0  0
   -1.6449   -4.1772   -1.0615 H   0  0  0  0  0  0  0  0  0  0  0  0
   -4.6455    2.2021    2.5330 H   0  0  0  0  0  0  0  0  0  0  0  0
   -4.0939    4.6022    2.6723 H   0  0  0  0  0  0  0  0  0  0  0  0
   -3.0961    6.5650    1.7784 H   0  0  0  0  0  0  0  0  0  0  0  0
   -2.1105    4.3723   -1.0998 H   0  0  0  0  0  0  0  0  0  0  0  0
   -2.6866    1.9623   -1.2550 H   0  0  0  0  0  0  0  0  0  0  0  0
   -6.6120    1.8868    0.9177 H   0  0  0  0  0  0  0  0  0  0  0  0
   -8.6208    0.1163    1.0310 H   0  0  0  0  0  0  0  0  0  0  0  0
   -7.2952   -3.3254    1.5154 H   0  0  0  0  0  0  0  0  0  0  0  0
   -7.5292   -3.1746   -0.2117 H   0  0  0  0  0  0  0  0  0  0  0  0
   -8.7744   -2.5513    0.8964 H   0  0  0  0  0  0  0  0  0  0  0  0
   -1.1183    0.6836    0.2679 H   0  0  0  0  0  0  0  0  0  0  0  0
    1.2466    0.2636   -0.0767 H   0  0  0  0  0  0  0  0  0  0  0  0
    0.5935   -3.9863   -0.4207 H   0  0  0  0  0  0  0  0  0  0  0  0
    5.9987   -4.8182   -1.2609 H   0  0  0  0  0  0  0  0  0  0  0  0
    7.9539   -2.9578   -1.3742 H   0  0  0  0  0  0  0  0  0  0  0  0
    6.7450   -0.5893   -0.9536 H   0  0  0  0  0  0  0  0  0  0  0  0
    3.4311    1.4900   -3.6288 H   0  0  0  0  0  0  0  0  0  0  0  0
    2.4793    0.2796   -2.7607 H   0  0  0  0  0  0  0  0  0  0  0  0
    4.1552   -0.0576   -3.1702 H   0  0  0  0  0  0  0  0  0  0  0  0
    3.9826    3.3213   -2.2748 H   0  0  0  0  0  0  0  0  0  0  0  0
    4.9268    5.0080    0.9257 H   0  0  0  0  0  0  0  0  0  0  0  0
    5.6709    4.9838   -0.6751 H   0  0  0  0  0  0  0  0  0  0  0  0
    3.9410    5.2650   -0.5206 H   0  0  0  0  0  0  0  0  0  0  0  0
    5.0433    2.8144    1.8194 H   0  0  0  0  0  0  0  0  0  0  0  0
    3.8088   -0.4395    2.1692 H   0  0  0  0  0  0  0  0  0  0  0  0
    4.9629    0.7159    2.8501 H   0  0  0  0  0  0  0  0  0  0  0  0
    5.5173   -0.5760    1.7791 H   0  0  0  0  0  0  0  0  0  0  0  0
  1  2  1  0  0  0  0
  2  3  2  0  0  0  0
  3  4  1  0  0  0  0
  4  5  2  0  0  0  0
  5  6  1  0  0  0  0
  6  7  2  0  0  0  0
  7  8  1  0  0  0  0
  8  9  2  0  0  0  0
  9 10  1  0  0  0  0
 10 11  2  0  0  0  0
  9 12  1  0  0  0  0
 12 13  2  0  0  0  0
  5 14  1  0  0  0  0
 14 15  2  0  0  0  0
 15 16  1  0  0  0  0
 16 17  2  0  0  0  0
 17 18  1  0  0  0  0
 17 19  1  0  0  0  0
 19 20  1  0  0  0  0
 20 21  1  0  0  0  0
 20 22  1  0  0  0  0
  4 23  1  0  0  0  0
 23 24  2  0  0  0  0
 24 25  1  0  0  0  0
 25 26  1  0  0  0  0
 26 27  2  0  0  0  0
 27 28  1  0  0  0  0
 28 29  1  0  0  0  0
 28 30  1  0  0  0  0
 30 31  1  0  0  0  0
 30 32  1  0  0  0  0
 30 33  1  0  0  0  0
 33 34  2  0  0  0  0
 34 35  1  0  0  0  0
 35 36  2  0  0  0  0
 36 37  1  0  0  0  0
 37 38  2  0  0  0  0
 38 39  1  0  0  0  0
 39 40  2  0  0  0  0
 40 41  1  0  0  0  0
 40 42  1  0  0  0  0
 42 43  2  0  0  0  0
 43 44  1  0  0  0  0
 43 45  1  0  0  0  0
 45 46  2  0  0  0  0
 46 47  1  0  0  0  0
 24  2  1  0  0  0  0
 29 25  2  0  0  0  0
 37 33  1  0  0  0  0
 46 39  1  0  0  0  0
 20  3  1  0  0  0  0
 38 27  1  0  0  0  0
 13  6  1  0  0  0  0
 19 14  1  0  0  0  0
  1 48  1  0  0  0  0
  1 49  1  0  0  0  0
  1 50  1  0  0  0  0
  7 51  1  0  0  0  0
  8 52  1  0  0  0  0
 10 53  1  0  0  0  0
 12 54  1  0  0  0  0
 13 55  1  0  0  0  0
 15 56  1  0  0  0  0
 16 57  1  0  0  0  0
 18 58  1  0  0  0  0
 18 59  1  0  0  0  0
 18 60  1  0  0  0  0
 23 61  1  0  0  0  0
 26 62  1  0  0  0  0
 29 63  1  0  0  0  0
 34 64  1  0  0  0  0
 35 65  1  0  0  0  0
 36 66  1  0  0  0  0
 41 67  1  0  0  0  0
 41 68  1  0  0  0  0
 41 69  1  0  0  0  0
 42 70  1  0  0  0  0
 44 71  1  0  0  0  0
 44 72  1  0  0  0  0
 44 73  1  0  0  0  0
 45 74  1  0  0  0  0
 47 75  1  0  0  0  0
 47 76  1  0  0  0  0
 47 77  1  0  0  0  0
M  CHG  1   3   1
M  CHG  1  20  -1
M  CHG  1  30  -1
M  CHG  1  33   1
M  END
