
  xtb     03022215073D
 energy: -92.557689578889 gnorm: 0.000082713463 xtb: 6.4.1 (afa7bdf)
 68 72  0     0  0            999 V2000
   -3.7376    5.0593    1.0322 C   0  0  0  0  0  0  0  0  0  0  0  0
   -3.9731    4.1158   -0.1559 C   0  0  0  0  0  0  0  0  0  0  0  0
   -3.8685    4.9000   -1.4716 C   0  0  0  0  0  0  0  0  0  0  0  0
   -5.3962    3.5616   -0.0454 C   0  0  0  0  0  0  0  0  0  0  0  0
   -2.9164    3.0207   -0.1395 C   0  0  0  0  0  0  0  0  0  0  0  0
   -1.5655    3.3834   -0.2247 C   0  0  0  0  0  0  0  0  0  0  0  0
   -0.5381    2.4624   -0.2036 C   0  0  0  0  0  0  0  0  0  0  0  0
   -0.8678    1.1213   -0.0829 C   0  0  0  0  0  0  0  0  0  0  0  0
   -2.2210    0.7272   -0.0291 C   0  0  0  0  0  0  0  0  0  0  0  0
   -3.2350    1.6758   -0.0526 C   0  0  0  0  0  0  0  0  0  0  0  0
   -2.2255   -0.7083    0.0329 C   0  0  0  0  0  0  0  0  0  0  0  0
   -3.2446   -1.6480    0.1156 C   0  0  0  0  0  0  0  0  0  0  0  0
   -2.9333   -2.9956    0.1860 C   0  0  0  0  0  0  0  0  0  0  0  0
   -3.9968   -4.0813    0.2663 C   0  0  0  0  0  0  0  0  0  0  0  0
   -5.4190   -3.5151    0.2313 C   0  0  0  0  0  0  0  0  0  0  0  0
   -3.8356   -5.0330   -0.9277 C   0  0  0  0  0  0  0  0  0  0  0  0
   -3.8261   -4.8594    1.5786 C   0  0  0  0  0  0  0  0  0  0  0  0
   -1.5829   -3.3700    0.1941 C   0  0  0  0  0  0  0  0  0  0  0  0
   -0.5505   -2.4581    0.1125 C   0  0  0  0  0  0  0  0  0  0  0  0
   -0.8750   -1.1142    0.0094 C   0  0  0  0  0  0  0  0  0  0  0  0
   -0.0597    0.0000   -0.0602 N   0  0  0  0  0  0  0  0  0  0  0  0
    1.3371   -0.0061   -0.1002 C   0  0  0  0  0  0  0  0  0  0  0  0
    2.0116   -0.8539   -0.9782 C   0  0  0  0  0  0  0  0  0  0  0  0
    3.3894   -0.8656   -1.0130 C   0  0  0  0  0  0  0  0  0  0  0  0
    4.1244   -0.0183   -0.1802 C   0  0  0  0  0  0  0  0  0  0  0  0
    5.5337   -0.0245   -0.2204 C   0  0  0  0  0  0  0  0  0  0  0  0
    6.7413   -0.0294   -0.2545 C   0  0  0  0  0  0  0  0  0  0  0  0
    8.1519   -0.0352   -0.2940 C   0  0  0  0  0  0  0  0  0  0  0  0
    8.8377   -1.1485   -0.7840 C   0  0  0  0  0  0  0  0  0  0  0  0
   10.2183   -1.1493   -0.8185 C   0  0  0  0  0  0  0  0  0  0  0  0
   10.9291   -0.0465   -0.3712 C   0  0  0  0  0  0  0  0  0  0  0  0
   10.2533    1.0619    0.1145 C   0  0  0  0  0  0  0  0  0  0  0  0
    8.8729    1.0724    0.1568 C   0  0  0  0  0  0  0  0  0  0  0  0
    3.4458    0.8352    0.6931 C   0  0  0  0  0  0  0  0  0  0  0  0
    2.0682    0.8355    0.7374 C   0  0  0  0  0  0  0  0  0  0  0  0
   -3.7902    4.5052    1.9672 H   0  0  0  0  0  0  0  0  0  0  0  0
   -2.7631    5.5361    0.9739 H   0  0  0  0  0  0  0  0  0  0  0  0
   -4.4969    5.8385    1.0492 H   0  0  0  0  0  0  0  0  0  0  0  0
   -4.0127    4.2325   -2.3187 H   0  0  0  0  0  0  0  0  0  0  0  0
   -4.6315    5.6749   -1.5083 H   0  0  0  0  0  0  0  0  0  0  0  0
   -2.8968    5.3749   -1.5748 H   0  0  0  0  0  0  0  0  0  0  0  0
   -5.6292    2.9110   -0.8851 H   0  0  0  0  0  0  0  0  0  0  0  0
   -5.5298    3.0099    0.8823 H   0  0  0  0  0  0  0  0  0  0  0  0
   -6.1076    4.3852   -0.0519 H   0  0  0  0  0  0  0  0  0  0  0  0
   -1.3024    4.4264   -0.3149 H   0  0  0  0  0  0  0  0  0  0  0  0
    0.4886    2.7850   -0.2917 H   0  0  0  0  0  0  0  0  0  0  0  0
   -4.2569    1.3382   -0.0061 H   0  0  0  0  0  0  0  0  0  0  0  0
   -4.2646   -1.3015    0.1274 H   0  0  0  0  0  0  0  0  0  0  0  0
   -5.5982   -2.9655   -0.6900 H   0  0  0  0  0  0  0  0  0  0  0  0
   -6.1360   -4.3324    0.2799 H   0  0  0  0  0  0  0  0  0  0  0  0
   -5.6004   -2.8594    1.0798 H   0  0  0  0  0  0  0  0  0  0  0  0
   -4.6021   -5.8048   -0.8987 H   0  0  0  0  0  0  0  0  0  0  0  0
   -2.8641   -5.5192   -0.9202 H   0  0  0  0  0  0  0  0  0  0  0  0
   -3.9341   -4.4832   -1.8615 H   0  0  0  0  0  0  0  0  0  0  0  0
   -4.5916   -5.6283    1.6614 H   0  0  0  0  0  0  0  0  0  0  0  0
   -2.8536   -5.3410    1.6310 H   0  0  0  0  0  0  0  0  0  0  0  0
   -3.9187   -4.1864    2.4285 H   0  0  0  0  0  0  0  0  0  0  0  0
   -1.3242   -4.4152    0.2709 H   0  0  0  0  0  0  0  0  0  0  0  0
    0.4767   -2.7895    0.1419 H   0  0  0  0  0  0  0  0  0  0  0  0
    1.4453   -1.4890   -1.6429 H   0  0  0  0  0  0  0  0  0  0  0  0
    3.9110   -1.5214   -1.6946 H   0  0  0  0  0  0  0  0  0  0  0  0
    8.2778   -2.0051   -1.1307 H   0  0  0  0  0  0  0  0  0  0  0  0
   10.7450   -2.0138   -1.1961 H   0  0  0  0  0  0  0  0  0  0  0  0
   12.0087   -0.0510   -0.4012 H   0  0  0  0  0  0  0  0  0  0  0  0
   10.8073    1.9219    0.4621 H   0  0  0  0  0  0  0  0  0  0  0  0
    8.3403    1.9334    0.5339 H   0  0  0  0  0  0  0  0  0  0  0  0
    4.0113    1.4861    1.3436 H   0  0  0  0  0  0  0  0  0  0  0  0
    1.5465    1.4753    1.4334 H   0  0  0  0  0  0  0  0  0  0  0  0
  1  2  1  0  0  0  0
  2  3  1  0  0  0  0
  2  4  1  0  0  0  0
  2  5  1  0  0  0  0
  5  6  2  0  0  0  0
  6  7  1  0  0  0  0
  7  8  2  0  0  0  0
  8  9  1  0  0  0  0
  9 10  2  0  0  0  0
  9 11  1  0  0  0  0
 11 12  2  0  0  0  0
 12 13  1  0  0  0  0
 13 14  1  0  0  0  0
 14 15  1  0  0  0  0
 14 16  1  0  0  0  0
 14 17  1  0  0  0  0
 13 18  2  0  0  0  0
 18 19  1  0  0  0  0
 19 20  2  0  0  0  0
 20 21  1  0  0  0  0
 21 22  1  0  0  0  0
 22 23  2  0  0  0  0
 23 24  1  0  0  0  0
 24 25  2  0  0  0  0
 25 26  1  0  0  0  0
 26 27  3  0  0  0  0
 27 28  1  0  0  0  0
 28 29  2  0  0  0  0
 29 30  1  0  0  0  0
 30 31  2  0  0  0  0
 31 32  1  0  0  0  0
 32 33  2  0  0  0  0
 25 34  1  0  0  0  0
 34 35  2  0  0  0  0
 10  5  1  0  0  0  0
 20 11  1  0  0  0  0
 35 22  1  0  0  0  0
 21  8  1  0  0  0  0
 33 28  1  0  0  0  0
  1 36  1  0  0  0  0
  1 37  1  0  0  0  0
  1 38  1  0  0  0  0
  3 39  1  0  0  0  0
  3 40  1  0  0  0  0
  3 41  1  0  0  0  0
  4 42  1  0  0  0  0
  4 43  1  0  0  0  0
  4 44  1  0  0  0  0
  6 45  1  0  0  0  0
  7 46  1  0  0  0  0
 10 47  1  0  0  0  0
 12 48  1  0  0  0  0
 15 49  1  0  0  0  0
 15 50  1  0  0  0  0
 15 51  1  0  0  0  0
 16 52  1  0  0  0  0
 16 53  1  0  0  0  0
 16 54  1  0  0  0  0
 17 55  1  0  0  0  0
 17 56  1  0  0  0  0
 17 57  1  0  0  0  0
 18 58  1  0  0  0  0
 19 59  1  0  0  0  0
 23 60  1  0  0  0  0
 24 61  1  0  0  0  0
 29 62  1  0  0  0  0
 30 63  1  0  0  0  0
 31 64  1  0  0  0  0
 32 65  1  0  0  0  0
 33 66  1  0  0  0  0
 34 67  1  0  0  0  0
 35 68  1  0  0  0  0
M  END
