
  xtb     03022213453D
 energy: -92.255234188654 gnorm: 0.000127754603 xtb: 6.4.1 (afa7bdf)
 65 66  0     0  0            999 V2000
   -4.7987   -4.7001    1.5843 C   0  0  0  0  0  0  0  0  0  0  0  0
   -3.5645   -4.4479    0.7265 C   0  0  0  0  0  0  0  0  0  0  0  0
   -3.8950   -3.8583   -0.6453 C   0  0  0  0  0  0  0  0  0  0  0  0
   -4.6040   -2.5015   -0.6140 C   0  0  0  0  0  0  0  0  0  0  0  0
   -3.8865   -1.3974    0.1662 C   0  0  0  0  0  0  0  0  0  0  0  0
   -2.5372   -1.0335   -0.4551 C   0  0  0  0  0  0  0  0  0  0  0  0
   -1.7484   -0.1606    0.3946 N   0  0  0  0  0  0  0  0  0  0  0  0
   -2.3948    1.0404    0.8812 C   0  0  0  0  0  0  0  0  0  0  0  0
   -2.7898    2.0101   -0.2417 C   0  0  0  0  0  0  0  0  0  0  0  0
   -3.3596    3.3083    0.3228 C   0  0  0  0  0  0  0  0  0  0  0  0
   -3.7919    4.2653   -0.7863 C   0  0  0  0  0  0  0  0  0  0  0  0
   -4.4651    5.5343   -0.2626 C   0  0  0  0  0  0  0  0  0  0  0  0
   -3.5139    6.4491    0.4999 C   0  0  0  0  0  0  0  0  0  0  0  0
   -0.3723   -0.1919    0.2754 C   0  0  0  0  0  0  0  0  0  0  0  0
    0.2692   -0.7846   -0.8234 C   0  0  0  0  0  0  0  0  0  0  0  0
    1.6412   -0.8706   -0.8928 C   0  0  0  0  0  0  0  0  0  0  0  0
    2.4429   -0.3663    0.1333 C   0  0  0  0  0  0  0  0  0  0  0  0
    3.8431   -0.4622    0.0650 C   0  0  0  0  0  0  0  0  0  0  0  0
    5.0478   -0.5540    0.0053 C   0  0  0  0  0  0  0  0  0  0  0  0
    6.4486   -0.6622   -0.0666 C   0  0  0  0  0  0  0  0  0  0  0  0
    7.2515   -0.1444    0.9546 C   0  0  0  0  0  0  0  0  0  0  0  0
    8.6248   -0.2517    0.8852 C   0  0  0  0  0  0  0  0  0  0  0  0
    9.2107   -0.8793   -0.2074 C   0  0  0  0  0  0  0  0  0  0  0  0
   10.6988   -1.0134   -0.3182 C   0  0  0  0  0  0  0  0  0  0  0  0
   11.0910   -2.3001   -0.4175 F   0  0  0  0  0  0  0  0  0  0  0  0
   11.1875   -0.4002   -1.4160 F   0  0  0  0  0  0  0  0  0  0  0  0
   11.3649   -0.4987    0.7250 F   0  0  0  0  0  0  0  0  0  0  0  0
    8.4234   -1.3993   -1.2309 C   0  0  0  0  0  0  0  0  0  0  0  0
    7.0517   -1.2917   -1.1614 C   0  0  0  0  0  0  0  0  0  0  0  0
    1.8157    0.2306    1.2317 C   0  0  0  0  0  0  0  0  0  0  0  0
    0.4460    0.3133    1.2995 C   0  0  0  0  0  0  0  0  0  0  0  0
   -5.2908   -3.7677    1.8483 H   0  0  0  0  0  0  0  0  0  0  0  0
   -5.5108   -5.3265    1.0511 H   0  0  0  0  0  0  0  0  0  0  0  0
   -4.5198   -5.2073    2.5052 H   0  0  0  0  0  0  0  0  0  0  0  0
   -3.0447   -5.3962    0.5695 H   0  0  0  0  0  0  0  0  0  0  0  0
   -2.8770   -3.7884    1.2589 H   0  0  0  0  0  0  0  0  0  0  0  0
   -2.9707   -3.7760   -1.2210 H   0  0  0  0  0  0  0  0  0  0  0  0
   -4.5420   -4.5589   -1.1794 H   0  0  0  0  0  0  0  0  0  0  0  0
   -5.5973   -2.6327   -0.1813 H   0  0  0  0  0  0  0  0  0  0  0  0
   -4.7433   -2.1673   -1.6457 H   0  0  0  0  0  0  0  0  0  0  0  0
   -3.7288   -1.7118    1.1983 H   0  0  0  0  0  0  0  0  0  0  0  0
   -4.5406   -0.5237    0.1767 H   0  0  0  0  0  0  0  0  0  0  0  0
   -2.7036   -0.6001   -1.4531 H   0  0  0  0  0  0  0  0  0  0  0  0
   -1.9645   -1.9544   -0.5738 H   0  0  0  0  0  0  0  0  0  0  0  0
   -3.2807    0.7644    1.4590 H   0  0  0  0  0  0  0  0  0  0  0  0
   -1.7140    1.5594    1.5545 H   0  0  0  0  0  0  0  0  0  0  0  0
   -3.5343    1.5445   -0.8903 H   0  0  0  0  0  0  0  0  0  0  0  0
   -1.9061    2.2279   -0.8468 H   0  0  0  0  0  0  0  0  0  0  0  0
   -2.6043    3.7859    0.9487 H   0  0  0  0  0  0  0  0  0  0  0  0
   -4.2211    3.0784    0.9552 H   0  0  0  0  0  0  0  0  0  0  0  0
   -4.4929    3.7450   -1.4443 H   0  0  0  0  0  0  0  0  0  0  0  0
   -2.9207    4.5406   -1.3852 H   0  0  0  0  0  0  0  0  0  0  0  0
   -4.8758    6.0844   -1.1125 H   0  0  0  0  0  0  0  0  0  0  0  0
   -5.3002    5.2577    0.3853 H   0  0  0  0  0  0  0  0  0  0  0  0
   -4.0200    7.3707    0.7780 H   0  0  0  0  0  0  0  0  0  0  0  0
   -2.6547    6.7032   -0.1171 H   0  0  0  0  0  0  0  0  0  0  0  0
   -3.1568    5.9730    1.4092 H   0  0  0  0  0  0  0  0  0  0  0  0
   -0.3088   -1.1619   -1.6521 H   0  0  0  0  0  0  0  0  0  0  0  0
    2.1088   -1.3238   -1.7551 H   0  0  0  0  0  0  0  0  0  0  0  0
    6.7863    0.3408    1.7993 H   0  0  0  0  0  0  0  0  0  0  0  0
    9.2445    0.1479    1.6734 H   0  0  0  0  0  0  0  0  0  0  0  0
    8.8947   -1.8841   -2.0727 H   0  0  0  0  0  0  0  0  0  0  0  0
    6.4323   -1.6921   -1.9496 H   0  0  0  0  0  0  0  0  0  0  0  0
    2.4202    0.6170    2.0396 H   0  0  0  0  0  0  0  0  0  0  0  0
   -0.0001    0.7509    2.1795 H   0  0  0  0  0  0  0  0  0  0  0  0
  1  2  1  0  0  0  0
  2  3  1  0  0  0  0
  3  4  1  0  0  0  0
  4  5  1  0  0  0  0
  5  6  1  0  0  0  0
  6  7  1  0  0  0  0
  7  8  1  0  0  0  0
  8  9  1  0  0  0  0
  9 10  1  0  0  0  0
 10 11  1  0  0  0  0
 11 12  1  0  0  0  0
 12 13  1  0  0  0  0
  7 14  1  0  0  0  0
 14 15  2  0  0  0  0
 15 16  1  0  0  0  0
 16 17  2  0  0  0  0
 17 18  1  0  0  0  0
 18 19  3  0  0  0  0
 19 20  1  0  0  0  0
 20 21  2  0  0  0  0
 21 22  1  0  0  0  0
 22 23  2  0  0  0  0
 23 24  1  0  0  0  0
 24 25  1  0  0  0  0
 24 26  1  0  0  0  0
 24 27  1  0  0  0  0
 23 28  1  0  0  0  0
 28 29  2  0  0  0  0
 17 30  1  0  0  0  0
 30 31  2  0  0  0  0
 31 14  1  0  0  0  0
 29 20  1  0  0  0  0
  1 32  1  0  0  0  0
  1 33  1  0  0  0  0
  1 34  1  0  0  0  0
  2 35  1  0  0  0  0
  2 36  1  0  0  0  0
  3 37  1  0  0  0  0
  3 38  1  0  0  0  0
  4 39  1  0  0  0  0
  4 40  1  0  0  0  0
  5 41  1  0  0  0  0
  5 42  1  0  0  0  0
  6 43  1  0  0  0  0
  6 44  1  0  0  0  0
  8 45  1  0  0  0  0
  8 46  1  0  0  0  0
  9 47  1  0  0  0  0
  9 48  1  0  0  0  0
 10 49  1  0  0  0  0
 10 50  1  0  0  0  0
 11 51  1  0  0  0  0
 11 52  1  0  0  0  0
 12 53  1  0  0  0  0
 12 54  1  0  0  0  0
 13 55  1  0  0  0  0
 13 56  1  0  0  0  0
 13 57  1  0  0  0  0
 15 58  1  0  0  0  0
 16 59  1  0  0  0  0
 21 60  1  0  0  0  0
 22 61  1  0  0  0  0
 28 62  1  0  0  0  0
 29 63  1  0  0  0  0
 30 64  1  0  0  0  0
 31 65  1  0  0  0  0
M  END
