
  xtb     03022214503D
 energy: -81.540015026788 gnorm: 0.000118536464 xtb: 6.4.1 (afa7bdf)
 40 43  0     0  0            999 V2000
    5.6319   -1.5415    1.5234 F   0  0  0  0  0  0  0  0  0  0  0  0
    5.2938   -0.3292    1.0399 C   0  0  0  0  0  0  0  0  0  0  0  0
    5.7114    0.5609    1.9580 F   0  0  0  0  0  0  0  0  0  0  0  0
    6.0467   -0.1347   -0.0493 F   0  0  0  0  0  0  0  0  0  0  0  0
    3.8198   -0.2222    0.7757 C   0  0  0  0  0  0  0  0  0  0  0  0
    2.9469   -0.1741    1.8571 C   0  0  0  0  0  0  0  0  0  0  0  0
    1.5877   -0.0931    1.6329 C   0  0  0  0  0  0  0  0  0  0  0  0
    1.0534   -0.0595    0.3432 C   0  0  0  0  0  0  0  0  0  0  0  0
   -0.5042    0.0329    0.1355 B   0  0  0  0  0  0  0  0  0  0  0  0
   -1.2256    1.3775    0.0369 C   0  0  0  0  0  0  0  0  0  0  0  0
   -0.5861    2.6266    0.1119 C   0  0  0  0  0  0  0  0  0  0  0  0
   -1.2820    3.8054    0.0008 C   0  0  0  0  0  0  0  0  0  0  0  0
   -2.6635    3.7803   -0.1921 C   0  0  0  0  0  0  0  0  0  0  0  0
   -3.3297    2.5818   -0.2694 C   0  0  0  0  0  0  0  0  0  0  0  0
   -2.6240    1.3767   -0.1570 C   0  0  0  0  0  0  0  0  0  0  0  0
   -3.3106    0.1977   -0.2361 N   0  0  0  0  0  0  0  0  0  0  0  0
   -2.7686   -1.0534   -0.1429 C   0  0  0  0  0  0  0  0  0  0  0  0
   -3.6121   -2.1676   -0.2427 C   0  0  0  0  0  0  0  0  0  0  0  0
   -3.0926   -3.4356   -0.1505 C   0  0  0  0  0  0  0  0  0  0  0  0
   -1.7239   -3.6219    0.0452 C   0  0  0  0  0  0  0  0  0  0  0  0
   -0.8932   -2.5327    0.1435 C   0  0  0  0  0  0  0  0  0  0  0  0
   -1.3802   -1.2176    0.0530 C   0  0  0  0  0  0  0  0  0  0  0  0
    1.9605   -0.1122   -0.7205 C   0  0  0  0  0  0  0  0  0  0  0  0
    1.4260   -0.0782   -2.1262 C   0  0  0  0  0  0  0  0  0  0  0  0
    0.5838   -1.0962   -2.3856 F   0  0  0  0  0  0  0  0  0  0  0  0
    2.3868   -0.1490   -3.0592 F   0  0  0  0  0  0  0  0  0  0  0  0
    0.7364    1.0475   -2.3909 F   0  0  0  0  0  0  0  0  0  0  0  0
    3.3311   -0.1939   -0.5202 C   0  0  0  0  0  0  0  0  0  0  0  0
    3.3399   -0.1973    2.8624 H   0  0  0  0  0  0  0  0  0  0  0  0
    0.9121   -0.0545    2.4737 H   0  0  0  0  0  0  0  0  0  0  0  0
    0.4841    2.6449    0.2593 H   0  0  0  0  0  0  0  0  0  0  0  0
   -0.7674    4.7524    0.0587 H   0  0  0  0  0  0  0  0  0  0  0  0
   -3.2110    4.7069   -0.2815 H   0  0  0  0  0  0  0  0  0  0  0  0
   -4.4008    2.5581   -0.4190 H   0  0  0  0  0  0  0  0  0  0  0  0
   -4.3090    0.2562   -0.3910 H   0  0  0  0  0  0  0  0  0  0  0  0
   -4.6727   -2.0189   -0.3945 H   0  0  0  0  0  0  0  0  0  0  0  0
   -3.7459   -4.2918   -0.2304 H   0  0  0  0  0  0  0  0  0  0  0  0
   -1.3251   -4.6225    0.1151 H   0  0  0  0  0  0  0  0  0  0  0  0
    0.1673   -2.6758    0.2927 H   0  0  0  0  0  0  0  0  0  0  0  0
    4.0083   -0.2321   -1.3597 H   0  0  0  0  0  0  0  0  0  0  0  0
  1  2  1  0  0  0  0
  2  3  1  0  0  0  0
  2  4  1  0  0  0  0
  2  5  1  0  0  0  0
  5  6  2  0  0  0  0
  6  7  1  0  0  0  0
  7  8  2  0  0  0  0
  8  9  1  0  0  0  0
  9 10  1  0  0  0  0
 10 11  2  0  0  0  0
 11 12  1  0  0  0  0
 12 13  2  0  0  0  0
 13 14  1  0  0  0  0
 14 15  2  0  0  0  0
 15 16  1  0  0  0  0
 16 17  1  0  0  0  0
 17 18  2  0  0  0  0
 18 19  1  0  0  0  0
 19 20  2  0  0  0  0
 20 21  1  0  0  0  0
 21 22  2  0  0  0  0
  8 23  1  0  0  0  0
 23 24  1  0  0  0  0
 24 25  1  0  0  0  0
 24 26  1  0  0  0  0
 24 27  1  0  0  0  0
 23 28  2  0  0  0  0
 28  5  1  0  0  0  0
 22  9  1  0  0  0  0
 15 10  1  0  0  0  0
 22 17  1  0  0  0  0
  6 29  1  0  0  0  0
  7 30  1  0  0  0  0
 11 31  1  0  0  0  0
 12 32  1  0  0  0  0
 13 33  1  0  0  0  0
 14 34  1  0  0  0  0
 16 35  1  0  0  0  0
 18 36  1  0  0  0  0
 19 37  1  0  0  0  0
 20 38  1  0  0  0  0
 21 39  1  0  0  0  0
 28 40  1  0  0  0  0
M  END
