
  xtb     03022212033D
 energy: -148.066670955249 gnorm: 0.000100549622 xtb: 6.4.1 (afa7bdf)
100110  0     0  0            999 V2000
   -0.0027   -3.0131    2.3629 C   0  0  0  0  0  0  0  0  0  0  0  0
    0.4329   -2.6501    0.9443 C   0  0  0  0  0  0  0  0  0  0  0  0
    0.3416   -1.2320    0.7055 N   0  0  0  0  0  0  0  0  0  0  0  0
   -0.8301   -0.5408    0.5873 C   0  0  0  0  0  0  0  0  0  0  0  0
   -2.1643   -1.1359    0.6714 C   0  0  0  0  0  0  0  0  0  0  0  0
   -3.0468   -0.6951    1.6557 C   0  0  0  0  0  0  0  0  0  0  0  0
   -4.3438   -1.1647    1.6985 C   0  0  0  0  0  0  0  0  0  0  0  0
   -4.7984   -2.0719    0.7469 C   0  0  0  0  0  0  0  0  0  0  0  0
   -6.1960   -2.5415    0.7694 C   0  0  0  0  0  0  0  0  0  0  0  0
   -6.6629   -3.2459    1.8521 C   0  0  0  0  0  0  0  0  0  0  0  0
   -7.9743   -3.7377    1.8842 C   0  0  0  0  0  0  0  0  0  0  0  0
   -8.8183   -3.5175    0.8325 C   0  0  0  0  0  0  0  0  0  0  0  0
   -8.3906   -2.7738   -0.2870 C   0  0  0  0  0  0  0  0  0  0  0  0
   -9.2531   -2.5079   -1.3715 C   0  0  0  0  0  0  0  0  0  0  0  0
   -8.8335   -1.7595   -2.4344 C   0  0  0  0  0  0  0  0  0  0  0  0
   -7.5327   -1.2343   -2.4554 C   0  0  0  0  0  0  0  0  0  0  0  0
   -6.6694   -1.4823   -1.4255 C   0  0  0  0  0  0  0  0  0  0  0  0
   -7.0639   -2.2688   -0.3221 C   0  0  0  0  0  0  0  0  0  0  0  0
   -3.9135   -2.5255   -0.2270 C   0  0  0  0  0  0  0  0  0  0  0  0
   -2.6113   -2.0667   -0.2632 C   0  0  0  0  0  0  0  0  0  0  0  0
   -0.5392    0.7999    0.4015 C   0  0  0  0  0  0  0  0  0  0  0  0
   -1.5280    1.8642    0.2662 C   0  0  0  0  0  0  0  0  0  0  0  0
   -1.3457    3.0932    0.9396 C   0  0  0  0  0  0  0  0  0  0  0  0
   -2.2744    4.0872    0.8425 C   0  0  0  0  0  0  0  0  0  0  0  0
   -3.4512    3.9123    0.0832 C   0  0  0  0  0  0  0  0  0  0  0  0
   -4.4385    4.9124   -0.0228 C   0  0  0  0  0  0  0  0  0  0  0  0
   -5.5736    4.6992   -0.7544 C   0  0  0  0  0  0  0  0  0  0  0  0
   -5.7722    3.4759   -1.4140 C   0  0  0  0  0  0  0  0  0  0  0  0
   -4.8303    2.4893   -1.3362 C   0  0  0  0  0  0  0  0  0  0  0  0
   -3.6478    2.6783   -0.5901 C   0  0  0  0  0  0  0  0  0  0  0  0
   -2.6621    1.6797   -0.4898 C   0  0  0  0  0  0  0  0  0  0  0  0
    0.8762    0.9162    0.3934 C   0  0  0  0  0  0  0  0  0  0  0  0
    1.6429    2.1408    0.1931 C   0  0  0  0  0  0  0  0  0  0  0  0
    2.7834    2.4051    0.9845 C   0  0  0  0  0  0  0  0  0  0  0  0
    3.5040    3.5500    0.8114 C   0  0  0  0  0  0  0  0  0  0  0  0
    3.1268    4.5070   -0.1547 C   0  0  0  0  0  0  0  0  0  0  0  0
    3.8428    5.7050   -0.3503 C   0  0  0  0  0  0  0  0  0  0  0  0
    3.4410    6.6137   -1.2892 C   0  0  0  0  0  0  0  0  0  0  0  0
    2.3041    6.3650   -2.0745 C   0  0  0  0  0  0  0  0  0  0  0  0
    1.5899    5.2117   -1.9104 C   0  0  0  0  0  0  0  0  0  0  0  0
    1.9791    4.2533   -0.9507 C   0  0  0  0  0  0  0  0  0  0  0  0
    1.2627    3.0579   -0.7592 C   0  0  0  0  0  0  0  0  0  0  0  0
    1.3887   -0.3562    0.5970 C   0  0  0  0  0  0  0  0  0  0  0  0
    2.7953   -0.7450    0.6200 C   0  0  0  0  0  0  0  0  0  0  0  0
    3.3425   -1.4998    1.6563 C   0  0  0  0  0  0  0  0  0  0  0  0
    4.6853   -1.8229    1.6593 C   0  0  0  0  0  0  0  0  0  0  0  0
    5.5205   -1.4070    0.6274 C   0  0  0  0  0  0  0  0  0  0  0  0
    6.9558   -1.7376    0.6559 C   0  0  0  0  0  0  0  0  0  0  0  0
    7.7047   -1.3715    1.7494 C   0  0  0  0  0  0  0  0  0  0  0  0
    9.0809   -1.6235    1.8050 C   0  0  0  0  0  0  0  0  0  0  0  0
    9.7082   -2.2467    0.7635 C   0  0  0  0  0  0  0  0  0  0  0  0
    8.9765   -2.6641   -0.3674 C   0  0  0  0  0  0  0  0  0  0  0  0
    9.6012   -3.3321   -1.4418 C   0  0  0  0  0  0  0  0  0  0  0  0
    8.8782   -3.7580   -2.5194 C   0  0  0  0  0  0  0  0  0  0  0  0
    7.4922   -3.5460   -2.5626 C   0  0  0  0  0  0  0  0  0  0  0  0
    6.8578   -2.8955   -1.5414 C   0  0  0  0  0  0  0  0  0  0  0  0
    7.5785   -2.4184   -0.4256 C   0  0  0  0  0  0  0  0  0  0  0  0
    4.9789   -0.6367   -0.3999 C   0  0  0  0  0  0  0  0  0  0  0  0
    3.6390   -0.3109   -0.4037 C   0  0  0  0  0  0  0  0  0  0  0  0
    0.5859   -2.4692    3.0980 H   0  0  0  0  0  0  0  0  0  0  0  0
   -1.0507   -2.7625    2.5104 H   0  0  0  0  0  0  0  0  0  0  0  0
    0.1283   -4.0790    2.5293 H   0  0  0  0  0  0  0  0  0  0  0  0
    1.4670   -2.9580    0.7723 H   0  0  0  0  0  0  0  0  0  0  0  0
   -0.2058   -3.1769    0.2296 H   0  0  0  0  0  0  0  0  0  0  0  0
   -2.7073    0.0304    2.3802 H   0  0  0  0  0  0  0  0  0  0  0  0
   -5.0245   -0.8086    2.4581 H   0  0  0  0  0  0  0  0  0  0  0  0
   -6.0008   -3.4410    2.6840 H   0  0  0  0  0  0  0  0  0  0  0  0
   -8.3073   -4.2983    2.7456 H   0  0  0  0  0  0  0  0  0  0  0  0
   -9.8280   -3.9023    0.8453 H   0  0  0  0  0  0  0  0  0  0  0  0
  -10.2584   -2.9038   -1.3401 H   0  0  0  0  0  0  0  0  0  0  0  0
   -9.5011   -1.5589   -3.2597 H   0  0  0  0  0  0  0  0  0  0  0  0
   -7.2197   -0.6275   -3.2929 H   0  0  0  0  0  0  0  0  0  0  0  0
   -5.6729   -1.0660   -1.4383 H   0  0  0  0  0  0  0  0  0  0  0  0
   -4.2563   -3.2384   -0.9638 H   0  0  0  0  0  0  0  0  0  0  0  0
   -1.9485   -2.4014   -1.0493 H   0  0  0  0  0  0  0  0  0  0  0  0
   -0.4591    3.2313    1.5407 H   0  0  0  0  0  0  0  0  0  0  0  0
   -2.1246    5.0257    1.3580 H   0  0  0  0  0  0  0  0  0  0  0  0
   -4.2823    5.8518    0.4891 H   0  0  0  0  0  0  0  0  0  0  0  0
   -6.3275    5.4695   -0.8293 H   0  0  0  0  0  0  0  0  0  0  0  0
   -6.6778    3.3219   -1.9830 H   0  0  0  0  0  0  0  0  0  0  0  0
   -4.9792    1.5451   -1.8413 H   0  0  0  0  0  0  0  0  0  0  0  0
   -2.8095    0.7535   -1.0266 H   0  0  0  0  0  0  0  0  0  0  0  0
    3.0706    1.6885    1.7402 H   0  0  0  0  0  0  0  0  0  0  0  0
    4.3747    3.7448    1.4220 H   0  0  0  0  0  0  0  0  0  0  0  0
    4.7164    5.8927    0.2586 H   0  0  0  0  0  0  0  0  0  0  0  0
    3.9940    7.5306   -1.4334 H   0  0  0  0  0  0  0  0  0  0  0  0
    1.9992    7.0956   -2.8100 H   0  0  0  0  0  0  0  0  0  0  0  0
    0.7118    5.0158   -2.5097 H   0  0  0  0  0  0  0  0  0  0  0  0
    0.3979    2.8658   -1.3784 H   0  0  0  0  0  0  0  0  0  0  0  0
    2.7212   -1.8116    2.4831 H   0  0  0  0  0  0  0  0  0  0  0  0
    5.0952   -2.4121    2.4675 H   0  0  0  0  0  0  0  0  0  0  0  0
    7.2261   -0.8571    2.5707 H   0  0  0  0  0  0  0  0  0  0  0  0
    9.6406   -1.3120    2.6749 H   0  0  0  0  0  0  0  0  0  0  0  0
   10.7720   -2.4348    0.7922 H   0  0  0  0  0  0  0  0  0  0  0  0
   10.6669   -3.5059   -1.3908 H   0  0  0  0  0  0  0  0  0  0  0  0
    9.3641   -4.2691   -3.3377 H   0  0  0  0  0  0  0  0  0  0  0  0
    6.9269   -3.9062   -3.4100 H   0  0  0  0  0  0  0  0  0  0  0  0
    5.7882   -2.7503   -1.5750 H   0  0  0  0  0  0  0  0  0  0  0  0
    5.6221   -0.2801   -1.1915 H   0  0  0  0  0  0  0  0  0  0  0  0
    3.2301    0.2873   -1.2044 H   0  0  0  0  0  0  0  0  0  0  0  0
  1  2  1  0  0  0  0
  2  3  1  0  0  0  0
  3  4  1  0  0  0  0
  4  5  1  0  0  0  0
  5  6  2  0  0  0  0
  6  7  1  0  0  0  0
  7  8  2  0  0  0  0
  8  9  1  0  0  0  0
  9 10  2  0  0  0  0
 10 11  1  0  0  0  0
 11 12  2  0  0  0  0
 12 13  1  0  0  0  0
 13 14  2  0  0  0  0
 14 15  1  0  0  0  0
 15 16  2  0  0  0  0
 16 17  1  0  0  0  0
 17 18  2  0  0  0  0
  8 19  1  0  0  0  0
 19 20  2  0  0  0  0
  4 21  2  0  0  0  0
 21 22  1  0  0  0  0
 22 23  2  0  0  0  0
 23 24  1  0  0  0  0
 24 25  2  0  0  0  0
 25 26  1  0  0  0  0
 26 27  2  0  0  0  0
 27 28  1  0  0  0  0
 28 29  2  0  0  0  0
 29 30  1  0  0  0  0
 30 31  2  0  0  0  0
 21 32  1  0  0  0  0
 32 33  1  0  0  0  0
 33 34  2  0  0  0  0
 34 35  1  0  0  0  0
 35 36  2  0  0  0  0
 36 37  1  0  0  0  0
 37 38  2  0  0  0  0
 38 39  1  0  0  0  0
 39 40  2  0  0  0  0
 40 41  1  0  0  0  0
 41 42  2  0  0  0  0
 32 43  2  0  0  0  0
 43 44  1  0  0  0  0
 44 45  2  0  0  0  0
 45 46  1  0  0  0  0
 46 47  2  0  0  0  0
 47 48  1  0  0  0  0
 48 49  2  0  0  0  0
 49 50  1  0  0  0  0
 50 51  2  0  0  0  0
 51 52  1  0  0  0  0
 52 53  2  0  0  0  0
 53 54  1  0  0  0  0
 54 55  2  0  0  0  0
 55 56  1  0  0  0  0
 56 57  2  0  0  0  0
 47 58  1  0  0  0  0
 58 59  2  0  0  0  0
 43  3  1  0  0  0  0
 59 44  1  0  0  0  0
 20  5  1  0  0  0  0
 31 22  1  0  0  0  0
 42 33  1  0  0  0  0
 57 48  1  0  0  0  0
 18  9  1  0  0  0  0
 30 25  1  0  0  0  0
 41 36  1  0  0  0  0
 57 52  1  0  0  0  0
 18 13  1  0  0  0  0
  1 60  1  0  0  0  0
  1 61  1  0  0  0  0
  1 62  1  0  0  0  0
  2 63  1  0  0  0  0
  2 64  1  0  0  0  0
  6 65  1  0  0  0  0
  7 66  1  0  0  0  0
 10 67  1  0  0  0  0
 11 68  1  0  0  0  0
 12 69  1  0  0  0  0
 14 70  1  0  0  0  0
 15 71  1  0  0  0  0
 16 72  1  0  0  0  0
 17 73  1  0  0  0  0
 19 74  1  0  0  0  0
 20 75  1  0  0  0  0
 23 76  1  0  0  0  0
 24 77  1  0  0  0  0
 26 78  1  0  0  0  0
 27 79  1  0  0  0  0
 28 80  1  0  0  0  0
 29 81  1  0  0  0  0
 31 82  1  0  0  0  0
 34 83  1  0  0  0  0
 35 84  1  0  0  0  0
 37 85  1  0  0  0  0
 38 86  1  0  0  0  0
 39 87  1  0  0  0  0
 40 88  1  0  0  0  0
 42 89  1  0  0  0  0
 45 90  1  0  0  0  0
 46 91  1  0  0  0  0
 49 92  1  0  0  0  0
 50 93  1  0  0  0  0
 51 94  1  0  0  0  0
 53 95  1  0  0  0  0
 54 96  1  0  0  0  0
 55 97  1  0  0  0  0
 56 98  1  0  0  0  0
 58 99  1  0  0  0  0
 59100  1  0  0  0  0
M  END
