
  xtb     03022214293D
 energy: -82.938868863197 gnorm: 0.000293843487 xtb: 6.4.1 (afa7bdf)
 43 48  0     0  0            999 V2000
    7.1751   -1.2796    0.3899 C   0  0  0  0  0  0  0  0  0  0  0  0
    5.7606   -1.1637    0.4305 O   0  0  0  0  0  0  0  0  0  0  0  0
    5.2325   -0.1904   -0.3244 C   0  0  0  0  0  0  0  0  0  0  0  0
    5.8948    0.5523   -1.0060 O   0  0  0  0  0  0  0  0  0  0  0  0
    3.7518   -0.1361   -0.2290 C   0  0  0  0  0  0  0  0  0  0  0  0
    3.0730    0.7880   -1.0203 C   0  0  0  0  0  0  0  0  0  0  0  0
    1.6976    0.8765   -0.9632 C   0  0  0  0  0  0  0  0  0  0  0  0
    0.9742    0.0364   -0.1168 C   0  0  0  0  0  0  0  0  0  0  0  0
   -0.4894    0.1229   -0.0559 C   0  0  0  0  0  0  0  0  0  0  0  0
   -1.1109    1.3464    0.2090 C   0  0  0  0  0  0  0  0  0  0  0  0
   -0.5200    2.6084    0.4946 C   0  0  0  0  0  0  0  0  0  0  0  0
   -1.5711    3.4684    0.7050 C   0  0  0  0  0  0  0  0  0  0  0  0
   -1.9029    5.1242    1.0917 S   0  0  0  0  0  0  0  0  0  0  0  0
   -3.6086    4.7899    1.0472 C   0  0  0  0  0  0  0  0  0  0  0  0
   -3.9380    3.5038    0.7581 C   0  0  0  0  0  0  0  0  0  0  0  0
   -2.7804    2.7276    0.5569 C   0  0  0  0  0  0  0  0  0  0  0  0
   -2.4865    1.4549    0.2634 N   0  0  0  0  0  4  0  0  0  0  0  0
   -3.4912    0.2960    0.0775 B   0  0  0  0  0  4  0  0  0  0  0  0
   -4.2420    0.1332    1.2221 F   0  0  0  0  0  0  0  0  0  0  0  0
   -4.3217    0.5493   -0.9928 F   0  0  0  0  0  0  0  0  0  0  0  0
   -2.6470   -0.9690   -0.1939 N   0  0  0  0  0  0  0  0  0  0  0  0
   -1.2687   -1.0195   -0.2609 C   0  0  0  0  0  0  0  0  0  0  0  0
   -0.8541   -2.3392   -0.5915 C   0  0  0  0  0  0  0  0  0  0  0  0
   -2.0114   -3.0718   -0.7047 C   0  0  0  0  0  0  0  0  0  0  0  0
   -2.5637   -4.6768   -1.0517 S   0  0  0  0  0  0  0  0  0  0  0  0
   -4.2093   -4.1494   -0.8580 C   0  0  0  0  0  0  0  0  0  0  0  0
   -4.3620   -2.8355   -0.5479 C   0  0  0  0  0  0  0  0  0  0  0  0
   -3.1098   -2.1981   -0.4542 C   0  0  0  0  0  0  0  0  0  0  0  0
    1.6576   -0.8884    0.6729 C   0  0  0  0  0  0  0  0  0  0  0  0
    3.0344   -0.9730    0.6215 C   0  0  0  0  0  0  0  0  0  0  0  0
    7.4263   -2.1562    0.9813 H   0  0  0  0  0  0  0  0  0  0  0  0
    7.6405   -0.3863    0.8117 H   0  0  0  0  0  0  0  0  0  0  0  0
    7.5164   -1.3985   -0.6404 H   0  0  0  0  0  0  0  0  0  0  0  0
    3.6461    1.4268   -1.6752 H   0  0  0  0  0  0  0  0  0  0  0  0
    1.1701    1.5778   -1.5919 H   0  0  0  0  0  0  0  0  0  0  0  0
    0.5302    2.8133    0.5446 H   0  0  0  0  0  0  0  0  0  0  0  0
   -4.2818    5.6011    1.2471 H   0  0  0  0  0  0  0  0  0  0  0  0
   -4.9399    3.1245    0.6914 H   0  0  0  0  0  0  0  0  0  0  0  0
    0.1571   -2.6626   -0.7339 H   0  0  0  0  0  0  0  0  0  0  0  0
   -4.9859   -4.8773   -0.9930 H   0  0  0  0  0  0  0  0  0  0  0  0
   -5.3039   -2.3441   -0.3948 H   0  0  0  0  0  0  0  0  0  0  0  0
    1.1001   -1.5223    1.3458 H   0  0  0  0  0  0  0  0  0  0  0  0
    3.5615   -1.6838    1.2380 H   0  0  0  0  0  0  0  0  0  0  0  0
  1  2  1  0  0  0  0
  2  3  1  0  0  0  0
  3  4  2  0  0  0  0
  3  5  1  0  0  0  0
  5  6  2  0  0  0  0
  6  7  1  0  0  0  0
  7  8  2  0  0  0  0
  8  9  1  0  0  0  0
  9 10  2  0  0  0  0
 10 11  1  0  0  0  0
 11 12  2  0  0  0  0
 12 13  1  0  0  0  0
 13 14  1  0  0  0  0
 14 15  2  0  0  0  0
 15 16  1  0  0  0  0
 16 17  2  0  0  0  0
 17 18  1  0  0  0  0
 18 19  1  0  0  0  0
 18 20  1  0  0  0  0
 18 21  1  0  0  0  0
 21 22  1  0  0  0  0
 22 23  2  0  0  0  0
 23 24  1  0  0  0  0
 24 25  1  0  0  0  0
 25 26  1  0  0  0  0
 26 27  2  0  0  0  0
 27 28  1  0  0  0  0
  8 29  1  0  0  0  0
 29 30  2  0  0  0  0
 30  5  1  0  0  0  0
 22  9  1  0  0  0  0
 28 24  2  0  0  0  0
 17 10  1  0  0  0  0
 28 21  1  0  0  0  0
 16 12  1  0  0  0  0
  1 31  1  0  0  0  0
  1 32  1  0  0  0  0
  1 33  1  0  0  0  0
  6 34  1  0  0  0  0
  7 35  1  0  0  0  0
 11 36  1  0  0  0  0
 14 37  1  0  0  0  0
 15 38  1  0  0  0  0
 23 39  1  0  0  0  0
 26 40  1  0  0  0  0
 27 41  1  0  0  0  0
 29 42  1  0  0  0  0
 30 43  1  0  0  0  0
M  CHG  1  17   1
M  CHG  1  18  -1
M  END
