
  xtb     03022215063D
 energy: -39.216049427797 gnorm: 0.000206809154 xtb: 6.4.1 (afa7bdf)
 26 27  0     0  0            999 V2000
    0.6409    0.0836    0.1160 C   0  0  0  0  0  0  0  0  0  0  0  0
   -0.6399   -0.0995   -0.2676 C   0  0  0  0  0  0  0  0  0  0  0  0
   -1.7919   -0.2620   -0.6133 C   0  0  0  0  0  0  0  0  0  0  0  0
   -3.1272   -0.4519   -1.0145 C   0  0  0  0  0  0  0  0  0  0  0  0
   -3.8971   -1.4675   -0.4415 C   0  0  0  0  0  0  0  0  0  0  0  0
   -5.2068   -1.6483   -0.8394 C   0  0  0  0  0  0  0  0  0  0  0  0
   -5.7636   -0.8271   -1.8075 C   0  0  0  0  0  0  0  0  0  0  0  0
   -5.0040    0.1816   -2.3795 C   0  0  0  0  0  0  0  0  0  0  0  0
   -3.6936    0.3737   -1.9892 C   0  0  0  0  0  0  0  0  0  0  0  0
    1.7926    0.2501    0.4609 C   0  0  0  0  0  0  0  0  0  0  0  0
    3.1276    0.4461    0.8600 C   0  0  0  0  0  0  0  0  0  0  0  0
    3.9130   -0.6409    1.2523 C   0  0  0  0  0  0  0  0  0  0  0  0
    5.2222   -0.4409    1.6428 C   0  0  0  0  0  0  0  0  0  0  0  0
    5.7631    0.8354    1.6493 C   0  0  0  0  0  0  0  0  0  0  0  0
    4.9881    1.9174    1.2615 C   0  0  0  0  0  0  0  0  0  0  0  0
    3.6781    1.7305    0.8675 C   0  0  0  0  0  0  0  0  0  0  0  0
   -3.4580   -2.1045    0.3126 H   0  0  0  0  0  0  0  0  0  0  0  0
   -5.7987   -2.4343   -0.3931 H   0  0  0  0  0  0  0  0  0  0  0  0
   -6.7883   -0.9730   -2.1159 H   0  0  0  0  0  0  0  0  0  0  0  0
   -5.4376    0.8217   -3.1342 H   0  0  0  0  0  0  0  0  0  0  0  0
   -3.0969    1.1583   -2.4317 H   0  0  0  0  0  0  0  0  0  0  0  0
    3.4863   -1.6335    1.2454 H   0  0  0  0  0  0  0  0  0  0  0  0
    5.8261   -1.2844    1.9446 H   0  0  0  0  0  0  0  0  0  0  0  0
    6.7874    0.9868    1.9562 H   0  0  0  0  0  0  0  0  0  0  0  0
    5.4093    2.9124    1.2666 H   0  0  0  0  0  0  0  0  0  0  0  0
    3.0693    2.5701    0.5644 H   0  0  0  0  0  0  0  0  0  0  0  0
  1  2  1  0  0  0  0
  2  3  3  0  0  0  0
  3  4  1  0  0  0  0
  4  5  2  0  0  0  0
  5  6  1  0  0  0  0
  6  7  2  0  0  0  0
  7  8  1  0  0  0  0
  8  9  2  0  0  0  0
  1 10  3  0  0  0  0
 10 11  1  0  0  0  0
 11 12  2  0  0  0  0
 12 13  1  0  0  0  0
 13 14  2  0  0  0  0
 14 15  1  0  0  0  0
 15 16  2  0  0  0  0
  9  4  1  0  0  0  0
 16 11  1  0  0  0  0
  5 17  1  0  0  0  0
  6 18  1  0  0  0  0
  7 19  1  0  0  0  0
  8 20  1  0  0  0  0
  9 21  1  0  0  0  0
 12 22  1  0  0  0  0
 13 23  1  0  0  0  0
 14 24  1  0  0  0  0
 15 25  1  0  0  0  0
 16 26  1  0  0  0  0
M  END
