
  xtb     03022214513D
 energy: -16.697646903930 gnorm: 0.000046398588 xtb: 6.4.1 (afa7bdf)
  9  9  0     0  0            999 V2000
    1.1473   -0.5638   -0.6097 C   0  0  0  0  0  0  0  0  0  0  0  0
    0.0780   -1.3398   -0.6610 N   0  0  0  0  0  0  0  0  0  0  0  0
   -1.0733   -0.7072   -0.5106 C   0  0  0  0  0  0  0  0  0  0  0  0
   -1.2095    0.5943   -0.3209 N   0  0  0  0  0  0  0  0  0  0  0  0
   -0.0739    1.2709   -0.2871 C   0  0  0  0  0  0  0  0  0  0  0  0
    1.1315    0.7455   -0.4254 N   0  0  0  0  0  0  0  0  0  0  0  0
    2.1135   -1.0385   -0.7280 H   0  0  0  0  0  0  0  0  0  0  0  0
   -1.9772   -1.3027   -0.5455 H   0  0  0  0  0  0  0  0  0  0  0  0
   -0.1363    2.3412   -0.1338 H   0  0  0  0  0  0  0  0  0  0  0  0
  1  2  2  0  0  0  0
  2  3  1  0  0  0  0
  3  4  2  0  0  0  0
  4  5  1  0  0  0  0
  5  6  2  0  0  0  0
  6  1  1  0  0  0  0
  1  7  1  0  0  0  0
  3  8  1  0  0  0  0
  5  9  1  0  0  0  0
M  END
