
  xtb     03022214013D
 energy: -155.981230967803 gnorm: 0.000172752368 xtb: 6.4.1 (afa7bdf)
102110  0     0  0            999 V2000
   14.7291    0.2933   -2.2824 C   0  0  0  0  0  0  0  0  0  0  0  0
   14.3978   -0.5596   -1.0561 C   0  0  0  0  0  0  0  0  0  0  0  0
   13.4851    0.1027   -0.1507 N   0  0  0  0  0  0  0  0  0  0  0  0
   14.0978    0.8925    0.8950 C   0  0  0  0  0  0  0  0  0  0  0  0
   14.3424    0.0869    2.1720 C   0  0  0  0  0  0  0  0  0  0  0  0
   12.1317   -0.0137   -0.2652 C   0  0  0  0  0  0  0  0  0  0  0  0
   11.5385   -0.6329   -1.3907 C   0  0  0  0  0  0  0  0  0  0  0  0
   10.1801   -0.7488   -1.5118 C   0  0  0  0  0  0  0  0  0  0  0  0
    9.3150   -0.2507   -0.5288 C   0  0  0  0  0  0  0  0  0  0  0  0
    7.8988   -0.3272   -0.5809 C   0  0  0  0  0  0  0  0  0  0  0  0
    7.1270    0.1750    0.4206 C   0  0  0  0  0  0  0  0  0  0  0  0
    5.6621    0.1187    0.3703 C   0  0  0  0  0  0  0  0  0  0  0  0
    4.9054   -0.1501    1.5094 C   0  0  0  0  0  0  0  0  0  0  0  0
    3.5279   -0.2140    1.4372 C   0  0  0  0  0  0  0  0  0  0  0  0
    2.8661   -0.0027    0.2312 C   0  0  0  0  0  0  0  0  0  0  0  0
    1.3920   -0.0609    0.1548 C   0  0  0  0  0  0  0  0  0  0  0  0
    0.7306   -1.2867    0.3162 C   0  0  0  0  0  0  0  0  0  0  0  0
    1.4429   -2.4959    0.5319 C   0  0  0  0  0  0  0  0  0  0  0  0
    0.7908   -3.6764    0.7121 C   0  0  0  0  0  0  0  0  0  0  0  0
   -0.6175   -3.7206    0.6929 C   0  0  0  0  0  0  0  0  0  0  0  0
   -1.3374   -2.5884    0.4656 C   0  0  0  0  0  0  0  0  0  0  0  0
   -0.6965   -1.3402    0.2473 C   0  0  0  0  0  0  0  0  0  0  0  0
   -1.4265   -0.1715   -0.0146 C   0  0  0  0  0  0  0  0  0  0  0  0
   -2.8992   -0.2291   -0.1084 C   0  0  0  0  0  0  0  0  0  0  0  0
   -3.6957    0.3958    0.8474 C   0  0  0  0  0  0  0  0  0  0  0  0
   -5.0717    0.3440    0.7571 C   0  0  0  0  0  0  0  0  0  0  0  0
   -5.6932   -0.3337   -0.2916 C   0  0  0  0  0  0  0  0  0  0  0  0
   -7.1567   -0.3631   -0.3848 C   0  0  0  0  0  0  0  0  0  0  0  0
   -7.9170    0.7268   -0.0946 C   0  0  0  0  0  0  0  0  0  0  0  0
   -9.3327    0.6821   -0.1887 C   0  0  0  0  0  0  0  0  0  0  0  0
  -10.1878    1.7583    0.0813 C   0  0  0  0  0  0  0  0  0  0  0  0
  -11.5460    1.6363   -0.0348 C   0  0  0  0  0  0  0  0  0  0  0  0
  -12.1511    0.4223   -0.4382 C   0  0  0  0  0  0  0  0  0  0  0  0
  -13.5059    0.3209   -0.5858 N   0  0  0  0  0  0  0  0  0  0  0  0
  -14.3953    1.3299   -0.0500 C   0  0  0  0  0  0  0  0  0  0  0  0
  -14.4414    1.3466    1.4792 C   0  0  0  0  0  0  0  0  0  0  0  0
  -14.1136   -0.8854   -1.1030 C   0  0  0  0  0  0  0  0  0  0  0  0
  -14.3654   -1.9553   -0.0388 C   0  0  0  0  0  0  0  0  0  0  0  0
  -11.2989   -0.6560   -0.7070 C   0  0  0  0  0  0  0  0  0  0  0  0
   -9.9258   -0.5260   -0.5889 C   0  0  0  0  0  0  0  0  0  0  0  0
   -9.1701   -1.6143   -0.8678 O   0  0  0  0  0  0  0  0  0  0  0  0
   -7.8028   -1.6109   -0.7904 C   0  0  0  0  0  0  0  0  0  0  0  0
   -7.2383   -2.6471   -1.0494 O   0  0  0  0  0  0  0  0  0  0  0  0
   -4.8952   -0.9631   -1.2451 C   0  0  0  0  0  0  0  0  0  0  0  0
   -3.5188   -0.9095   -1.1529 C   0  0  0  0  0  0  0  0  0  0  0  0
   -0.7637    1.0521   -0.1900 C   0  0  0  0  0  0  0  0  0  0  0  0
   -1.4677    2.2478   -0.4917 C   0  0  0  0  0  0  0  0  0  0  0  0
   -0.8169    3.4343   -0.6329 C   0  0  0  0  0  0  0  0  0  0  0  0
    0.5819    3.5013   -0.4758 C   0  0  0  0  0  0  0  0  0  0  0  0
    1.2973    2.3739   -0.2140 C   0  0  0  0  0  0  0  0  0  0  0  0
    0.6609    1.1111   -0.0856 C   0  0  0  0  0  0  0  0  0  0  0  0
    3.6205    0.2720   -0.9061 C   0  0  0  0  0  0  0  0  0  0  0  0
    4.9975    0.3279   -0.8383 C   0  0  0  0  0  0  0  0  0  0  0  0
    7.7622    0.8066    1.5768 C   0  0  0  0  0  0  0  0  0  0  0  0
    7.1881    1.2973    2.5197 O   0  0  0  0  0  0  0  0  0  0  0  0
    9.1305    0.8647    1.5884 O   0  0  0  0  0  0  0  0  0  0  0  0
    9.8976    0.3661    0.5904 C   0  0  0  0  0  0  0  0  0  0  0  0
   11.2704    0.4782    0.7235 C   0  0  0  0  0  0  0  0  0  0  0  0
   15.4196   -0.2385   -2.9316 H   0  0  0  0  0  0  0  0  0  0  0  0
   13.8278    0.5259   -2.8431 H   0  0  0  0  0  0  0  0  0  0  0  0
   15.1906    1.2300   -1.9790 H   0  0  0  0  0  0  0  0  0  0  0  0
   15.3190   -0.7732   -0.5070 H   0  0  0  0  0  0  0  0  0  0  0  0
   13.9778   -1.5193   -1.3657 H   0  0  0  0  0  0  0  0  0  0  0  0
   13.4707    1.7602    1.1109 H   0  0  0  0  0  0  0  0  0  0  0  0
   15.0524    1.2679    0.5162 H   0  0  0  0  0  0  0  0  0  0  0  0
   14.9997   -0.7557    1.9698 H   0  0  0  0  0  0  0  0  0  0  0  0
   14.8078    0.7161    2.9258 H   0  0  0  0  0  0  0  0  0  0  0  0
   13.4067   -0.2993    2.5668 H   0  0  0  0  0  0  0  0  0  0  0  0
   12.1542   -1.0167   -2.1865 H   0  0  0  0  0  0  0  0  0  0  0  0
    9.7558   -1.2243   -2.3840 H   0  0  0  0  0  0  0  0  0  0  0  0
    7.4409   -0.8150   -1.4306 H   0  0  0  0  0  0  0  0  0  0  0  0
    5.4011   -0.3102    2.4531 H   0  0  0  0  0  0  0  0  0  0  0  0
    2.9505   -0.4220    2.3265 H   0  0  0  0  0  0  0  0  0  0  0  0
    2.5222   -2.4613    0.5494 H   0  0  0  0  0  0  0  0  0  0  0  0
    1.3471   -4.5880    0.8756 H   0  0  0  0  0  0  0  0  0  0  0  0
   -1.1204   -4.6624    0.8568 H   0  0  0  0  0  0  0  0  0  0  0  0
   -2.4163   -2.6249    0.4502 H   0  0  0  0  0  0  0  0  0  0  0  0
   -3.2258    0.9138    1.6715 H   0  0  0  0  0  0  0  0  0  0  0  0
   -5.6747    0.8142    1.5209 H   0  0  0  0  0  0  0  0  0  0  0  0
   -7.4487    1.6585    0.1920 H   0  0  0  0  0  0  0  0  0  0  0  0
   -9.7561    2.7004    0.3864 H   0  0  0  0  0  0  0  0  0  0  0  0
  -12.1514    2.5013    0.1762 H   0  0  0  0  0  0  0  0  0  0  0  0
  -15.3971    1.1278   -0.4346 H   0  0  0  0  0  0  0  0  0  0  0  0
  -14.1012    2.3165   -0.4228 H   0  0  0  0  0  0  0  0  0  0  0  0
  -14.8173    0.4017    1.8618 H   0  0  0  0  0  0  0  0  0  0  0  0
  -15.0976    2.1437    1.8192 H   0  0  0  0  0  0  0  0  0  0  0  0
  -13.4496    1.5095    1.8922 H   0  0  0  0  0  0  0  0  0  0  0  0
  -15.0650   -0.6092   -1.5672 H   0  0  0  0  0  0  0  0  0  0  0  0
  -13.4763   -1.2883   -1.8933 H   0  0  0  0  0  0  0  0  0  0  0  0
  -15.1101   -1.6176    0.6773 H   0  0  0  0  0  0  0  0  0  0  0  0
  -14.7305   -2.8645   -0.5093 H   0  0  0  0  0  0  0  0  0  0  0  0
  -13.4488   -2.1835    0.4983 H   0  0  0  0  0  0  0  0  0  0  0  0
  -11.6667   -1.6224   -1.0038 H   0  0  0  0  0  0  0  0  0  0  0  0
   -5.3583   -1.4929   -2.0619 H   0  0  0  0  0  0  0  0  0  0  0  0
   -2.9092   -1.3932   -1.9026 H   0  0  0  0  0  0  0  0  0  0  0  0
   -2.5398    2.1979   -0.6118 H   0  0  0  0  0  0  0  0  0  0  0  0
   -1.3675    4.3352   -0.8626 H   0  0  0  0  0  0  0  0  0  0  0  0
    1.0804    4.4551   -0.5689 H   0  0  0  0  0  0  0  0  0  0  0  0
    2.3691    2.4253   -0.0936 H   0  0  0  0  0  0  0  0  0  0  0  0
    3.1167    0.4408   -1.8475 H   0  0  0  0  0  0  0  0  0  0  0  0
    5.5659    0.5613   -1.7273 H   0  0  0  0  0  0  0  0  0  0  0  0
   11.6335    0.9478    1.6208 H   0  0  0  0  0  0  0  0  0  0  0  0
  1  2  1  0  0  0  0
  2  3  1  0  0  0  0
  3  4  1  0  0  0  0
  4  5  1  0  0  0  0
  3  6  1  0  0  0  0
  6  7  2  0  0  0  0
  7  8  1  0  0  0  0
  8  9  2  0  0  0  0
  9 10  1  0  0  0  0
 10 11  2  0  0  0  0
 11 12  1  0  0  0  0
 12 13  2  0  0  0  0
 13 14  1  0  0  0  0
 14 15  2  0  0  0  0
 15 16  1  0  0  0  0
 16 17  1  0  0  0  0
 17 18  2  0  0  0  0
 18 19  1  0  0  0  0
 19 20  2  0  0  0  0
 20 21  1  0  0  0  0
 21 22  2  0  0  0  0
 22 23  1  0  0  0  0
 23 24  1  0  0  0  0
 24 25  2  0  0  0  0
 25 26  1  0  0  0  0
 26 27  2  0  0  0  0
 27 28  1  0  0  0  0
 28 29  2  0  0  0  0
 29 30  1  0  0  0  0
 30 31  2  0  0  0  0
 31 32  1  0  0  0  0
 32 33  2  0  0  0  0
 33 34  1  0  0  0  0
 34 35  1  0  0  0  0
 35 36  1  0  0  0  0
 34 37  1  0  0  0  0
 37 38  1  0  0  0  0
 33 39  1  0  0  0  0
 39 40  2  0  0  0  0
 40 41  1  0  0  0  0
 41 42  1  0  0  0  0
 42 43  2  0  0  0  0
 27 44  1  0  0  0  0
 44 45  2  0  0  0  0
 23 46  2  0  0  0  0
 46 47  1  0  0  0  0
 47 48  2  0  0  0  0
 48 49  1  0  0  0  0
 49 50  2  0  0  0  0
 50 51  1  0  0  0  0
 15 52  1  0  0  0  0
 52 53  2  0  0  0  0
 11 54  1  0  0  0  0
 54 55  2  0  0  0  0
 54 56  1  0  0  0  0
 56 57  1  0  0  0  0
 57 58  2  0  0  0  0
 58  6  1  0  0  0  0
 57  9  1  0  0  0  0
 53 12  1  0  0  0  0
 51 16  2  0  0  0  0
 22 17  1  0  0  0  0
 45 24  1  0  0  0  0
 51 46  1  0  0  0  0
 42 28  1  0  0  0  0
 40 30  1  0  0  0  0
  1 59  1  0  0  0  0
  1 60  1  0  0  0  0
  1 61  1  0  0  0  0
  2 62  1  0  0  0  0
  2 63  1  0  0  0  0
  4 64  1  0  0  0  0
  4 65  1  0  0  0  0
  5 66  1  0  0  0  0
  5 67  1  0  0  0  0
  5 68  1  0  0  0  0
  7 69  1  0  0  0  0
  8 70  1  0  0  0  0
 10 71  1  0  0  0  0
 13 72  1  0  0  0  0
 14 73  1  0  0  0  0
 18 74  1  0  0  0  0
 19 75  1  0  0  0  0
 20 76  1  0  0  0  0
 21 77  1  0  0  0  0
 25 78  1  0  0  0  0
 26 79  1  0  0  0  0
 29 80  1  0  0  0  0
 31 81  1  0  0  0  0
 32 82  1  0  0  0  0
 35 83  1  0  0  0  0
 35 84  1  0  0  0  0
 36 85  1  0  0  0  0
 36 86  1  0  0  0  0
 36 87  1  0  0  0  0
 37 88  1  0  0  0  0
 37 89  1  0  0  0  0
 38 90  1  0  0  0  0
 38 91  1  0  0  0  0
 38 92  1  0  0  0  0
 39 93  1  0  0  0  0
 44 94  1  0  0  0  0
 45 95  1  0  0  0  0
 47 96  1  0  0  0  0
 48 97  1  0  0  0  0
 49 98  1  0  0  0  0
 50 99  1  0  0  0  0
 52100  1  0  0  0  0
 53101  1  0  0  0  0
 58102  1  0  0  0  0
M  END
