
  xtb     03022214343D
 energy: -49.050285842896 gnorm: 0.000171304069 xtb: 6.4.1 (afa7bdf)
 30 32  0     0  0            999 V2000
   -2.7323   -1.9402    0.1435 C   0  0  0  0  0  0  0  0  0  0  0  0
   -2.0376   -0.6367   -0.0193 C   0  0  0  0  0  0  0  0  0  0  0  0
   -2.6655    0.5698   -0.2459 C   0  0  0  0  0  0  0  0  0  0  0  0
   -1.6799    1.5630   -0.3451 C   0  0  0  0  0  0  0  0  0  0  0  0
   -1.8597    3.0103   -0.5824 C   0  0  0  0  0  0  0  0  0  0  0  0
   -0.4793    1.0032   -0.1875 N   0  0  0  0  0  4  0  0  0  0  0  0
   -0.6351   -0.3583    0.0188 C   0  0  0  0  0  0  0  0  0  0  0  0
    0.4668   -1.1858    0.2164 C   0  0  0  0  0  0  0  0  0  0  0  0
    0.2948   -2.6511    0.4430 C   0  0  0  0  0  0  0  0  0  0  0  0
    1.7582   -0.6371    0.2041 C   0  0  0  0  0  0  0  0  0  0  0  0
    3.0225   -1.2435    0.3751 C   0  0  0  0  0  0  0  0  0  0  0  0
    3.9706   -0.2459    0.2704 C   0  0  0  0  0  0  0  0  0  0  0  0
    3.2799    0.9430    0.0390 C   0  0  0  0  0  0  0  0  0  0  0  0
    1.9708    0.7074    0.0006 N   0  0  0  0  0  0  0  0  0  0  0  0
    0.8696    1.7536   -0.2309 B   0  0  0  0  0  4  0  0  0  0  0  0
    1.0378    2.3559   -1.4642 F   0  0  0  0  0  0  0  0  0  0  0  0
    0.9107    2.7146    0.7627 F   0  0  0  0  0  0  0  0  0  0  0  0
   -2.5231   -2.3797    1.1179 H   0  0  0  0  0  0  0  0  0  0  0  0
   -2.4207   -2.6507   -0.6210 H   0  0  0  0  0  0  0  0  0  0  0  0
   -3.8058   -1.7907    0.0569 H   0  0  0  0  0  0  0  0  0  0  0  0
   -3.7218    0.7350   -0.3335 H   0  0  0  0  0  0  0  0  0  0  0  0
   -2.9129    3.2566   -0.6821 H   0  0  0  0  0  0  0  0  0  0  0  0
   -1.3234    3.3042   -1.4837 H   0  0  0  0  0  0  0  0  0  0  0  0
   -1.4236    3.5742    0.2412 H   0  0  0  0  0  0  0  0  0  0  0  0
   -0.2133   -3.1070   -0.4044 H   0  0  0  0  0  0  0  0  0  0  0  0
   -0.3114   -2.8265    1.3297 H   0  0  0  0  0  0  0  0  0  0  0  0
    1.2529   -3.1400    0.5765 H   0  0  0  0  0  0  0  0  0  0  0  0
    3.2155   -2.2831    0.5531 H   0  0  0  0  0  0  0  0  0  0  0  0
    5.0345   -0.3511    0.3493 H   0  0  0  0  0  0  0  0  0  0  0  0
    3.6612    1.9363   -0.0982 H   0  0  0  0  0  0  0  0  0  0  0  0
  1  2  1  0  0  0  0
  2  3  2  0  0  0  0
  3  4  1  0  0  0  0
  4  5  1  0  0  0  0
  4  6  2  0  0  0  0
  6  7  1  0  0  0  0
  7  8  2  0  0  0  0
  8  9  1  0  0  0  0
  8 10  1  0  0  0  0
 10 11  2  0  0  0  0
 11 12  1  0  0  0  0
 12 13  2  0  0  0  0
 13 14  1  0  0  0  0
 14 15  1  0  0  0  0
 15 16  1  0  0  0  0
 15 17  1  0  0  0  0
  7  2  1  0  0  0  0
 14 10  1  0  0  0  0
 15  6  1  0  0  0  0
  1 18  1  0  0  0  0
  1 19  1  0  0  0  0
  1 20  1  0  0  0  0
  3 21  1  0  0  0  0
  5 22  1  0  0  0  0
  5 23  1  0  0  0  0
  5 24  1  0  0  0  0
  9 25  1  0  0  0  0
  9 26  1  0  0  0  0
  9 27  1  0  0  0  0
 11 28  1  0  0  0  0
 12 29  1  0  0  0  0
 13 30  1  0  0  0  0
M  CHG  1   6   1
M  CHG  1  15  -1
M  END
