
  xtb     03022215573D
 energy: -45.880081019701 gnorm: 0.000288261927 xtb: 6.4.1 (afa7bdf)
 27 29  0     0  0            999 V2000
   -2.3431   -2.4586    0.8563 C   0  0  0  0  0  0  0  0  0  0  0  0
   -1.8976   -1.1180    0.3987 C   0  0  0  0  0  0  0  0  0  0  0  0
   -2.6735   -0.0418    0.0341 C   0  0  0  0  0  0  0  0  0  0  0  0
   -1.8110    1.0115   -0.3325 C   0  0  0  0  0  0  0  0  0  0  0  0
   -2.1700    2.3657   -0.7992 C   0  0  0  0  0  0  0  0  0  0  0  0
   -0.5467    0.6106   -0.2025 N   0  0  0  0  0  4  0  0  0  0  0  0
   -0.5411   -0.6984    0.2463 C   0  0  0  0  0  0  0  0  0  0  0  0
    0.6382   -1.3750    0.4712 C   0  0  0  0  0  0  0  0  0  0  0  0
    1.8677   -0.7625    0.2519 C   0  0  0  0  0  0  0  0  0  0  0  0
    3.1840   -1.2468    0.4103 C   0  0  0  0  0  0  0  0  0  0  0  0
    4.0334   -0.2209    0.0513 C   0  0  0  0  0  0  0  0  0  0  0  0
    3.2289    0.8614   -0.3166 C   0  0  0  0  0  0  0  0  0  0  0  0
    1.9442    0.5373   -0.1966 N   0  0  0  0  0  0  0  0  0  0  0  0
    0.7288    1.4399   -0.4980 B   0  0  0  0  0  4  0  0  0  0  0  0
    0.7412    1.8244   -1.8247 F   0  0  0  0  0  0  0  0  0  0  0  0
    0.7595    2.5597    0.3107 F   0  0  0  0  0  0  0  0  0  0  0  0
   -2.0200   -3.2269    0.1540 H   0  0  0  0  0  0  0  0  0  0  0  0
   -3.4265   -2.4900    0.9331 H   0  0  0  0  0  0  0  0  0  0  0  0
   -1.9138   -2.6936    1.8293 H   0  0  0  0  0  0  0  0  0  0  0  0
   -3.7450    0.0079    0.0243 H   0  0  0  0  0  0  0  0  0  0  0  0
   -1.7901    2.5162   -1.8098 H   0  0  0  0  0  0  0  0  0  0  0  0
   -3.2464    2.5088   -0.7852 H   0  0  0  0  0  0  0  0  0  0  0  0
   -1.6862    3.1109   -0.1695 H   0  0  0  0  0  0  0  0  0  0  0  0
    0.6122   -2.3955    0.8218 H   0  0  0  0  0  0  0  0  0  0  0  0
    3.4476   -2.2301    0.7477 H   0  0  0  0  0  0  0  0  0  0  0  0
    5.1054   -0.2336    0.0488 H   0  0  0  0  0  0  0  0  0  0  0  0
    3.5196    1.8373   -0.6548 H   0  0  0  0  0  0  0  0  0  0  0  0
  1  2  1  0  0  0  0
  2  3  2  0  0  0  0
  3  4  1  0  0  0  0
  4  5  1  0  0  0  0
  4  6  2  0  0  0  0
  6  7  1  0  0  0  0
  7  8  2  0  0  0  0
  8  9  1  0  0  0  0
  9 10  2  0  0  0  0
 10 11  1  0  0  0  0
 11 12  2  0  0  0  0
 12 13  1  0  0  0  0
 13 14  1  0  0  0  0
 14 15  1  0  0  0  0
 14 16  1  0  0  0  0
  7  2  1  0  0  0  0
 13  9  1  0  0  0  0
 14  6  1  0  0  0  0
  1 17  1  0  0  0  0
  1 18  1  0  0  0  0
  1 19  1  0  0  0  0
  3 20  1  0  0  0  0
  5 21  1  0  0  0  0
  5 22  1  0  0  0  0
  5 23  1  0  0  0  0
  8 24  1  0  0  0  0
 10 25  1  0  0  0  0
 11 26  1  0  0  0  0
 12 27  1  0  0  0  0
M  CHG  1   6   1
M  CHG  1  14  -1
M  END
