
  xtb     03022213163D
 energy: -91.011792120529 gnorm: 0.000158946728 xtb: 6.4.1 (afa7bdf)
 52 58  0     0  0            999 V2000
   -3.1844    3.7462    3.3939 C   0  0  0  0  0  0  0  0  0  0  0  0
   -3.1528    2.3430    2.9007 C   0  0  0  0  0  0  0  0  0  0  0  0
   -3.7845    1.2538    3.4427 C   0  0  0  0  0  0  0  0  0  0  0  0
   -3.5658    0.0795    2.7189 C   0  0  0  0  0  0  0  0  0  0  0  0
   -2.7474    0.2573    1.6185 C   0  0  0  0  0  0  0  0  0  0  0  0
   -2.3658   -0.7544    0.6946 C   0  0  0  0  0  0  0  0  0  0  0  0
   -1.2106   -0.7982    0.0030 N   0  0  0  0  0  4  0  0  0  0  0  0
   -1.1520   -1.9545   -0.7500 C   0  0  0  0  0  0  0  0  0  0  0  0
   -0.1321   -2.3173   -1.4874 N   0  0  0  0  0  0  0  0  0  0  0  0
    0.9366   -1.5621   -1.5454 C   0  0  0  0  0  0  0  0  0  0  0  0
    2.1394   -1.8321   -2.2638 C   0  0  0  0  0  0  0  0  0  0  0  0
    2.5075   -2.8695   -3.1132 C   0  0  0  0  0  0  0  0  0  0  0  0
    3.7565   -2.8170   -3.6926 C   0  0  0  0  0  0  0  0  0  0  0  0
    4.6196   -1.7433   -3.4515 C   0  0  0  0  0  0  0  0  0  0  0  0
    4.2683   -0.7108   -2.6092 C   0  0  0  0  0  0  0  0  0  0  0  0
    3.0227   -0.7609   -1.9830 C   0  0  0  0  0  0  0  0  0  0  0  0
    2.3296    0.1276   -1.0927 C   0  0  0  0  0  0  0  0  0  0  0  0
    2.8691    1.3120   -0.5191 C   0  0  0  0  0  0  0  0  0  0  0  0
    4.2034    1.5357   -0.2341 C   0  0  0  0  0  0  0  0  0  0  0  0
    4.4495    2.7974    0.3128 C   0  0  0  0  0  0  0  0  0  0  0  0
    3.3159    3.5574    0.4388 C   0  0  0  0  0  0  0  0  0  0  0  0
    3.2126    4.9523    0.9450 C   0  0  0  0  0  0  0  0  0  0  0  0
    1.9183    2.7050   -0.0915 S   0  0  0  0  0  0  0  0  0  0  0  0
    1.0949   -0.3650   -0.8749 N   0  0  0  0  0  0  0  0  0  0  0  0
   -0.0512    0.2309   -0.0176 B   0  0  0  0  0  4  0  0  0  0  0  0
   -0.4973    1.4054   -0.6094 F   0  0  0  0  0  0  0  0  0  0  0  0
    0.3922    0.4754    1.2672 F   0  0  0  0  0  0  0  0  0  0  0  0
   -2.3650   -2.6784   -0.5489 C   0  0  0  0  0  0  0  0  0  0  0  0
   -2.8379   -3.8740   -1.0781 C   0  0  0  0  0  0  0  0  0  0  0  0
   -4.0961   -4.2927   -0.7036 C   0  0  0  0  0  0  0  0  0  0  0  0
   -4.8824   -3.5286    0.1645 C   0  0  0  0  0  0  0  0  0  0  0  0
   -4.4241   -2.3437    0.6984 C   0  0  0  0  0  0  0  0  0  0  0  0
   -3.1388   -1.9182    0.3620 C   0  0  0  0  0  0  0  0  0  0  0  0
   -2.2495    1.9201    1.4990 S   0  0  0  0  0  0  0  0  0  0  0  0
   -2.5472    4.3774    2.7808 H   0  0  0  0  0  0  0  0  0  0  0  0
   -4.2009    4.1391    3.3626 H   0  0  0  0  0  0  0  0  0  0  0  0
   -2.8395    3.7950    4.4265 H   0  0  0  0  0  0  0  0  0  0  0  0
   -4.3848    1.3020    4.3342 H   0  0  0  0  0  0  0  0  0  0  0  0
   -3.9403   -0.8819    3.0188 H   0  0  0  0  0  0  0  0  0  0  0  0
    1.8204   -3.6776   -3.3071 H   0  0  0  0  0  0  0  0  0  0  0  0
    4.0749   -3.6063   -4.3575 H   0  0  0  0  0  0  0  0  0  0  0  0
    5.5802   -1.7227   -3.9449 H   0  0  0  0  0  0  0  0  0  0  0  0
    4.9351    0.1237   -2.4601 H   0  0  0  0  0  0  0  0  0  0  0  0
    4.9617    0.7852   -0.3619 H   0  0  0  0  0  0  0  0  0  0  0  0
    5.4258    3.1390    0.6084 H   0  0  0  0  0  0  0  0  0  0  0  0
    3.8190    5.0787    1.8406 H   0  0  0  0  0  0  0  0  0  0  0  0
    2.1795    5.1968    1.1768 H   0  0  0  0  0  0  0  0  0  0  0  0
    3.5724    5.6571    0.1941 H   0  0  0  0  0  0  0  0  0  0  0  0
   -2.2280   -4.4385   -1.7651 H   0  0  0  0  0  0  0  0  0  0  0  0
   -4.4945   -5.2169   -1.0954 H   0  0  0  0  0  0  0  0  0  0  0  0
   -5.8747   -3.8748    0.4139 H   0  0  0  0  0  0  0  0  0  0  0  0
   -5.0576   -1.7533    1.3413 H   0  0  0  0  0  0  0  0  0  0  0  0
  1  2  1  0  0  0  0
  2  3  2  0  0  0  0
  3  4  1  0  0  0  0
  4  5  2  0  0  0  0
  5  6  1  0  0  0  0
  6  7  2  0  0  0  0
  7  8  1  0  0  0  0
  8  9  2  0  0  0  0
  9 10  1  0  0  0  0
 10 11  2  0  0  0  0
 11 12  1  0  0  0  0
 12 13  2  0  0  0  0
 13 14  1  0  0  0  0
 14 15  2  0  0  0  0
 15 16  1  0  0  0  0
 16 17  2  0  0  0  0
 17 18  1  0  0  0  0
 18 19  2  0  0  0  0
 19 20  1  0  0  0  0
 20 21  2  0  0  0  0
 21 22  1  0  0  0  0
 21 23  1  0  0  0  0
 17 24  1  0  0  0  0
 24 25  1  0  0  0  0
 25 26  1  0  0  0  0
 25 27  1  0  0  0  0
  8 28  1  0  0  0  0
 28 29  2  0  0  0  0
 29 30  1  0  0  0  0
 30 31  2  0  0  0  0
 31 32  1  0  0  0  0
 32 33  2  0  0  0  0
  5 34  1  0  0  0  0
 34  2  1  0  0  0  0
 33  6  1  0  0  0  0
 25  7  1  0  0  0  0
 33 28  1  0  0  0  0
 24 10  1  0  0  0  0
 16 11  1  0  0  0  0
 23 18  1  0  0  0  0
  1 35  1  0  0  0  0
  1 36  1  0  0  0  0
  1 37  1  0  0  0  0
  3 38  1  0  0  0  0
  4 39  1  0  0  0  0
 12 40  1  0  0  0  0
 13 41  1  0  0  0  0
 14 42  1  0  0  0  0
 15 43  1  0  0  0  0
 19 44  1  0  0  0  0
 20 45  1  0  0  0  0
 22 46  1  0  0  0  0
 22 47  1  0  0  0  0
 22 48  1  0  0  0  0
 29 49  1  0  0  0  0
 30 50  1  0  0  0  0
 31 51  1  0  0  0  0
 32 52  1  0  0  0  0
M  CHG  1   7   1
M  CHG  1  25  -1
M  END
