
  xtb     03022212013D
 energy: -131.466987613839 gnorm: 0.000171148829 xtb: 6.4.1 (afa7bdf)
 84 93  0     0  0            999 V2000
    5.5541    1.0220   -0.0726 C   0  0  0  0  0  0  0  0  0  0  0  0
    4.5575    0.1435    0.1527 C   0  0  0  0  0  0  0  0  0  0  0  0
    3.1668    0.4487    0.0687 C   0  0  0  0  0  0  0  0  0  0  0  0
    2.5236    1.6321   -0.2246 C   0  0  0  0  0  0  0  0  0  0  0  0
    1.1321    1.5330   -0.2074 C   0  0  0  0  0  0  0  0  0  0  0  0
    0.6734    0.2702    0.0989 C   0  0  0  0  0  0  0  0  0  0  0  0
   -0.6700   -0.1792    0.2000 C   0  0  0  0  0  0  0  0  0  0  0  0
   -1.1242   -1.4470    0.4923 C   0  0  0  0  0  0  0  0  0  0  0  0
   -2.5151   -1.5509    0.5105 C   0  0  0  0  0  0  0  0  0  0  0  0
   -3.1628   -0.3659    0.2339 C   0  0  0  0  0  0  0  0  0  0  0  0
   -4.5558   -0.0680    0.1593 C   0  0  0  0  0  0  0  0  0  0  0  0
   -5.5427   -0.9682    0.3359 C   0  0  0  0  0  0  0  0  0  0  0  0
   -6.9625   -0.7137    0.2691 C   0  0  0  0  0  0  0  0  0  0  0  0
   -7.5128    0.5539    0.0469 C   0  0  0  0  0  0  0  0  0  0  0  0
   -8.8768    0.7383   -0.0101 C   0  0  0  0  0  0  0  0  0  0  0  0
   -9.7435   -0.3404    0.1585 C   0  0  0  0  0  0  0  0  0  0  0  0
  -11.1288   -0.1539    0.1030 N   0  0  0  0  0  0  0  0  0  0  0  0
  -11.8468    0.7971    0.8020 C   0  0  0  0  0  0  0  0  0  0  0  0
  -11.4069    1.7359    1.7242 C   0  0  0  0  0  0  0  0  0  0  0  0
  -12.3514    2.5582    2.3083 C   0  0  0  0  0  0  0  0  0  0  0  0
  -13.7044    2.4499    1.9948 C   0  0  0  0  0  0  0  0  0  0  0  0
  -14.1511    1.5012    1.0970 C   0  0  0  0  0  0  0  0  0  0  0  0
  -13.2208    0.6629    0.4970 C   0  0  0  0  0  0  0  0  0  0  0  0
  -13.3276   -0.4218   -0.4382 C   0  0  0  0  0  0  0  0  0  0  0  0
  -14.3961   -1.0059   -1.1054 C   0  0  0  0  0  0  0  0  0  0  0  0
  -14.1429   -2.0456   -1.9776 C   0  0  0  0  0  0  0  0  0  0  0  0
  -12.8425   -2.4926   -2.2005 C   0  0  0  0  0  0  0  0  0  0  0  0
  -11.7632   -1.9277   -1.5484 C   0  0  0  0  0  0  0  0  0  0  0  0
  -12.0142   -0.9000   -0.6506 C   0  0  0  0  0  0  0  0  0  0  0  0
   -9.2120   -1.6086    0.3841 C   0  0  0  0  0  0  0  0  0  0  0  0
   -7.8473   -1.7864    0.4355 C   0  0  0  0  0  0  0  0  0  0  0  0
   -2.0048    0.9058   -0.0555 S   0  0  0  0  0  0  0  0  0  0  0  0
    2.0042   -0.8153    0.3719 S   0  0  0  0  0  0  0  0  0  0  0  0
    6.9705    0.7511    0.0054 C   0  0  0  0  0  0  0  0  0  0  0  0
    7.8719    1.7849   -0.2773 C   0  0  0  0  0  0  0  0  0  0  0  0
    9.2340    1.5899   -0.2145 C   0  0  0  0  0  0  0  0  0  0  0  0
    9.7459    0.3409    0.1313 C   0  0  0  0  0  0  0  0  0  0  0  0
   11.1279    0.1347    0.1973 N   0  0  0  0  0  0  0  0  0  0  0  0
   12.0447    0.4811   -0.7764 C   0  0  0  0  0  0  0  0  0  0  0  0
   11.8352    1.0380   -2.0299 C   0  0  0  0  0  0  0  0  0  0  0  0
   12.9397    1.2602   -2.8299 C   0  0  0  0  0  0  0  0  0  0  0  0
   14.2246    0.9306   -2.4045 C   0  0  0  0  0  0  0  0  0  0  0  0
   14.4366    0.3520   -1.1692 C   0  0  0  0  0  0  0  0  0  0  0  0
   13.3421    0.1187   -0.3471 C   0  0  0  0  0  0  0  0  0  0  0  0
   13.1921   -0.4693    0.9545 C   0  0  0  0  0  0  0  0  0  0  0  0
   14.0907   -0.9902    1.8761 C   0  0  0  0  0  0  0  0  0  0  0  0
   13.6049   -1.4660    3.0775 C   0  0  0  0  0  0  0  0  0  0  0  0
   12.2442   -1.4125    3.3712 C   0  0  0  0  0  0  0  0  0  0  0  0
   11.3308   -0.8993    2.4704 C   0  0  0  0  0  0  0  0  0  0  0  0
   11.8100   -0.4431    1.2507 C   0  0  0  0  0  0  0  0  0  0  0  0
    8.8624   -0.7003    0.4117 C   0  0  0  0  0  0  0  0  0  0  0  0
    7.5014   -0.4966    0.3522 C   0  0  0  0  0  0  0  0  0  0  0  0
    5.2982    2.0383   -0.3415 H   0  0  0  0  0  0  0  0  0  0  0  0
    4.7822   -0.8801    0.4178 H   0  0  0  0  0  0  0  0  0  0  0  0
    3.0452    2.5457   -0.4446 H   0  0  0  0  0  0  0  0  0  0  0  0
    0.4650    2.3523   -0.4116 H   0  0  0  0  0  0  0  0  0  0  0  0
   -0.4541   -2.2667    0.6846 H   0  0  0  0  0  0  0  0  0  0  0  0
   -3.0329   -2.4685    0.7224 H   0  0  0  0  0  0  0  0  0  0  0  0
   -4.7901    0.9640   -0.0611 H   0  0  0  0  0  0  0  0  0  0  0  0
   -5.2744   -1.9953    0.5454 H   0  0  0  0  0  0  0  0  0  0  0  0
   -6.8659    1.4062   -0.0901 H   0  0  0  0  0  0  0  0  0  0  0  0
   -9.2846    1.7194   -0.2036 H   0  0  0  0  0  0  0  0  0  0  0  0
  -10.3632    1.8151    1.9887 H   0  0  0  0  0  0  0  0  0  0  0  0
  -12.0336    3.2988    3.0273 H   0  0  0  0  0  0  0  0  0  0  0  0
  -14.4111    3.1132    2.4711 H   0  0  0  0  0  0  0  0  0  0  0  0
  -15.2015    1.4053    0.8667 H   0  0  0  0  0  0  0  0  0  0  0  0
  -15.4019   -0.6475   -0.9455 H   0  0  0  0  0  0  0  0  0  0  0  0
  -14.9599   -2.5157   -2.5044 H   0  0  0  0  0  0  0  0  0  0  0  0
  -12.6733   -3.2965   -2.9018 H   0  0  0  0  0  0  0  0  0  0  0  0
  -10.7574   -2.2686   -1.7428 H   0  0  0  0  0  0  0  0  0  0  0  0
   -9.8781   -2.4450    0.5358 H   0  0  0  0  0  0  0  0  0  0  0  0
   -7.4485   -2.7746    0.6159 H   0  0  0  0  0  0  0  0  0  0  0  0
    7.4884    2.7601   -0.5419 H   0  0  0  0  0  0  0  0  0  0  0  0
    9.9124    2.4059   -0.4143 H   0  0  0  0  0  0  0  0  0  0  0  0
   10.8417    1.2791   -2.3769 H   0  0  0  0  0  0  0  0  0  0  0  0
   12.8029    1.6958   -3.8087 H   0  0  0  0  0  0  0  0  0  0  0  0
   15.0624    1.1233   -3.0581 H   0  0  0  0  0  0  0  0  0  0  0  0
   15.4302    0.0803   -0.8462 H   0  0  0  0  0  0  0  0  0  0  0  0
   15.1471   -1.0154    1.6550 H   0  0  0  0  0  0  0  0  0  0  0  0
   14.2864   -1.8773    3.8072 H   0  0  0  0  0  0  0  0  0  0  0  0
   11.8954   -1.7766    4.3264 H   0  0  0  0  0  0  0  0  0  0  0  0
   10.2808   -0.8446    2.7158 H   0  0  0  0  0  0  0  0  0  0  0  0
    9.2553   -1.6752    0.6599 H   0  0  0  0  0  0  0  0  0  0  0  0
    6.8420   -1.3219    0.5706 H   0  0  0  0  0  0  0  0  0  0  0  0
  1  2  2  0  0  0  0
  2  3  1  0  0  0  0
  3  4  2  0  0  0  0
  4  5  1  0  0  0  0
  5  6  2  0  0  0  0
  6  7  1  0  0  0  0
  7  8  2  0  0  0  0
  8  9  1  0  0  0  0
  9 10  2  0  0  0  0
 10 11  1  0  0  0  0
 11 12  2  0  0  0  0
 12 13  1  0  0  0  0
 13 14  2  0  0  0  0
 14 15  1  0  0  0  0
 15 16  2  0  0  0  0
 16 17  1  0  0  0  0
 17 18  1  0  0  0  0
 18 19  2  0  0  0  0
 19 20  1  0  0  0  0
 20 21  2  0  0  0  0
 21 22  1  0  0  0  0
 22 23  2  0  0  0  0
 23 24  1  0  0  0  0
 24 25  2  0  0  0  0
 25 26  1  0  0  0  0
 26 27  2  0  0  0  0
 27 28  1  0  0  0  0
 28 29  2  0  0  0  0
 16 30  1  0  0  0  0
 30 31  2  0  0  0  0
 10 32  1  0  0  0  0
  6 33  1  0  0  0  0
  1 34  1  0  0  0  0
 34 35  2  0  0  0  0
 35 36  1  0  0  0  0
 36 37  2  0  0  0  0
 37 38  1  0  0  0  0
 38 39  1  0  0  0  0
 39 40  2  0  0  0  0
 40 41  1  0  0  0  0
 41 42  2  0  0  0  0
 42 43  1  0  0  0  0
 43 44  2  0  0  0  0
 44 45  1  0  0  0  0
 45 46  2  0  0  0  0
 46 47  1  0  0  0  0
 47 48  2  0  0  0  0
 48 49  1  0  0  0  0
 49 50  2  0  0  0  0
 37 51  1  0  0  0  0
 51 52  2  0  0  0  0
 33  3  1  0  0  0  0
 52 34  1  0  0  0  0
 32  7  1  0  0  0  0
 50 38  1  0  0  0  0
 31 13  1  0  0  0  0
 44 39  1  0  0  0  0
 50 45  1  0  0  0  0
 29 17  1  0  0  0  0
 23 18  1  0  0  0  0
 29 24  1  0  0  0  0
  1 53  1  0  0  0  0
  2 54  1  0  0  0  0
  4 55  1  0  0  0  0
  5 56  1  0  0  0  0
  8 57  1  0  0  0  0
  9 58  1  0  0  0  0
 11 59  1  0  0  0  0
 12 60  1  0  0  0  0
 14 61  1  0  0  0  0
 15 62  1  0  0  0  0
 19 63  1  0  0  0  0
 20 64  1  0  0  0  0
 21 65  1  0  0  0  0
 22 66  1  0  0  0  0
 25 67  1  0  0  0  0
 26 68  1  0  0  0  0
 27 69  1  0  0  0  0
 28 70  1  0  0  0  0
 30 71  1  0  0  0  0
 31 72  1  0  0  0  0
 35 73  1  0  0  0  0
 36 74  1  0  0  0  0
 40 75  1  0  0  0  0
 41 76  1  0  0  0  0
 42 77  1  0  0  0  0
 43 78  1  0  0  0  0
 46 79  1  0  0  0  0
 47 80  1  0  0  0  0
 48 81  1  0  0  0  0
 49 82  1  0  0  0  0
 51 83  1  0  0  0  0
 52 84  1  0  0  0  0
M  END
