
  xtb     03022215593D
 energy: -87.027421981236 gnorm: 0.000197270878 xtb: 6.4.1 (afa7bdf)
 57 61  0     0  0            999 V2000
   -6.1363    1.4062    2.5119 C   0  0  0  0  0  0  0  0  0  0  0  0
   -6.1767    1.1902    1.0034 C   0  0  0  0  0  0  0  0  0  0  0  0
   -4.7893    1.2239    0.3624 C   0  0  0  0  0  0  0  0  0  0  0  0
   -3.9074    0.0509    0.8232 C   0  0  0  0  0  0  0  0  0  0  0  0
   -2.7722   -0.2266   -0.0340 N   0  0  0  0  0  0  0  0  0  0  0  0
   -2.9595   -1.0591   -1.1392 C   0  0  0  0  0  0  0  0  0  0  0  0
   -4.2397   -1.3391   -1.6245 C   0  0  0  0  0  0  0  0  0  0  0  0
   -4.4416   -2.1670   -2.7156 C   0  0  0  0  0  0  0  0  0  0  0  0
   -3.3699   -2.7332   -3.3774 C   0  0  0  0  0  0  0  0  0  0  0  0
   -2.0924   -2.4700   -2.9182 C   0  0  0  0  0  0  0  0  0  0  0  0
   -1.8905   -1.6614   -1.8123 C   0  0  0  0  0  0  0  0  0  0  0  0
   -0.2188   -1.4994   -1.2565 S   0  0  0  0  0  0  0  0  0  0  0  0
   -0.3498   -0.0140   -0.3090 C   0  0  0  0  0  0  0  0  0  0  0  0
    0.8332    0.6486   -0.0538 C   0  0  0  0  0  0  0  0  0  0  0  0
    0.8689    1.7855    0.7515 C   0  0  0  0  0  0  0  0  0  0  0  0
    2.1159    2.4723    1.0570 C   0  0  0  0  0  0  0  0  0  0  0  0
    3.2960    1.8818    1.2618 C   0  0  0  0  0  0  0  0  0  0  0  0
    3.5089    0.4384    1.3769 C   0  0  0  0  0  0  0  0  0  0  0  0
    2.7678   -0.3135    2.2274 C   0  0  0  0  0  0  0  0  0  0  0  0
    2.9873   -1.7315    2.4181 C   0  0  0  0  0  0  0  0  0  0  0  0
    2.3542   -2.4389    3.1633 O   0  0  0  0  0  0  0  0  0  0  0  0
    4.0072   -2.2993    1.7006 O   0  0  0  0  0  0  0  0  0  0  0  0
    4.7591   -1.5811    0.8375 C   0  0  0  0  0  0  0  0  0  0  0  0
    5.7594   -2.2569    0.1387 C   0  0  0  0  0  0  0  0  0  0  0  0
    6.5434   -1.5763   -0.7639 C   0  0  0  0  0  0  0  0  0  0  0  0
    6.3532   -0.2119   -1.0042 C   0  0  0  0  0  0  0  0  0  0  0  0
    7.2147    0.4965   -2.0042 C   0  0  0  0  0  0  0  0  0  0  0  0
    5.3657    0.4528   -0.3075 C   0  0  0  0  0  0  0  0  0  0  0  0
    4.5629   -0.2084    0.6287 C   0  0  0  0  0  0  0  0  0  0  0  0
   -0.3429    2.2563    1.2449 C   0  0  0  0  0  0  0  0  0  0  0  0
   -1.5277    1.5975    0.9806 C   0  0  0  0  0  0  0  0  0  0  0  0
   -1.5739    0.4360    0.2037 C   0  0  0  0  0  0  0  0  0  0  0  0
   -5.6108    0.5953    3.0095 H   0  0  0  0  0  0  0  0  0  0  0  0
   -5.6338    2.3415    2.7495 H   0  0  0  0  0  0  0  0  0  0  0  0
   -7.1461    1.4511    2.9127 H   0  0  0  0  0  0  0  0  0  0  0  0
   -6.6570    0.2325    0.7881 H   0  0  0  0  0  0  0  0  0  0  0  0
   -6.7873    1.9736    0.5489 H   0  0  0  0  0  0  0  0  0  0  0  0
   -4.8927    1.1891   -0.7236 H   0  0  0  0  0  0  0  0  0  0  0  0
   -4.3131    2.1759    0.6021 H   0  0  0  0  0  0  0  0  0  0  0  0
   -4.5121   -0.8595    0.8719 H   0  0  0  0  0  0  0  0  0  0  0  0
   -3.5247    0.2363    1.8295 H   0  0  0  0  0  0  0  0  0  0  0  0
   -5.1090   -0.9161   -1.1522 H   0  0  0  0  0  0  0  0  0  0  0  0
   -5.4510   -2.3606   -3.0463 H   0  0  0  0  0  0  0  0  0  0  0  0
   -3.5201   -3.3743   -4.2315 H   0  0  0  0  0  0  0  0  0  0  0  0
   -1.2304   -2.9080   -3.3980 H   0  0  0  0  0  0  0  0  0  0  0  0
    1.7406    0.2637   -0.4935 H   0  0  0  0  0  0  0  0  0  0  0  0
    2.0544    3.5526    1.1040 H   0  0  0  0  0  0  0  0  0  0  0  0
    4.1797    2.4896    1.4090 H   0  0  0  0  0  0  0  0  0  0  0  0
    1.9734    0.1192    2.8145 H   0  0  0  0  0  0  0  0  0  0  0  0
    5.8935   -3.3111    0.3208 H   0  0  0  0  0  0  0  0  0  0  0  0
    7.3162   -2.1035   -1.3034 H   0  0  0  0  0  0  0  0  0  0  0  0
    7.1244    0.0257   -2.9819 H   0  0  0  0  0  0  0  0  0  0  0  0
    8.2610    0.4437   -1.7059 H   0  0  0  0  0  0  0  0  0  0  0  0
    6.9310    1.5417   -2.0937 H   0  0  0  0  0  0  0  0  0  0  0  0
    5.1948    1.5038   -0.4875 H   0  0  0  0  0  0  0  0  0  0  0  0
   -0.3606    3.1413    1.8642 H   0  0  0  0  0  0  0  0  0  0  0  0
   -2.4300    2.0080    1.3987 H   0  0  0  0  0  0  0  0  0  0  0  0
  1  2  1  0  0  0  0
  2  3  1  0  0  0  0
  3  4  1  0  0  0  0
  4  5  1  0  0  0  0
  5  6  1  0  0  0  0
  6  7  2  0  0  0  0
  7  8  1  0  0  0  0
  8  9  2  0  0  0  0
  9 10  1  0  0  0  0
 10 11  2  0  0  0  0
 11 12  1  0  0  0  0
 12 13  1  0  0  0  0
 13 14  2  0  0  0  0
 14 15  1  0  0  0  0
 15 16  1  0  0  0  0
 16 17  2  0  0  0  0
 17 18  1  0  0  0  0
 18 19  2  0  0  0  0
 19 20  1  0  0  0  0
 20 21  2  0  0  0  0
 20 22  1  0  0  0  0
 22 23  1  0  0  0  0
 23 24  2  0  0  0  0
 24 25  1  0  0  0  0
 25 26  2  0  0  0  0
 26 27  1  0  0  0  0
 26 28  1  0  0  0  0
 28 29  2  0  0  0  0
 15 30  2  0  0  0  0
 30 31  1  0  0  0  0
 31 32  2  0  0  0  0
 32  5  1  0  0  0  0
 11  6  1  0  0  0  0
 32 13  1  0  0  0  0
 29 18  1  0  0  0  0
 29 23  1  0  0  0  0
  1 33  1  0  0  0  0
  1 34  1  0  0  0  0
  1 35  1  0  0  0  0
  2 36  1  0  0  0  0
  2 37  1  0  0  0  0
  3 38  1  0  0  0  0
  3 39  1  0  0  0  0
  4 40  1  0  0  0  0
  4 41  1  0  0  0  0
  7 42  1  0  0  0  0
  8 43  1  0  0  0  0
  9 44  1  0  0  0  0
 10 45  1  0  0  0  0
 14 46  1  0  0  0  0
 16 47  1  0  0  0  0
 17 48  1  0  0  0  0
 19 49  1  0  0  0  0
 24 50  1  0  0  0  0
 25 51  1  0  0  0  0
 27 52  1  0  0  0  0
 27 53  1  0  0  0  0
 27 54  1  0  0  0  0
 28 55  1  0  0  0  0
 30 56  1  0  0  0  0
 31 57  1  0  0  0  0
M  END
