
  xtb     03022214363D
 energy: -92.961590290942 gnorm: 0.000321049116 xtb: 6.4.1 (afa7bdf)
 51 58  0     0  0            999 V2000
   -4.3546    1.5079   -1.2245 O   0  0  0  0  0  0  0  0  0  0  0  0
   -3.2582    0.6843   -1.6500 S   0  0  0  0  0  6  0  0  0  0  0  0
   -3.1161    0.4333   -3.0584 O   0  0  0  0  0  0  0  0  0  0  0  0
   -1.7002    1.2384   -0.9636 C   0  0  0  0  0  0  0  0  0  0  0  0
   -1.2147    0.2826   -0.1402 C   0  0  0  0  0  0  0  0  0  0  0  0
   -2.0119   -0.9054    0.0355 C   0  0  0  0  0  0  0  0  0  0  0  0
   -1.7423   -2.0211    0.8194 C   0  0  0  0  0  0  0  0  0  0  0  0
   -2.6594   -3.0613    0.8363 C   0  0  0  0  0  0  0  0  0  0  0  0
   -3.8261   -2.9997    0.0903 C   0  0  0  0  0  0  0  0  0  0  0  0
   -4.1008   -1.8866   -0.7006 C   0  0  0  0  0  0  0  0  0  0  0  0
   -3.1912   -0.8607   -0.7162 C   0  0  0  0  0  0  0  0  0  0  0  0
    0.1288    0.6820    0.4128 C   0  0  0  0  0  0  0  0  0  0  0  0
    1.2065   -0.3274    0.1130 C   0  0  0  0  0  0  0  0  0  0  0  0
    1.7899   -0.7618    1.2523 C   0  0  0  0  0  0  0  0  0  0  0  0
    1.1935   -0.1344    2.4009 C   0  0  0  0  0  0  0  0  0  0  0  0
    1.4364   -0.2592    3.7591 C   0  0  0  0  0  0  0  0  0  0  0  0
    0.6628    0.4907    4.6311 C   0  0  0  0  0  0  0  0  0  0  0  0
   -0.3265    1.3426    4.1609 C   0  0  0  0  0  0  0  0  0  0  0  0
   -0.5751    1.4733    2.7989 C   0  0  0  0  0  0  0  0  0  0  0  0
    0.1872    0.7330    1.9255 C   0  0  0  0  0  0  0  0  0  0  0  0
    3.0076   -2.0106    0.8477 S   0  0  0  0  0  6  0  0  0  0  0  0
    2.5748   -3.2954    1.3256 O   0  0  0  0  0  0  0  0  0  0  0  0
    4.3394   -1.5878    1.1780 O   0  0  0  0  0  0  0  0  0  0  0  0
    2.6811   -1.8444   -0.9213 C   0  0  0  0  0  0  0  0  0  0  0  0
    3.2713   -2.5129   -1.9629 C   0  0  0  0  0  0  0  0  0  0  0  0
    2.8404   -2.2301   -3.2568 C   0  0  0  0  0  0  0  0  0  0  0  0
    1.8382   -1.2979   -3.4760 C   0  0  0  0  0  0  0  0  0  0  0  0
    1.2446   -0.6223   -2.4203 C   0  0  0  0  0  0  0  0  0  0  0  0
    1.6724   -0.8965   -1.1266 C   0  0  0  0  0  0  0  0  0  0  0  0
    0.3332    2.0260   -0.2553 C   0  0  0  0  0  0  0  0  0  0  0  0
    1.3982    2.8909   -0.1570 C   0  0  0  0  0  0  0  0  0  0  0  0
    1.3485    4.0783   -0.8791 C   0  0  0  0  0  0  0  0  0  0  0  0
    0.2566    4.3875   -1.6776 C   0  0  0  0  0  0  0  0  0  0  0  0
   -0.8215    3.5226   -1.7830 C   0  0  0  0  0  0  0  0  0  0  0  0
   -0.7783    2.3375   -1.0670 C   0  0  0  0  0  0  0  0  0  0  0  0
   -0.8351   -2.0774    1.4011 H   0  0  0  0  0  0  0  0  0  0  0  0
   -2.4576   -3.9325    1.4407 H   0  0  0  0  0  0  0  0  0  0  0  0
   -4.5268   -3.8199    0.1192 H   0  0  0  0  0  0  0  0  0  0  0  0
   -5.0020   -1.8243   -1.2898 H   0  0  0  0  0  0  0  0  0  0  0  0
    2.2067   -0.9247    4.1160 H   0  0  0  0  0  0  0  0  0  0  0  0
    0.8318    0.4111    5.6944 H   0  0  0  0  0  0  0  0  0  0  0  0
   -0.9145    1.9140    4.8629 H   0  0  0  0  0  0  0  0  0  0  0  0
   -1.3461    2.1368    2.4367 H   0  0  0  0  0  0  0  0  0  0  0  0
    4.0472   -3.2380   -1.7747 H   0  0  0  0  0  0  0  0  0  0  0  0
    3.2897   -2.7433   -4.0930 H   0  0  0  0  0  0  0  0  0  0  0  0
    1.5111   -1.0928   -4.4840 H   0  0  0  0  0  0  0  0  0  0  0  0
    0.4633    0.1005   -2.5987 H   0  0  0  0  0  0  0  0  0  0  0  0
    2.2498    2.6535    0.4628 H   0  0  0  0  0  0  0  0  0  0  0  0
    2.1748    4.7701   -0.8165 H   0  0  0  0  0  0  0  0  0  0  0  0
    0.2477    5.3173   -2.2260 H   0  0  0  0  0  0  0  0  0  0  0  0
   -1.6738    3.7543   -2.4022 H   0  0  0  0  0  0  0  0  0  0  0  0
  1  2  2  0  0  0  0
  2  3  2  0  0  0  0
  2  4  1  0  0  0  0
  4  5  2  0  0  0  0
  5  6  1  0  0  0  0
  6  7  2  0  0  0  0
  7  8  1  0  0  0  0
  8  9  2  0  0  0  0
  9 10  1  0  0  0  0
 10 11  2  0  0  0  0
  5 12  1  0  0  0  0
 12 13  1  0  0  0  0
 13 14  2  0  0  0  0
 14 15  1  0  0  0  0
 15 16  2  0  0  0  0
 16 17  1  0  0  0  0
 17 18  2  0  0  0  0
 18 19  1  0  0  0  0
 19 20  2  0  0  0  0
 14 21  1  0  0  0  0
 21 22  2  0  0  0  0
 21 23  2  0  0  0  0
 21 24  1  0  0  0  0
 24 25  2  0  0  0  0
 25 26  1  0  0  0  0
 26 27  2  0  0  0  0
 27 28  1  0  0  0  0
 28 29  2  0  0  0  0
 12 30  1  0  0  0  0
 30 31  2  0  0  0  0
 31 32  1  0  0  0  0
 32 33  2  0  0  0  0
 33 34  1  0  0  0  0
 34 35  2  0  0  0  0
 11  2  1  0  0  0  0
 20 12  1  0  0  0  0
 29 24  1  0  0  0  0
 35 30  1  0  0  0  0
 35  4  1  0  0  0  0
 11  6  1  0  0  0  0
 29 13  1  0  0  0  0
 20 15  1  0  0  0  0
  7 36  1  0  0  0  0
  8 37  1  0  0  0  0
  9 38  1  0  0  0  0
 10 39  1  0  0  0  0
 16 40  1  0  0  0  0
 17 41  1  0  0  0  0
 18 42  1  0  0  0  0
 19 43  1  0  0  0  0
 25 44  1  0  0  0  0
 26 45  1  0  0  0  0
 27 46  1  0  0  0  0
 28 47  1  0  0  0  0
 31 48  1  0  0  0  0
 32 49  1  0  0  0  0
 33 50  1  0  0  0  0
 34 51  1  0  0  0  0
M  END
