
  xtb     03022212013D
 energy: -100.986545560161 gnorm: 0.000302646837 xtb: 6.4.1 (afa7bdf)
 67 73  0     0  0            999 V2000
   12.9201   -0.1909    0.9905 C   0  0  0  0  0  0  0  0  0  0  0  0
   11.6060   -0.1225    0.2691 C   0  0  0  0  0  0  0  0  0  0  0  0
   11.6080   -0.0197   -1.1307 C   0  0  0  0  0  0  0  0  0  0  0  0
   10.4451    0.0485   -1.8682 C   0  0  0  0  0  0  0  0  0  0  0  0
    9.2523    0.0111   -1.1654 C   0  0  0  0  0  0  0  0  0  0  0  0
    7.9381    0.0533   -1.5457 N   0  0  0  0  0  0  0  0  0  0  0  0
    7.1851   -0.0219   -0.3977 C   0  0  0  0  0  0  0  0  0  0  0  0
    5.7372   -0.0068   -0.3792 C   0  0  0  0  0  0  0  0  0  0  0  0
    5.0828   -0.0779    0.8533 C   0  0  0  0  0  0  0  0  0  0  0  0
    3.7076   -0.0606    0.9207 C   0  0  0  0  0  0  0  0  0  0  0  0
    2.9355    0.0210   -0.2390 C   0  0  0  0  0  0  0  0  0  0  0  0
    1.4694    0.0421   -0.1660 C   0  0  0  0  0  0  0  0  0  0  0  0
    0.8154    0.7819    0.8170 C   0  0  0  0  0  0  0  0  0  0  0  0
   -0.5621    0.7989    0.8687 C   0  0  0  0  0  0  0  0  0  0  0  0
   -1.3302    0.0691   -0.0363 C   0  0  0  0  0  0  0  0  0  0  0  0
   -2.7975    0.1175    0.0890 C   0  0  0  0  0  0  0  0  0  0  0  0
   -3.4526    1.3462    0.1021 C   0  0  0  0  0  0  0  0  0  0  0  0
   -4.8250    1.4175    0.2312 C   0  0  0  0  0  0  0  0  0  0  0  0
   -5.5828    0.2538    0.3637 C   0  0  0  0  0  0  0  0  0  0  0  0
   -7.0250    0.2687    0.4976 C   0  0  0  0  0  0  0  0  0  0  0  0
   -7.7597   -0.8098    0.6039 N   0  0  0  0  0  0  0  0  0  0  0  0
   -9.0525   -0.3830    0.7048 C   0  0  0  0  0  0  0  0  0  0  0  0
  -10.2334   -1.1079    0.8371 C   0  0  0  0  0  0  0  0  0  0  0  0
  -11.4245   -0.4140    0.9174 C   0  0  0  0  0  0  0  0  0  0  0  0
  -12.7295   -1.1415    1.0568 C   0  0  0  0  0  0  0  0  0  0  0  0
  -11.4345    0.9886    0.8664 C   0  0  0  0  0  0  0  0  0  0  0  0
  -10.2803    1.7314    0.7364 C   0  0  0  0  0  0  0  0  0  0  0  0
   -9.0882    1.0312    0.6558 C   0  0  0  0  0  0  0  0  0  0  0  0
   -7.7813    1.4165    0.5234 N   0  0  0  0  0  0  0  0  0  0  0  0
   -4.9242   -0.9783    0.3678 C   0  0  0  0  0  0  0  0  0  0  0  0
   -3.5551   -1.0443    0.2302 C   0  0  0  0  0  0  0  0  0  0  0  0
   -0.6872   -0.6712   -1.0332 C   0  0  0  0  0  0  0  0  0  0  0  0
   -1.4507   -1.4471   -2.0657 C   0  0  0  0  0  0  0  0  0  0  0  0
    0.6990   -0.6670   -1.0819 C   0  0  0  0  0  0  0  0  0  0  0  0
    3.5901    0.0865   -1.4675 C   0  0  0  0  0  0  0  0  0  0  0  0
    4.9679    0.0763   -1.5402 C   0  0  0  0  0  0  0  0  0  0  0  0
    7.9291   -0.1081    0.6763 N   0  0  0  0  0  0  0  0  0  0  0  0
    9.2246   -0.0916    0.2462 C   0  0  0  0  0  0  0  0  0  0  0  0
   10.4143   -0.1587    0.9657 C   0  0  0  0  0  0  0  0  0  0  0  0
   12.7693   -0.2906    2.0622 H   0  0  0  0  0  0  0  0  0  0  0  0
   13.5034    0.7105    0.8040 H   0  0  0  0  0  0  0  0  0  0  0  0
   13.5028   -1.0423    0.6402 H   0  0  0  0  0  0  0  0  0  0  0  0
   12.5591    0.0062   -1.6430 H   0  0  0  0  0  0  0  0  0  0  0  0
   10.4652    0.1271   -2.9454 H   0  0  0  0  0  0  0  0  0  0  0  0
    7.5960    0.1265   -2.4880 H   0  0  0  0  0  0  0  0  0  0  0  0
    5.6869   -0.1473    1.7437 H   0  0  0  0  0  0  0  0  0  0  0  0
    3.2166   -0.1321    1.8801 H   0  0  0  0  0  0  0  0  0  0  0  0
    1.3895    1.3619    1.5242 H   0  0  0  0  0  0  0  0  0  0  0  0
   -1.0641    1.3739    1.6341 H   0  0  0  0  0  0  0  0  0  0  0  0
   -2.8755    2.2535   -0.0078 H   0  0  0  0  0  0  0  0  0  0  0  0
   -5.2986    2.3891    0.2256 H   0  0  0  0  0  0  0  0  0  0  0  0
  -10.2053   -2.1854    0.8746 H   0  0  0  0  0  0  0  0  0  0  0  0
  -13.3714   -0.9370    0.2002 H   0  0  0  0  0  0  0  0  0  0  0  0
  -12.5701   -2.2146    1.1215 H   0  0  0  0  0  0  0  0  0  0  0  0
  -13.2557   -0.8126    1.9523 H   0  0  0  0  0  0  0  0  0  0  0  0
  -12.3848    1.4988    0.9319 H   0  0  0  0  0  0  0  0  0  0  0  0
  -10.3065    2.8107    0.6990 H   0  0  0  0  0  0  0  0  0  0  0  0
   -7.4457    2.3619    0.4613 H   0  0  0  0  0  0  0  0  0  0  0  0
   -5.5196   -1.8701    0.4814 H   0  0  0  0  0  0  0  0  0  0  0  0
   -3.0576   -2.0022    0.2512 H   0  0  0  0  0  0  0  0  0  0  0  0
   -2.4468   -1.0369   -2.2118 H   0  0  0  0  0  0  0  0  0  0  0  0
   -0.9196   -1.4334   -3.0155 H   0  0  0  0  0  0  0  0  0  0  0  0
   -1.5533   -2.4883   -1.7593 H   0  0  0  0  0  0  0  0  0  0  0  0
    1.1939   -1.2501   -1.8461 H   0  0  0  0  0  0  0  0  0  0  0  0
    3.0100    0.1694   -2.3752 H   0  0  0  0  0  0  0  0  0  0  0  0
    5.4378    0.1366   -2.5119 H   0  0  0  0  0  0  0  0  0  0  0  0
   10.3923   -0.2372    2.0411 H   0  0  0  0  0  0  0  0  0  0  0  0
  1  2  1  0  0  0  0
  2  3  2  0  0  0  0
  3  4  1  0  0  0  0
  4  5  2  0  0  0  0
  5  6  1  0  0  0  0
  6  7  1  0  0  0  0
  7  8  1  0  0  0  0
  8  9  2  0  0  0  0
  9 10  1  0  0  0  0
 10 11  2  0  0  0  0
 11 12  1  0  0  0  0
 12 13  2  0  0  0  0
 13 14  1  0  0  0  0
 14 15  2  0  0  0  0
 15 16  1  0  0  0  0
 16 17  2  0  0  0  0
 17 18  1  0  0  0  0
 18 19  2  0  0  0  0
 19 20  1  0  0  0  0
 20 21  2  0  0  0  0
 21 22  1  0  0  0  0
 22 23  2  0  0  0  0
 23 24  1  0  0  0  0
 24 25  1  0  0  0  0
 24 26  2  0  0  0  0
 26 27  1  0  0  0  0
 27 28  2  0  0  0  0
 28 29  1  0  0  0  0
 19 30  1  0  0  0  0
 30 31  2  0  0  0  0
 15 32  1  0  0  0  0
 32 33  1  0  0  0  0
 32 34  2  0  0  0  0
 11 35  1  0  0  0  0
 35 36  2  0  0  0  0
  7 37  2  0  0  0  0
 37 38  1  0  0  0  0
 38 39  2  0  0  0  0
 39  2  1  0  0  0  0
 38  5  1  0  0  0  0
 36  8  1  0  0  0  0
 34 12  1  0  0  0  0
 31 16  1  0  0  0  0
 29 20  1  0  0  0  0
 28 22  1  0  0  0  0
  1 40  1  0  0  0  0
  1 41  1  0  0  0  0
  1 42  1  0  0  0  0
  3 43  1  0  0  0  0
  4 44  1  0  0  0  0
  6 45  1  0  0  0  0
  9 46  1  0  0  0  0
 10 47  1  0  0  0  0
 13 48  1  0  0  0  0
 14 49  1  0  0  0  0
 17 50  1  0  0  0  0
 18 51  1  0  0  0  0
 23 52  1  0  0  0  0
 25 53  1  0  0  0  0
 25 54  1  0  0  0  0
 25 55  1  0  0  0  0
 26 56  1  0  0  0  0
 27 57  1  0  0  0  0
 29 58  1  0  0  0  0
 30 59  1  0  0  0  0
 31 60  1  0  0  0  0
 33 61  1  0  0  0  0
 33 62  1  0  0  0  0
 33 63  1  0  0  0  0
 34 64  1  0  0  0  0
 35 65  1  0  0  0  0
 36 66  1  0  0  0  0
 39 67  1  0  0  0  0
M  END
