
  xtb     03022212513D
 energy: -63.490074668518 gnorm: 0.000216741570 xtb: 6.4.1 (afa7bdf)
 40 43  0     0  0            999 V2000
    7.6695   -0.6873    3.1251 N   0  0  0  0  0  0  0  0  0  0  0  0
    6.6087   -0.5922    2.6993 C   0  0  0  0  0  0  0  0  0  0  0  0
    5.3010   -0.4753    2.1801 C   0  0  0  0  0  0  0  0  0  0  0  0
    5.1034   -0.2221    0.8194 C   0  0  0  0  0  0  0  0  0  0  0  0
    3.8252   -0.1091    0.3236 C   0  0  0  0  0  0  0  0  0  0  0  0
    2.7163   -0.2449    1.1668 C   0  0  0  0  0  0  0  0  0  0  0  0
    1.3979   -0.1174    0.5934 C   0  0  0  0  0  0  0  0  0  0  0  0
    1.1591    0.1110   -0.6803 N   0  0  0  0  0  0  0  0  0  0  0  0
   -0.1862    0.1672   -0.8336 C   0  0  0  0  0  0  0  0  0  0  0  0
   -0.7710    0.4662   -2.1336 C   0  0  0  0  0  0  0  0  0  0  0  0
   -0.1052    0.0591   -3.2879 C   0  0  0  0  0  0  0  0  0  0  0  0
   -0.6320    0.3387   -4.5341 C   0  0  0  0  0  0  0  0  0  0  0  0
   -1.8248    1.0344   -4.6452 C   0  0  0  0  0  0  0  0  0  0  0  0
   -2.4820    1.4602   -3.5022 C   0  0  0  0  0  0  0  0  0  0  0  0
   -1.9601    1.1827   -2.2530 C   0  0  0  0  0  0  0  0  0  0  0  0
   -0.8025   -0.0460    0.3970 C   0  0  0  0  0  0  0  0  0  0  0  0
   -2.1921   -0.1633    0.8005 C   0  0  0  0  0  0  0  0  0  0  0  0
   -2.6090    0.3036    2.0475 C   0  0  0  0  0  0  0  0  0  0  0  0
   -3.9286    0.1752    2.4384 C   0  0  0  0  0  0  0  0  0  0  0  0
   -4.8492   -0.4249    1.5960 C   0  0  0  0  0  0  0  0  0  0  0  0
   -4.4427   -0.8976    0.3580 C   0  0  0  0  0  0  0  0  0  0  0  0
   -3.1261   -0.7718   -0.0391 C   0  0  0  0  0  0  0  0  0  0  0  0
    0.2256   -0.2105    1.2854 N   0  0  0  0  0  0  0  0  0  0  0  0
    2.9234   -0.4982    2.5259 C   0  0  0  0  0  0  0  0  0  0  0  0
    4.2013   -0.6126    3.0291 C   0  0  0  0  0  0  0  0  0  0  0  0
    5.9586   -0.1166    0.1685 H   0  0  0  0  0  0  0  0  0  0  0  0
    3.6459    0.0879   -0.7211 H   0  0  0  0  0  0  0  0  0  0  0  0
    0.8253   -0.4778   -3.1863 H   0  0  0  0  0  0  0  0  0  0  0  0
   -0.1119    0.0137   -5.4236 H   0  0  0  0  0  0  0  0  0  0  0  0
   -2.2381    1.2513   -5.6193 H   0  0  0  0  0  0  0  0  0  0  0  0
   -3.4046    2.0164   -3.5851 H   0  0  0  0  0  0  0  0  0  0  0  0
   -2.4679    1.5324   -1.3659 H   0  0  0  0  0  0  0  0  0  0  0  0
   -1.9025    0.7936    2.7036 H   0  0  0  0  0  0  0  0  0  0  0  0
   -4.2399    0.5473    3.4036 H   0  0  0  0  0  0  0  0  0  0  0  0
   -5.8795   -0.5241    1.9030 H   0  0  0  0  0  0  0  0  0  0  0  0
   -5.1562   -1.3711   -0.3000 H   0  0  0  0  0  0  0  0  0  0  0  0
   -2.8069   -1.1493   -0.9987 H   0  0  0  0  0  0  0  0  0  0  0  0
    0.1105   -0.4116    2.2648 H   0  0  0  0  0  0  0  0  0  0  0  0
    2.0864   -0.6087    3.2002 H   0  0  0  0  0  0  0  0  0  0  0  0
    4.3610   -0.8086    4.0793 H   0  0  0  0  0  0  0  0  0  0  0  0
  1  2  3  0  0  0  0
  2  3  1  0  0  0  0
  3  4  2  0  0  0  0
  4  5  1  0  0  0  0
  5  6  2  0  0  0  0
  6  7  1  0  0  0  0
  7  8  2  0  0  0  0
  8  9  1  0  0  0  0
  9 10  1  0  0  0  0
 10 11  2  0  0  0  0
 11 12  1  0  0  0  0
 12 13  2  0  0  0  0
 13 14  1  0  0  0  0
 14 15  2  0  0  0  0
  9 16  2  0  0  0  0
 16 17  1  0  0  0  0
 17 18  2  0  0  0  0
 18 19  1  0  0  0  0
 19 20  2  0  0  0  0
 20 21  1  0  0  0  0
 21 22  2  0  0  0  0
 16 23  1  0  0  0  0
  6 24  1  0  0  0  0
 24 25  2  0  0  0  0
 25  3  1  0  0  0  0
 23  7  1  0  0  0  0
 15 10  1  0  0  0  0
 22 17  1  0  0  0  0
  4 26  1  0  0  0  0
  5 27  1  0  0  0  0
 11 28  1  0  0  0  0
 12 29  1  0  0  0  0
 13 30  1  0  0  0  0
 14 31  1  0  0  0  0
 15 32  1  0  0  0  0
 18 33  1  0  0  0  0
 19 34  1  0  0  0  0
 20 35  1  0  0  0  0
 21 36  1  0  0  0  0
 22 37  1  0  0  0  0
 23 38  1  0  0  0  0
 24 39  1  0  0  0  0
 25 40  1  0  0  0  0
M  END
