
  xtb     03022214353D
 energy: -53.929502293263 gnorm: 0.000745555107 xtb: 6.4.1 (afa7bdf)
 31 31  0     0  0            999 V2000
    4.7835    1.6480    0.6499 C   0  0  0  0  0  0  0  0  0  0  0  0
    3.3408    1.9119    0.2604 C   0  0  0  0  0  0  0  0  0  0  0  0
    2.6940    0.6576    0.0410 O   0  0  0  0  0  0  0  0  0  0  0  0
    1.3594    0.7197   -0.1761 C   0  0  0  0  0  0  0  0  0  0  0  0
    0.7569    1.7602   -0.2291 O   0  0  0  0  0  0  0  0  0  0  0  0
    0.7729   -0.6069   -0.3970 C   0  0  0  0  0  0  0  0  0  0  0  0
    1.4081   -1.6341   -1.0410 C   0  0  0  0  0  0  0  0  0  0  0  0
    2.6758   -1.6691   -1.5524 N   0  0  0  0  0  0  0  0  0  0  0  0
    0.3145   -2.9630   -1.3505 S   0  0  0  0  0  0  0  0  0  0  0  0
   -1.0096   -2.1157   -0.5845 C   0  0  0  0  0  0  0  0  0  0  0  0
   -2.2062   -2.7530   -0.4051 N   0  0  0  0  0  0  0  0  0  0  0  0
   -0.6125   -0.8929   -0.1154 C   0  0  0  0  0  0  0  0  0  0  0  0
   -1.4307   -0.0326    0.7469 C   0  0  0  0  0  0  0  0  0  0  0  0
   -1.0101    0.6442    1.6488 O   0  0  0  0  0  0  0  0  0  0  0  0
   -2.7489   -0.1217    0.4525 O   0  0  0  0  0  0  0  0  0  0  0  0
   -3.6137    0.6852    1.2529 C   0  0  0  0  0  0  0  0  0  0  0  0
   -5.0233    0.5719    0.7024 C   0  0  0  0  0  0  0  0  0  0  0  0
    5.3060    1.1315   -0.1519 H   0  0  0  0  0  0  0  0  0  0  0  0
    5.2848    2.5911    0.8466 H   0  0  0  0  0  0  0  0  0  0  0  0
    4.8213    1.0327    1.5449 H   0  0  0  0  0  0  0  0  0  0  0  0
    3.2771    2.5080   -0.6574 H   0  0  0  0  0  0  0  0  0  0  0  0
    2.8047    2.4479    1.0510 H   0  0  0  0  0  0  0  0  0  0  0  0
    3.3057   -1.0010   -1.1327 H   0  0  0  0  0  0  0  0  0  0  0  0
    3.0622   -2.5803   -1.7376 H   0  0  0  0  0  0  0  0  0  0  0  0
   -2.9723   -2.1325   -0.1875 H   0  0  0  0  0  0  0  0  0  0  0  0
   -2.4170   -3.5034   -1.0424 H   0  0  0  0  0  0  0  0  0  0  0  0
   -3.5607    0.3379    2.2913 H   0  0  0  0  0  0  0  0  0  0  0  0
   -3.2542    1.7193    1.2223 H   0  0  0  0  0  0  0  0  0  0  0  0
   -5.3723   -0.4566    0.7577 H   0  0  0  0  0  0  0  0  0  0  0  0
   -5.6913    1.2019    1.2824 H   0  0  0  0  0  0  0  0  0  0  0  0
   -5.0449    0.8930   -0.3356 H   0  0  0  0  0  0  0  0  0  0  0  0
  1  2  1  0  0  0  0
  2  3  1  0  0  0  0
  3  4  1  0  0  0  0
  4  5  2  0  0  0  0
  4  6  1  0  0  0  0
  6  7  2  0  0  0  0
  7  8  1  0  0  0  0
  7  9  1  0  0  0  0
  9 10  1  0  0  0  0
 10 11  1  0  0  0  0
 10 12  2  0  0  0  0
 12 13  1  0  0  0  0
 13 14  2  0  0  0  0
 13 15  1  0  0  0  0
 15 16  1  0  0  0  0
 16 17  1  0  0  0  0
 12  6  1  0  0  0  0
  1 18  1  0  0  0  0
  1 19  1  0  0  0  0
  1 20  1  0  0  0  0
  2 21  1  0  0  0  0
  2 22  1  0  0  0  0
  8 23  1  0  0  0  0
  8 24  1  0  0  0  0
 11 25  1  0  0  0  0
 11 26  1  0  0  0  0
 16 27  1  0  0  0  0
 16 28  1  0  0  0  0
 17 29  1  0  0  0  0
 17 30  1  0  0  0  0
 17 31  1  0  0  0  0
M  END
