
  xtb     03022212003D
 energy: -77.488805283232 gnorm: 0.000299102721 xtb: 6.4.1 (afa7bdf)
 45 49  0     0  0            999 V2000
    3.4845    0.4741    4.0494 C   0  0  0  0  0  0  0  0  0  0  0  0
    3.3730    0.3973    2.6484 O   0  0  0  0  0  0  0  0  0  0  0  0
    2.1771    0.6789    2.0710 C   0  0  0  0  0  0  0  0  0  0  0  0
    2.1247    0.5459    0.6809 C   0  0  0  0  0  0  0  0  0  0  0  0
    0.9629    0.8100   -0.0088 C   0  0  0  0  0  0  0  0  0  0  0  0
   -0.1747    1.2174    0.6818 C   0  0  0  0  0  0  0  0  0  0  0  0
   -1.3782    1.4519   -0.0149 N   0  0  0  0  0  0  0  0  0  0  0  0
   -1.9594    0.5084   -0.8429 C   0  0  0  0  0  0  0  0  0  0  0  0
   -1.2804   -0.6139   -1.0826 N   0  0  0  0  0  0  0  0  0  0  0  0
   -1.8410   -1.5228   -1.7950 N   0  0  0  0  0  0  0  0  0  0  0  0
   -1.1080   -2.5481   -2.2318 C   0  0  0  0  0  0  0  0  0  0  0  0
    0.1354   -2.5596   -2.5809 N   0  0  0  0  0  0  0  0  0  0  0  0
    0.4977   -3.7292   -3.1555 C   0  0  0  0  0  0  0  0  0  0  0  0
    1.7713   -4.0419   -3.6310 C   0  0  0  0  0  0  0  0  0  0  0  0
    1.9953   -5.2897   -4.1690 C   0  0  0  0  0  0  0  0  0  0  0  0
    0.9729   -6.2346   -4.2492 C   0  0  0  0  0  0  0  0  0  0  0  0
   -0.2984   -5.9489   -3.7897 C   0  0  0  0  0  0  0  0  0  0  0  0
   -0.5349   -4.6977   -3.2480 C   0  0  0  0  0  0  0  0  0  0  0  0
   -2.0117   -4.0490   -2.6071 S   0  0  0  0  0  0  0  0  0  0  0  0
   -3.2050    1.0120   -1.2597 C   0  0  0  0  0  0  0  0  0  0  0  0
   -3.3588    2.2514   -0.6769 C   0  0  0  0  0  0  0  0  0  0  0  0
   -2.2122    2.5178    0.0888 C   0  0  0  0  0  0  0  0  0  0  0  0
   -1.9196    3.7357    0.7801 C   0  0  0  0  0  0  0  0  0  0  0  0
   -0.7150    4.2749    1.1598 C   0  0  0  0  0  0  0  0  0  0  0  0
   -0.8447    5.5334    1.7739 C   0  0  0  0  0  0  0  0  0  0  0  0
   -2.1366    5.9483    1.8619 C   0  0  0  0  0  0  0  0  0  0  0  0
   -3.2294    4.8115    1.1869 S   0  0  0  0  0  0  0  0  0  0  0  0
   -0.1343    1.3379    2.0635 C   0  0  0  0  0  0  0  0  0  0  0  0
    1.0338    1.0783    2.7576 C   0  0  0  0  0  0  0  0  0  0  0  0
    4.5102    0.1901    4.2785 H   0  0  0  0  0  0  0  0  0  0  0  0
    3.3017    1.4905    4.4128 H   0  0  0  0  0  0  0  0  0  0  0  0
    2.7984   -0.2195    4.5454 H   0  0  0  0  0  0  0  0  0  0  0  0
    3.0149    0.2263    0.1640 H   0  0  0  0  0  0  0  0  0  0  0  0
    0.9252    0.6918   -1.0791 H   0  0  0  0  0  0  0  0  0  0  0  0
    2.5535   -3.3031   -3.5614 H   0  0  0  0  0  0  0  0  0  0  0  0
    2.9787   -5.5439   -4.5357 H   0  0  0  0  0  0  0  0  0  0  0  0
    1.1766   -7.2043   -4.6781 H   0  0  0  0  0  0  0  0  0  0  0  0
   -1.0922   -6.6768   -3.8513 H   0  0  0  0  0  0  0  0  0  0  0  0
   -3.8818    0.5001   -1.9138 H   0  0  0  0  0  0  0  0  0  0  0  0
   -4.1861    2.9252   -0.7891 H   0  0  0  0  0  0  0  0  0  0  0  0
    0.2303    3.7951    0.9839 H   0  0  0  0  0  0  0  0  0  0  0  0
   -0.0099    6.1079    2.1331 H   0  0  0  0  0  0  0  0  0  0  0  0
   -2.5173    6.8578    2.2817 H   0  0  0  0  0  0  0  0  0  0  0  0
   -1.0224    1.6332    2.6022 H   0  0  0  0  0  0  0  0  0  0  0  0
    1.0341    1.1796    3.8310 H   0  0  0  0  0  0  0  0  0  0  0  0
  1  2  1  0  0  0  0
  2  3  1  0  0  0  0
  3  4  2  0  0  0  0
  4  5  1  0  0  0  0
  5  6  2  0  0  0  0
  6  7  1  0  0  0  0
  7  8  1  0  0  0  0
  8  9  1  0  0  0  0
  9 10  2  0  0  0  0
 10 11  1  0  0  0  0
 11 12  2  0  0  0  0
 12 13  1  0  0  0  0
 13 14  2  0  0  0  0
 14 15  1  0  0  0  0
 15 16  2  0  0  0  0
 16 17  1  0  0  0  0
 17 18  2  0  0  0  0
 18 19  1  0  0  0  0
  8 20  2  0  0  0  0
 20 21  1  0  0  0  0
 21 22  2  0  0  0  0
 22 23  1  0  0  0  0
 23 24  2  0  0  0  0
 24 25  1  0  0  0  0
 25 26  2  0  0  0  0
 26 27  1  0  0  0  0
  6 28  1  0  0  0  0
 28 29  2  0  0  0  0
 29  3  1  0  0  0  0
 22  7  1  0  0  0  0
 27 23  1  0  0  0  0
 19 11  1  0  0  0  0
 18 13  1  0  0  0  0
  1 30  1  0  0  0  0
  1 31  1  0  0  0  0
  1 32  1  0  0  0  0
  4 33  1  0  0  0  0
  5 34  1  0  0  0  0
 14 35  1  0  0  0  0
 15 36  1  0  0  0  0
 16 37  1  0  0  0  0
 17 38  1  0  0  0  0
 20 39  1  0  0  0  0
 21 40  1  0  0  0  0
 24 41  1  0  0  0  0
 25 42  1  0  0  0  0
 26 43  1  0  0  0  0
 28 44  1  0  0  0  0
 29 45  1  0  0  0  0
M  END
