
  xtb     03022212443D
 energy: -61.681029428874 gnorm: 0.000068787912 xtb: 6.4.1 (afa7bdf)
 42 45  0     0  0            999 V2000
   -2.2680   -2.9698   -0.7243 C   0  0  0  0  0  0  0  0  0  0  0  0
   -2.4862   -1.6032   -1.3738 C   0  0  0  0  0  0  0  0  0  0  0  0
   -2.5075   -0.5482   -0.3979 N   0  0  0  0  0  0  0  0  0  0  0  0
   -3.6162   -0.1120    0.2882 C   0  0  0  0  0  0  0  0  0  0  0  0
   -4.9433   -0.5013    0.1702 C   0  0  0  0  0  0  0  0  0  0  0  0
   -5.8743    0.1171    0.9825 C   0  0  0  0  0  0  0  0  0  0  0  0
   -5.5037    1.1002    1.8974 C   0  0  0  0  0  0  0  0  0  0  0  0
   -4.1857    1.4902    2.0244 C   0  0  0  0  0  0  0  0  0  0  0  0
   -3.2309    0.8835    1.2189 C   0  0  0  0  0  0  0  0  0  0  0  0
   -1.8105    1.0288    1.0892 C   0  0  0  0  0  0  0  0  0  0  0  0
   -0.8633    1.8271    1.7175 C   0  0  0  0  0  0  0  0  0  0  0  0
    0.4580    1.7105    1.3446 C   0  0  0  0  0  0  0  0  0  0  0  0
    0.8652    0.8048    0.3543 C   0  0  0  0  0  0  0  0  0  0  0  0
    2.2855    0.7079   -0.0109 C   0  0  0  0  0  0  0  0  0  0  0  0
    3.0760    1.8521   -0.1262 C   0  0  0  0  0  0  0  0  0  0  0  0
    4.4062    1.7630   -0.4691 C   0  0  0  0  0  0  0  0  0  0  0  0
    4.9973    0.5204   -0.7032 C   0  0  0  0  0  0  0  0  0  0  0  0
    6.3209    0.5434   -1.0314 O   0  0  0  0  0  0  0  0  0  0  0  0
    6.9718   -0.6772   -1.2811 C   0  0  0  0  0  0  0  0  0  0  0  0
    4.2208   -0.6266   -0.5898 C   0  0  0  0  0  0  0  0  0  0  0  0
    2.8831   -0.5243   -0.2508 C   0  0  0  0  0  0  0  0  0  0  0  0
   -0.0731   -0.0027   -0.2780 C   0  0  0  0  0  0  0  0  0  0  0  0
   -1.4046    0.1151    0.0872 C   0  0  0  0  0  0  0  0  0  0  0  0
   -3.0665   -3.1808   -0.0168 H   0  0  0  0  0  0  0  0  0  0  0  0
   -1.3218   -2.9835   -0.1883 H   0  0  0  0  0  0  0  0  0  0  0  0
   -2.2545   -3.7494   -1.4815 H   0  0  0  0  0  0  0  0  0  0  0  0
   -1.6862   -1.3969   -2.0904 H   0  0  0  0  0  0  0  0  0  0  0  0
   -3.4359   -1.5937   -1.9158 H   0  0  0  0  0  0  0  0  0  0  0  0
   -5.2488   -1.2646   -0.5300 H   0  0  0  0  0  0  0  0  0  0  0  0
   -6.9132   -0.1698    0.9082 H   0  0  0  0  0  0  0  0  0  0  0  0
   -6.2620    1.5590    2.5145 H   0  0  0  0  0  0  0  0  0  0  0  0
   -3.8977    2.2506    2.7348 H   0  0  0  0  0  0  0  0  0  0  0  0
   -1.1599    2.5241    2.4869 H   0  0  0  0  0  0  0  0  0  0  0  0
    1.2073    2.3107    1.8388 H   0  0  0  0  0  0  0  0  0  0  0  0
    2.6332    2.8236    0.0350 H   0  0  0  0  0  0  0  0  0  0  0  0
    5.0179    2.6463   -0.5654 H   0  0  0  0  0  0  0  0  0  0  0  0
    8.0021   -0.4187   -1.5211 H   0  0  0  0  0  0  0  0  0  0  0  0
    6.9592   -1.3283   -0.4006 H   0  0  0  0  0  0  0  0  0  0  0  0
    6.5255   -1.2059   -2.1300 H   0  0  0  0  0  0  0  0  0  0  0  0
    4.6443   -1.6047   -0.7582 H   0  0  0  0  0  0  0  0  0  0  0  0
    2.3002   -1.4284   -0.1489 H   0  0  0  0  0  0  0  0  0  0  0  0
    0.2393   -0.6881   -1.0517 H   0  0  0  0  0  0  0  0  0  0  0  0
  1  2  1  0  0  0  0
  2  3  1  0  0  0  0
  3  4  1  0  0  0  0
  4  5  2  0  0  0  0
  5  6  1  0  0  0  0
  6  7  2  0  0  0  0
  7  8  1  0  0  0  0
  8  9  2  0  0  0  0
  9 10  1  0  0  0  0
 10 11  2  0  0  0  0
 11 12  1  0  0  0  0
 12 13  2  0  0  0  0
 13 14  1  0  0  0  0
 14 15  2  0  0  0  0
 15 16  1  0  0  0  0
 16 17  2  0  0  0  0
 17 18  1  0  0  0  0
 18 19  1  0  0  0  0
 17 20  1  0  0  0  0
 20 21  2  0  0  0  0
 13 22  1  0  0  0  0
 22 23  2  0  0  0  0
 23  3  1  0  0  0  0
  9  4  1  0  0  0  0
 23 10  1  0  0  0  0
 21 14  1  0  0  0  0
  1 24  1  0  0  0  0
  1 25  1  0  0  0  0
  1 26  1  0  0  0  0
  2 27  1  0  0  0  0
  2 28  1  0  0  0  0
  5 29  1  0  0  0  0
  6 30  1  0  0  0  0
  7 31  1  0  0  0  0
  8 32  1  0  0  0  0
 11 33  1  0  0  0  0
 12 34  1  0  0  0  0
 15 35  1  0  0  0  0
 16 36  1  0  0  0  0
 19 37  1  0  0  0  0
 19 38  1  0  0  0  0
 19 39  1  0  0  0  0
 20 40  1  0  0  0  0
 21 41  1  0  0  0  0
 22 42  1  0  0  0  0
M  END
