
  xtb     03022214183D
 energy: -39.301805505720 gnorm: 0.000178089588 xtb: 6.4.1 (afa7bdf)
 27 28  0     0  0            999 V2000
   -1.5239   -1.2297   -1.4108 C   0  0  0  0  0  0  0  0  0  0  0  0
   -1.3167   -0.4995   -0.0719 C   0  0  0  0  0  0  0  0  0  0  0  0
   -1.5516   -1.4760    1.0942 C   0  0  0  0  0  0  0  0  0  0  0  0
   -2.4351    0.5470    0.0178 C   0  0  0  0  0  0  0  0  0  0  0  0
   -3.5996    0.1908   -0.0222 O   0  0  0  0  0  0  0  0  0  0  0  0
   -2.0619    1.9412    0.1483 C   0  0  0  0  0  0  0  0  0  0  0  0
   -0.7798    2.3432    0.2007 C   0  0  0  0  0  0  0  0  0  0  0  0
    0.3214    1.4297    0.1284 C   0  0  0  0  0  0  0  0  0  0  0  0
    1.6396    1.8972    0.1886 C   0  0  0  0  0  0  0  0  0  0  0  0
    2.7051    1.0352    0.1208 C   0  0  0  0  0  0  0  0  0  0  0  0
    2.4814   -0.3400   -0.0123 C   0  0  0  0  0  0  0  0  0  0  0  0
    3.5347   -1.2071   -0.1461 N   0  0  0  0  0  0  0  0  0  0  0  0
    1.1675   -0.8078   -0.0712 C   0  0  0  0  0  0  0  0  0  0  0  0
    0.0860    0.0510   -0.0043 C   0  0  0  0  0  0  0  0  0  0  0  0
   -1.3037   -0.5600   -2.2403 H   0  0  0  0  0  0  0  0  0  0  0  0
   -2.5607   -1.5495   -1.4856 H   0  0  0  0  0  0  0  0  0  0  0  0
   -0.8790   -2.1011   -1.4861 H   0  0  0  0  0  0  0  0  0  0  0  0
   -1.3437   -0.9836    2.0427 H   0  0  0  0  0  0  0  0  0  0  0  0
   -0.9135   -2.3515    1.0078 H   0  0  0  0  0  0  0  0  0  0  0  0
   -2.5912   -1.7952    1.0871 H   0  0  0  0  0  0  0  0  0  0  0  0
   -2.8782    2.6468    0.2040 H   0  0  0  0  0  0  0  0  0  0  0  0
   -0.5425    3.3947    0.3006 H   0  0  0  0  0  0  0  0  0  0  0  0
    1.8128    2.9587    0.2929 H   0  0  0  0  0  0  0  0  0  0  0  0
    3.7186    1.4064    0.1679 H   0  0  0  0  0  0  0  0  0  0  0  0
    4.4457   -0.8823    0.1297 H   0  0  0  0  0  0  0  0  0  0  0  0
    3.3559   -2.1870   -0.0074 H   0  0  0  0  0  0  0  0  0  0  0  0
    1.0126   -1.8718   -0.1738 H   0  0  0  0  0  0  0  0  0  0  0  0
  1  2  1  0  0  0  0
  2  3  1  0  0  0  0
  2  4  1  0  0  0  0
  4  5  2  0  0  0  0
  4  6  1  0  0  0  0
  6  7  2  0  0  0  0
  7  8  1  0  0  0  0
  8  9  2  0  0  0  0
  9 10  1  0  0  0  0
 10 11  2  0  0  0  0
 11 12  1  0  0  0  0
 11 13  1  0  0  0  0
 13 14  2  0  0  0  0
 14  2  1  0  0  0  0
 14  8  1  0  0  0  0
  1 15  1  0  0  0  0
  1 16  1  0  0  0  0
  1 17  1  0  0  0  0
  3 18  1  0  0  0  0
  3 19  1  0  0  0  0
  3 20  1  0  0  0  0
  6 21  1  0  0  0  0
  7 22  1  0  0  0  0
  9 23  1  0  0  0  0
 10 24  1  0  0  0  0
 12 25  1  0  0  0  0
 12 26  1  0  0  0  0
 13 27  1  0  0  0  0
M  END
