
  xtb     03022214513D
 energy: -58.692779691593 gnorm: 0.000297792159 xtb: 6.4.1 (afa7bdf)
 41 43  0     0  0            999 V2000
   -1.2143   -2.1895    0.7142 C   0  0  0  0  0  0  0  0  0  0  0  0
   -1.5755   -0.7984    0.1861 C   0  0  0  0  0  0  0  0  0  0  0  0
   -2.8914   -0.8923   -0.5944 C   0  0  0  0  0  0  0  0  0  0  0  0
   -1.7545    0.1580    1.3649 C   0  0  0  0  0  0  0  0  0  0  0  0
   -0.4454   -0.3287   -0.7963 C   0  0  0  0  0  0  0  0  0  0  0  0
   -0.7804    0.8505   -1.5531 N   0  0  0  0  0  0  0  0  0  0  0  0
   -0.6576    2.0786   -0.9552 C   0  0  0  0  0  0  0  0  0  0  0  0
   -1.3872    3.1886   -1.3768 C   0  0  0  0  0  0  0  0  0  0  0  0
   -1.2017    4.4116   -0.7625 C   0  0  0  0  0  0  0  0  0  0  0  0
   -0.2877    4.5532    0.2726 C   0  0  0  0  0  0  0  0  0  0  0  0
    0.4594    3.4639    0.6771 C   0  0  0  0  0  0  0  0  0  0  0  0
    0.2841    2.2259    0.0720 C   0  0  0  0  0  0  0  0  0  0  0  0
    1.1611    1.0961    0.4369 C   0  0  0  0  0  0  0  0  0  0  0  0
    2.1586    1.2380    1.1184 O   0  0  0  0  0  0  0  0  0  0  0  0
    0.8178   -0.1161   -0.1166 N   0  0  0  0  0  0  0  0  0  0  0  0
    1.7224   -1.2028   -0.0190 C   0  0  0  0  0  0  0  0  0  0  0  0
    2.1018   -1.9004   -1.1608 C   0  0  0  0  0  0  0  0  0  0  0  0
    2.9838   -2.9607   -1.0664 C   0  0  0  0  0  0  0  0  0  0  0  0
    3.5072   -3.3269    0.1619 C   0  0  0  0  0  0  0  0  0  0  0  0
    3.1482   -2.6204    1.2965 C   0  0  0  0  0  0  0  0  0  0  0  0
    2.2580   -1.5653    1.2122 C   0  0  0  0  0  0  0  0  0  0  0  0
   -0.3129   -2.1563    1.3190 H   0  0  0  0  0  0  0  0  0  0  0  0
   -1.0498   -2.8866   -0.1053 H   0  0  0  0  0  0  0  0  0  0  0  0
   -2.0237   -2.5732    1.3310 H   0  0  0  0  0  0  0  0  0  0  0  0
   -3.6553   -1.3516    0.0281 H   0  0  0  0  0  0  0  0  0  0  0  0
   -3.2500    0.0931   -0.8841 H   0  0  0  0  0  0  0  0  0  0  0  0
   -2.7706   -1.5031   -1.4876 H   0  0  0  0  0  0  0  0  0  0  0  0
   -2.0757    1.1423    1.0320 H   0  0  0  0  0  0  0  0  0  0  0  0
   -0.8274    0.2686    1.9221 H   0  0  0  0  0  0  0  0  0  0  0  0
   -2.5108   -0.2353    2.0413 H   0  0  0  0  0  0  0  0  0  0  0  0
   -0.3073   -1.1463   -1.5169 H   0  0  0  0  0  0  0  0  0  0  0  0
   -1.5223    0.7437   -2.2265 H   0  0  0  0  0  0  0  0  0  0  0  0
   -2.0999    3.0807   -2.1827 H   0  0  0  0  0  0  0  0  0  0  0  0
   -1.7798    5.2631   -1.0907 H   0  0  0  0  0  0  0  0  0  0  0  0
   -0.1550    5.5117    0.7498 H   0  0  0  0  0  0  0  0  0  0  0  0
    1.1967    3.5460    1.4610 H   0  0  0  0  0  0  0  0  0  0  0  0
    1.7228   -1.6030   -2.1281 H   0  0  0  0  0  0  0  0  0  0  0  0
    3.2715   -3.4962   -1.9596 H   0  0  0  0  0  0  0  0  0  0  0  0
    4.1976   -4.1540    0.2319 H   0  0  0  0  0  0  0  0  0  0  0  0
    3.5592   -2.8942    2.2568 H   0  0  0  0  0  0  0  0  0  0  0  0
    1.9858   -1.0129    2.0971 H   0  0  0  0  0  0  0  0  0  0  0  0
  1  2  1  0  0  0  0
  2  3  1  0  0  0  0
  2  4  1  0  0  0  0
  2  5  1  0  0  0  0
  5  6  1  0  0  0  0
  6  7  1  0  0  0  0
  7  8  2  0  0  0  0
  8  9  1  0  0  0  0
  9 10  2  0  0  0  0
 10 11  1  0  0  0  0
 11 12  2  0  0  0  0
 12 13  1  0  0  0  0
 13 14  2  0  0  0  0
 13 15  1  0  0  0  0
 15 16  1  0  0  0  0
 16 17  2  0  0  0  0
 17 18  1  0  0  0  0
 18 19  2  0  0  0  0
 19 20  1  0  0  0  0
 20 21  2  0  0  0  0
 15  5  1  0  0  0  0
 21 16  1  0  0  0  0
 12  7  1  0  0  0  0
  1 22  1  0  0  0  0
  1 23  1  0  0  0  0
  1 24  1  0  0  0  0
  3 25  1  0  0  0  0
  3 26  1  0  0  0  0
  3 27  1  0  0  0  0
  4 28  1  0  0  0  0
  4 29  1  0  0  0  0
  4 30  1  0  0  0  0
  5 31  1  0  0  0  0
  6 32  1  0  0  0  0
  8 33  1  0  0  0  0
  9 34  1  0  0  0  0
 10 35  1  0  0  0  0
 11 36  1  0  0  0  0
 17 37  1  0  0  0  0
 18 38  1  0  0  0  0
 19 39  1  0  0  0  0
 20 40  1  0  0  0  0
 21 41  1  0  0  0  0
M  END
