
  xtb     03022212493D
 energy: -48.445456441492 gnorm: 0.000279412657 xtb: 6.4.1 (afa7bdf)
 30 31  0     0  0            999 V2000
   -5.4671    3.3859    1.9601 C   0  0  0  0  0  0  0  0  0  0  0  0
   -4.3402    2.7533    1.3763 O   0  0  0  0  0  0  0  0  0  0  0  0
   -3.6406    1.9425    2.1892 C   0  0  0  0  0  0  0  0  0  0  0  0
   -3.9405    1.7552    3.3440 O   0  0  0  0  0  0  0  0  0  0  0  0
   -2.4826    1.3183    1.5131 C   0  0  0  0  0  0  0  0  0  0  0  0
   -1.6877    0.4354    2.2448 C   0  0  0  0  0  0  0  0  0  0  0  0
   -0.5994   -0.1719    1.6589 C   0  0  0  0  0  0  0  0  0  0  0  0
   -0.2840    0.0972    0.3231 C   0  0  0  0  0  0  0  0  0  0  0  0
    0.8288   -0.5195   -0.2827 C   0  0  0  0  0  0  0  0  0  0  0  0
    1.7813   -1.0442   -0.8097 C   0  0  0  0  0  0  0  0  0  0  0  0
    2.8953   -1.6599   -1.4181 C   0  0  0  0  0  0  0  0  0  0  0  0
    3.3372   -1.2319   -2.6719 C   0  0  0  0  0  0  0  0  0  0  0  0
    4.4292   -1.8371   -3.2623 C   0  0  0  0  0  0  0  0  0  0  0  0
    5.0888   -2.8710   -2.6160 C   0  0  0  0  0  0  0  0  0  0  0  0
    4.6534   -3.3005   -1.3720 C   0  0  0  0  0  0  0  0  0  0  0  0
    3.5639   -2.7013   -0.7710 C   0  0  0  0  0  0  0  0  0  0  0  0
   -1.0810    0.9837   -0.4086 C   0  0  0  0  0  0  0  0  0  0  0  0
   -2.1705    1.5874    0.1809 C   0  0  0  0  0  0  0  0  0  0  0  0
   -6.1725    2.6391    2.3310 H   0  0  0  0  0  0  0  0  0  0  0  0
   -5.1576    4.0185    2.7949 H   0  0  0  0  0  0  0  0  0  0  0  0
   -5.9216    3.9846    1.1748 H   0  0  0  0  0  0  0  0  0  0  0  0
   -1.9468    0.2420    3.2748 H   0  0  0  0  0  0  0  0  0  0  0  0
    0.0184   -0.8563    2.2214 H   0  0  0  0  0  0  0  0  0  0  0  0
    2.8186   -0.4255   -3.1697 H   0  0  0  0  0  0  0  0  0  0  0  0
    4.7693   -1.5026   -4.2315 H   0  0  0  0  0  0  0  0  0  0  0  0
    5.9418   -3.3419   -3.0817 H   0  0  0  0  0  0  0  0  0  0  0  0
    5.1675   -4.1066   -0.8692 H   0  0  0  0  0  0  0  0  0  0  0  0
    3.2190   -3.0310    0.1983 H   0  0  0  0  0  0  0  0  0  0  0  0
   -0.8330    1.1875   -1.4400 H   0  0  0  0  0  0  0  0  0  0  0  0
   -2.7876    2.2707   -0.3811 H   0  0  0  0  0  0  0  0  0  0  0  0
  1  2  1  0  0  0  0
  2  3  1  0  0  0  0
  3  4  2  0  0  0  0
  3  5  1  0  0  0  0
  5  6  2  0  0  0  0
  6  7  1  0  0  0  0
  7  8  2  0  0  0  0
  8  9  1  0  0  0  0
  9 10  3  0  0  0  0
 10 11  1  0  0  0  0
 11 12  2  0  0  0  0
 12 13  1  0  0  0  0
 13 14  2  0  0  0  0
 14 15  1  0  0  0  0
 15 16  2  0  0  0  0
  8 17  1  0  0  0  0
 17 18  2  0  0  0  0
 18  5  1  0  0  0  0
 16 11  1  0  0  0  0
  1 19  1  0  0  0  0
  1 20  1  0  0  0  0
  1 21  1  0  0  0  0
  6 22  1  0  0  0  0
  7 23  1  0  0  0  0
 12 24  1  0  0  0  0
 13 25  1  0  0  0  0
 14 26  1  0  0  0  0
 15 27  1  0  0  0  0
 16 28  1  0  0  0  0
 17 29  1  0  0  0  0
 18 30  1  0  0  0  0
M  END
