
  xtb     03022212483D
 energy: -143.763378092325 gnorm: 0.000183716241 xtb: 6.4.1 (afa7bdf)
 91100  0     0  0            999 V2000
    0.0432    2.6298   -1.4045 F   0  0  0  0  0  0  0  0  0  0  0  0
    0.0317    2.1104   -0.1119 B   0  0  0  0  0  4  0  0  0  0  0  0
    0.0388    3.1194    0.8171 F   0  0  0  0  0  0  0  0  0  0  0  0
    1.2756    1.2000    0.0375 N   0  0  0  0  0  0  0  0  0  0  0  0
    1.2197   -0.1730   -0.1033 C   0  0  0  0  0  0  0  0  0  0  0  0
    2.5507   -0.6751   -0.1313 C   0  0  0  0  0  0  0  0  0  0  0  0
    2.9508   -2.0681   -0.3630 C   0  0  0  0  0  0  0  0  0  0  0  0
    3.4324   -2.8663    0.6686 C   0  0  0  0  0  0  0  0  0  0  0  0
    3.8141   -4.1721    0.4237 C   0  0  0  0  0  0  0  0  0  0  0  0
    3.7165   -4.6970   -0.8530 C   0  0  0  0  0  0  0  0  0  0  0  0
    3.2358   -3.9094   -1.8849 C   0  0  0  0  0  0  0  0  0  0  0  0
    2.8578   -2.6024   -1.6436 C   0  0  0  0  0  0  0  0  0  0  0  0
    3.3909    0.4219    0.0091 C   0  0  0  0  0  0  0  0  0  0  0  0
    4.8504    0.4682   -0.0855 C   0  0  0  0  0  0  0  0  0  0  0  0
    5.4439    1.4015   -0.9354 C   0  0  0  0  0  0  0  0  0  0  0  0
    6.8181    1.4709   -1.0533 C   0  0  0  0  0  0  0  0  0  0  0  0
    7.6247    0.6099   -0.3274 C   0  0  0  0  0  0  0  0  0  0  0  0
    7.0452   -0.3220    0.5157 C   0  0  0  0  0  0  0  0  0  0  0  0
    5.6695   -0.3933    0.6375 C   0  0  0  0  0  0  0  0  0  0  0  0
    2.5609    1.5692    0.1123 C   0  0  0  0  0  0  0  0  0  0  0  0
    3.0468    2.9222    0.3491 C   0  0  0  0  0  0  0  0  0  0  0  0
    4.0235    3.1100    1.3299 C   0  0  0  0  0  0  0  0  0  0  0  0
    4.5317    4.3690    1.5788 C   0  0  0  0  0  0  0  0  0  0  0  0
    4.0826    5.4574    0.8484 C   0  0  0  0  0  0  0  0  0  0  0  0
    3.1196    5.2778   -0.1298 C   0  0  0  0  0  0  0  0  0  0  0  0
    2.6020    4.0209   -0.3820 C   0  0  0  0  0  0  0  0  0  0  0  0
    0.0022   -0.8518   -0.1503 C   0  0  0  0  0  0  0  0  0  0  0  0
   -0.0253   -2.3175   -0.3096 C   0  0  0  0  0  0  0  0  0  0  0  0
    0.3948   -3.1556    0.7155 C   0  0  0  0  0  0  0  0  0  0  0  0
    0.3565   -4.5270    0.5514 C   0  0  0  0  0  0  0  0  0  0  0  0
   -0.0964   -5.0728   -0.6369 C   0  0  0  0  0  0  0  0  0  0  0  0
   -0.5173   -4.2422   -1.6606 C   0  0  0  0  0  0  0  0  0  0  0  0
   -0.4865   -2.8703   -1.4985 C   0  0  0  0  0  0  0  0  0  0  0  0
   -1.1995   -0.1504   -0.0404 C   0  0  0  0  0  0  0  0  0  0  0  0
   -2.5353   -0.6282    0.0363 C   0  0  0  0  0  0  0  0  0  0  0  0
   -2.9990   -2.0167   -0.0095 C   0  0  0  0  0  0  0  0  0  0  0  0
   -2.6969   -2.9050    1.0178 C   0  0  0  0  0  0  0  0  0  0  0  0
   -3.1532   -4.2081    0.9692 C   0  0  0  0  0  0  0  0  0  0  0  0
   -3.9213   -4.6373   -0.0999 C   0  0  0  0  0  0  0  0  0  0  0  0
   -4.2448   -3.7524   -1.1141 C   0  0  0  0  0  0  0  0  0  0  0  0
   -3.7927   -2.4471   -1.0677 C   0  0  0  0  0  0  0  0  0  0  0  0
   -3.3520    0.4911    0.1515 C   0  0  0  0  0  0  0  0  0  0  0  0
   -4.8111    0.5065    0.2131 C   0  0  0  0  0  0  0  0  0  0  0  0
   -5.5000   -0.4156    0.9977 C   0  0  0  0  0  0  0  0  0  0  0  0
   -6.8815   -0.4055    1.0390 C   0  0  0  0  0  0  0  0  0  0  0  0
   -7.5950    0.5223    0.2989 C   0  0  0  0  0  0  0  0  0  0  0  0
   -6.9181    1.4407   -0.4867 C   0  0  0  0  0  0  0  0  0  0  0  0
   -5.5372    1.4342   -0.5320 C   0  0  0  0  0  0  0  0  0  0  0  0
   -2.5035    1.6257    0.1559 C   0  0  0  0  0  0  0  0  0  0  0  0
   -2.9442    3.0021    0.3444 C   0  0  0  0  0  0  0  0  0  0  0  0
   -3.8405    3.2769    1.3793 C   0  0  0  0  0  0  0  0  0  0  0  0
   -4.3000    4.5628    1.5814 C   0  0  0  0  0  0  0  0  0  0  0  0
   -3.8815    5.5902    0.7511 C   0  0  0  0  0  0  0  0  0  0  0  0
   -2.9970    5.3235   -0.2800 C   0  0  0  0  0  0  0  0  0  0  0  0
   -2.5283    4.0393   -0.4862 C   0  0  0  0  0  0  0  0  0  0  0  0
   -1.2290    1.2278    0.0384 N   0  0  0  0  0  4  0  0  0  0  0  0
    3.4813   -2.4694    1.6727 H   0  0  0  0  0  0  0  0  0  0  0  0
    4.1861   -4.7834    1.2330 H   0  0  0  0  0  0  0  0  0  0  0  0
    4.0127   -5.7179   -1.0432 H   0  0  0  0  0  0  0  0  0  0  0  0
    3.1560   -4.3148   -2.8827 H   0  0  0  0  0  0  0  0  0  0  0  0
    2.4864   -1.9849   -2.4483 H   0  0  0  0  0  0  0  0  0  0  0  0
    4.8186    2.0672   -1.5117 H   0  0  0  0  0  0  0  0  0  0  0  0
    7.2626    2.1990   -1.7161 H   0  0  0  0  0  0  0  0  0  0  0  0
    8.6994    0.6654   -0.4190 H   0  0  0  0  0  0  0  0  0  0  0  0
    7.6677   -0.9962    1.0862 H   0  0  0  0  0  0  0  0  0  0  0  0
    5.2304   -1.1127    1.3096 H   0  0  0  0  0  0  0  0  0  0  0  0
    4.3675    2.2648    1.9075 H   0  0  0  0  0  0  0  0  0  0  0  0
    5.2809    4.5023    2.3455 H   0  0  0  0  0  0  0  0  0  0  0  0
    4.4828    6.4417    1.0424 H   0  0  0  0  0  0  0  0  0  0  0  0
    2.7682    6.1229   -0.7031 H   0  0  0  0  0  0  0  0  0  0  0  0
    1.8652    3.8899   -1.1554 H   0  0  0  0  0  0  0  0  0  0  0  0
    0.7352   -2.7264    1.6460 H   0  0  0  0  0  0  0  0  0  0  0  0
    0.6817   -5.1718    1.3541 H   0  0  0  0  0  0  0  0  0  0  0  0
   -0.1237   -6.1445   -0.7640 H   0  0  0  0  0  0  0  0  0  0  0  0
   -0.8749   -4.6637   -2.5880 H   0  0  0  0  0  0  0  0  0  0  0  0
   -0.8129   -2.2183   -2.2950 H   0  0  0  0  0  0  0  0  0  0  0  0
   -2.1103   -2.5646    1.8587 H   0  0  0  0  0  0  0  0  0  0  0  0
   -2.9107   -4.8909    1.7702 H   0  0  0  0  0  0  0  0  0  0  0  0
   -4.2735   -5.6575   -0.1379 H   0  0  0  0  0  0  0  0  0  0  0  0
   -4.8541   -4.0797   -1.9438 H   0  0  0  0  0  0  0  0  0  0  0  0
   -4.0457   -1.7530   -1.8558 H   0  0  0  0  0  0  0  0  0  0  0  0
   -4.9475   -1.1341    1.5846 H   0  0  0  0  0  0  0  0  0  0  0  0
   -7.4037   -1.1243    1.6537 H   0  0  0  0  0  0  0  0  0  0  0  0
   -8.6744    0.5292    0.3333 H   0  0  0  0  0  0  0  0  0  0  0  0
   -7.4694    2.1642   -1.0693 H   0  0  0  0  0  0  0  0  0  0  0  0
   -5.0131    2.1438   -1.1550 H   0  0  0  0  0  0  0  0  0  0  0  0
   -4.1597    2.4785    2.0329 H   0  0  0  0  0  0  0  0  0  0  0  0
   -4.9870    4.7652    2.3901 H   0  0  0  0  0  0  0  0  0  0  0  0
   -4.2441    6.5954    0.9090 H   0  0  0  0  0  0  0  0  0  0  0  0
   -2.6695    6.1211   -0.9303 H   0  0  0  0  0  0  0  0  0  0  0  0
   -1.8512    3.8378   -1.2987 H   0  0  0  0  0  0  0  0  0  0  0  0
  1  2  1  0  0  0  0
  2  3  1  0  0  0  0
  2  4  1  0  0  0  0
  4  5  1  0  0  0  0
  5  6  2  0  0  0  0
  6  7  1  0  0  0  0
  7  8  2  0  0  0  0
  8  9  1  0  0  0  0
  9 10  2  0  0  0  0
 10 11  1  0  0  0  0
 11 12  2  0  0  0  0
  6 13  1  0  0  0  0
 13 14  1  0  0  0  0
 14 15  2  0  0  0  0
 15 16  1  0  0  0  0
 16 17  2  0  0  0  0
 17 18  1  0  0  0  0
 18 19  2  0  0  0  0
 13 20  2  0  0  0  0
 20 21  1  0  0  0  0
 21 22  2  0  0  0  0
 22 23  1  0  0  0  0
 23 24  2  0  0  0  0
 24 25  1  0  0  0  0
 25 26  2  0  0  0  0
  5 27  1  0  0  0  0
 27 28  1  0  0  0  0
 28 29  2  0  0  0  0
 29 30  1  0  0  0  0
 30 31  2  0  0  0  0
 31 32  1  0  0  0  0
 32 33  2  0  0  0  0
 27 34  2  0  0  0  0
 34 35  1  0  0  0  0
 35 36  1  0  0  0  0
 36 37  2  0  0  0  0
 37 38  1  0  0  0  0
 38 39  2  0  0  0  0
 39 40  1  0  0  0  0
 40 41  2  0  0  0  0
 35 42  2  0  0  0  0
 42 43  1  0  0  0  0
 43 44  2  0  0  0  0
 44 45  1  0  0  0  0
 45 46  2  0  0  0  0
 46 47  1  0  0  0  0
 47 48  2  0  0  0  0
 42 49  1  0  0  0  0
 49 50  1  0  0  0  0
 50 51  2  0  0  0  0
 51 52  1  0  0  0  0
 52 53  2  0  0  0  0
 53 54  1  0  0  0  0
 54 55  2  0  0  0  0
 49 56  2  0  0  0  0
 56  2  1  0  0  0  0
 20  4  1  0  0  0  0
 26 21  1  0  0  0  0
 33 28  1  0  0  0  0
 56 34  1  0  0  0  0
 12  7  1  0  0  0  0
 19 14  1  0  0  0  0
 41 36  1  0  0  0  0
 48 43  1  0  0  0  0
 55 50  1  0  0  0  0
  8 57  1  0  0  0  0
  9 58  1  0  0  0  0
 10 59  1  0  0  0  0
 11 60  1  0  0  0  0
 12 61  1  0  0  0  0
 15 62  1  0  0  0  0
 16 63  1  0  0  0  0
 17 64  1  0  0  0  0
 18 65  1  0  0  0  0
 19 66  1  0  0  0  0
 22 67  1  0  0  0  0
 23 68  1  0  0  0  0
 24 69  1  0  0  0  0
 25 70  1  0  0  0  0
 26 71  1  0  0  0  0
 29 72  1  0  0  0  0
 30 73  1  0  0  0  0
 31 74  1  0  0  0  0
 32 75  1  0  0  0  0
 33 76  1  0  0  0  0
 37 77  1  0  0  0  0
 38 78  1  0  0  0  0
 39 79  1  0  0  0  0
 40 80  1  0  0  0  0
 41 81  1  0  0  0  0
 44 82  1  0  0  0  0
 45 83  1  0  0  0  0
 46 84  1  0  0  0  0
 47 85  1  0  0  0  0
 48 86  1  0  0  0  0
 51 87  1  0  0  0  0
 52 88  1  0  0  0  0
 53 89  1  0  0  0  0
 54 90  1  0  0  0  0
 55 91  1  0  0  0  0
M  CHG  1   2  -1
M  CHG  1  56   1
M  END
