
  xtb     03022212593D
 energy: -83.995361371543 gnorm: 0.000056085381 xtb: 6.4.1 (afa7bdf)
 56 62  0     0  0            999 V2000
    2.4160   -1.8846   -1.4697 C   0  0  0  0  0  0  0  0  0  0  0  0
    3.4315   -1.0584   -1.1547 C   0  0  0  0  0  0  0  0  0  0  0  0
    4.8478   -1.3921   -1.3363 C   0  0  0  0  0  0  0  0  0  0  0  0
    5.4483   -2.5307   -1.8419 C   0  0  0  0  0  0  0  0  0  0  0  0
    6.8336   -2.6050   -1.8578 C   0  0  0  0  0  0  0  0  0  0  0  0
    7.6095   -1.5647   -1.3688 C   0  0  0  0  0  0  0  0  0  0  0  0
    7.0191   -0.4199   -0.8546 C   0  0  0  0  0  0  0  0  0  0  0  0
    5.6392   -0.3360   -0.8423 C   0  0  0  0  0  0  0  0  0  0  0  0
    4.7483    0.7225   -0.3968 C   0  0  0  0  0  0  0  0  0  0  0  0
    5.0291    1.9796    0.1054 C   0  0  0  0  0  0  0  0  0  0  0  0
    3.9745    2.8334    0.3900 C   0  0  0  0  0  0  0  0  0  0  0  0
    2.6669    2.4403    0.1500 C   0  0  0  0  0  0  0  0  0  0  0  0
    2.3767    1.1784   -0.3476 C   0  0  0  0  0  0  0  0  0  0  0  0
    3.4162    0.2985   -0.5972 C   0  0  0  0  0  0  0  0  0  0  0  0
    1.0049   -1.7166   -1.1628 C   0  0  0  0  0  0  0  0  0  0  0  0
    0.0328   -2.0255   -2.1161 C   0  0  0  0  0  0  0  0  0  0  0  0
   -1.3080   -1.8790   -1.8298 C   0  0  0  0  0  0  0  0  0  0  0  0
   -1.7256   -1.4182   -0.5799 C   0  0  0  0  0  0  0  0  0  0  0  0
   -3.1417   -1.2776   -0.2828 C   0  0  0  0  0  0  0  0  0  0  0  0
   -3.7483   -0.2756    0.3813 C   0  0  0  0  0  0  0  0  0  0  0  0
   -5.1519   -0.3024    0.8048 C   0  0  0  0  0  0  0  0  0  0  0  0
   -6.1270   -1.2682    0.6340 C   0  0  0  0  0  0  0  0  0  0  0  0
   -7.3818   -1.0562    1.1864 C   0  0  0  0  0  0  0  0  0  0  0  0
   -7.6590    0.0963    1.9063 C   0  0  0  0  0  0  0  0  0  0  0  0
   -6.6881    1.0699    2.0886 C   0  0  0  0  0  0  0  0  0  0  0  0
   -5.4376    0.8687    1.5346 C   0  0  0  0  0  0  0  0  0  0  0  0
   -4.2452    1.6998    1.5351 C   0  0  0  0  0  0  0  0  0  0  0  0
   -4.0317    2.9626    2.0556 C   0  0  0  0  0  0  0  0  0  0  0  0
   -2.8014    3.5679    1.8503 C   0  0  0  0  0  0  0  0  0  0  0  0
   -1.8164    2.9272    1.1146 C   0  0  0  0  0  0  0  0  0  0  0  0
   -2.0205    1.6574    0.5948 C   0  0  0  0  0  0  0  0  0  0  0  0
   -3.2284    1.0218    0.8273 C   0  0  0  0  0  0  0  0  0  0  0  0
   -0.7552   -1.1750    0.3957 C   0  0  0  0  0  0  0  0  0  0  0  0
    0.5843   -1.3213    0.1097 C   0  0  0  0  0  0  0  0  0  0  0  0
    2.6582   -2.7958   -2.0053 H   0  0  0  0  0  0  0  0  0  0  0  0
    4.8594   -3.3517   -2.2243 H   0  0  0  0  0  0  0  0  0  0  0  0
    7.3151   -3.4866   -2.2554 H   0  0  0  0  0  0  0  0  0  0  0  0
    8.6864   -1.6484   -1.3895 H   0  0  0  0  0  0  0  0  0  0  0  0
    7.6267    0.3869   -0.4721 H   0  0  0  0  0  0  0  0  0  0  0  0
    6.0498    2.2955    0.2629 H   0  0  0  0  0  0  0  0  0  0  0  0
    4.1730    3.8187    0.7860 H   0  0  0  0  0  0  0  0  0  0  0  0
    1.8588    3.1286    0.3507 H   0  0  0  0  0  0  0  0  0  0  0  0
    1.3528    0.9028   -0.5454 H   0  0  0  0  0  0  0  0  0  0  0  0
    0.3410   -2.3629   -3.0956 H   0  0  0  0  0  0  0  0  0  0  0  0
   -2.0478   -2.1018   -2.5857 H   0  0  0  0  0  0  0  0  0  0  0  0
   -3.7623   -2.0938   -0.6354 H   0  0  0  0  0  0  0  0  0  0  0  0
   -5.9278   -2.1731    0.0785 H   0  0  0  0  0  0  0  0  0  0  0  0
   -8.1542   -1.8002    1.0551 H   0  0  0  0  0  0  0  0  0  0  0  0
   -8.6432    0.2362    2.3293 H   0  0  0  0  0  0  0  0  0  0  0  0
   -6.9070    1.9647    2.6524 H   0  0  0  0  0  0  0  0  0  0  0  0
   -4.8110    3.4732    2.6020 H   0  0  0  0  0  0  0  0  0  0  0  0
   -2.6140    4.5532    2.2516 H   0  0  0  0  0  0  0  0  0  0  0  0
   -0.8739    3.4253    0.9398 H   0  0  0  0  0  0  0  0  0  0  0  0
   -1.2467    1.1876    0.0084 H   0  0  0  0  0  0  0  0  0  0  0  0
   -1.0674   -0.8863    1.3886 H   0  0  0  0  0  0  0  0  0  0  0  0
    1.3231   -1.1474    0.8782 H   0  0  0  0  0  0  0  0  0  0  0  0
  1  2  2  0  0  0  0
  2  3  1  0  0  0  0
  3  4  2  0  0  0  0
  4  5  1  0  0  0  0
  5  6  2  0  0  0  0
  6  7  1  0  0  0  0
  7  8  2  0  0  0  0
  8  9  1  0  0  0  0
  9 10  2  0  0  0  0
 10 11  1  0  0  0  0
 11 12  2  0  0  0  0
 12 13  1  0  0  0  0
 13 14  2  0  0  0  0
  1 15  1  0  0  0  0
 15 16  2  0  0  0  0
 16 17  1  0  0  0  0
 17 18  2  0  0  0  0
 18 19  1  0  0  0  0
 19 20  2  0  0  0  0
 20 21  1  0  0  0  0
 21 22  2  0  0  0  0
 22 23  1  0  0  0  0
 23 24  2  0  0  0  0
 24 25  1  0  0  0  0
 25 26  2  0  0  0  0
 26 27  1  0  0  0  0
 27 28  2  0  0  0  0
 28 29  1  0  0  0  0
 29 30  2  0  0  0  0
 30 31  1  0  0  0  0
 31 32  2  0  0  0  0
 18 33  1  0  0  0  0
 33 34  2  0  0  0  0
 14  2  1  0  0  0  0
 34 15  1  0  0  0  0
  8  3  1  0  0  0  0
 14  9  1  0  0  0  0
 32 20  1  0  0  0  0
 26 21  1  0  0  0  0
 32 27  1  0  0  0  0
  1 35  1  0  0  0  0
  4 36  1  0  0  0  0
  5 37  1  0  0  0  0
  6 38  1  0  0  0  0
  7 39  1  0  0  0  0
 10 40  1  0  0  0  0
 11 41  1  0  0  0  0
 12 42  1  0  0  0  0
 13 43  1  0  0  0  0
 16 44  1  0  0  0  0
 17 45  1  0  0  0  0
 19 46  1  0  0  0  0
 22 47  1  0  0  0  0
 23 48  1  0  0  0  0
 24 49  1  0  0  0  0
 25 50  1  0  0  0  0
 28 51  1  0  0  0  0
 29 52  1  0  0  0  0
 30 53  1  0  0  0  0
 31 54  1  0  0  0  0
 33 55  1  0  0  0  0
 34 56  1  0  0  0  0
M  END
