
  xtb     03022212383D
 energy: -62.153996067970 gnorm: 0.000241855892 xtb: 6.4.1 (afa7bdf)
 38 39  0     0  0            999 V2000
   -8.1345   -1.3580    0.4509 N   0  0  0  0  0  0  0  0  0  0  0  0
   -6.7313   -1.2067    0.4848 N   0  0  0  0  0  0  0  0  0  0  0  0
   -6.1706    0.0270    0.3758 C   0  0  0  0  0  0  0  0  0  0  0  0
   -6.8586    1.0334    0.3914 O   0  0  0  0  0  0  0  0  0  0  0  0
   -4.6911    0.0493    0.2467 C   0  0  0  0  0  0  0  0  0  0  0  0
   -4.1098    1.1525   -0.3740 C   0  0  0  0  0  0  0  0  0  0  0  0
   -2.7424    1.2339   -0.5191 C   0  0  0  0  0  0  0  0  0  0  0  0
   -1.9021    0.2250   -0.0346 C   0  0  0  0  0  0  0  0  0  0  0  0
   -0.4711    0.3637   -0.2190 C   0  0  0  0  0  0  0  0  0  0  0  0
    0.4762   -0.4746    0.2283 C   0  0  0  0  0  0  0  0  0  0  0  0
    1.9070   -0.3343    0.0428 C   0  0  0  0  0  0  0  0  0  0  0  0
    2.4878    0.6599   -0.7510 C   0  0  0  0  0  0  0  0  0  0  0  0
    3.8569    0.7531   -0.8890 C   0  0  0  0  0  0  0  0  0  0  0  0
    4.6957   -0.1493   -0.2382 C   0  0  0  0  0  0  0  0  0  0  0  0
    6.1764   -0.1158   -0.3524 C   0  0  0  0  0  0  0  0  0  0  0  0
    6.8805   -1.1086   -0.2798 O   0  0  0  0  0  0  0  0  0  0  0  0
    6.7192    1.1153   -0.5204 N   0  0  0  0  0  0  0  0  0  0  0  0
    8.0972    1.2833   -0.7629 N   0  0  0  0  0  0  0  0  0  0  0  0
    4.1267   -1.1604    0.5328 C   0  0  0  0  0  0  0  0  0  0  0  0
    2.7593   -1.2473    0.6743 C   0  0  0  0  0  0  0  0  0  0  0  0
   -2.4955   -0.8668    0.6077 C   0  0  0  0  0  0  0  0  0  0  0  0
   -3.8646   -0.9560    0.7447 C   0  0  0  0  0  0  0  0  0  0  0  0
   -8.4839   -1.4533    1.4062 H   0  0  0  0  0  0  0  0  0  0  0  0
   -8.5112   -0.4796    0.0867 H   0  0  0  0  0  0  0  0  0  0  0  0
   -6.2220   -2.0421    0.2395 H   0  0  0  0  0  0  0  0  0  0  0  0
   -4.7557    1.9370   -0.7388 H   0  0  0  0  0  0  0  0  0  0  0  0
   -2.3082    2.0928   -1.0107 H   0  0  0  0  0  0  0  0  0  0  0  0
   -0.1803    1.2479   -0.7706 H   0  0  0  0  0  0  0  0  0  0  0  0
    0.1879   -1.3477    0.7985 H   0  0  0  0  0  0  0  0  0  0  0  0
    1.8619    1.3633   -1.2777 H   0  0  0  0  0  0  0  0  0  0  0  0
    4.2677    1.5149   -1.5364 H   0  0  0  0  0  0  0  0  0  0  0  0
    6.1640    1.9484   -0.6344 H   0  0  0  0  0  0  0  0  0  0  0  0
    8.4421    0.3781   -1.0886 H   0  0  0  0  0  0  0  0  0  0  0  0
    8.5778    1.4815    0.1175 H   0  0  0  0  0  0  0  0  0  0  0  0
    4.7813   -1.8714    1.0138 H   0  0  0  0  0  0  0  0  0  0  0  0
    2.3347   -2.0337    1.2818 H   0  0  0  0  0  0  0  0  0  0  0  0
   -1.8795   -1.6582    1.0055 H   0  0  0  0  0  0  0  0  0  0  0  0
   -4.2874   -1.8018    1.2677 H   0  0  0  0  0  0  0  0  0  0  0  0
  1  2  1  0  0  0  0
  2  3  1  0  0  0  0
  3  4  2  0  0  0  0
  3  5  1  0  0  0  0
  5  6  2  0  0  0  0
  6  7  1  0  0  0  0
  7  8  2  0  0  0  0
  8  9  1  0  0  0  0
  9 10  2  0  0  0  0
 10 11  1  0  0  0  0
 11 12  2  0  0  0  0
 12 13  1  0  0  0  0
 13 14  2  0  0  0  0
 14 15  1  0  0  0  0
 15 16  2  0  0  0  0
 15 17  1  0  0  0  0
 17 18  1  0  0  0  0
 14 19  1  0  0  0  0
 19 20  2  0  0  0  0
  8 21  1  0  0  0  0
 21 22  2  0  0  0  0
 22  5  1  0  0  0  0
 20 11  1  0  0  0  0
  1 23  1  0  0  0  0
  1 24  1  0  0  0  0
  2 25  1  0  0  0  0
  6 26  1  0  0  0  0
  7 27  1  0  0  0  0
  9 28  1  0  0  0  0
 10 29  1  0  0  0  0
 12 30  1  0  0  0  0
 13 31  1  0  0  0  0
 17 32  1  0  0  0  0
 18 33  1  0  0  0  0
 18 34  1  0  0  0  0
 19 35  1  0  0  0  0
 20 36  1  0  0  0  0
 21 37  1  0  0  0  0
 22 38  1  0  0  0  0
M  END
