
  xtb     03022215203D
 energy: -65.011075053809 gnorm: 0.000259725704 xtb: 6.4.1 (afa7bdf)
 36 39  0     0  0            999 V2000
    7.2959   -0.2503   -0.4530 C   0  0  0  0  0  0  0  0  0  0  0  0
    5.8218   -0.2966   -0.2935 C   0  0  0  0  0  0  0  0  0  0  0  0
    5.0597   -1.3160    0.2258 C   0  0  0  0  0  0  0  0  0  0  0  0
    3.7405   -1.1209    0.2503 N   0  0  0  0  0  0  0  0  0  0  0  0
    3.4021    0.0359   -0.2321 C   0  0  0  0  0  0  0  0  0  0  0  0
    2.2186    0.6364   -0.3291 N   0  0  0  0  0  0  0  0  0  0  0  0
    1.1528   -0.0607   -0.1242 N   0  0  0  0  0  0  0  0  0  0  0  0
    0.0053    0.5582   -0.0876 C   0  0  0  0  0  0  0  0  0  0  0  0
   -0.1716    2.3381   -0.1290 S   0  0  0  0  0  0  0  0  0  0  0  0
   -1.8890    2.1961    0.0404 C   0  0  0  0  0  0  0  0  0  0  0  0
   -2.7214    3.3519    0.0977 C   0  0  0  0  0  0  0  0  0  0  0  0
   -4.0890    3.4091    0.2443 C   0  0  0  0  0  0  0  0  0  0  0  0
   -4.5845    4.7221    0.2643 C   0  0  0  0  0  0  0  0  0  0  0  0
   -3.6021    5.6563    0.1333 C   0  0  0  0  0  0  0  0  0  0  0  0
   -2.0471    4.9519   -0.0176 S   0  0  0  0  0  0  0  0  0  0  0  0
   -2.2993    0.8805    0.1106 C   0  0  0  0  0  0  0  0  0  0  0  0
   -1.2544   -0.0491    0.0433 C   0  0  0  0  0  0  0  0  0  0  0  0
   -1.4366   -1.4643    0.0988 C   0  0  0  0  0  0  0  0  0  0  0  0
   -0.5316   -2.3648   -0.0649 N   0  0  0  0  0  0  0  0  0  0  0  0
   -1.0096   -3.6118    0.0521 C   0  0  0  0  0  0  0  0  0  0  0  0
   -2.3468   -3.7253    0.3171 C   0  0  0  0  0  0  0  0  0  0  0  0
   -3.1533   -4.9570    0.5004 C   0  0  0  0  0  0  0  0  0  0  0  0
   -3.0456   -2.1470    0.4234 S   0  0  0  0  0  0  0  0  0  0  0  0
    4.7977    1.0086   -0.7688 S   0  0  0  0  0  0  0  0  0  0  0  0
    7.5624   -0.1188   -1.5013 H   0  0  0  0  0  0  0  0  0  0  0  0
    7.7388   -1.1740   -0.0883 H   0  0  0  0  0  0  0  0  0  0  0  0
    7.7149    0.5880    0.1026 H   0  0  0  0  0  0  0  0  0  0  0  0
    5.4563   -2.2419    0.6044 H   0  0  0  0  0  0  0  0  0  0  0  0
   -4.7104    2.5373    0.3348 H   0  0  0  0  0  0  0  0  0  0  0  0
   -5.6263    4.9654    0.3715 H   0  0  0  0  0  0  0  0  0  0  0  0
   -3.7008    6.7235    0.1169 H   0  0  0  0  0  0  0  0  0  0  0  0
   -3.3299    0.5902    0.2121 H   0  0  0  0  0  0  0  0  0  0  0  0
   -0.3345   -4.4401   -0.0667 H   0  0  0  0  0  0  0  0  0  0  0  0
   -3.9712   -4.9917   -0.2189 H   0  0  0  0  0  0  0  0  0  0  0  0
   -3.5874   -4.9855    1.5000 H   0  0  0  0  0  0  0  0  0  0  0  0
   -2.5244   -5.8336    0.3643 H   0  0  0  0  0  0  0  0  0  0  0  0
  1  2  1  0  0  0  0
  2  3  2  0  0  0  0
  3  4  1  0  0  0  0
  4  5  2  0  0  0  0
  5  6  1  0  0  0  0
  6  7  2  0  0  0  0
  7  8  1  0  0  0  0
  8  9  1  0  0  0  0
  9 10  1  0  0  0  0
 10 11  1  0  0  0  0
 11 12  2  0  0  0  0
 12 13  1  0  0  0  0
 13 14  2  0  0  0  0
 14 15  1  0  0  0  0
 10 16  2  0  0  0  0
 16 17  1  0  0  0  0
 17 18  1  0  0  0  0
 18 19  2  0  0  0  0
 19 20  1  0  0  0  0
 20 21  2  0  0  0  0
 21 22  1  0  0  0  0
 21 23  1  0  0  0  0
  5 24  1  0  0  0  0
 24  2  1  0  0  0  0
 17  8  2  0  0  0  0
 23 18  1  0  0  0  0
 15 11  1  0  0  0  0
  1 25  1  0  0  0  0
  1 26  1  0  0  0  0
  1 27  1  0  0  0  0
  3 28  1  0  0  0  0
 12 29  1  0  0  0  0
 13 30  1  0  0  0  0
 14 31  1  0  0  0  0
 16 32  1  0  0  0  0
 20 33  1  0  0  0  0
 22 34  1  0  0  0  0
 22 35  1  0  0  0  0
 22 36  1  0  0  0  0
M  END
