
  xtb     03022215323D
 energy: -118.414706638486 gnorm: 0.000156443369 xtb: 6.4.1 (afa7bdf)
 74 83  0     0  0            999 V2000
   10.0301   -3.4109    1.1797 C   0  0  0  0  0  0  0  0  0  0  0  0
    9.1996   -3.4001    0.0714 C   0  0  0  0  0  0  0  0  0  0  0  0
    8.4415   -2.2816   -0.2213 C   0  0  0  0  0  0  0  0  0  0  0  0
    8.5039   -1.1648    0.6066 C   0  0  0  0  0  0  0  0  0  0  0  0
    7.7313   -0.0297    0.3173 N   0  0  0  0  0  0  0  0  0  0  0  0
    8.1986    1.2682    0.2396 C   0  0  0  0  0  0  0  0  0  0  0  0
    9.4930    1.7506    0.3691 C   0  0  0  0  0  0  0  0  0  0  0  0
    9.6926    3.1092    0.2158 C   0  0  0  0  0  0  0  0  0  0  0  0
    8.6368    3.9731   -0.0674 C   0  0  0  0  0  0  0  0  0  0  0  0
    7.3506    3.4960   -0.2198 C   0  0  0  0  0  0  0  0  0  0  0  0
    7.1250    2.1340   -0.0705 C   0  0  0  0  0  0  0  0  0  0  0  0
    5.9552    1.3079   -0.1813 C   0  0  0  0  0  0  0  0  0  0  0  0
    4.6237    1.5789   -0.4512 C   0  0  0  0  0  0  0  0  0  0  0  0
    3.7079    0.5334   -0.4648 C   0  0  0  0  0  0  0  0  0  0  0  0
    2.2903    0.7893   -0.7463 C   0  0  0  0  0  0  0  0  0  0  0  0
    1.9255    1.7551   -1.7183 C   0  0  0  0  0  0  0  0  0  0  0  0
    0.6190    2.0133   -2.0023 C   0  0  0  0  0  0  0  0  0  0  0  0
   -0.3351    1.3341   -1.3418 N   0  0  0  0  0  0  0  0  0  0  0  0
   -1.6514    1.4348   -1.4724 N   0  0  0  0  0  0  0  0  0  0  0  0
   -2.1275    0.5414   -0.6023 C   0  0  0  0  0  0  0  0  0  0  0  0
   -3.5434    0.3020   -0.4155 C   0  0  0  0  0  0  0  0  0  0  0  0
   -3.9701   -0.6868    0.4693 C   0  0  0  0  0  0  0  0  0  0  0  0
   -5.3162   -0.9275    0.6461 C   0  0  0  0  0  0  0  0  0  0  0  0
   -6.2580   -0.1846   -0.0634 C   0  0  0  0  0  0  0  0  0  0  0  0
   -7.6257   -0.4352    0.1065 N   0  0  0  0  0  0  0  0  0  0  0  0
   -8.5947    0.5115    0.3732 C   0  0  0  0  0  0  0  0  0  0  0  0
   -8.4603    1.8744    0.5964 C   0  0  0  0  0  0  0  0  0  0  0  0
   -9.6038    2.5975    0.8765 C   0  0  0  0  0  0  0  0  0  0  0  0
  -10.8539    1.9859    0.9430 C   0  0  0  0  0  0  0  0  0  0  0  0
  -10.9905    0.6265    0.7453 C   0  0  0  0  0  0  0  0  0  0  0  0
   -9.8555   -0.1221    0.4629 C   0  0  0  0  0  0  0  0  0  0  0  0
   -9.6268   -1.5205    0.2292 C   0  0  0  0  0  0  0  0  0  0  0  0
  -10.4620   -2.6282    0.1684 C   0  0  0  0  0  0  0  0  0  0  0  0
   -9.9063   -3.8611   -0.1087 C   0  0  0  0  0  0  0  0  0  0  0  0
   -8.5386   -3.9952   -0.3380 C   0  0  0  0  0  0  0  0  0  0  0  0
   -7.6874   -2.9084   -0.2828 C   0  0  0  0  0  0  0  0  0  0  0  0
   -8.2367   -1.6703    0.0182 C   0  0  0  0  0  0  0  0  0  0  0  0
   -5.8331    0.8064   -0.9467 C   0  0  0  0  0  0  0  0  0  0  0  0
   -4.4868    1.0486   -1.1195 C   0  0  0  0  0  0  0  0  0  0  0  0
   -1.1761   -0.1233    0.0799 N   0  0  0  0  0  0  0  0  0  0  0  0
   -0.0384    0.3732   -0.3825 C   0  0  0  0  0  0  0  0  0  0  0  0
    1.2970    0.1031   -0.0818 C   0  0  0  0  0  0  0  0  0  0  0  0
    4.1430   -0.7729   -0.1961 C   0  0  0  0  0  0  0  0  0  0  0  0
    5.4639   -1.0651    0.0688 C   0  0  0  0  0  0  0  0  0  0  0  0
    6.3780   -0.0201    0.0624 C   0  0  0  0  0  0  0  0  0  0  0  0
    9.3347   -1.1784    1.7229 C   0  0  0  0  0  0  0  0  0  0  0  0
   10.0971   -2.2978    2.0012 C   0  0  0  0  0  0  0  0  0  0  0  0
   10.6235   -4.2845    1.4028 H   0  0  0  0  0  0  0  0  0  0  0  0
    9.1474   -4.2644   -0.5740 H   0  0  0  0  0  0  0  0  0  0  0  0
    7.8097   -2.2608   -1.0967 H   0  0  0  0  0  0  0  0  0  0  0  0
   10.3203    1.0872    0.5710 H   0  0  0  0  0  0  0  0  0  0  0  0
   10.6906    3.5100    0.3141 H   0  0  0  0  0  0  0  0  0  0  0  0
    8.8343    5.0290   -0.1771 H   0  0  0  0  0  0  0  0  0  0  0  0
    6.5347    4.1631   -0.4541 H   0  0  0  0  0  0  0  0  0  0  0  0
    4.3019    2.5960   -0.6157 H   0  0  0  0  0  0  0  0  0  0  0  0
    2.6954    2.2802   -2.2595 H   0  0  0  0  0  0  0  0  0  0  0  0
    0.2859    2.7313   -2.7347 H   0  0  0  0  0  0  0  0  0  0  0  0
   -3.2279   -1.2503    1.0126 H   0  0  0  0  0  0  0  0  0  0  0  0
   -5.6509   -1.6805    1.3441 H   0  0  0  0  0  0  0  0  0  0  0  0
   -7.4936    2.3539    0.5645 H   0  0  0  0  0  0  0  0  0  0  0  0
   -9.5262    3.6605    1.0518 H   0  0  0  0  0  0  0  0  0  0  0  0
  -11.7242    2.5868    1.1618 H   0  0  0  0  0  0  0  0  0  0  0  0
  -11.9568    0.1497    0.8127 H   0  0  0  0  0  0  0  0  0  0  0  0
  -11.5241   -2.5213    0.3302 H   0  0  0  0  0  0  0  0  0  0  0  0
  -10.5379   -4.7357   -0.1590 H   0  0  0  0  0  0  0  0  0  0  0  0
   -8.1350   -4.9703   -0.5682 H   0  0  0  0  0  0  0  0  0  0  0  0
   -6.6317   -3.0194   -0.4796 H   0  0  0  0  0  0  0  0  0  0  0  0
   -6.5666    1.3682   -1.5058 H   0  0  0  0  0  0  0  0  0  0  0  0
   -4.1440    1.8076   -1.8050 H   0  0  0  0  0  0  0  0  0  0  0  0
    1.5136   -0.6255    0.6812 H   0  0  0  0  0  0  0  0  0  0  0  0
    3.4227   -1.5767   -0.2180 H   0  0  0  0  0  0  0  0  0  0  0  0
    5.7719   -2.0773    0.2826 H   0  0  0  0  0  0  0  0  0  0  0  0
    9.3671   -0.3169    2.3730 H   0  0  0  0  0  0  0  0  0  0  0  0
   10.7403   -2.3035    2.8686 H   0  0  0  0  0  0  0  0  0  0  0  0
  1  2  2  0  0  0  0
  2  3  1  0  0  0  0
  3  4  2  0  0  0  0
  4  5  1  0  0  0  0
  5  6  1  0  0  0  0
  6  7  2  0  0  0  0
  7  8  1  0  0  0  0
  8  9  2  0  0  0  0
  9 10  1  0  0  0  0
 10 11  2  0  0  0  0
 11 12  1  0  0  0  0
 12 13  2  0  0  0  0
 13 14  1  0  0  0  0
 14 15  1  0  0  0  0
 15 16  1  0  0  0  0
 16 17  2  0  0  0  0
 17 18  1  0  0  0  0
 18 19  1  0  0  0  0
 19 20  2  0  0  0  0
 20 21  1  0  0  0  0
 21 22  2  0  0  0  0
 22 23  1  0  0  0  0
 23 24  2  0  0  0  0
 24 25  1  0  0  0  0
 25 26  1  0  0  0  0
 26 27  2  0  0  0  0
 27 28  1  0  0  0  0
 28 29  2  0  0  0  0
 29 30  1  0  0  0  0
 30 31  2  0  0  0  0
 31 32  1  0  0  0  0
 32 33  2  0  0  0  0
 33 34  1  0  0  0  0
 34 35  2  0  0  0  0
 35 36  1  0  0  0  0
 36 37  2  0  0  0  0
 24 38  1  0  0  0  0
 38 39  2  0  0  0  0
 20 40  1  0  0  0  0
 40 41  2  0  0  0  0
 41 42  1  0  0  0  0
 14 43  2  0  0  0  0
 43 44  1  0  0  0  0
 44 45  2  0  0  0  0
  4 46  1  0  0  0  0
 46 47  2  0  0  0  0
 47  1  1  0  0  0  0
 45  5  1  0  0  0  0
 11  6  1  0  0  0  0
 45 12  1  0  0  0  0
 42 15  2  0  0  0  0
 41 18  1  0  0  0  0
 39 21  1  0  0  0  0
 37 25  1  0  0  0  0
 31 26  1  0  0  0  0
 37 32  1  0  0  0  0
  1 48  1  0  0  0  0
  2 49  1  0  0  0  0
  3 50  1  0  0  0  0
  7 51  1  0  0  0  0
  8 52  1  0  0  0  0
  9 53  1  0  0  0  0
 10 54  1  0  0  0  0
 13 55  1  0  0  0  0
 16 56  1  0  0  0  0
 17 57  1  0  0  0  0
 22 58  1  0  0  0  0
 23 59  1  0  0  0  0
 27 60  1  0  0  0  0
 28 61  1  0  0  0  0
 29 62  1  0  0  0  0
 30 63  1  0  0  0  0
 33 64  1  0  0  0  0
 34 65  1  0  0  0  0
 35 66  1  0  0  0  0
 36 67  1  0  0  0  0
 38 68  1  0  0  0  0
 39 69  1  0  0  0  0
 42 70  1  0  0  0  0
 43 71  1  0  0  0  0
 44 72  1  0  0  0  0
 46 73  1  0  0  0  0
 47 74  1  0  0  0  0
M  END
