
  xtb     03022213503D
 energy: -95.522078748805 gnorm: 0.000296220890 xtb: 6.4.1 (afa7bdf)
 61 64  0     0  0            999 V2000
   -1.4780    5.6087   -0.8243 C   0  0  0  0  0  0  0  0  0  0  0  0
   -1.6489    4.9393    0.5413 C   0  0  0  0  0  0  0  0  0  0  0  0
   -1.6098    3.4503    0.4183 C   0  0  0  0  0  0  0  0  0  0  0  0
   -0.5032    2.6215    0.5283 C   0  0  0  0  0  0  0  0  0  0  0  0
    0.8945    3.0421    0.8204 C   0  0  0  0  0  0  0  0  0  0  0  0
   -0.9659    1.2919    0.3137 C   0  0  0  0  0  0  0  0  0  0  0  0
   -0.2835    0.0729    0.3054 C   0  0  0  0  0  0  0  0  0  0  0  0
    1.1665    0.0658    0.5128 C   0  0  0  0  0  0  0  0  0  0  0  0
    2.0264   -0.2633   -0.4557 C   0  0  0  0  0  0  0  0  0  0  0  0
    3.4739   -0.2775   -0.3547 C   0  0  0  0  0  0  0  0  0  0  0  0
    4.1639    0.1865    0.7718 C   0  0  0  0  0  0  0  0  0  0  0  0
    5.5392    0.1471    0.8236 C   0  0  0  0  0  0  0  0  0  0  0  0
    6.2523   -0.3602   -0.2582 C   0  0  0  0  0  0  0  0  0  0  0  0
    7.6877   -0.4026   -0.2049 N   0  0  0  0  0  4  0  0  0  0  0  0
    8.2275    0.0165    0.7984 O   0  0  0  0  0  0  0  0  0  0  0  0
    8.2749   -0.8552   -1.1658 O   0  0  0  0  0  1  0  0  0  0  0  0
    5.5914   -0.8230   -1.3911 C   0  0  0  0  0  0  0  0  0  0  0  0
    4.2156   -0.7765   -1.4332 C   0  0  0  0  0  0  0  0  0  0  0  0
   -0.9720   -1.1195    0.0722 C   0  0  0  0  0  0  0  0  0  0  0  0
   -0.5474   -2.4779    0.1263 C   0  0  0  0  0  0  0  0  0  0  0  0
    0.7970   -2.9926    0.5090 C   0  0  0  0  0  0  0  0  0  0  0  0
   -1.6537   -3.2523   -0.1901 C   0  0  0  0  0  0  0  0  0  0  0  0
   -1.7328   -4.7434   -0.2517 C   0  0  0  0  0  0  0  0  0  0  0  0
   -2.2642   -5.3234    1.0609 C   0  0  0  0  0  0  0  0  0  0  0  0
   -2.7329   -2.3713   -0.4051 C   0  0  0  0  0  0  0  0  0  0  0  0
   -4.1346   -2.6924   -0.7518 C   0  0  0  0  0  0  0  0  0  0  0  0
   -2.3194   -1.1117   -0.2348 N   0  0  0  0  0  0  0  0  0  0  0  0
   -3.2041    0.1469   -0.3104 B   0  0  0  0  0  4  0  0  0  0  0  0
   -3.7045    0.3066   -1.5939 F   0  0  0  0  0  0  0  0  0  0  0  0
   -4.2584    0.0332    0.5804 F   0  0  0  0  0  0  0  0  0  0  0  0
   -2.3210    1.3529    0.0593 N   0  0  0  0  0  4  0  0  0  0  0  0
   -2.7150    2.6299    0.1139 C   0  0  0  0  0  0  0  0  0  0  0  0
   -4.1213    3.0182   -0.1309 C   0  0  0  0  0  0  0  0  0  0  0  0
   -0.5233    5.3314   -1.2656 H   0  0  0  0  0  0  0  0  0  0  0  0
   -2.2689    5.2952   -1.5013 H   0  0  0  0  0  0  0  0  0  0  0  0
   -1.5136    6.6912   -0.7248 H   0  0  0  0  0  0  0  0  0  0  0  0
   -0.8578    5.2758    1.2137 H   0  0  0  0  0  0  0  0  0  0  0  0
   -2.6021    5.2443    0.9773 H   0  0  0  0  0  0  0  0  0  0  0  0
    1.5913    2.5882    0.1179 H   0  0  0  0  0  0  0  0  0  0  0  0
    0.9845    4.1224    0.7484 H   0  0  0  0  0  0  0  0  0  0  0  0
    1.1845    2.7454    1.8292 H   0  0  0  0  0  0  0  0  0  0  0  0
    1.5062    0.3771    1.4908 H   0  0  0  0  0  0  0  0  0  0  0  0
    1.6257   -0.5527   -1.4188 H   0  0  0  0  0  0  0  0  0  0  0  0
    3.6196    0.5878    1.6114 H   0  0  0  0  0  0  0  0  0  0  0  0
    6.0800    0.5035    1.6870 H   0  0  0  0  0  0  0  0  0  0  0  0
    6.1691   -1.2086   -2.2172 H   0  0  0  0  0  0  0  0  0  0  0  0
    3.6965   -1.1329   -2.3104 H   0  0  0  0  0  0  0  0  0  0  0  0
    1.4826   -2.9762   -0.3383 H   0  0  0  0  0  0  0  0  0  0  0  0
    1.2313   -2.3886    1.3025 H   0  0  0  0  0  0  0  0  0  0  0  0
    0.7147   -4.0186    0.8584 H   0  0  0  0  0  0  0  0  0  0  0  0
   -2.3932   -5.0396   -1.0695 H   0  0  0  0  0  0  0  0  0  0  0  0
   -0.7445   -5.1562   -0.4603 H   0  0  0  0  0  0  0  0  0  0  0  0
   -2.3203   -6.4080    1.0023 H   0  0  0  0  0  0  0  0  0  0  0  0
   -1.6104   -5.0538    1.8873 H   0  0  0  0  0  0  0  0  0  0  0  0
   -3.2570   -4.9345    1.2725 H   0  0  0  0  0  0  0  0  0  0  0  0
   -4.2388   -3.7325   -1.0458 H   0  0  0  0  0  0  0  0  0  0  0  0
   -4.7766   -2.4941    0.1067 H   0  0  0  0  0  0  0  0  0  0  0  0
   -4.4725   -2.0431   -1.5570 H   0  0  0  0  0  0  0  0  0  0  0  0
   -4.2606    4.0893   -0.0231 H   0  0  0  0  0  0  0  0  0  0  0  0
   -4.7740    2.4895    0.5625 H   0  0  0  0  0  0  0  0  0  0  0  0
   -4.4127    2.7110   -1.1350 H   0  0  0  0  0  0  0  0  0  0  0  0
  1  2  1  0  0  0  0
  2  3  1  0  0  0  0
  3  4  2  0  0  0  0
  4  5  1  0  0  0  0
  4  6  1  0  0  0  0
  6  7  2  0  0  0  0
  7  8  1  0  0  0  0
  8  9  2  0  0  0  0
  9 10  1  0  0  0  0
 10 11  2  0  0  0  0
 11 12  1  0  0  0  0
 12 13  2  0  0  0  0
 13 14  1  0  0  0  0
 14 15  2  0  0  0  0
 14 16  1  0  0  0  0
 13 17  1  0  0  0  0
 17 18  2  0  0  0  0
  7 19  1  0  0  0  0
 19 20  2  0  0  0  0
 20 21  1  0  0  0  0
 20 22  1  0  0  0  0
 22 23  1  0  0  0  0
 23 24  1  0  0  0  0
 22 25  2  0  0  0  0
 25 26  1  0  0  0  0
 25 27  1  0  0  0  0
 27 28  1  0  0  0  0
 28 29  1  0  0  0  0
 28 30  1  0  0  0  0
 28 31  1  0  0  0  0
 31 32  2  0  0  0  0
 32 33  1  0  0  0  0
 32  3  1  0  0  0  0
 31  6  1  0  0  0  0
 18 10  1  0  0  0  0
 27 19  1  0  0  0  0
  1 34  1  0  0  0  0
  1 35  1  0  0  0  0
  1 36  1  0  0  0  0
  2 37  1  0  0  0  0
  2 38  1  0  0  0  0
  5 39  1  0  0  0  0
  5 40  1  0  0  0  0
  5 41  1  0  0  0  0
  8 42  1  0  0  0  0
  9 43  1  0  0  0  0
 11 44  1  0  0  0  0
 12 45  1  0  0  0  0
 17 46  1  0  0  0  0
 18 47  1  0  0  0  0
 21 48  1  0  0  0  0
 21 49  1  0  0  0  0
 21 50  1  0  0  0  0
 23 51  1  0  0  0  0
 23 52  1  0  0  0  0
 24 53  1  0  0  0  0
 24 54  1  0  0  0  0
 24 55  1  0  0  0  0
 26 56  1  0  0  0  0
 26 57  1  0  0  0  0
 26 58  1  0  0  0  0
 33 59  1  0  0  0  0
 33 60  1  0  0  0  0
 33 61  1  0  0  0  0
M  CHG  1  14   1
M  CHG  1  16  -1
M  CHG  1  28  -1
M  CHG  1  31   1
M  END
