
  xtb     03022215433D
 energy: -115.808640411550 gnorm: 0.000213386720 xtb: 6.4.1 (afa7bdf)
 69 74  0     0  0            999 V2000
    9.7586    1.2975   -1.8462 C   0  0  0  0  0  0  0  0  0  0  0  0
    8.8537    1.2668   -0.7683 O   0  0  0  0  0  0  0  0  0  0  0  0
    7.6459    0.6794   -0.9466 C   0  0  0  0  0  0  0  0  0  0  0  0
    7.2189    0.0977   -2.1200 C   0  0  0  0  0  0  0  0  0  0  0  0
    5.9361   -0.4381   -2.2103 C   0  0  0  0  0  0  0  0  0  0  0  0
    5.0388   -0.3990   -1.1580 C   0  0  0  0  0  0  0  0  0  0  0  0
    3.6886   -0.8274   -1.4291 C   0  0  0  0  0  0  0  0  0  0  0  0
    2.5571   -0.3380   -0.8833 C   0  0  0  0  0  0  0  0  0  0  0  0
    1.2513   -0.8162   -1.2779 C   0  0  0  0  0  0  0  0  0  0  0  0
    1.1953   -1.6212   -2.2908 O   0  0  0  0  0  3  0  0  0  0  0  0
   -0.0922   -2.1401   -2.8394 B   0  0  0  0  0  4  0  0  0  0  0  0
   -0.1094   -3.5036   -2.6974 F   0  0  0  0  0  0  0  0  0  0  0  0
   -0.1804   -1.7777   -4.1557 F   0  0  0  0  0  0  0  0  0  0  0  0
   -1.2660   -1.5771   -2.1100 O   0  0  0  0  0  0  0  0  0  0  0  0
   -1.1488   -0.8289   -1.0581 C   0  0  0  0  0  0  0  0  0  0  0  0
   -2.3627   -0.4638   -0.3706 C   0  0  0  0  0  0  0  0  0  0  0  0
   -3.5772   -0.8100   -0.8506 C   0  0  0  0  0  0  0  0  0  0  0  0
   -4.8508   -0.4977   -0.2602 C   0  0  0  0  0  0  0  0  0  0  0  0
   -4.9593    0.5025    0.6916 C   0  0  0  0  0  0  0  0  0  0  0  0
   -6.1752    0.8716    1.2582 C   0  0  0  0  0  0  0  0  0  0  0  0
   -7.3394    0.2375    0.8815 C   0  0  0  0  0  0  0  0  0  0  0  0
   -8.5689    0.5283    1.3674 O   0  0  0  0  0  0  0  0  0  0  0  0
   -8.6946    1.5377    2.3404 C   0  0  0  0  0  0  0  0  0  0  0  0
   -7.2882   -0.8078   -0.0895 C   0  0  0  0  0  0  0  0  0  0  0  0
   -8.4681   -1.4741   -0.4751 C   0  0  0  0  0  0  0  0  0  0  0  0
   -8.4329   -2.4891   -1.3905 C   0  0  0  0  0  0  0  0  0  0  0  0
   -7.2093   -2.8781   -1.9461 C   0  0  0  0  0  0  0  0  0  0  0  0
   -6.0484   -2.2459   -1.5878 C   0  0  0  0  0  0  0  0  0  0  0  0
   -6.0451   -1.1837   -0.6616 C   0  0  0  0  0  0  0  0  0  0  0  0
    0.1029   -0.3964   -0.5858 C   0  0  0  0  0  0  0  0  0  0  0  0
    0.2182    0.4670    0.6084 C   0  0  0  0  0  0  0  0  0  0  0  0
    0.8428   -0.0086    1.7583 C   0  0  0  0  0  0  0  0  0  0  0  0
    0.9660    0.7981    2.8749 C   0  0  0  0  0  0  0  0  0  0  0  0
    0.4647    2.0890    2.8586 C   0  0  0  0  0  0  0  0  0  0  0  0
   -0.1629    2.5687    1.7211 C   0  0  0  0  0  0  0  0  0  0  0  0
   -0.2860    1.7644    0.6022 C   0  0  0  0  0  0  0  0  0  0  0  0
    5.4930    0.0996    0.1036 C   0  0  0  0  0  0  0  0  0  0  0  0
    4.7398   -0.0105    1.2896 C   0  0  0  0  0  0  0  0  0  0  0  0
    5.2017    0.4917    2.4765 C   0  0  0  0  0  0  0  0  0  0  0  0
    6.4507    1.1189    2.5445 C   0  0  0  0  0  0  0  0  0  0  0  0
    7.2376    1.1846    1.4281 C   0  0  0  0  0  0  0  0  0  0  0  0
    6.7911    0.6649    0.1971 C   0  0  0  0  0  0  0  0  0  0  0  0
   10.6404    1.8175   -1.4751 H   0  0  0  0  0  0  0  0  0  0  0  0
   10.0400    0.2882   -2.1618 H   0  0  0  0  0  0  0  0  0  0  0  0
    9.3475    1.8455   -2.6996 H   0  0  0  0  0  0  0  0  0  0  0  0
    7.8556    0.0607   -2.9894 H   0  0  0  0  0  0  0  0  0  0  0  0
    5.6169   -0.8519   -3.1556 H   0  0  0  0  0  0  0  0  0  0  0  0
    3.5727   -1.5691   -2.2107 H   0  0  0  0  0  0  0  0  0  0  0  0
    2.5734    0.4594   -0.1579 H   0  0  0  0  0  0  0  0  0  0  0  0
   -2.2397    0.0733    0.5560 H   0  0  0  0  0  0  0  0  0  0  0  0
   -3.5746   -1.3680   -1.7760 H   0  0  0  0  0  0  0  0  0  0  0  0
   -4.0770    1.0452    0.9939 H   0  0  0  0  0  0  0  0  0  0  0  0
   -6.1840    1.6671    1.9864 H   0  0  0  0  0  0  0  0  0  0  0  0
   -8.1309    1.2936    3.2461 H   0  0  0  0  0  0  0  0  0  0  0  0
   -8.3659    2.5083    1.9562 H   0  0  0  0  0  0  0  0  0  0  0  0
   -9.7559    1.5858    2.5787 H   0  0  0  0  0  0  0  0  0  0  0  0
   -9.3982   -1.1641   -0.0256 H   0  0  0  0  0  0  0  0  0  0  0  0
   -9.3409   -2.9950   -1.6822 H   0  0  0  0  0  0  0  0  0  0  0  0
   -7.1817   -3.6867   -2.6614 H   0  0  0  0  0  0  0  0  0  0  0  0
   -5.1212   -2.5813   -2.0233 H   0  0  0  0  0  0  0  0  0  0  0  0
    1.2230   -1.0199    1.7718 H   0  0  0  0  0  0  0  0  0  0  0  0
    1.4514    0.4175    3.7614 H   0  0  0  0  0  0  0  0  0  0  0  0
    0.5620    2.7192    3.7301 H   0  0  0  0  0  0  0  0  0  0  0  0
   -0.5551    3.5751    1.7039 H   0  0  0  0  0  0  0  0  0  0  0  0
   -0.7678    2.1400   -0.2890 H   0  0  0  0  0  0  0  0  0  0  0  0
    3.7972   -0.5316    1.2664 H   0  0  0  0  0  0  0  0  0  0  0  0
    4.6040    0.3947    3.3709 H   0  0  0  0  0  0  0  0  0  0  0  0
    6.7992    1.5219    3.4837 H   0  0  0  0  0  0  0  0  0  0  0  0
    8.2226    1.6222    1.4687 H   0  0  0  0  0  0  0  0  0  0  0  0
  1  2  1  0  0  0  0
  2  3  1  0  0  0  0
  3  4  2  0  0  0  0
  4  5  1  0  0  0  0
  5  6  2  0  0  0  0
  6  7  1  0  0  0  0
  7  8  2  0  0  0  0
  8  9  1  0  0  0  0
  9 10  2  0  0  0  0
 10 11  1  0  0  0  0
 11 12  1  0  0  0  0
 11 13  1  0  0  0  0
 11 14  1  0  0  0  0
 14 15  1  0  0  0  0
 15 16  1  0  0  0  0
 16 17  2  0  0  0  0
 17 18  1  0  0  0  0
 18 19  2  0  0  0  0
 19 20  1  0  0  0  0
 20 21  2  0  0  0  0
 21 22  1  0  0  0  0
 22 23  1  0  0  0  0
 21 24  1  0  0  0  0
 24 25  2  0  0  0  0
 25 26  1  0  0  0  0
 26 27  2  0  0  0  0
 27 28  1  0  0  0  0
 28 29  2  0  0  0  0
 15 30  2  0  0  0  0
 30 31  1  0  0  0  0
 31 32  2  0  0  0  0
 32 33  1  0  0  0  0
 33 34  2  0  0  0  0
 34 35  1  0  0  0  0
 35 36  2  0  0  0  0
  6 37  1  0  0  0  0
 37 38  2  0  0  0  0
 38 39  1  0  0  0  0
 39 40  2  0  0  0  0
 40 41  1  0  0  0  0
 41 42  2  0  0  0  0
 42  3  1  0  0  0  0
 30  9  1  0  0  0  0
 36 31  1  0  0  0  0
 42 37  1  0  0  0  0
 29 18  1  0  0  0  0
 29 24  1  0  0  0  0
  1 43  1  0  0  0  0
  1 44  1  0  0  0  0
  1 45  1  0  0  0  0
  4 46  1  0  0  0  0
  5 47  1  0  0  0  0
  7 48  1  0  0  0  0
  8 49  1  0  0  0  0
 16 50  1  0  0  0  0
 17 51  1  0  0  0  0
 19 52  1  0  0  0  0
 20 53  1  0  0  0  0
 23 54  1  0  0  0  0
 23 55  1  0  0  0  0
 23 56  1  0  0  0  0
 25 57  1  0  0  0  0
 26 58  1  0  0  0  0
 27 59  1  0  0  0  0
 28 60  1  0  0  0  0
 32 61  1  0  0  0  0
 33 62  1  0  0  0  0
 34 63  1  0  0  0  0
 35 64  1  0  0  0  0
 36 65  1  0  0  0  0
 38 66  1  0  0  0  0
 39 67  1  0  0  0  0
 40 68  1  0  0  0  0
 41 69  1  0  0  0  0
M  CHG  1  10   1
M  CHG  1  11  -1
M  END
