
  xtb     03022212513D
 energy: -53.225441126874 gnorm: 0.000104856267 xtb: 6.4.1 (afa7bdf)
 35 38  0     0  0            999 V2000
    3.5813    2.4188   -0.6623 C   0  0  0  0  0  0  0  0  0  0  0  0
    2.4185    1.6551   -0.4563 O   0  0  0  0  0  0  0  0  0  0  0  0
    2.5540    0.3120   -0.2036 C   0  0  0  0  0  0  0  0  0  0  0  0
    3.7626   -0.3403   -0.1448 C   0  0  0  0  0  0  0  0  0  0  0  0
    3.8119   -1.7145    0.1198 C   0  0  0  0  0  0  0  0  0  0  0  0
    2.6677   -2.4313    0.3247 C   0  0  0  0  0  0  0  0  0  0  0  0
    1.4089   -1.8011    0.2729 C   0  0  0  0  0  0  0  0  0  0  0  0
    0.2177   -2.5353    0.4848 C   0  0  0  0  0  0  0  0  0  0  0  0
   -1.0282   -1.9705    0.4448 C   0  0  0  0  0  0  0  0  0  0  0  0
   -2.2593   -2.7885    0.6766 C   0  0  0  0  0  0  0  0  0  0  0  0
   -1.1116   -0.5871    0.1768 C   0  0  0  0  0  0  0  0  0  0  0  0
   -2.2107    0.3297    0.0570 C   0  0  0  0  0  0  0  0  0  0  0  0
   -3.5960    0.2238    0.1546 C   0  0  0  0  0  0  0  0  0  0  0  0
   -4.3664    1.3540   -0.0263 C   0  0  0  0  0  0  0  0  0  0  0  0
   -3.7884    2.5922   -0.3032 C   0  0  0  0  0  0  0  0  0  0  0  0
   -2.4195    2.7302   -0.4062 C   0  0  0  0  0  0  0  0  0  0  0  0
   -1.6401    1.5968   -0.2251 C   0  0  0  0  0  0  0  0  0  0  0  0
   -0.2813    1.4649   -0.2744 N   0  0  0  0  0  0  0  0  0  0  0  0
    0.0579    0.1637   -0.0365 C   0  0  0  0  0  0  0  0  0  0  0  0
    1.3479   -0.4087    0.0040 C   0  0  0  0  0  0  0  0  0  0  0  0
    4.1402    2.0721   -1.5372 H   0  0  0  0  0  0  0  0  0  0  0  0
    3.2400    3.4388   -0.8366 H   0  0  0  0  0  0  0  0  0  0  0  0
    4.2333    2.4029    0.2167 H   0  0  0  0  0  0  0  0  0  0  0  0
    4.6898    0.1878   -0.3000 H   0  0  0  0  0  0  0  0  0  0  0  0
    4.7762   -2.1995    0.1594 H   0  0  0  0  0  0  0  0  0  0  0  0
    2.7124   -3.4907    0.5290 H   0  0  0  0  0  0  0  0  0  0  0  0
    0.3161   -3.5927    0.6869 H   0  0  0  0  0  0  0  0  0  0  0  0
   -2.8128   -2.4040    1.5322 H   0  0  0  0  0  0  0  0  0  0  0  0
   -2.9101   -2.7476   -0.1959 H   0  0  0  0  0  0  0  0  0  0  0  0
   -1.9990   -3.8268    0.8684 H   0  0  0  0  0  0  0  0  0  0  0  0
   -4.0693   -0.7211    0.3676 H   0  0  0  0  0  0  0  0  0  0  0  0
   -5.4418    1.2821    0.0474 H   0  0  0  0  0  0  0  0  0  0  0  0
   -4.4241    3.4549   -0.4388 H   0  0  0  0  0  0  0  0  0  0  0  0
   -1.9654    3.6866   -0.6206 H   0  0  0  0  0  0  0  0  0  0  0  0
    0.3878    2.1932   -0.4555 H   0  0  0  0  0  0  0  0  0  0  0  0
  1  2  1  0  0  0  0
  2  3  1  0  0  0  0
  3  4  2  0  0  0  0
  4  5  1  0  0  0  0
  5  6  2  0  0  0  0
  6  7  1  0  0  0  0
  7  8  2  0  0  0  0
  8  9  1  0  0  0  0
  9 10  1  0  0  0  0
  9 11  2  0  0  0  0
 11 12  1  0  0  0  0
 12 13  2  0  0  0  0
 13 14  1  0  0  0  0
 14 15  2  0  0  0  0
 15 16  1  0  0  0  0
 16 17  2  0  0  0  0
 17 18  1  0  0  0  0
 18 19  1  0  0  0  0
 19 20  2  0  0  0  0
 20  3  1  0  0  0  0
 20  7  1  0  0  0  0
 19 11  1  0  0  0  0
 17 12  1  0  0  0  0
  1 21  1  0  0  0  0
  1 22  1  0  0  0  0
  1 23  1  0  0  0  0
  4 24  1  0  0  0  0
  5 25  1  0  0  0  0
  6 26  1  0  0  0  0
  8 27  1  0  0  0  0
 10 28  1  0  0  0  0
 10 29  1  0  0  0  0
 10 30  1  0  0  0  0
 13 31  1  0  0  0  0
 14 32  1  0  0  0  0
 15 33  1  0  0  0  0
 16 34  1  0  0  0  0
 18 35  1  0  0  0  0
M  END
