
  xtb     03022213383D
 energy: -30.416314301219 gnorm: 0.000351541308 xtb: 6.4.1 (afa7bdf)
 15 15  0     0  0            999 V2000
   -3.2389   -0.7409    0.1386 O   0  0  0  0  0  0  0  0  0  0  0  0
   -2.5411    0.2493    0.2210 N   0  0  0  0  0  4  0  0  0  0  0  0
   -2.9617    1.3736    0.4051 O   0  0  0  0  0  1  0  0  0  0  0  0
   -1.1227    0.0800    0.0923 C   0  0  0  0  0  0  0  0  0  0  0  0
   -0.2885    1.1887    0.1866 C   0  0  0  0  0  0  0  0  0  0  0  0
    1.0740    1.0252    0.0648 C   0  0  0  0  0  0  0  0  0  0  0  0
    1.6114   -0.2447   -0.1520 C   0  0  0  0  0  0  0  0  0  0  0  0
    2.9356   -0.4518   -0.2754 O   0  0  0  0  0  0  0  0  0  0  0  0
    0.7637   -1.3525   -0.2464 C   0  0  0  0  0  0  0  0  0  0  0  0
   -0.5965   -1.1914   -0.1246 C   0  0  0  0  0  0  0  0  0  0  0  0
   -0.7230    2.1620    0.3547 H   0  0  0  0  0  0  0  0  0  0  0  0
    1.7312    1.8807    0.1372 H   0  0  0  0  0  0  0  0  0  0  0  0
    3.4238    0.3776   -0.1939 H   0  0  0  0  0  0  0  0  0  0  0  0
    1.2011   -2.3230   -0.4146 H   0  0  0  0  0  0  0  0  0  0  0  0
   -1.2685   -2.0327   -0.1938 H   0  0  0  0  0  0  0  0  0  0  0  0
  1  2  2  0  0  0  0
  2  3  1  0  0  0  0
  2  4  1  0  0  0  0
  4  5  2  0  0  0  0
  5  6  1  0  0  0  0
  6  7  2  0  0  0  0
  7  8  1  0  0  0  0
  7  9  1  0  0  0  0
  9 10  2  0  0  0  0
 10  4  1  0  0  0  0
  5 11  1  0  0  0  0
  6 12  1  0  0  0  0
  8 13  1  0  0  0  0
  9 14  1  0  0  0  0
 10 15  1  0  0  0  0
M  CHG  1   2   1
M  CHG  1   3  -1
M  END
