
  xtb     03022212453D
 energy: -104.835873108397 gnorm: 0.000069785605 xtb: 6.4.1 (afa7bdf)
 65 72  0     0  0            999 V2000
   -5.6545    5.4148   -0.1441 C   0  0  0  0  0  0  0  0  0  0  0  0
   -4.3479    4.9584   -0.1081 C   0  0  0  0  0  0  0  0  0  0  0  0
   -4.0701    3.6041   -0.1221 C   0  0  0  0  0  0  0  0  0  0  0  0
   -5.1122    2.6825   -0.1726 C   0  0  0  0  0  0  0  0  0  0  0  0
   -4.9125    1.3085   -0.1890 N   0  0  0  0  0  0  0  0  0  0  0  0
   -3.7793    0.5694   -0.1559 C   0  0  0  0  0  0  0  0  0  0  0  0
   -4.0026   -0.7531   -0.1817 N   0  0  0  0  0  0  0  0  0  0  0  0
   -2.9150   -1.5078   -0.1502 C   0  0  0  0  0  0  0  0  0  0  0  0
   -2.9852   -2.8590   -0.1713 N   0  0  0  0  0  0  0  0  0  0  0  0
   -4.0733   -3.7198   -0.2259 C   0  0  0  0  0  0  0  0  0  0  0  0
   -5.3930   -3.2786   -0.2640 C   0  0  0  0  0  0  0  0  0  0  0  0
   -6.4249   -4.1972   -0.3175 C   0  0  0  0  0  0  0  0  0  0  0  0
   -6.1642   -5.5569   -0.3336 C   0  0  0  0  0  0  0  0  0  0  0  0
   -4.8520   -5.9989   -0.2955 C   0  0  0  0  0  0  0  0  0  0  0  0
   -3.8134   -5.0906   -0.2420 C   0  0  0  0  0  0  0  0  0  0  0  0
   -1.6587   -1.0401   -0.0956 N   0  0  0  0  0  0  0  0  0  0  0  0
   -1.5485    0.2789   -0.0740 C   0  0  0  0  0  0  0  0  0  0  0  0
   -0.3467    0.9029   -0.0198 N   0  0  0  0  0  0  0  0  0  0  0  0
    0.9429    0.4036    0.0307 C   0  0  0  0  0  0  0  0  0  0  0  0
    1.1891   -0.9524    0.0377 C   0  0  0  0  0  0  0  0  0  0  0  0
    2.4852   -1.4405    0.0928 C   0  0  0  0  0  0  0  0  0  0  0  0
    3.5898   -0.6069    0.1448 C   0  0  0  0  0  0  0  0  0  0  0  0
    4.9455   -1.1335    0.2049 C   0  0  0  0  0  0  0  0  0  0  0  0
    5.2118   -2.4934    0.2105 C   0  0  0  0  0  0  0  0  0  0  0  0
    6.5133   -2.9887    0.2707 C   0  0  0  0  0  0  0  0  0  0  0  0
    7.5764   -2.1311    0.3271 C   0  0  0  0  0  0  0  0  0  0  0  0
    7.3637   -0.7389    0.3237 C   0  0  0  0  0  0  0  0  0  0  0  0
    8.4529    0.1517    0.3820 C   0  0  0  0  0  0  0  0  0  0  0  0
    8.2382    1.5016    0.3790 C   0  0  0  0  0  0  0  0  0  0  0  0
    6.9404    2.0075    0.3167 C   0  0  0  0  0  0  0  0  0  0  0  0
    5.8332    1.1771    0.2566 C   0  0  0  0  0  0  0  0  0  0  0  0
    4.4725    1.7006    0.1899 C   0  0  0  0  0  0  0  0  0  0  0  0
    4.2245    3.0620    0.1754 C   0  0  0  0  0  0  0  0  0  0  0  0
    2.9289    3.5624    0.1136 C   0  0  0  0  0  0  0  0  0  0  0  0
    1.8594    2.7104    0.0671 C   0  0  0  0  0  0  0  0  0  0  0  0
    2.0436    1.3137    0.0783 C   0  0  0  0  0  0  0  0  0  0  0  0
    3.3724    0.7981    0.1381 C   0  0  0  0  0  0  0  0  0  0  0  0
    6.0388   -0.2282    0.2612 C   0  0  0  0  0  0  0  0  0  0  0  0
   -2.5821    1.1339   -0.1031 N   0  0  0  0  0  0  0  0  0  0  0  0
   -6.4280    3.1455   -0.2092 C   0  0  0  0  0  0  0  0  0  0  0  0
   -6.6937    4.5004   -0.1948 C   0  0  0  0  0  0  0  0  0  0  0  0
   -5.8630    6.4739   -0.1326 H   0  0  0  0  0  0  0  0  0  0  0  0
   -3.5322    5.6655   -0.0685 H   0  0  0  0  0  0  0  0  0  0  0  0
   -3.0570    3.2424   -0.0942 H   0  0  0  0  0  0  0  0  0  0  0  0
   -5.7481    0.7394   -0.2277 H   0  0  0  0  0  0  0  0  0  0  0  0
   -2.0737   -3.2973   -0.1442 H   0  0  0  0  0  0  0  0  0  0  0  0
   -5.5884   -2.2204   -0.2513 H   0  0  0  0  0  0  0  0  0  0  0  0
   -7.4457   -3.8449   -0.3468 H   0  0  0  0  0  0  0  0  0  0  0  0
   -6.9757   -6.2675   -0.3756 H   0  0  0  0  0  0  0  0  0  0  0  0
   -4.6357   -7.0570   -0.3076 H   0  0  0  0  0  0  0  0  0  0  0  0
   -2.7902   -5.4393   -0.2122 H   0  0  0  0  0  0  0  0  0  0  0  0
   -0.4534    1.9075   -0.0121 H   0  0  0  0  0  0  0  0  0  0  0  0
    0.3548   -1.6308    0.0002 H   0  0  0  0  0  0  0  0  0  0  0  0
    2.6068   -2.5111    0.0952 H   0  0  0  0  0  0  0  0  0  0  0  0
    4.4083   -3.2105    0.1680 H   0  0  0  0  0  0  0  0  0  0  0  0
    6.6715   -4.0576    0.2727 H   0  0  0  0  0  0  0  0  0  0  0  0
    8.5894   -2.5035    0.3749 H   0  0  0  0  0  0  0  0  0  0  0  0
    9.4540   -0.2517    0.4293 H   0  0  0  0  0  0  0  0  0  0  0  0
    9.0706    2.1890    0.4245 H   0  0  0  0  0  0  0  0  0  0  0  0
    6.8264    3.0792    0.3174 H   0  0  0  0  0  0  0  0  0  0  0  0
    5.0340    3.7718    0.2109 H   0  0  0  0  0  0  0  0  0  0  0  0
    2.7717    4.6310    0.1028 H   0  0  0  0  0  0  0  0  0  0  0  0
    0.8697    3.1406    0.0194 H   0  0  0  0  0  0  0  0  0  0  0  0
   -7.2420    2.4347   -0.2488 H   0  0  0  0  0  0  0  0  0  0  0  0
   -7.7173    4.8439   -0.2233 H   0  0  0  0  0  0  0  0  0  0  0  0
  1  2  2  0  0  0  0
  2  3  1  0  0  0  0
  3  4  2  0  0  0  0
  4  5  1  0  0  0  0
  5  6  1  0  0  0  0
  6  7  2  0  0  0  0
  7  8  1  0  0  0  0
  8  9  1  0  0  0  0
  9 10  1  0  0  0  0
 10 11  2  0  0  0  0
 11 12  1  0  0  0  0
 12 13  2  0  0  0  0
 13 14  1  0  0  0  0
 14 15  2  0  0  0  0
  8 16  2  0  0  0  0
 16 17  1  0  0  0  0
 17 18  1  0  0  0  0
 18 19  1  0  0  0  0
 19 20  2  0  0  0  0
 20 21  1  0  0  0  0
 21 22  2  0  0  0  0
 22 23  1  0  0  0  0
 23 24  2  0  0  0  0
 24 25  1  0  0  0  0
 25 26  2  0  0  0  0
 26 27  1  0  0  0  0
 27 28  2  0  0  0  0
 28 29  1  0  0  0  0
 29 30  2  0  0  0  0
 30 31  1  0  0  0  0
 31 32  1  0  0  0  0
 32 33  1  0  0  0  0
 33 34  2  0  0  0  0
 34 35  1  0  0  0  0
 35 36  2  0  0  0  0
 36 37  1  0  0  0  0
 31 38  2  0  0  0  0
 17 39  2  0  0  0  0
  4 40  1  0  0  0  0
 40 41  2  0  0  0  0
 41  1  1  0  0  0  0
 39  6  1  0  0  0  0
 15 10  1  0  0  0  0
 36 19  1  0  0  0  0
 37 22  1  0  0  0  0
 38 23  1  0  0  0  0
 38 27  1  0  0  0  0
 37 32  2  0  0  0  0
  1 42  1  0  0  0  0
  2 43  1  0  0  0  0
  3 44  1  0  0  0  0
  5 45  1  0  0  0  0
  9 46  1  0  0  0  0
 11 47  1  0  0  0  0
 12 48  1  0  0  0  0
 13 49  1  0  0  0  0
 14 50  1  0  0  0  0
 15 51  1  0  0  0  0
 18 52  1  0  0  0  0
 20 53  1  0  0  0  0
 21 54  1  0  0  0  0
 24 55  1  0  0  0  0
 25 56  1  0  0  0  0
 26 57  1  0  0  0  0
 28 58  1  0  0  0  0
 29 59  1  0  0  0  0
 30 60  1  0  0  0  0
 33 61  1  0  0  0  0
 34 62  1  0  0  0  0
 35 63  1  0  0  0  0
 40 64  1  0  0  0  0
 41 65  1  0  0  0  0
M  END
