
  xtb     03022214023D
 energy: -42.686609219779 gnorm: 0.000320973415 xtb: 6.4.1 (afa7bdf)
 25 27  0     0  0            999 V2000
   -5.9754    1.9839   -2.9299 N   0  0  0  0  0  0  0  0  0  0  0  0
   -4.9764    1.6442   -2.4804 C   0  0  0  0  0  0  0  0  0  0  0  0
   -3.7472    1.2254   -1.9270 C   0  0  0  0  0  0  0  0  0  0  0  0
   -3.2153    1.8884   -0.8192 C   0  0  0  0  0  0  0  0  0  0  0  0
   -2.0164    1.4769   -0.2816 C   0  0  0  0  0  0  0  0  0  0  0  0
   -1.3143    0.3968   -0.8296 C   0  0  0  0  0  0  0  0  0  0  0  0
   -0.0555   -0.0477   -0.2771 C   0  0  0  0  0  0  0  0  0  0  0  0
    0.8537   -1.3683   -0.9070 P   0  0  0  0  0  0  0  0  0  0  0  0
    2.1526   -1.2058    0.3040 C   0  0  0  0  0  0  0  0  0  0  0  0
    3.2823   -2.0292    0.3640 C   0  0  0  0  0  0  0  0  0  0  0  0
    4.2335   -1.8273    1.3368 C   0  0  0  0  0  0  0  0  0  0  0  0
    4.0827   -0.8028    2.2709 C   0  0  0  0  0  0  0  0  0  0  0  0
    2.9800    0.0222    2.2340 C   0  0  0  0  0  0  0  0  0  0  0  0
    2.0161   -0.1785    1.2525 C   0  0  0  0  0  0  0  0  0  0  0  0
    0.5894    0.7980    1.1117 S   0  0  0  0  0  0  0  0  0  0  0  0
   -1.8610   -0.2581   -1.9414 C   0  0  0  0  0  0  0  0  0  0  0  0
   -3.0574    0.1452   -2.4853 C   0  0  0  0  0  0  0  0  0  0  0  0
   -3.7497    2.7227   -0.3895 H   0  0  0  0  0  0  0  0  0  0  0  0
   -1.6115    1.9950    0.5755 H   0  0  0  0  0  0  0  0  0  0  0  0
    3.3921   -2.8206   -0.3630 H   0  0  0  0  0  0  0  0  0  0  0  0
    5.1038   -2.4645    1.3803 H   0  0  0  0  0  0  0  0  0  0  0  0
    4.8358   -0.6541    3.0296 H   0  0  0  0  0  0  0  0  0  0  0  0
    2.8542    0.8179    2.9524 H   0  0  0  0  0  0  0  0  0  0  0  0
   -1.3257   -1.0934   -2.3714 H   0  0  0  0  0  0  0  0  0  0  0  0
   -3.4708   -0.3658   -3.3422 H   0  0  0  0  0  0  0  0  0  0  0  0
  1  2  3  0  0  0  0
  2  3  1  0  0  0  0
  3  4  2  0  0  0  0
  4  5  1  0  0  0  0
  5  6  2  0  0  0  0
  6  7  1  0  0  0  0
  7  8  2  0  0  0  0
  8  9  1  0  0  0  0
  9 10  2  0  0  0  0
 10 11  1  0  0  0  0
 11 12  2  0  0  0  0
 12 13  1  0  0  0  0
 13 14  2  0  0  0  0
 14 15  1  0  0  0  0
  6 16  1  0  0  0  0
 16 17  2  0  0  0  0
 17  3  1  0  0  0  0
 15  7  1  0  0  0  0
 14  9  1  0  0  0  0
  4 18  1  0  0  0  0
  5 19  1  0  0  0  0
 10 20  1  0  0  0  0
 11 21  1  0  0  0  0
 12 22  1  0  0  0  0
 13 23  1  0  0  0  0
 16 24  1  0  0  0  0
 17 25  1  0  0  0  0
M  END
