
  xtb     03022214573D
 energy: -66.053719625941 gnorm: 0.000771409397 xtb: 6.4.1 (afa7bdf)
 42 44  0     0  0            999 V2000
   -6.5302   -0.1318    0.7821 C   0  0  0  0  0  0  0  0  0  0  0  0
   -5.7008    0.8957    0.2050 N   0  0  0  0  0  0  0  0  0  0  0  0
   -6.3119    2.1372   -0.1996 C   0  0  0  0  0  0  0  0  0  0  0  0
   -4.3443    0.7339    0.1282 C   0  0  0  0  0  0  0  0  0  0  0  0
   -3.5267    1.6940   -0.4889 C   0  0  0  0  0  0  0  0  0  0  0  0
   -2.1633    1.5241   -0.5715 C   0  0  0  0  0  0  0  0  0  0  0  0
   -1.5366    0.3878   -0.0603 C   0  0  0  0  0  0  0  0  0  0  0  0
   -0.0895    0.2041   -0.1644 C   0  0  0  0  0  0  0  0  0  0  0  0
    0.4555   -1.0603   -0.3943 C   0  0  0  0  0  0  0  0  0  0  0  0
    1.8189   -1.2461   -0.4875 C   0  0  0  0  0  0  0  0  0  0  0  0
    2.6880   -0.1642   -0.3480 C   0  0  0  0  0  0  0  0  0  0  0  0
    4.1301   -0.2900   -0.4451 C   0  0  0  0  0  0  0  0  0  0  0  0
    4.8932    0.6528   -0.9585 N   0  0  0  0  0  0  0  0  0  0  0  0
    6.1672    0.2098   -0.8856 C   0  0  0  0  0  0  0  0  0  0  0  0
    7.2751    0.9403   -1.3460 C   0  0  0  0  0  0  0  0  0  0  0  0
    8.1904    1.5219   -1.7165 N   0  0  0  0  0  0  0  0  0  0  0  0
    6.1841   -1.0533   -0.2922 C   0  0  0  0  0  0  0  0  0  0  0  0
    7.2535   -1.8965    0.0069 C   0  0  0  0  0  0  0  0  0  0  0  0
    8.1286   -2.5934    0.2661 N   0  0  0  0  0  0  0  0  0  0  0  0
    4.8734   -1.3514   -0.0155 N   0  0  0  0  0  0  0  0  0  0  0  0
    4.4485   -2.5343    0.6808 C   0  0  0  0  0  0  0  0  0  0  0  0
    2.1493    1.1088   -0.1468 C   0  0  0  0  0  0  0  0  0  0  0  0
    0.7873    1.2863   -0.0523 C   0  0  0  0  0  0  0  0  0  0  0  0
   -2.3464   -0.5686    0.5518 C   0  0  0  0  0  0  0  0  0  0  0  0
   -3.7090   -0.4020    0.6542 C   0  0  0  0  0  0  0  0  0  0  0  0
   -6.3426   -1.0950    0.3006 H   0  0  0  0  0  0  0  0  0  0  0  0
   -6.3556   -0.2393    1.8590 H   0  0  0  0  0  0  0  0  0  0  0  0
   -7.5773    0.1191    0.6299 H   0  0  0  0  0  0  0  0  0  0  0  0
   -6.2224    2.2912   -1.2801 H   0  0  0  0  0  0  0  0  0  0  0  0
   -7.3692    2.1216    0.0534 H   0  0  0  0  0  0  0  0  0  0  0  0
   -5.8534    2.9882    0.3130 H   0  0  0  0  0  0  0  0  0  0  0  0
   -3.9591    2.5813   -0.9210 H   0  0  0  0  0  0  0  0  0  0  0  0
   -1.5736    2.2764   -1.0748 H   0  0  0  0  0  0  0  0  0  0  0  0
   -0.2027   -1.9056   -0.5300 H   0  0  0  0  0  0  0  0  0  0  0  0
    2.1996   -2.2303   -0.7156 H   0  0  0  0  0  0  0  0  0  0  0  0
    3.5548   -2.3137    1.2642 H   0  0  0  0  0  0  0  0  0  0  0  0
    5.2464   -2.8629    1.3484 H   0  0  0  0  0  0  0  0  0  0  0  0
    4.2325   -3.3450   -0.0198 H   0  0  0  0  0  0  0  0  0  0  0  0
    2.8234    1.9467   -0.0604 H   0  0  0  0  0  0  0  0  0  0  0  0
    0.3919    2.2741    0.1301 H   0  0  0  0  0  0  0  0  0  0  0  0
   -1.8954   -1.4486    0.9877 H   0  0  0  0  0  0  0  0  0  0  0  0
   -4.2812   -1.1628    1.1593 H   0  0  0  0  0  0  0  0  0  0  0  0
  1  2  1  0  0  0  0
  2  3  1  0  0  0  0
  2  4  1  0  0  0  0
  4  5  2  0  0  0  0
  5  6  1  0  0  0  0
  6  7  2  0  0  0  0
  7  8  1  0  0  0  0
  8  9  2  0  0  0  0
  9 10  1  0  0  0  0
 10 11  2  0  0  0  0
 11 12  1  0  0  0  0
 12 13  2  0  0  0  0
 13 14  1  0  0  0  0
 14 15  1  0  0  0  0
 15 16  3  0  0  0  0
 14 17  2  0  0  0  0
 17 18  1  0  0  0  0
 18 19  3  0  0  0  0
 17 20  1  0  0  0  0
 20 21  1  0  0  0  0
 11 22  1  0  0  0  0
 22 23  2  0  0  0  0
  7 24  1  0  0  0  0
 24 25  2  0  0  0  0
 25  4  1  0  0  0  0
 23  8  1  0  0  0  0
 20 12  1  0  0  0  0
  1 26  1  0  0  0  0
  1 27  1  0  0  0  0
  1 28  1  0  0  0  0
  3 29  1  0  0  0  0
  3 30  1  0  0  0  0
  3 31  1  0  0  0  0
  5 32  1  0  0  0  0
  6 33  1  0  0  0  0
  9 34  1  0  0  0  0
 10 35  1  0  0  0  0
 21 36  1  0  0  0  0
 21 37  1  0  0  0  0
 21 38  1  0  0  0  0
 22 39  1  0  0  0  0
 23 40  1  0  0  0  0
 24 41  1  0  0  0  0
 25 42  1  0  0  0  0
M  END
