
  xtb     03022213243D
 energy: -96.570648896248 gnorm: 0.000506256755 xtb: 6.4.1 (afa7bdf)
 64 65  0     0  0            999 V2000
    9.4705    2.3666    0.6321 C   0  0  0  0  0  0  0  0  0  0  0  0
    9.1346    1.3875   -0.4946 C   0  0  0  0  0  0  0  0  0  0  0  0
    8.1975    0.3678   -0.0788 N   0  0  0  0  0  0  0  0  0  0  0  0
    8.7825   -0.8494    0.4397 C   0  0  0  0  0  0  0  0  0  0  0  0
    9.0068   -1.9001   -0.6489 C   0  0  0  0  0  0  0  0  0  0  0  0
    6.8492    0.5353   -0.1743 C   0  0  0  0  0  0  0  0  0  0  0  0
    6.2855    1.7869   -0.5178 C   0  0  0  0  0  0  0  0  0  0  0  0
    4.9312    1.9472   -0.6047 C   0  0  0  0  0  0  0  0  0  0  0  0
    4.0345    0.8939   -0.3598 C   0  0  0  0  0  0  0  0  0  0  0  0
    2.6348    1.1076   -0.4554 C   0  0  0  0  0  0  0  0  0  0  0  0
    1.7814    0.1519   -0.2491 N   0  0  0  0  0  0  0  0  0  0  0  0
    0.4364    0.3496   -0.3341 C   0  0  0  0  0  0  0  0  0  0  0  0
   -0.1167    1.6261   -0.6131 C   0  0  0  0  0  0  0  0  0  0  0  0
   -0.4917    2.6869   -0.8439 N   0  0  0  0  0  0  0  0  0  0  0  0
   -0.4308   -0.7066   -0.1174 C   0  0  0  0  0  0  0  0  0  0  0  0
    0.0976   -1.9941    0.1577 C   0  0  0  0  0  0  0  0  0  0  0  0
    0.4551   -3.0617    0.3863 N   0  0  0  0  0  0  0  0  0  0  0  0
   -1.7655   -0.5054   -0.2319 N   0  0  0  0  0  0  0  0  0  0  0  0
   -2.6559   -1.2966    0.2435 C   0  0  0  0  0  0  0  0  0  0  0  0
   -4.0506   -1.0882    0.0225 C   0  0  0  0  0  0  0  0  0  0  0  0
   -4.9903   -1.9488    0.6039 C   0  0  0  0  0  0  0  0  0  0  0  0
   -6.3410   -1.7812    0.4470 C   0  0  0  0  0  0  0  0  0  0  0  0
   -6.8544   -0.7130   -0.3163 C   0  0  0  0  0  0  0  0  0  0  0  0
   -8.1973   -0.5360   -0.4997 N   0  0  0  0  0  0  0  0  0  0  0  0
   -8.7247    0.7199   -0.9910 C   0  0  0  0  0  0  0  0  0  0  0  0
   -8.5444    1.8751   -0.0044 C   0  0  0  0  0  0  0  0  0  0  0  0
   -9.1570   -1.5100   -0.0304 C   0  0  0  0  0  0  0  0  0  0  0  0
   -9.5993   -1.2915    1.4181 C   0  0  0  0  0  0  0  0  0  0  0  0
   -5.9182    0.1520   -0.9030 C   0  0  0  0  0  0  0  0  0  0  0  0
   -4.5534   -0.0217   -0.7589 C   0  0  0  0  0  0  0  0  0  0  0  0
   -3.6822    0.8098   -1.3550 O   0  0  0  0  0  0  0  0  0  0  0  0
    4.5891   -0.3667   -0.0168 C   0  0  0  0  0  0  0  0  0  0  0  0
    3.8232   -1.4331    0.2269 O   0  0  0  0  0  0  0  0  0  0  0  0
    5.9628   -0.5208    0.0671 C   0  0  0  0  0  0  0  0  0  0  0  0
    8.5733    2.8716    0.9798 H   0  0  0  0  0  0  0  0  0  0  0  0
   10.1797    3.1115    0.2808 H   0  0  0  0  0  0  0  0  0  0  0  0
    9.9107    1.8386    1.4747 H   0  0  0  0  0  0  0  0  0  0  0  0
    8.7339    1.9268   -1.3557 H   0  0  0  0  0  0  0  0  0  0  0  0
   10.0504    0.8885   -0.8235 H   0  0  0  0  0  0  0  0  0  0  0  0
    8.1430   -1.2539    1.2269 H   0  0  0  0  0  0  0  0  0  0  0  0
    9.7415   -0.5922    0.8982 H   0  0  0  0  0  0  0  0  0  0  0  0
    8.0646   -2.1730   -1.1157 H   0  0  0  0  0  0  0  0  0  0  0  0
    9.6700   -1.5139   -1.4196 H   0  0  0  0  0  0  0  0  0  0  0  0
    9.4566   -2.7912   -0.2192 H   0  0  0  0  0  0  0  0  0  0  0  0
    6.9149    2.6408   -0.7026 H   0  0  0  0  0  0  0  0  0  0  0  0
    4.5255    2.9150   -0.8639 H   0  0  0  0  0  0  0  0  0  0  0  0
    2.3086    2.1207   -0.7150 H   0  0  0  0  0  0  0  0  0  0  0  0
   -2.3974   -2.1555    0.8788 H   0  0  0  0  0  0  0  0  0  0  0  0
   -4.6277   -2.7695    1.2060 H   0  0  0  0  0  0  0  0  0  0  0  0
   -7.0010   -2.4746    0.9394 H   0  0  0  0  0  0  0  0  0  0  0  0
   -8.2536    0.9706   -1.9473 H   0  0  0  0  0  0  0  0  0  0  0  0
   -9.7897    0.5798   -1.1862 H   0  0  0  0  0  0  0  0  0  0  0  0
   -8.9262    2.7952   -0.4395 H   0  0  0  0  0  0  0  0  0  0  0  0
   -7.4946    2.0123    0.2405 H   0  0  0  0  0  0  0  0  0  0  0  0
   -9.0834    1.6780    0.9181 H   0  0  0  0  0  0  0  0  0  0  0  0
  -10.0328   -1.4603   -0.6848 H   0  0  0  0  0  0  0  0  0  0  0  0
   -8.7291   -2.5082   -0.1443 H   0  0  0  0  0  0  0  0  0  0  0  0
  -10.1566   -0.3633    1.5135 H   0  0  0  0  0  0  0  0  0  0  0  0
  -10.2400   -2.1099    1.7364 H   0  0  0  0  0  0  0  0  0  0  0  0
   -8.7362   -1.2450    2.0772 H   0  0  0  0  0  0  0  0  0  0  0  0
   -6.2461    0.9809   -1.5128 H   0  0  0  0  0  0  0  0  0  0  0  0
   -4.1447    1.5167   -1.8239 H   0  0  0  0  0  0  0  0  0  0  0  0
    2.8776   -1.1668    0.1177 H   0  0  0  0  0  0  0  0  0  0  0  0
    6.3090   -1.5090    0.3166 H   0  0  0  0  0  0  0  0  0  0  0  0
  1  2  1  0  0  0  0
  2  3  1  0  0  0  0
  3  4  1  0  0  0  0
  4  5  1  0  0  0  0
  3  6  1  0  0  0  0
  6  7  2  0  0  0  0
  7  8  1  0  0  0  0
  8  9  2  0  0  0  0
  9 10  1  0  0  0  0
 10 11  2  0  0  0  0
 11 12  1  0  0  0  0
 12 13  1  0  0  0  0
 13 14  3  0  0  0  0
 12 15  2  0  0  0  0
 15 16  1  0  0  0  0
 16 17  3  0  0  0  0
 15 18  1  0  0  0  0
 18 19  2  0  0  0  0
 19 20  1  0  0  0  0
 20 21  2  0  0  0  0
 21 22  1  0  0  0  0
 22 23  2  0  0  0  0
 23 24  1  0  0  0  0
 24 25  1  0  0  0  0
 25 26  1  0  0  0  0
 24 27  1  0  0  0  0
 27 28  1  0  0  0  0
 23 29  1  0  0  0  0
 29 30  2  0  0  0  0
 30 31  1  0  0  0  0
  9 32  1  0  0  0  0
 32 33  1  0  0  0  0
 32 34  2  0  0  0  0
 34  6  1  0  0  0  0
 30 20  1  0  0  0  0
  1 35  1  0  0  0  0
  1 36  1  0  0  0  0
  1 37  1  0  0  0  0
  2 38  1  0  0  0  0
  2 39  1  0  0  0  0
  4 40  1  0  0  0  0
  4 41  1  0  0  0  0
  5 42  1  0  0  0  0
  5 43  1  0  0  0  0
  5 44  1  0  0  0  0
  7 45  1  0  0  0  0
  8 46  1  0  0  0  0
 10 47  1  0  0  0  0
 19 48  1  0  0  0  0
 21 49  1  0  0  0  0
 22 50  1  0  0  0  0
 25 51  1  0  0  0  0
 25 52  1  0  0  0  0
 26 53  1  0  0  0  0
 26 54  1  0  0  0  0
 26 55  1  0  0  0  0
 27 56  1  0  0  0  0
 27 57  1  0  0  0  0
 28 58  1  0  0  0  0
 28 59  1  0  0  0  0
 28 60  1  0  0  0  0
 29 61  1  0  0  0  0
 31 62  1  0  0  0  0
 33 63  1  0  0  0  0
 34 64  1  0  0  0  0
M  END
