
  xtb     03022214033D
 energy: -70.831936039933 gnorm: 0.000189693911 xtb: 6.4.1 (afa7bdf)
 46 49  0     0  0            999 V2000
   -1.5591   -1.9681    2.8141 C   0  0  0  0  0  0  0  0  0  0  0  0
   -2.1126   -1.4979    1.6031 O   0  0  0  0  0  0  0  0  0  0  0  0
   -1.4939   -0.3460    1.1470 C   0  0  0  0  0  0  0  0  0  0  0  0
   -1.9729    0.8914    1.6378 C   0  0  0  0  0  0  0  0  0  0  0  0
   -3.1037    0.9519    2.4844 C   0  0  0  0  0  0  0  0  0  0  0  0
   -3.5638    2.1430    2.9648 C   0  0  0  0  0  0  0  0  0  0  0  0
   -2.9071    3.3394    2.6312 C   0  0  0  0  0  0  0  0  0  0  0  0
   -1.8226    3.3209    1.8042 C   0  0  0  0  0  0  0  0  0  0  0  0
   -1.3310    2.1061    1.2718 C   0  0  0  0  0  0  0  0  0  0  0  0
   -0.2084    2.0775    0.4191 C   0  0  0  0  0  0  0  0  0  0  0  0
    0.4022    3.2815    0.0731 O   0  0  0  0  0  0  0  0  0  0  0  0
   -0.1730    3.8858   -1.0686 C   0  0  0  0  0  0  0  0  0  0  0  0
    0.2469    0.8567   -0.0495 C   0  0  0  0  0  0  0  0  0  0  0  0
   -0.4247   -0.3727    0.2683 C   0  0  0  0  0  0  0  0  0  0  0  0
    0.2826   -1.4137   -0.4504 C   0  0  0  0  0  0  0  0  0  0  0  0
    0.0676   -2.7846   -0.6590 C   0  0  0  0  0  0  0  0  0  0  0  0
   -1.1129   -3.5456   -0.1426 C   0  0  0  0  0  0  0  0  0  0  0  0
    0.9991   -3.4577   -1.4276 C   0  0  0  0  0  0  0  0  0  0  0  0
    2.0962   -2.8338   -2.0105 C   0  0  0  0  0  0  0  0  0  0  0  0
    2.2954   -1.4734   -1.8698 C   0  0  0  0  0  0  0  0  0  0  0  0
    3.3222   -0.7722   -2.4567 O   0  0  0  0  0  0  0  0  0  0  0  0
    4.2149   -1.4748   -3.2819 C   0  0  0  0  0  0  0  0  0  0  0  0
    1.3705   -0.7702   -1.0861 C   0  0  0  0  0  0  0  0  0  0  0  0
    1.3358    0.5817   -0.8322 N   0  0  0  0  0  0  0  0  0  0  0  0
    2.3477    1.5200   -1.2404 C   0  0  0  0  0  0  0  0  0  0  0  0
   -2.1317   -2.8525    3.0892 H   0  0  0  0  0  0  0  0  0  0  0  0
   -1.6379   -1.2183    3.6094 H   0  0  0  0  0  0  0  0  0  0  0  0
   -0.5037   -2.2352    2.6885 H   0  0  0  0  0  0  0  0  0  0  0  0
   -3.6108    0.0299    2.7268 H   0  0  0  0  0  0  0  0  0  0  0  0
   -4.4327    2.1738    3.6058 H   0  0  0  0  0  0  0  0  0  0  0  0
   -3.2697    4.2745    3.0327 H   0  0  0  0  0  0  0  0  0  0  0  0
   -1.3067    4.2358    1.5542 H   0  0  0  0  0  0  0  0  0  0  0  0
   -1.2411    4.0773   -0.9238 H   0  0  0  0  0  0  0  0  0  0  0  0
    0.3518    4.8292   -1.2122 H   0  0  0  0  0  0  0  0  0  0  0  0
   -0.0462    3.2569   -1.9571 H   0  0  0  0  0  0  0  0  0  0  0  0
   -0.9353   -3.8876    0.8762 H   0  0  0  0  0  0  0  0  0  0  0  0
   -2.0044   -2.9277   -0.1378 H   0  0  0  0  0  0  0  0  0  0  0  0
   -1.2876   -4.4221   -0.7634 H   0  0  0  0  0  0  0  0  0  0  0  0
    0.8659   -4.5158   -1.6002 H   0  0  0  0  0  0  0  0  0  0  0  0
    2.7754   -3.4310   -2.5972 H   0  0  0  0  0  0  0  0  0  0  0  0
    4.7649   -2.2403   -2.7242 H   0  0  0  0  0  0  0  0  0  0  0  0
    4.9168   -0.7298   -3.6546 H   0  0  0  0  0  0  0  0  0  0  0  0
    3.7008   -1.9421   -4.1284 H   0  0  0  0  0  0  0  0  0  0  0  0
    2.2103    2.4504   -0.6969 H   0  0  0  0  0  0  0  0  0  0  0  0
    3.3348    1.1185   -1.0158 H   0  0  0  0  0  0  0  0  0  0  0  0
    2.2916    1.7105   -2.3150 H   0  0  0  0  0  0  0  0  0  0  0  0
  1  2  1  0  0  0  0
  2  3  1  0  0  0  0
  3  4  2  0  0  0  0
  4  5  1  0  0  0  0
  5  6  2  0  0  0  0
  6  7  1  0  0  0  0
  7  8  2  0  0  0  0
  8  9  1  0  0  0  0
  9 10  2  0  0  0  0
 10 11  1  0  0  0  0
 11 12  1  0  0  0  0
 10 13  1  0  0  0  0
 13 14  2  0  0  0  0
 14 15  1  0  0  0  0
 15 16  2  0  0  0  0
 16 17  1  0  0  0  0
 16 18  1  0  0  0  0
 18 19  2  0  0  0  0
 19 20  1  0  0  0  0
 20 21  1  0  0  0  0
 21 22  1  0  0  0  0
 20 23  2  0  0  0  0
 23 24  1  0  0  0  0
 24 25  1  0  0  0  0
 14  3  1  0  0  0  0
 23 15  1  0  0  0  0
  9  4  1  0  0  0  0
 24 13  1  0  0  0  0
  1 26  1  0  0  0  0
  1 27  1  0  0  0  0
  1 28  1  0  0  0  0
  5 29  1  0  0  0  0
  6 30  1  0  0  0  0
  7 31  1  0  0  0  0
  8 32  1  0  0  0  0
 12 33  1  0  0  0  0
 12 34  1  0  0  0  0
 12 35  1  0  0  0  0
 17 36  1  0  0  0  0
 17 37  1  0  0  0  0
 17 38  1  0  0  0  0
 18 39  1  0  0  0  0
 19 40  1  0  0  0  0
 22 41  1  0  0  0  0
 22 42  1  0  0  0  0
 22 43  1  0  0  0  0
 25 44  1  0  0  0  0
 25 45  1  0  0  0  0
 25 46  1  0  0  0  0
M  END
