
  xtb     03022215313D
 energy: -70.829718923914 gnorm: 0.000146972372 xtb: 6.4.1 (afa7bdf)
 36 39  0     0  0            999 V2000
    6.8062   -0.9661    2.2482 O   0  0  0  0  0  0  0  0  0  0  0  0
    6.4316   -1.2062    1.1197 N   0  0  0  0  0  4  0  0  0  0  0  0
    7.1385   -1.6329    0.2330 O   0  0  0  0  0  1  0  0  0  0  0  0
    5.0426   -0.9727    0.8149 C   0  0  0  0  0  0  0  0  0  0  0  0
    4.5648   -1.2291   -0.4655 C   0  0  0  0  0  0  0  0  0  0  0  0
    3.2334   -1.0151   -0.7511 C   0  0  0  0  0  0  0  0  0  0  0  0
    2.3714   -0.5498    0.2441 C   0  0  0  0  0  0  0  0  0  0  0  0
    1.0218   -0.3374   -0.0539 N   0  0  0  0  0  4  0  0  0  0  0  0
    0.0873   -0.5531    0.8346 C   0  0  0  0  0  0  0  0  0  0  0  0
   -1.2621   -0.2397    0.6189 C   0  0  0  0  0  0  0  0  0  0  0  0
   -2.2571   -0.5369    1.5949 C   0  0  0  0  0  0  0  0  0  0  0  0
   -3.5466   -0.1737    1.4057 C   0  0  0  0  0  0  0  0  0  0  0  0
   -3.9427    0.5218    0.2274 C   0  0  0  0  0  0  0  0  0  0  0  0
   -5.2745    0.9086    0.0116 C   0  0  0  0  0  0  0  0  0  0  0  0
   -5.6371    1.5755   -1.1328 C   0  0  0  0  0  0  0  0  0  0  0  0
   -4.6831    1.8826   -2.1083 C   0  0  0  0  0  0  0  0  0  0  0  0
   -3.3736    1.5181   -1.9274 C   0  0  0  0  0  0  0  0  0  0  0  0
   -2.9801    0.8353   -0.7628 C   0  0  0  0  0  0  0  0  0  0  0  0
   -1.6194    0.4353   -0.5710 C   0  0  0  0  0  0  0  0  0  0  0  0
   -0.7449    0.7224   -1.4885 O   0  0  0  0  0  0  0  0  0  0  0  0
    0.6186    0.1907   -1.5102 B   0  0  0  0  0  4  0  0  0  0  0  0
    0.6797   -0.8786   -2.3746 F   0  0  0  0  0  0  0  0  0  0  0  0
    1.5001    1.1663   -1.8673 F   0  0  0  0  0  0  0  0  0  0  0  0
    2.8691   -0.2711    1.5209 C   0  0  0  0  0  0  0  0  0  0  0  0
    4.2000   -0.4845    1.8071 C   0  0  0  0  0  0  0  0  0  0  0  0
    5.2452   -1.5942   -1.2192 H   0  0  0  0  0  0  0  0  0  0  0  0
    2.8495   -1.2104   -1.7378 H   0  0  0  0  0  0  0  0  0  0  0  0
    0.3685   -0.9993    1.7850 H   0  0  0  0  0  0  0  0  0  0  0  0
   -1.9506   -1.0603    2.4884 H   0  0  0  0  0  0  0  0  0  0  0  0
   -4.2997   -0.4018    2.1445 H   0  0  0  0  0  0  0  0  0  0  0  0
   -6.0135    0.6714    0.7629 H   0  0  0  0  0  0  0  0  0  0  0  0
   -6.6661    1.8656   -1.2851 H   0  0  0  0  0  0  0  0  0  0  0  0
   -4.9836    2.4058   -3.0031 H   0  0  0  0  0  0  0  0  0  0  0  0
   -2.6191    1.7411   -2.6654 H   0  0  0  0  0  0  0  0  0  0  0  0
    2.2213    0.1448    2.2775 H   0  0  0  0  0  0  0  0  0  0  0  0
    4.6041   -0.2724    2.7852 H   0  0  0  0  0  0  0  0  0  0  0  0
  1  2  2  0  0  0  0
  2  3  1  0  0  0  0
  2  4  1  0  0  0  0
  4  5  2  0  0  0  0
  5  6  1  0  0  0  0
  6  7  2  0  0  0  0
  7  8  1  0  0  0  0
  8  9  2  0  0  0  0
  9 10  1  0  0  0  0
 10 11  2  0  0  0  0
 11 12  1  0  0  0  0
 12 13  2  0  0  0  0
 13 14  1  0  0  0  0
 14 15  2  0  0  0  0
 15 16  1  0  0  0  0
 16 17  2  0  0  0  0
 17 18  1  0  0  0  0
 18 19  2  0  0  0  0
 19 20  1  0  0  0  0
 20 21  1  0  0  0  0
 21 22  1  0  0  0  0
 21 23  1  0  0  0  0
  7 24  1  0  0  0  0
 24 25  2  0  0  0  0
 25  4  1  0  0  0  0
 21  8  1  0  0  0  0
 19 10  1  0  0  0  0
 18 13  1  0  0  0  0
  5 26  1  0  0  0  0
  6 27  1  0  0  0  0
  9 28  1  0  0  0  0
 11 29  1  0  0  0  0
 12 30  1  0  0  0  0
 14 31  1  0  0  0  0
 15 32  1  0  0  0  0
 16 33  1  0  0  0  0
 17 34  1  0  0  0  0
 24 35  1  0  0  0  0
 25 36  1  0  0  0  0
M  CHG  1   2   1
M  CHG  1   3  -1
M  CHG  1   8   1
M  CHG  1  21  -1
M  END
