
  xtb     03022214543D
 energy: -85.990490659409 gnorm: 0.000082972528 xtb: 6.4.1 (afa7bdf)
 60 64  0     0  0            999 V2000
    2.7937    0.0827   -1.1525 C   0  0  0  0  0  0  0  0  0  0  0  0
    3.6775    0.8803   -0.5256 C   0  0  0  0  0  0  0  0  0  0  0  0
    5.1162    0.7798   -0.8090 C   0  0  0  0  0  0  0  0  0  0  0  0
    5.5801    0.5255   -2.0991 C   0  0  0  0  0  0  0  0  0  0  0  0
    6.9352    0.4374   -2.3560 C   0  0  0  0  0  0  0  0  0  0  0  0
    7.8518    0.5993   -1.3305 C   0  0  0  0  0  0  0  0  0  0  0  0
    7.4033    0.8547   -0.0450 C   0  0  0  0  0  0  0  0  0  0  0  0
    6.0494    0.9489    0.2138 C   0  0  0  0  0  0  0  0  0  0  0  0
    3.2940    1.8541    0.5127 C   0  0  0  0  0  0  0  0  0  0  0  0
    2.4877    1.4754    1.5837 C   0  0  0  0  0  0  0  0  0  0  0  0
    2.1545    2.3889    2.5654 C   0  0  0  0  0  0  0  0  0  0  0  0
    2.6210    3.6916    2.4938 C   0  0  0  0  0  0  0  0  0  0  0  0
    3.4310    4.0745    1.4379 C   0  0  0  0  0  0  0  0  0  0  0  0
    3.7720    3.1610    0.4576 C   0  0  0  0  0  0  0  0  0  0  0  0
    1.3447    0.1216   -1.0454 C   0  0  0  0  0  0  0  0  0  0  0  0
    0.6339    1.3122   -0.8768 C   0  0  0  0  0  0  0  0  0  0  0  0
   -0.7412    1.3050   -0.8015 C   0  0  0  0  0  0  0  0  0  0  0  0
   -1.4658    0.1116   -0.8684 C   0  0  0  0  0  0  0  0  0  0  0  0
   -2.9161    0.1530   -0.7826 C   0  0  0  0  0  0  0  0  0  0  0  0
   -3.7275   -0.7849   -0.2610 C   0  0  0  0  0  0  0  0  0  0  0  0
   -5.1885   -0.6408   -0.3325 C   0  0  0  0  0  0  0  0  0  0  0  0
   -5.8035   -0.0924   -1.4573 C   0  0  0  0  0  0  0  0  0  0  0  0
   -7.1783    0.0354   -1.5168 C   0  0  0  0  0  0  0  0  0  0  0  0
   -7.9642   -0.3794   -0.4544 C   0  0  0  0  0  0  0  0  0  0  0  0
   -7.3650   -0.9281    0.6675 C   0  0  0  0  0  0  0  0  0  0  0  0
   -5.9912   -1.0626    0.7274 C   0  0  0  0  0  0  0  0  0  0  0  0
   -3.2332   -1.9733    0.4580 C   0  0  0  0  0  0  0  0  0  0  0  0
   -3.7336   -3.2360    0.1508 C   0  0  0  0  0  0  0  0  0  0  0  0
   -3.2871   -4.3525    0.8333 C   0  0  0  0  0  0  0  0  0  0  0  0
   -2.3468   -4.2214    1.8414 C   0  0  0  0  0  0  0  0  0  0  0  0
   -1.8560   -2.9668    2.1652 C   0  0  0  0  0  0  0  0  0  0  0  0
   -2.2949   -1.8498    1.4802 C   0  0  0  0  0  0  0  0  0  0  0  0
   -0.7577   -1.0736   -1.0806 C   0  0  0  0  0  0  0  0  0  0  0  0
    0.6160   -1.0638   -1.1776 C   0  0  0  0  0  0  0  0  0  0  0  0
    3.1789   -0.6946   -1.8019 H   0  0  0  0  0  0  0  0  0  0  0  0
    4.8719    0.4194   -2.9080 H   0  0  0  0  0  0  0  0  0  0  0  0
    7.2790    0.2467   -3.3625 H   0  0  0  0  0  0  0  0  0  0  0  0
    8.9105    0.5309   -1.5329 H   0  0  0  0  0  0  0  0  0  0  0  0
    8.1132    0.9821    0.7595 H   0  0  0  0  0  0  0  0  0  0  0  0
    5.7046    1.1430    1.2195 H   0  0  0  0  0  0  0  0  0  0  0  0
    2.1293    0.4579    1.6422 H   0  0  0  0  0  0  0  0  0  0  0  0
    1.5304    2.0837    3.3929 H   0  0  0  0  0  0  0  0  0  0  0  0
    2.3578    4.4047    3.2611 H   0  0  0  0  0  0  0  0  0  0  0  0
    3.8013    5.0878    1.3796 H   0  0  0  0  0  0  0  0  0  0  0  0
    4.4047    3.4591   -0.3667 H   0  0  0  0  0  0  0  0  0  0  0  0
    1.1671    2.2496   -0.8300 H   0  0  0  0  0  0  0  0  0  0  0  0
   -1.2732    2.2379   -0.6756 H   0  0  0  0  0  0  0  0  0  0  0  0
   -3.3670    1.0575   -1.1737 H   0  0  0  0  0  0  0  0  0  0  0  0
   -5.1986    0.2136   -2.2985 H   0  0  0  0  0  0  0  0  0  0  0  0
   -7.6403    0.4561   -2.3984 H   0  0  0  0  0  0  0  0  0  0  0  0
   -9.0386   -0.2793   -0.5024 H   0  0  0  0  0  0  0  0  0  0  0  0
   -7.9725   -1.2539    1.4995 H   0  0  0  0  0  0  0  0  0  0  0  0
   -5.5284   -1.4864    1.6072 H   0  0  0  0  0  0  0  0  0  0  0  0
   -4.4681   -3.3376   -0.6360 H   0  0  0  0  0  0  0  0  0  0  0  0
   -3.6765   -5.3280    0.5800 H   0  0  0  0  0  0  0  0  0  0  0  0
   -2.0008   -5.0936    2.3765 H   0  0  0  0  0  0  0  0  0  0  0  0
   -1.1297   -2.8592    2.9577 H   0  0  0  0  0  0  0  0  0  0  0  0
   -1.9170   -0.8706    1.7362 H   0  0  0  0  0  0  0  0  0  0  0  0
   -1.2952   -2.0029   -1.1943 H   0  0  0  0  0  0  0  0  0  0  0  0
    1.1452   -1.9914   -1.3467 H   0  0  0  0  0  0  0  0  0  0  0  0
  1  2  2  0  0  0  0
  2  3  1  0  0  0  0
  3  4  2  0  0  0  0
  4  5  1  0  0  0  0
  5  6  2  0  0  0  0
  6  7  1  0  0  0  0
  7  8  2  0  0  0  0
  2  9  1  0  0  0  0
  9 10  2  0  0  0  0
 10 11  1  0  0  0  0
 11 12  2  0  0  0  0
 12 13  1  0  0  0  0
 13 14  2  0  0  0  0
  1 15  1  0  0  0  0
 15 16  2  0  0  0  0
 16 17  1  0  0  0  0
 17 18  2  0  0  0  0
 18 19  1  0  0  0  0
 19 20  2  0  0  0  0
 20 21  1  0  0  0  0
 21 22  2  0  0  0  0
 22 23  1  0  0  0  0
 23 24  2  0  0  0  0
 24 25  1  0  0  0  0
 25 26  2  0  0  0  0
 20 27  1  0  0  0  0
 27 28  2  0  0  0  0
 28 29  1  0  0  0  0
 29 30  2  0  0  0  0
 30 31  1  0  0  0  0
 31 32  2  0  0  0  0
 18 33  1  0  0  0  0
 33 34  2  0  0  0  0
  8  3  1  0  0  0  0
 14  9  1  0  0  0  0
 34 15  1  0  0  0  0
 26 21  1  0  0  0  0
 32 27  1  0  0  0  0
  1 35  1  0  0  0  0
  4 36  1  0  0  0  0
  5 37  1  0  0  0  0
  6 38  1  0  0  0  0
  7 39  1  0  0  0  0
  8 40  1  0  0  0  0
 10 41  1  0  0  0  0
 11 42  1  0  0  0  0
 12 43  1  0  0  0  0
 13 44  1  0  0  0  0
 14 45  1  0  0  0  0
 16 46  1  0  0  0  0
 17 47  1  0  0  0  0
 19 48  1  0  0  0  0
 22 49  1  0  0  0  0
 23 50  1  0  0  0  0
 24 51  1  0  0  0  0
 25 52  1  0  0  0  0
 26 53  1  0  0  0  0
 28 54  1  0  0  0  0
 29 55  1  0  0  0  0
 30 56  1  0  0  0  0
 31 57  1  0  0  0  0
 32 58  1  0  0  0  0
 33 59  1  0  0  0  0
 34 60  1  0  0  0  0
M  END
