
  xtb     03022216153D
 energy: -28.645534003054 gnorm: 0.000150617181 xtb: 6.4.1 (afa7bdf)
 21 22  0     0  0            999 V2000
   -3.3198    0.4978   -0.0957 C   0  0  0  0  0  0  0  0  0  0  0  0
   -1.8830    0.0762   -0.0471 C   0  0  0  0  0  0  0  0  0  0  0  0
   -1.5701   -1.2984   -0.0042 C   0  0  0  0  0  0  0  0  0  0  0  0
   -0.2749   -1.7254    0.0384 C   0  0  0  0  0  0  0  0  0  0  0  0
    0.7912   -0.8012    0.0407 C   0  0  0  0  0  0  0  0  0  0  0  0
    2.1409   -1.2056    0.0841 C   0  0  0  0  0  0  0  0  0  0  0  0
    3.1472   -0.2805    0.0848 C   0  0  0  0  0  0  0  0  0  0  0  0
    2.8486    1.0901    0.0421 C   0  0  0  0  0  0  0  0  0  0  0  0
    1.5496    1.5131   -0.0004 C   0  0  0  0  0  0  0  0  0  0  0  0
    0.4883    0.5843   -0.0023 C   0  0  0  0  0  0  0  0  0  0  0  0
   -0.8621    0.9890   -0.0456 C   0  0  0  0  0  0  0  0  0  0  0  0
   -3.8614    0.0973    0.7606 H   0  0  0  0  0  0  0  0  0  0  0  0
   -3.7952    0.1139   -0.9981 H   0  0  0  0  0  0  0  0  0  0  0  0
   -3.4098    1.5810   -0.0898 H   0  0  0  0  0  0  0  0  0  0  0  0
   -2.3796   -2.0149   -0.0056 H   0  0  0  0  0  0  0  0  0  0  0  0
   -0.0463   -2.7815    0.0714 H   0  0  0  0  0  0  0  0  0  0  0  0
    2.3651   -2.2626    0.1169 H   0  0  0  0  0  0  0  0  0  0  0  0
    4.1797   -0.5969    0.1181 H   0  0  0  0  0  0  0  0  0  0  0  0
    3.6561    1.8079    0.0432 H   0  0  0  0  0  0  0  0  0  0  0  0
    1.3159    2.5681   -0.0333 H   0  0  0  0  0  0  0  0  0  0  0  0
   -1.0803    2.0478   -0.0779 H   0  0  0  0  0  0  0  0  0  0  0  0
  1  2  1  0  0  0  0
  2  3  2  0  0  0  0
  3  4  1  0  0  0  0
  4  5  2  0  0  0  0
  5  6  1  0  0  0  0
  6  7  2  0  0  0  0
  7  8  1  0  0  0  0
  8  9  2  0  0  0  0
  9 10  1  0  0  0  0
 10 11  2  0  0  0  0
 11  2  1  0  0  0  0
 10  5  1  0  0  0  0
  1 12  1  0  0  0  0
  1 13  1  0  0  0  0
  1 14  1  0  0  0  0
  3 15  1  0  0  0  0
  4 16  1  0  0  0  0
  6 17  1  0  0  0  0
  7 18  1  0  0  0  0
  8 19  1  0  0  0  0
  9 20  1  0  0  0  0
 11 21  1  0  0  0  0
M  END
