
  xtb     03022214413D
 energy: -63.963450629135 gnorm: 0.000181174351 xtb: 6.4.1 (afa7bdf)
 38 41  0     0  0            999 V2000
   -6.8206    0.2849    0.9860 O   0  0  0  0  0  0  0  0  0  0  0  0
   -6.0155    0.9432    0.3722 C   0  0  0  0  0  0  0  0  0  0  0  0
   -6.3774    2.0423   -0.3128 O   0  0  0  0  0  0  0  0  0  0  0  0
   -4.5739    0.6451    0.2881 C   0  0  0  0  0  0  0  0  0  0  0  0
   -4.0804   -0.4592    0.9818 C   0  0  0  0  0  0  0  0  0  0  0  0
   -2.7412   -0.7791    0.9261 C   0  0  0  0  0  0  0  0  0  0  0  0
   -1.8635   -0.0035    0.1631 C   0  0  0  0  0  0  0  0  0  0  0  0
   -0.4436   -0.2754    0.0779 C   0  0  0  0  0  0  0  0  0  0  0  0
    0.4621    0.6817   -0.0131 N   0  0  0  0  0  0  0  0  0  0  0  0
    1.6817    0.1128   -0.0063 C   0  0  0  0  0  0  0  0  0  0  0  0
    2.8875    0.9215   -0.0552 C   0  0  0  0  0  0  0  0  0  0  0  0
    4.0847    0.5030    0.5230 C   0  0  0  0  0  0  0  0  0  0  0  0
    5.2100    1.3029    0.4541 C   0  0  0  0  0  0  0  0  0  0  0  0
    5.1577    2.5312   -0.1834 C   0  0  0  0  0  0  0  0  0  0  0  0
    3.9657    2.9648   -0.7417 C   0  0  0  0  0  0  0  0  0  0  0  0
    2.8392    2.1695   -0.6770 C   0  0  0  0  0  0  0  0  0  0  0  0
    1.5360   -1.2806    0.0509 C   0  0  0  0  0  0  0  0  0  0  0  0
    2.4030   -2.3833   -0.0137 C   0  0  0  0  0  0  0  0  0  0  0  0
    1.8890   -3.6464   -0.0132 C   0  0  0  0  0  0  0  0  0  0  0  0
    0.4857   -3.8346    0.0167 C   0  0  0  0  0  0  0  0  0  0  0  0
   -0.3511   -2.7686    0.0604 C   0  0  0  0  0  0  0  0  0  0  0  0
    0.1577   -1.5058    0.1057 N   0  0  0  0  0  0  0  0  0  0  0  0
   -2.3590    1.1224   -0.5034 C   0  0  0  0  0  0  0  0  0  0  0  0
   -3.6963    1.4436   -0.4460 C   0  0  0  0  0  0  0  0  0  0  0  0
   -7.3315    2.1842   -0.2149 H   0  0  0  0  0  0  0  0  0  0  0  0
   -4.7684   -1.0492    1.5684 H   0  0  0  0  0  0  0  0  0  0  0  0
   -2.3708   -1.6067    1.5126 H   0  0  0  0  0  0  0  0  0  0  0  0
    4.1278   -0.4352    1.0556 H   0  0  0  0  0  0  0  0  0  0  0  0
    6.1325    0.9692    0.9074 H   0  0  0  0  0  0  0  0  0  0  0  0
    6.0401    3.1519   -0.2360 H   0  0  0  0  0  0  0  0  0  0  0  0
    3.9175    3.9277   -1.2293 H   0  0  0  0  0  0  0  0  0  0  0  0
    1.9036    2.4962   -1.1034 H   0  0  0  0  0  0  0  0  0  0  0  0
    3.4636   -2.2082   -0.0885 H   0  0  0  0  0  0  0  0  0  0  0  0
    2.5370   -4.5066   -0.0623 H   0  0  0  0  0  0  0  0  0  0  0  0
    0.0774   -4.8314   -0.0174 H   0  0  0  0  0  0  0  0  0  0  0  0
   -1.4242   -2.8644    0.0270 H   0  0  0  0  0  0  0  0  0  0  0  0
   -1.6658    1.7317   -1.0613 H   0  0  0  0  0  0  0  0  0  0  0  0
   -4.0760    2.3084   -0.9667 H   0  0  0  0  0  0  0  0  0  0  0  0
  1  2  2  0  0  0  0
  2  3  1  0  0  0  0
  2  4  1  0  0  0  0
  4  5  2  0  0  0  0
  5  6  1  0  0  0  0
  6  7  2  0  0  0  0
  7  8  1  0  0  0  0
  8  9  2  0  0  0  0
  9 10  1  0  0  0  0
 10 11  1  0  0  0  0
 11 12  2  0  0  0  0
 12 13  1  0  0  0  0
 13 14  2  0  0  0  0
 14 15  1  0  0  0  0
 15 16  2  0  0  0  0
 10 17  2  0  0  0  0
 17 18  1  0  0  0  0
 18 19  2  0  0  0  0
 19 20  1  0  0  0  0
 20 21  2  0  0  0  0
 21 22  1  0  0  0  0
  7 23  1  0  0  0  0
 23 24  2  0  0  0  0
 24  4  1  0  0  0  0
 22  8  1  0  0  0  0
 16 11  1  0  0  0  0
 22 17  1  0  0  0  0
  3 25  1  0  0  0  0
  5 26  1  0  0  0  0
  6 27  1  0  0  0  0
 12 28  1  0  0  0  0
 13 29  1  0  0  0  0
 14 30  1  0  0  0  0
 15 31  1  0  0  0  0
 16 32  1  0  0  0  0
 18 33  1  0  0  0  0
 19 34  1  0  0  0  0
 20 35  1  0  0  0  0
 21 36  1  0  0  0  0
 23 37  1  0  0  0  0
 24 38  1  0  0  0  0
M  END
