
  xtb     03022215423D
 energy: -108.614518827681 gnorm: 0.000126954931 xtb: 6.4.1 (afa7bdf)
 68 74  0     0  0            999 V2000
    0.8823    0.7104   -2.4075 O   0  0  0  0  0  0  0  0  0  0  0  0
    0.4776    0.3790   -1.3047 C   0  0  0  0  0  0  0  0  0  0  0  0
   -0.9504    0.3179   -0.9759 C   0  0  0  0  0  0  0  0  0  0  0  0
   -1.8893    0.6638   -1.9506 C   0  0  0  0  0  0  0  0  0  0  0  0
   -3.2389    0.6241   -1.6914 C   0  0  0  0  0  0  0  0  0  0  0  0
   -3.7065    0.2289   -0.4300 C   0  0  0  0  0  0  0  0  0  0  0  0
   -5.0621    0.1822   -0.1569 N   0  0  0  0  0  0  0  0  0  0  0  0
   -5.9552    1.0552   -0.7995 C   0  0  0  0  0  0  0  0  0  0  0  0
   -5.6131    2.3899   -1.0097 C   0  0  0  0  0  0  0  0  0  0  0  0
   -6.5021    3.2432   -1.6345 C   0  0  0  0  0  0  0  0  0  0  0  0
   -7.7417    2.7839   -2.0485 C   0  0  0  0  0  0  0  0  0  0  0  0
   -8.0882    1.4599   -1.8341 C   0  0  0  0  0  0  0  0  0  0  0  0
   -7.2032    0.5969   -1.2168 C   0  0  0  0  0  0  0  0  0  0  0  0
   -5.5733   -0.7388    0.7743 C   0  0  0  0  0  0  0  0  0  0  0  0
   -5.0882   -2.0443    0.8174 C   0  0  0  0  0  0  0  0  0  0  0  0
   -5.6036   -2.9448    1.7296 C   0  0  0  0  0  0  0  0  0  0  0  0
   -6.6110   -2.5620    2.5997 C   0  0  0  0  0  0  0  0  0  0  0  0
   -7.1003   -1.2670    2.5547 C   0  0  0  0  0  0  0  0  0  0  0  0
   -6.5858   -0.3567    1.6515 C   0  0  0  0  0  0  0  0  0  0  0  0
   -2.7709   -0.1193    0.5477 C   0  0  0  0  0  0  0  0  0  0  0  0
   -1.4112   -0.0779    0.2891 C   0  0  0  0  0  0  0  0  0  0  0  0
   -0.4793   -0.4475    1.3812 C   0  0  0  0  0  0  0  0  0  0  0  0
   -0.8843   -0.7927    2.4796 O   0  0  0  0  0  0  0  0  0  0  0  0
    0.9492   -0.3710    1.0573 C   0  0  0  0  0  0  0  0  0  0  0  0
    1.8887   -0.6897    2.0405 C   0  0  0  0  0  0  0  0  0  0  0  0
    3.2388   -0.6313    1.7872 C   0  0  0  0  0  0  0  0  0  0  0  0
    3.7060   -0.2487    0.5218 C   0  0  0  0  0  0  0  0  0  0  0  0
    5.0620   -0.1874    0.2535 N   0  0  0  0  0  0  0  0  0  0  0  0
    5.9822    0.1192    1.2694 C   0  0  0  0  0  0  0  0  0  0  0  0
    7.2040   -0.5480    1.3313 C   0  0  0  0  0  0  0  0  0  0  0  0
    8.1162   -0.2344    2.3205 C   0  0  0  0  0  0  0  0  0  0  0  0
    7.8232    0.7397    3.2608 C   0  0  0  0  0  0  0  0  0  0  0  0
    6.6097    1.4054    3.2021 C   0  0  0  0  0  0  0  0  0  0  0  0
    5.6940    1.1042    2.2125 C   0  0  0  0  0  0  0  0  0  0  0  0
    5.5465   -0.4235   -1.0450 C   0  0  0  0  0  0  0  0  0  0  0  0
    5.0077   -1.4434   -1.8266 C   0  0  0  0  0  0  0  0  0  0  0  0
    5.4969   -1.6736   -3.0980 C   0  0  0  0  0  0  0  0  0  0  0  0
    6.5310   -0.9016   -3.6015 C   0  0  0  0  0  0  0  0  0  0  0  0
    7.0736    0.1083   -2.8243 C   0  0  0  0  0  0  0  0  0  0  0  0
    6.5858    0.3516   -1.5546 C   0  0  0  0  0  0  0  0  0  0  0  0
    2.7697    0.0692   -0.4655 C   0  0  0  0  0  0  0  0  0  0  0  0
    1.4097    0.0129   -0.2115 C   0  0  0  0  0  0  0  0  0  0  0  0
   -1.5240    0.9564   -2.9239 H   0  0  0  0  0  0  0  0  0  0  0  0
   -3.9477    0.8848   -2.4632 H   0  0  0  0  0  0  0  0  0  0  0  0
   -4.6522    2.7522   -0.6750 H   0  0  0  0  0  0  0  0  0  0  0  0
   -6.2277    4.2759   -1.7907 H   0  0  0  0  0  0  0  0  0  0  0  0
   -8.4344    3.4545   -2.5337 H   0  0  0  0  0  0  0  0  0  0  0  0
   -9.0519    1.0939   -2.1557 H   0  0  0  0  0  0  0  0  0  0  0  0
   -7.4707   -0.4370   -1.0547 H   0  0  0  0  0  0  0  0  0  0  0  0
   -4.3107   -2.3471    0.1315 H   0  0  0  0  0  0  0  0  0  0  0  0
   -5.2203   -3.9539    1.7553 H   0  0  0  0  0  0  0  0  0  0  0  0
   -7.0128   -3.2693    3.3091 H   0  0  0  0  0  0  0  0  0  0  0  0
   -7.8828   -0.9600    3.2326 H   0  0  0  0  0  0  0  0  0  0  0  0
   -6.9615    0.6555    1.6213 H   0  0  0  0  0  0  0  0  0  0  0  0
   -3.0921   -0.4142    1.5361 H   0  0  0  0  0  0  0  0  0  0  0  0
    1.5233   -0.9944    3.0099 H   0  0  0  0  0  0  0  0  0  0  0  0
    3.9477   -0.8926    2.5587 H   0  0  0  0  0  0  0  0  0  0  0  0
    7.4296   -1.3114    0.6013 H   0  0  0  0  0  0  0  0  0  0  0  0
    9.0591   -0.7592    2.3609 H   0  0  0  0  0  0  0  0  0  0  0  0
    8.5370    0.9802    4.0338 H   0  0  0  0  0  0  0  0  0  0  0  0
    6.3771    2.1718    3.9265 H   0  0  0  0  0  0  0  0  0  0  0  0
    4.7538    1.6332    2.1592 H   0  0  0  0  0  0  0  0  0  0  0  0
    4.2093   -2.0534   -1.4306 H   0  0  0  0  0  0  0  0  0  0  0  0
    5.0720   -2.4659   -3.6959 H   0  0  0  0  0  0  0  0  0  0  0  0
    6.9119   -1.0862   -4.5943 H   0  0  0  0  0  0  0  0  0  0  0  0
    7.8772    0.7171   -3.2114 H   0  0  0  0  0  0  0  0  0  0  0  0
    7.0033    1.1443   -0.9512 H   0  0  0  0  0  0  0  0  0  0  0  0
    3.0912    0.3827   -1.4480 H   0  0  0  0  0  0  0  0  0  0  0  0
  1  2  2  0  0  0  0
  2  3  1  0  0  0  0
  3  4  2  0  0  0  0
  4  5  1  0  0  0  0
  5  6  2  0  0  0  0
  6  7  1  0  0  0  0
  7  8  1  0  0  0  0
  8  9  2  0  0  0  0
  9 10  1  0  0  0  0
 10 11  2  0  0  0  0
 11 12  1  0  0  0  0
 12 13  2  0  0  0  0
  7 14  1  0  0  0  0
 14 15  2  0  0  0  0
 15 16  1  0  0  0  0
 16 17  2  0  0  0  0
 17 18  1  0  0  0  0
 18 19  2  0  0  0  0
  6 20  1  0  0  0  0
 20 21  2  0  0  0  0
 21 22  1  0  0  0  0
 22 23  2  0  0  0  0
 22 24  1  0  0  0  0
 24 25  2  0  0  0  0
 25 26  1  0  0  0  0
 26 27  2  0  0  0  0
 27 28  1  0  0  0  0
 28 29  1  0  0  0  0
 29 30  2  0  0  0  0
 30 31  1  0  0  0  0
 31 32  2  0  0  0  0
 32 33  1  0  0  0  0
 33 34  2  0  0  0  0
 28 35  1  0  0  0  0
 35 36  2  0  0  0  0
 36 37  1  0  0  0  0
 37 38  2  0  0  0  0
 38 39  1  0  0  0  0
 39 40  2  0  0  0  0
 27 41  1  0  0  0  0
 41 42  2  0  0  0  0
 42  2  1  0  0  0  0
 21  3  1  0  0  0  0
 42 24  1  0  0  0  0
 13  8  1  0  0  0  0
 19 14  1  0  0  0  0
 34 29  1  0  0  0  0
 40 35  1  0  0  0  0
  4 43  1  0  0  0  0
  5 44  1  0  0  0  0
  9 45  1  0  0  0  0
 10 46  1  0  0  0  0
 11 47  1  0  0  0  0
 12 48  1  0  0  0  0
 13 49  1  0  0  0  0
 15 50  1  0  0  0  0
 16 51  1  0  0  0  0
 17 52  1  0  0  0  0
 18 53  1  0  0  0  0
 19 54  1  0  0  0  0
 20 55  1  0  0  0  0
 25 56  1  0  0  0  0
 26 57  1  0  0  0  0
 30 58  1  0  0  0  0
 31 59  1  0  0  0  0
 32 60  1  0  0  0  0
 33 61  1  0  0  0  0
 34 62  1  0  0  0  0
 36 63  1  0  0  0  0
 37 64  1  0  0  0  0
 38 65  1  0  0  0  0
 39 66  1  0  0  0  0
 40 67  1  0  0  0  0
 41 68  1  0  0  0  0
M  END
