
  xtb     03022216023D
 energy: -85.688703132192 gnorm: 0.000292203787 xtb: 6.4.1 (afa7bdf)
 51 53  0     0  0            999 V2000
    0.0497   -6.1070    0.9737 C   0  0  0  0  0  0  0  0  0  0  0  0
    0.5863   -4.8887    0.2530 C   0  0  0  0  0  0  0  0  0  0  0  0
    1.6970   -4.8183   -0.2009 O   0  0  0  0  0  0  0  0  0  0  0  0
   -0.3263   -3.9245    0.2033 O   0  0  0  0  0  0  0  0  0  0  0  0
   -0.1025   -2.6910   -0.5217 B   0  0  0  0  0  4  0  0  0  0  0  0
    0.1364   -2.9801   -1.9474 O   0  0  0  0  0  0  0  0  0  0  0  0
    0.4155   -2.0239   -2.8084 C   0  0  0  0  0  0  0  0  0  0  0  0
    0.7205   -2.5747   -4.1807 C   0  0  0  0  0  0  0  0  0  0  0  0
    0.4261   -0.8421   -2.5445 O   0  0  0  0  0  0  0  0  0  0  0  0
   -1.3528   -1.8906   -0.3840 O   0  0  0  0  0  0  0  0  0  0  0  0
   -1.3303   -0.6266   -0.0928 C   0  0  0  0  0  0  0  0  0  0  0  0
   -2.6293    0.0140   -0.1390 C   0  0  0  0  0  0  0  0  0  0  0  0
   -2.8826    1.3103    0.1082 C   0  0  0  0  0  0  0  0  0  0  0  0
   -4.1766    1.9578    0.0563 C   0  0  0  0  0  0  0  0  0  0  0  0
   -5.3586    1.2870   -0.2755 C   0  0  0  0  0  0  0  0  0  0  0  0
   -6.5643    1.9583   -0.3057 C   0  0  0  0  0  0  0  0  0  0  0  0
   -6.6226    3.3111   -0.0068 C   0  0  0  0  0  0  0  0  0  0  0  0
   -5.4616    3.9918    0.3228 C   0  0  0  0  0  0  0  0  0  0  0  0
   -4.2540    3.3235    0.3536 C   0  0  0  0  0  0  0  0  0  0  0  0
   -0.1533    0.0329    0.2516 C   0  0  0  0  0  0  0  0  0  0  0  0
    1.0398   -0.6910    0.2892 C   0  0  0  0  0  0  0  0  0  0  0  0
    2.3213   -0.1202    0.6475 C   0  0  0  0  0  0  0  0  0  0  0  0
    2.5748    1.1829    0.8564 C   0  0  0  0  0  0  0  0  0  0  0  0
    3.8585    1.7634    1.1893 C   0  0  0  0  0  0  0  0  0  0  0  0
    3.9516    3.1541    1.3188 C   0  0  0  0  0  0  0  0  0  0  0  0
    5.1512    3.7610    1.6328 C   0  0  0  0  0  0  0  0  0  0  0  0
    6.2873    2.9920    1.8275 C   0  0  0  0  0  0  0  0  0  0  0  0
    6.2125    1.6127    1.7058 C   0  0  0  0  0  0  0  0  0  0  0  0
    5.0153    1.0025    1.3904 C   0  0  0  0  0  0  0  0  0  0  0  0
    1.0752   -1.9577    0.0361 O   0  0  0  0  0  3  0  0  0  0  0  0
   -0.3951   -5.8072    1.9181 H   0  0  0  0  0  0  0  0  0  0  0  0
    0.8525   -6.8190    1.1383 H   0  0  0  0  0  0  0  0  0  0  0  0
   -0.7246   -6.5610    0.3602 H   0  0  0  0  0  0  0  0  0  0  0  0
   -0.1217   -3.1690   -4.5245 H   0  0  0  0  0  0  0  0  0  0  0  0
    0.9167   -1.7603   -4.8711 H   0  0  0  0  0  0  0  0  0  0  0  0
    1.5874   -3.2262   -4.1086 H   0  0  0  0  0  0  0  0  0  0  0  0
   -3.4234   -0.6652   -0.4133 H   0  0  0  0  0  0  0  0  0  0  0  0
   -2.0655    1.9676    0.3740 H   0  0  0  0  0  0  0  0  0  0  0  0
   -5.3332    0.2355   -0.5123 H   0  0  0  0  0  0  0  0  0  0  0  0
   -7.4675    1.4257   -0.5642 H   0  0  0  0  0  0  0  0  0  0  0  0
   -7.5683    3.8314   -0.0316 H   0  0  0  0  0  0  0  0  0  0  0  0
   -5.5004    5.0457    0.5555 H   0  0  0  0  0  0  0  0  0  0  0  0
   -3.3518    3.8600    0.6108 H   0  0  0  0  0  0  0  0  0  0  0  0
   -0.1599    1.0818    0.4731 H   0  0  0  0  0  0  0  0  0  0  0  0
    3.1083   -0.8586    0.7009 H   0  0  0  0  0  0  0  0  0  0  0  0
    1.7704    1.9003    0.7616 H   0  0  0  0  0  0  0  0  0  0  0  0
    3.0691    3.7592    1.1666 H   0  0  0  0  0  0  0  0  0  0  0  0
    5.2034    4.8357    1.7262 H   0  0  0  0  0  0  0  0  0  0  0  0
    7.2267    3.4644    2.0726 H   0  0  0  0  0  0  0  0  0  0  0  0
    7.0964    1.0110    1.8576 H   0  0  0  0  0  0  0  0  0  0  0  0
    4.9765   -0.0712    1.3008 H   0  0  0  0  0  0  0  0  0  0  0  0
  1  2  1  0  0  0  0
  2  3  2  0  0  0  0
  2  4  1  0  0  0  0
  4  5  1  0  0  0  0
  5  6  1  0  0  0  0
  6  7  1  0  0  0  0
  7  8  1  0  0  0  0
  7  9  2  0  0  0  0
  5 10  1  0  0  0  0
 10 11  1  0  0  0  0
 11 12  1  0  0  0  0
 12 13  2  0  0  0  0
 13 14  1  0  0  0  0
 14 15  2  0  0  0  0
 15 16  1  0  0  0  0
 16 17  2  0  0  0  0
 17 18  1  0  0  0  0
 18 19  2  0  0  0  0
 11 20  2  0  0  0  0
 20 21  1  0  0  0  0
 21 22  1  0  0  0  0
 22 23  2  0  0  0  0
 23 24  1  0  0  0  0
 24 25  2  0  0  0  0
 25 26  1  0  0  0  0
 26 27  2  0  0  0  0
 27 28  1  0  0  0  0
 28 29  2  0  0  0  0
 21 30  2  0  0  0  0
 30  5  1  0  0  0  0
 19 14  1  0  0  0  0
 29 24  1  0  0  0  0
  1 31  1  0  0  0  0
  1 32  1  0  0  0  0
  1 33  1  0  0  0  0
  8 34  1  0  0  0  0
  8 35  1  0  0  0  0
  8 36  1  0  0  0  0
 12 37  1  0  0  0  0
 13 38  1  0  0  0  0
 15 39  1  0  0  0  0
 16 40  1  0  0  0  0
 17 41  1  0  0  0  0
 18 42  1  0  0  0  0
 19 43  1  0  0  0  0
 20 44  1  0  0  0  0
 22 45  1  0  0  0  0
 23 46  1  0  0  0  0
 25 47  1  0  0  0  0
 26 48  1  0  0  0  0
 27 49  1  0  0  0  0
 28 50  1  0  0  0  0
 29 51  1  0  0  0  0
M  CHG  1   5  -1
M  CHG  1  30   1
M  END
