
  xtb     03022214573D
 energy: -52.950279087371 gnorm: 0.000096796342 xtb: 6.4.1 (afa7bdf)
 28 31  0     0  0            999 V2000
   -1.0830   -2.2710    0.0187 O   0  0  0  0  0  0  0  0  0  0  0  0
   -1.5405   -1.1437    0.0238 C   0  0  0  0  0  0  0  0  0  0  0  0
   -0.6751    0.0498    0.0804 C   0  0  0  0  0  0  0  0  0  0  0  0
    0.6754   -0.0525    0.1295 C   0  0  0  0  0  0  0  0  0  0  0  0
    1.5283   -1.5537    0.1320 S   0  0  0  0  0  0  0  0  0  0  0  0
    3.0707   -0.6863    0.2078 C   0  0  0  0  0  0  0  0  0  0  0  0
    4.3217   -1.2727    0.2435 C   0  0  0  0  0  0  0  0  0  0  0  0
    5.4369   -0.4507    0.3022 C   0  0  0  0  0  0  0  0  0  0  0  0
    5.3089    0.9329    0.3249 C   0  0  0  0  0  0  0  0  0  0  0  0
    4.0573    1.5195    0.2891 C   0  0  0  0  0  0  0  0  0  0  0  0
    2.9322    0.7062    0.2302 C   0  0  0  0  0  0  0  0  0  0  0  0
    1.5398    1.1417    0.1861 C   0  0  0  0  0  0  0  0  0  0  0  0
    1.0811    2.2685    0.1912 O   0  0  0  0  0  0  0  0  0  0  0  0
   -1.5267    1.5517    0.0780 S   0  0  0  0  0  0  0  0  0  0  0  0
   -3.0698    0.6857    0.0023 C   0  0  0  0  0  0  0  0  0  0  0  0
   -4.3202    1.2733   -0.0333 C   0  0  0  0  0  0  0  0  0  0  0  0
   -5.4362    0.4524   -0.0920 C   0  0  0  0  0  0  0  0  0  0  0  0
   -5.3096   -0.9313   -0.1148 C   0  0  0  0  0  0  0  0  0  0  0  0
   -4.0585   -1.5191   -0.0791 C   0  0  0  0  0  0  0  0  0  0  0  0
   -2.9326   -0.7069   -0.0202 C   0  0  0  0  0  0  0  0  0  0  0  0
    4.4221   -2.3464    0.2259 H   0  0  0  0  0  0  0  0  0  0  0  0
    6.4201   -0.8960    0.3306 H   0  0  0  0  0  0  0  0  0  0  0  0
    6.1922    1.5513    0.3707 H   0  0  0  0  0  0  0  0  0  0  0  0
    3.9307    2.5912    0.3057 H   0  0  0  0  0  0  0  0  0  0  0  0
   -4.4195    2.3471   -0.0157 H   0  0  0  0  0  0  0  0  0  0  0  0
   -6.4190    0.8987   -0.1203 H   0  0  0  0  0  0  0  0  0  0  0  0
   -6.1934   -1.5488   -0.1606 H   0  0  0  0  0  0  0  0  0  0  0  0
   -3.9330   -2.5909   -0.0957 H   0  0  0  0  0  0  0  0  0  0  0  0
  1  2  2  0  0  0  0
  2  3  1  0  0  0  0
  3  4  2  0  0  0  0
  4  5  1  0  0  0  0
  5  6  1  0  0  0  0
  6  7  2  0  0  0  0
  7  8  1  0  0  0  0
  8  9  2  0  0  0  0
  9 10  1  0  0  0  0
 10 11  2  0  0  0  0
 11 12  1  0  0  0  0
 12 13  2  0  0  0  0
  3 14  1  0  0  0  0
 14 15  1  0  0  0  0
 15 16  2  0  0  0  0
 16 17  1  0  0  0  0
 17 18  2  0  0  0  0
 18 19  1  0  0  0  0
 19 20  2  0  0  0  0
 20  2  1  0  0  0  0
 12  4  1  0  0  0  0
 20 15  1  0  0  0  0
 11  6  1  0  0  0  0
  7 21  1  0  0  0  0
  8 22  1  0  0  0  0
  9 23  1  0  0  0  0
 10 24  1  0  0  0  0
 16 25  1  0  0  0  0
 17 26  1  0  0  0  0
 18 27  1  0  0  0  0
 19 28  1  0  0  0  0
M  END
