
  xtb     03022212133D
 energy: -58.463515941844 gnorm: 0.000118724441 xtb: 6.4.1 (afa7bdf)
 33 36  0     0  0            999 V2000
   -4.1599   -2.6277    0.9375 O   0  0  0  0  0  0  0  0  0  0  0  0
   -2.9777   -2.3882    0.8562 C   0  0  0  0  0  0  0  0  0  0  0  0
   -2.3413   -1.1484    0.4072 C   0  0  0  0  0  0  0  0  0  0  0  0
   -0.9430   -1.1284    0.4068 C   0  0  0  0  0  0  0  0  0  0  0  0
   -0.2703   -2.2083    0.8039 O   0  0  0  0  0  0  0  0  0  0  0  0
   -0.2475    0.0472   -0.0184 C   0  0  0  0  0  0  0  0  0  0  0  0
    1.1948    0.0728   -0.0207 C   0  0  0  0  0  0  0  0  0  0  0  0
    1.9414   -0.9169    0.3439 N   0  0  0  0  0  0  0  0  0  0  0  0
    3.2712   -0.6451    0.2514 C   0  0  0  0  0  0  0  0  0  0  0  0
    4.3100   -1.5147    0.5736 C   0  0  0  0  0  0  0  0  0  0  0  0
    5.6077   -1.0777    0.4207 C   0  0  0  0  0  0  0  0  0  0  0  0
    5.8868    0.2061   -0.0461 C   0  0  0  0  0  0  0  0  0  0  0  0
    4.8716    1.0841   -0.3712 C   0  0  0  0  0  0  0  0  0  0  0  0
    3.5650    0.6528   -0.2205 C   0  0  0  0  0  0  0  0  0  0  0  0
    2.0891    1.5107   -0.5406 S   0  0  0  0  0  0  0  0  0  0  0  0
   -0.9662    1.1503   -0.4242 C   0  0  0  0  0  0  0  0  0  0  0  0
   -2.3671    1.1612   -0.4351 C   0  0  0  0  0  0  0  0  0  0  0  0
   -3.0781    2.3061   -0.8561 C   0  0  0  0  0  0  0  0  0  0  0  0
   -4.4436    2.3127   -0.8653 C   0  0  0  0  0  0  0  0  0  0  0  0
   -5.1460    1.1714   -0.4526 C   0  0  0  0  0  0  0  0  0  0  0  0
   -4.4841    0.0457   -0.0388 C   0  0  0  0  0  0  0  0  0  0  0  0
   -3.0761    0.0008   -0.0155 C   0  0  0  0  0  0  0  0  0  0  0  0
   -2.2384   -3.1568    1.1400 H   0  0  0  0  0  0  0  0  0  0  0  0
    0.7012   -2.0254    0.7420 H   0  0  0  0  0  0  0  0  0  0  0  0
    4.0819   -2.5052    0.9337 H   0  0  0  0  0  0  0  0  0  0  0  0
    6.4248   -1.7390    0.6659 H   0  0  0  0  0  0  0  0  0  0  0  0
    6.9134    0.5204   -0.1556 H   0  0  0  0  0  0  0  0  0  0  0  0
    5.0834    2.0780   -0.7327 H   0  0  0  0  0  0  0  0  0  0  0  0
   -0.4361    2.0371   -0.7450 H   0  0  0  0  0  0  0  0  0  0  0  0
   -2.5165    3.1743   -1.1699 H   0  0  0  0  0  0  0  0  0  0  0  0
   -4.9860    3.1891   -1.1875 H   0  0  0  0  0  0  0  0  0  0  0  0
   -6.2258    1.1837   -0.4624 H   0  0  0  0  0  0  0  0  0  0  0  0
   -5.0382   -0.8228    0.2751 H   0  0  0  0  0  0  0  0  0  0  0  0
  1  2  2  0  0  0  0
  2  3  1  0  0  0  0
  3  4  2  0  0  0  0
  4  5  1  0  0  0  0
  4  6  1  0  0  0  0
  6  7  1  0  0  0  0
  7  8  2  0  0  0  0
  8  9  1  0  0  0  0
  9 10  2  0  0  0  0
 10 11  1  0  0  0  0
 11 12  2  0  0  0  0
 12 13  1  0  0  0  0
 13 14  2  0  0  0  0
 14 15  1  0  0  0  0
  6 16  2  0  0  0  0
 16 17  1  0  0  0  0
 17 18  2  0  0  0  0
 18 19  1  0  0  0  0
 19 20  2  0  0  0  0
 20 21  1  0  0  0  0
 21 22  2  0  0  0  0
 22  3  1  0  0  0  0
 15  7  1  0  0  0  0
 22 17  1  0  0  0  0
 14  9  1  0  0  0  0
  2 23  1  0  0  0  0
  5 24  1  0  0  0  0
 10 25  1  0  0  0  0
 11 26  1  0  0  0  0
 12 27  1  0  0  0  0
 13 28  1  0  0  0  0
 16 29  1  0  0  0  0
 18 30  1  0  0  0  0
 19 31  1  0  0  0  0
 20 32  1  0  0  0  0
 21 33  1  0  0  0  0
M  END
