
  xtb     03022214243D
 energy: -49.950327672948 gnorm: 0.000121051223 xtb: 6.4.1 (afa7bdf)
 34 37  0     0  0            999 V2000
    3.9947   -1.5604    0.2465 C   0  0  0  0  0  0  0  0  0  0  0  0
    3.6961   -0.5551   -0.6581 C   0  0  0  0  0  0  0  0  0  0  0  0
    2.4108   -0.0501   -0.7366 C   0  0  0  0  0  0  0  0  0  0  0  0
    1.4066   -0.5490    0.0872 C   0  0  0  0  0  0  0  0  0  0  0  0
    0.0316   -0.0121    0.0022 C   0  0  0  0  0  0  0  0  0  0  0  0
   -0.9952   -0.8088   -0.5265 C   0  0  0  0  0  0  0  0  0  0  0  0
   -0.7611   -2.1209   -1.0153 C   0  0  0  0  0  0  0  0  0  0  0  0
   -1.7754   -2.8737   -1.5230 C   0  0  0  0  0  0  0  0  0  0  0  0
   -3.0889   -2.3633   -1.5811 C   0  0  0  0  0  0  0  0  0  0  0  0
   -3.3529   -1.1048   -1.1376 C   0  0  0  0  0  0  0  0  0  0  0  0
   -2.3243   -0.2869   -0.6031 C   0  0  0  0  0  0  0  0  0  0  0  0
   -2.5784    1.0068   -0.1594 C   0  0  0  0  0  0  0  0  0  0  0  0
   -1.5669    1.8064    0.3627 C   0  0  0  0  0  0  0  0  0  0  0  0
   -1.8224    3.1256    0.8176 C   0  0  0  0  0  0  0  0  0  0  0  0
   -0.8274    3.8926    1.3390 C   0  0  0  0  0  0  0  0  0  0  0  0
    0.4820    3.3791    1.4433 C   0  0  0  0  0  0  0  0  0  0  0  0
    0.7682    2.1186    1.0162 C   0  0  0  0  0  0  0  0  0  0  0  0
   -0.2363    1.2900    0.4507 C   0  0  0  0  0  0  0  0  0  0  0  0
    1.7143   -1.5605    0.9918 C   0  0  0  0  0  0  0  0  0  0  0  0
    3.0014   -2.0607    1.0716 C   0  0  0  0  0  0  0  0  0  0  0  0
    4.9991   -1.9529    0.3082 H   0  0  0  0  0  0  0  0  0  0  0  0
    4.4676   -0.1625   -1.3046 H   0  0  0  0  0  0  0  0  0  0  0  0
    2.1744    0.7322   -1.4439 H   0  0  0  0  0  0  0  0  0  0  0  0
    0.2444   -2.5140   -0.9821 H   0  0  0  0  0  0  0  0  0  0  0  0
   -1.5816   -3.8709   -1.8907 H   0  0  0  0  0  0  0  0  0  0  0  0
   -3.8775   -2.9802   -1.9868 H   0  0  0  0  0  0  0  0  0  0  0  0
   -4.3538   -0.6996   -1.1855 H   0  0  0  0  0  0  0  0  0  0  0  0
   -3.5841    1.3994   -0.2216 H   0  0  0  0  0  0  0  0  0  0  0  0
   -2.8316    3.5052    0.7411 H   0  0  0  0  0  0  0  0  0  0  0  0
   -1.0298    4.8964    1.6833 H   0  0  0  0  0  0  0  0  0  0  0  0
    1.2575    3.9979    1.8709 H   0  0  0  0  0  0  0  0  0  0  0  0
    1.7710    1.7277    1.1073 H   0  0  0  0  0  0  0  0  0  0  0  0
    0.9378   -1.9470    1.6367 H   0  0  0  0  0  0  0  0  0  0  0  0
    3.2299   -2.8441    1.7796 H   0  0  0  0  0  0  0  0  0  0  0  0
  1  2  2  0  0  0  0
  2  3  1  0  0  0  0
  3  4  2  0  0  0  0
  4  5  1  0  0  0  0
  5  6  1  0  0  0  0
  6  7  2  0  0  0  0
  7  8  1  0  0  0  0
  8  9  2  0  0  0  0
  9 10  1  0  0  0  0
 10 11  2  0  0  0  0
 11 12  1  0  0  0  0
 12 13  2  0  0  0  0
 13 14  1  0  0  0  0
 14 15  2  0  0  0  0
 15 16  1  0  0  0  0
 16 17  2  0  0  0  0
 17 18  1  0  0  0  0
  4 19  1  0  0  0  0
 19 20  2  0  0  0  0
 20  1  1  0  0  0  0
 18  5  2  0  0  0  0
 11  6  1  0  0  0  0
 18 13  1  0  0  0  0
  1 21  1  0  0  0  0
  2 22  1  0  0  0  0
  3 23  1  0  0  0  0
  7 24  1  0  0  0  0
  8 25  1  0  0  0  0
  9 26  1  0  0  0  0
 10 27  1  0  0  0  0
 12 28  1  0  0  0  0
 14 29  1  0  0  0  0
 15 30  1  0  0  0  0
 16 31  1  0  0  0  0
 17 32  1  0  0  0  0
 19 33  1  0  0  0  0
 20 34  1  0  0  0  0
M  END
