
  xtb     03022214473D
 energy: -61.624957650505 gnorm: 0.000229538830 xtb: 6.4.1 (afa7bdf)
 38 42  0     0  0            999 V2000
    4.0786   -1.1049   -0.4269 C   0  0  0  0  0  0  0  0  0  0  0  0
    3.5994   -2.3435   -0.6511 C   0  0  0  0  0  0  0  0  0  0  0  0
    2.1540   -2.2356   -0.5578 C   0  0  0  0  0  0  0  0  0  0  0  0
    1.2591   -3.2874   -0.7251 C   0  0  0  0  0  0  0  0  0  0  0  0
   -0.1140   -3.1300   -0.6240 C   0  0  0  0  0  0  0  0  0  0  0  0
   -1.1538   -4.0897   -0.7651 C   0  0  0  0  0  0  0  0  0  0  0  0
   -2.3345   -3.4378   -0.5719 C   0  0  0  0  0  0  0  0  0  0  0  0
   -2.0501   -2.0617   -0.3075 C   0  0  0  0  0  0  0  0  0  0  0  0
   -3.0219   -1.1017   -0.0617 C   0  0  0  0  0  0  0  0  0  0  0  0
   -2.9052    0.2553    0.2057 C   0  0  0  0  0  0  0  0  0  0  0  0
   -4.0177    1.1225    0.4401 C   0  0  0  0  0  0  0  0  0  0  0  0
   -3.5412    2.3788    0.6658 C   0  0  0  0  0  0  0  0  0  0  0  0
   -2.1235    2.3148    0.5758 C   0  0  0  0  0  0  0  0  0  0  0  0
   -1.1783    3.3174    0.7241 C   0  0  0  0  0  0  0  0  0  0  0  0
    0.1888    3.0898    0.6053 C   0  0  0  0  0  0  0  0  0  0  0  0
    0.7346    1.8846    0.3379 N   0  0  0  0  0  0  0  0  0  0  0  0
    2.0665    2.0658    0.3042 C   0  0  0  0  0  0  0  0  0  0  0  0
    3.0455    1.1096    0.0651 C   0  0  0  0  0  0  0  0  0  0  0  0
    2.9205   -0.2486   -0.1982 C   0  0  0  0  0  0  0  0  0  0  0  0
    1.7865   -0.9658   -0.2849 N   0  0  0  0  0  0  0  0  0  0  0  0
    2.3930    3.4633    0.5631 C   0  0  0  0  0  0  0  0  0  0  0  0
    1.2214    4.1007    0.7506 C   0  0  0  0  0  0  0  0  0  0  0  0
   -1.7861    1.0220    0.2988 N   0  0  0  0  0  0  0  0  0  0  0  0
   -0.6976   -1.9272   -0.3505 N   0  0  0  0  0  0  0  0  0  0  0  0
    5.0982   -0.7693   -0.4101 H   0  0  0  0  0  0  0  0  0  0  0  0
    4.1346   -3.2503   -0.8591 H   0  0  0  0  0  0  0  0  0  0  0  0
    1.6519   -4.2690   -0.9430 H   0  0  0  0  0  0  0  0  0  0  0  0
   -1.0067   -5.1294   -0.9837 H   0  0  0  0  0  0  0  0  0  0  0  0
   -3.3222   -3.8553   -0.6056 H   0  0  0  0  0  0  0  0  0  0  0  0
   -4.0376   -1.4720   -0.0823 H   0  0  0  0  0  0  0  0  0  0  0  0
   -5.0429    0.8062    0.4326 H   0  0  0  0  0  0  0  0  0  0  0  0
   -4.1055    3.2667    0.8744 H   0  0  0  0  0  0  0  0  0  0  0  0
   -1.5175    4.3189    0.9415 H   0  0  0  0  0  0  0  0  0  0  0  0
    4.0637    1.4806    0.0871 H   0  0  0  0  0  0  0  0  0  0  0  0
    3.3893    3.8622    0.5895 H   0  0  0  0  0  0  0  0  0  0  0  0
    1.0398    5.1367    0.9647 H   0  0  0  0  0  0  0  0  0  0  0  0
   -0.7900    0.8043    0.2017 H   0  0  0  0  0  0  0  0  0  0  0  0
   -0.0794   -1.1213   -0.2192 H   0  0  0  0  0  0  0  0  0  0  0  0
  1  2  2  0  0  0  0
  2  3  1  0  0  0  0
  3  4  2  0  0  0  0
  4  5  1  0  0  0  0
  5  6  2  0  0  0  0
  6  7  1  0  0  0  0
  7  8  2  0  0  0  0
  8  9  1  0  0  0  0
  9 10  2  0  0  0  0
 10 11  1  0  0  0  0
 11 12  2  0  0  0  0
 12 13  1  0  0  0  0
 13 14  2  0  0  0  0
 14 15  1  0  0  0  0
 15 16  2  0  0  0  0
 16 17  1  0  0  0  0
 17 18  2  0  0  0  0
 18 19  1  0  0  0  0
 19 20  2  0  0  0  0
 17 21  1  0  0  0  0
 21 22  2  0  0  0  0
 13 23  1  0  0  0  0
  8 24  1  0  0  0  0
 19  1  1  0  0  0  0
 20  3  1  0  0  0  0
 24  5  1  0  0  0  0
 23 10  1  0  0  0  0
 22 15  1  0  0  0  0
  1 25  1  0  0  0  0
  2 26  1  0  0  0  0
  4 27  1  0  0  0  0
  6 28  1  0  0  0  0
  7 29  1  0  0  0  0
  9 30  1  0  0  0  0
 11 31  1  0  0  0  0
 12 32  1  0  0  0  0
 14 33  1  0  0  0  0
 18 34  1  0  0  0  0
 21 35  1  0  0  0  0
 22 36  1  0  0  0  0
 23 37  1  0  0  0  0
 24 38  1  0  0  0  0
M  END
