
  xtb     03022214373D
 energy: -48.972948622380 gnorm: 0.000236824102 xtb: 6.4.1 (afa7bdf)
 31 32  0     0  0            999 V2000
    5.3751   -1.1076   -0.1380 C   0  0  0  0  0  0  0  0  0  0  0  0
    4.1753   -0.3382    0.0702 N   0  0  0  0  0  0  0  0  0  0  0  0
    4.1663    1.0013    0.4633 C   0  0  0  0  0  0  0  0  0  0  0  0
    5.1618    1.6538    0.6723 O   0  0  0  0  0  0  0  0  0  0  0  0
    2.7576    1.3762    0.5544 C   0  0  0  0  0  0  0  0  0  0  0  0
    1.9746    0.3168    0.2376 C   0  0  0  0  0  0  0  0  0  0  0  0
    0.5417    0.2311    0.1945 C   0  0  0  0  0  0  0  0  0  0  0  0
   -0.2584    1.3416    0.5078 C   0  0  0  0  0  0  0  0  0  0  0  0
   -1.6276    1.2768    0.4689 C   0  0  0  0  0  0  0  0  0  0  0  0
   -2.2935    0.0881    0.1112 C   0  0  0  0  0  0  0  0  0  0  0  0
   -3.6532    0.0208    0.0675 N   0  0  0  0  0  0  0  0  0  0  0  0
   -4.3141   -1.2144   -0.2760 C   0  0  0  0  0  0  0  0  0  0  0  0
   -4.4565    1.1765    0.3821 C   0  0  0  0  0  0  0  0  0  0  0  0
   -1.4906   -1.0248   -0.2000 C   0  0  0  0  0  0  0  0  0  0  0  0
   -0.1206   -0.9533   -0.1595 C   0  0  0  0  0  0  0  0  0  0  0  0
    2.9026   -0.8278   -0.0828 C   0  0  0  0  0  0  0  0  0  0  0  0
    2.6468   -1.9635   -0.4080 O   0  0  0  0  0  0  0  0  0  0  0  0
    5.4968   -1.3464   -1.1962 H   0  0  0  0  0  0  0  0  0  0  0  0
    5.3235   -2.0367    0.4303 H   0  0  0  0  0  0  0  0  0  0  0  0
    6.2152   -0.5038    0.2017 H   0  0  0  0  0  0  0  0  0  0  0  0
    2.4597    2.3668    0.8390 H   0  0  0  0  0  0  0  0  0  0  0  0
    0.2104    2.2719    0.7875 H   0  0  0  0  0  0  0  0  0  0  0  0
   -2.1903    2.1603    0.7214 H   0  0  0  0  0  0  0  0  0  0  0  0
   -4.0512   -2.0108    0.4263 H   0  0  0  0  0  0  0  0  0  0  0  0
   -4.0464   -1.5371   -1.2864 H   0  0  0  0  0  0  0  0  0  0  0  0
   -5.3914   -1.0736   -0.2399 H   0  0  0  0  0  0  0  0  0  0  0  0
   -4.2953    1.5028    1.4141 H   0  0  0  0  0  0  0  0  0  0  0  0
   -5.5091    0.9313    0.2651 H   0  0  0  0  0  0  0  0  0  0  0  0
   -4.2259    2.0096   -0.2881 H   0  0  0  0  0  0  0  0  0  0  0  0
   -1.9442   -1.9609   -0.4798 H   0  0  0  0  0  0  0  0  0  0  0  0
    0.4605   -1.8269   -0.4055 H   0  0  0  0  0  0  0  0  0  0  0  0
  1  2  1  0  0  0  0
  2  3  1  0  0  0  0
  3  4  2  0  0  0  0
  3  5  1  0  0  0  0
  5  6  2  0  0  0  0
  6  7  1  0  0  0  0
  7  8  2  0  0  0  0
  8  9  1  0  0  0  0
  9 10  2  0  0  0  0
 10 11  1  0  0  0  0
 11 12  1  0  0  0  0
 11 13  1  0  0  0  0
 10 14  1  0  0  0  0
 14 15  2  0  0  0  0
  6 16  1  0  0  0  0
 16 17  2  0  0  0  0
 16  2  1  0  0  0  0
 15  7  1  0  0  0  0
  1 18  1  0  0  0  0
  1 19  1  0  0  0  0
  1 20  1  0  0  0  0
  5 21  1  0  0  0  0
  8 22  1  0  0  0  0
  9 23  1  0  0  0  0
 12 24  1  0  0  0  0
 12 25  1  0  0  0  0
 12 26  1  0  0  0  0
 13 27  1  0  0  0  0
 13 28  1  0  0  0  0
 13 29  1  0  0  0  0
 14 30  1  0  0  0  0
 15 31  1  0  0  0  0
M  END
