
  xtb     03022212153D
 energy: -42.703636391113 gnorm: 0.000186454248 xtb: 6.4.1 (afa7bdf)
 24 26  0     0  0            999 V2000
    0.0468    2.3742    0.9362 C   0  0  0  0  0  0  0  0  0  0  0  0
    0.0129    0.9802    0.4062 C   0  0  0  0  0  0  0  0  0  0  0  0
   -1.2011    0.3701    0.0866 C   0  0  0  0  0  0  0  0  0  0  0  0
   -2.5300    0.8513    0.1704 C   0  0  0  0  0  0  0  0  0  0  0  0
   -3.3536   -0.1535   -0.2859 C   0  0  0  0  0  0  0  0  0  0  0  0
   -2.5267   -1.2262   -0.6364 C   0  0  0  0  0  0  0  0  0  0  0  0
   -1.2557   -0.9131   -0.4166 N   0  0  0  0  0  4  0  0  0  0  0  0
   -0.0344   -1.8265   -0.6701 B   0  0  0  0  0  4  0  0  0  0  0  0
    0.0132   -2.1905   -1.9977 F   0  0  0  0  0  0  0  0  0  0  0  0
   -0.1115   -2.9475    0.1274 F   0  0  0  0  0  0  0  0  0  0  0  0
    1.2191   -1.0009   -0.3026 N   0  0  0  0  0  0  0  0  0  0  0  0
    2.4814   -1.3996   -0.4044 C   0  0  0  0  0  0  0  0  0  0  0  0
    3.3424   -0.3838    0.0247 C   0  0  0  0  0  0  0  0  0  0  0  0
    2.5492    0.6756    0.4058 C   0  0  0  0  0  0  0  0  0  0  0  0
    1.2052    0.2841    0.1973 C   0  0  0  0  0  0  0  0  0  0  0  0
    0.2245    3.0688    0.1145 H   0  0  0  0  0  0  0  0  0  0  0  0
    0.8518    2.4935    1.6557 H   0  0  0  0  0  0  0  0  0  0  0  0
   -0.8948    2.6376    1.4070 H   0  0  0  0  0  0  0  0  0  0  0  0
   -2.8310    1.8199    0.5178 H   0  0  0  0  0  0  0  0  0  0  0  0
   -4.4225   -0.1341   -0.3635 H   0  0  0  0  0  0  0  0  0  0  0  0
   -2.7941   -2.1885   -1.0286 H   0  0  0  0  0  0  0  0  0  0  0  0
    2.7187   -2.3789   -0.7730 H   0  0  0  0  0  0  0  0  0  0  0  0
    4.4128   -0.4368    0.0466 H   0  0  0  0  0  0  0  0  0  0  0  0
    2.8775    1.6240    0.7829 H   0  0  0  0  0  0  0  0  0  0  0  0
  1  2  1  0  0  0  0
  2  3  2  0  0  0  0
  3  4  1  0  0  0  0
  4  5  2  0  0  0  0
  5  6  1  0  0  0  0
  6  7  2  0  0  0  0
  7  8  1  0  0  0  0
  8  9  1  0  0  0  0
  8 10  1  0  0  0  0
  8 11  1  0  0  0  0
 11 12  1  0  0  0  0
 12 13  2  0  0  0  0
 13 14  1  0  0  0  0
 14 15  2  0  0  0  0
 15  2  1  0  0  0  0
  7  3  1  0  0  0  0
 15 11  1  0  0  0  0
  1 16  1  0  0  0  0
  1 17  1  0  0  0  0
  1 18  1  0  0  0  0
  4 19  1  0  0  0  0
  5 20  1  0  0  0  0
  6 21  1  0  0  0  0
 12 22  1  0  0  0  0
 13 23  1  0  0  0  0
 14 24  1  0  0  0  0
M  CHG  1   7   1
M  CHG  1   8  -1
M  END
