
  xtb     03022214083D
 energy: -84.145903353578 gnorm: 0.000169631426 xtb: 6.4.1 (afa7bdf)
 49 53  0     0  0            999 V2000
    8.8864   -0.4370    0.1009 C   0  0  0  0  0  0  0  0  0  0  0  0
    7.9356    0.2044    0.9173 O   0  0  0  0  0  0  0  0  0  0  0  0
    6.6204    0.0560    0.6237 C   0  0  0  0  0  0  0  0  0  0  0  0
    5.7376    0.7414    1.4942 C   0  0  0  0  0  0  0  0  0  0  0  0
    4.3917    0.6782    1.3098 C   0  0  0  0  0  0  0  0  0  0  0  0
    3.8378   -0.0725    0.2454 C   0  0  0  0  0  0  0  0  0  0  0  0
    2.4554   -0.1512    0.0307 C   0  0  0  0  0  0  0  0  0  0  0  0
    1.9256   -0.8891   -1.0147 C   0  0  0  0  0  0  0  0  0  0  0  0
    0.5135   -0.9953   -1.2774 C   0  0  0  0  0  0  0  0  0  0  0  0
   -0.4919   -0.4090   -0.5946 C   0  0  0  0  0  0  0  0  0  0  0  0
   -1.8713   -0.5923   -0.9849 C   0  0  0  0  0  0  0  0  0  0  0  0
   -2.9335   -0.0273   -0.2576 C   0  0  0  0  0  0  0  0  0  0  0  0
   -2.7527    0.7293    1.0336 C   0  0  0  0  0  0  0  0  0  0  0  0
   -4.0124    0.6375    1.8929 C   0  0  0  0  0  0  0  0  0  0  0  0
   -5.2173    1.0585    1.1094 C   0  0  0  0  0  0  0  0  0  0  0  0
   -6.2614    1.7725    1.6730 C   0  0  0  0  0  0  0  0  0  0  0  0
   -7.3779    2.1009    0.9205 C   0  0  0  0  0  0  0  0  0  0  0  0
   -7.4669    1.7092   -0.4066 C   0  0  0  0  0  0  0  0  0  0  0  0
   -6.4368    0.9920   -0.9822 C   0  0  0  0  0  0  0  0  0  0  0  0
   -5.3072    0.6688   -0.2318 C   0  0  0  0  0  0  0  0  0  0  0  0
   -4.2051   -0.0794   -0.8371 C   0  0  0  0  0  0  0  0  0  0  0  0
   -4.4658   -0.7122   -1.9299 O   0  0  0  0  0  3  0  0  0  0  0  0
   -3.4391   -1.5822   -2.5888 B   0  0  0  0  0  4  0  0  0  0  0  0
   -3.4634   -1.3501   -3.9300 F   0  0  0  0  0  0  0  0  0  0  0  0
   -3.7275   -2.8907   -2.2939 F   0  0  0  0  0  0  0  0  0  0  0  0
   -2.0747   -1.2675   -2.0724 O   0  0  0  0  0  0  0  0  0  0  0  0
    2.8210   -1.5756   -1.8737 C   0  0  0  0  0  0  0  0  0  0  0  0
    4.1691   -1.5135   -1.6873 C   0  0  0  0  0  0  0  0  0  0  0  0
    4.7224   -0.7623   -0.6265 C   0  0  0  0  0  0  0  0  0  0  0  0
    6.1118   -0.6836   -0.4182 C   0  0  0  0  0  0  0  0  0  0  0  0
    8.7637   -1.5243    0.1224 H   0  0  0  0  0  0  0  0  0  0  0  0
    9.8576   -0.1753    0.5171 H   0  0  0  0  0  0  0  0  0  0  0  0
    8.8282   -0.0841   -0.9336 H   0  0  0  0  0  0  0  0  0  0  0  0
    6.1743    1.3096    2.3003 H   0  0  0  0  0  0  0  0  0  0  0  0
    3.7248    1.2039    1.9773 H   0  0  0  0  0  0  0  0  0  0  0  0
    1.8052    0.3827    0.7075 H   0  0  0  0  0  0  0  0  0  0  0  0
    0.2331   -1.6164   -2.1190 H   0  0  0  0  0  0  0  0  0  0  0  0
   -0.3021    0.2295    0.2516 H   0  0  0  0  0  0  0  0  0  0  0  0
   -2.5390    1.7817    0.8150 H   0  0  0  0  0  0  0  0  0  0  0  0
   -1.9137    0.3223    1.5974 H   0  0  0  0  0  0  0  0  0  0  0  0
   -4.1517   -0.4001    2.2140 H   0  0  0  0  0  0  0  0  0  0  0  0
   -3.9041    1.2523    2.7878 H   0  0  0  0  0  0  0  0  0  0  0  0
   -6.2027    2.0727    2.7093 H   0  0  0  0  0  0  0  0  0  0  0  0
   -8.1822    2.6620    1.3728 H   0  0  0  0  0  0  0  0  0  0  0  0
   -8.3399    1.9628   -0.9882 H   0  0  0  0  0  0  0  0  0  0  0  0
   -6.4804    0.6754   -2.0126 H   0  0  0  0  0  0  0  0  0  0  0  0
    2.4115   -2.1532   -2.6893 H   0  0  0  0  0  0  0  0  0  0  0  0
    4.8373   -2.0412   -2.3526 H   0  0  0  0  0  0  0  0  0  0  0  0
    6.7567   -1.2182   -1.0983 H   0  0  0  0  0  0  0  0  0  0  0  0
  1  2  1  0  0  0  0
  2  3  1  0  0  0  0
  3  4  2  0  0  0  0
  4  5  1  0  0  0  0
  5  6  2  0  0  0  0
  6  7  1  0  0  0  0
  7  8  2  0  0  0  0
  8  9  1  0  0  0  0
  9 10  2  0  0  0  0
 10 11  1  0  0  0  0
 11 12  2  0  0  0  0
 12 13  1  0  0  0  0
 13 14  1  0  0  0  0
 14 15  1  0  0  0  0
 15 16  2  0  0  0  0
 16 17  1  0  0  0  0
 17 18  2  0  0  0  0
 18 19  1  0  0  0  0
 19 20  2  0  0  0  0
 20 21  1  0  0  0  0
 21 22  2  0  0  0  0
 22 23  1  0  0  0  0
 23 24  1  0  0  0  0
 23 25  1  0  0  0  0
 23 26  1  0  0  0  0
  8 27  1  0  0  0  0
 27 28  2  0  0  0  0
 28 29  1  0  0  0  0
 29 30  2  0  0  0  0
 30  3  1  0  0  0  0
 29  6  1  0  0  0  0
 26 11  1  0  0  0  0
 21 12  1  0  0  0  0
 20 15  1  0  0  0  0
  1 31  1  0  0  0  0
  1 32  1  0  0  0  0
  1 33  1  0  0  0  0
  4 34  1  0  0  0  0
  5 35  1  0  0  0  0
  7 36  1  0  0  0  0
  9 37  1  0  0  0  0
 10 38  1  0  0  0  0
 13 39  1  0  0  0  0
 13 40  1  0  0  0  0
 14 41  1  0  0  0  0
 14 42  1  0  0  0  0
 16 43  1  0  0  0  0
 17 44  1  0  0  0  0
 18 45  1  0  0  0  0
 19 46  1  0  0  0  0
 27 47  1  0  0  0  0
 28 48  1  0  0  0  0
 30 49  1  0  0  0  0
M  CHG  1  22   1
M  CHG  1  23  -1
M  END
