
  xtb     03022212203D
 energy: -97.249622080801 gnorm: 0.000092275491 xtb: 6.4.1 (afa7bdf)
 52 58  0     0  0            999 V2000
    4.9955    4.6500   -0.3670 F   0  0  0  0  0  0  0  0  0  0  0  0
    4.3819    3.4550   -0.2598 C   0  0  0  0  0  0  0  0  0  0  0  0
    3.4141    3.2774    0.7126 C   0  0  0  0  0  0  0  0  0  0  0  0
    2.7901    2.0505    0.8210 C   0  0  0  0  0  0  0  0  0  0  0  0
    3.1343    1.0029   -0.0347 C   0  0  0  0  0  0  0  0  0  0  0  0
    2.5185   -0.3084    0.0594 C   0  0  0  0  0  0  0  0  0  0  0  0
    1.2069   -0.5466    0.1817 N   0  0  0  0  0  4  0  0  0  0  0  0
    0.9719   -1.9133    0.1761 C   0  0  0  0  0  0  0  0  0  0  0  0
   -0.2151   -2.4634    0.1751 N   0  0  0  0  0  0  0  0  0  0  0  0
   -1.2903   -1.7183    0.1518 C   0  0  0  0  0  0  0  0  0  0  0  0
   -2.6430   -2.1581    0.0296 C   0  0  0  0  0  0  0  0  0  0  0  0
   -3.2272   -3.4190    0.0003 C   0  0  0  0  0  0  0  0  0  0  0  0
   -4.5993   -3.4911   -0.1165 C   0  0  0  0  0  0  0  0  0  0  0  0
   -5.3852   -2.3358   -0.1924 C   0  0  0  0  0  0  0  0  0  0  0  0
   -4.8207   -1.0795   -0.1690 C   0  0  0  0  0  0  0  0  0  0  0  0
   -3.4310   -0.9843   -0.0739 C   0  0  0  0  0  0  0  0  0  0  0  0
   -2.5364    0.1273    0.0034 C   0  0  0  0  0  0  0  0  0  0  0  0
   -2.9164    1.5244   -0.1034 C   0  0  0  0  0  0  0  0  0  0  0  0
   -3.8287    1.8955   -1.0964 C   0  0  0  0  0  0  0  0  0  0  0  0
   -4.2298    3.2091   -1.2300 C   0  0  0  0  0  0  0  0  0  0  0  0
   -3.7197    4.1533   -0.3555 C   0  0  0  0  0  0  0  0  0  0  0  0
   -4.1167    5.4354   -0.4760 F   0  0  0  0  0  0  0  0  0  0  0  0
   -2.8185    3.8157    0.6384 C   0  0  0  0  0  0  0  0  0  0  0  0
   -2.4167    2.5004    0.7603 C   0  0  0  0  0  0  0  0  0  0  0  0
   -1.2879   -0.3316    0.1539 N   0  0  0  0  0  0  0  0  0  0  0  0
    0.0343    0.4554    0.3773 B   0  0  0  0  0  4  0  0  0  0  0  0
    0.1350    1.5100   -0.4947 F   0  0  0  0  0  0  0  0  0  0  0  0
    0.0580    0.9036    1.6920 F   0  0  0  0  0  0  0  0  0  0  0  0
    2.2316   -2.5782    0.0816 C   0  0  0  0  0  0  0  0  0  0  0  0
    2.5918   -3.9207    0.0610 C   0  0  0  0  0  0  0  0  0  0  0  0
    3.9335   -4.2267   -0.0271 C   0  0  0  0  0  0  0  0  0  0  0  0
    4.9071   -3.2231   -0.0829 C   0  0  0  0  0  0  0  0  0  0  0  0
    4.5656   -1.8887   -0.0677 C   0  0  0  0  0  0  0  0  0  0  0  0
    3.2111   -1.5569   -0.0019 C   0  0  0  0  0  0  0  0  0  0  0  0
    4.1188    1.2117   -1.0060 C   0  0  0  0  0  0  0  0  0  0  0  0
    4.7421    2.4370   -1.1261 C   0  0  0  0  0  0  0  0  0  0  0  0
    3.1589    4.0932    1.3699 H   0  0  0  0  0  0  0  0  0  0  0  0
    2.0465    1.8993    1.5840 H   0  0  0  0  0  0  0  0  0  0  0  0
   -2.6142   -4.3028    0.0754 H   0  0  0  0  0  0  0  0  0  0  0  0
   -5.0849   -4.4553   -0.1395 H   0  0  0  0  0  0  0  0  0  0  0  0
   -6.4579   -2.4367   -0.2653 H   0  0  0  0  0  0  0  0  0  0  0  0
   -5.4348   -0.1928   -0.2089 H   0  0  0  0  0  0  0  0  0  0  0  0
   -4.1940    1.1525   -1.7888 H   0  0  0  0  0  0  0  0  0  0  0  0
   -4.9231    3.5094   -1.9998 H   0  0  0  0  0  0  0  0  0  0  0  0
   -2.4419    4.5780    1.3016 H   0  0  0  0  0  0  0  0  0  0  0  0
   -1.7270    2.2265    1.5396 H   0  0  0  0  0  0  0  0  0  0  0  0
    1.8351   -4.6864    0.1205 H   0  0  0  0  0  0  0  0  0  0  0  0
    4.2472   -5.2599   -0.0427 H   0  0  0  0  0  0  0  0  0  0  0  0
    5.9479   -3.5063   -0.1334 H   0  0  0  0  0  0  0  0  0  0  0  0
    5.3232   -1.1204   -0.0920 H   0  0  0  0  0  0  0  0  0  0  0  0
    4.3666    0.4169   -1.6927 H   0  0  0  0  0  0  0  0  0  0  0  0
    5.4936    2.6137   -1.8793 H   0  0  0  0  0  0  0  0  0  0  0  0
  1  2  1  0  0  0  0
  2  3  2  0  0  0  0
  3  4  1  0  0  0  0
  4  5  2  0  0  0  0
  5  6  1  0  0  0  0
  6  7  2  0  0  0  0
  7  8  1  0  0  0  0
  8  9  2  0  0  0  0
  9 10  1  0  0  0  0
 10 11  2  0  0  0  0
 11 12  1  0  0  0  0
 12 13  2  0  0  0  0
 13 14  1  0  0  0  0
 14 15  2  0  0  0  0
 15 16  1  0  0  0  0
 16 17  2  0  0  0  0
 17 18  1  0  0  0  0
 18 19  2  0  0  0  0
 19 20  1  0  0  0  0
 20 21  2  0  0  0  0
 21 22  1  0  0  0  0
 21 23  1  0  0  0  0
 23 24  2  0  0  0  0
 17 25  1  0  0  0  0
 25 26  1  0  0  0  0
 26 27  1  0  0  0  0
 26 28  1  0  0  0  0
  8 29  1  0  0  0  0
 29 30  2  0  0  0  0
 30 31  1  0  0  0  0
 31 32  2  0  0  0  0
 32 33  1  0  0  0  0
 33 34  2  0  0  0  0
  5 35  1  0  0  0  0
 35 36  2  0  0  0  0
 36  2  1  0  0  0  0
 34  6  1  0  0  0  0
 26  7  1  0  0  0  0
 34 29  1  0  0  0  0
 25 10  1  0  0  0  0
 16 11  1  0  0  0  0
 24 18  1  0  0  0  0
  3 37  1  0  0  0  0
  4 38  1  0  0  0  0
 12 39  1  0  0  0  0
 13 40  1  0  0  0  0
 14 41  1  0  0  0  0
 15 42  1  0  0  0  0
 19 43  1  0  0  0  0
 20 44  1  0  0  0  0
 23 45  1  0  0  0  0
 24 46  1  0  0  0  0
 30 47  1  0  0  0  0
 31 48  1  0  0  0  0
 32 49  1  0  0  0  0
 33 50  1  0  0  0  0
 35 51  1  0  0  0  0
 36 52  1  0  0  0  0
M  CHG  1   7   1
M  CHG  1  26  -1
M  END
