
  xtb     03022214063D
 energy: -102.060523615949 gnorm: 0.000097335751 xtb: 6.4.1 (afa7bdf)
 66 72  0     0  0            999 V2000
    7.9391   -2.5515    2.5619 C   0  0  0  0  0  0  0  0  0  0  0  0
    8.1692   -2.0089    1.3081 C   0  0  0  0  0  0  0  0  0  0  0  0
    7.1797   -1.2875    0.6673 C   0  0  0  0  0  0  0  0  0  0  0  0
    5.9439   -1.0933    1.2811 C   0  0  0  0  0  0  0  0  0  0  0  0
    4.8739   -0.3481    0.6327 C   0  0  0  0  0  0  0  0  0  0  0  0
    3.5763   -0.6833    0.8476 N   0  0  0  0  0  0  0  0  0  0  0  0
    2.8400    0.1125    0.1028 C   0  0  0  0  0  0  0  0  0  0  0  0
    1.3978    0.0794    0.0392 C   0  0  0  0  0  0  0  0  0  0  0  0
    0.7181   -0.9075    0.7584 C   0  0  0  0  0  0  0  0  0  0  0  0
   -0.6556   -0.9840    0.7258 C   0  0  0  0  0  0  0  0  0  0  0  0
   -1.3985   -0.0711   -0.0282 C   0  0  0  0  0  0  0  0  0  0  0  0
   -2.8402   -0.1095   -0.0987 C   0  0  0  0  0  0  0  0  0  0  0  0
   -3.5835    0.7673   -0.7384 N   0  0  0  0  0  0  0  0  0  0  0  0
   -4.8776    0.3917   -0.5760 C   0  0  0  0  0  0  0  0  0  0  0  0
   -5.9480    1.1414   -1.2186 C   0  0  0  0  0  0  0  0  0  0  0  0
   -5.7856    2.5093   -1.4296 C   0  0  0  0  0  0  0  0  0  0  0  0
   -6.7795    3.2454   -2.0451 C   0  0  0  0  0  0  0  0  0  0  0  0
   -7.9454    2.6261   -2.4651 C   0  0  0  0  0  0  0  0  0  0  0  0
   -8.1055    1.2627   -2.2776 C   0  0  0  0  0  0  0  0  0  0  0  0
   -7.1143    0.5215   -1.6627 C   0  0  0  0  0  0  0  0  0  0  0  0
   -4.9324   -0.7600    0.2025 C   0  0  0  0  0  0  0  0  0  0  0  0
   -6.0299   -1.5467    0.7347 C   0  0  0  0  0  0  0  0  0  0  0  0
   -5.9118   -2.9315    0.8592 C   0  0  0  0  0  0  0  0  0  0  0  0
   -6.9506   -3.6801    1.3797 C   0  0  0  0  0  0  0  0  0  0  0  0
   -8.1191   -3.0603    1.7889 C   0  0  0  0  0  0  0  0  0  0  0  0
   -8.2428   -1.6842    1.6765 C   0  0  0  0  0  0  0  0  0  0  0  0
   -7.2089   -0.9306    1.1572 C   0  0  0  0  0  0  0  0  0  0  0  0
   -3.6253   -1.0620    0.4809 N   0  0  0  0  0  0  0  0  0  0  0  0
   -0.7192    0.9201   -0.7419 C   0  0  0  0  0  0  0  0  0  0  0  0
    0.6547    0.9952   -0.7111 C   0  0  0  0  0  0  0  0  0  0  0  0
    3.6334    0.9667   -0.6047 N   0  0  0  0  0  0  0  0  0  0  0  0
    4.9373    0.7030   -0.2765 C   0  0  0  0  0  0  0  0  0  0  0  0
    6.0349    1.4883   -0.8105 C   0  0  0  0  0  0  0  0  0  0  0  0
    7.1337    1.8115   -0.0131 C   0  0  0  0  0  0  0  0  0  0  0  0
    8.1670    2.5719   -0.5236 C   0  0  0  0  0  0  0  0  0  0  0  0
    8.1218    3.0271   -1.8322 C   0  0  0  0  0  0  0  0  0  0  0  0
    7.0324    2.7183   -2.6291 C   0  0  0  0  0  0  0  0  0  0  0  0
    5.9947    1.9577   -2.1240 C   0  0  0  0  0  0  0  0  0  0  0  0
    5.7132   -1.6599    2.5333 C   0  0  0  0  0  0  0  0  0  0  0  0
    6.7058   -2.3803    3.1692 C   0  0  0  0  0  0  0  0  0  0  0  0
    8.7167   -3.1122    3.0600 H   0  0  0  0  0  0  0  0  0  0  0  0
    9.1247   -2.1531    0.8244 H   0  0  0  0  0  0  0  0  0  0  0  0
    7.3594   -0.8822   -0.3178 H   0  0  0  0  0  0  0  0  0  0  0  0
    1.3025   -1.6060    1.3359 H   0  0  0  0  0  0  0  0  0  0  0  0
   -1.1500   -1.7582    1.2952 H   0  0  0  0  0  0  0  0  0  0  0  0
   -4.8701    2.9768   -1.1015 H   0  0  0  0  0  0  0  0  0  0  0  0
   -6.6467    4.3067   -2.1990 H   0  0  0  0  0  0  0  0  0  0  0  0
   -8.7242    3.2018   -2.9438 H   0  0  0  0  0  0  0  0  0  0  0  0
   -9.0069    0.7732   -2.6174 H   0  0  0  0  0  0  0  0  0  0  0  0
   -7.2377   -0.5441   -1.5355 H   0  0  0  0  0  0  0  0  0  0  0  0
   -5.0119   -3.4278    0.5221 H   0  0  0  0  0  0  0  0  0  0  0  0
   -6.8485   -4.7524    1.4633 H   0  0  0  0  0  0  0  0  0  0  0  0
   -8.9299   -3.6468    2.1943 H   0  0  0  0  0  0  0  0  0  0  0  0
   -9.1499   -1.1957    2.0004 H   0  0  0  0  0  0  0  0  0  0  0  0
   -7.3007    0.1422    1.0797 H   0  0  0  0  0  0  0  0  0  0  0  0
   -3.3213   -1.8331    1.0518 H   0  0  0  0  0  0  0  0  0  0  0  0
   -1.3038    1.6203   -1.3171 H   0  0  0  0  0  0  0  0  0  0  0  0
    1.1485    1.7754   -1.2727 H   0  0  0  0  0  0  0  0  0  0  0  0
    3.3329    1.6966   -1.2289 H   0  0  0  0  0  0  0  0  0  0  0  0
    7.1635    1.4662    1.0093 H   0  0  0  0  0  0  0  0  0  0  0  0
    9.0117    2.8157    0.1036 H   0  0  0  0  0  0  0  0  0  0  0  0
    8.9320    3.6204   -2.2288 H   0  0  0  0  0  0  0  0  0  0  0  0
    6.9919    3.0687   -3.6502 H   0  0  0  0  0  0  0  0  0  0  0  0
    5.1588    1.7037   -2.7615 H   0  0  0  0  0  0  0  0  0  0  0  0
    4.7461   -1.5222    2.9916 H   0  0  0  0  0  0  0  0  0  0  0  0
    6.5192   -2.8109    4.1425 H   0  0  0  0  0  0  0  0  0  0  0  0
  1  2  2  0  0  0  0
  2  3  1  0  0  0  0
  3  4  2  0  0  0  0
  4  5  1  0  0  0  0
  5  6  1  0  0  0  0
  6  7  2  0  0  0  0
  7  8  1  0  0  0  0
  8  9  2  0  0  0  0
  9 10  1  0  0  0  0
 10 11  2  0  0  0  0
 11 12  1  0  0  0  0
 12 13  2  0  0  0  0
 13 14  1  0  0  0  0
 14 15  1  0  0  0  0
 15 16  2  0  0  0  0
 16 17  1  0  0  0  0
 17 18  2  0  0  0  0
 18 19  1  0  0  0  0
 19 20  2  0  0  0  0
 14 21  2  0  0  0  0
 21 22  1  0  0  0  0
 22 23  2  0  0  0  0
 23 24  1  0  0  0  0
 24 25  2  0  0  0  0
 25 26  1  0  0  0  0
 26 27  2  0  0  0  0
 21 28  1  0  0  0  0
 11 29  1  0  0  0  0
 29 30  2  0  0  0  0
  7 31  1  0  0  0  0
 31 32  1  0  0  0  0
 32 33  1  0  0  0  0
 33 34  2  0  0  0  0
 34 35  1  0  0  0  0
 35 36  2  0  0  0  0
 36 37  1  0  0  0  0
 37 38  2  0  0  0  0
  4 39  1  0  0  0  0
 39 40  2  0  0  0  0
 40  1  1  0  0  0  0
 32  5  2  0  0  0  0
 38 33  1  0  0  0  0
 30  8  1  0  0  0  0
 28 12  1  0  0  0  0
 20 15  1  0  0  0  0
 27 22  1  0  0  0  0
  1 41  1  0  0  0  0
  2 42  1  0  0  0  0
  3 43  1  0  0  0  0
  9 44  1  0  0  0  0
 10 45  1  0  0  0  0
 16 46  1  0  0  0  0
 17 47  1  0  0  0  0
 18 48  1  0  0  0  0
 19 49  1  0  0  0  0
 20 50  1  0  0  0  0
 23 51  1  0  0  0  0
 24 52  1  0  0  0  0
 25 53  1  0  0  0  0
 26 54  1  0  0  0  0
 27 55  1  0  0  0  0
 28 56  1  0  0  0  0
 29 57  1  0  0  0  0
 30 58  1  0  0  0  0
 31 59  1  0  0  0  0
 34 60  1  0  0  0  0
 35 61  1  0  0  0  0
 36 62  1  0  0  0  0
 37 63  1  0  0  0  0
 38 64  1  0  0  0  0
 39 65  1  0  0  0  0
 40 66  1  0  0  0  0
M  END
