
  xtb     03022214113D
 energy: -118.198256074343 gnorm: 0.000337355815 xtb: 6.4.1 (afa7bdf)
 66 72  0     0  0            999 V2000
    3.7343    0.2778   -1.3187 C   0  0  0  0  0  0  0  0  0  0  0  0
    2.6015    0.1965   -0.8982 C   0  0  0  0  0  0  0  0  0  0  0  0
    1.2822    0.1030   -0.4349 C   0  0  0  0  0  0  0  0  0  0  0  0
    0.6047   -1.1301   -0.4592 C   0  0  0  0  0  0  0  0  0  0  0  0
    1.2501   -2.2843   -0.9228 C   0  0  0  0  0  0  0  0  0  0  0  0
    1.8154   -3.2843   -1.3063 C   0  0  0  0  0  0  0  0  0  0  0  0
    2.4427   -4.4427   -1.7446 C   0  0  0  0  0  0  0  0  0  0  0  0
    3.7686   -4.6268   -2.0444 C   0  0  0  0  0  0  0  0  0  0  0  0
    4.0599   -5.9389   -2.4587 C   0  0  0  0  0  0  0  0  0  0  0  0
    2.9633   -6.7427   -2.4727 C   0  0  0  0  0  0  0  0  0  0  0  0
    1.5401   -5.9187   -1.9772 S   0  0  0  0  0  0  0  0  0  0  0  0
   -0.7259   -1.2115   -0.0053 C   0  0  0  0  0  0  0  0  0  0  0  0
   -1.4004   -2.4394   -0.0249 C   0  0  0  0  0  0  0  0  0  0  0  0
   -1.9650   -3.5106   -0.0480 C   0  0  0  0  0  0  0  0  0  0  0  0
   -2.6293   -4.7292   -0.0625 C   0  0  0  0  0  0  0  0  0  0  0  0
   -2.1622   -5.9370   -0.5171 C   0  0  0  0  0  0  0  0  0  0  0  0
   -3.1046   -6.9709   -0.3781 C   0  0  0  0  0  0  0  0  0  0  0  0
   -4.2729   -6.5483    0.1764 C   0  0  0  0  0  0  0  0  0  0  0  0
   -4.2588   -4.8711    0.5465 S   0  0  0  0  0  0  0  0  0  0  0  0
   -1.3765   -0.0602    0.4773 C   0  0  0  0  0  0  0  0  0  0  0  0
   -2.6952   -0.1464    0.9438 C   0  0  0  0  0  0  0  0  0  0  0  0
   -3.8269   -0.2052    1.3707 C   0  0  0  0  0  0  0  0  0  0  0  0
   -5.1269   -0.2898    1.8511 C   0  0  0  0  0  0  0  0  0  0  0  0
   -5.8115    0.6408    2.5921 C   0  0  0  0  0  0  0  0  0  0  0  0
   -7.1170    0.2291    2.9122 C   0  0  0  0  0  0  0  0  0  0  0  0
   -7.4160   -1.0021    2.4167 C   0  0  0  0  0  0  0  0  0  0  0  0
   -6.1098   -1.6985    1.5456 S   0  0  0  0  0  0  0  0  0  0  0  0
   -0.6990    1.1732    0.5010 C   0  0  0  0  0  0  0  0  0  0  0  0
   -1.3494    2.3245    0.9655 C   0  0  0  0  0  0  0  0  0  0  0  0
   -1.9299    3.3153    1.3500 C   0  0  0  0  0  0  0  0  0  0  0  0
   -2.5802    4.4599    1.7912 C   0  0  0  0  0  0  0  0  0  0  0  0
   -3.9245    4.6337    2.0065 C   0  0  0  0  0  0  0  0  0  0  0  0
   -4.2420    5.9287    2.4522 C   0  0  0  0  0  0  0  0  0  0  0  0
   -3.1465    6.7260    2.5732 C   0  0  0  0  0  0  0  0  0  0  0  0
   -1.6922    5.9199    2.1430 S   0  0  0  0  0  0  0  0  0  0  0  0
    0.6311    1.2547    0.0474 C   0  0  0  0  0  0  0  0  0  0  0  0
    1.3029    2.4841    0.0681 C   0  0  0  0  0  0  0  0  0  0  0  0
    1.9025    3.5363    0.0747 C   0  0  0  0  0  0  0  0  0  0  0  0
    2.5667    4.7550    0.0885 C   0  0  0  0  0  0  0  0  0  0  0  0
    3.8644    5.0105   -0.2779 C   0  0  0  0  0  0  0  0  0  0  0  0
    4.2108    6.3661   -0.1407 C   0  0  0  0  0  0  0  0  0  0  0  0
    3.1847    7.1276    0.3261 C   0  0  0  0  0  0  0  0  0  0  0  0
    1.7604    6.2115    0.6124 S   0  0  0  0  0  0  0  0  0  0  0  0
    5.0352    0.3977   -1.7885 C   0  0  0  0  0  0  0  0  0  0  0  0
    5.7796   -0.5322   -2.4689 C   0  0  0  0  0  0  0  0  0  0  0  0
    7.0677   -0.0712   -2.7946 C   0  0  0  0  0  0  0  0  0  0  0  0
    7.2977    1.1980   -2.3644 C   0  0  0  0  0  0  0  0  0  0  0  0
    5.9434    1.8689   -1.5483 S   0  0  0  0  0  0  0  0  0  0  0  0
    4.4973   -3.8411   -1.9566 H   0  0  0  0  0  0  0  0  0  0  0  0
    5.0442   -6.2727   -2.7350 H   0  0  0  0  0  0  0  0  0  0  0  0
    2.9004   -7.7776   -2.7452 H   0  0  0  0  0  0  0  0  0  0  0  0
   -1.1782   -6.0603   -0.9326 H   0  0  0  0  0  0  0  0  0  0  0  0
   -2.9226   -7.9877   -0.6777 H   0  0  0  0  0  0  0  0  0  0  0  0
   -5.1511   -7.1238    0.3931 H   0  0  0  0  0  0  0  0  0  0  0  0
   -5.3755    1.5756    2.8964 H   0  0  0  0  0  0  0  0  0  0  0  0
   -7.8059    0.8223    3.4870 H   0  0  0  0  0  0  0  0  0  0  0  0
   -8.3329   -1.5497    2.5104 H   0  0  0  0  0  0  0  0  0  0  0  0
   -4.6456    3.8544    1.8358 H   0  0  0  0  0  0  0  0  0  0  0  0
   -5.2426    6.2552    2.6736 H   0  0  0  0  0  0  0  0  0  0  0  0
   -3.1027    7.7487    2.8917 H   0  0  0  0  0  0  0  0  0  0  0  0
    4.5304    4.2433   -0.6298 H   0  0  0  0  0  0  0  0  0  0  0  0
    5.1830    6.7599   -0.3782 H   0  0  0  0  0  0  0  0  0  0  0  0
    3.1760    8.1817    0.5217 H   0  0  0  0  0  0  0  0  0  0  0  0
    5.3982   -1.5039   -2.7265 H   0  0  0  0  0  0  0  0  0  0  0  0
    7.7947   -0.6584   -3.3271 H   0  0  0  0  0  0  0  0  0  0  0  0
    8.1859    1.7876   -2.4760 H   0  0  0  0  0  0  0  0  0  0  0  0
  1  2  3  0  0  0  0
  2  3  1  0  0  0  0
  3  4  2  0  0  0  0
  4  5  1  0  0  0  0
  5  6  3  0  0  0  0
  6  7  1  0  0  0  0
  7  8  2  0  0  0  0
  8  9  1  0  0  0  0
  9 10  2  0  0  0  0
 10 11  1  0  0  0  0
  4 12  1  0  0  0  0
 12 13  1  0  0  0  0
 13 14  3  0  0  0  0
 14 15  1  0  0  0  0
 15 16  2  0  0  0  0
 16 17  1  0  0  0  0
 17 18  2  0  0  0  0
 18 19  1  0  0  0  0
 12 20  2  0  0  0  0
 20 21  1  0  0  0  0
 21 22  3  0  0  0  0
 22 23  1  0  0  0  0
 23 24  2  0  0  0  0
 24 25  1  0  0  0  0
 25 26  2  0  0  0  0
 26 27  1  0  0  0  0
 20 28  1  0  0  0  0
 28 29  1  0  0  0  0
 29 30  3  0  0  0  0
 30 31  1  0  0  0  0
 31 32  2  0  0  0  0
 32 33  1  0  0  0  0
 33 34  2  0  0  0  0
 34 35  1  0  0  0  0
 28 36  2  0  0  0  0
 36 37  1  0  0  0  0
 37 38  3  0  0  0  0
 38 39  1  0  0  0  0
 39 40  2  0  0  0  0
 40 41  1  0  0  0  0
 41 42  2  0  0  0  0
 42 43  1  0  0  0  0
  1 44  1  0  0  0  0
 44 45  2  0  0  0  0
 45 46  1  0  0  0  0
 46 47  2  0  0  0  0
 47 48  1  0  0  0  0
 36  3  1  0  0  0  0
 43 39  1  0  0  0  0
 48 44  1  0  0  0  0
 11  7  1  0  0  0  0
 19 15  1  0  0  0  0
 27 23  1  0  0  0  0
 35 31  1  0  0  0  0
  8 49  1  0  0  0  0
  9 50  1  0  0  0  0
 10 51  1  0  0  0  0
 16 52  1  0  0  0  0
 17 53  1  0  0  0  0
 18 54  1  0  0  0  0
 24 55  1  0  0  0  0
 25 56  1  0  0  0  0
 26 57  1  0  0  0  0
 32 58  1  0  0  0  0
 33 59  1  0  0  0  0
 34 60  1  0  0  0  0
 40 61  1  0  0  0  0
 41 62  1  0  0  0  0
 42 63  1  0  0  0  0
 45 64  1  0  0  0  0
 46 65  1  0  0  0  0
 47 66  1  0  0  0  0
M  END
