
  xtb     03022213053D
 energy: -51.207725691762 gnorm: 0.000285070109 xtb: 6.4.1 (afa7bdf)
 27 28  0     0  0            999 V2000
   -0.2262    1.8873    2.9657 N   0  0  0  0  0  0  0  0  0  0  0  0
   -0.5756    1.3087    2.0356 C   0  0  0  0  0  0  0  0  0  0  0  0
   -1.0987    0.6068    0.9388 C   0  0  0  0  0  0  0  0  0  0  0  0
   -2.5112    0.4874    0.8217 C   0  0  0  0  0  0  0  0  0  0  0  0
   -3.3291    1.0876    1.7064 N   0  0  0  0  0  0  0  0  0  0  0  0
   -3.0874   -0.1978   -0.1575 N   0  0  0  0  0  0  0  0  0  0  0  0
   -2.3320   -0.7984   -1.0680 C   0  0  0  0  0  0  0  0  0  0  0  0
   -2.9724   -1.4918   -2.0276 N   0  0  0  0  0  0  0  0  0  0  0  0
   -0.9112   -0.7370   -1.0394 C   0  0  0  0  0  0  0  0  0  0  0  0
   -0.1941   -1.3601   -2.0722 C   0  0  0  0  0  0  0  0  0  0  0  0
    0.3184   -1.8845   -2.9578 N   0  0  0  0  0  0  0  0  0  0  0  0
   -0.2887   -0.0191   -0.0136 C   0  0  0  0  0  0  0  0  0  0  0  0
    1.1761    0.0751    0.0608 C   0  0  0  0  0  0  0  0  0  0  0  0
    1.7912    1.3099    0.2553 C   0  0  0  0  0  0  0  0  0  0  0  0
    3.1675    1.4056    0.3212 C   0  0  0  0  0  0  0  0  0  0  0  0
    3.9220    0.2527    0.1980 C   0  0  0  0  0  0  0  0  0  0  0  0
    5.2648    0.3395    0.2647 F   0  0  0  0  0  0  0  0  0  0  0  0
    3.3379   -0.9868    0.0081 C   0  0  0  0  0  0  0  0  0  0  0  0
    1.9609   -1.0691   -0.0634 C   0  0  0  0  0  0  0  0  0  0  0  0
   -2.9538    1.5720    2.5022 H   0  0  0  0  0  0  0  0  0  0  0  0
   -4.3187    0.9440    1.6189 H   0  0  0  0  0  0  0  0  0  0  0  0
   -2.4592   -1.9195   -2.7778 H   0  0  0  0  0  0  0  0  0  0  0  0
   -3.9760   -1.4748   -2.0434 H   0  0  0  0  0  0  0  0  0  0  0  0
    1.1914    2.2038    0.3367 H   0  0  0  0  0  0  0  0  0  0  0  0
    3.6560    2.3558    0.4661 H   0  0  0  0  0  0  0  0  0  0  0  0
    3.9563   -1.8654   -0.0815 H   0  0  0  0  0  0  0  0  0  0  0  0
    1.4921   -2.0322   -0.1981 H   0  0  0  0  0  0  0  0  0  0  0  0
  1  2  3  0  0  0  0
  2  3  1  0  0  0  0
  3  4  2  0  0  0  0
  4  5  1  0  0  0  0
  4  6  1  0  0  0  0
  6  7  2  0  0  0  0
  7  8  1  0  0  0  0
  7  9  1  0  0  0  0
  9 10  1  0  0  0  0
 10 11  3  0  0  0  0
  9 12  2  0  0  0  0
 12 13  1  0  0  0  0
 13 14  2  0  0  0  0
 14 15  1  0  0  0  0
 15 16  2  0  0  0  0
 16 17  1  0  0  0  0
 16 18  1  0  0  0  0
 18 19  2  0  0  0  0
 12  3  1  0  0  0  0
 19 13  1  0  0  0  0
  5 20  1  0  0  0  0
  5 21  1  0  0  0  0
  8 22  1  0  0  0  0
  8 23  1  0  0  0  0
 14 24  1  0  0  0  0
 15 25  1  0  0  0  0
 18 26  1  0  0  0  0
 19 27  1  0  0  0  0
M  END
