
  xtb     03022215013D
 energy: -68.620865288796 gnorm: 0.000172487635 xtb: 6.4.1 (afa7bdf)
 38 43  0     0  0            999 V2000
    2.1509   -2.6067   -0.7979 F   0  0  0  0  0  0  0  0  0  0  0  0
    2.0763   -1.3124   -1.2265 B   0  0  0  0  0  4  0  0  0  0  0  0
    1.9583   -1.2420   -2.5851 F   0  0  0  0  0  0  0  0  0  0  0  0
    1.0814   -0.4440   -0.4560 N   0  0  0  0  0  0  0  0  0  0  0  0
    1.7254    0.5545    0.2376 C   0  0  0  0  0  0  0  0  0  0  0  0
    0.9113    1.3360    0.9228 N   0  0  0  0  0  0  0  0  0  0  0  0
   -0.3193    0.8366    0.6740 C   0  0  0  0  0  0  0  0  0  0  0  0
   -1.5794    1.2939    1.1600 C   0  0  0  0  0  0  0  0  0  0  0  0
   -1.6679    2.3974    2.0136 C   0  0  0  0  0  0  0  0  0  0  0  0
   -2.8897    2.8255    2.4735 C   0  0  0  0  0  0  0  0  0  0  0  0
   -4.0417    2.1497    2.0816 C   0  0  0  0  0  0  0  0  0  0  0  0
   -3.9665    1.0618    1.2412 C   0  0  0  0  0  0  0  0  0  0  0  0
   -2.7393    0.5944    0.7505 C   0  0  0  0  0  0  0  0  0  0  0  0
   -2.6402   -0.5546   -0.1394 C   0  0  0  0  0  0  0  0  0  0  0  0
   -3.7658   -1.2714   -0.5667 C   0  0  0  0  0  0  0  0  0  0  0  0
   -3.6569   -2.3558   -1.4082 C   0  0  0  0  0  0  0  0  0  0  0  0
   -2.4119   -2.7782   -1.8653 C   0  0  0  0  0  0  0  0  0  0  0  0
   -1.2824   -2.1032   -1.4704 C   0  0  0  0  0  0  0  0  0  0  0  0
   -1.3803   -0.9991   -0.6151 C   0  0  0  0  0  0  0  0  0  0  0  0
   -0.2328   -0.2786   -0.1878 C   0  0  0  0  0  0  0  0  0  0  0  0
    3.1312    0.4928    0.0386 C   0  0  0  0  0  0  0  0  0  0  0  0
    4.1480    1.3019    0.5468 C   0  0  0  0  0  0  0  0  0  0  0  0
    5.4480    1.0180    0.1893 C   0  0  0  0  0  0  0  0  0  0  0  0
    5.7183   -0.0573   -0.6613 C   0  0  0  0  0  0  0  0  0  0  0  0
    4.6691   -0.8194   -1.1301 C   0  0  0  0  0  0  0  0  0  0  0  0
    3.4212   -0.5412   -0.7826 N   0  0  0  0  0  4  0  0  0  0  0  0
   -0.7516    2.8934    2.2937 H   0  0  0  0  0  0  0  0  0  0  0  0
   -2.9602    3.6777    3.1331 H   0  0  0  0  0  0  0  0  0  0  0  0
   -5.0057    2.4810    2.4397 H   0  0  0  0  0  0  0  0  0  0  0  0
   -4.8848    0.5692    0.9642 H   0  0  0  0  0  0  0  0  0  0  0  0
   -4.7502   -0.9796   -0.2378 H   0  0  0  0  0  0  0  0  0  0  0  0
   -4.5481   -2.8833   -1.7161 H   0  0  0  0  0  0  0  0  0  0  0  0
   -2.3364   -3.6294   -2.5247 H   0  0  0  0  0  0  0  0  0  0  0  0
   -0.3080   -2.4130   -1.8123 H   0  0  0  0  0  0  0  0  0  0  0  0
    3.8884    2.1189    1.1990 H   0  0  0  0  0  0  0  0  0  0  0  0
    6.2595    1.6232    0.5639 H   0  0  0  0  0  0  0  0  0  0  0  0
    6.7288   -0.2929   -0.9505 H   0  0  0  0  0  0  0  0  0  0  0  0
    4.8035   -1.6636   -1.7895 H   0  0  0  0  0  0  0  0  0  0  0  0
  1  2  1  0  0  0  0
  2  3  1  0  0  0  0
  2  4  1  0  0  0  0
  4  5  1  0  0  0  0
  5  6  2  0  0  0  0
  6  7  1  0  0  0  0
  7  8  2  0  0  0  0
  8  9  1  0  0  0  0
  9 10  2  0  0  0  0
 10 11  1  0  0  0  0
 11 12  2  0  0  0  0
 12 13  1  0  0  0  0
 13 14  2  0  0  0  0
 14 15  1  0  0  0  0
 15 16  2  0  0  0  0
 16 17  1  0  0  0  0
 17 18  2  0  0  0  0
 18 19  1  0  0  0  0
 19 20  2  0  0  0  0
  5 21  1  0  0  0  0
 21 22  2  0  0  0  0
 22 23  1  0  0  0  0
 23 24  2  0  0  0  0
 24 25  1  0  0  0  0
 25 26  2  0  0  0  0
 26  2  1  0  0  0  0
 20  4  1  0  0  0  0
 26 21  1  0  0  0  0
 20  7  1  0  0  0  0
 13  8  1  0  0  0  0
 19 14  1  0  0  0  0
  9 27  1  0  0  0  0
 10 28  1  0  0  0  0
 11 29  1  0  0  0  0
 12 30  1  0  0  0  0
 15 31  1  0  0  0  0
 16 32  1  0  0  0  0
 17 33  1  0  0  0  0
 18 34  1  0  0  0  0
 22 35  1  0  0  0  0
 23 36  1  0  0  0  0
 24 37  1  0  0  0  0
 25 38  1  0  0  0  0
M  CHG  1   2  -1
M  CHG  1  26   1
M  END
