
  xtb     03022213563D
 energy: -63.897869890235 gnorm: 0.000081140522 xtb: 6.4.1 (afa7bdf)
 40 44  0     0  0            999 V2000
    2.9889    0.2487   -0.5300 C   0  0  0  0  0  0  0  0  0  0  0  0
    2.1631   -0.7685   -0.2316 C   0  0  0  0  0  0  0  0  0  0  0  0
    0.7633   -0.6034    0.0041 C   0  0  0  0  0  0  0  0  0  0  0  0
   -0.0635   -1.5705    0.2955 N   0  0  0  0  0  0  0  0  0  0  0  0
   -1.2796   -0.9724    0.4352 C   0  0  0  0  0  0  0  0  0  0  0  0
   -2.5499   -1.5317    0.7505 C   0  0  0  0  0  0  0  0  0  0  0  0
   -2.7068   -2.9026    0.9756 C   0  0  0  0  0  0  0  0  0  0  0  0
   -3.9429   -3.4176    1.2782 C   0  0  0  0  0  0  0  0  0  0  0  0
   -5.0397   -2.5621    1.3589 C   0  0  0  0  0  0  0  0  0  0  0  0
   -4.8970   -1.2118    1.1394 C   0  0  0  0  0  0  0  0  0  0  0  0
   -3.6515   -0.6450    0.8277 C   0  0  0  0  0  0  0  0  0  0  0  0
   -3.4775    0.7784    0.5918 C   0  0  0  0  0  0  0  0  0  0  0  0
   -4.5393    1.6921    0.6578 C   0  0  0  0  0  0  0  0  0  0  0  0
   -4.3533    3.0362    0.4311 C   0  0  0  0  0  0  0  0  0  0  0  0
   -3.0904    3.5397    0.1252 C   0  0  0  0  0  0  0  0  0  0  0  0
   -2.0223    2.6817    0.0501 C   0  0  0  0  0  0  0  0  0  0  0  0
   -2.1993    1.3110    0.2789 C   0  0  0  0  0  0  0  0  0  0  0  0
   -1.1288    0.3884    0.2126 C   0  0  0  0  0  0  0  0  0  0  0  0
    0.1742    0.6241   -0.0624 O   0  0  0  0  0  0  0  0  0  0  0  0
    4.4117    0.1583   -0.7806 C   0  0  0  0  0  0  0  0  0  0  0  0
    5.1180   -1.0478   -0.7389 C   0  0  0  0  0  0  0  0  0  0  0  0
    6.4757   -1.0783   -0.9860 C   0  0  0  0  0  0  0  0  0  0  0  0
    7.1624    0.0895   -1.2802 C   0  0  0  0  0  0  0  0  0  0  0  0
    6.4780    1.2932   -1.3256 C   0  0  0  0  0  0  0  0  0  0  0  0
    5.1198    1.3270   -1.0789 C   0  0  0  0  0  0  0  0  0  0  0  0
    2.5675    1.2444   -0.5944 H   0  0  0  0  0  0  0  0  0  0  0  0
    2.4977   -1.7901   -0.1474 H   0  0  0  0  0  0  0  0  0  0  0  0
   -1.8321   -3.5301    0.9033 H   0  0  0  0  0  0  0  0  0  0  0  0
   -4.0689   -4.4757    1.4529 H   0  0  0  0  0  0  0  0  0  0  0  0
   -6.0142   -2.9634    1.5968 H   0  0  0  0  0  0  0  0  0  0  0  0
   -5.7733   -0.5876    1.2124 H   0  0  0  0  0  0  0  0  0  0  0  0
   -5.5338    1.3473    0.8913 H   0  0  0  0  0  0  0  0  0  0  0  0
   -5.1960    3.7093    0.4909 H   0  0  0  0  0  0  0  0  0  0  0  0
   -2.9573    4.5967   -0.0506 H   0  0  0  0  0  0  0  0  0  0  0  0
   -1.0315    3.0411   -0.1848 H   0  0  0  0  0  0  0  0  0  0  0  0
    4.6003   -1.9665   -0.5116 H   0  0  0  0  0  0  0  0  0  0  0  0
    7.0056   -2.0191   -0.9495 H   0  0  0  0  0  0  0  0  0  0  0  0
    8.2245    0.0606   -1.4728 H   0  0  0  0  0  0  0  0  0  0  0  0
    7.0068    2.2070   -1.5543 H   0  0  0  0  0  0  0  0  0  0  0  0
    4.5913    2.2692   -1.1158 H   0  0  0  0  0  0  0  0  0  0  0  0
  1  2  2  0  0  0  0
  2  3  1  0  0  0  0
  3  4  2  0  0  0  0
  4  5  1  0  0  0  0
  5  6  2  0  0  0  0
  6  7  1  0  0  0  0
  7  8  2  0  0  0  0
  8  9  1  0  0  0  0
  9 10  2  0  0  0  0
 10 11  1  0  0  0  0
 11 12  2  0  0  0  0
 12 13  1  0  0  0  0
 13 14  2  0  0  0  0
 14 15  1  0  0  0  0
 15 16  2  0  0  0  0
 16 17  1  0  0  0  0
 17 18  2  0  0  0  0
 18 19  1  0  0  0  0
  1 20  1  0  0  0  0
 20 21  2  0  0  0  0
 21 22  1  0  0  0  0
 22 23  2  0  0  0  0
 23 24  1  0  0  0  0
 24 25  2  0  0  0  0
 19  3  1  0  0  0  0
 25 20  1  0  0  0  0
 18  5  1  0  0  0  0
 11  6  1  0  0  0  0
 17 12  1  0  0  0  0
  1 26  1  0  0  0  0
  2 27  1  0  0  0  0
  7 28  1  0  0  0  0
  8 29  1  0  0  0  0
  9 30  1  0  0  0  0
 10 31  1  0  0  0  0
 13 32  1  0  0  0  0
 14 33  1  0  0  0  0
 15 34  1  0  0  0  0
 16 35  1  0  0  0  0
 21 36  1  0  0  0  0
 22 37  1  0  0  0  0
 23 38  1  0  0  0  0
 24 39  1  0  0  0  0
 25 40  1  0  0  0  0
M  END
