
  xtb     03022215093D
 energy: -45.612361973091 gnorm: 0.000420917562 xtb: 6.4.1 (afa7bdf)
 26 28  0     0  0            999 V2000
   -2.6844   -2.1259    0.2340 N   0  0  0  0  0  0  0  0  0  0  0  0
   -2.4115   -0.8152    0.3498 C   0  0  0  0  0  0  0  0  0  0  0  0
   -3.4464    0.0875    0.6666 C   0  0  0  0  0  0  0  0  0  0  0  0
   -3.2023    1.4309    0.7967 C   0  0  0  0  0  0  0  0  0  0  0  0
   -1.9152    1.9242    0.6149 C   0  0  0  0  0  0  0  0  0  0  0  0
   -0.8724    1.0673    0.3024 C   0  0  0  0  0  0  0  0  0  0  0  0
   -1.0940   -0.3184    0.1627 C   0  0  0  0  0  0  0  0  0  0  0  0
   -0.0042   -1.2268   -0.1683 C   0  0  0  0  0  0  0  0  0  0  0  0
   -0.1538   -2.4420   -0.3070 O   0  0  0  0  0  0  0  0  0  0  0  0
    1.3388   -0.6310   -0.3399 C   0  0  0  0  0  0  0  0  0  0  0  0
    2.4076   -1.4696   -0.6481 C   0  0  0  0  0  0  0  0  0  0  0  0
    3.6804   -0.9576   -0.8153 C   0  0  0  0  0  0  0  0  0  0  0  0
    3.9041    0.4049   -0.6768 C   0  0  0  0  0  0  0  0  0  0  0  0
    2.8520    1.2475   -0.3719 C   0  0  0  0  0  0  0  0  0  0  0  0
    1.5656    0.7418   -0.2009 C   0  0  0  0  0  0  0  0  0  0  0  0
    0.4663    1.6709    0.1243 C   0  0  0  0  0  0  0  0  0  0  0  0
    0.6531    2.8692    0.2396 O   0  0  0  0  0  0  0  0  0  0  0  0
   -3.6221   -2.4624    0.3556 H   0  0  0  0  0  0  0  0  0  0  0  0
   -1.9184   -2.7455   -0.0048 H   0  0  0  0  0  0  0  0  0  0  0  0
   -4.4435   -0.3061    0.8057 H   0  0  0  0  0  0  0  0  0  0  0  0
   -4.0088    2.1066    1.0399 H   0  0  0  0  0  0  0  0  0  0  0  0
   -1.7029    2.9776    0.7125 H   0  0  0  0  0  0  0  0  0  0  0  0
    2.2134   -2.5269   -0.7518 H   0  0  0  0  0  0  0  0  0  0  0  0
    4.5002   -1.6190   -1.0536 H   0  0  0  0  0  0  0  0  0  0  0  0
    4.8981    0.8064   -0.8069 H   0  0  0  0  0  0  0  0  0  0  0  0
    3.0001    2.3114   -0.2592 H   0  0  0  0  0  0  0  0  0  0  0  0
  1  2  1  0  0  0  0
  2  3  2  0  0  0  0
  3  4  1  0  0  0  0
  4  5  2  0  0  0  0
  5  6  1  0  0  0  0
  6  7  2  0  0  0  0
  7  8  1  0  0  0  0
  8  9  2  0  0  0  0
  8 10  1  0  0  0  0
 10 11  2  0  0  0  0
 11 12  1  0  0  0  0
 12 13  2  0  0  0  0
 13 14  1  0  0  0  0
 14 15  2  0  0  0  0
 15 16  1  0  0  0  0
 16 17  2  0  0  0  0
  7  2  1  0  0  0  0
 15 10  1  0  0  0  0
 16  6  1  0  0  0  0
  1 18  1  0  0  0  0
  1 19  1  0  0  0  0
  3 20  1  0  0  0  0
  4 21  1  0  0  0  0
  5 22  1  0  0  0  0
 11 23  1  0  0  0  0
 12 24  1  0  0  0  0
 13 25  1  0  0  0  0
 14 26  1  0  0  0  0
M  END
