
  xtb     03022216143D
 energy: -28.911819982900 gnorm: 0.000196020768 xtb: 6.4.1 (afa7bdf)
 20 21  0     0  0            999 V2000
    3.2917    0.6497    0.7458 N   0  0  0  0  0  0  0  0  0  0  0  0
    2.0316    0.2009    0.4055 C   0  0  0  0  0  0  0  0  0  0  0  0
    1.8062   -1.1869    0.2569 C   0  0  0  0  0  0  0  0  0  0  0  0
    0.5585   -1.6667   -0.0086 C   0  0  0  0  0  0  0  0  0  0  0  0
   -0.5440   -0.7961   -0.1423 C   0  0  0  0  0  0  0  0  0  0  0  0
   -1.8441   -1.2634   -0.4164 C   0  0  0  0  0  0  0  0  0  0  0  0
   -2.8897   -0.3911   -0.5403 C   0  0  0  0  0  0  0  0  0  0  0  0
   -2.6770    0.9887   -0.3963 C   0  0  0  0  0  0  0  0  0  0  0  0
   -1.4272    1.4730   -0.1308 C   0  0  0  0  0  0  0  0  0  0  0  0
   -0.3265    0.5996    0.0052 C   0  0  0  0  0  0  0  0  0  0  0  0
    0.9703    1.0695    0.2756 C   0  0  0  0  0  0  0  0  0  0  0  0
    4.0605    0.0360    0.5305 H   0  0  0  0  0  0  0  0  0  0  0  0
    3.4769    1.6265    0.5857 H   0  0  0  0  0  0  0  0  0  0  0  0
    2.6452   -1.8614    0.3592 H   0  0  0  0  0  0  0  0  0  0  0  0
    0.3978   -2.7296   -0.1229 H   0  0  0  0  0  0  0  0  0  0  0  0
   -2.0000   -2.3277   -0.5263 H   0  0  0  0  0  0  0  0  0  0  0  0
   -3.8848   -0.7560   -0.7493 H   0  0  0  0  0  0  0  0  0  0  0  0
   -3.5130    1.6660   -0.4974 H   0  0  0  0  0  0  0  0  0  0  0  0
   -1.2624    2.5357   -0.0193 H   0  0  0  0  0  0  0  0  0  0  0  0
    1.1301    2.1335    0.3856 H   0  0  0  0  0  0  0  0  0  0  0  0
  1  2  1  0  0  0  0
  2  3  2  0  0  0  0
  3  4  1  0  0  0  0
  4  5  2  0  0  0  0
  5  6  1  0  0  0  0
  6  7  2  0  0  0  0
  7  8  1  0  0  0  0
  8  9  2  0  0  0  0
  9 10  1  0  0  0  0
 10 11  2  0  0  0  0
 11  2  1  0  0  0  0
 10  5  1  0  0  0  0
  1 12  1  0  0  0  0
  1 13  1  0  0  0  0
  3 14  1  0  0  0  0
  4 15  1  0  0  0  0
  6 16  1  0  0  0  0
  7 17  1  0  0  0  0
  8 18  1  0  0  0  0
  9 19  1  0  0  0  0
 11 20  1  0  0  0  0
M  END
