
  xtb     03022212593D
 energy: -136.740590755866 gnorm: 0.000120432928 xtb: 6.4.1 (afa7bdf)
108114  0     0  0            999 V2000
   10.7238   -0.5119    2.6537 C   0  0  0  0  0  0  0  0  0  0  0  0
   11.2658    0.5270    1.6782 C   0  0  0  0  0  0  0  0  0  0  0  0
   11.2109    0.0864    0.1993 C   0  0  0  0  0  0  0  0  0  0  0  0
   12.2155   -1.0464   -0.0294 C   0  0  0  0  0  0  0  0  0  0  0  0
   11.6388    1.2674   -0.6876 C   0  0  0  0  0  0  0  0  0  0  0  0
    9.7870   -0.3019   -0.1662 C   0  0  0  0  0  0  0  0  0  0  0  0
    9.4513   -1.5610   -0.6518 C   0  0  0  0  0  0  0  0  0  0  0  0
    8.1414   -1.9014   -0.9509 C   0  0  0  0  0  0  0  0  0  0  0  0
    7.1460   -0.9573   -0.7826 C   0  0  0  0  0  0  0  0  0  0  0  0
    7.4703    0.3309   -0.3314 C   0  0  0  0  0  0  0  0  0  0  0  0
    8.7703    0.6443   -0.0079 C   0  0  0  0  0  0  0  0  0  0  0  0
    6.2302    1.1929   -0.2469 C   0  0  0  0  0  0  0  0  0  0  0  0
    6.0343    1.7993    1.1495 C   0  0  0  0  0  0  0  0  0  0  0  0
    5.9431    0.7326    2.2345 C   0  0  0  0  0  0  0  0  0  0  0  0
    6.2094    2.2786   -1.3486 C   0  0  0  0  0  0  0  0  0  0  0  0
    7.3604    3.2756   -1.3227 C   0  0  0  0  0  0  0  0  0  0  0  0
    5.1467    0.1938   -0.5978 C   0  0  0  0  0  0  0  0  0  0  0  0
    3.7851    0.3824   -0.6419 C   0  0  0  0  0  0  0  0  0  0  0  0
    2.9565   -0.6742   -1.0298 C   0  0  0  0  0  0  0  0  0  0  0  0
    1.5001   -0.4949   -1.0802 C   0  0  0  0  0  0  0  0  0  0  0  0
    0.9411    0.6840   -1.5702 C   0  0  0  0  0  0  0  0  0  0  0  0
   -0.4275    0.8445   -1.6379 C   0  0  0  0  0  0  0  0  0  0  0  0
   -1.2879   -0.1637   -1.2075 C   0  0  0  0  0  0  0  0  0  0  0  0
   -2.7449   -0.0025   -1.2904 C   0  0  0  0  0  0  0  0  0  0  0  0
   -3.3242    0.5935   -2.4112 C   0  0  0  0  0  0  0  0  0  0  0  0
   -4.6943    0.7420   -2.5187 C   0  0  0  0  0  0  0  0  0  0  0  0
   -5.4976    0.2875   -1.4853 C   0  0  0  0  0  0  0  0  0  0  0  0
   -4.9288   -0.3114   -0.3547 C   0  0  0  0  0  0  0  0  0  0  0  0
   -3.5643   -0.4562   -0.2533 C   0  0  0  0  0  0  0  0  0  0  0  0
   -5.9985   -0.7233    0.6426 C   0  0  0  0  0  0  0  0  0  0  0  0
   -5.7182    0.0116    1.9757 C   0  0  0  0  0  0  0  0  0  0  0  0
   -6.9228    0.3680    2.8388 C   0  0  0  0  0  0  0  0  0  0  0  0
   -5.9206   -2.2613    0.7696 C   0  0  0  0  0  0  0  0  0  0  0  0
   -6.8725   -2.9243    1.7557 C   0  0  0  0  0  0  0  0  0  0  0  0
   -7.2568   -0.2745   -0.0752 C   0  0  0  0  0  0  0  0  0  0  0  0
   -8.5778   -0.3848    0.3002 C   0  0  0  0  0  0  0  0  0  0  0  0
   -9.6007    0.0743   -0.5339 C   0  0  0  0  0  0  0  0  0  0  0  0
  -11.0448   -0.0434   -0.0612 C   0  0  0  0  0  0  0  0  0  0  0  0
  -12.0403    0.2279   -1.1932 C   0  0  0  0  0  0  0  0  0  0  0  0
  -11.3003   -1.4664    0.4596 C   0  0  0  0  0  0  0  0  0  0  0  0
  -11.2214    1.0002    1.0647 C   0  0  0  0  0  0  0  0  0  0  0  0
  -12.6059    1.0461    1.7013 C   0  0  0  0  0  0  0  0  0  0  0  0
   -9.2572    0.6580   -1.7479 C   0  0  0  0  0  0  0  0  0  0  0  0
   -7.9358    0.7739   -2.1459 C   0  0  0  0  0  0  0  0  0  0  0  0
   -6.9369    0.3043   -1.3141 C   0  0  0  0  0  0  0  0  0  0  0  0
   -0.7289   -1.3372   -0.7045 C   0  0  0  0  0  0  0  0  0  0  0  0
    0.6395   -1.5019   -0.6469 C   0  0  0  0  0  0  0  0  0  0  0  0
    3.5260   -1.8994   -1.3777 C   0  0  0  0  0  0  0  0  0  0  0  0
    4.8947   -2.0930   -1.3430 C   0  0  0  0  0  0  0  0  0  0  0  0
    5.7072   -1.0429   -0.9488 C   0  0  0  0  0  0  0  0  0  0  0  0
   10.7243   -0.1088    3.6643 H   0  0  0  0  0  0  0  0  0  0  0  0
   11.3323   -1.4122    2.6509 H   0  0  0  0  0  0  0  0  0  0  0  0
    9.7037   -0.7856    2.3930 H   0  0  0  0  0  0  0  0  0  0  0  0
   10.6929    1.4480    1.7993 H   0  0  0  0  0  0  0  0  0  0  0  0
   12.3031    0.7557    1.9339 H   0  0  0  0  0  0  0  0  0  0  0  0
   11.9636   -1.9294    0.5510 H   0  0  0  0  0  0  0  0  0  0  0  0
   12.2565   -1.3176   -1.0821 H   0  0  0  0  0  0  0  0  0  0  0  0
   13.2082   -0.7162    0.2708 H   0  0  0  0  0  0  0  0  0  0  0  0
   11.0062    2.1364   -0.5277 H   0  0  0  0  0  0  0  0  0  0  0  0
   11.5763    0.9893   -1.7378 H   0  0  0  0  0  0  0  0  0  0  0  0
   12.6659    1.5507   -0.4665 H   0  0  0  0  0  0  0  0  0  0  0  0
   10.2129   -2.3106   -0.7914 H   0  0  0  0  0  0  0  0  0  0  0  0
    7.9066   -2.8955   -1.3025 H   0  0  0  0  0  0  0  0  0  0  0  0
    9.0025    1.6203    0.3887 H   0  0  0  0  0  0  0  0  0  0  0  0
    5.1208    2.3982    1.1504 H   0  0  0  0  0  0  0  0  0  0  0  0
    6.8705    2.4634    1.3737 H   0  0  0  0  0  0  0  0  0  0  0  0
    6.8497    0.1316    2.2554 H   0  0  0  0  0  0  0  0  0  0  0  0
    5.0990    0.0712    2.0522 H   0  0  0  0  0  0  0  0  0  0  0  0
    5.8141    1.1968    3.2099 H   0  0  0  0  0  0  0  0  0  0  0  0
    6.2109    1.7709   -2.3170 H   0  0  0  0  0  0  0  0  0  0  0  0
    5.2645    2.8206   -1.2626 H   0  0  0  0  0  0  0  0  0  0  0  0
    7.4134    3.7971   -0.3703 H   0  0  0  0  0  0  0  0  0  0  0  0
    8.3073    2.7757   -1.5073 H   0  0  0  0  0  0  0  0  0  0  0  0
    7.2126    4.0180   -2.1046 H   0  0  0  0  0  0  0  0  0  0  0  0
    3.3463    1.3270   -0.3541 H   0  0  0  0  0  0  0  0  0  0  0  0
    1.5892    1.4732   -1.9237 H   0  0  0  0  0  0  0  0  0  0  0  0
   -0.8393    1.7699   -2.0144 H   0  0  0  0  0  0  0  0  0  0  0  0
   -2.6869    0.9234   -3.2189 H   0  0  0  0  0  0  0  0  0  0  0  0
   -5.1283    1.2006   -3.3949 H   0  0  0  0  0  0  0  0  0  0  0  0
   -3.1162   -0.8936    0.6273 H   0  0  0  0  0  0  0  0  0  0  0  0
   -5.0253   -0.5996    2.5585 H   0  0  0  0  0  0  0  0  0  0  0  0
   -5.2019    0.9450    1.7346 H   0  0  0  0  0  0  0  0  0  0  0  0
   -7.5897    1.0419    2.3069 H   0  0  0  0  0  0  0  0  0  0  0  0
   -6.5775    0.8735    3.7393 H   0  0  0  0  0  0  0  0  0  0  0  0
   -7.4820   -0.5121    3.1414 H   0  0  0  0  0  0  0  0  0  0  0  0
   -6.0959   -2.6809   -0.2252 H   0  0  0  0  0  0  0  0  0  0  0  0
   -4.8965   -2.5159    1.0547 H   0  0  0  0  0  0  0  0  0  0  0  0
   -6.7082   -2.5614    2.7666 H   0  0  0  0  0  0  0  0  0  0  0  0
   -6.6976   -3.9990    1.7532 H   0  0  0  0  0  0  0  0  0  0  0  0
   -7.9080   -2.7550    1.4772 H   0  0  0  0  0  0  0  0  0  0  0  0
   -8.8342   -0.8230    1.2492 H   0  0  0  0  0  0  0  0  0  0  0  0
  -12.0081    1.2683   -1.5078 H   0  0  0  0  0  0  0  0  0  0  0  0
  -11.8252   -0.4097   -2.0480 H   0  0  0  0  0  0  0  0  0  0  0  0
  -13.0520    0.0088   -0.8612 H   0  0  0  0  0  0  0  0  0  0  0  0
  -12.3654   -1.6373    0.5942 H   0  0  0  0  0  0  0  0  0  0  0  0
  -10.8113   -1.6407    1.4142 H   0  0  0  0  0  0  0  0  0  0  0  0
  -10.9285   -2.1961   -0.2572 H   0  0  0  0  0  0  0  0  0  0  0  0
  -10.9878    1.9854    0.6518 H   0  0  0  0  0  0  0  0  0  0  0  0
  -10.4859    0.7953    1.8461 H   0  0  0  0  0  0  0  0  0  0  0  0
  -13.3656    1.3265    0.9769 H   0  0  0  0  0  0  0  0  0  0  0  0
  -12.6140    1.7863    2.4990 H   0  0  0  0  0  0  0  0  0  0  0  0
  -12.8714    0.0842    2.1317 H   0  0  0  0  0  0  0  0  0  0  0  0
  -10.0207    1.0335   -2.4094 H   0  0  0  0  0  0  0  0  0  0  0  0
   -7.6930    1.2257   -3.0966 H   0  0  0  0  0  0  0  0  0  0  0  0
   -1.3773   -2.1373   -0.3773 H   0  0  0  0  0  0  0  0  0  0  0  0
    1.0512   -2.4169   -0.2459 H   0  0  0  0  0  0  0  0  0  0  0  0
    2.8822   -2.7046   -1.7012 H   0  0  0  0  0  0  0  0  0  0  0  0
    5.3197   -3.0464   -1.6208 H   0  0  0  0  0  0  0  0  0  0  0  0
  1  2  1  0  0  0  0
  2  3  1  0  0  0  0
  3  4  1  0  0  0  0
  3  5  1  0  0  0  0
  3  6  1  0  0  0  0
  6  7  2  0  0  0  0
  7  8  1  0  0  0  0
  8  9  2  0  0  0  0
  9 10  1  0  0  0  0
 10 11  2  0  0  0  0
 10 12  1  0  0  0  0
 12 13  1  0  0  0  0
 13 14  1  0  0  0  0
 12 15  1  0  0  0  0
 15 16  1  0  0  0  0
 12 17  1  0  0  0  0
 17 18  2  0  0  0  0
 18 19  1  0  0  0  0
 19 20  1  0  0  0  0
 20 21  2  0  0  0  0
 21 22  1  0  0  0  0
 22 23  2  0  0  0  0
 23 24  1  0  0  0  0
 24 25  2  0  0  0  0
 25 26  1  0  0  0  0
 26 27  2  0  0  0  0
 27 28  1  0  0  0  0
 28 29  2  0  0  0  0
 28 30  1  0  0  0  0
 30 31  1  0  0  0  0
 31 32  1  0  0  0  0
 30 33  1  0  0  0  0
 33 34  1  0  0  0  0
 30 35  1  0  0  0  0
 35 36  2  0  0  0  0
 36 37  1  0  0  0  0
 37 38  1  0  0  0  0
 38 39  1  0  0  0  0
 38 40  1  0  0  0  0
 38 41  1  0  0  0  0
 41 42  1  0  0  0  0
 37 43  2  0  0  0  0
 43 44  1  0  0  0  0
 44 45  2  0  0  0  0
 23 46  1  0  0  0  0
 46 47  2  0  0  0  0
 19 48  2  0  0  0  0
 48 49  1  0  0  0  0
 49 50  2  0  0  0  0
 11  6  1  0  0  0  0
 50 17  1  0  0  0  0
 50  9  1  0  0  0  0
 47 20  1  0  0  0  0
 29 24  1  0  0  0  0
 45 35  1  0  0  0  0
 45 27  1  0  0  0  0
  1 51  1  0  0  0  0
  1 52  1  0  0  0  0
  1 53  1  0  0  0  0
  2 54  1  0  0  0  0
  2 55  1  0  0  0  0
  4 56  1  0  0  0  0
  4 57  1  0  0  0  0
  4 58  1  0  0  0  0
  5 59  1  0  0  0  0
  5 60  1  0  0  0  0
  5 61  1  0  0  0  0
  7 62  1  0  0  0  0
  8 63  1  0  0  0  0
 11 64  1  0  0  0  0
 13 65  1  0  0  0  0
 13 66  1  0  0  0  0
 14 67  1  0  0  0  0
 14 68  1  0  0  0  0
 14 69  1  0  0  0  0
 15 70  1  0  0  0  0
 15 71  1  0  0  0  0
 16 72  1  0  0  0  0
 16 73  1  0  0  0  0
 16 74  1  0  0  0  0
 18 75  1  0  0  0  0
 21 76  1  0  0  0  0
 22 77  1  0  0  0  0
 25 78  1  0  0  0  0
 26 79  1  0  0  0  0
 29 80  1  0  0  0  0
 31 81  1  0  0  0  0
 31 82  1  0  0  0  0
 32 83  1  0  0  0  0
 32 84  1  0  0  0  0
 32 85  1  0  0  0  0
 33 86  1  0  0  0  0
 33 87  1  0  0  0  0
 34 88  1  0  0  0  0
 34 89  1  0  0  0  0
 34 90  1  0  0  0  0
 36 91  1  0  0  0  0
 39 92  1  0  0  0  0
 39 93  1  0  0  0  0
 39 94  1  0  0  0  0
 40 95  1  0  0  0  0
 40 96  1  0  0  0  0
 40 97  1  0  0  0  0
 41 98  1  0  0  0  0
 41 99  1  0  0  0  0
 42100  1  0  0  0  0
 42101  1  0  0  0  0
 42102  1  0  0  0  0
 43103  1  0  0  0  0
 44104  1  0  0  0  0
 46105  1  0  0  0  0
 47106  1  0  0  0  0
 48107  1  0  0  0  0
 49108  1  0  0  0  0
M  END
