
  xtb     03022214553D
 energy: -144.850928692398 gnorm: 0.000213060930 xtb: 6.4.1 (afa7bdf)
 82 89  0     0  0            999 V2000
   -0.9279   -1.9944    2.0637 C   0  0  0  0  0  0  0  0  0  0  0  0
    0.2128   -1.4201    1.3180 C   0  0  0  0  0  0  0  0  0  0  0  0
    1.4828   -1.6558    1.6541 N   0  0  0  0  0  4  0  0  0  0  0  0
    2.3130   -0.9961    0.7693 C   0  0  0  0  0  0  0  0  0  0  0  0
    3.7101   -1.0295    0.8907 C   0  0  0  0  0  0  0  0  0  0  0  0
    4.5134   -0.2754   -0.0508 C   0  0  0  0  0  0  0  0  0  0  0  0
    5.6268    0.3968    0.2771 C   0  0  0  0  0  0  0  0  0  0  0  0
    6.4597    1.1680   -0.6271 C   0  0  0  0  0  0  0  0  0  0  0  0
    7.4560    1.9874   -0.0854 C   0  0  0  0  0  0  0  0  0  0  0  0
    8.2831    2.7355   -0.8965 C   0  0  0  0  0  0  0  0  0  0  0  0
    8.1317    2.6693   -2.2767 C   0  0  0  0  0  0  0  0  0  0  0  0
    9.0276    3.5041   -3.1451 C   0  0  0  0  0  0  0  0  0  0  0  0
    8.6717    4.8045   -3.1346 F   0  0  0  0  0  0  0  0  0  0  0  0
   10.3093    3.4699   -2.7400 F   0  0  0  0  0  0  0  0  0  0  0  0
    9.0246    3.1245   -4.4300 F   0  0  0  0  0  0  0  0  0  0  0  0
    7.1517    1.8601   -2.8371 C   0  0  0  0  0  0  0  0  0  0  0  0
    6.3267    1.1167   -2.0178 C   0  0  0  0  0  0  0  0  0  0  0  0
    4.2944   -1.7916    1.9086 C   0  0  0  0  0  0  0  0  0  0  0  0
    5.6489   -2.1015    2.1743 C   0  0  0  0  0  0  0  0  0  0  0  0
    5.6646   -2.9212    3.2792 C   0  0  0  0  0  0  0  0  0  0  0  0
    4.3307   -3.1212    3.6739 C   0  0  0  0  0  0  0  0  0  0  0  0
    3.8202   -3.9306    4.7997 C   0  0  0  0  0  0  0  0  0  0  0  0
    3.5240   -2.4534    2.8417 N   0  0  0  0  0  0  0  0  0  0  0  0
    1.9830   -2.4791    2.8647 B   0  0  0  0  0  4  0  0  0  0  0  0
    1.5426   -3.7883    2.7648 F   0  0  0  0  0  0  0  0  0  0  0  0
    1.5096   -1.9241    4.0396 F   0  0  0  0  0  0  0  0  0  0  0  0
    1.5028   -0.3200   -0.1594 C   0  0  0  0  0  0  0  0  0  0  0  0
    0.1801   -0.5790    0.1735 C   0  0  0  0  0  0  0  0  0  0  0  0
   -0.9794   -0.0875   -0.5292 C   0  0  0  0  0  0  0  0  0  0  0  0
   -2.3193   -0.0983   -0.1629 C   0  0  0  0  0  0  0  0  0  0  0  0
   -3.0426    0.5087   -1.2098 C   0  0  0  0  0  0  0  0  0  0  0  0
   -2.1489    0.8802   -2.1924 N   0  0  0  0  0  0  0  0  0  0  0  0
   -0.9337    0.5343   -1.7982 C   0  0  0  0  0  0  0  0  0  0  0  0
   -2.5299    1.5849   -3.5193 B   0  0  0  0  0  4  0  0  0  0  0  0
   -2.1482    0.8025   -4.5869 F   0  0  0  0  0  0  0  0  0  0  0  0
   -1.9104    2.8137   -3.5853 F   0  0  0  0  0  0  0  0  0  0  0  0
   -4.0655    1.7618   -3.5090 N   0  0  0  0  0  4  0  0  0  0  0  0
   -4.8113    2.3170   -4.4590 C   0  0  0  0  0  0  0  0  0  0  0  0
   -6.1602    2.2947   -4.0878 C   0  0  0  0  0  0  0  0  0  0  0  0
   -6.2245    1.6933   -2.8493 C   0  0  0  0  0  0  0  0  0  0  0  0
   -4.8996    1.3587   -2.4885 C   0  0  0  0  0  0  0  0  0  0  0  0
   -4.4105    0.7362   -1.3421 C   0  0  0  0  0  0  0  0  0  0  0  0
   -5.3343    0.3094   -0.2724 C   0  0  0  0  0  0  0  0  0  0  0  0
   -5.6133    1.1745    0.7868 C   0  0  0  0  0  0  0  0  0  0  0  0
   -4.9822    2.5329    0.8313 C   0  0  0  0  0  0  0  0  0  0  0  0
   -6.4768    0.7521    1.7848 C   0  0  0  0  0  0  0  0  0  0  0  0
   -7.0637   -0.5058    1.7519 C   0  0  0  0  0  0  0  0  0  0  0  0
   -8.0080   -0.9306    2.8343 C   0  0  0  0  0  0  0  0  0  0  0  0
   -6.7714   -1.3480    0.6890 C   0  0  0  0  0  0  0  0  0  0  0  0
   -5.9127   -0.9590   -0.3280 C   0  0  0  0  0  0  0  0  0  0  0  0
   -5.6010   -1.8769   -1.4709 C   0  0  0  0  0  0  0  0  0  0  0  0
   -1.4255   -1.2147    2.6410 H   0  0  0  0  0  0  0  0  0  0  0  0
   -0.5812   -2.7589    2.7510 H   0  0  0  0  0  0  0  0  0  0  0  0
   -1.6491   -2.4278    1.3731 H   0  0  0  0  0  0  0  0  0  0  0  0
    4.1256   -0.2279   -1.0577 H   0  0  0  0  0  0  0  0  0  0  0  0
    5.9340    0.4191    1.3141 H   0  0  0  0  0  0  0  0  0  0  0  0
    7.5760    2.0372    0.9865 H   0  0  0  0  0  0  0  0  0  0  0  0
    9.0491    3.3652   -0.4702 H   0  0  0  0  0  0  0  0  0  0  0  0
    7.0432    1.8112   -3.9096 H   0  0  0  0  0  0  0  0  0  0  0  0
    5.5800    0.4820   -2.4669 H   0  0  0  0  0  0  0  0  0  0  0  0
    6.4924   -1.7833    1.5949 H   0  0  0  0  0  0  0  0  0  0  0  0
    6.5232   -3.3478    3.7593 H   0  0  0  0  0  0  0  0  0  0  0  0
    3.2167   -4.7532    4.4168 H   0  0  0  0  0  0  0  0  0  0  0  0
    4.6400   -4.3243    5.3933 H   0  0  0  0  0  0  0  0  0  0  0  0
    3.1665   -3.3237    5.4246 H   0  0  0  0  0  0  0  0  0  0  0  0
    1.8491    0.2945   -0.9657 H   0  0  0  0  0  0  0  0  0  0  0  0
   -2.7629   -0.4673    0.7389 H   0  0  0  0  0  0  0  0  0  0  0  0
   -0.0837    0.7263   -2.4236 H   0  0  0  0  0  0  0  0  0  0  0  0
   -4.3620    2.7032   -5.3537 H   0  0  0  0  0  0  0  0  0  0  0  0
   -6.9753    2.6773   -4.6695 H   0  0  0  0  0  0  0  0  0  0  0  0
   -7.0932    1.5022   -2.2499 H   0  0  0  0  0  0  0  0  0  0  0  0
   -5.3193    3.0857    1.7041 H   0  0  0  0  0  0  0  0  0  0  0  0
   -5.2363    3.1014   -0.0627 H   0  0  0  0  0  0  0  0  0  0  0  0
   -3.8966    2.4485    0.8693 H   0  0  0  0  0  0  0  0  0  0  0  0
   -6.6969    1.4174    2.6074 H   0  0  0  0  0  0  0  0  0  0  0  0
   -8.1091   -2.0126    2.8607 H   0  0  0  0  0  0  0  0  0  0  0  0
   -8.9943   -0.5010    2.6572 H   0  0  0  0  0  0  0  0  0  0  0  0
   -7.6628   -0.5837    3.8057 H   0  0  0  0  0  0  0  0  0  0  0  0
   -7.2204   -2.3301    0.6504 H   0  0  0  0  0  0  0  0  0  0  0  0
   -4.5286   -2.0579   -1.5350 H   0  0  0  0  0  0  0  0  0  0  0  0
   -5.9156   -1.4315   -2.4141 H   0  0  0  0  0  0  0  0  0  0  0  0
   -6.1094   -2.8297   -1.3494 H   0  0  0  0  0  0  0  0  0  0  0  0
  1  2  1  0  0  0  0
  2  3  2  0  0  0  0
  3  4  1  0  0  0  0
  4  5  2  0  0  0  0
  5  6  1  0  0  0  0
  6  7  2  0  0  0  0
  7  8  1  0  0  0  0
  8  9  2  0  0  0  0
  9 10  1  0  0  0  0
 10 11  2  0  0  0  0
 11 12  1  0  0  0  0
 12 13  1  0  0  0  0
 12 14  1  0  0  0  0
 12 15  1  0  0  0  0
 11 16  1  0  0  0  0
 16 17  2  0  0  0  0
  5 18  1  0  0  0  0
 18 19  2  0  0  0  0
 19 20  1  0  0  0  0
 20 21  2  0  0  0  0
 21 22  1  0  0  0  0
 21 23  1  0  0  0  0
 23 24  1  0  0  0  0
 24 25  1  0  0  0  0
 24 26  1  0  0  0  0
  4 27  1  0  0  0  0
 27 28  2  0  0  0  0
 28 29  1  0  0  0  0
 29 30  1  0  0  0  0
 30 31  2  0  0  0  0
 31 32  1  0  0  0  0
 32 33  1  0  0  0  0
 32 34  1  0  0  0  0
 34 35  1  0  0  0  0
 34 36  1  0  0  0  0
 34 37  1  0  0  0  0
 37 38  2  0  0  0  0
 38 39  1  0  0  0  0
 39 40  2  0  0  0  0
 40 41  1  0  0  0  0
 41 42  2  0  0  0  0
 42 43  1  0  0  0  0
 43 44  2  0  0  0  0
 44 45  1  0  0  0  0
 44 46  1  0  0  0  0
 46 47  2  0  0  0  0
 47 48  1  0  0  0  0
 47 49  1  0  0  0  0
 49 50  2  0  0  0  0
 50 51  1  0  0  0  0
 28  2  1  0  0  0  0
 33 29  2  0  0  0  0
 41 37  1  0  0  0  0
 50 43  1  0  0  0  0
 24  3  1  0  0  0  0
 42 31  1  0  0  0  0
 17  8  1  0  0  0  0
 23 18  1  0  0  0  0
  1 52  1  0  0  0  0
  1 53  1  0  0  0  0
  1 54  1  0  0  0  0
  6 55  1  0  0  0  0
  7 56  1  0  0  0  0
  9 57  1  0  0  0  0
 10 58  1  0  0  0  0
 16 59  1  0  0  0  0
 17 60  1  0  0  0  0
 19 61  1  0  0  0  0
 20 62  1  0  0  0  0
 22 63  1  0  0  0  0
 22 64  1  0  0  0  0
 22 65  1  0  0  0  0
 27 66  1  0  0  0  0
 30 67  1  0  0  0  0
 33 68  1  0  0  0  0
 38 69  1  0  0  0  0
 39 70  1  0  0  0  0
 40 71  1  0  0  0  0
 45 72  1  0  0  0  0
 45 73  1  0  0  0  0
 45 74  1  0  0  0  0
 46 75  1  0  0  0  0
 48 76  1  0  0  0  0
 48 77  1  0  0  0  0
 48 78  1  0  0  0  0
 49 79  1  0  0  0  0
 51 80  1  0  0  0  0
 51 81  1  0  0  0  0
 51 82  1  0  0  0  0
M  CHG  1   3   1
M  CHG  1  24  -1
M  CHG  1  34  -1
M  CHG  1  37   1
M  END
