
  xtb     03022213113D
 energy: -73.540488347459 gnorm: 0.000078744067 xtb: 6.4.1 (afa7bdf)
 44 48  0     0  0            999 V2000
   -7.9051   -2.3865    0.1112 C   0  0  0  0  0  0  0  0  0  0  0  0
   -8.2346   -1.0434    0.2073 C   0  0  0  0  0  0  0  0  0  0  0  0
   -7.2439   -0.0820    0.2328 C   0  0  0  0  0  0  0  0  0  0  0  0
   -5.9006   -0.4563    0.1619 C   0  0  0  0  0  0  0  0  0  0  0  0
   -4.8575    0.5440    0.1880 C   0  0  0  0  0  0  0  0  0  0  0  0
   -4.8824    1.9167    0.2751 C   0  0  0  0  0  0  0  0  0  0  0  0
   -3.6154    2.3874    0.2601 N   0  0  0  0  0  0  0  0  0  0  0  0
   -2.8503    1.3314    0.1668 C   0  0  0  0  0  0  0  0  0  0  0  0
   -1.4085    1.3312    0.1162 C   0  0  0  0  0  0  0  0  0  0  0  0
   -0.6905    0.1377    0.0159 C   0  0  0  0  0  0  0  0  0  0  0  0
    0.6863    0.1600   -0.0310 C   0  0  0  0  0  0  0  0  0  0  0  0
    1.3705    1.3763    0.0214 C   0  0  0  0  0  0  0  0  0  0  0  0
    2.8116    1.4231   -0.0262 C   0  0  0  0  0  0  0  0  0  0  0  0
    3.5467    2.5034    0.0159 N   0  0  0  0  0  0  0  0  0  0  0  0
    4.8264    2.0740   -0.0559 C   0  0  0  0  0  0  0  0  0  0  0  0
    4.8401    0.7011   -0.1426 C   0  0  0  0  0  0  0  0  0  0  0  0
    5.9107   -0.2650   -0.2408 C   0  0  0  0  0  0  0  0  0  0  0  0
    7.2430    0.1526   -0.2611 C   0  0  0  0  0  0  0  0  0  0  0  0
    8.2602   -0.7762   -0.3550 C   0  0  0  0  0  0  0  0  0  0  0  0
    7.9686   -2.1294   -0.4300 C   0  0  0  0  0  0  0  0  0  0  0  0
    6.6492   -2.5515   -0.4105 C   0  0  0  0  0  0  0  0  0  0  0  0
    5.6254   -1.6293   -0.3167 C   0  0  0  0  0  0  0  0  0  0  0  0
    3.5441    0.2944   -0.1228 O   0  0  0  0  0  0  0  0  0  0  0  0
    0.6511    2.5715    0.1218 C   0  0  0  0  0  0  0  0  0  0  0  0
   -0.7230    2.5492    0.1686 C   0  0  0  0  0  0  0  0  0  0  0  0
   -3.5507    0.1795    0.1191 O   0  0  0  0  0  0  0  0  0  0  0  0
   -5.5771   -1.8108    0.0653 C   0  0  0  0  0  0  0  0  0  0  0  0
   -6.5746   -2.7658    0.0404 C   0  0  0  0  0  0  0  0  0  0  0  0
   -8.6836   -3.1345    0.0916 H   0  0  0  0  0  0  0  0  0  0  0  0
   -9.2712   -0.7454    0.2626 H   0  0  0  0  0  0  0  0  0  0  0  0
   -7.5041    0.9622    0.3077 H   0  0  0  0  0  0  0  0  0  0  0  0
   -5.7161    2.5836    0.3463 H   0  0  0  0  0  0  0  0  0  0  0  0
   -1.2229   -0.8006   -0.0243 H   0  0  0  0  0  0  0  0  0  0  0  0
    1.2448   -0.7606   -0.1085 H   0  0  0  0  0  0  0  0  0  0  0  0
    5.6410    2.7676   -0.0409 H   0  0  0  0  0  0  0  0  0  0  0  0
    7.4737    1.2048   -0.2029 H   0  0  0  0  0  0  0  0  0  0  0  0
    9.2880   -0.4448   -0.3701 H   0  0  0  0  0  0  0  0  0  0  0  0
    8.7677   -2.8518   -0.5033 H   0  0  0  0  0  0  0  0  0  0  0  0
    6.4182   -3.6051   -0.4687 H   0  0  0  0  0  0  0  0  0  0  0  0
    4.5963   -1.9550   -0.3012 H   0  0  0  0  0  0  0  0  0  0  0  0
    1.2000    3.4986    0.1607 H   0  0  0  0  0  0  0  0  0  0  0  0
   -1.2976    3.4581    0.2459 H   0  0  0  0  0  0  0  0  0  0  0  0
   -4.5393   -2.1030    0.0103 H   0  0  0  0  0  0  0  0  0  0  0  0
   -6.3141   -3.8113   -0.0345 H   0  0  0  0  0  0  0  0  0  0  0  0
  1  2  2  0  0  0  0
  2  3  1  0  0  0  0
  3  4  2  0  0  0  0
  4  5  1  0  0  0  0
  5  6  2  0  0  0  0
  6  7  1  0  0  0  0
  7  8  2  0  0  0  0
  8  9  1  0  0  0  0
  9 10  2  0  0  0  0
 10 11  1  0  0  0  0
 11 12  2  0  0  0  0
 12 13  1  0  0  0  0
 13 14  2  0  0  0  0
 14 15  1  0  0  0  0
 15 16  2  0  0  0  0
 16 17  1  0  0  0  0
 17 18  2  0  0  0  0
 18 19  1  0  0  0  0
 19 20  2  0  0  0  0
 20 21  1  0  0  0  0
 21 22  2  0  0  0  0
 16 23  1  0  0  0  0
 12 24  1  0  0  0  0
 24 25  2  0  0  0  0
  8 26  1  0  0  0  0
  4 27  1  0  0  0  0
 27 28  2  0  0  0  0
 28  1  1  0  0  0  0
 26  5  1  0  0  0  0
 25  9  1  0  0  0  0
 23 13  1  0  0  0  0
 22 17  1  0  0  0  0
  1 29  1  0  0  0  0
  2 30  1  0  0  0  0
  3 31  1  0  0  0  0
  6 32  1  0  0  0  0
 10 33  1  0  0  0  0
 11 34  1  0  0  0  0
 15 35  1  0  0  0  0
 18 36  1  0  0  0  0
 19 37  1  0  0  0  0
 20 38  1  0  0  0  0
 21 39  1  0  0  0  0
 22 40  1  0  0  0  0
 24 41  1  0  0  0  0
 25 42  1  0  0  0  0
 27 43  1  0  0  0  0
 28 44  1  0  0  0  0
M  END
