
  xtb     03022213183D
 energy: -65.371583130652 gnorm: 0.000209294806 xtb: 6.4.1 (afa7bdf)
 38 40  0     0  0            999 V2000
    5.8813   -1.0256   -0.4284 C   0  0  0  0  0  0  0  0  0  0  0  0
    4.6696   -1.3046    0.2345 O   0  0  0  0  0  0  0  0  0  0  0  0
    3.6782   -0.3803    0.1920 C   0  0  0  0  0  0  0  0  0  0  0  0
    3.7599    0.8531   -0.4480 C   0  0  0  0  0  0  0  0  0  0  0  0
    2.6689    1.6943   -0.4172 C   0  0  0  0  0  0  0  0  0  0  0  0
    1.4843    1.3471    0.2252 C   0  0  0  0  0  0  0  0  0  0  0  0
    0.3630    2.2947    0.1467 C   0  0  0  0  0  0  0  0  0  0  0  0
    0.5068    3.4620   -0.1549 O   0  0  0  0  0  0  0  0  0  0  0  0
   -0.9978    1.7722    0.4550 C   0  0  0  0  0  0  0  0  0  0  0  0
   -1.6817    0.9590   -0.3574 C   0  0  0  0  0  0  0  0  0  0  0  0
   -1.1444    0.3679   -1.6199 C   0  0  0  0  0  0  0  0  0  0  0  0
   -0.0572    0.5121   -2.1297 O   0  0  0  0  0  0  0  0  0  0  0  0
   -2.1502   -0.4234   -2.1214 N   0  0  0  0  0  0  0  0  0  0  0  0
   -3.2785   -0.3943   -1.3195 C   0  0  0  0  0  0  0  0  0  0  0  0
   -4.4855   -1.0420   -1.4815 C   0  0  0  0  0  0  0  0  0  0  0  0
   -5.4607   -0.8390   -0.5127 C   0  0  0  0  0  0  0  0  0  0  0  0
   -5.2304   -0.0165    0.5793 C   0  0  0  0  0  0  0  0  0  0  0  0
   -4.0147    0.6344    0.7385 C   0  0  0  0  0  0  0  0  0  0  0  0
   -3.0341    0.4440   -0.2167 C   0  0  0  0  0  0  0  0  0  0  0  0
    1.4113    0.1064    0.8917 C   0  0  0  0  0  0  0  0  0  0  0  0
    0.2642   -0.1722    1.5619 O   0  0  0  0  0  0  0  0  0  0  0  0
    0.1299   -1.4211    2.1991 C   0  0  0  0  0  0  0  0  0  0  0  0
    2.5081   -0.7370    0.8656 C   0  0  0  0  0  0  0  0  0  0  0  0
    5.7255   -0.8776   -1.5010 H   0  0  0  0  0  0  0  0  0  0  0  0
    6.5098   -1.9009   -0.2722 H   0  0  0  0  0  0  0  0  0  0  0  0
    6.3752   -0.1451   -0.0063 H   0  0  0  0  0  0  0  0  0  0  0  0
    4.6514    1.1565   -0.9715 H   0  0  0  0  0  0  0  0  0  0  0  0
    2.7018    2.6509   -0.9157 H   0  0  0  0  0  0  0  0  0  0  0  0
   -1.4632    2.1764    1.3442 H   0  0  0  0  0  0  0  0  0  0  0  0
   -2.0722   -0.9386   -2.9834 H   0  0  0  0  0  0  0  0  0  0  0  0
   -4.6693   -1.6828   -2.3305 H   0  0  0  0  0  0  0  0  0  0  0  0
   -6.4157   -1.3321   -0.6155 H   0  0  0  0  0  0  0  0  0  0  0  0
   -6.0090    0.1206    1.3143 H   0  0  0  0  0  0  0  0  0  0  0  0
   -3.8402    1.2765    1.5880 H   0  0  0  0  0  0  0  0  0  0  0  0
    0.8594   -1.5412    3.0060 H   0  0  0  0  0  0  0  0  0  0  0  0
    0.2320   -2.2462    1.4881 H   0  0  0  0  0  0  0  0  0  0  0  0
   -0.8760   -1.4272    2.6165 H   0  0  0  0  0  0  0  0  0  0  0  0
    2.5009   -1.6963    1.3563 H   0  0  0  0  0  0  0  0  0  0  0  0
  1  2  1  0  0  0  0
  2  3  1  0  0  0  0
  3  4  2  0  0  0  0
  4  5  1  0  0  0  0
  5  6  2  0  0  0  0
  6  7  1  0  0  0  0
  7  8  2  0  0  0  0
  7  9  1  0  0  0  0
  9 10  2  0  0  0  0
 10 11  1  0  0  0  0
 11 12  2  0  0  0  0
 11 13  1  0  0  0  0
 13 14  1  0  0  0  0
 14 15  2  0  0  0  0
 15 16  1  0  0  0  0
 16 17  2  0  0  0  0
 17 18  1  0  0  0  0
 18 19  2  0  0  0  0
  6 20  1  0  0  0  0
 20 21  1  0  0  0  0
 21 22  1  0  0  0  0
 20 23  2  0  0  0  0
 23  3  1  0  0  0  0
 19 10  1  0  0  0  0
 19 14  1  0  0  0  0
  1 24  1  0  0  0  0
  1 25  1  0  0  0  0
  1 26  1  0  0  0  0
  4 27  1  0  0  0  0
  5 28  1  0  0  0  0
  9 29  1  0  0  0  0
 13 30  1  0  0  0  0
 15 31  1  0  0  0  0
 16 32  1  0  0  0  0
 17 33  1  0  0  0  0
 18 34  1  0  0  0  0
 22 35  1  0  0  0  0
 22 36  1  0  0  0  0
 22 37  1  0  0  0  0
 23 38  1  0  0  0  0
M  END
