
  xtb     03022212043D
 energy: -103.714784747260 gnorm: 0.000657111678 xtb: 6.4.1 (afa7bdf)
 75 79  0     0  0            999 V2000
   -2.8127   -5.7710   -1.4482 C   0  0  0  0  0  0  0  0  0  0  0  0
   -1.4948   -6.1919   -0.8118 C   0  0  0  0  0  0  0  0  0  0  0  0
   -1.3334   -5.6202    0.6051 C   0  0  0  0  0  0  0  0  0  0  0  0
   -1.2452   -4.1334    0.5934 C   0  0  0  0  0  0  0  0  0  0  0  0
   -2.2315   -3.2404    0.8763 C   0  0  0  0  0  0  0  0  0  0  0  0
   -1.6711   -1.9303    0.6795 C   0  0  0  0  0  0  0  0  0  0  0  0
   -0.3890   -2.0305    0.2900 N   0  0  0  0  0  0  0  0  0  0  0  0
   -0.0800   -3.3394    0.2230 C   0  0  0  0  0  0  0  0  0  0  0  0
    1.1636   -3.8730   -0.1390 C   0  0  0  0  0  0  0  0  0  0  0  0
    2.3400   -3.2602   -0.5228 C   0  0  0  0  0  0  0  0  0  0  0  0
    2.6494   -1.9035   -0.6608 C   0  0  0  0  0  0  0  0  0  0  0  0
    1.7898   -0.8795   -0.4287 N   0  0  0  0  0  0  0  0  0  0  0  0
    2.3945    0.3053   -0.6661 C   0  0  0  0  0  0  0  0  0  0  0  0
    3.7262    0.0294   -1.0734 C   0  0  0  0  0  0  0  0  0  0  0  0
    3.8967   -1.3323   -1.0729 C   0  0  0  0  0  0  0  0  0  0  0  0
    5.1456   -2.0819   -1.3899 C   0  0  0  0  0  0  0  0  0  0  0  0
    5.8644   -2.5522   -0.1162 C   0  0  0  0  0  0  0  0  0  0  0  0
    6.3606   -1.3816    0.7218 C   0  0  0  0  0  0  0  0  0  0  0  0
    1.7664    1.5533   -0.5122 C   0  0  0  0  0  0  0  0  0  0  0  0
    0.4939    1.6886   -0.0984 N   0  0  0  0  0  0  0  0  0  0  0  0
    0.2167    3.0098   -0.0585 C   0  0  0  0  0  0  0  0  0  0  0  0
   -1.0373    3.5379    0.3272 C   0  0  0  0  0  0  0  0  0  0  0  0
   -1.0985    4.9026    0.3133 O   0  0  0  0  0  0  0  0  0  0  0  0
   -2.1989    2.8775    0.7105 C   0  0  0  0  0  0  0  0  0  0  0  0
   -2.5123    1.5239    0.8382 C   0  0  0  0  0  0  0  0  0  0  0  0
   -1.6684    0.4917    0.6129 N   0  0  0  0  0  0  0  0  0  0  0  0
   -2.2973   -0.6886    0.8391 C   0  0  0  0  0  0  0  0  0  0  0  0
   -3.6277   -0.3922    1.2336 C   0  0  0  0  0  0  0  0  0  0  0  0
   -3.7746    0.9714    1.2387 C   0  0  0  0  0  0  0  0  0  0  0  0
   -5.0155    1.7380    1.5484 C   0  0  0  0  0  0  0  0  0  0  0  0
   -5.7225    2.2169    0.2712 C   0  0  0  0  0  0  0  0  0  0  0  0
   -6.2489    1.0527   -0.5569 C   0  0  0  0  0  0  0  0  0  0  0  0
    1.3842    3.7679   -0.4768 C   0  0  0  0  0  0  0  0  0  0  0  0
    1.5565    5.2445   -0.5628 C   0  0  0  0  0  0  0  0  0  0  0  0
    1.8488    5.8505    0.8151 C   0  0  0  0  0  0  0  0  0  0  0  0
    2.0435    7.3582    0.7317 C   0  0  0  0  0  0  0  0  0  0  0  0
    2.3432    2.8403   -0.7556 C   0  0  0  0  0  0  0  0  0  0  0  0
   -3.6533   -6.1264   -0.8557 H   0  0  0  0  0  0  0  0  0  0  0  0
   -2.8724   -4.6870   -1.5132 H   0  0  0  0  0  0  0  0  0  0  0  0
   -2.9008   -6.1822   -2.4513 H   0  0  0  0  0  0  0  0  0  0  0  0
   -0.6676   -5.8491   -1.4371 H   0  0  0  0  0  0  0  0  0  0  0  0
   -1.4484   -7.2823   -0.7589 H   0  0  0  0  0  0  0  0  0  0  0  0
   -0.4345   -6.0428    1.0621 H   0  0  0  0  0  0  0  0  0  0  0  0
   -2.1922   -5.9225    1.2090 H   0  0  0  0  0  0  0  0  0  0  0  0
   -3.2367   -3.4476    1.1887 H   0  0  0  0  0  0  0  0  0  0  0  0
    1.2018   -4.9552   -0.1127 H   0  0  0  0  0  0  0  0  0  0  0  0
    3.1574   -3.9298   -0.7594 H   0  0  0  0  0  0  0  0  0  0  0  0
    0.8073   -1.0886   -0.1144 H   0  0  0  0  0  0  0  0  0  0  0  0
    4.4604    0.7664   -1.3342 H   0  0  0  0  0  0  0  0  0  0  0  0
    5.8172   -1.4355   -1.9586 H   0  0  0  0  0  0  0  0  0  0  0  0
    4.9081   -2.9515   -2.0078 H   0  0  0  0  0  0  0  0  0  0  0  0
    5.1806   -3.1590    0.4806 H   0  0  0  0  0  0  0  0  0  0  0  0
    6.7115   -3.1802   -0.4017 H   0  0  0  0  0  0  0  0  0  0  0  0
    7.0629   -0.7757    0.1531 H   0  0  0  0  0  0  0  0  0  0  0  0
    6.8633   -1.7404    1.6170 H   0  0  0  0  0  0  0  0  0  0  0  0
    5.5279   -0.7506    1.0233 H   0  0  0  0  0  0  0  0  0  0  0  0
   -1.9777    5.1995    0.5794 H   0  0  0  0  0  0  0  0  0  0  0  0
   -3.0257    3.5369    0.9596 H   0  0  0  0  0  0  0  0  0  0  0  0
   -0.6845    0.6971    0.3065 H   0  0  0  0  0  0  0  0  0  0  0  0
   -4.3765   -1.1181    1.4845 H   0  0  0  0  0  0  0  0  0  0  0  0
   -4.7724    2.6026    2.1715 H   0  0  0  0  0  0  0  0  0  0  0  0
   -5.6983    1.0995    2.1123 H   0  0  0  0  0  0  0  0  0  0  0  0
   -5.0242    2.7999   -0.3328 H   0  0  0  0  0  0  0  0  0  0  0  0
   -6.5533    2.8688    0.5510 H   0  0  0  0  0  0  0  0  0  0  0  0
   -6.7403    1.4161   -1.4565 H   0  0  0  0  0  0  0  0  0  0  0  0
   -5.4327    0.3970   -0.8504 H   0  0  0  0  0  0  0  0  0  0  0  0
   -6.9679    0.4716    0.0164 H   0  0  0  0  0  0  0  0  0  0  0  0
    0.6587    5.7081   -0.9722 H   0  0  0  0  0  0  0  0  0  0  0  0
    2.3947    5.4602   -1.2306 H   0  0  0  0  0  0  0  0  0  0  0  0
    1.0186    5.6253    1.4854 H   0  0  0  0  0  0  0  0  0  0  0  0
    2.7478    5.3845    1.2255 H   0  0  0  0  0  0  0  0  0  0  0  0
    2.8767    7.6014    0.0755 H   0  0  0  0  0  0  0  0  0  0  0  0
    1.1481    7.8342    0.3381 H   0  0  0  0  0  0  0  0  0  0  0  0
    2.2497    7.7734    1.7159 H   0  0  0  0  0  0  0  0  0  0  0  0
    3.3425    3.0236   -1.0996 H   0  0  0  0  0  0  0  0  0  0  0  0
  1  2  1  0  0  0  0
  2  3  1  0  0  0  0
  3  4  1  0  0  0  0
  4  5  2  0  0  0  0
  5  6  1  0  0  0  0
  6  7  2  0  0  0  0
  7  8  1  0  0  0  0
  8  9  2  0  0  0  0
  9 10  1  0  0  0  0
 10 11  2  0  0  0  0
 11 12  1  0  0  0  0
 12 13  1  0  0  0  0
 13 14  1  0  0  0  0
 14 15  2  0  0  0  0
 15 16  1  0  0  0  0
 16 17  1  0  0  0  0
 17 18  1  0  0  0  0
 13 19  2  0  0  0  0
 19 20  1  0  0  0  0
 20 21  2  0  0  0  0
 21 22  1  0  0  0  0
 22 23  1  0  0  0  0
 22 24  2  0  0  0  0
 24 25  1  0  0  0  0
 25 26  1  0  0  0  0
 26 27  1  0  0  0  0
 27 28  2  0  0  0  0
 28 29  1  0  0  0  0
 29 30  1  0  0  0  0
 30 31  1  0  0  0  0
 31 32  1  0  0  0  0
 21 33  1  0  0  0  0
 33 34  1  0  0  0  0
 34 35  1  0  0  0  0
 35 36  1  0  0  0  0
 33 37  2  0  0  0  0
  8  4  1  0  0  0  0
 15 11  1  0  0  0  0
 37 19  1  0  0  0  0
 27  6  1  0  0  0  0
 29 25  2  0  0  0  0
  1 38  1  0  0  0  0
  1 39  1  0  0  0  0
  1 40  1  0  0  0  0
  2 41  1  0  0  0  0
  2 42  1  0  0  0  0
  3 43  1  0  0  0  0
  3 44  1  0  0  0  0
  5 45  1  0  0  0  0
  9 46  1  0  0  0  0
 10 47  1  0  0  0  0
 12 48  1  0  0  0  0
 14 49  1  0  0  0  0
 16 50  1  0  0  0  0
 16 51  1  0  0  0  0
 17 52  1  0  0  0  0
 17 53  1  0  0  0  0
 18 54  1  0  0  0  0
 18 55  1  0  0  0  0
 18 56  1  0  0  0  0
 23 57  1  0  0  0  0
 24 58  1  0  0  0  0
 26 59  1  0  0  0  0
 28 60  1  0  0  0  0
 30 61  1  0  0  0  0
 30 62  1  0  0  0  0
 31 63  1  0  0  0  0
 31 64  1  0  0  0  0
 32 65  1  0  0  0  0
 32 66  1  0  0  0  0
 32 67  1  0  0  0  0
 34 68  1  0  0  0  0
 34 69  1  0  0  0  0
 35 70  1  0  0  0  0
 35 71  1  0  0  0  0
 36 72  1  0  0  0  0
 36 73  1  0  0  0  0
 36 74  1  0  0  0  0
 37 75  1  0  0  0  0
M  END
