
  xtb     03022214053D
 energy: -62.251353895025 gnorm: 0.000178658097 xtb: 6.4.1 (afa7bdf)
 34 36  0     0  0            999 V2000
   -1.4235   -1.1546    1.8867 N   0  0  0  0  0  0  0  0  0  0  0  0
   -1.1944   -0.5373    0.9483 C   0  0  0  0  0  0  0  0  0  0  0  0
   -0.8427    0.2155   -0.1992 C   0  0  0  0  0  0  0  0  0  0  0  0
   -1.7093    0.8486   -1.0297 C   0  0  0  0  0  0  0  0  0  0  0  0
   -3.1464    0.9292   -0.9857 C   0  0  0  0  0  0  0  0  0  0  0  0
   -3.7841    1.6767   -1.9891 C   0  0  0  0  0  0  0  0  0  0  0  0
   -5.1534    1.8057   -2.0226 C   0  0  0  0  0  0  0  0  0  0  0  0
   -5.9305    1.1829   -1.0428 C   0  0  0  0  0  0  0  0  0  0  0  0
   -7.3375    1.3111   -1.0713 C   0  0  0  0  0  0  0  0  0  0  0  0
   -8.4786    1.4172   -1.0995 N   0  0  0  0  0  0  0  0  0  0  0  0
   -5.3128    0.4349   -0.0378 C   0  0  0  0  0  0  0  0  0  0  0  0
   -3.9411    0.3108   -0.0108 C   0  0  0  0  0  0  0  0  0  0  0  0
    0.5841    0.2510   -0.4147 C   0  0  0  0  0  0  0  0  0  0  0  0
    1.4422   -0.3336    0.3442 N   0  0  0  0  0  0  0  0  0  0  0  0
    2.7248   -0.1618   -0.0573 C   0  0  0  0  0  0  0  0  0  0  0  0
    3.7999   -0.7715    0.7130 C   0  0  0  0  0  0  0  0  0  0  0  0
    5.1387   -0.6534    0.3413 C   0  0  0  0  0  0  0  0  0  0  0  0
    6.1320   -1.2452    1.0961 C   0  0  0  0  0  0  0  0  0  0  0  0
    5.7919   -1.9627    2.2333 C   0  0  0  0  0  0  0  0  0  0  0  0
    7.0352   -2.7021    3.1764 Cl  0  0  0  0  0  0  0  0  0  0  0  0
    4.4660   -2.0921    2.6193 C   0  0  0  0  0  0  0  0  0  0  0  0
    3.4781   -1.4984    1.8604 C   0  0  0  0  0  0  0  0  0  0  0  0
    2.8466    0.6028   -1.1935 C   0  0  0  0  0  0  0  0  0  0  0  0
    1.3223    1.1164   -1.7705 S   0  0  0  0  0  0  0  0  0  0  0  0
   -1.2568    1.3807   -1.8599 H   0  0  0  0  0  0  0  0  0  0  0  0
   -3.1863    2.1597   -2.7486 H   0  0  0  0  0  0  0  0  0  0  0  0
   -5.6338    2.3831   -2.7985 H   0  0  0  0  0  0  0  0  0  0  0  0
   -5.9176   -0.0449    0.7170 H   0  0  0  0  0  0  0  0  0  0  0  0
   -3.4805   -0.2699    0.7707 H   0  0  0  0  0  0  0  0  0  0  0  0
    5.4130   -0.0983   -0.5421 H   0  0  0  0  0  0  0  0  0  0  0  0
    7.1672   -1.1531    0.8069 H   0  0  0  0  0  0  0  0  0  0  0  0
    4.2136   -2.6527    3.5054 H   0  0  0  0  0  0  0  0  0  0  0  0
    2.4413   -1.5881    2.1441 H   0  0  0  0  0  0  0  0  0  0  0  0
    3.7326    0.8930   -1.7196 H   0  0  0  0  0  0  0  0  0  0  0  0
  1  2  3  0  0  0  0
  2  3  1  0  0  0  0
  3  4  2  0  0  0  0
  4  5  1  0  0  0  0
  5  6  2  0  0  0  0
  6  7  1  0  0  0  0
  7  8  2  0  0  0  0
  8  9  1  0  0  0  0
  9 10  3  0  0  0  0
  8 11  1  0  0  0  0
 11 12  2  0  0  0  0
  3 13  1  0  0  0  0
 13 14  2  0  0  0  0
 14 15  1  0  0  0  0
 15 16  1  0  0  0  0
 16 17  2  0  0  0  0
 17 18  1  0  0  0  0
 18 19  2  0  0  0  0
 19 20  1  0  0  0  0
 19 21  1  0  0  0  0
 21 22  2  0  0  0  0
 15 23  2  0  0  0  0
 23 24  1  0  0  0  0
 12  5  1  0  0  0  0
 24 13  1  0  0  0  0
 22 16  1  0  0  0  0
  4 25  1  0  0  0  0
  6 26  1  0  0  0  0
  7 27  1  0  0  0  0
 11 28  1  0  0  0  0
 12 29  1  0  0  0  0
 17 30  1  0  0  0  0
 18 31  1  0  0  0  0
 21 32  1  0  0  0  0
 22 33  1  0  0  0  0
 23 34  1  0  0  0  0
M  END
