
  xtb     03022215143D
 energy: -95.268118231625 gnorm: 0.000149982125 xtb: 6.4.1 (afa7bdf)
 66 71  0     0  0            999 V2000
   -7.5642   -0.8941    1.9329 C   0  0  0  0  0  0  0  0  0  0  0  0
   -7.2148   -0.7188    0.4496 C   0  0  0  0  0  0  0  0  0  0  0  0
   -8.0955   -1.6485   -0.3827 C   0  0  0  0  0  0  0  0  0  0  0  0
   -5.8480   -1.1006    0.2990 O   0  0  0  0  0  0  0  0  0  0  0  0
   -5.0859    0.0250    0.1710 B   0  0  0  0  0  0  0  0  0  0  0  0
   -3.5220    0.0180    0.1352 C   0  0  0  0  0  0  0  0  0  0  0  0
   -2.8125   -1.1675    0.3177 C   0  0  0  0  0  0  0  0  0  0  0  0
   -1.4196   -1.2001    0.2912 C   0  0  0  0  0  0  0  0  0  0  0  0
   -0.6782   -2.4058    0.4793 C   0  0  0  0  0  0  0  0  0  0  0  0
    0.6742   -2.4121    0.4496 C   0  0  0  0  0  0  0  0  0  0  0  0
    1.4179   -1.2137    0.2276 C   0  0  0  0  0  0  0  0  0  0  0  0
    2.8108   -1.1945    0.1912 C   0  0  0  0  0  0  0  0  0  0  0  0
    3.5226   -0.0166   -0.0281 C   0  0  0  0  0  0  0  0  0  0  0  0
    5.0864   -0.0242   -0.0649 B   0  0  0  0  0  0  0  0  0  0  0  0
    5.8462    1.0819   -0.3171 O   0  0  0  0  0  0  0  0  0  0  0  0
    7.2207    0.7523   -0.1202 C   0  0  0  0  0  0  0  0  0  0  0  0
    8.0584    1.3859   -1.2289 C   0  0  0  0  0  0  0  0  0  0  0  0
    7.6340    1.3574    1.2274 C   0  0  0  0  0  0  0  0  0  0  0  0
    7.2134   -0.8208   -0.1110 C   0  0  0  0  0  0  0  0  0  0  0  0
    8.0971   -1.4625    0.9566 C   0  0  0  0  0  0  0  0  0  0  0  0
    7.5564   -1.4294   -1.4767 C   0  0  0  0  0  0  0  0  0  0  0  0
    5.8468   -1.1374    0.1511 O   0  0  0  0  0  0  0  0  0  0  0  0
    2.8130    1.1683   -0.2141 C   0  0  0  0  0  0  0  0  0  0  0  0
    1.4202    1.2012   -0.1857 C   0  0  0  0  0  0  0  0  0  0  0  0
    0.6787    2.4070   -0.3731 C   0  0  0  0  0  0  0  0  0  0  0  0
   -0.6736    2.4139   -0.3401 C   0  0  0  0  0  0  0  0  0  0  0  0
   -1.4173    1.2155   -0.1177 C   0  0  0  0  0  0  0  0  0  0  0  0
   -2.8102    1.1966   -0.0800 C   0  0  0  0  0  0  0  0  0  0  0  0
   -0.7067    0.0042    0.0703 C   0  0  0  0  0  0  0  0  0  0  0  0
    0.7073   -0.0027    0.0375 C   0  0  0  0  0  0  0  0  0  0  0  0
   -5.8438    1.1567    0.0778 O   0  0  0  0  0  0  0  0  0  0  0  0
   -7.2191    0.7860   -0.0101 C   0  0  0  0  0  0  0  0  0  0  0  0
   -7.6345    0.9644   -1.4760 C   0  0  0  0  0  0  0  0  0  0  0  0
   -8.0535    1.7226    0.8613 C   0  0  0  0  0  0  0  0  0  0  0  0
   -8.6055   -0.6519    2.1225 H   0  0  0  0  0  0  0  0  0  0  0  0
   -7.3861   -1.9309    2.2089 H   0  0  0  0  0  0  0  0  0  0  0  0
   -6.9222   -0.2687    2.5483 H   0  0  0  0  0  0  0  0  0  0  0  0
   -8.0273   -2.6545    0.0238 H   0  0  0  0  0  0  0  0  0  0  0  0
   -9.1312   -1.3222   -0.3412 H   0  0  0  0  0  0  0  0  0  0  0  0
   -7.7662   -1.6812   -1.4162 H   0  0  0  0  0  0  0  0  0  0  0  0
   -3.3639   -2.0815    0.4835 H   0  0  0  0  0  0  0  0  0  0  0  0
   -1.2325   -3.3185    0.6475 H   0  0  0  0  0  0  0  0  0  0  0  0
    1.2267   -3.3300    0.5938 H   0  0  0  0  0  0  0  0  0  0  0  0
    3.3605   -2.1131    0.3361 H   0  0  0  0  0  0  0  0  0  0  0  0
    7.6828    1.1137   -2.2099 H   0  0  0  0  0  0  0  0  0  0  0  0
    8.0037    2.4678   -1.1363 H   0  0  0  0  0  0  0  0  0  0  0  0
    9.0964    1.0775   -1.1386 H   0  0  0  0  0  0  0  0  0  0  0  0
    7.0247    0.9461    2.0283 H   0  0  0  0  0  0  0  0  0  0  0  0
    8.6846    1.1762    1.4336 H   0  0  0  0  0  0  0  0  0  0  0  0
    7.4604    2.4305    1.1915 H   0  0  0  0  0  0  0  0  0  0  0  0
    9.1324   -1.1637    0.8169 H   0  0  0  0  0  0  0  0  0  0  0  0
    7.7712   -1.1870    1.9544 H   0  0  0  0  0  0  0  0  0  0  0  0
    8.0280   -2.5438    0.8669 H   0  0  0  0  0  0  0  0  0  0  0  0
    7.3749   -2.5009   -1.4323 H   0  0  0  0  0  0  0  0  0  0  0  0
    8.5976   -1.2579   -1.7328 H   0  0  0  0  0  0  0  0  0  0  0  0
    6.9134   -1.0124   -2.2477 H   0  0  0  0  0  0  0  0  0  0  0  0
    3.3644    2.0814   -0.3847 H   0  0  0  0  0  0  0  0  0  0  0  0
    1.2330    3.3195   -0.5428 H   0  0  0  0  0  0  0  0  0  0  0  0
   -1.2260    3.3321   -0.4826 H   0  0  0  0  0  0  0  0  0  0  0  0
   -3.3597    2.1159   -0.2204 H   0  0  0  0  0  0  0  0  0  0  0  0
   -7.0262    0.3341   -2.1199 H   0  0  0  0  0  0  0  0  0  0  0  0
   -7.4610    1.9999   -1.7600 H   0  0  0  0  0  0  0  0  0  0  0  0
   -8.6853    0.7305   -1.6178 H   0  0  0  0  0  0  0  0  0  0  0  0
   -7.6771    1.7526    1.8787 H   0  0  0  0  0  0  0  0  0  0  0  0
   -7.9960    2.7281    0.4519 H   0  0  0  0  0  0  0  0  0  0  0  0
   -9.0925    1.4045    0.8673 H   0  0  0  0  0  0  0  0  0  0  0  0
  1  2  1  0  0  0  0
  2  3  1  0  0  0  0
  2  4  1  0  0  0  0
  4  5  1  0  0  0  0
  5  6  1  0  0  0  0
  6  7  2  0  0  0  0
  7  8  1  0  0  0  0
  8  9  2  0  0  0  0
  9 10  1  0  0  0  0
 10 11  2  0  0  0  0
 11 12  1  0  0  0  0
 12 13  2  0  0  0  0
 13 14  1  0  0  0  0
 14 15  1  0  0  0  0
 15 16  1  0  0  0  0
 16 17  1  0  0  0  0
 16 18  1  0  0  0  0
 16 19  1  0  0  0  0
 19 20  1  0  0  0  0
 19 21  1  0  0  0  0
 19 22  1  0  0  0  0
 13 23  1  0  0  0  0
 23 24  2  0  0  0  0
 24 25  1  0  0  0  0
 25 26  2  0  0  0  0
 26 27  1  0  0  0  0
 27 28  2  0  0  0  0
 27 29  1  0  0  0  0
 29 30  2  0  0  0  0
  5 31  1  0  0  0  0
 31 32  1  0  0  0  0
 32 33  1  0  0  0  0
 32 34  1  0  0  0  0
 32  2  1  0  0  0  0
 28  6  1  0  0  0  0
 29  8  1  0  0  0  0
 30 11  1  0  0  0  0
 22 14  1  0  0  0  0
 30 24  1  0  0  0  0
  1 35  1  0  0  0  0
  1 36  1  0  0  0  0
  1 37  1  0  0  0  0
  3 38  1  0  0  0  0
  3 39  1  0  0  0  0
  3 40  1  0  0  0  0
  7 41  1  0  0  0  0
  9 42  1  0  0  0  0
 10 43  1  0  0  0  0
 12 44  1  0  0  0  0
 17 45  1  0  0  0  0
 17 46  1  0  0  0  0
 17 47  1  0  0  0  0
 18 48  1  0  0  0  0
 18 49  1  0  0  0  0
 18 50  1  0  0  0  0
 20 51  1  0  0  0  0
 20 52  1  0  0  0  0
 20 53  1  0  0  0  0
 21 54  1  0  0  0  0
 21 55  1  0  0  0  0
 21 56  1  0  0  0  0
 23 57  1  0  0  0  0
 25 58  1  0  0  0  0
 26 59  1  0  0  0  0
 28 60  1  0  0  0  0
 33 61  1  0  0  0  0
 33 62  1  0  0  0  0
 33 63  1  0  0  0  0
 34 64  1  0  0  0  0
 34 65  1  0  0  0  0
 34 66  1  0  0  0  0
M  END
