
  xtb     03022213483D
 energy: -74.348248448370 gnorm: 0.000139984101 xtb: 6.4.1 (afa7bdf)
 47 50  0     0  0            999 V2000
    3.0830   -0.7219    2.2812 C   0  0  0  0  0  0  0  0  0  0  0  0
    2.0877   -0.4463    1.3267 O   0  0  0  0  0  0  0  0  0  0  0  0
    2.4595   -0.2404    0.0334 C   0  0  0  0  0  0  0  0  0  0  0  0
    3.7652   -0.2758   -0.4396 C   0  0  0  0  0  0  0  0  0  0  0  0
    4.0240   -0.0504   -1.7823 C   0  0  0  0  0  0  0  0  0  0  0  0
    2.9933    0.2110   -2.6644 C   0  0  0  0  0  0  0  0  0  0  0  0
    1.6887    0.2486   -2.1985 C   0  0  0  0  0  0  0  0  0  0  0  0
    1.4114    0.0260   -0.8608 C   0  0  0  0  0  0  0  0  0  0  0  0
    0.0228    0.0643   -0.3558 C   0  0  0  0  0  0  0  0  0  0  0  0
   -0.5225    1.2713    0.0776 C   0  0  0  0  0  0  0  0  0  0  0  0
    0.0386    2.5775    0.1585 C   0  0  0  0  0  0  0  0  0  0  0  0
    1.4141    3.0078   -0.2060 C   0  0  0  0  0  0  0  0  0  0  0  0
   -0.9560    3.3921    0.6638 C   0  0  0  0  0  0  0  0  0  0  0  0
   -2.0933    2.6041    0.8850 C   0  0  0  0  0  0  0  0  0  0  0  0
   -3.4104    3.0211    1.4139 C   0  0  0  0  0  0  0  0  0  0  0  0
   -1.8256    1.3426    0.5347 N   0  0  0  0  0  4  0  0  0  0  0  0
   -2.7962    0.1507    0.6208 B   0  0  0  0  0  4  0  0  0  0  0  0
   -3.2166   -0.0296    1.9295 F   0  0  0  0  0  0  0  0  0  0  0  0
   -3.9045    0.3819   -0.1822 F   0  0  0  0  0  0  0  0  0  0  0  0
   -2.0410   -1.0973    0.1287 N   0  0  0  0  0  0  0  0  0  0  0  0
   -2.5310   -2.3386    0.0587 C   0  0  0  0  0  0  0  0  0  0  0  0
   -3.9120   -2.6738    0.4696 C   0  0  0  0  0  0  0  0  0  0  0  0
   -1.5423   -3.1935   -0.4461 C   0  0  0  0  0  0  0  0  0  0  0  0
   -0.4101   -2.4416   -0.6928 C   0  0  0  0  0  0  0  0  0  0  0  0
    0.8775   -2.9578   -1.2273 C   0  0  0  0  0  0  0  0  0  0  0  0
   -0.7342   -1.1053   -0.3231 C   0  0  0  0  0  0  0  0  0  0  0  0
    2.5551   -0.8487    3.2247 H   0  0  0  0  0  0  0  0  0  0  0  0
    3.6257   -1.6430    2.0442 H   0  0  0  0  0  0  0  0  0  0  0  0
    3.7943    0.1054    2.3734 H   0  0  0  0  0  0  0  0  0  0  0  0
    4.5878   -0.4779    0.2281 H   0  0  0  0  0  0  0  0  0  0  0  0
    5.0441   -0.0817   -2.1343 H   0  0  0  0  0  0  0  0  0  0  0  0
    3.2000    0.3851   -3.7091 H   0  0  0  0  0  0  0  0  0  0  0  0
    0.8706    0.4516   -2.8739 H   0  0  0  0  0  0  0  0  0  0  0  0
    1.5272    4.0724   -0.0144 H   0  0  0  0  0  0  0  0  0  0  0  0
    2.1557    2.4660    0.3789 H   0  0  0  0  0  0  0  0  0  0  0  0
    1.6201    2.8151   -1.2578 H   0  0  0  0  0  0  0  0  0  0  0  0
   -0.8843    4.4448    0.8585 H   0  0  0  0  0  0  0  0  0  0  0  0
   -4.1899    2.7784    0.6931 H   0  0  0  0  0  0  0  0  0  0  0  0
   -3.6347    2.4648    2.3230 H   0  0  0  0  0  0  0  0  0  0  0  0
   -3.4203    4.0871    1.6227 H   0  0  0  0  0  0  0  0  0  0  0  0
   -4.1126   -3.7303    0.3155 H   0  0  0  0  0  0  0  0  0  0  0  0
   -4.0552   -2.4203    1.5192 H   0  0  0  0  0  0  0  0  0  0  0  0
   -4.6212   -2.0756   -0.1008 H   0  0  0  0  0  0  0  0  0  0  0  0
   -1.6588   -4.2477   -0.6081 H   0  0  0  0  0  0  0  0  0  0  0  0
    1.1567   -2.4429   -2.1453 H   0  0  0  0  0  0  0  0  0  0  0  0
    0.7881   -4.0221   -1.4326 H   0  0  0  0  0  0  0  0  0  0  0  0
    1.6811   -2.8074   -0.5080 H   0  0  0  0  0  0  0  0  0  0  0  0
  1  2  1  0  0  0  0
  2  3  1  0  0  0  0
  3  4  2  0  0  0  0
  4  5  1  0  0  0  0
  5  6  2  0  0  0  0
  6  7  1  0  0  0  0
  7  8  2  0  0  0  0
  8  9  1  0  0  0  0
  9 10  2  0  0  0  0
 10 11  1  0  0  0  0
 11 12  1  0  0  0  0
 11 13  2  0  0  0  0
 13 14  1  0  0  0  0
 14 15  1  0  0  0  0
 14 16  2  0  0  0  0
 16 17  1  0  0  0  0
 17 18  1  0  0  0  0
 17 19  1  0  0  0  0
 17 20  1  0  0  0  0
 20 21  1  0  0  0  0
 21 22  1  0  0  0  0
 21 23  2  0  0  0  0
 23 24  1  0  0  0  0
 24 25  1  0  0  0  0
 24 26  2  0  0  0  0
  8  3  1  0  0  0  0
 26  9  1  0  0  0  0
 16 10  1  0  0  0  0
 26 20  1  0  0  0  0
  1 27  1  0  0  0  0
  1 28  1  0  0  0  0
  1 29  1  0  0  0  0
  4 30  1  0  0  0  0
  5 31  1  0  0  0  0
  6 32  1  0  0  0  0
  7 33  1  0  0  0  0
 12 34  1  0  0  0  0
 12 35  1  0  0  0  0
 12 36  1  0  0  0  0
 13 37  1  0  0  0  0
 15 38  1  0  0  0  0
 15 39  1  0  0  0  0
 15 40  1  0  0  0  0
 22 41  1  0  0  0  0
 22 42  1  0  0  0  0
 22 43  1  0  0  0  0
 23 44  1  0  0  0  0
 25 45  1  0  0  0  0
 25 46  1  0  0  0  0
 25 47  1  0  0  0  0
M  CHG  1  16   1
M  CHG  1  17  -1
M  END
