
  xtb     03022215093D
 energy: -100.094595549820 gnorm: 0.000079820073 xtb: 6.4.1 (afa7bdf)
 62 70  0     0  0            999 V2000
   -8.3874   -2.8765   -0.3641 C   0  0  0  0  0  0  0  0  0  0  0  0
   -7.1572   -3.5303   -0.3678 C   0  0  0  0  0  0  0  0  0  0  0  0
   -6.0014   -2.7927   -0.3004 C   0  0  0  0  0  0  0  0  0  0  0  0
   -6.0548   -1.3972   -0.2284 C   0  0  0  0  0  0  0  0  0  0  0  0
   -7.2954   -0.7148   -0.2235 C   0  0  0  0  0  0  0  0  0  0  0  0
   -8.4531   -1.5045   -0.2937 C   0  0  0  0  0  0  0  0  0  0  0  0
   -7.3453    0.7363   -0.1486 C   0  0  0  0  0  0  0  0  0  0  0  0
   -8.5522    1.4497   -0.1411 C   0  0  0  0  0  0  0  0  0  0  0  0
   -8.5838    2.8231   -0.0699 C   0  0  0  0  0  0  0  0  0  0  0  0
   -7.4020    3.5562   -0.0020 C   0  0  0  0  0  0  0  0  0  0  0  0
   -6.1985    2.8964   -0.0067 C   0  0  0  0  0  0  0  0  0  0  0  0
   -6.1495    1.4978   -0.0789 C   0  0  0  0  0  0  0  0  0  0  0  0
   -4.9294    0.7768   -0.0864 C   0  0  0  0  0  0  0  0  0  0  0  0
   -3.6307    1.1947   -0.0322 N   0  0  0  0  0  0  0  0  0  0  0  0
   -2.8441    0.0708   -0.0716 C   0  0  0  0  0  0  0  0  0  0  0  0
   -1.4001    0.0891   -0.0347 C   0  0  0  0  0  0  0  0  0  0  0  0
   -0.7053   -1.1250   -0.0811 C   0  0  0  0  0  0  0  0  0  0  0  0
    0.6684   -1.1490   -0.0482 C   0  0  0  0  0  0  0  0  0  0  0  0
    1.4022    0.0401    0.0324 C   0  0  0  0  0  0  0  0  0  0  0  0
    2.8448   -0.0286    0.0647 C   0  0  0  0  0  0  0  0  0  0  0  0
    3.5369   -1.1463    0.0233 N   0  0  0  0  0  0  0  0  0  0  0  0
    4.8439   -0.7838    0.0748 C   0  0  0  0  0  0  0  0  0  0  0  0
    6.0059   -1.6082    0.0604 C   0  0  0  0  0  0  0  0  0  0  0  0
    5.9073   -3.0010   -0.0151 C   0  0  0  0  0  0  0  0  0  0  0  0
    7.0385   -3.7787   -0.0278 C   0  0  0  0  0  0  0  0  0  0  0  0
    8.2892   -3.1683    0.0354 C   0  0  0  0  0  0  0  0  0  0  0  0
    8.3995   -1.7993    0.1099 C   0  0  0  0  0  0  0  0  0  0  0  0
    7.2681   -0.9695    0.1253 C   0  0  0  0  0  0  0  0  0  0  0  0
    7.3650    0.4790    0.2037 C   0  0  0  0  0  0  0  0  0  0  0  0
    8.5944    1.1497    0.2695 C   0  0  0  0  0  0  0  0  0  0  0  0
    8.6706    2.5213    0.3434 C   0  0  0  0  0  0  0  0  0  0  0  0
    7.5132    3.2953    0.3552 C   0  0  0  0  0  0  0  0  0  0  0  0
    6.2890    2.6780    0.2924 C   0  0  0  0  0  0  0  0  0  0  0  0
    6.1946    1.2819    0.2168 C   0  0  0  0  0  0  0  0  0  0  0  0
    4.9518    0.6040    0.1503 C   0  0  0  0  0  0  0  0  0  0  0  0
    3.6674    1.0671    0.1426 N   0  0  0  0  0  0  0  0  0  0  0  0
    0.7094    1.2514    0.0787 C   0  0  0  0  0  0  0  0  0  0  0  0
   -0.6685    1.2755    0.0457 C   0  0  0  0  0  0  0  0  0  0  0  0
   -3.5721   -1.0220   -0.1470 N   0  0  0  0  0  0  0  0  0  0  0  0
   -4.8666   -0.6140   -0.1578 C   0  0  0  0  0  0  0  0  0  0  0  0
   -9.3002   -3.4522   -0.4170 H   0  0  0  0  0  0  0  0  0  0  0  0
   -7.1187   -4.6082   -0.4234 H   0  0  0  0  0  0  0  0  0  0  0  0
   -5.0290   -3.2601   -0.3007 H   0  0  0  0  0  0  0  0  0  0  0  0
   -9.4271   -1.0411   -0.2936 H   0  0  0  0  0  0  0  0  0  0  0  0
   -9.4909    0.9218   -0.1922 H   0  0  0  0  0  0  0  0  0  0  0  0
   -9.5332    3.3382   -0.0664 H   0  0  0  0  0  0  0  0  0  0  0  0
   -7.4347    4.6343    0.0538 H   0  0  0  0  0  0  0  0  0  0  0  0
   -5.2752    3.4567    0.0457 H   0  0  0  0  0  0  0  0  0  0  0  0
   -3.3150    2.1473    0.0257 H   0  0  0  0  0  0  0  0  0  0  0  0
   -1.2806   -2.0347   -0.1432 H   0  0  0  0  0  0  0  0  0  0  0  0
    1.2139   -2.0782   -0.0834 H   0  0  0  0  0  0  0  0  0  0  0  0
    4.9203   -3.4341   -0.0624 H   0  0  0  0  0  0  0  0  0  0  0  0
    6.9650   -4.8545   -0.0860 H   0  0  0  0  0  0  0  0  0  0  0  0
    9.1828   -3.7756    0.0257 H   0  0  0  0  0  0  0  0  0  0  0  0
    9.3879   -1.3703    0.1570 H   0  0  0  0  0  0  0  0  0  0  0  0
    9.5154    0.5893    0.2630 H   0  0  0  0  0  0  0  0  0  0  0  0
    9.6361    3.0028    0.3926 H   0  0  0  0  0  0  0  0  0  0  0  0
    7.5809    4.3716    0.4133 H   0  0  0  0  0  0  0  0  0  0  0  0
    5.3844    3.2703    0.3009 H   0  0  0  0  0  0  0  0  0  0  0  0
    3.3828    2.0302    0.1861 H   0  0  0  0  0  0  0  0  0  0  0  0
    1.2416    2.1902    0.1412 H   0  0  0  0  0  0  0  0  0  0  0  0
   -1.1699    2.2324    0.0835 H   0  0  0  0  0  0  0  0  0  0  0  0
  1  2  2  0  0  0  0
  2  3  1  0  0  0  0
  3  4  2  0  0  0  0
  4  5  1  0  0  0  0
  5  6  2  0  0  0  0
  5  7  1  0  0  0  0
  7  8  2  0  0  0  0
  8  9  1  0  0  0  0
  9 10  2  0  0  0  0
 10 11  1  0  0  0  0
 11 12  2  0  0  0  0
 12 13  1  0  0  0  0
 13 14  1  0  0  0  0
 14 15  1  0  0  0  0
 15 16  1  0  0  0  0
 16 17  2  0  0  0  0
 17 18  1  0  0  0  0
 18 19  2  0  0  0  0
 19 20  1  0  0  0  0
 20 21  2  0  0  0  0
 21 22  1  0  0  0  0
 22 23  2  0  0  0  0
 23 24  1  0  0  0  0
 24 25  2  0  0  0  0
 25 26  1  0  0  0  0
 26 27  2  0  0  0  0
 27 28  1  0  0  0  0
 28 29  2  0  0  0  0
 29 30  1  0  0  0  0
 30 31  2  0  0  0  0
 31 32  1  0  0  0  0
 32 33  2  0  0  0  0
 33 34  1  0  0  0  0
 34 35  2  0  0  0  0
 35 36  1  0  0  0  0
 19 37  1  0  0  0  0
 37 38  2  0  0  0  0
 15 39  2  0  0  0  0
 39 40  1  0  0  0  0
  6  1  1  0  0  0  0
 12  7  1  0  0  0  0
 40 13  2  0  0  0  0
 40  4  1  0  0  0  0
 38 16  1  0  0  0  0
 36 20  1  0  0  0  0
 35 22  1  0  0  0  0
 28 23  1  0  0  0  0
 34 29  1  0  0  0  0
  1 41  1  0  0  0  0
  2 42  1  0  0  0  0
  3 43  1  0  0  0  0
  6 44  1  0  0  0  0
  8 45  1  0  0  0  0
  9 46  1  0  0  0  0
 10 47  1  0  0  0  0
 11 48  1  0  0  0  0
 14 49  1  0  0  0  0
 17 50  1  0  0  0  0
 18 51  1  0  0  0  0
 24 52  1  0  0  0  0
 25 53  1  0  0  0  0
 26 54  1  0  0  0  0
 27 55  1  0  0  0  0
 30 56  1  0  0  0  0
 31 57  1  0  0  0  0
 32 58  1  0  0  0  0
 33 59  1  0  0  0  0
 36 60  1  0  0  0  0
 37 61  1  0  0  0  0
 38 62  1  0  0  0  0
M  END
