
  xtb     03022212193D
 energy: -56.501759147736 gnorm: 0.000253168125 xtb: 6.4.1 (afa7bdf)
 36 38  0     0  0            999 V2000
    6.1887   -0.5310   -1.7694 N   0  0  0  0  0  0  0  0  0  0  0  0
    5.8141   -0.0641   -0.6512 C   0  0  0  0  0  0  0  0  0  0  0  0
    6.6466    0.4271    0.3249 N   0  0  0  0  0  0  0  0  0  0  0  0
    4.3658    0.0123   -0.3773 C   0  0  0  0  0  0  0  0  0  0  0  0
    3.5106   -0.8772   -1.0230 C   0  0  0  0  0  0  0  0  0  0  0  0
    2.1517   -0.8373   -0.7982 C   0  0  0  0  0  0  0  0  0  0  0  0
    1.5980    0.1011    0.0777 C   0  0  0  0  0  0  0  0  0  0  0  0
    0.1708    0.1557    0.3293 C   0  0  0  0  0  0  0  0  0  0  0  0
   -0.5056    0.6966    1.3982 C   0  0  0  0  0  0  0  0  0  0  0  0
   -1.8888    0.4825    1.1833 C   0  0  0  0  0  0  0  0  0  0  0  0
   -3.0464    0.7933    1.9007 C   0  0  0  0  0  0  0  0  0  0  0  0
   -4.2652    0.4404    1.3742 C   0  0  0  0  0  0  0  0  0  0  0  0
   -4.3721   -0.2329    0.1436 C   0  0  0  0  0  0  0  0  0  0  0  0
   -5.7072   -0.6194   -0.3784 C   0  0  0  0  0  0  0  0  0  0  0  0
   -5.9903   -1.6985   -0.9909 N   0  0  0  0  0  0  0  0  0  0  0  0
   -6.7210    0.2591   -0.1095 N   0  0  0  0  0  0  0  0  0  0  0  0
   -3.2359   -0.5623   -0.5780 C   0  0  0  0  0  0  0  0  0  0  0  0
   -2.0047   -0.1989   -0.0551 C   0  0  0  0  0  0  0  0  0  0  0  0
   -0.7462   -0.3893   -0.5397 N   0  0  0  0  0  0  0  0  0  0  0  0
    2.4597    0.9984    0.7128 C   0  0  0  0  0  0  0  0  0  0  0  0
    3.8203    0.9546    0.4914 C   0  0  0  0  0  0  0  0  0  0  0  0
    7.1972   -0.5539   -1.9013 H   0  0  0  0  0  0  0  0  0  0  0  0
    7.6350    0.2604    0.2240 H   0  0  0  0  0  0  0  0  0  0  0  0
    6.3078    0.5187    1.2668 H   0  0  0  0  0  0  0  0  0  0  0  0
    3.9415   -1.5951   -1.7023 H   0  0  0  0  0  0  0  0  0  0  0  0
    1.5178   -1.5595   -1.2924 H   0  0  0  0  0  0  0  0  0  0  0  0
   -0.0703    1.1713    2.2547 H   0  0  0  0  0  0  0  0  0  0  0  0
   -2.9793    1.3017    2.8511 H   0  0  0  0  0  0  0  0  0  0  0  0
   -5.1704    0.6573    1.9220 H   0  0  0  0  0  0  0  0  0  0  0  0
   -5.2122   -2.3441   -1.0768 H   0  0  0  0  0  0  0  0  0  0  0  0
   -7.5917    0.0497   -0.5706 H   0  0  0  0  0  0  0  0  0  0  0  0
   -6.4907    1.2319    0.0004 H   0  0  0  0  0  0  0  0  0  0  0  0
   -3.3127   -1.0713   -1.5289 H   0  0  0  0  0  0  0  0  0  0  0  0
   -0.5216   -0.8068   -1.4264 H   0  0  0  0  0  0  0  0  0  0  0  0
    2.0497    1.7470    1.3731 H   0  0  0  0  0  0  0  0  0  0  0  0
    4.4559    1.6826    0.9747 H   0  0  0  0  0  0  0  0  0  0  0  0
  1  2  2  0  0  0  0
  2  3  1  0  0  0  0
  2  4  1  0  0  0  0
  4  5  2  0  0  0  0
  5  6  1  0  0  0  0
  6  7  2  0  0  0  0
  7  8  1  0  0  0  0
  8  9  2  0  0  0  0
  9 10  1  0  0  0  0
 10 11  2  0  0  0  0
 11 12  1  0  0  0  0
 12 13  2  0  0  0  0
 13 14  1  0  0  0  0
 14 15  2  0  0  0  0
 14 16  1  0  0  0  0
 13 17  1  0  0  0  0
 17 18  2  0  0  0  0
 18 19  1  0  0  0  0
  7 20  1  0  0  0  0
 20 21  2  0  0  0  0
 21  4  1  0  0  0  0
 19  8  1  0  0  0  0
 18 10  1  0  0  0  0
  1 22  1  0  0  0  0
  3 23  1  0  0  0  0
  3 24  1  0  0  0  0
  5 25  1  0  0  0  0
  6 26  1  0  0  0  0
  9 27  1  0  0  0  0
 11 28  1  0  0  0  0
 12 29  1  0  0  0  0
 15 30  1  0  0  0  0
 16 31  1  0  0  0  0
 16 32  1  0  0  0  0
 17 33  1  0  0  0  0
 19 34  1  0  0  0  0
 20 35  1  0  0  0  0
 21 36  1  0  0  0  0
M  END
