
  xtb     03022212313D
 energy: -140.732251951988 gnorm: 0.000111621443 xtb: 6.4.1 (afa7bdf)
 89 92  0     0  0            999 V2000
   -0.4674   -2.6504   -1.4458 C   0  0  0  0  0  0  0  0  0  0  0  0
   -1.6181   -2.5073   -0.6131 O   0  0  0  0  0  0  0  0  0  0  0  0
   -2.8239   -2.4769   -1.2011 C   0  0  0  0  0  0  0  0  0  0  0  0
   -2.9913   -2.5719   -2.3878 O   0  0  0  0  0  0  0  0  0  0  0  0
   -3.9124   -2.2610   -0.1761 C   0  0  0  0  0  0  0  0  0  0  0  0
   -4.1019   -0.7511    0.1023 C   0  0  0  0  0  0  0  0  0  0  0  0
   -4.7404   -0.0247   -1.0916 C   0  0  0  0  0  0  0  0  0  0  0  0
   -6.1983   -0.3360   -1.1942 C   0  0  0  0  0  0  0  0  0  0  0  0
   -7.2033    0.2715   -0.4983 C   0  0  0  0  0  0  0  0  0  0  0  0
   -8.4081   -0.2889   -0.8220 N   0  0  0  0  0  0  0  0  0  0  0  0
   -8.2048   -1.2770   -1.7413 C   0  0  0  0  0  0  0  0  0  0  0  0
   -9.1097   -2.1225   -2.3708 C   0  0  0  0  0  0  0  0  0  0  0  0
   -8.6067   -3.0376   -3.2696 C   0  0  0  0  0  0  0  0  0  0  0  0
   -7.2369   -3.1125   -3.5389 C   0  0  0  0  0  0  0  0  0  0  0  0
   -6.3339   -2.2782   -2.9201 C   0  0  0  0  0  0  0  0  0  0  0  0
   -6.8145   -1.3419   -2.0025 C   0  0  0  0  0  0  0  0  0  0  0  0
   -2.8285   -0.1621    0.4522 N   0  0  0  0  0  0  0  0  0  0  0  0
   -2.4583    0.1019    1.7214 C   0  0  0  0  0  0  0  0  0  0  0  0
   -3.2210    0.1228    2.6619 O   0  0  0  0  0  0  0  0  0  0  0  0
   -0.9492    0.3132    1.8731 C   0  0  0  0  0  0  0  0  0  0  0  0
   -0.3917   -0.8889    2.6752 C   0  0  0  0  0  0  0  0  0  0  0  0
    1.1181   -0.7351    2.6722 C   0  0  0  0  0  0  0  0  0  0  0  0
    1.7388   -0.1902    3.5577 O   0  0  0  0  0  0  0  0  0  0  0  0
    1.6945   -1.2362    1.5495 N   0  0  0  0  0  0  0  0  0  0  0  0
    2.9393   -0.7076    1.0443 C   0  0  0  0  0  0  0  0  0  0  0  0
    3.8977   -1.8393    0.6224 C   0  0  0  0  0  0  0  0  0  0  0  0
    5.1358   -1.2744    0.0086 C   0  0  0  0  0  0  0  0  0  0  0  0
    6.2542   -0.8975    0.6454 C   0  0  0  0  0  0  0  0  0  0  0  0
    7.2533   -0.3101   -0.3007 C   0  0  0  0  0  0  0  0  0  0  0  0
    6.5403   -0.3957   -1.6141 C   0  0  0  0  0  0  0  0  0  0  0  0
    6.9412   -0.0005   -2.8720 C   0  0  0  0  0  0  0  0  0  0  0  0
    6.0721   -0.1933   -3.9374 C   0  0  0  0  0  0  0  0  0  0  0  0
    4.8291   -0.7769   -3.7420 C   0  0  0  0  0  0  0  0  0  0  0  0
    4.4205   -1.1796   -2.4806 C   0  0  0  0  0  0  0  0  0  0  0  0
    5.2803   -0.9801   -1.4115 C   0  0  0  0  0  0  0  0  0  0  0  0
    2.5978    0.1609   -0.1661 C   0  0  0  0  0  0  0  0  0  0  0  0
    1.6667   -0.0899   -0.8951 O   0  0  0  0  0  0  0  0  0  0  0  0
    3.4466    1.1547   -0.3254 O   0  0  0  0  0  0  0  0  0  0  0  0
    3.1922    2.0331   -1.4139 C   0  0  0  0  0  0  0  0  0  0  0  0
   -0.6443    1.5586    2.5275 N   0  0  0  0  0  0  0  0  0  0  0  0
    0.5271    2.1899    2.2366 C   0  0  0  0  0  0  0  0  0  0  0  0
    1.1640    1.9651    1.2303 O   0  0  0  0  0  0  0  0  0  0  0  0
    0.8045    3.1008    3.1668 O   0  0  0  0  0  0  0  0  0  0  0  0
    2.0387    3.8580    3.1016 C   0  0  0  0  0  0  0  0  0  0  0  0
    3.2406    2.9147    3.0392 C   0  0  0  0  0  0  0  0  0  0  0  0
    2.0484    4.6511    4.4086 C   0  0  0  0  0  0  0  0  0  0  0  0
    2.0111    4.7990    1.8974 C   0  0  0  0  0  0  0  0  0  0  0  0
    0.1231   -1.7327   -1.4012 H   0  0  0  0  0  0  0  0  0  0  0  0
   -0.7784   -2.8406   -2.4742 H   0  0  0  0  0  0  0  0  0  0  0  0
    0.1129   -3.4926   -1.0691 H   0  0  0  0  0  0  0  0  0  0  0  0
   -4.8477   -2.6697   -0.5560 H   0  0  0  0  0  0  0  0  0  0  0  0
   -3.6294   -2.7595    0.7509 H   0  0  0  0  0  0  0  0  0  0  0  0
   -4.7417   -0.6359    0.9835 H   0  0  0  0  0  0  0  0  0  0  0  0
   -4.6088    1.0493   -0.9430 H   0  0  0  0  0  0  0  0  0  0  0  0
   -4.2343   -0.3148   -2.0133 H   0  0  0  0  0  0  0  0  0  0  0  0
   -7.1441    1.0757    0.2101 H   0  0  0  0  0  0  0  0  0  0  0  0
   -9.2998   -0.0097   -0.4508 H   0  0  0  0  0  0  0  0  0  0  0  0
  -10.1679   -2.0612   -2.1618 H   0  0  0  0  0  0  0  0  0  0  0  0
   -9.2813   -3.7107   -3.7781 H   0  0  0  0  0  0  0  0  0  0  0  0
   -6.8850   -3.8444   -4.2510 H   0  0  0  0  0  0  0  0  0  0  0  0
   -5.2789   -2.3490   -3.1349 H   0  0  0  0  0  0  0  0  0  0  0  0
   -2.1262   -0.1456   -0.2709 H   0  0  0  0  0  0  0  0  0  0  0  0
   -0.4619    0.3610    0.8925 H   0  0  0  0  0  0  0  0  0  0  0  0
   -0.7803   -0.8469    3.6930 H   0  0  0  0  0  0  0  0  0  0  0  0
   -0.6988   -1.8219    2.2020 H   0  0  0  0  0  0  0  0  0  0  0  0
    1.0740   -1.5526    0.8149 H   0  0  0  0  0  0  0  0  0  0  0  0
    3.3980   -0.0924    1.8217 H   0  0  0  0  0  0  0  0  0  0  0  0
    3.3829   -2.4874   -0.0904 H   0  0  0  0  0  0  0  0  0  0  0  0
    4.1437   -2.4219    1.5114 H   0  0  0  0  0  0  0  0  0  0  0  0
    6.4443   -0.9858    1.7003 H   0  0  0  0  0  0  0  0  0  0  0  0
    8.1905   -0.8721   -0.3070 H   0  0  0  0  0  0  0  0  0  0  0  0
    7.4963    0.7215   -0.0353 H   0  0  0  0  0  0  0  0  0  0  0  0
    7.9102    0.4508   -3.0300 H   0  0  0  0  0  0  0  0  0  0  0  0
    6.3670    0.1126   -4.9304 H   0  0  0  0  0  0  0  0  0  0  0  0
    4.1700   -0.9194   -4.5862 H   0  0  0  0  0  0  0  0  0  0  0  0
    3.4481   -1.6298   -2.3434 H   0  0  0  0  0  0  0  0  0  0  0  0
    2.1874    2.4471   -1.3167 H   0  0  0  0  0  0  0  0  0  0  0  0
    3.2762    1.4930   -2.3595 H   0  0  0  0  0  0  0  0  0  0  0  0
    3.9428    2.8165   -1.3547 H   0  0  0  0  0  0  0  0  0  0  0  0
   -1.0454    1.7110    3.4409 H   0  0  0  0  0  0  0  0  0  0  0  0
    4.1486    3.4621    3.2775 H   0  0  0  0  0  0  0  0  0  0  0  0
    3.3366    2.4831    2.0465 H   0  0  0  0  0  0  0  0  0  0  0  0
    3.1089    2.1068    3.7562 H   0  0  0  0  0  0  0  0  0  0  0  0
    2.9143    5.3057    4.4411 H   0  0  0  0  0  0  0  0  0  0  0  0
    1.1453    5.2508    4.4853 H   0  0  0  0  0  0  0  0  0  0  0  0
    2.0839    3.9690    5.2534 H   0  0  0  0  0  0  0  0  0  0  0  0
    1.1545    5.4666    1.9614 H   0  0  0  0  0  0  0  0  0  0  0  0
    1.9407    4.2227    0.9790 H   0  0  0  0  0  0  0  0  0  0  0  0
    2.9219    5.3909    1.8742 H   0  0  0  0  0  0  0  0  0  0  0  0
  1  2  1  0  0  0  0
  2  3  1  0  0  0  0
  3  4  2  0  0  0  0
  3  5  1  0  0  0  0
  5  6  1  0  0  0  0
  6  7  1  0  0  0  0
  7  8  1  0  0  0  0
  8  9  2  0  0  0  0
  9 10  1  0  0  0  0
 10 11  1  0  0  0  0
 11 12  2  0  0  0  0
 12 13  1  0  0  0  0
 13 14  2  0  0  0  0
 14 15  1  0  0  0  0
 15 16  2  0  0  0  0
  6 17  1  0  0  0  0
 17 18  1  0  0  0  0
 18 19  2  0  0  0  0
 18 20  1  0  0  0  0
 20 21  1  0  0  0  0
 21 22  1  0  0  0  0
 22 23  2  0  0  0  0
 22 24  1  0  0  0  0
 24 25  1  0  0  0  0
 25 26  1  0  0  0  0
 26 27  1  0  0  0  0
 27 28  2  0  0  0  0
 28 29  1  0  0  0  0
 29 30  1  0  0  0  0
 30 31  2  0  0  0  0
 31 32  1  0  0  0  0
 32 33  2  0  0  0  0
 33 34  1  0  0  0  0
 34 35  2  0  0  0  0
 25 36  1  0  0  0  0
 36 37  2  0  0  0  0
 36 38  1  0  0  0  0
 38 39  1  0  0  0  0
 20 40  1  0  0  0  0
 40 41  1  0  0  0  0
 41 42  2  0  0  0  0
 41 43  1  0  0  0  0
 43 44  1  0  0  0  0
 44 45  1  0  0  0  0
 44 46  1  0  0  0  0
 44 47  1  0  0  0  0
 16  8  1  0  0  0  0
 35 27  1  0  0  0  0
 16 11  1  0  0  0  0
 35 30  1  0  0  0  0
  1 48  1  0  0  0  0
  1 49  1  0  0  0  0
  1 50  1  0  0  0  0
  5 51  1  0  0  0  0
  5 52  1  0  0  0  0
  6 53  1  0  0  0  0
  7 54  1  0  0  0  0
  7 55  1  0  0  0  0
  9 56  1  0  0  0  0
 10 57  1  0  0  0  0
 12 58  1  0  0  0  0
 13 59  1  0  0  0  0
 14 60  1  0  0  0  0
 15 61  1  0  0  0  0
 17 62  1  0  0  0  0
 20 63  1  0  0  0  0
 21 64  1  0  0  0  0
 21 65  1  0  0  0  0
 24 66  1  0  0  0  0
 25 67  1  0  0  0  0
 26 68  1  0  0  0  0
 26 69  1  0  0  0  0
 28 70  1  0  0  0  0
 29 71  1  0  0  0  0
 29 72  1  0  0  0  0
 31 73  1  0  0  0  0
 32 74  1  0  0  0  0
 33 75  1  0  0  0  0
 34 76  1  0  0  0  0
 39 77  1  0  0  0  0
 39 78  1  0  0  0  0
 39 79  1  0  0  0  0
 40 80  1  0  0  0  0
 45 81  1  0  0  0  0
 45 82  1  0  0  0  0
 45 83  1  0  0  0  0
 46 84  1  0  0  0  0
 46 85  1  0  0  0  0
 46 86  1  0  0  0  0
 47 87  1  0  0  0  0
 47 88  1  0  0  0  0
 47 89  1  0  0  0  0
M  END
