
  xtb     03022212413D
 energy: -100.033835410548 gnorm: 0.000246821084 xtb: 6.4.1 (afa7bdf)
 60 65  0     0  0            999 V2000
    2.3722   -3.9392   -0.4862 N   0  0  0  0  0  0  0  0  0  0  0  0
    1.3327   -3.4620   -0.5924 C   0  0  0  0  0  0  0  0  0  0  0  0
    0.0440   -2.9300   -0.6773 C   0  0  0  0  0  0  0  0  0  0  0  0
   -0.3490   -1.7332   -1.2422 C   0  0  0  0  0  0  0  0  0  0  0  0
    0.4310   -0.7862   -1.8801 N   0  0  0  0  0  0  0  0  0  0  0  0
    0.1851   -0.4276   -3.1547 N   0  0  0  0  0  0  0  0  0  0  0  0
    1.0512    0.4327   -3.5019 N   0  0  0  0  0  0  0  0  0  0  0  0
    1.8972    0.6842   -2.4799 C   0  0  0  0  0  0  0  0  0  0  0  0
    1.5162   -0.1037   -1.4078 C   0  0  0  0  0  0  0  0  0  0  0  0
    2.0028   -0.2071   -0.0109 C   0  0  0  0  0  0  0  0  0  0  0  0
    1.8408    1.1269    0.7482 C   0  0  0  0  0  0  0  0  0  0  0  0
    3.1147    1.9371    0.7518 C   0  0  0  0  0  0  0  0  0  0  0  0
    3.5656    2.7776   -0.4116 C   0  0  0  0  0  0  0  0  0  0  0  0
    2.7911    2.9027   -1.7014 C   0  0  0  0  0  0  0  0  0  0  0  0
    2.9898    1.6829   -2.6205 C   0  0  0  0  0  0  0  0  0  0  0  0
    3.0858    3.4393    0.8488 C   0  0  0  0  0  0  0  0  0  0  0  0
    4.0507    4.1635    1.7600 C   0  0  0  0  0  0  0  0  0  0  0  0
    3.5607    4.2837    3.0757 O   0  0  0  0  0  0  0  0  0  0  0  0
   -1.7094   -1.5723   -1.1368 N   0  0  0  0  0  0  0  0  0  0  0  0
   -2.3450   -0.3186   -1.5404 C   0  0  0  0  0  0  0  0  0  0  0  0
   -3.8566   -0.3297   -1.3782 C   0  0  0  0  0  0  0  0  0  0  0  0
   -4.0331    0.0930    0.0885 C   0  0  0  0  0  0  0  0  0  0  0  0
   -5.1573    0.8978    0.3368 O   0  0  0  0  0  0  0  0  0  0  0  0
   -2.7539    0.9054    0.3819 C   0  0  0  0  0  0  0  0  0  0  0  0
   -2.0895    0.4917    1.7007 C   0  0  0  0  0  0  0  0  0  0  0  0
   -2.8215    0.9226    2.8133 O   0  0  0  0  0  0  0  0  0  0  0  0
   -1.8729    0.7171   -0.7194 O   0  0  0  0  0  0  0  0  0  0  0  0
   -2.2119   -2.6653   -0.4838 C   0  0  0  0  0  0  0  0  0  0  0  0
   -3.4852   -2.9147   -0.1681 N   0  0  0  0  0  0  0  0  0  0  0  0
   -3.6666   -4.0652    0.4511 C   0  0  0  0  0  0  0  0  0  0  0  0
   -2.7636   -4.9698    0.7819 N   0  0  0  0  0  0  0  0  0  0  0  0
   -1.4849   -4.7412    0.4761 C   0  0  0  0  0  0  0  0  0  0  0  0
   -0.5733   -5.6622    0.8259 N   0  0  0  0  0  0  0  0  0  0  0  0
   -1.1513   -3.5421   -0.1858 C   0  0  0  0  0  0  0  0  0  0  0  0
    1.4424   -0.9901    0.5027 H   0  0  0  0  0  0  0  0  0  0  0  0
    3.0556   -0.5005   -0.0128 H   0  0  0  0  0  0  0  0  0  0  0  0
    1.5700    0.9095    1.7852 H   0  0  0  0  0  0  0  0  0  0  0  0
    1.0218    1.6977    0.3081 H   0  0  0  0  0  0  0  0  0  0  0  0
    3.9142    1.4418    1.2961 H   0  0  0  0  0  0  0  0  0  0  0  0
    4.6391    2.7981   -0.5718 H   0  0  0  0  0  0  0  0  0  0  0  0
    1.7277    3.0379   -1.5008 H   0  0  0  0  0  0  0  0  0  0  0  0
    3.1412    3.7993   -2.2180 H   0  0  0  0  0  0  0  0  0  0  0  0
    3.9519    1.2141   -2.4005 H   0  0  0  0  0  0  0  0  0  0  0  0
    2.9914    1.9973   -3.6644 H   0  0  0  0  0  0  0  0  0  0  0  0
    2.1078    3.9043    0.8113 H   0  0  0  0  0  0  0  0  0  0  0  0
    4.2053    5.1892    1.4144 H   0  0  0  0  0  0  0  0  0  0  0  0
    5.0227    3.6467    1.7579 H   0  0  0  0  0  0  0  0  0  0  0  0
    3.3252    3.4056    3.3961 H   0  0  0  0  0  0  0  0  0  0  0  0
   -2.0112   -0.1089   -2.5639 H   0  0  0  0  0  0  0  0  0  0  0  0
   -4.2868    0.4327   -2.0285 H   0  0  0  0  0  0  0  0  0  0  0  0
   -4.2914   -1.3022   -1.5884 H   0  0  0  0  0  0  0  0  0  0  0  0
   -4.0666   -0.8095    0.7186 H   0  0  0  0  0  0  0  0  0  0  0  0
   -5.9500    0.4170    0.0753 H   0  0  0  0  0  0  0  0  0  0  0  0
   -3.0069    1.9717    0.4322 H   0  0  0  0  0  0  0  0  0  0  0  0
   -1.1051    0.9599    1.7745 H   0  0  0  0  0  0  0  0  0  0  0  0
   -1.9581   -0.6036    1.7162 H   0  0  0  0  0  0  0  0  0  0  0  0
   -3.7598    0.7648    2.6533 H   0  0  0  0  0  0  0  0  0  0  0  0
   -4.6874   -4.2978    0.7233 H   0  0  0  0  0  0  0  0  0  0  0  0
   -0.8938   -6.5074    1.2640 H   0  0  0  0  0  0  0  0  0  0  0  0
    0.3943   -5.5554    0.5769 H   0  0  0  0  0  0  0  0  0  0  0  0
  1  2  3  0  0  0  0
  2  3  1  0  0  0  0
  3  4  2  0  0  0  0
  4  5  1  0  0  0  0
  5  6  1  0  0  0  0
  6  7  2  0  0  0  0
  7  8  1  0  0  0  0
  8  9  2  0  0  0  0
  9 10  1  0  0  0  0
 10 11  1  0  0  0  0
 11 12  1  0  0  0  0
 12 13  1  0  0  0  0
 13 14  1  0  0  0  0
 14 15  1  0  0  0  0
 13 16  1  0  0  0  0
 16 17  1  0  0  0  0
 17 18  1  0  0  0  0
  4 19  1  0  0  0  0
 19 20  1  0  0  0  0
 20 21  1  0  0  0  0
 21 22  1  0  0  0  0
 22 23  1  0  0  0  0
 22 24  1  0  0  0  0
 24 25  1  0  0  0  0
 25 26  1  0  0  0  0
 24 27  1  0  0  0  0
 19 28  1  0  0  0  0
 28 29  2  0  0  0  0
 29 30  1  0  0  0  0
 30 31  2  0  0  0  0
 31 32  1  0  0  0  0
 32 33  1  0  0  0  0
 32 34  2  0  0  0  0
 34  3  1  0  0  0  0
  9  5  1  0  0  0  0
 16 12  1  0  0  0  0
 27 20  1  0  0  0  0
 34 28  1  0  0  0  0
 15  8  1  0  0  0  0
 10 35  1  0  0  0  0
 10 36  1  0  0  0  0
 11 37  1  0  0  0  0
 11 38  1  0  0  0  0
 12 39  1  0  0  0  0
 13 40  1  0  0  0  0
 14 41  1  0  0  0  0
 14 42  1  0  0  0  0
 15 43  1  0  0  0  0
 15 44  1  0  0  0  0
 16 45  1  0  0  0  0
 17 46  1  0  0  0  0
 17 47  1  0  0  0  0
 18 48  1  0  0  0  0
 20 49  1  0  0  0  0
 21 50  1  0  0  0  0
 21 51  1  0  0  0  0
 22 52  1  0  0  0  0
 23 53  1  0  0  0  0
 24 54  1  0  0  0  0
 25 55  1  0  0  0  0
 25 56  1  0  0  0  0
 26 57  1  0  0  0  0
 30 58  1  0  0  0  0
 33 59  1  0  0  0  0
 33 60  1  0  0  0  0
M  END
