
  xtb     03022215013D
 energy: -93.905511063214 gnorm: 0.000127960503 xtb: 6.4.1 (afa7bdf)
 50 53  0     0  0            999 V2000
   -6.7298    0.4359   -2.5202 C   0  0  0  0  0  0  0  0  0  0  0  0
   -6.0142    0.2602   -1.2720 N   0  0  0  0  0  0  0  0  0  0  0  0
   -4.6318    0.0967   -1.3719 C   0  0  0  0  0  0  0  0  0  0  0  0
   -4.0854    0.1152   -2.4559 O   0  0  0  0  0  0  0  0  0  0  0  0
   -3.9189   -0.0818   -0.1081 C   0  0  0  0  0  0  0  0  0  0  0  0
   -2.5847   -0.2543   -0.2463 N   0  0  0  0  0  0  0  0  0  0  0  0
   -1.8789   -0.4148    0.8185 N   0  0  0  0  0  0  0  0  0  0  0  0
   -0.5213   -0.4537    0.6817 C   0  0  0  0  0  0  0  0  0  0  0  0
    0.2305   -0.9333    1.7680 C   0  0  0  0  0  0  0  0  0  0  0  0
    1.5993   -0.9299    1.7130 C   0  0  0  0  0  0  0  0  0  0  0  0
    2.2639   -0.4118    0.5868 C   0  0  0  0  0  0  0  0  0  0  0  0
    3.6212   -0.4918    0.5686 N   0  0  0  0  0  0  0  0  0  0  0  0
    4.2683    0.2704   -0.2091 N   0  0  0  0  0  0  0  0  0  0  0  0
    5.6375    0.1664   -0.2288 C   0  0  0  0  0  0  0  0  0  0  0  0
    6.2984    0.6331   -1.3742 C   0  0  0  0  0  0  0  0  0  0  0  0
    7.6772    0.6392   -1.4165 C   0  0  0  0  0  0  0  0  0  0  0  0
    8.3869    0.2064   -0.3126 C   0  0  0  0  0  0  0  0  0  0  0  0
   10.1569    0.1937   -0.3759 S   0  0  0  0  0  6  0  0  0  0  0  0
   10.6964    0.3215    0.9368 O   0  0  0  0  0  0  0  0  0  0  0  0
   10.6369    1.0490   -1.4205 O   0  0  0  0  0  0  0  0  0  0  0  0
   10.4102   -1.3273   -0.8831 O   0  0  0  0  0  0  0  0  0  0  0  0
    7.7607   -0.2418    0.8338 C   0  0  0  0  0  0  0  0  0  0  0  0
    6.3826   -0.2682    0.8795 C   0  0  0  0  0  0  0  0  0  0  0  0
    1.5063    0.0640   -0.5039 C   0  0  0  0  0  0  0  0  0  0  0  0
    0.1412    0.0451   -0.4568 C   0  0  0  0  0  0  0  0  0  0  0  0
   -4.5898   -0.0804    1.1165 C   0  0  0  0  0  0  0  0  0  0  0  0
   -3.9455   -0.2493    2.2583 O   0  0  0  0  0  0  0  0  0  0  0  0
   -6.0099    0.0875    1.1381 C   0  0  0  0  0  0  0  0  0  0  0  0
   -6.7129    0.0872    2.3517 C   0  0  0  0  0  0  0  0  0  0  0  0
   -8.0745    0.2532    2.3711 C   0  0  0  0  0  0  0  0  0  0  0  0
   -8.7575    0.4226    1.1684 C   0  0  0  0  0  0  0  0  0  0  0  0
   -8.0887    0.4258   -0.0354 C   0  0  0  0  0  0  0  0  0  0  0  0
   -6.6974    0.2587   -0.0844 C   0  0  0  0  0  0  0  0  0  0  0  0
   -7.2350    1.4020   -2.5429 H   0  0  0  0  0  0  0  0  0  0  0  0
   -5.9874    0.4004   -3.3171 H   0  0  0  0  0  0  0  0  0  0  0  0
   -7.4532   -0.3667   -2.6670 H   0  0  0  0  0  0  0  0  0  0  0  0
   -0.2883   -1.3192    2.6326 H   0  0  0  0  0  0  0  0  0  0  0  0
    2.1905   -1.2925    2.5395 H   0  0  0  0  0  0  0  0  0  0  0  0
    5.7103    0.9659   -2.2150 H   0  0  0  0  0  0  0  0  0  0  0  0
    8.2204    0.9933   -2.2781 H   0  0  0  0  0  0  0  0  0  0  0  0
   10.8275   -1.3071   -1.7455 H   0  0  0  0  0  0  0  0  0  0  0  0
    8.3693   -0.5550    1.6668 H   0  0  0  0  0  0  0  0  0  0  0  0
    5.8514   -0.5996    1.7586 H   0  0  0  0  0  0  0  0  0  0  0  0
    2.0403    0.4223   -1.3715 H   0  0  0  0  0  0  0  0  0  0  0  0
   -0.4675    0.4089   -1.2716 H   0  0  0  0  0  0  0  0  0  0  0  0
   -2.9661   -0.3675    2.0250 H   0  0  0  0  0  0  0  0  0  0  0  0
   -6.1491   -0.0460    3.2616 H   0  0  0  0  0  0  0  0  0  0  0  0
   -8.6139    0.2533    3.3051 H   0  0  0  0  0  0  0  0  0  0  0  0
   -9.8291    0.5541    1.1760 H   0  0  0  0  0  0  0  0  0  0  0  0
   -8.6526    0.5600   -0.9429 H   0  0  0  0  0  0  0  0  0  0  0  0
  1  2  1  0  0  0  0
  2  3  1  0  0  0  0
  3  4  2  0  0  0  0
  3  5  1  0  0  0  0
  5  6  1  0  0  0  0
  6  7  2  0  0  0  0
  7  8  1  0  0  0  0
  8  9  2  0  0  0  0
  9 10  1  0  0  0  0
 10 11  2  0  0  0  0
 11 12  1  0  0  0  0
 12 13  2  0  0  0  0
 13 14  1  0  0  0  0
 14 15  2  0  0  0  0
 15 16  1  0  0  0  0
 16 17  2  0  0  0  0
 17 18  1  0  0  0  0
 18 19  2  0  0  0  0
 18 20  2  0  0  0  0
 18 21  1  0  0  0  0
 17 22  1  0  0  0  0
 22 23  2  0  0  0  0
 11 24  1  0  0  0  0
 24 25  2  0  0  0  0
  5 26  2  0  0  0  0
 26 27  1  0  0  0  0
 26 28  1  0  0  0  0
 28 29  2  0  0  0  0
 29 30  1  0  0  0  0
 30 31  2  0  0  0  0
 31 32  1  0  0  0  0
 32 33  2  0  0  0  0
 33  2  1  0  0  0  0
 25  8  1  0  0  0  0
 33 28  1  0  0  0  0
 23 14  1  0  0  0  0
  1 34  1  0  0  0  0
  1 35  1  0  0  0  0
  1 36  1  0  0  0  0
  9 37  1  0  0  0  0
 10 38  1  0  0  0  0
 15 39  1  0  0  0  0
 16 40  1  0  0  0  0
 21 41  1  0  0  0  0
 22 42  1  0  0  0  0
 23 43  1  0  0  0  0
 24 44  1  0  0  0  0
 25 45  1  0  0  0  0
 27 46  1  0  0  0  0
 29 47  1  0  0  0  0
 30 48  1  0  0  0  0
 31 49  1  0  0  0  0
 32 50  1  0  0  0  0
M  END
