
  xtb     03022212593D
 energy: -74.032206461875 gnorm: 0.000101914514 xtb: 6.4.1 (afa7bdf)
 40 44  0     0  0            999 V2000
   -7.2101   -0.7264    0.0403 Cl  0  0  0  0  0  0  0  0  0  0  0  0
   -5.5162   -0.5558    0.0309 C   0  0  0  0  0  0  0  0  0  0  0  0
   -4.8644   -1.0377    1.0722 N   0  0  0  0  0  0  0  0  0  0  0  0
   -3.5518   -0.9015    1.0662 C   0  0  0  0  0  0  0  0  0  0  0  0
   -2.8638   -0.2887    0.0161 C   0  0  0  0  0  0  0  0  0  0  0  0
   -1.4019   -0.1413    0.0079 C   0  0  0  0  0  0  0  0  0  0  0  0
   -0.5888   -1.2859   -0.0147 C   0  0  0  0  0  0  0  0  0  0  0  0
   -1.1346   -2.5952   -0.0706 C   0  0  0  0  0  0  0  0  0  0  0  0
   -0.3344   -3.6961   -0.0628 C   0  0  0  0  0  0  0  0  0  0  0  0
    1.0650   -3.5556    0.0076 C   0  0  0  0  0  0  0  0  0  0  0  0
    1.6296   -2.3174    0.0333 C   0  0  0  0  0  0  0  0  0  0  0  0
    0.8335   -1.1427   -0.0037 C   0  0  0  0  0  0  0  0  0  0  0  0
    1.4019    0.1413   -0.0078 C   0  0  0  0  0  0  0  0  0  0  0  0
    2.8637    0.2886   -0.0162 C   0  0  0  0  0  0  0  0  0  0  0  0
    3.6583   -0.1591   -1.0744 C   0  0  0  0  0  0  0  0  0  0  0  0
    4.9717   -0.0308   -1.0807 N   0  0  0  0  0  0  0  0  0  0  0  0
    5.5162    0.5560   -0.0316 C   0  0  0  0  0  0  0  0  0  0  0  0
    7.2101    0.7269   -0.0415 Cl  0  0  0  0  0  0  0  0  0  0  0  0
    4.8777    1.0236    1.0244 N   0  0  0  0  0  0  0  0  0  0  0  0
    3.5651    0.8872    1.0333 C   0  0  0  0  0  0  0  0  0  0  0  0
    0.5887    1.2860   -0.0040 C   0  0  0  0  0  0  0  0  0  0  0  0
    1.1338    2.5960   -0.0484 C   0  0  0  0  0  0  0  0  0  0  0  0
    0.3338    3.6966   -0.0150 C   0  0  0  0  0  0  0  0  0  0  0  0
   -1.0646    3.5550    0.0710 C   0  0  0  0  0  0  0  0  0  0  0  0
   -1.6289    2.3165    0.0863 C   0  0  0  0  0  0  0  0  0  0  0  0
   -0.8334    1.1425    0.0229 C   0  0  0  0  0  0  0  0  0  0  0  0
   -3.6717    0.1734   -1.0257 C   0  0  0  0  0  0  0  0  0  0  0  0
   -4.9851    0.0452   -1.0171 N   0  0  0  0  0  0  0  0  0  0  0  0
   -3.0325   -1.2876    1.9337 H   0  0  0  0  0  0  0  0  0  0  0  0
   -2.2068   -2.7110   -0.1239 H   0  0  0  0  0  0  0  0  0  0  0  0
   -0.7668   -4.6842   -0.1054 H   0  0  0  0  0  0  0  0  0  0  0  0
    1.6859   -4.4382    0.0359 H   0  0  0  0  0  0  0  0  0  0  0  0
    2.7034   -2.2180    0.0865 H   0  0  0  0  0  0  0  0  0  0  0  0
    3.2250   -0.6282   -1.9481 H   0  0  0  0  0  0  0  0  0  0  0  0
    3.0570    1.2613    1.9126 H   0  0  0  0  0  0  0  0  0  0  0  0
    2.2053    2.7127   -0.1135 H   0  0  0  0  0  0  0  0  0  0  0  0
    0.7658    4.6852   -0.0491 H   0  0  0  0  0  0  0  0  0  0  0  0
   -1.6850    4.4370    0.1195 H   0  0  0  0  0  0  0  0  0  0  0  0
   -2.7020    2.2162    0.1516 H   0  0  0  0  0  0  0  0  0  0  0  0
   -3.2495    0.6544   -1.8985 H   0  0  0  0  0  0  0  0  0  0  0  0
  1  2  1  0  0  0  0
  2  3  2  0  0  0  0
  3  4  1  0  0  0  0
  4  5  2  0  0  0  0
  5  6  1  0  0  0  0
  6  7  1  0  0  0  0
  7  8  2  0  0  0  0
  8  9  1  0  0  0  0
  9 10  2  0  0  0  0
 10 11  1  0  0  0  0
 11 12  2  0  0  0  0
 12 13  1  0  0  0  0
 13 14  1  0  0  0  0
 14 15  2  0  0  0  0
 15 16  1  0  0  0  0
 16 17  2  0  0  0  0
 17 18  1  0  0  0  0
 17 19  1  0  0  0  0
 19 20  2  0  0  0  0
 13 21  2  0  0  0  0
 21 22  1  0  0  0  0
 22 23  2  0  0  0  0
 23 24  1  0  0  0  0
 24 25  2  0  0  0  0
 25 26  1  0  0  0  0
  5 27  1  0  0  0  0
 27 28  2  0  0  0  0
 28  2  1  0  0  0  0
 26  6  2  0  0  0  0
 12  7  1  0  0  0  0
 20 14  1  0  0  0  0
 26 21  1  0  0  0  0
  4 29  1  0  0  0  0
  8 30  1  0  0  0  0
  9 31  1  0  0  0  0
 10 32  1  0  0  0  0
 11 33  1  0  0  0  0
 15 34  1  0  0  0  0
 20 35  1  0  0  0  0
 22 36  1  0  0  0  0
 23 37  1  0  0  0  0
 24 38  1  0  0  0  0
 25 39  1  0  0  0  0
 27 40  1  0  0  0  0
M  END
