
  xtb     03022213583D
 energy: -57.175356155609 gnorm: 0.000339510992 xtb: 6.4.1 (afa7bdf)
 38 41  0     0  0            999 V2000
    4.2669    0.0647   -0.8924 C   0  0  0  0  0  0  0  0  0  0  0  0
    3.6365    0.0149    0.3702 O   0  0  0  0  0  0  0  0  0  0  0  0
    2.2518    0.0086    0.3011 C   0  0  0  0  0  0  0  0  0  0  0  0
    1.5696   -1.2135    0.2550 C   0  0  0  0  0  0  0  0  0  0  0  0
    2.2630   -2.4501    0.3032 C   0  0  0  0  0  0  0  0  0  0  0  0
    1.5901   -3.6317    0.2648 C   0  0  0  0  0  0  0  0  0  0  0  0
    0.1826   -3.6426    0.1882 C   0  0  0  0  0  0  0  0  0  0  0  0
   -0.5176   -2.4757    0.1490 C   0  0  0  0  0  0  0  0  0  0  0  0
    0.1431   -1.2192    0.1695 C   0  0  0  0  0  0  0  0  0  0  0  0
   -0.5597   -0.0064    0.1259 C   0  0  0  0  0  0  0  0  0  0  0  0
   -2.0335   -0.0162    0.0076 C   0  0  0  0  0  0  0  0  0  0  0  0
   -2.6434   -0.4386   -1.1696 C   0  0  0  0  0  0  0  0  0  0  0  0
   -4.0221   -0.4477   -1.2803 C   0  0  0  0  0  0  0  0  0  0  0  0
   -4.8081   -0.0394   -0.2157 C   0  0  0  0  0  0  0  0  0  0  0  0
   -4.2092    0.3801    0.9604 C   0  0  0  0  0  0  0  0  0  0  0  0
   -2.8305    0.3940    1.0720 C   0  0  0  0  0  0  0  0  0  0  0  0
    0.1284    1.2136    0.1957 C   0  0  0  0  0  0  0  0  0  0  0  0
   -0.5426    2.4638    0.1418 C   0  0  0  0  0  0  0  0  0  0  0  0
    0.1428    3.6374    0.2197 C   0  0  0  0  0  0  0  0  0  0  0  0
    1.5454    3.6403    0.3609 C   0  0  0  0  0  0  0  0  0  0  0  0
    2.2307    2.4658    0.3945 C   0  0  0  0  0  0  0  0  0  0  0  0
    1.5539    1.2226    0.2976 C   0  0  0  0  0  0  0  0  0  0  0  0
    5.3384    0.0687   -0.6982 H   0  0  0  0  0  0  0  0  0  0  0  0
    3.9908    0.9712   -1.4431 H   0  0  0  0  0  0  0  0  0  0  0  0
    4.0087   -0.8084   -1.5025 H   0  0  0  0  0  0  0  0  0  0  0  0
    3.3388   -2.4255    0.3923 H   0  0  0  0  0  0  0  0  0  0  0  0
    2.1252   -4.5691    0.3039 H   0  0  0  0  0  0  0  0  0  0  0  0
   -0.3370   -4.5896    0.1715 H   0  0  0  0  0  0  0  0  0  0  0  0
   -1.5966   -2.4900    0.1100 H   0  0  0  0  0  0  0  0  0  0  0  0
   -2.0276   -0.7540   -2.0000 H   0  0  0  0  0  0  0  0  0  0  0  0
   -4.4847   -0.7750   -2.2002 H   0  0  0  0  0  0  0  0  0  0  0  0
   -5.8846   -0.0485   -0.3023 H   0  0  0  0  0  0  0  0  0  0  0  0
   -4.8184    0.6976    1.7943 H   0  0  0  0  0  0  0  0  0  0  0  0
   -2.3606    0.7162    1.9903 H   0  0  0  0  0  0  0  0  0  0  0  0
   -1.6172    2.4679    0.0355 H   0  0  0  0  0  0  0  0  0  0  0  0
   -0.3845    4.5793    0.1776 H   0  0  0  0  0  0  0  0  0  0  0  0
    2.0676    4.5826    0.4393 H   0  0  0  0  0  0  0  0  0  0  0  0
    3.3039    2.4514    0.5125 H   0  0  0  0  0  0  0  0  0  0  0  0
  1  2  1  0  0  0  0
  2  3  1  0  0  0  0
  3  4  2  0  0  0  0
  4  5  1  0  0  0  0
  5  6  2  0  0  0  0
  6  7  1  0  0  0  0
  7  8  2  0  0  0  0
  8  9  1  0  0  0  0
  9 10  2  0  0  0  0
 10 11  1  0  0  0  0
 11 12  2  0  0  0  0
 12 13  1  0  0  0  0
 13 14  2  0  0  0  0
 14 15  1  0  0  0  0
 15 16  2  0  0  0  0
 10 17  1  0  0  0  0
 17 18  2  0  0  0  0
 18 19  1  0  0  0  0
 19 20  2  0  0  0  0
 20 21  1  0  0  0  0
 21 22  2  0  0  0  0
 22  3  1  0  0  0  0
  9  4  1  0  0  0  0
 16 11  1  0  0  0  0
 22 17  1  0  0  0  0
  1 23  1  0  0  0  0
  1 24  1  0  0  0  0
  1 25  1  0  0  0  0
  5 26  1  0  0  0  0
  6 27  1  0  0  0  0
  7 28  1  0  0  0  0
  8 29  1  0  0  0  0
 12 30  1  0  0  0  0
 13 31  1  0  0  0  0
 14 32  1  0  0  0  0
 15 33  1  0  0  0  0
 16 34  1  0  0  0  0
 18 35  1  0  0  0  0
 19 36  1  0  0  0  0
 20 37  1  0  0  0  0
 21 38  1  0  0  0  0
M  END
