
  xtb     03022214093D
 energy: -56.332676583682 gnorm: 0.000123794451 xtb: 6.4.1 (afa7bdf)
 38 40  0     0  0            999 V2000
    5.6538    0.6965    0.2960 C   0  0  0  0  0  0  0  0  0  0  0  0
    4.5970    1.1417    1.1088 O   0  0  0  0  0  0  0  0  0  0  0  0
    3.3221    0.7983    0.7629 C   0  0  0  0  0  0  0  0  0  0  0  0
    2.9717    0.0308   -0.3417 C   0  0  0  0  0  0  0  0  0  0  0  0
    1.6418   -0.2511   -0.5985 C   0  0  0  0  0  0  0  0  0  0  0  0
    0.6355    0.2130    0.2420 C   0  0  0  0  0  0  0  0  0  0  0  0
   -0.7107   -0.0805   -0.0209 N   0  0  0  0  0  0  0  0  0  0  0  0
   -1.6862    0.8985    0.1883 C   0  0  0  0  0  0  0  0  0  0  0  0
   -2.9498    0.5509    0.6672 C   0  0  0  0  0  0  0  0  0  0  0  0
   -3.9094    1.5230    0.8706 C   0  0  0  0  0  0  0  0  0  0  0  0
   -3.6273    2.8543    0.6113 C   0  0  0  0  0  0  0  0  0  0  0  0
   -2.3722    3.2061    0.1424 C   0  0  0  0  0  0  0  0  0  0  0  0
   -1.4084    2.2406   -0.0723 C   0  0  0  0  0  0  0  0  0  0  0  0
   -1.0661   -1.3467   -0.4936 C   0  0  0  0  0  0  0  0  0  0  0  0
   -0.3909   -2.4835   -0.0480 C   0  0  0  0  0  0  0  0  0  0  0  0
   -0.7402   -3.7325   -0.5225 C   0  0  0  0  0  0  0  0  0  0  0  0
   -1.7685   -3.8736   -1.4400 C   0  0  0  0  0  0  0  0  0  0  0  0
   -2.4438   -2.7488   -1.8848 C   0  0  0  0  0  0  0  0  0  0  0  0
   -2.0966   -1.4946   -1.4227 C   0  0  0  0  0  0  0  0  0  0  0  0
    0.9926    0.9781    1.3537 C   0  0  0  0  0  0  0  0  0  0  0  0
    2.3138    1.2697    1.6055 C   0  0  0  0  0  0  0  0  0  0  0  0
    5.5743    1.0927   -0.7218 H   0  0  0  0  0  0  0  0  0  0  0  0
    6.5629    1.0773    0.7592 H   0  0  0  0  0  0  0  0  0  0  0  0
    5.6998   -0.3971    0.2571 H   0  0  0  0  0  0  0  0  0  0  0  0
    3.7214   -0.3486   -1.0181 H   0  0  0  0  0  0  0  0  0  0  0  0
    1.3809   -0.8417   -1.4645 H   0  0  0  0  0  0  0  0  0  0  0  0
   -3.1698   -0.4847    0.8815 H   0  0  0  0  0  0  0  0  0  0  0  0
   -4.8827    1.2393    1.2436 H   0  0  0  0  0  0  0  0  0  0  0  0
   -4.3792    3.6115    0.7744 H   0  0  0  0  0  0  0  0  0  0  0  0
   -2.1437    4.2410   -0.0667 H   0  0  0  0  0  0  0  0  0  0  0  0
   -0.4337    2.5173   -0.4466 H   0  0  0  0  0  0  0  0  0  0  0  0
    0.4049   -2.3777    0.6748 H   0  0  0  0  0  0  0  0  0  0  0  0
   -0.2107   -4.6040   -0.1659 H   0  0  0  0  0  0  0  0  0  0  0  0
   -2.0411   -4.8520   -1.8057 H   0  0  0  0  0  0  0  0  0  0  0  0
   -3.2426   -2.8474   -2.6053 H   0  0  0  0  0  0  0  0  0  0  0  0
   -2.6181   -0.6188   -1.7805 H   0  0  0  0  0  0  0  0  0  0  0  0
    0.2232    1.3420    2.0181 H   0  0  0  0  0  0  0  0  0  0  0  0
    2.5965    1.8602    2.4625 H   0  0  0  0  0  0  0  0  0  0  0  0
  1  2  1  0  0  0  0
  2  3  1  0  0  0  0
  3  4  2  0  0  0  0
  4  5  1  0  0  0  0
  5  6  2  0  0  0  0
  6  7  1  0  0  0  0
  7  8  1  0  0  0  0
  8  9  2  0  0  0  0
  9 10  1  0  0  0  0
 10 11  2  0  0  0  0
 11 12  1  0  0  0  0
 12 13  2  0  0  0  0
  7 14  1  0  0  0  0
 14 15  2  0  0  0  0
 15 16  1  0  0  0  0
 16 17  2  0  0  0  0
 17 18  1  0  0  0  0
 18 19  2  0  0  0  0
  6 20  1  0  0  0  0
 20 21  2  0  0  0  0
 21  3  1  0  0  0  0
 13  8  1  0  0  0  0
 19 14  1  0  0  0  0
  1 22  1  0  0  0  0
  1 23  1  0  0  0  0
  1 24  1  0  0  0  0
  4 25  1  0  0  0  0
  5 26  1  0  0  0  0
  9 27  1  0  0  0  0
 10 28  1  0  0  0  0
 11 29  1  0  0  0  0
 12 30  1  0  0  0  0
 13 31  1  0  0  0  0
 15 32  1  0  0  0  0
 16 33  1  0  0  0  0
 17 34  1  0  0  0  0
 18 35  1  0  0  0  0
 19 36  1  0  0  0  0
 20 37  1  0  0  0  0
 21 38  1  0  0  0  0
M  END
