
  xtb     03022212103D
 energy: -83.564051540880 gnorm: 0.000317843720 xtb: 6.4.1 (afa7bdf)
 46 50  0     0  0            999 V2000
    4.0579   -3.4770   -0.0363 C   0  0  0  0  0  0  0  0  0  0  0  0
    3.9602   -2.2507   -0.9308 C   0  0  0  0  0  0  0  0  0  0  0  0
    2.6453   -1.6869   -0.8994 O   0  0  0  0  0  0  0  0  0  0  0  0
    2.3110   -0.9858    0.1745 C   0  0  0  0  0  0  0  0  0  0  0  0
    3.0468   -0.7169    1.0894 O   0  0  0  0  0  0  0  0  0  0  0  0
    0.8772   -0.5576    0.0799 C   0  0  0  0  0  0  0  0  0  0  0  0
   -0.1059   -1.4930   -0.0333 C   0  0  0  0  0  0  0  0  0  0  0  0
   -1.4544   -1.0764   -0.1881 C   0  0  0  0  0  0  0  0  0  0  0  0
   -2.2668   -2.2187   -0.3172 C   0  0  0  0  0  0  0  0  0  0  0  0
   -3.6262   -2.0650   -0.4980 C   0  0  0  0  0  0  0  0  0  0  0  0
   -4.0955   -0.7603   -0.6103 C   0  0  0  0  0  0  0  0  0  0  0  0
   -3.2758    0.3621   -0.5296 C   0  0  0  0  0  0  0  0  0  0  0  0
   -3.9147    1.5942   -0.8976 N   0  0  0  0  0  4  0  0  0  0  0  0
   -3.2980    2.3614   -1.6090 O   0  0  0  0  0  0  0  0  0  0  0  0
   -5.0585    1.7676   -0.5280 O   0  0  0  0  0  1  0  0  0  0  0  0
   -1.8920    0.2398   -0.2448 C   0  0  0  0  0  0  0  0  0  0  0  0
   -0.8869    1.2408    0.0558 C   0  0  0  0  0  0  0  0  0  0  0  0
   -1.1948    2.5637    0.3159 C   0  0  0  0  0  0  0  0  0  0  0  0
   -0.2139    3.5273    0.5795 C   0  0  0  0  0  0  0  0  0  0  0  0
   -0.5420    4.8809    0.8199 C   0  0  0  0  0  0  0  0  0  0  0  0
    0.4390    5.8009    1.0510 C   0  0  0  0  0  0  0  0  0  0  0  0
    1.7938    5.4158    1.0613 C   0  0  0  0  0  0  0  0  0  0  0  0
    2.1453    4.1164    0.8416 C   0  0  0  0  0  0  0  0  0  0  0  0
    1.1542    3.1368    0.5963 C   0  0  0  0  0  0  0  0  0  0  0  0
    1.4682    1.7905    0.4002 C   0  0  0  0  0  0  0  0  0  0  0  0
    0.4951    0.8284    0.1633 C   0  0  0  0  0  0  0  0  0  0  0  0
   -1.4634   -3.3285   -0.2269 N   0  0  0  0  0  0  0  0  0  0  0  0
   -1.9130   -4.6922   -0.2897 C   0  0  0  0  0  0  0  0  0  0  0  0
   -0.1263   -2.9750   -0.0510 C   0  0  0  0  0  0  0  0  0  0  0  0
    0.7692   -3.7772    0.0684 O   0  0  0  0  0  0  0  0  0  0  0  0
    5.0001   -3.9869   -0.2150 H   0  0  0  0  0  0  0  0  0  0  0  0
    4.0049   -3.1818    1.0083 H   0  0  0  0  0  0  0  0  0  0  0  0
    3.2310   -4.1498   -0.2473 H   0  0  0  0  0  0  0  0  0  0  0  0
    4.1213   -2.5090   -1.9791 H   0  0  0  0  0  0  0  0  0  0  0  0
    4.6811   -1.4870   -0.6189 H   0  0  0  0  0  0  0  0  0  0  0  0
   -4.3012   -2.9005   -0.5822 H   0  0  0  0  0  0  0  0  0  0  0  0
   -5.1452   -0.5926   -0.8041 H   0  0  0  0  0  0  0  0  0  0  0  0
   -2.2180    2.8991    0.3331 H   0  0  0  0  0  0  0  0  0  0  0  0
   -1.5818    5.1723    0.8048 H   0  0  0  0  0  0  0  0  0  0  0  0
    0.1852    6.8355    1.2278 H   0  0  0  0  0  0  0  0  0  0  0  0
    2.5516    6.1625    1.2471 H   0  0  0  0  0  0  0  0  0  0  0  0
    3.1812    3.8113    0.8524 H   0  0  0  0  0  0  0  0  0  0  0  0
    2.5013    1.4895    0.4789 H   0  0  0  0  0  0  0  0  0  0  0  0
   -1.0358   -5.3297   -0.1837 H   0  0  0  0  0  0  0  0  0  0  0  0
   -2.6151   -4.9042    0.5190 H   0  0  0  0  0  0  0  0  0  0  0  0
   -2.3954   -4.8943   -1.2480 H   0  0  0  0  0  0  0  0  0  0  0  0
  1  2  1  0  0  0  0
  2  3  1  0  0  0  0
  3  4  1  0  0  0  0
  4  5  2  0  0  0  0
  4  6  1  0  0  0  0
  6  7  2  0  0  0  0
  7  8  1  0  0  0  0
  8  9  2  0  0  0  0
  9 10  1  0  0  0  0
 10 11  2  0  0  0  0
 11 12  1  0  0  0  0
 12 13  1  0  0  0  0
 13 14  2  0  0  0  0
 13 15  1  0  0  0  0
 12 16  2  0  0  0  0
 16 17  1  0  0  0  0
 17 18  2  0  0  0  0
 18 19  1  0  0  0  0
 19 20  2  0  0  0  0
 20 21  1  0  0  0  0
 21 22  2  0  0  0  0
 22 23  1  0  0  0  0
 23 24  2  0  0  0  0
 24 25  1  0  0  0  0
 25 26  2  0  0  0  0
  9 27  1  0  0  0  0
 27 28  1  0  0  0  0
 27 29  1  0  0  0  0
 29 30  2  0  0  0  0
 26  6  1  0  0  0  0
 29  7  1  0  0  0  0
 16  8  1  0  0  0  0
 26 17  1  0  0  0  0
 24 19  1  0  0  0  0
  1 31  1  0  0  0  0
  1 32  1  0  0  0  0
  1 33  1  0  0  0  0
  2 34  1  0  0  0  0
  2 35  1  0  0  0  0
 10 36  1  0  0  0  0
 11 37  1  0  0  0  0
 18 38  1  0  0  0  0
 20 39  1  0  0  0  0
 21 40  1  0  0  0  0
 22 41  1  0  0  0  0
 23 42  1  0  0  0  0
 25 43  1  0  0  0  0
 28 44  1  0  0  0  0
 28 45  1  0  0  0  0
 28 46  1  0  0  0  0
M  CHG  1  13   1
M  CHG  1  15  -1
M  END
