
  xtb     03022215343D
 energy: -100.118392331817 gnorm: 0.000108362927 xtb: 6.4.1 (afa7bdf)
 67 74  0     0  0            999 V2000
   -2.7956   -3.4953    3.1668 C   0  0  0  0  0  0  0  0  0  0  0  0
   -1.5378   -3.0507    3.5388 C   0  0  0  0  0  0  0  0  0  0  0  0
   -0.8001   -2.2550    2.6840 C   0  0  0  0  0  0  0  0  0  0  0  0
   -1.3108   -1.8946    1.4366 C   0  0  0  0  0  0  0  0  0  0  0  0
   -0.5771   -1.0603    0.5907 N   0  0  0  0  0  0  0  0  0  0  0  0
    0.7165   -1.3099    0.3216 C   0  0  0  0  0  0  0  0  0  0  0  0
    1.2839   -2.6074    0.4532 C   0  0  0  0  0  0  0  0  0  0  0  0
    2.5376   -2.8716    0.0077 C   0  0  0  0  0  0  0  0  0  0  0  0
    3.3051   -1.8847   -0.6630 C   0  0  0  0  0  0  0  0  0  0  0  0
    4.5339   -2.1968   -1.2686 C   0  0  0  0  0  0  0  0  0  0  0  0
    5.2200   -1.2554   -1.9894 C   0  0  0  0  0  0  0  0  0  0  0  0
    4.6798    0.0254   -2.1477 C   0  0  0  0  0  0  0  0  0  0  0  0
    3.4943    0.3617   -1.5491 C   0  0  0  0  0  0  0  0  0  0  0  0
    2.7929   -0.5678   -0.7564 C   0  0  0  0  0  0  0  0  0  0  0  0
    1.5451   -0.2592   -0.1329 C   0  0  0  0  0  0  0  0  0  0  0  0
    1.1044    1.0783    0.1384 C   0  0  0  0  0  0  0  0  0  0  0  0
    2.0021    2.1143    0.5680 C   0  0  0  0  0  0  0  0  0  0  0  0
    3.3278    1.8669    0.9712 C   0  0  0  0  0  0  0  0  0  0  0  0
    4.1520    2.8981    1.3398 C   0  0  0  0  0  0  0  0  0  0  0  0
    3.6900    4.2193    1.3282 C   0  0  0  0  0  0  0  0  0  0  0  0
    2.3844    4.4840    1.0117 C   0  0  0  0  0  0  0  0  0  0  0  0
    1.5096    3.4404    0.6611 C   0  0  0  0  0  0  0  0  0  0  0  0
    0.1259    3.6522    0.4510 C   0  0  0  0  0  0  0  0  0  0  0  0
   -0.6842    2.5778    0.2560 C   0  0  0  0  0  0  0  0  0  0  0  0
   -0.2095    1.3268    0.1052 N   0  0  0  0  0  4  0  0  0  0  0  0
   -1.2043    0.1293   -0.1716 B   0  0  0  0  0  4  0  0  0  0  0  0
   -2.6491    0.5007    0.4403 C   0  0  0  0  0  0  0  0  0  0  0  0
   -2.7931    0.7446    1.8067 C   0  0  0  0  0  0  0  0  0  0  0  0
   -4.0200    1.0503    2.3651 C   0  0  0  0  0  0  0  0  0  0  0  0
   -5.1459    1.1264    1.5628 C   0  0  0  0  0  0  0  0  0  0  0  0
   -5.0284    0.8978    0.2032 C   0  0  0  0  0  0  0  0  0  0  0  0
   -3.7953    0.5898   -0.3453 C   0  0  0  0  0  0  0  0  0  0  0  0
   -1.1798   -0.1299   -1.7695 C   0  0  0  0  0  0  0  0  0  0  0  0
   -1.1131   -1.4118   -2.3097 C   0  0  0  0  0  0  0  0  0  0  0  0
   -1.0975   -1.6265   -3.6764 C   0  0  0  0  0  0  0  0  0  0  0  0
   -1.1496   -0.5537   -4.5486 C   0  0  0  0  0  0  0  0  0  0  0  0
   -1.2195    0.7310   -4.0384 C   0  0  0  0  0  0  0  0  0  0  0  0
   -1.2338    0.9327   -2.6701 C   0  0  0  0  0  0  0  0  0  0  0  0
   -2.5741   -2.3516    1.0660 C   0  0  0  0  0  0  0  0  0  0  0  0
   -3.3074   -3.1427    1.9287 C   0  0  0  0  0  0  0  0  0  0  0  0
   -3.3732   -4.1122    3.8388 H   0  0  0  0  0  0  0  0  0  0  0  0
   -1.1323   -3.3176    4.5041 H   0  0  0  0  0  0  0  0  0  0  0  0
    0.1751   -1.8931    2.9811 H   0  0  0  0  0  0  0  0  0  0  0  0
    0.6746   -3.3932    0.8745 H   0  0  0  0  0  0  0  0  0  0  0  0
    2.9494   -3.8665    0.1016 H   0  0  0  0  0  0  0  0  0  0  0  0
    4.9188   -3.2020   -1.1708 H   0  0  0  0  0  0  0  0  0  0  0  0
    6.1624   -1.5014   -2.4555 H   0  0  0  0  0  0  0  0  0  0  0  0
    5.1998    0.7509   -2.7560 H   0  0  0  0  0  0  0  0  0  0  0  0
    3.0775    1.3464   -1.6994 H   0  0  0  0  0  0  0  0  0  0  0  0
    3.6914    0.8527    1.0065 H   0  0  0  0  0  0  0  0  0  0  0  0
    5.1656    2.6912    1.6483 H   0  0  0  0  0  0  0  0  0  0  0  0
    4.3594    5.0221    1.5992 H   0  0  0  0  0  0  0  0  0  0  0  0
    1.9988    5.4923    1.0475 H   0  0  0  0  0  0  0  0  0  0  0  0
   -0.2806    4.6495    0.4966 H   0  0  0  0  0  0  0  0  0  0  0  0
   -1.7560    2.6778    0.1847 H   0  0  0  0  0  0  0  0  0  0  0  0
   -1.9231    0.6907    2.4491 H   0  0  0  0  0  0  0  0  0  0  0  0
   -4.1006    1.2281    3.4287 H   0  0  0  0  0  0  0  0  0  0  0  0
   -6.1078    1.3625    1.9954 H   0  0  0  0  0  0  0  0  0  0  0  0
   -5.9016    0.9576   -0.4317 H   0  0  0  0  0  0  0  0  0  0  0  0
   -3.7166    0.4091   -1.4087 H   0  0  0  0  0  0  0  0  0  0  0  0
   -1.0710   -2.2660   -1.6474 H   0  0  0  0  0  0  0  0  0  0  0  0
   -1.0441   -2.6351   -4.0631 H   0  0  0  0  0  0  0  0  0  0  0  0
   -1.1369   -0.7167   -5.6171 H   0  0  0  0  0  0  0  0  0  0  0  0
   -1.2631    1.5777   -4.7101 H   0  0  0  0  0  0  0  0  0  0  0  0
   -1.2912    1.9459   -2.2918 H   0  0  0  0  0  0  0  0  0  0  0  0
   -2.9687   -2.0838    0.0992 H   0  0  0  0  0  0  0  0  0  0  0  0
   -4.2856   -3.4899    1.6305 H   0  0  0  0  0  0  0  0  0  0  0  0
  1  2  2  0  0  0  0
  2  3  1  0  0  0  0
  3  4  2  0  0  0  0
  4  5  1  0  0  0  0
  5  6  1  0  0  0  0
  6  7  2  0  0  0  0
  7  8  1  0  0  0  0
  8  9  2  0  0  0  0
  9 10  1  0  0  0  0
 10 11  2  0  0  0  0
 11 12  1  0  0  0  0
 12 13  2  0  0  0  0
 13 14  1  0  0  0  0
 14 15  2  0  0  0  0
 15 16  1  0  0  0  0
 16 17  2  0  0  0  0
 17 18  1  0  0  0  0
 18 19  2  0  0  0  0
 19 20  1  0  0  0  0
 20 21  2  0  0  0  0
 21 22  1  0  0  0  0
 22 23  2  0  0  0  0
 23 24  1  0  0  0  0
 24 25  2  0  0  0  0
 25 26  1  0  0  0  0
 26 27  1  0  0  0  0
 27 28  2  0  0  0  0
 28 29  1  0  0  0  0
 29 30  2  0  0  0  0
 30 31  1  0  0  0  0
 31 32  2  0  0  0  0
 26 33  1  0  0  0  0
 33 34  2  0  0  0  0
 34 35  1  0  0  0  0
 35 36  2  0  0  0  0
 36 37  1  0  0  0  0
 37 38  2  0  0  0  0
  4 39  1  0  0  0  0
 39 40  2  0  0  0  0
 40  1  1  0  0  0  0
 26  5  1  0  0  0  0
 32 27  1  0  0  0  0
 38 33  1  0  0  0  0
 15  6  1  0  0  0  0
 25 16  1  0  0  0  0
 14  9  1  0  0  0  0
 22 17  1  0  0  0  0
  1 41  1  0  0  0  0
  2 42  1  0  0  0  0
  3 43  1  0  0  0  0
  7 44  1  0  0  0  0
  8 45  1  0  0  0  0
 10 46  1  0  0  0  0
 11 47  1  0  0  0  0
 12 48  1  0  0  0  0
 13 49  1  0  0  0  0
 18 50  1  0  0  0  0
 19 51  1  0  0  0  0
 20 52  1  0  0  0  0
 21 53  1  0  0  0  0
 23 54  1  0  0  0  0
 24 55  1  0  0  0  0
 28 56  1  0  0  0  0
 29 57  1  0  0  0  0
 30 58  1  0  0  0  0
 31 59  1  0  0  0  0
 32 60  1  0  0  0  0
 34 61  1  0  0  0  0
 35 62  1  0  0  0  0
 36 63  1  0  0  0  0
 37 64  1  0  0  0  0
 38 65  1  0  0  0  0
 39 66  1  0  0  0  0
 40 67  1  0  0  0  0
M  CHG  1  25   1
M  CHG  1  26  -1
M  END
