
  xtb     03022214513D
 energy: -93.408275056532 gnorm: 0.000127062039 xtb: 6.4.1 (afa7bdf)
 60 64  0     0  0            999 V2000
    7.5621   -1.6030   -1.6283 C   0  0  0  0  0  0  0  0  0  0  0  0
    7.2288   -0.2273   -1.0683 C   0  0  0  0  0  0  0  0  0  0  0  0
    5.9394   -0.2088   -0.4579 O   0  0  0  0  0  0  0  0  0  0  0  0
    4.8874   -0.0489   -1.2731 C   0  0  0  0  0  0  0  0  0  0  0  0
    4.9832    0.0942   -2.4682 O   0  0  0  0  0  0  0  0  0  0  0  0
    3.5985   -0.0564   -0.5396 C   0  0  0  0  0  0  0  0  0  0  0  0
    3.5324   -0.2596    0.8359 C   0  0  0  0  0  0  0  0  0  0  0  0
    2.3075   -0.2558    1.4733 C   0  0  0  0  0  0  0  0  0  0  0  0
    1.1351   -0.0516    0.7542 C   0  0  0  0  0  0  0  0  0  0  0  0
   -0.2028   -0.0842    1.4476 C   0  0  0  0  0  0  0  0  0  0  0  0
   -0.9570   -1.4018    1.1718 C   0  0  0  0  0  0  0  0  0  0  0  0
   -2.1810   -0.9205    0.4054 C   0  0  0  0  0  0  0  0  0  0  0  0
   -3.2484   -1.6826   -0.2116 C   0  0  0  0  0  0  0  0  0  0  0  0
   -4.1715   -0.9359   -0.9341 C   0  0  0  0  0  0  0  0  0  0  0  0
   -5.2529   -1.5118   -1.5925 C   0  0  0  0  0  0  0  0  0  0  0  0
   -5.4354   -2.8665   -1.5471 C   0  0  0  0  0  0  0  0  0  0  0  0
   -4.5360   -3.6791   -0.8304 C   0  0  0  0  0  0  0  0  0  0  0  0
   -4.7411   -5.0751   -0.7896 C   0  0  0  0  0  0  0  0  0  0  0  0
   -3.8979   -5.8971   -0.1004 C   0  0  0  0  0  0  0  0  0  0  0  0
   -2.8094   -5.3408    0.5808 C   0  0  0  0  0  0  0  0  0  0  0  0
   -2.5840   -3.9906    0.5577 C   0  0  0  0  0  0  0  0  0  0  0  0
   -3.4254   -3.1026   -0.1450 C   0  0  0  0  0  0  0  0  0  0  0  0
   -2.1883    0.3687    0.3175 N   0  0  0  0  0  0  0  0  0  0  0  0
   -1.1274    0.9125    0.9021 N   0  0  0  0  0  0  0  0  0  0  0  0
   -0.9449    2.2769    0.9546 C   0  0  0  0  0  0  0  0  0  0  0  0
   -1.9089    3.1244    0.4086 C   0  0  0  0  0  0  0  0  0  0  0  0
   -1.7570    4.4959    0.4519 C   0  0  0  0  0  0  0  0  0  0  0  0
   -0.6319    5.0570    1.0470 C   0  0  0  0  0  0  0  0  0  0  0  0
   -0.3796    6.3964    1.1480 O   0  0  0  0  0  0  0  0  0  0  0  0
   -1.3168    7.2936    0.6080 C   0  0  0  0  0  0  0  0  0  0  0  0
    0.3328    4.2112    1.5934 C   0  0  0  0  0  0  0  0  0  0  0  0
    0.1846    2.8425    1.5509 C   0  0  0  0  0  0  0  0  0  0  0  0
    1.2037    0.1440   -0.6212 C   0  0  0  0  0  0  0  0  0  0  0  0
    2.4249    0.1445   -1.2628 C   0  0  0  0  0  0  0  0  0  0  0  0
    8.5725   -1.5987   -2.0270 H   0  0  0  0  0  0  0  0  0  0  0  0
    6.8690   -1.8549   -2.4271 H   0  0  0  0  0  0  0  0  0  0  0  0
    7.4904   -2.3559   -0.8466 H   0  0  0  0  0  0  0  0  0  0  0  0
    7.2534    0.5209   -1.8676 H   0  0  0  0  0  0  0  0  0  0  0  0
    7.9224    0.0536   -0.2728 H   0  0  0  0  0  0  0  0  0  0  0  0
    4.4406   -0.4165    1.3960 H   0  0  0  0  0  0  0  0  0  0  0  0
    2.2574   -0.4116    2.5420 H   0  0  0  0  0  0  0  0  0  0  0  0
   -0.0710    0.0883    2.5226 H   0  0  0  0  0  0  0  0  0  0  0  0
   -1.2408   -1.8908    2.1048 H   0  0  0  0  0  0  0  0  0  0  0  0
   -0.3486   -2.0811    0.5726 H   0  0  0  0  0  0  0  0  0  0  0  0
   -4.0292    0.1318   -0.9788 H   0  0  0  0  0  0  0  0  0  0  0  0
   -5.9392   -0.8817   -2.1391 H   0  0  0  0  0  0  0  0  0  0  0  0
   -6.2666   -3.3336   -2.0554 H   0  0  0  0  0  0  0  0  0  0  0  0
   -5.5906   -5.4805   -1.3211 H   0  0  0  0  0  0  0  0  0  0  0  0
   -4.0624   -6.9642   -0.0743 H   0  0  0  0  0  0  0  0  0  0  0  0
   -2.1399   -5.9858    1.1316 H   0  0  0  0  0  0  0  0  0  0  0  0
   -1.7365   -3.6173    1.1002 H   0  0  0  0  0  0  0  0  0  0  0  0
   -2.7815    2.6883   -0.0498 H   0  0  0  0  0  0  0  0  0  0  0  0
   -2.5254    5.1159    0.0178 H   0  0  0  0  0  0  0  0  0  0  0  0
   -1.4358    7.1515   -0.4714 H   0  0  0  0  0  0  0  0  0  0  0  0
   -0.9159    8.2884    0.7967 H   0  0  0  0  0  0  0  0  0  0  0  0
   -2.2928    7.1998    1.0961 H   0  0  0  0  0  0  0  0  0  0  0  0
    1.2028    4.6547    2.0509 H   0  0  0  0  0  0  0  0  0  0  0  0
    0.9537    2.2179    1.9758 H   0  0  0  0  0  0  0  0  0  0  0  0
    0.2965    0.3006   -1.1861 H   0  0  0  0  0  0  0  0  0  0  0  0
    2.4942    0.2992   -2.3287 H   0  0  0  0  0  0  0  0  0  0  0  0
  1  2  1  0  0  0  0
  2  3  1  0  0  0  0
  3  4  1  0  0  0  0
  4  5  2  0  0  0  0
  4  6  1  0  0  0  0
  6  7  2  0  0  0  0
  7  8  1  0  0  0  0
  8  9  2  0  0  0  0
  9 10  1  0  0  0  0
 10 11  1  0  0  0  0
 11 12  1  0  0  0  0
 12 13  1  0  0  0  0
 13 14  2  0  0  0  0
 14 15  1  0  0  0  0
 15 16  2  0  0  0  0
 16 17  1  0  0  0  0
 17 18  2  0  0  0  0
 18 19  1  0  0  0  0
 19 20  2  0  0  0  0
 20 21  1  0  0  0  0
 21 22  2  0  0  0  0
 12 23  2  0  0  0  0
 23 24  1  0  0  0  0
 24 25  1  0  0  0  0
 25 26  2  0  0  0  0
 26 27  1  0  0  0  0
 27 28  2  0  0  0  0
 28 29  1  0  0  0  0
 29 30  1  0  0  0  0
 28 31  1  0  0  0  0
 31 32  2  0  0  0  0
  9 33  1  0  0  0  0
 33 34  2  0  0  0  0
 34  6  1  0  0  0  0
 24 10  1  0  0  0  0
 32 25  1  0  0  0  0
 22 13  1  0  0  0  0
 22 17  1  0  0  0  0
  1 35  1  0  0  0  0
  1 36  1  0  0  0  0
  1 37  1  0  0  0  0
  2 38  1  0  0  0  0
  2 39  1  0  0  0  0
  7 40  1  0  0  0  0
  8 41  1  0  0  0  0
 10 42  1  0  0  0  0
 11 43  1  0  0  0  0
 11 44  1  0  0  0  0
 14 45  1  0  0  0  0
 15 46  1  0  0  0  0
 16 47  1  0  0  0  0
 18 48  1  0  0  0  0
 19 49  1  0  0  0  0
 20 50  1  0  0  0  0
 21 51  1  0  0  0  0
 26 52  1  0  0  0  0
 27 53  1  0  0  0  0
 30 54  1  0  0  0  0
 30 55  1  0  0  0  0
 30 56  1  0  0  0  0
 31 57  1  0  0  0  0
 32 58  1  0  0  0  0
 33 59  1  0  0  0  0
 34 60  1  0  0  0  0
M  END
