
  xtb     03022212143D
 energy: -145.105772910106 gnorm: 0.000094113072 xtb: 6.4.1 (afa7bdf)
 96104  0     0  0            999 V2000
    4.7048    3.8932    4.3152 C   0  0  0  0  0  0  0  0  0  0  0  0
    5.0646    2.4212    4.1495 C   0  0  0  0  0  0  0  0  0  0  0  0
    5.9323    2.1470    2.9210 C   0  0  0  0  0  0  0  0  0  0  0  0
    5.2051    2.3892    1.6003 C   0  0  0  0  0  0  0  0  0  0  0  0
    6.0616    1.9721    0.4079 C   0  0  0  0  0  0  0  0  0  0  0  0
    5.3606    2.2313   -0.9343 C   0  0  0  0  0  0  0  0  0  0  0  0
    4.0900    1.4534   -1.0590 C   0  0  0  0  0  0  0  0  0  0  0  0
    2.8338    2.0183   -0.8888 C   0  0  0  0  0  0  0  0  0  0  0  0
    1.7861    1.1170   -1.0062 C   0  0  0  0  0  0  0  0  0  0  0  0
    0.3770    1.3815   -0.8962 C   0  0  0  0  0  0  0  0  0  0  0  0
   -0.5510    0.3548   -1.1192 C   0  0  0  0  0  0  0  0  0  0  0  0
   -1.9102    0.5558   -1.0142 C   0  0  0  0  0  0  0  0  0  0  0  0
   -2.3721    1.8234   -0.6701 C   0  0  0  0  0  0  0  0  0  0  0  0
   -1.4569    2.8748   -0.4972 C   0  0  0  0  0  0  0  0  0  0  0  0
   -0.1080    2.6666   -0.5909 C   0  0  0  0  0  0  0  0  0  0  0  0
   -2.2065    4.1540   -0.2444 C   0  0  0  0  0  0  0  0  0  0  0  0
   -1.8987    5.2338   -1.2843 C   0  0  0  0  0  0  0  0  0  0  0  0
   -2.7235    4.7968   -2.4891 C   0  0  0  0  0  0  0  0  0  0  0  0
   -4.0465    4.3489   -1.8687 C   0  0  0  0  0  0  0  0  0  0  0  0
   -3.6748    3.7312   -0.5009 C   0  0  0  0  0  0  0  0  0  0  0  0
   -3.6593    2.2741   -0.5294 N   0  0  0  0  0  0  0  0  0  0  0  0
   -4.7756    1.5145   -0.2092 C   0  0  0  0  0  0  0  0  0  0  0  0
   -6.0586    1.9932   -0.4920 C   0  0  0  0  0  0  0  0  0  0  0  0
   -7.1836    1.2535   -0.1775 C   0  0  0  0  0  0  0  0  0  0  0  0
   -7.0329    0.0180    0.4293 C   0  0  0  0  0  0  0  0  0  0  0  0
   -5.7499   -0.4534    0.7458 C   0  0  0  0  0  0  0  0  0  0  0  0
   -4.6311    0.2832    0.4434 C   0  0  0  0  0  0  0  0  0  0  0  0
   -5.8278   -1.7988    1.4315 C   0  0  0  0  0  0  0  0  0  0  0  0
   -5.2575   -1.7310    2.8515 C   0  0  0  0  0  0  0  0  0  0  0  0
   -5.1043   -2.8742    0.6152 C   0  0  0  0  0  0  0  0  0  0  0  0
   -7.3212   -2.0389    1.4542 C   0  0  0  0  0  0  0  0  0  0  0  0
   -8.0150   -3.1173    1.9577 C   0  0  0  0  0  0  0  0  0  0  0  0
   -9.4011   -3.1233    1.8691 C   0  0  0  0  0  0  0  0  0  0  0  0
  -10.0790   -2.0643    1.2858 C   0  0  0  0  0  0  0  0  0  0  0  0
   -9.3897   -0.9750    0.7784 C   0  0  0  0  0  0  0  0  0  0  0  0
   -8.0072   -0.9661    0.8648 C   0  0  0  0  0  0  0  0  0  0  0  0
    2.3715   -0.4801   -1.3185 S   0  0  0  0  0  0  0  0  0  0  0  0
    4.0304    0.0743   -1.3111 C   0  0  0  0  0  0  0  0  0  0  0  0
    5.1373   -0.7487   -1.5384 C   0  0  0  0  0  0  0  0  0  0  0  0
    5.2138   -2.1018   -1.7442 C   0  0  0  0  0  0  0  0  0  0  0  0
    4.1557   -3.1012   -1.7902 C   0  0  0  0  0  0  0  0  0  0  0  0
    2.9535   -2.9400   -1.6783 O   0  0  0  0  0  0  0  0  0  0  0  0
    4.8387   -4.4062   -2.0131 C   0  0  0  0  0  0  0  0  0  0  0  0
    4.2924   -5.6712   -2.1259 C   0  0  0  0  0  0  0  0  0  0  0  0
    5.1540   -6.7377   -2.3318 C   0  0  0  0  0  0  0  0  0  0  0  0
    6.5325   -6.5411   -2.4230 C   0  0  0  0  0  0  0  0  0  0  0  0
    7.3904   -7.7298   -2.6424 C   0  0  0  0  0  0  0  0  0  0  0  0
    6.9801   -8.8587   -2.7498 O   0  0  0  0  0  0  0  0  0  0  0  0
    8.6961   -7.4364   -2.7126 O   0  0  0  0  0  0  0  0  0  0  0  0
    7.0834   -5.2615   -2.3096 C   0  0  0  0  0  0  0  0  0  0  0  0
    6.2216   -4.2049   -2.1048 C   0  0  0  0  0  0  0  0  0  0  0  0
    6.5165   -2.7552   -1.9442 C   0  0  0  0  0  0  0  0  0  0  0  0
    7.6071   -2.2236   -1.9678 O   0  0  0  0  0  0  0  0  0  0  0  0
    5.6048    4.5038    4.3416 H   0  0  0  0  0  0  0  0  0  0  0  0
    4.1603    4.0460    5.2444 H   0  0  0  0  0  0  0  0  0  0  0  0
    4.0779    4.2369    3.4966 H   0  0  0  0  0  0  0  0  0  0  0  0
    5.6070    2.0897    5.0381 H   0  0  0  0  0  0  0  0  0  0  0  0
    4.1490    1.8291    4.0820 H   0  0  0  0  0  0  0  0  0  0  0  0
    6.8257    2.7747    2.9635 H   0  0  0  0  0  0  0  0  0  0  0  0
    6.2606    1.1050    2.9518 H   0  0  0  0  0  0  0  0  0  0  0  0
    4.9524    3.4468    1.5055 H   0  0  0  0  0  0  0  0  0  0  0  0
    4.2729    1.8195    1.5938 H   0  0  0  0  0  0  0  0  0  0  0  0
    7.0002    2.5306    0.4239 H   0  0  0  0  0  0  0  0  0  0  0  0
    6.3035    0.9110    0.4937 H   0  0  0  0  0  0  0  0  0  0  0  0
    5.1305    3.2956   -1.0149 H   0  0  0  0  0  0  0  0  0  0  0  0
    6.0415    1.9719   -1.7477 H   0  0  0  0  0  0  0  0  0  0  0  0
    2.6962    3.0663   -0.6894 H   0  0  0  0  0  0  0  0  0  0  0  0
   -0.1829   -0.6237   -1.3899 H   0  0  0  0  0  0  0  0  0  0  0  0
   -2.5965   -0.2485   -1.2265 H   0  0  0  0  0  0  0  0  0  0  0  0
    0.5759    3.4852   -0.4315 H   0  0  0  0  0  0  0  0  0  0  0  0
   -2.0367    4.5123    0.7743 H   0  0  0  0  0  0  0  0  0  0  0  0
   -2.2396    6.2064   -0.9257 H   0  0  0  0  0  0  0  0  0  0  0  0
   -0.8345    5.2963   -1.5035 H   0  0  0  0  0  0  0  0  0  0  0  0
   -2.2352    3.9540   -2.9807 H   0  0  0  0  0  0  0  0  0  0  0  0
   -2.8586    5.5935   -3.2184 H   0  0  0  0  0  0  0  0  0  0  0  0
   -4.5643    3.6299   -2.5013 H   0  0  0  0  0  0  0  0  0  0  0  0
   -4.6983    5.2103   -1.7168 H   0  0  0  0  0  0  0  0  0  0  0  0
   -4.3615    4.0641    0.2821 H   0  0  0  0  0  0  0  0  0  0  0  0
   -6.1779    2.9534   -0.9681 H   0  0  0  0  0  0  0  0  0  0  0  0
   -8.1649    1.6397   -0.4093 H   0  0  0  0  0  0  0  0  0  0  0  0
   -3.6504   -0.0604    0.7322 H   0  0  0  0  0  0  0  0  0  0  0  0
   -5.3849   -2.6864    3.3548 H   0  0  0  0  0  0  0  0  0  0  0  0
   -4.1970   -1.4918    2.8222 H   0  0  0  0  0  0  0  0  0  0  0  0
   -5.7721   -0.9641    3.4268 H   0  0  0  0  0  0  0  0  0  0  0  0
   -4.0407   -2.6540    0.5584 H   0  0  0  0  0  0  0  0  0  0  0  0
   -5.2328   -3.8495    1.0784 H   0  0  0  0  0  0  0  0  0  0  0  0
   -5.5073   -2.9140   -0.3947 H   0  0  0  0  0  0  0  0  0  0  0  0
   -7.4972   -3.9485    2.4145 H   0  0  0  0  0  0  0  0  0  0  0  0
   -9.9572   -3.9633    2.2589 H   0  0  0  0  0  0  0  0  0  0  0  0
  -11.1576   -2.0899    1.2268 H   0  0  0  0  0  0  0  0  0  0  0  0
   -9.9201   -0.1511    0.3241 H   0  0  0  0  0  0  0  0  0  0  0  0
    6.1010   -0.2480   -1.5530 H   0  0  0  0  0  0  0  0  0  0  0  0
    3.2252   -5.8142   -2.0536 H   0  0  0  0  0  0  0  0  0  0  0  0
    4.7777   -7.7455   -2.4258 H   0  0  0  0  0  0  0  0  0  0  0  0
    9.2087   -8.2470   -2.8562 H   0  0  0  0  0  0  0  0  0  0  0  0
    8.1483   -5.1063   -2.3797 H   0  0  0  0  0  0  0  0  0  0  0  0
  1  2  1  0  0  0  0
  2  3  1  0  0  0  0
  3  4  1  0  0  0  0
  4  5  1  0  0  0  0
  5  6  1  0  0  0  0
  6  7  1  0  0  0  0
  7  8  1  0  0  0  0
  8  9  2  0  0  0  0
  9 10  1  0  0  0  0
 10 11  2  0  0  0  0
 11 12  1  0  0  0  0
 12 13  2  0  0  0  0
 13 14  1  0  0  0  0
 14 15  2  0  0  0  0
 14 16  1  0  0  0  0
 16 17  1  0  0  0  0
 17 18  1  0  0  0  0
 18 19  1  0  0  0  0
 19 20  1  0  0  0  0
 20 21  1  0  0  0  0
 21 22  1  0  0  0  0
 22 23  2  0  0  0  0
 23 24  1  0  0  0  0
 24 25  2  0  0  0  0
 25 26  1  0  0  0  0
 26 27  2  0  0  0  0
 26 28  1  0  0  0  0
 28 29  1  0  0  0  0
 28 30  1  0  0  0  0
 28 31  1  0  0  0  0
 31 32  2  0  0  0  0
 32 33  1  0  0  0  0
 33 34  2  0  0  0  0
 34 35  1  0  0  0  0
 35 36  2  0  0  0  0
  9 37  1  0  0  0  0
 37 38  1  0  0  0  0
 38 39  1  0  0  0  0
 39 40  2  0  0  0  0
 40 41  1  0  0  0  0
 41 42  2  0  0  0  0
 41 43  1  0  0  0  0
 43 44  2  0  0  0  0
 44 45  1  0  0  0  0
 45 46  2  0  0  0  0
 46 47  1  0  0  0  0
 47 48  2  0  0  0  0
 47 49  1  0  0  0  0
 46 50  1  0  0  0  0
 50 51  2  0  0  0  0
 51 52  1  0  0  0  0
 52 53  2  0  0  0  0
 38  7  2  0  0  0  0
 52 40  1  0  0  0  0
 15 10  1  0  0  0  0
 20 16  1  0  0  0  0
 27 22  1  0  0  0  0
 36 31  1  0  0  0  0
 51 43  1  0  0  0  0
 21 13  1  0  0  0  0
 36 25  1  0  0  0  0
  1 54  1  0  0  0  0
  1 55  1  0  0  0  0
  1 56  1  0  0  0  0
  2 57  1  0  0  0  0
  2 58  1  0  0  0  0
  3 59  1  0  0  0  0
  3 60  1  0  0  0  0
  4 61  1  0  0  0  0
  4 62  1  0  0  0  0
  5 63  1  0  0  0  0
  5 64  1  0  0  0  0
  6 65  1  0  0  0  0
  6 66  1  0  0  0  0
  8 67  1  0  0  0  0
 11 68  1  0  0  0  0
 12 69  1  0  0  0  0
 15 70  1  0  0  0  0
 16 71  1  0  0  0  0
 17 72  1  0  0  0  0
 17 73  1  0  0  0  0
 18 74  1  0  0  0  0
 18 75  1  0  0  0  0
 19 76  1  0  0  0  0
 19 77  1  0  0  0  0
 20 78  1  0  0  0  0
 23 79  1  0  0  0  0
 24 80  1  0  0  0  0
 27 81  1  0  0  0  0
 29 82  1  0  0  0  0
 29 83  1  0  0  0  0
 29 84  1  0  0  0  0
 30 85  1  0  0  0  0
 30 86  1  0  0  0  0
 30 87  1  0  0  0  0
 32 88  1  0  0  0  0
 33 89  1  0  0  0  0
 34 90  1  0  0  0  0
 35 91  1  0  0  0  0
 39 92  1  0  0  0  0
 44 93  1  0  0  0  0
 45 94  1  0  0  0  0
 49 95  1  0  0  0  0
 50 96  1  0  0  0  0
M  END
