
  xtb     03022214343D
 energy: -156.097976513889 gnorm: 0.000239441138 xtb: 6.4.1 (afa7bdf)
102111  0     0  0            999 V2000
   -8.4695   -3.4125   -1.7288 C   0  0  0  0  0  0  0  0  0  0  0  0
   -7.9874   -2.7052   -0.4613 C   0  0  0  0  0  0  0  0  0  0  0  0
   -8.0643   -3.6254    0.7593 C   0  0  0  0  0  0  0  0  0  0  0  0
   -8.7836   -1.4492   -0.1995 C   0  0  0  0  0  0  0  0  0  0  0  0
  -10.1676   -1.5011   -0.1015 C   0  0  0  0  0  0  0  0  0  0  0  0
  -10.9030   -0.3580    0.1436 C   0  0  0  0  0  0  0  0  0  0  0  0
  -10.2666    0.8571    0.3053 C   0  0  0  0  0  0  0  0  0  0  0  0
   -8.8832    0.9507    0.2322 C   0  0  0  0  0  0  0  0  0  0  0  0
   -8.1964    2.2838    0.4085 C   0  0  0  0  0  0  0  0  0  0  0  0
   -8.5839    2.9321    1.7386 C   0  0  0  0  0  0  0  0  0  0  0  0
   -8.5250    3.1937   -0.7774 C   0  0  0  0  0  0  0  0  0  0  0  0
   -8.1639   -0.2138   -0.0259 C   0  0  0  0  0  0  0  0  0  0  0  0
   -6.7292   -0.1377   -0.1172 N   0  0  0  0  0  0  0  0  0  0  0  0
   -6.2078    0.2367   -1.3456 C   0  0  0  0  0  0  0  0  0  0  0  0
   -6.9388    0.4786   -2.2844 O   0  0  0  0  0  0  0  0  0  0  0  0
   -4.7420    0.3154   -1.4251 C   0  0  0  0  0  0  0  0  0  0  0  0
   -4.1390    0.6926   -2.6149 C   0  0  0  0  0  0  0  0  0  0  0  0
   -2.7610    0.7801   -2.7064 C   0  0  0  0  0  0  0  0  0  0  0  0
   -1.9482    0.4807   -1.6115 C   0  0  0  0  0  0  0  0  0  0  0  0
   -0.5363    0.5961   -1.6830 C   0  0  0  0  0  0  0  0  0  0  0  0
    0.2862    0.2962   -0.6306 C   0  0  0  0  0  0  0  0  0  0  0  0
   -0.2881   -0.2173    0.5963 C   0  0  0  0  0  0  0  0  0  0  0  0
    0.5389   -0.7018    1.5736 C   0  0  0  0  0  0  0  0  0  0  0  0
    1.9529   -0.6743    1.4665 C   0  0  0  0  0  0  0  0  0  0  0  0
    2.7708   -1.1907    2.4732 C   0  0  0  0  0  0  0  0  0  0  0  0
    4.1495   -1.1291    2.3716 C   0  0  0  0  0  0  0  0  0  0  0  0
    4.7474   -0.5401    1.2683 C   0  0  0  0  0  0  0  0  0  0  0  0
    3.9519   -0.0068    0.2325 C   0  0  0  0  0  0  0  0  0  0  0  0
    4.5495    0.6026   -0.8865 C   0  0  0  0  0  0  0  0  0  0  0  0
    3.7475    1.1319   -1.8820 C   0  0  0  0  0  0  0  0  0  0  0  0
    2.3663    1.0486   -1.8022 C   0  0  0  0  0  0  0  0  0  0  0  0
    1.7328    0.4295   -0.7258 C   0  0  0  0  0  0  0  0  0  0  0  0
    2.5411   -0.0828    0.3180 C   0  0  0  0  0  0  0  0  0  0  0  0
    6.0134    0.6883   -0.9970 C   0  0  0  0  0  0  0  0  0  0  0  0
    6.5811    1.2011   -1.9393 O   0  0  0  0  0  0  0  0  0  0  0  0
    6.7293    0.1387    0.0535 N   0  0  0  0  0  0  0  0  0  0  0  0
    8.1641    0.2120   -0.0382 C   0  0  0  0  0  0  0  0  0  0  0  0
    8.8618   -0.8833   -0.5419 C   0  0  0  0  0  0  0  0  0  0  0  0
    8.1515   -2.1419   -0.9795 C   0  0  0  0  0  0  0  0  0  0  0  0
    8.5209   -2.5146   -2.4161 C   0  0  0  0  0  0  0  0  0  0  0  0
    8.4709   -3.2775   -0.0043 C   0  0  0  0  0  0  0  0  0  0  0  0
   10.2457   -0.7958   -0.6120 C   0  0  0  0  0  0  0  0  0  0  0  0
   10.9034    0.3504   -0.2101 C   0  0  0  0  0  0  0  0  0  0  0  0
   10.1892    1.4275    0.2771 C   0  0  0  0  0  0  0  0  0  0  0  0
    8.8057    1.3753    0.3806 C   0  0  0  0  0  0  0  0  0  0  0  0
    8.0327    2.5596    0.9099 C   0  0  0  0  0  0  0  0  0  0  0  0
    8.1091    3.7125   -0.0937 C   0  0  0  0  0  0  0  0  0  0  0  0
    8.5414    2.9810    2.2893 C   0  0  0  0  0  0  0  0  0  0  0  0
    6.2136   -0.4724    1.1855 C   0  0  0  0  0  0  0  0  0  0  0  0
    6.9493   -0.9156    2.0436 O   0  0  0  0  0  0  0  0  0  0  0  0
   -1.7371   -0.2514    0.7321 C   0  0  0  0  0  0  0  0  0  0  0  0
   -2.3774   -0.5884    1.9236 C   0  0  0  0  0  0  0  0  0  0  0  0
   -3.7592   -0.6450    2.0147 C   0  0  0  0  0  0  0  0  0  0  0  0
   -4.5552   -0.3634    0.9185 C   0  0  0  0  0  0  0  0  0  0  0  0
   -3.9519    0.0085   -0.2974 C   0  0  0  0  0  0  0  0  0  0  0  0
   -2.5409    0.0758   -0.3869 C   0  0  0  0  0  0  0  0  0  0  0  0
   -6.0193   -0.4415    1.0324 C   0  0  0  0  0  0  0  0  0  0  0  0
   -6.5919   -0.7497    2.0574 O   0  0  0  0  0  0  0  0  0  0  0  0
   -8.4409   -2.7272   -2.5731 H   0  0  0  0  0  0  0  0  0  0  0  0
   -9.4866   -3.7772   -1.6139 H   0  0  0  0  0  0  0  0  0  0  0  0
   -7.8257   -4.2620   -1.9483 H   0  0  0  0  0  0  0  0  0  0  0  0
   -6.9359   -2.4389   -0.6148 H   0  0  0  0  0  0  0  0  0  0  0  0
   -7.7104   -3.0983    1.6427 H   0  0  0  0  0  0  0  0  0  0  0  0
   -9.0884   -3.9446    0.9360 H   0  0  0  0  0  0  0  0  0  0  0  0
   -7.4471   -4.5084    0.6063 H   0  0  0  0  0  0  0  0  0  0  0  0
  -10.6767   -2.4451   -0.2200 H   0  0  0  0  0  0  0  0  0  0  0  0
  -11.9797   -0.4146    0.2096 H   0  0  0  0  0  0  0  0  0  0  0  0
  -10.8529    1.7434    0.4925 H   0  0  0  0  0  0  0  0  0  0  0  0
   -7.1118    2.1306    0.4229 H   0  0  0  0  0  0  0  0  0  0  0  0
   -8.3747    2.2513    2.5609 H   0  0  0  0  0  0  0  0  0  0  0  0
   -8.0110    3.8451    1.8884 H   0  0  0  0  0  0  0  0  0  0  0  0
   -9.6402    3.1857    1.7601 H   0  0  0  0  0  0  0  0  0  0  0  0
   -8.2339    2.7090   -1.7069 H   0  0  0  0  0  0  0  0  0  0  0  0
   -9.5909    3.4035   -0.8174 H   0  0  0  0  0  0  0  0  0  0  0  0
   -7.9887    4.1365   -0.6899 H   0  0  0  0  0  0  0  0  0  0  0  0
   -4.7705    0.9204   -3.4605 H   0  0  0  0  0  0  0  0  0  0  0  0
   -2.3017    1.0873   -3.6344 H   0  0  0  0  0  0  0  0  0  0  0  0
   -0.1273    0.9239   -2.6258 H   0  0  0  0  0  0  0  0  0  0  0  0
    0.1328   -1.1424    2.4706 H   0  0  0  0  0  0  0  0  0  0  0  0
    2.3147   -1.6397    3.3432 H   0  0  0  0  0  0  0  0  0  0  0  0
    4.7851   -1.5293    3.1471 H   0  0  0  0  0  0  0  0  0  0  0  0
    4.2234    1.6114   -2.7243 H   0  0  0  0  0  0  0  0  0  0  0  0
    1.7867    1.4898   -2.5967 H   0  0  0  0  0  0  0  0  0  0  0  0
    7.0697   -1.9718   -0.9535 H   0  0  0  0  0  0  0  0  0  0  0  0
    8.3204   -1.6782   -3.0823 H   0  0  0  0  0  0  0  0  0  0  0  0
    7.9306   -3.3685   -2.7424 H   0  0  0  0  0  0  0  0  0  0  0  0
    9.5723   -2.7767   -2.4973 H   0  0  0  0  0  0  0  0  0  0  0  0
    8.1931   -2.9857    1.0063 H   0  0  0  0  0  0  0  0  0  0  0  0
    7.9184   -4.1749   -0.2752 H   0  0  0  0  0  0  0  0  0  0  0  0
    9.5333   -3.5072   -0.0166 H   0  0  0  0  0  0  0  0  0  0  0  0
   10.8157   -1.6319   -0.9866 H   0  0  0  0  0  0  0  0  0  0  0  0
   11.9802    0.4045   -0.2772 H   0  0  0  0  0  0  0  0  0  0  0  0
   10.7146    2.3190    0.5828 H   0  0  0  0  0  0  0  0  0  0  0  0
    6.9791    2.2808    1.0208 H   0  0  0  0  0  0  0  0  0  0  0  0
    9.1359    4.0482   -0.2159 H   0  0  0  0  0  0  0  0  0  0  0  0
    7.5077    4.5522    0.2488 H   0  0  0  0  0  0  0  0  0  0  0  0
    7.7362    3.3851   -1.0618 H   0  0  0  0  0  0  0  0  0  0  0  0
    9.5614    3.3518    2.2368 H   0  0  0  0  0  0  0  0  0  0  0  0
    8.5157    2.1342    2.9718 H   0  0  0  0  0  0  0  0  0  0  0  0
    7.9118    3.7717    2.6923 H   0  0  0  0  0  0  0  0  0  0  0  0
   -1.8035   -0.8024    2.8105 H   0  0  0  0  0  0  0  0  0  0  0  0
   -4.2403   -0.9110    2.9440 H   0  0  0  0  0  0  0  0  0  0  0  0
  1  2  1  0  0  0  0
  2  3  1  0  0  0  0
  2  4  1  0  0  0  0
  4  5  2  0  0  0  0
  5  6  1  0  0  0  0
  6  7  2  0  0  0  0
  7  8  1  0  0  0  0
  8  9  1  0  0  0  0
  9 10  1  0  0  0  0
  9 11  1  0  0  0  0
  8 12  2  0  0  0  0
 12 13  1  0  0  0  0
 13 14  1  0  0  0  0
 14 15  2  0  0  0  0
 14 16  1  0  0  0  0
 16 17  2  0  0  0  0
 17 18  1  0  0  0  0
 18 19  2  0  0  0  0
 19 20  1  0  0  0  0
 20 21  2  0  0  0  0
 21 22  1  0  0  0  0
 22 23  2  0  0  0  0
 23 24  1  0  0  0  0
 24 25  2  0  0  0  0
 25 26  1  0  0  0  0
 26 27  2  0  0  0  0
 27 28  1  0  0  0  0
 28 29  1  0  0  0  0
 29 30  2  0  0  0  0
 30 31  1  0  0  0  0
 31 32  2  0  0  0  0
 32 33  1  0  0  0  0
 29 34  1  0  0  0  0
 34 35  2  0  0  0  0
 34 36  1  0  0  0  0
 36 37  1  0  0  0  0
 37 38  2  0  0  0  0
 38 39  1  0  0  0  0
 39 40  1  0  0  0  0
 39 41  1  0  0  0  0
 38 42  1  0  0  0  0
 42 43  2  0  0  0  0
 43 44  1  0  0  0  0
 44 45  2  0  0  0  0
 45 46  1  0  0  0  0
 46 47  1  0  0  0  0
 46 48  1  0  0  0  0
 36 49  1  0  0  0  0
 49 50  2  0  0  0  0
 22 51  1  0  0  0  0
 51 52  1  0  0  0  0
 52 53  2  0  0  0  0
 53 54  1  0  0  0  0
 54 55  2  0  0  0  0
 55 56  1  0  0  0  0
 54 57  1  0  0  0  0
 57 58  2  0  0  0  0
 12  4  1  0  0  0  0
 57 13  1  0  0  0  0
 55 16  1  0  0  0  0
 56 19  1  0  0  0  0
 32 21  1  0  0  0  0
 45 37  1  0  0  0  0
 56 51  2  0  0  0  0
 33 24  1  0  0  0  0
 49 27  1  0  0  0  0
 33 28  2  0  0  0  0
  1 59  1  0  0  0  0
  1 60  1  0  0  0  0
  1 61  1  0  0  0  0
  2 62  1  0  0  0  0
  3 63  1  0  0  0  0
  3 64  1  0  0  0  0
  3 65  1  0  0  0  0
  5 66  1  0  0  0  0
  6 67  1  0  0  0  0
  7 68  1  0  0  0  0
  9 69  1  0  0  0  0
 10 70  1  0  0  0  0
 10 71  1  0  0  0  0
 10 72  1  0  0  0  0
 11 73  1  0  0  0  0
 11 74  1  0  0  0  0
 11 75  1  0  0  0  0
 17 76  1  0  0  0  0
 18 77  1  0  0  0  0
 20 78  1  0  0  0  0
 23 79  1  0  0  0  0
 25 80  1  0  0  0  0
 26 81  1  0  0  0  0
 30 82  1  0  0  0  0
 31 83  1  0  0  0  0
 39 84  1  0  0  0  0
 40 85  1  0  0  0  0
 40 86  1  0  0  0  0
 40 87  1  0  0  0  0
 41 88  1  0  0  0  0
 41 89  1  0  0  0  0
 41 90  1  0  0  0  0
 42 91  1  0  0  0  0
 43 92  1  0  0  0  0
 44 93  1  0  0  0  0
 46 94  1  0  0  0  0
 47 95  1  0  0  0  0
 47 96  1  0  0  0  0
 47 97  1  0  0  0  0
 48 98  1  0  0  0  0
 48 99  1  0  0  0  0
 48100  1  0  0  0  0
 52101  1  0  0  0  0
 53102  1  0  0  0  0
M  END
