
  xtb     03022212443D
 energy: -39.122552022397 gnorm: 0.000270361235 xtb: 6.4.1 (afa7bdf)
 12 12  0     0  0            999 V2000
    0.3703    2.6556   -0.0539 O   0  0  0  0  0  0  0  0  0  0  0  0
    0.2039    1.4626   -0.0297 C   0  0  0  0  0  0  0  0  0  0  0  0
    1.3304    0.4966    0.0004 C   0  0  0  0  0  0  0  0  0  0  0  0
    2.8850    1.1946   -0.0016 Cl  0  0  0  0  0  0  0  0  0  0  0  0
    1.1439   -0.8411    0.0276 C   0  0  0  0  0  0  0  0  0  0  0  0
    2.4482   -1.9371    0.0620 Cl  0  0  0  0  0  0  0  0  0  0  0  0
   -0.2040   -1.4626    0.0297 C   0  0  0  0  0  0  0  0  0  0  0  0
   -0.3703   -2.6556    0.0538 O   0  0  0  0  0  0  0  0  0  0  0  0
   -1.3304   -0.4966   -0.0005 C   0  0  0  0  0  0  0  0  0  0  0  0
   -2.8850   -1.1946    0.0016 Cl  0  0  0  0  0  0  0  0  0  0  0  0
   -1.1439    0.8411   -0.0276 C   0  0  0  0  0  0  0  0  0  0  0  0
   -2.4483    1.9371   -0.0620 Cl  0  0  0  0  0  0  0  0  0  0  0  0
  1  2  2  0  0  0  0
  2  3  1  0  0  0  0
  3  4  1  0  0  0  0
  3  5  2  0  0  0  0
  5  6  1  0  0  0  0
  5  7  1  0  0  0  0
  7  8  2  0  0  0  0
  7  9  1  0  0  0  0
  9 10  1  0  0  0  0
  9 11  2  0  0  0  0
 11 12  1  0  0  0  0
 11  2  1  0  0  0  0
M  END
