
  xtb     03022214223D
 energy: -72.579113652759 gnorm: 0.000116386830 xtb: 6.4.1 (afa7bdf)
 41 47  0     0  0            999 V2000
    0.1495   -1.9624   -1.8472 F   0  0  0  0  0  0  0  0  0  0  0  0
    0.0957   -0.6069   -1.5064 B   0  0  0  0  0  4  0  0  0  0  0  0
    0.2407    0.1320   -2.6852 F   0  0  0  0  0  0  0  0  0  0  0  0
   -1.2400   -0.2250   -0.6972 C   0  0  0  0  0  0  0  0  0  0  0  0
   -1.2360    0.2938    0.6013 C   0  0  0  0  0  0  0  0  0  0  0  0
   -0.0573    0.5254    1.3092 C   0  0  0  0  0  0  0  0  0  0  0  0
    1.1580    0.2340    0.7122 C   0  0  0  0  0  0  0  0  0  0  0  0
    2.4906    0.4019    1.2769 C   0  0  0  0  0  0  0  0  0  0  0  0
    3.0458    0.8495    2.4573 C   0  0  0  0  0  0  0  0  0  0  0  0
    4.4450    0.8341    2.5705 C   0  0  0  0  0  0  0  0  0  0  0  0
    5.2842    0.3962    1.5660 C   0  0  0  0  0  0  0  0  0  0  0  0
    4.7507   -0.0685    0.3453 C   0  0  0  0  0  0  0  0  0  0  0  0
    5.4090   -0.5580   -0.8079 C   0  0  0  0  0  0  0  0  0  0  0  0
    4.6729   -0.9626   -1.9000 C   0  0  0  0  0  0  0  0  0  0  0  0
    3.2678   -0.9240   -1.9559 C   0  0  0  0  0  0  0  0  0  0  0  0
    2.6031   -0.4516   -0.8462 C   0  0  0  0  0  0  0  0  0  0  0  0
    3.3597   -0.0395    0.2669 C   0  0  0  0  0  0  0  0  0  0  0  0
    1.2704   -0.2731   -0.5443 N   0  0  0  0  0  0  0  0  0  0  0  0
   -2.6274    0.5119    0.9949 C   0  0  0  0  0  0  0  0  0  0  0  0
   -3.3156    0.9808    2.0930 C   0  0  0  0  0  0  0  0  0  0  0  0
   -4.7184    1.0180    2.0329 C   0  0  0  0  0  0  0  0  0  0  0  0
   -5.4336    0.6083    0.9297 C   0  0  0  0  0  0  0  0  0  0  0  0
   -4.7633    0.1214   -0.2155 C   0  0  0  0  0  0  0  0  0  0  0  0
   -5.3083   -0.3431   -1.4373 C   0  0  0  0  0  0  0  0  0  0  0  0
   -4.4415   -0.7755   -2.4246 C   0  0  0  0  0  0  0  0  0  0  0  0
   -3.0602   -0.7711   -2.2627 C   0  0  0  0  0  0  0  0  0  0  0  0
   -2.5317   -0.3341   -1.1113 N   0  0  0  0  0  4  0  0  0  0  0  0
   -3.3767    0.1005   -0.1164 C   0  0  0  0  0  0  0  0  0  0  0  0
   -0.0764    0.9262    2.3098 H   0  0  0  0  0  0  0  0  0  0  0  0
    2.4432    1.2045    3.2800 H   0  0  0  0  0  0  0  0  0  0  0  0
    4.8828    1.1845    3.4946 H   0  0  0  0  0  0  0  0  0  0  0  0
    6.3543    0.4094    1.7151 H   0  0  0  0  0  0  0  0  0  0  0  0
    6.4876   -0.6128   -0.8280 H   0  0  0  0  0  0  0  0  0  0  0  0
    5.1993   -1.3325   -2.7686 H   0  0  0  0  0  0  0  0  0  0  0  0
    2.7370   -1.2520   -2.8342 H   0  0  0  0  0  0  0  0  0  0  0  0
   -2.8048    1.3142    2.9832 H   0  0  0  0  0  0  0  0  0  0  0  0
   -5.2565    1.3858    2.8945 H   0  0  0  0  0  0  0  0  0  0  0  0
   -6.5120    0.6560    0.9313 H   0  0  0  0  0  0  0  0  0  0  0  0
   -6.3754   -0.3570   -1.5889 H   0  0  0  0  0  0  0  0  0  0  0  0
   -4.8376   -1.1329   -3.3624 H   0  0  0  0  0  0  0  0  0  0  0  0
   -2.3745   -1.1055   -3.0245 H   0  0  0  0  0  0  0  0  0  0  0  0
  1  2  1  0  0  0  0
  2  3  1  0  0  0  0
  2  4  1  0  0  0  0
  4  5  2  0  0  0  0
  5  6  1  0  0  0  0
  6  7  2  0  0  0  0
  7  8  1  0  0  0  0
  8  9  1  0  0  0  0
  9 10  2  0  0  0  0
 10 11  1  0  0  0  0
 11 12  2  0  0  0  0
 12 13  1  0  0  0  0
 13 14  2  0  0  0  0
 14 15  1  0  0  0  0
 15 16  2  0  0  0  0
 16 17  1  0  0  0  0
 16 18  1  0  0  0  0
  5 19  1  0  0  0  0
 19 20  2  0  0  0  0
 20 21  1  0  0  0  0
 21 22  2  0  0  0  0
 22 23  1  0  0  0  0
 23 24  2  0  0  0  0
 24 25  1  0  0  0  0
 25 26  2  0  0  0  0
 26 27  1  0  0  0  0
 27 28  2  0  0  0  0
 18  2  1  0  0  0  0
 28 19  1  0  0  0  0
 27  4  1  0  0  0  0
 18  7  1  0  0  0  0
 28 23  1  0  0  0  0
 17  8  2  0  0  0  0
 17 12  1  0  0  0  0
  6 29  1  0  0  0  0
  9 30  1  0  0  0  0
 10 31  1  0  0  0  0
 11 32  1  0  0  0  0
 13 33  1  0  0  0  0
 14 34  1  0  0  0  0
 15 35  1  0  0  0  0
 20 36  1  0  0  0  0
 21 37  1  0  0  0  0
 22 38  1  0  0  0  0
 24 39  1  0  0  0  0
 25 40  1  0  0  0  0
 26 41  1  0  0  0  0
M  CHG  1   2  -1
M  CHG  1  27   1
M  END
