
  xtb     03022214303D
 energy: -47.290518504675 gnorm: 0.000116105817 xtb: 6.4.1 (afa7bdf)
 27 29  0     0  0            999 V2000
    4.5784   -0.3759    0.0206 C   0  0  0  0  0  0  0  0  0  0  0  0
    3.0847   -0.4313   -0.0486 C   0  0  0  0  0  0  0  0  0  0  0  0
    2.3760   -1.5022   -0.4473 C   0  0  0  0  0  0  0  0  0  0  0  0
    0.9229   -1.5100   -0.5011 C   0  0  0  0  0  0  0  0  0  0  0  0
    0.3098   -2.5029   -0.8720 O   0  0  0  0  0  0  0  0  0  0  0  0
    0.3078   -0.2386   -0.0756 C   0  0  0  0  0  0  0  0  0  0  0  0
    1.1417    0.8020    0.3160 C   0  0  0  0  0  0  0  0  0  0  0  0
    0.6332    2.0492    0.7351 C   0  0  0  0  0  0  0  0  0  0  0  0
   -0.7105    2.2590    0.7648 C   0  0  0  0  0  0  0  0  0  0  0  0
   -1.6095    1.2414    0.3805 C   0  0  0  0  0  0  0  0  0  0  0  0
   -3.0023    1.4549    0.4113 C   0  0  0  0  0  0  0  0  0  0  0  0
   -3.8787    0.4764    0.0420 C   0  0  0  0  0  0  0  0  0  0  0  0
   -3.3857   -0.7723   -0.3789 C   0  0  0  0  0  0  0  0  0  0  0  0
   -4.2893   -1.7164   -0.7369 O   0  0  0  0  0  0  0  0  0  0  0  0
   -2.0303   -1.0086   -0.4192 C   0  0  0  0  0  0  0  0  0  0  0  0
   -1.1083   -0.0191   -0.0443 C   0  0  0  0  0  0  0  0  0  0  0  0
    2.4958    0.7142    0.3308 O   0  0  0  0  0  0  0  0  0  0  0  0
    4.8894    0.5874    0.4155 H   0  0  0  0  0  0  0  0  0  0  0  0
    5.0071   -0.5107   -0.9704 H   0  0  0  0  0  0  0  0  0  0  0  0
    4.9568   -1.1677    0.6631 H   0  0  0  0  0  0  0  0  0  0  0  0
    2.8800   -2.4070   -0.7459 H   0  0  0  0  0  0  0  0  0  0  0  0
    1.3401    2.8107    1.0243 H   0  0  0  0  0  0  0  0  0  0  0  0
   -1.1078    3.2112    1.0845 H   0  0  0  0  0  0  0  0  0  0  0  0
   -3.3689    2.4177    0.7363 H   0  0  0  0  0  0  0  0  0  0  0  0
   -4.9460    0.6292    0.0622 H   0  0  0  0  0  0  0  0  0  0  0  0
   -3.8271   -2.5217   -1.0039 H   0  0  0  0  0  0  0  0  0  0  0  0
   -1.6598   -1.9686   -0.7432 H   0  0  0  0  0  0  0  0  0  0  0  0
  1  2  1  0  0  0  0
  2  3  2  0  0  0  0
  3  4  1  0  0  0  0
  4  5  2  0  0  0  0
  4  6  1  0  0  0  0
  6  7  2  0  0  0  0
  7  8  1  0  0  0  0
  8  9  2  0  0  0  0
  9 10  1  0  0  0  0
 10 11  2  0  0  0  0
 11 12  1  0  0  0  0
 12 13  2  0  0  0  0
 13 14  1  0  0  0  0
 13 15  1  0  0  0  0
 15 16  2  0  0  0  0
  7 17  1  0  0  0  0
 17  2  1  0  0  0  0
 16  6  1  0  0  0  0
 16 10  1  0  0  0  0
  1 18  1  0  0  0  0
  1 19  1  0  0  0  0
  1 20  1  0  0  0  0
  3 21  1  0  0  0  0
  8 22  1  0  0  0  0
  9 23  1  0  0  0  0
 11 24  1  0  0  0  0
 12 25  1  0  0  0  0
 14 26  1  0  0  0  0
 15 27  1  0  0  0  0
M  END
