
  xtb     03022214133D
 energy: -150.558787271847 gnorm: 0.000169613475 xtb: 6.4.1 (afa7bdf)
 96105  0     0  0            999 V2000
  -10.8639    5.4254   -0.9505 C   0  0  0  0  0  0  0  0  0  0  0  0
  -10.1683    4.1304   -0.6592 C   0  0  0  0  0  0  0  0  0  0  0  0
   -8.9616    3.8156   -1.2728 C   0  0  0  0  0  0  0  0  0  0  0  0
   -8.3081    2.6310   -0.9993 C   0  0  0  0  0  0  0  0  0  0  0  0
   -8.8461    1.7247   -0.0868 C   0  0  0  0  0  0  0  0  0  0  0  0
   -8.1922    0.5172    0.1892 N   0  0  0  0  0  0  0  0  0  0  0  0
   -8.9444   -0.6473    0.3910 C   0  0  0  0  0  0  0  0  0  0  0  0
  -10.0927   -0.8903   -0.3604 C   0  0  0  0  0  0  0  0  0  0  0  0
  -10.8374   -2.0328   -0.1455 C   0  0  0  0  0  0  0  0  0  0  0  0
  -10.4613   -2.9677    0.8114 C   0  0  0  0  0  0  0  0  0  0  0  0
  -11.2597   -4.2180    1.0230 C   0  0  0  0  0  0  0  0  0  0  0  0
   -9.3119   -2.7221    1.5533 C   0  0  0  0  0  0  0  0  0  0  0  0
   -8.5633   -1.5796    1.3548 C   0  0  0  0  0  0  0  0  0  0  0  0
   -6.8012    0.4733    0.2598 C   0  0  0  0  0  0  0  0  0  0  0  0
   -6.0996   -0.6462   -0.1938 C   0  0  0  0  0  0  0  0  0  0  0  0
   -4.7246   -0.6825   -0.1311 C   0  0  0  0  0  0  0  0  0  0  0  0
   -3.9979    0.3879    0.3949 C   0  0  0  0  0  0  0  0  0  0  0  0
   -2.5385    0.3429    0.4439 C   0  0  0  0  0  0  0  0  0  0  0  0
   -1.7971   -0.2809   -0.5300 C   0  0  0  0  0  0  0  0  0  0  0  0
   -0.3867   -0.3370   -0.5080 C   0  0  0  0  0  0  0  0  0  0  0  0
    0.3711    0.2346    0.5289 C   0  0  0  0  0  0  0  0  0  0  0  0
    1.7810    0.1778    0.5508 C   0  0  0  0  0  0  0  0  0  0  0  0
    2.5270   -0.4250   -0.4347 C   0  0  0  0  0  0  0  0  0  0  0  0
    3.9857   -0.4526   -0.3942 C   0  0  0  0  0  0  0  0  0  0  0  0
    4.7101   -1.4973   -0.9733 C   0  0  0  0  0  0  0  0  0  0  0  0
    6.0854   -1.5225   -0.9246 C   0  0  0  0  0  0  0  0  0  0  0  0
    6.7959   -0.4955   -0.2987 C   0  0  0  0  0  0  0  0  0  0  0  0
    8.1872   -0.5143   -0.2559 N   0  0  0  0  0  0  0  0  0  0  0  0
    8.8660   -0.0089    0.8606 C   0  0  0  0  0  0  0  0  0  0  0  0
    8.3659   -0.2096    2.1463 C   0  0  0  0  0  0  0  0  0  0  0  0
    9.0417    0.2876    3.2422 C   0  0  0  0  0  0  0  0  0  0  0  0
   10.2334    0.9884    3.0961 C   0  0  0  0  0  0  0  0  0  0  0  0
   10.9742    1.4984    4.2947 C   0  0  0  0  0  0  0  0  0  0  0  0
   10.7284    1.1817    1.8123 C   0  0  0  0  0  0  0  0  0  0  0  0
   10.0576    0.6973    0.7070 C   0  0  0  0  0  0  0  0  0  0  0  0
    8.9189   -1.0334   -1.3323 C   0  0  0  0  0  0  0  0  0  0  0  0
   10.0831   -1.7664   -1.1103 C   0  0  0  0  0  0  0  0  0  0  0  0
   10.8080   -2.2629   -2.1755 C   0  0  0  0  0  0  0  0  0  0  0  0
   10.3950   -2.0554   -3.4857 C   0  0  0  0  0  0  0  0  0  0  0  0
   11.1952   -2.5772   -4.6402 C   0  0  0  0  0  0  0  0  0  0  0  0
    9.2293   -1.3287   -3.6999 C   0  0  0  0  0  0  0  0  0  0  0  0
    8.5004   -0.8191   -2.6447 C   0  0  0  0  0  0  0  0  0  0  0  0
    6.0776    0.5554    0.2775 C   0  0  0  0  0  0  0  0  0  0  0  0
    4.7023    0.5721    0.2311 C   0  0  0  0  0  0  0  0  0  0  0  0
    1.7955   -1.0179   -1.5064 C   0  0  0  0  0  0  0  0  0  0  0  0
    2.2883   -1.6385   -2.5746 N   0  0  0  0  0  0  0  0  0  0  0  0
    1.0732   -2.1194   -3.5166 S   0  0  0  0  0  0  0  0  0  0  0  0
   -0.1439   -1.5619   -2.6184 N   0  0  0  0  0  0  0  0  0  0  0  0
    0.3571   -0.9703   -1.5402 C   0  0  0  0  0  0  0  0  0  0  0  0
   -0.3715    0.8795    1.5556 C   0  0  0  0  0  0  0  0  0  0  0  0
    0.1271    1.4775    2.6315 N   0  0  0  0  0  0  0  0  0  0  0  0
   -1.0912    2.0634    3.5106 S   0  0  0  0  0  0  0  0  0  0  0  0
   -2.3042    1.5875    2.5634 N   0  0  0  0  0  0  0  0  0  0  0  0
   -1.8085    0.9454    1.5095 C   0  0  0  0  0  0  0  0  0  0  0  0
   -4.7043    1.4984    0.8596 C   0  0  0  0  0  0  0  0  0  0  0  0
   -6.0787    1.5454    0.7882 C   0  0  0  0  0  0  0  0  0  0  0  0
  -10.0528    2.0373    0.5366 C   0  0  0  0  0  0  0  0  0  0  0  0
  -10.7008    3.2215    0.2472 C   0  0  0  0  0  0  0  0  0  0  0  0
  -10.5142    6.2001   -0.2667 H   0  0  0  0  0  0  0  0  0  0  0  0
  -11.9394    5.3255   -0.8230 H   0  0  0  0  0  0  0  0  0  0  0  0
  -10.6575    5.7563   -1.9658 H   0  0  0  0  0  0  0  0  0  0  0  0
   -8.5313    4.5046   -1.9856 H   0  0  0  0  0  0  0  0  0  0  0  0
   -7.3778    2.3966   -1.4957 H   0  0  0  0  0  0  0  0  0  0  0  0
  -10.3964   -0.1773   -1.1129 H   0  0  0  0  0  0  0  0  0  0  0  0
  -11.7251   -2.2046   -0.7377 H   0  0  0  0  0  0  0  0  0  0  0  0
  -11.1934   -4.5496    2.0568 H   0  0  0  0  0  0  0  0  0  0  0  0
  -12.3052   -4.0586    0.7693 H   0  0  0  0  0  0  0  0  0  0  0  0
  -10.8771   -5.0184    0.3882 H   0  0  0  0  0  0  0  0  0  0  0  0
   -9.0033   -3.4323    2.3072 H   0  0  0  0  0  0  0  0  0  0  0  0
   -7.6801   -1.3981    1.9497 H   0  0  0  0  0  0  0  0  0  0  0  0
   -6.6451   -1.4849   -0.6011 H   0  0  0  0  0  0  0  0  0  0  0  0
   -4.2045   -1.5627   -0.4785 H   0  0  0  0  0  0  0  0  0  0  0  0
   -2.2870   -0.7363   -1.3769 H   0  0  0  0  0  0  0  0  0  0  0  0
    2.2665    0.6234    1.4051 H   0  0  0  0  0  0  0  0  0  0  0  0
    4.1812   -2.3041   -1.4541 H   0  0  0  0  0  0  0  0  0  0  0  0
    6.6260   -2.3471   -1.3657 H   0  0  0  0  0  0  0  0  0  0  0  0
    7.4464   -0.7607    2.2789 H   0  0  0  0  0  0  0  0  0  0  0  0
    8.6405    0.1210    4.2317 H   0  0  0  0  0  0  0  0  0  0  0  0
   11.6042    0.7100    4.7087 H   0  0  0  0  0  0  0  0  0  0  0  0
   11.6142    2.3362    4.0281 H   0  0  0  0  0  0  0  0  0  0  0  0
   10.2820    1.8155    5.0717 H   0  0  0  0  0  0  0  0  0  0  0  0
   11.6502    1.7284    1.6734 H   0  0  0  0  0  0  0  0  0  0  0  0
   10.4518    0.8653   -0.2846 H   0  0  0  0  0  0  0  0  0  0  0  0
   10.4137   -1.9454   -0.0976 H   0  0  0  0  0  0  0  0  0  0  0  0
   11.7077   -2.8301   -1.9838 H   0  0  0  0  0  0  0  0  0  0  0  0
   11.8624   -1.7997   -5.0145 H   0  0  0  0  0  0  0  0  0  0  0  0
   11.8031   -3.4271   -4.3390 H   0  0  0  0  0  0  0  0  0  0  0  0
   10.5439   -2.8802   -5.4572 H   0  0  0  0  0  0  0  0  0  0  0  0
    8.8911   -1.1517   -4.7109 H   0  0  0  0  0  0  0  0  0  0  0  0
    7.6021   -0.2486   -2.8303 H   0  0  0  0  0  0  0  0  0  0  0  0
    6.6128    1.3669    0.7488 H   0  0  0  0  0  0  0  0  0  0  0  0
    4.1750    1.4136    0.6546 H   0  0  0  0  0  0  0  0  0  0  0  0
   -4.1639    2.3317    1.2793 H   0  0  0  0  0  0  0  0  0  0  0  0
   -6.6091    2.4141    1.1498 H   0  0  0  0  0  0  0  0  0  0  0  0
  -10.4782    1.3451    1.2484 H   0  0  0  0  0  0  0  0  0  0  0  0
  -11.6357    3.4468    0.7401 H   0  0  0  0  0  0  0  0  0  0  0  0
  1  2  1  0  0  0  0
  2  3  2  0  0  0  0
  3  4  1  0  0  0  0
  4  5  2  0  0  0  0
  5  6  1  0  0  0  0
  6  7  1  0  0  0  0
  7  8  2  0  0  0  0
  8  9  1  0  0  0  0
  9 10  2  0  0  0  0
 10 11  1  0  0  0  0
 10 12  1  0  0  0  0
 12 13  2  0  0  0  0
  6 14  1  0  0  0  0
 14 15  2  0  0  0  0
 15 16  1  0  0  0  0
 16 17  2  0  0  0  0
 17 18  1  0  0  0  0
 18 19  2  0  0  0  0
 19 20  1  0  0  0  0
 20 21  2  0  0  0  0
 21 22  1  0  0  0  0
 22 23  2  0  0  0  0
 23 24  1  0  0  0  0
 24 25  2  0  0  0  0
 25 26  1  0  0  0  0
 26 27  2  0  0  0  0
 27 28  1  0  0  0  0
 28 29  1  0  0  0  0
 29 30  2  0  0  0  0
 30 31  1  0  0  0  0
 31 32  2  0  0  0  0
 32 33  1  0  0  0  0
 32 34  1  0  0  0  0
 34 35  2  0  0  0  0
 28 36  1  0  0  0  0
 36 37  2  0  0  0  0
 37 38  1  0  0  0  0
 38 39  2  0  0  0  0
 39 40  1  0  0  0  0
 39 41  1  0  0  0  0
 41 42  2  0  0  0  0
 27 43  1  0  0  0  0
 43 44  2  0  0  0  0
 23 45  1  0  0  0  0
 45 46  2  0  0  0  0
 46 47  1  0  0  0  0
 47 48  1  0  0  0  0
 48 49  2  0  0  0  0
 21 50  1  0  0  0  0
 50 51  2  0  0  0  0
 51 52  1  0  0  0  0
 52 53  1  0  0  0  0
 53 54  2  0  0  0  0
 17 55  1  0  0  0  0
 55 56  2  0  0  0  0
  5 57  1  0  0  0  0
 57 58  2  0  0  0  0
 58  2  1  0  0  0  0
 13  7  1  0  0  0  0
 56 14  1  0  0  0  0
 54 18  1  0  0  0  0
 49 20  1  0  0  0  0
 54 50  1  0  0  0  0
 44 24  1  0  0  0  0
 49 45  1  0  0  0  0
 35 29  1  0  0  0  0
 42 36  1  0  0  0  0
  1 59  1  0  0  0  0
  1 60  1  0  0  0  0
  1 61  1  0  0  0  0
  3 62  1  0  0  0  0
  4 63  1  0  0  0  0
  8 64  1  0  0  0  0
  9 65  1  0  0  0  0
 11 66  1  0  0  0  0
 11 67  1  0  0  0  0
 11 68  1  0  0  0  0
 12 69  1  0  0  0  0
 13 70  1  0  0  0  0
 15 71  1  0  0  0  0
 16 72  1  0  0  0  0
 19 73  1  0  0  0  0
 22 74  1  0  0  0  0
 25 75  1  0  0  0  0
 26 76  1  0  0  0  0
 30 77  1  0  0  0  0
 31 78  1  0  0  0  0
 33 79  1  0  0  0  0
 33 80  1  0  0  0  0
 33 81  1  0  0  0  0
 34 82  1  0  0  0  0
 35 83  1  0  0  0  0
 37 84  1  0  0  0  0
 38 85  1  0  0  0  0
 40 86  1  0  0  0  0
 40 87  1  0  0  0  0
 40 88  1  0  0  0  0
 41 89  1  0  0  0  0
 42 90  1  0  0  0  0
 43 91  1  0  0  0  0
 44 92  1  0  0  0  0
 55 93  1  0  0  0  0
 56 94  1  0  0  0  0
 57 95  1  0  0  0  0
 58 96  1  0  0  0  0
M  END
