
  xtb     03022214103D
 energy: -77.854670100309 gnorm: 0.000073155083 xtb: 6.4.1 (afa7bdf)
 51 54  0     0  0            999 V2000
    7.1531    1.0285    0.3866 C   0  0  0  0  0  0  0  0  0  0  0  0
    6.3923    1.7197   -0.5729 O   0  0  0  0  0  0  0  0  0  0  0  0
    5.0464    1.5052   -0.6133 C   0  0  0  0  0  0  0  0  0  0  0  0
    4.3390    2.2492   -1.5605 C   0  0  0  0  0  0  0  0  0  0  0  0
    2.9767    2.1072   -1.6901 C   0  0  0  0  0  0  0  0  0  0  0  0
    2.2767    1.2161   -0.8760 C   0  0  0  0  0  0  0  0  0  0  0  0
    0.8909    1.0996   -1.0296 N   0  0  0  0  0  0  0  0  0  0  0  0
    0.1224    0.0497   -0.5848 C   0  0  0  0  0  0  0  0  0  0  0  0
   -1.0219    0.3875   -0.0059 N   0  0  0  0  0  0  0  0  0  0  0  0
   -1.8633   -0.5339    0.4181 C   0  0  0  0  0  0  0  0  0  0  0  0
   -3.1026   -0.1673    1.0476 C   0  0  0  0  0  0  0  0  0  0  0  0
   -3.4697    1.1090    1.2495 C   0  0  0  0  0  0  0  0  0  0  0  0
   -4.6858    1.5675    1.8839 C   0  0  0  0  0  0  0  0  0  0  0  0
   -4.9002    2.9438    2.0152 C   0  0  0  0  0  0  0  0  0  0  0  0
   -6.0416    3.4326    2.6187 C   0  0  0  0  0  0  0  0  0  0  0  0
   -6.9984    2.5572    3.1065 C   0  0  0  0  0  0  0  0  0  0  0  0
   -6.8025    1.1903    2.9836 C   0  0  0  0  0  0  0  0  0  0  0  0
   -5.6624    0.6983    2.3806 C   0  0  0  0  0  0  0  0  0  0  0  0
   -1.5890   -1.8717    0.2919 N   0  0  0  0  0  4  0  0  0  0  0  0
   -2.3868   -2.7587    0.7267 O   0  0  0  0  0  1  0  0  0  0  0  0
   -0.4441   -2.2453   -0.3505 C   0  0  0  0  0  0  0  0  0  0  0  0
    0.4428   -1.3031   -0.8279 C   0  0  0  0  0  0  0  0  0  0  0  0
    1.6324   -1.7164   -1.6446 C   0  0  0  0  0  0  0  0  0  0  0  0
    1.4536   -3.1203   -2.2140 C   0  0  0  0  0  0  0  0  0  0  0  0
    1.0977   -4.0805   -1.0849 C   0  0  0  0  0  0  0  0  0  0  0  0
   -0.2691   -3.7186   -0.5202 C   0  0  0  0  0  0  0  0  0  0  0  0
    2.9780    0.4962    0.0836 C   0  0  0  0  0  0  0  0  0  0  0  0
    4.3506    0.6298    0.2110 C   0  0  0  0  0  0  0  0  0  0  0  0
    6.8341    1.2725    1.4053 H   0  0  0  0  0  0  0  0  0  0  0  0
    8.1802    1.3603    0.2432 H   0  0  0  0  0  0  0  0  0  0  0  0
    7.1004   -0.0553    0.2389 H   0  0  0  0  0  0  0  0  0  0  0  0
    4.8879    2.9356   -2.1851 H   0  0  0  0  0  0  0  0  0  0  0  0
    2.4389    2.6888   -2.4237 H   0  0  0  0  0  0  0  0  0  0  0  0
    0.3816    1.9733   -1.0530 H   0  0  0  0  0  0  0  0  0  0  0  0
   -3.7060   -1.0099    1.3509 H   0  0  0  0  0  0  0  0  0  0  0  0
   -2.7907    1.8809    0.9104 H   0  0  0  0  0  0  0  0  0  0  0  0
   -4.1559    3.6305    1.6369 H   0  0  0  0  0  0  0  0  0  0  0  0
   -6.1880    4.4992    2.7111 H   0  0  0  0  0  0  0  0  0  0  0  0
   -7.8916    2.9374    3.5799 H   0  0  0  0  0  0  0  0  0  0  0  0
   -7.5465    0.5047    3.3628 H   0  0  0  0  0  0  0  0  0  0  0  0
   -5.5256   -0.3681    2.2941 H   0  0  0  0  0  0  0  0  0  0  0  0
    1.7790   -0.9884   -2.4461 H   0  0  0  0  0  0  0  0  0  0  0  0
    2.5350   -1.6930   -1.0264 H   0  0  0  0  0  0  0  0  0  0  0  0
    2.3748   -3.4330   -2.7079 H   0  0  0  0  0  0  0  0  0  0  0  0
    0.6536   -3.1202   -2.9572 H   0  0  0  0  0  0  0  0  0  0  0  0
    1.0840   -5.1102   -1.4443 H   0  0  0  0  0  0  0  0  0  0  0  0
    1.8548   -4.0087   -0.3011 H   0  0  0  0  0  0  0  0  0  0  0  0
   -1.0682   -4.0739   -1.1796 H   0  0  0  0  0  0  0  0  0  0  0  0
   -0.4479   -4.1956    0.4478 H   0  0  0  0  0  0  0  0  0  0  0  0
    2.4421   -0.1539    0.7594 H   0  0  0  0  0  0  0  0  0  0  0  0
    4.8586    0.0549    0.9691 H   0  0  0  0  0  0  0  0  0  0  0  0
  1  2  1  0  0  0  0
  2  3  1  0  0  0  0
  3  4  2  0  0  0  0
  4  5  1  0  0  0  0
  5  6  2  0  0  0  0
  6  7  1  0  0  0  0
  7  8  1  0  0  0  0
  8  9  2  0  0  0  0
  9 10  1  0  0  0  0
 10 11  1  0  0  0  0
 11 12  2  0  0  0  0
 12 13  1  0  0  0  0
 13 14  2  0  0  0  0
 14 15  1  0  0  0  0
 15 16  2  0  0  0  0
 16 17  1  0  0  0  0
 17 18  2  0  0  0  0
 10 19  2  0  0  0  0
 19 20  1  0  0  0  0
 19 21  1  0  0  0  0
 21 22  2  0  0  0  0
 22 23  1  0  0  0  0
 23 24  1  0  0  0  0
 24 25  1  0  0  0  0
 25 26  1  0  0  0  0
  6 27  1  0  0  0  0
 27 28  2  0  0  0  0
 28  3  1  0  0  0  0
 22  8  1  0  0  0  0
 18 13  1  0  0  0  0
 26 21  1  0  0  0  0
  1 29  1  0  0  0  0
  1 30  1  0  0  0  0
  1 31  1  0  0  0  0
  4 32  1  0  0  0  0
  5 33  1  0  0  0  0
  7 34  1  0  0  0  0
 11 35  1  0  0  0  0
 12 36  1  0  0  0  0
 14 37  1  0  0  0  0
 15 38  1  0  0  0  0
 16 39  1  0  0  0  0
 17 40  1  0  0  0  0
 18 41  1  0  0  0  0
 23 42  1  0  0  0  0
 23 43  1  0  0  0  0
 24 44  1  0  0  0  0
 24 45  1  0  0  0  0
 25 46  1  0  0  0  0
 25 47  1  0  0  0  0
 26 48  1  0  0  0  0
 26 49  1  0  0  0  0
 27 50  1  0  0  0  0
 28 51  1  0  0  0  0
M  CHG  1  19   1
M  CHG  1  20  -1
M  END
