
  xtb     03022214263D
 energy: -167.226188411198 gnorm: 0.000528855934 xtb: 6.4.1 (afa7bdf)
108115  0     0  0            999 V2000
   -8.7251    4.4431    3.6406 C   0  0  0  0  0  0  0  0  0  0  0  0
   -9.4817    3.7861    2.4925 C   0  0  0  0  0  0  0  0  0  0  0  0
   -8.9903    2.3651    2.2274 C   0  0  0  0  0  0  0  0  0  0  0  0
   -9.7469    1.6940    1.0837 C   0  0  0  0  0  0  0  0  0  0  0  0
   -9.2452    0.2748    0.8294 C   0  0  0  0  0  0  0  0  0  0  0  0
  -10.0078   -0.4075   -0.3039 C   0  0  0  0  0  0  0  0  0  0  0  0
   -9.5844   -1.8598   -0.5303 C   0  0  0  0  0  0  0  0  0  0  0  0
   -8.1953   -2.0140   -1.1455 C   0  0  0  0  0  0  0  0  0  0  0  0
   -7.2227   -1.7166   -0.1623 O   0  0  0  0  0  0  0  0  0  0  0  0
   -5.9151   -1.7152   -0.4991 C   0  0  0  0  0  0  0  0  0  0  0  0
   -5.0278   -1.2983    0.5015 C   0  0  0  0  0  0  0  0  0  0  0  0
   -3.6776   -1.2505    0.2674 C   0  0  0  0  0  0  0  0  0  0  0  0
   -3.1498   -1.6078   -0.9854 C   0  0  0  0  0  0  0  0  0  0  0  0
   -1.7252   -1.5125   -1.1782 C   0  0  0  0  0  0  0  0  0  0  0  0
   -0.7386   -1.5788   -0.1909 C   0  0  0  0  0  0  0  0  0  0  0  0
   -0.4811   -1.7623    1.1913 C   0  0  0  0  0  0  0  0  0  0  0  0
    0.8904   -1.8059    1.3592 N   0  0  0  0  0  0  0  0  0  0  0  0
    1.5274   -1.6152    0.1547 C   0  0  0  0  0  0  0  0  0  0  0  0
    2.9534   -1.5728   -0.0451 C   0  0  0  0  0  0  0  0  0  0  0  0
    3.4521   -0.8392   -1.1346 C   0  0  0  0  0  0  0  0  0  0  0  0
    4.8021   -0.7358   -1.3532 C   0  0  0  0  0  0  0  0  0  0  0  0
    5.7197   -1.3656   -0.5028 C   0  0  0  0  0  0  0  0  0  0  0  0
    7.0228   -1.1943   -0.8234 O   0  0  0  0  0  0  0  0  0  0  0  0
    8.0364   -1.5819    0.0828 C   0  0  0  0  0  0  0  0  0  0  0  0
    8.1226   -0.6608    1.3042 C   0  0  0  0  0  0  0  0  0  0  0  0
    8.2299    0.8174    0.9262 C   0  0  0  0  0  0  0  0  0  0  0  0
    9.5270    1.1752    0.2046 C   0  0  0  0  0  0  0  0  0  0  0  0
    9.6181    2.6738   -0.0754 C   0  0  0  0  0  0  0  0  0  0  0  0
   10.8941    3.0320   -0.8341 C   0  0  0  0  0  0  0  0  0  0  0  0
   11.0596    4.5340   -1.0681 C   0  0  0  0  0  0  0  0  0  0  0  0
   10.0275    5.1089   -2.0314 C   0  0  0  0  0  0  0  0  0  0  0  0
    5.2308   -2.1297    0.5552 C   0  0  0  0  0  0  0  0  0  0  0  0
    3.8733   -2.2315    0.7757 C   0  0  0  0  0  0  0  0  0  0  0  0
    0.5379   -1.4536   -0.8181 C   0  0  0  0  0  0  0  0  0  0  0  0
    0.2810   -1.2546   -2.1980 C   0  0  0  0  0  0  0  0  0  0  0  0
   -1.0873   -1.3221   -2.3826 N   0  0  0  0  0  0  0  0  0  0  0  0
   -1.6672   -1.1262   -3.7890 B   0  0  0  0  0  4  0  0  0  0  0  0
   -2.0957   -2.3231   -4.3452 F   0  0  0  0  0  0  0  0  0  0  0  0
   -2.6899   -0.2051   -3.8090 F   0  0  0  0  0  0  0  0  0  0  0  0
   -0.5221   -0.6054   -4.7362 N   0  0  0  0  0  4  0  0  0  0  0  0
   -0.8671   -0.2169   -5.9703 C   0  0  0  0  0  0  0  0  0  0  0  0
    0.0635    0.1300   -6.9120 C   0  0  0  0  0  0  0  0  0  0  0  0
    1.4225    0.0628   -6.5720 C   0  0  0  0  0  0  0  0  0  0  0  0
    1.7784   -0.3267   -5.3111 C   0  0  0  0  0  0  0  0  0  0  0  0
    0.7824   -0.6615   -4.3663 C   0  0  0  0  0  0  0  0  0  0  0  0
    1.1600   -0.9830   -3.1324 N   0  0  0  0  0  0  0  0  0  0  0  0
    1.4717   -1.9894    2.7662 B   0  0  0  0  0  4  0  0  0  0  0  0
    2.4505   -1.0649    3.0534 F   0  0  0  0  0  0  0  0  0  0  0  0
    1.9613   -3.2733    2.9610 F   0  0  0  0  0  0  0  0  0  0  0  0
    0.3105   -1.8148    3.8150 N   0  0  0  0  0  4  0  0  0  0  0  0
    0.6456   -1.7734    5.1108 C   0  0  0  0  0  0  0  0  0  0  0  0
   -0.2935   -1.7577    6.1063 C   0  0  0  0  0  0  0  0  0  0  0  0
   -1.6501   -1.7979    5.7526 C   0  0  0  0  0  0  0  0  0  0  0  0
   -1.9963   -1.8318    4.4307 C   0  0  0  0  0  0  0  0  0  0  0  0
   -0.9926   -1.8326    3.4360 C   0  0  0  0  0  0  0  0  0  0  0  0
   -1.3644   -1.8118    2.1593 N   0  0  0  0  0  0  0  0  0  0  0  0
   -4.0393   -2.0501   -1.9685 C   0  0  0  0  0  0  0  0  0  0  0  0
   -5.3979   -2.1024   -1.7336 C   0  0  0  0  0  0  0  0  0  0  0  0
   -8.8507    3.8703    4.5572 H   0  0  0  0  0  0  0  0  0  0  0  0
   -7.6622    4.4964    3.4148 H   0  0  0  0  0  0  0  0  0  0  0  0
   -9.0904    5.4527    3.8143 H   0  0  0  0  0  0  0  0  0  0  0  0
  -10.5481    3.7605    2.7289 H   0  0  0  0  0  0  0  0  0  0  0  0
   -9.3586    4.3849    1.5872 H   0  0  0  0  0  0  0  0  0  0  0  0
   -7.9249    2.3918    1.9871 H   0  0  0  0  0  0  0  0  0  0  0  0
   -9.1085    1.7691    3.1357 H   0  0  0  0  0  0  0  0  0  0  0  0
  -10.8131    1.6665    1.3232 H   0  0  0  0  0  0  0  0  0  0  0  0
   -9.6294    2.2892    0.1749 H   0  0  0  0  0  0  0  0  0  0  0  0
   -8.1828    0.3068    0.5892 H   0  0  0  0  0  0  0  0  0  0  0  0
   -9.3586   -0.3164    1.7409 H   0  0  0  0  0  0  0  0  0  0  0  0
   -9.8694    0.1574   -1.2290 H   0  0  0  0  0  0  0  0  0  0  0  0
  -11.0750   -0.3940   -0.0679 H   0  0  0  0  0  0  0  0  0  0  0  0
  -10.2975   -2.3374   -1.2052 H   0  0  0  0  0  0  0  0  0  0  0  0
   -9.6006   -2.3970    0.4192 H   0  0  0  0  0  0  0  0  0  0  0  0
   -8.0628   -3.0475   -1.4957 H   0  0  0  0  0  0  0  0  0  0  0  0
   -8.0835   -1.3365   -2.0027 H   0  0  0  0  0  0  0  0  0  0  0  0
   -5.4382   -1.0126    1.4574 H   0  0  0  0  0  0  0  0  0  0  0  0
   -3.0070   -0.9368    1.0494 H   0  0  0  0  0  0  0  0  0  0  0  0
    2.7600   -0.3531   -1.8012 H   0  0  0  0  0  0  0  0  0  0  0  0
    5.1890   -0.1628   -2.1813 H   0  0  0  0  0  0  0  0  0  0  0  0
    7.9026   -2.6233    0.4002 H   0  0  0  0  0  0  0  0  0  0  0  0
    8.9570   -1.5215   -0.5022 H   0  0  0  0  0  0  0  0  0  0  0  0
    8.9906   -0.9615    1.8940 H   0  0  0  0  0  0  0  0  0  0  0  0
    7.2297   -0.7958    1.9182 H   0  0  0  0  0  0  0  0  0  0  0  0
    7.3811    1.0816    0.2922 H   0  0  0  0  0  0  0  0  0  0  0  0
    8.1565    1.4115    1.8400 H   0  0  0  0  0  0  0  0  0  0  0  0
   10.3804    0.8659    0.8137 H   0  0  0  0  0  0  0  0  0  0  0  0
    9.5799    0.6390   -0.7443 H   0  0  0  0  0  0  0  0  0  0  0  0
    9.5940    3.2223    0.8695 H   0  0  0  0  0  0  0  0  0  0  0  0
    8.7457    2.9747   -0.6574 H   0  0  0  0  0  0  0  0  0  0  0  0
   10.8979    2.5164   -1.7975 H   0  0  0  0  0  0  0  0  0  0  0  0
   11.7539    2.6704   -0.2639 H   0  0  0  0  0  0  0  0  0  0  0  0
   10.9943    5.0573   -0.1114 H   0  0  0  0  0  0  0  0  0  0  0  0
   12.0579    4.7139   -1.4747 H   0  0  0  0  0  0  0  0  0  0  0  0
   10.0513    4.5734   -2.9782 H   0  0  0  0  0  0  0  0  0  0  0  0
   10.2370    6.1583   -2.2264 H   0  0  0  0  0  0  0  0  0  0  0  0
    9.0247    5.0358   -1.6193 H   0  0  0  0  0  0  0  0  0  0  0  0
    5.9007   -2.6616    1.2122 H   0  0  0  0  0  0  0  0  0  0  0  0
    3.5351   -2.8556    1.5817 H   0  0  0  0  0  0  0  0  0  0  0  0
   -1.9282   -0.1993   -6.1682 H   0  0  0  0  0  0  0  0  0  0  0  0
   -0.2492    0.4394   -7.8951 H   0  0  0  0  0  0  0  0  0  0  0  0
    2.1754    0.3191   -7.3021 H   0  0  0  0  0  0  0  0  0  0  0  0
    2.8041   -0.3936   -4.9889 H   0  0  0  0  0  0  0  0  0  0  0  0
    1.7059   -1.7561    5.3123 H   0  0  0  0  0  0  0  0  0  0  0  0
    0.0113   -1.7238    7.1387 H   0  0  0  0  0  0  0  0  0  0  0  0
   -2.4088   -1.8001    6.5206 H   0  0  0  0  0  0  0  0  0  0  0  0
   -3.0198   -1.8583    4.0964 H   0  0  0  0  0  0  0  0  0  0  0  0
   -3.6760   -2.3878   -2.9208 H   0  0  0  0  0  0  0  0  0  0  0  0
   -6.0473   -2.4550   -2.5192 H   0  0  0  0  0  0  0  0  0  0  0  0
  1  2  1  0  0  0  0
  2  3  1  0  0  0  0
  3  4  1  0  0  0  0
  4  5  1  0  0  0  0
  5  6  1  0  0  0  0
  6  7  1  0  0  0  0
  7  8  1  0  0  0  0
  8  9  1  0  0  0  0
  9 10  1  0  0  0  0
 10 11  2  0  0  0  0
 11 12  1  0  0  0  0
 12 13  2  0  0  0  0
 13 14  1  0  0  0  0
 14 15  2  0  0  0  0
 15 16  1  0  0  0  0
 16 17  1  0  0  0  0
 17 18  1  0  0  0  0
 18 19  1  0  0  0  0
 19 20  2  0  0  0  0
 20 21  1  0  0  0  0
 21 22  2  0  0  0  0
 22 23  1  0  0  0  0
 23 24  1  0  0  0  0
 24 25  1  0  0  0  0
 25 26  1  0  0  0  0
 26 27  1  0  0  0  0
 27 28  1  0  0  0  0
 28 29  1  0  0  0  0
 29 30  1  0  0  0  0
 30 31  1  0  0  0  0
 22 32  1  0  0  0  0
 32 33  2  0  0  0  0
 18 34  2  0  0  0  0
 34 35  1  0  0  0  0
 35 36  1  0  0  0  0
 36 37  1  0  0  0  0
 37 38  1  0  0  0  0
 37 39  1  0  0  0  0
 37 40  1  0  0  0  0
 40 41  2  0  0  0  0
 41 42  1  0  0  0  0
 42 43  2  0  0  0  0
 43 44  1  0  0  0  0
 44 45  2  0  0  0  0
 45 46  1  0  0  0  0
 17 47  1  0  0  0  0
 47 48  1  0  0  0  0
 47 49  1  0  0  0  0
 47 50  1  0  0  0  0
 50 51  2  0  0  0  0
 51 52  1  0  0  0  0
 52 53  2  0  0  0  0
 53 54  1  0  0  0  0
 54 55  2  0  0  0  0
 55 56  1  0  0  0  0
 13 57  1  0  0  0  0
 57 58  2  0  0  0  0
 58 10  1  0  0  0  0
 36 14  1  0  0  0  0
 45 40  1  0  0  0  0
 55 50  1  0  0  0  0
 34 15  1  0  0  0  0
 46 35  2  0  0  0  0
 56 16  2  0  0  0  0
 33 19  1  0  0  0  0
  1 59  1  0  0  0  0
  1 60  1  0  0  0  0
  1 61  1  0  0  0  0
  2 62  1  0  0  0  0
  2 63  1  0  0  0  0
  3 64  1  0  0  0  0
  3 65  1  0  0  0  0
  4 66  1  0  0  0  0
  4 67  1  0  0  0  0
  5 68  1  0  0  0  0
  5 69  1  0  0  0  0
  6 70  1  0  0  0  0
  6 71  1  0  0  0  0
  7 72  1  0  0  0  0
  7 73  1  0  0  0  0
  8 74  1  0  0  0  0
  8 75  1  0  0  0  0
 11 76  1  0  0  0  0
 12 77  1  0  0  0  0
 20 78  1  0  0  0  0
 21 79  1  0  0  0  0
 24 80  1  0  0  0  0
 24 81  1  0  0  0  0
 25 82  1  0  0  0  0
 25 83  1  0  0  0  0
 26 84  1  0  0  0  0
 26 85  1  0  0  0  0
 27 86  1  0  0  0  0
 27 87  1  0  0  0  0
 28 88  1  0  0  0  0
 28 89  1  0  0  0  0
 29 90  1  0  0  0  0
 29 91  1  0  0  0  0
 30 92  1  0  0  0  0
 30 93  1  0  0  0  0
 31 94  1  0  0  0  0
 31 95  1  0  0  0  0
 31 96  1  0  0  0  0
 32 97  1  0  0  0  0
 33 98  1  0  0  0  0
 41 99  1  0  0  0  0
 42100  1  0  0  0  0
 43101  1  0  0  0  0
 44102  1  0  0  0  0
 51103  1  0  0  0  0
 52104  1  0  0  0  0
 53105  1  0  0  0  0
 54106  1  0  0  0  0
 57107  1  0  0  0  0
 58108  1  0  0  0  0
M  CHG  1  37  -1
M  CHG  1  40   1
M  CHG  1  47  -1
M  CHG  1  50   1
M  END
