
  xtb     03022214333D
 energy: -100.364961393672 gnorm: 0.000226303709 xtb: 6.4.1 (afa7bdf)
 72 78  0     0  0            999 V2000
   -3.5952   -3.1287    0.1721 C   0  0  0  0  0  0  0  0  0  0  0  0
   -4.2430   -2.3437    1.3070 C   0  0  0  0  0  0  0  0  0  0  0  0
   -3.6362   -0.9562    1.5376 C   0  0  0  0  0  0  0  0  0  0  0  0
   -4.1608    0.1470    0.6074 C   0  0  0  0  0  0  0  0  0  0  0  0
   -3.6998    0.0316   -0.7555 N   0  0  0  0  0  0  0  0  0  0  0  0
   -4.5245   -0.4666   -1.7453 C   0  0  0  0  0  0  0  0  0  0  0  0
   -5.9109   -0.4693   -1.8276 C   0  0  0  0  0  0  0  0  0  0  0  0
   -6.4966   -1.0186   -2.9514 C   0  0  0  0  0  0  0  0  0  0  0  0
   -5.7309   -1.5610   -3.9810 C   0  0  0  0  0  0  0  0  0  0  0  0
   -4.3534   -1.5624   -3.9096 C   0  0  0  0  0  0  0  0  0  0  0  0
   -3.7447   -1.0107   -2.7894 C   0  0  0  0  0  0  0  0  0  0  0  0
   -2.3766   -0.8635   -2.3919 C   0  0  0  0  0  0  0  0  0  0  0  0
   -1.2118   -1.3370   -2.9974 C   0  0  0  0  0  0  0  0  0  0  0  0
   -0.0100   -1.1330   -2.3704 C   0  0  0  0  0  0  0  0  0  0  0  0
    0.0206   -0.3595   -1.2090 C   0  0  0  0  0  0  0  0  0  0  0  0
    1.1402    0.1123   -0.4495 C   0  0  0  0  0  0  0  0  0  0  0  0
    2.5062   -0.1040   -0.5436 C   0  0  0  0  0  0  0  0  0  0  0  0
    3.3601    0.5694    0.3196 C   0  0  0  0  0  0  0  0  0  0  0  0
    4.8124    0.3584    0.2433 C   0  0  0  0  0  0  0  0  0  0  0  0
    5.6966    1.4529    0.3700 C   0  0  0  0  0  0  0  0  0  0  0  0
    7.0474    1.2780    0.2954 C   0  0  0  0  0  0  0  0  0  0  0  0
    7.6036   -0.0027    0.0932 C   0  0  0  0  0  0  0  0  0  0  0  0
    8.9940   -0.2178    0.0125 C   0  0  0  0  0  0  0  0  0  0  0  0
    9.4959   -1.4737   -0.1862 C   0  0  0  0  0  0  0  0  0  0  0  0
    8.6291   -2.5708   -0.3125 C   0  0  0  0  0  0  0  0  0  0  0  0
    7.2762   -2.3944   -0.2386 C   0  0  0  0  0  0  0  0  0  0  0  0
    6.7257   -1.1108   -0.0357 C   0  0  0  0  0  0  0  0  0  0  0  0
    5.3366   -0.8971    0.0429 C   0  0  0  0  0  0  0  0  0  0  0  0
    2.8263    1.4610    1.2600 C   0  0  0  0  0  0  0  0  0  0  0  0
    1.4693    1.6832    1.3727 C   0  0  0  0  0  0  0  0  0  0  0  0
    0.6175    0.9927    0.5210 C   0  0  0  0  0  0  0  0  0  0  0  0
   -0.7576    1.0347    0.4258 N   0  0  0  0  0  0  0  0  0  0  0  0
   -1.4879    2.1690    0.9417 C   0  0  0  0  0  0  0  0  0  0  0  0
   -1.8079    2.0520    2.4369 C   0  0  0  0  0  0  0  0  0  0  0  0
   -2.7248    3.1718    2.9300 C   0  0  0  0  0  0  0  0  0  0  0  0
   -2.0638    4.5453    2.8976 C   0  0  0  0  0  0  0  0  0  0  0  0
   -1.1411    0.1993   -0.6200 C   0  0  0  0  0  0  0  0  0  0  0  0
   -2.3809   -0.1701   -1.1556 C   0  0  0  0  0  0  0  0  0  0  0  0
   -3.9634   -4.1525    0.1731 H   0  0  0  0  0  0  0  0  0  0  0  0
   -3.8214   -2.6958   -0.7969 H   0  0  0  0  0  0  0  0  0  0  0  0
   -2.5140   -3.1544    0.2934 H   0  0  0  0  0  0  0  0  0  0  0  0
   -5.3149   -2.2474    1.1188 H   0  0  0  0  0  0  0  0  0  0  0  0
   -4.1240   -2.9170    2.2299 H   0  0  0  0  0  0  0  0  0  0  0  0
   -2.5499   -1.0212    1.4480 H   0  0  0  0  0  0  0  0  0  0  0  0
   -3.8740   -0.6465    2.5589 H   0  0  0  0  0  0  0  0  0  0  0  0
   -3.8878    1.1195    1.0200 H   0  0  0  0  0  0  0  0  0  0  0  0
   -5.2509    0.1004    0.5870 H   0  0  0  0  0  0  0  0  0  0  0  0
   -6.5316   -0.0479   -1.0502 H   0  0  0  0  0  0  0  0  0  0  0  0
   -7.5737   -1.0258   -3.0339 H   0  0  0  0  0  0  0  0  0  0  0  0
   -6.2267   -1.9811   -4.8434 H   0  0  0  0  0  0  0  0  0  0  0  0
   -3.7560   -1.9787   -4.7066 H   0  0  0  0  0  0  0  0  0  0  0  0
   -1.2757   -1.8753   -3.9301 H   0  0  0  0  0  0  0  0  0  0  0  0
    0.9101   -1.5230   -2.7765 H   0  0  0  0  0  0  0  0  0  0  0  0
    2.9025   -0.7678   -1.2970 H   0  0  0  0  0  0  0  0  0  0  0  0
    5.2856    2.4430    0.5053 H   0  0  0  0  0  0  0  0  0  0  0  0
    7.7146    2.1240    0.3865 H   0  0  0  0  0  0  0  0  0  0  0  0
    9.6570    0.6305    0.1105 H   0  0  0  0  0  0  0  0  0  0  0  0
   10.5629   -1.6320   -0.2474 H   0  0  0  0  0  0  0  0  0  0  0  0
    9.0430   -3.5565   -0.4691 H   0  0  0  0  0  0  0  0  0  0  0  0
    6.6054   -3.2366   -0.3357 H   0  0  0  0  0  0  0  0  0  0  0  0
    4.6781   -1.7507   -0.0387 H   0  0  0  0  0  0  0  0  0  0  0  0
    3.4980    1.9738    1.9328 H   0  0  0  0  0  0  0  0  0  0  0  0
    1.0985    2.3793    2.1090 H   0  0  0  0  0  0  0  0  0  0  0  0
   -0.8751    3.0631    0.7764 H   0  0  0  0  0  0  0  0  0  0  0  0
   -2.4024    2.2895    0.3577 H   0  0  0  0  0  0  0  0  0  0  0  0
   -0.8788    2.0732    3.0080 H   0  0  0  0  0  0  0  0  0  0  0  0
   -2.2786    1.0882    2.6303 H   0  0  0  0  0  0  0  0  0  0  0  0
   -3.0203    2.9472    3.9574 H   0  0  0  0  0  0  0  0  0  0  0  0
   -3.6349    3.1957    2.3250 H   0  0  0  0  0  0  0  0  0  0  0  0
   -1.1325    4.5329    3.4597 H   0  0  0  0  0  0  0  0  0  0  0  0
   -2.7205    5.2887    3.3432 H   0  0  0  0  0  0  0  0  0  0  0  0
   -1.8485    4.8546    1.8780 H   0  0  0  0  0  0  0  0  0  0  0  0
  1  2  1  0  0  0  0
  2  3  1  0  0  0  0
  3  4  1  0  0  0  0
  4  5  1  0  0  0  0
  5  6  1  0  0  0  0
  6  7  2  0  0  0  0
  7  8  1  0  0  0  0
  8  9  2  0  0  0  0
  9 10  1  0  0  0  0
 10 11  2  0  0  0  0
 11 12  1  0  0  0  0
 12 13  2  0  0  0  0
 13 14  1  0  0  0  0
 14 15  2  0  0  0  0
 15 16  1  0  0  0  0
 16 17  2  0  0  0  0
 17 18  1  0  0  0  0
 18 19  1  0  0  0  0
 19 20  2  0  0  0  0
 20 21  1  0  0  0  0
 21 22  2  0  0  0  0
 22 23  1  0  0  0  0
 23 24  2  0  0  0  0
 24 25  1  0  0  0  0
 25 26  2  0  0  0  0
 26 27  1  0  0  0  0
 27 28  2  0  0  0  0
 18 29  2  0  0  0  0
 29 30  1  0  0  0  0
 30 31  2  0  0  0  0
 31 32  1  0  0  0  0
 32 33  1  0  0  0  0
 33 34  1  0  0  0  0
 34 35  1  0  0  0  0
 35 36  1  0  0  0  0
 32 37  1  0  0  0  0
 37 38  2  0  0  0  0
 38  5  1  0  0  0  0
 11  6  1  0  0  0  0
 38 12  1  0  0  0  0
 37 15  1  0  0  0  0
 31 16  1  0  0  0  0
 28 19  1  0  0  0  0
 27 22  1  0  0  0  0
  1 39  1  0  0  0  0
  1 40  1  0  0  0  0
  1 41  1  0  0  0  0
  2 42  1  0  0  0  0
  2 43  1  0  0  0  0
  3 44  1  0  0  0  0
  3 45  1  0  0  0  0
  4 46  1  0  0  0  0
  4 47  1  0  0  0  0
  7 48  1  0  0  0  0
  8 49  1  0  0  0  0
  9 50  1  0  0  0  0
 10 51  1  0  0  0  0
 13 52  1  0  0  0  0
 14 53  1  0  0  0  0
 17 54  1  0  0  0  0
 20 55  1  0  0  0  0
 21 56  1  0  0  0  0
 23 57  1  0  0  0  0
 24 58  1  0  0  0  0
 25 59  1  0  0  0  0
 26 60  1  0  0  0  0
 28 61  1  0  0  0  0
 29 62  1  0  0  0  0
 30 63  1  0  0  0  0
 33 64  1  0  0  0  0
 33 65  1  0  0  0  0
 34 66  1  0  0  0  0
 34 67  1  0  0  0  0
 35 68  1  0  0  0  0
 35 69  1  0  0  0  0
 36 70  1  0  0  0  0
 36 71  1  0  0  0  0
 36 72  1  0  0  0  0
M  END
