
  xtb     03022213513D
 energy: -86.343108657118 gnorm: 0.000178832187 xtb: 6.4.1 (afa7bdf)
 45 49  0     0  0            999 V2000
   -3.4459    2.2023   -1.7310 N   0  0  0  0  0  0  0  0  0  0  0  0
   -2.4156    2.0752   -1.2386 C   0  0  0  0  0  0  0  0  0  0  0  0
   -1.1589    1.9947   -0.6348 C   0  0  0  0  0  0  0  0  0  0  0  0
   -0.4114    0.8600   -0.3659 C   0  0  0  0  0  0  0  0  0  0  0  0
   -0.8076   -0.4421   -0.6094 N   0  0  0  0  0  0  0  0  0  0  0  0
   -0.0766   -1.3493   -1.2968 N   0  0  0  0  0  0  0  0  0  0  0  0
   -0.7279   -2.4146   -1.4557 N   0  0  0  0  0  0  0  0  0  0  0  0
   -1.9584   -2.2879   -0.8827 C   0  0  0  0  0  0  0  0  0  0  0  0
   -3.0354   -3.1672   -0.7761 C   0  0  0  0  0  0  0  0  0  0  0  0
   -4.1490   -2.7217   -0.1076 C   0  0  0  0  0  0  0  0  0  0  0  0
   -4.1966   -1.4349    0.4537 C   0  0  0  0  0  0  0  0  0  0  0  0
   -5.6256   -0.9594    1.2901 Cl  0  0  0  0  0  0  0  0  0  0  0  0
   -3.1491   -0.5414    0.3665 C   0  0  0  0  0  0  0  0  0  0  0  0
   -2.0327   -0.9892   -0.3244 C   0  0  0  0  0  0  0  0  0  0  0  0
    0.7836    1.2062    0.2123 N   0  0  0  0  0  0  0  0  0  0  0  0
    1.8791    0.3737    0.6433 C   0  0  0  0  0  0  0  0  0  0  0  0
    1.4829   -0.7073    1.6726 C   0  0  0  0  0  0  0  0  0  0  0  0
    1.9483   -2.0225    1.0384 C   0  0  0  0  0  0  0  0  0  0  0  0
    2.5642   -2.8488    1.9867 O   0  0  0  0  0  0  0  0  0  0  0  0
    2.9257   -1.5355   -0.0547 C   0  0  0  0  0  0  0  0  0  0  0  0
    3.0243   -2.5096   -1.2294 C   0  0  0  0  0  0  0  0  0  0  0  0
    3.5386   -3.7476   -0.7926 O   0  0  0  0  0  0  0  0  0  0  0  0
    2.4450   -0.2786   -0.4712 O   0  0  0  0  0  0  0  0  0  0  0  0
    0.8225    2.5718    0.3093 C   0  0  0  0  0  0  0  0  0  0  0  0
    1.8140    3.2944    0.8262 N   0  0  0  0  0  0  0  0  0  0  0  0
    1.5820    4.5928    0.8028 C   0  0  0  0  0  0  0  0  0  0  0  0
    0.5144    5.2243    0.3446 N   0  0  0  0  0  0  0  0  0  0  0  0
   -0.4904    4.5117   -0.1669 C   0  0  0  0  0  0  0  0  0  0  0  0
   -1.5762    5.1668   -0.6089 N   0  0  0  0  0  0  0  0  0  0  0  0
   -0.3714    3.1065   -0.2017 C   0  0  0  0  0  0  0  0  0  0  0  0
   -2.9823   -4.1542   -1.2039 H   0  0  0  0  0  0  0  0  0  0  0  0
   -5.0102   -3.3615    0.0012 H   0  0  0  0  0  0  0  0  0  0  0  0
   -3.2065    0.4409    0.8056 H   0  0  0  0  0  0  0  0  0  0  0  0
    2.6022    1.0861    1.0711 H   0  0  0  0  0  0  0  0  0  0  0  0
    2.0142   -0.5649    2.6122 H   0  0  0  0  0  0  0  0  0  0  0  0
    0.4137   -0.7001    1.8749 H   0  0  0  0  0  0  0  0  0  0  0  0
    1.1122   -2.5502    0.5617 H   0  0  0  0  0  0  0  0  0  0  0  0
    2.8370   -3.6567    1.5320 H   0  0  0  0  0  0  0  0  0  0  0  0
    3.9206   -1.4164    0.4141 H   0  0  0  0  0  0  0  0  0  0  0  0
    3.6407   -2.0699   -2.0208 H   0  0  0  0  0  0  0  0  0  0  0  0
    2.0264   -2.7018   -1.6272 H   0  0  0  0  0  0  0  0  0  0  0  0
    4.4754   -3.6432   -0.5887 H   0  0  0  0  0  0  0  0  0  0  0  0
    2.3613    5.2222    1.2097 H   0  0  0  0  0  0  0  0  0  0  0  0
   -1.5689    6.1710   -0.5862 H   0  0  0  0  0  0  0  0  0  0  0  0
   -2.3316    4.6759   -1.0539 H   0  0  0  0  0  0  0  0  0  0  0  0
  1  2  3  0  0  0  0
  2  3  1  0  0  0  0
  3  4  2  0  0  0  0
  4  5  1  0  0  0  0
  5  6  1  0  0  0  0
  6  7  2  0  0  0  0
  7  8  1  0  0  0  0
  8  9  2  0  0  0  0
  9 10  1  0  0  0  0
 10 11  2  0  0  0  0
 11 12  1  0  0  0  0
 11 13  1  0  0  0  0
 13 14  2  0  0  0  0
  4 15  1  0  0  0  0
 15 16  1  0  0  0  0
 16 17  1  0  0  0  0
 17 18  1  0  0  0  0
 18 19  1  0  0  0  0
 18 20  1  0  0  0  0
 20 21  1  0  0  0  0
 21 22  1  0  0  0  0
 20 23  1  0  0  0  0
 15 24  1  0  0  0  0
 24 25  2  0  0  0  0
 25 26  1  0  0  0  0
 26 27  2  0  0  0  0
 27 28  1  0  0  0  0
 28 29  1  0  0  0  0
 28 30  2  0  0  0  0
 30  3  1  0  0  0  0
 14  5  1  0  0  0  0
 23 16  1  0  0  0  0
 30 24  1  0  0  0  0
 14  8  1  0  0  0  0
  9 31  1  0  0  0  0
 10 32  1  0  0  0  0
 13 33  1  0  0  0  0
 16 34  1  0  0  0  0
 17 35  1  0  0  0  0
 17 36  1  0  0  0  0
 18 37  1  0  0  0  0
 19 38  1  0  0  0  0
 20 39  1  0  0  0  0
 21 40  1  0  0  0  0
 21 41  1  0  0  0  0
 22 42  1  0  0  0  0
 26 43  1  0  0  0  0
 29 44  1  0  0  0  0
 29 45  1  0  0  0  0
M  END
