
  xtb     03022216113D
 energy: -52.310826885744 gnorm: 0.000075667517 xtb: 6.4.1 (afa7bdf)
 30 33  0     0  0            999 V2000
    6.1143    1.2150    0.8457 C   0  0  0  0  0  0  0  0  0  0  0  0
    6.8214    0.1682    0.3447 C   0  0  0  0  0  0  0  0  0  0  0  0
    5.8027   -1.0577   -0.2978 S   0  0  0  0  0  0  0  0  0  0  0  0
    4.3801   -0.1404    0.1170 C   0  0  0  0  0  0  0  0  0  0  0  0
    3.0787   -0.6427   -0.1729 C   0  0  0  0  0  0  0  0  0  0  0  0
    2.7414   -1.8313   -0.7763 C   0  0  0  0  0  0  0  0  0  0  0  0
    1.3636   -2.0170   -0.9106 C   0  0  0  0  0  0  0  0  0  0  0  0
    0.6186   -0.9714   -0.4113 C   0  0  0  0  0  0  0  0  0  0  0  0
   -0.7992   -0.8413   -0.3891 C   0  0  0  0  0  0  0  0  0  0  0  0
   -1.7371   -1.7324   -0.8623 C   0  0  0  0  0  0  0  0  0  0  0  0
   -3.0533   -1.2994   -0.6859 C   0  0  0  0  0  0  0  0  0  0  0  0
   -3.1499   -0.0710   -0.0757 C   0  0  0  0  0  0  0  0  0  0  0  0
   -4.3284    0.6588    0.2531 C   0  0  0  0  0  0  0  0  0  0  0  0
   -4.4323    1.8840    0.8615 C   0  0  0  0  0  0  0  0  0  0  0  0
   -5.7636    2.3050    1.0315 C   0  0  0  0  0  0  0  0  0  0  0  0
   -6.6646    1.4059    0.5554 C   0  0  0  0  0  0  0  0  0  0  0  0
   -5.9064    0.0170   -0.1150 S   0  0  0  0  0  0  0  0  0  0  0  0
   -1.5711    0.5640    0.2890 S   0  0  0  0  0  0  0  0  0  0  0  0
    1.6540    0.2681    0.2386 S   0  0  0  0  0  0  0  0  0  0  0  0
    4.7240    1.0437    0.7183 C   0  0  0  0  0  0  0  0  0  0  0  0
    6.5703    2.0808    1.2915 H   0  0  0  0  0  0  0  0  0  0  0  0
    7.8842    0.0351    0.3103 H   0  0  0  0  0  0  0  0  0  0  0  0
    3.4797   -2.5401   -1.1077 H   0  0  0  0  0  0  0  0  0  0  0  0
    0.9236   -2.8889   -1.3589 H   0  0  0  0  0  0  0  0  0  0  0  0
   -1.4772   -2.6684   -1.3216 H   0  0  0  0  0  0  0  0  0  0  0  0
   -3.9182   -1.8610   -0.9924 H   0  0  0  0  0  0  0  0  0  0  0  0
   -3.5736    2.4526    1.1713 H   0  0  0  0  0  0  0  0  0  0  0  0
   -6.0404    3.2380    1.4888 H   0  0  0  0  0  0  0  0  0  0  0  0
   -7.7344    1.4686    0.5543 H   0  0  0  0  0  0  0  0  0  0  0  0
    3.9931    1.7583    1.0528 H   0  0  0  0  0  0  0  0  0  0  0  0
  1  2  2  0  0  0  0
  2  3  1  0  0  0  0
  3  4  1  0  0  0  0
  4  5  1  0  0  0  0
  5  6  2  0  0  0  0
  6  7  1  0  0  0  0
  7  8  2  0  0  0  0
  8  9  1  0  0  0  0
  9 10  2  0  0  0  0
 10 11  1  0  0  0  0
 11 12  2  0  0  0  0
 12 13  1  0  0  0  0
 13 14  2  0  0  0  0
 14 15  1  0  0  0  0
 15 16  2  0  0  0  0
 16 17  1  0  0  0  0
 12 18  1  0  0  0  0
  8 19  1  0  0  0  0
  4 20  2  0  0  0  0
 20  1  1  0  0  0  0
 19  5  1  0  0  0  0
 18  9  1  0  0  0  0
 17 13  1  0  0  0  0
  1 21  1  0  0  0  0
  2 22  1  0  0  0  0
  6 23  1  0  0  0  0
  7 24  1  0  0  0  0
 10 25  1  0  0  0  0
 11 26  1  0  0  0  0
 14 27  1  0  0  0  0
 15 28  1  0  0  0  0
 16 29  1  0  0  0  0
 20 30  1  0  0  0  0
M  END
