
  xtb     03022214343D
 energy: -73.129552709858 gnorm: 0.000100616300 xtb: 6.4.1 (afa7bdf)
 56 58  0     0  0            999 V2000
   -5.8702   -1.1624    1.0706 C   0  0  0  0  0  0  0  0  0  0  0  0
   -4.5829   -2.3848    1.1457 S   0  0  0  0  0  0  0  0  0  0  0  0
   -3.1639   -1.3596    1.1823 C   0  0  0  0  0  0  0  0  0  0  0  0
   -1.9243   -1.8427    1.0563 C   0  0  0  0  0  0  0  0  0  0  0  0
   -0.6979   -1.0780    1.1185 C   0  0  0  0  0  0  0  0  0  0  0  0
   -0.6614    0.3157    1.2395 C   0  0  0  0  0  0  0  0  0  0  0  0
    0.5323    0.9974    1.2945 C   0  0  0  0  0  0  0  0  0  0  0  0
    1.7560    0.3219    1.2365 C   0  0  0  0  0  0  0  0  0  0  0  0
    3.0411    0.9838    1.2925 C   0  0  0  0  0  0  0  0  0  0  0  0
    3.2529    2.3023    1.3031 C   0  0  0  0  0  0  0  0  0  0  0  0
    4.8053    3.1027    1.3456 S   0  0  0  0  0  0  0  0  0  0  0  0
    5.9510    1.7397    1.3023 C   0  0  0  0  0  0  0  0  0  0  0  0
    6.2996    1.0937    0.1977 C   0  0  0  0  0  0  0  0  0  0  0  0
    7.2476   -0.0682    0.2359 C   0  0  0  0  0  0  0  0  0  0  0  0
    6.5495   -1.3125   -0.3220 C   0  0  0  0  0  0  0  0  0  0  0  0
    6.0318   -1.0467   -1.7318 C   0  0  0  0  0  0  0  0  0  0  0  0
    5.0713    0.1384   -1.7354 C   0  0  0  0  0  0  0  0  0  0  0  0
    5.7534    1.3856   -1.1648 C   0  0  0  0  0  0  0  0  0  0  0  0
    1.7197   -1.0716    1.1160 C   0  0  0  0  0  0  0  0  0  0  0  0
    0.5259   -1.7526    1.0540 C   0  0  0  0  0  0  0  0  0  0  0  0
   -6.0008   -0.2717    0.0946 C   0  0  0  0  0  0  0  0  0  0  0  0
   -7.1201    0.7242    0.0883 C   0  0  0  0  0  0  0  0  0  0  0  0
   -8.0530    0.4575   -1.1065 C   0  0  0  0  0  0  0  0  0  0  0  0
   -7.2834   -0.1207   -2.2999 C   0  0  0  0  0  0  0  0  0  0  0  0
   -5.8461    0.3889   -2.3044 C   0  0  0  0  0  0  0  0  0  0  0  0
   -5.0998   -0.1998   -1.1039 C   0  0  0  0  0  0  0  0  0  0  0  0
   -6.5657   -1.2235    1.8931 H   0  0  0  0  0  0  0  0  0  0  0  0
   -3.3882   -0.3201    1.3548 H   0  0  0  0  0  0  0  0  0  0  0  0
   -1.8057   -2.9078    0.9041 H   0  0  0  0  0  0  0  0  0  0  0  0
   -1.5844    0.8737    1.2906 H   0  0  0  0  0  0  0  0  0  0  0  0
    0.5188    2.0725    1.3918 H   0  0  0  0  0  0  0  0  0  0  0  0
    3.8990    0.3235    1.3169 H   0  0  0  0  0  0  0  0  0  0  0  0
    2.4606    3.0326    1.2856 H   0  0  0  0  0  0  0  0  0  0  0  0
    6.3712    1.5017    2.2681 H   0  0  0  0  0  0  0  0  0  0  0  0
    8.1166    0.1612   -0.3867 H   0  0  0  0  0  0  0  0  0  0  0  0
    7.5953   -0.2514    1.2540 H   0  0  0  0  0  0  0  0  0  0  0  0
    7.2473   -2.1521   -0.3282 H   0  0  0  0  0  0  0  0  0  0  0  0
    5.7134   -1.5774    0.3296 H   0  0  0  0  0  0  0  0  0  0  0  0
    6.8757   -0.8339   -2.3927 H   0  0  0  0  0  0  0  0  0  0  0  0
    5.5240   -1.9350   -2.1130 H   0  0  0  0  0  0  0  0  0  0  0  0
    4.7315    0.3432   -2.7523 H   0  0  0  0  0  0  0  0  0  0  0  0
    4.1917   -0.0986   -1.1330 H   0  0  0  0  0  0  0  0  0  0  0  0
    6.5827    1.6681   -1.8198 H   0  0  0  0  0  0  0  0  0  0  0  0
    5.0492    2.2171   -1.1284 H   0  0  0  0  0  0  0  0  0  0  0  0
    2.6499   -1.6218    1.0694 H   0  0  0  0  0  0  0  0  0  0  0  0
    0.5288   -2.8295    0.9591 H   0  0  0  0  0  0  0  0  0  0  0  0
   -7.6827    0.6851    1.0216 H   0  0  0  0  0  0  0  0  0  0  0  0
   -6.6898    1.7246   -0.0035 H   0  0  0  0  0  0  0  0  0  0  0  0
   -8.8352   -0.2418   -0.8083 H   0  0  0  0  0  0  0  0  0  0  0  0
   -8.5377    1.3934   -1.3903 H   0  0  0  0  0  0  0  0  0  0  0  0
   -7.2625   -1.2106   -2.2318 H   0  0  0  0  0  0  0  0  0  0  0  0
   -7.7874    0.1450   -3.2303 H   0  0  0  0  0  0  0  0  0  0  0  0
   -5.8478    1.4798   -2.2589 H   0  0  0  0  0  0  0  0  0  0  0  0
   -5.3402    0.0982   -3.2262 H   0  0  0  0  0  0  0  0  0  0  0  0
   -4.2186    0.4094   -0.8825 H   0  0  0  0  0  0  0  0  0  0  0  0
   -4.7428   -1.2061   -1.3389 H   0  0  0  0  0  0  0  0  0  0  0  0
  1  2  1  0  0  0  0
  2  3  1  0  0  0  0
  3  4  2  0  0  0  0
  4  5  1  0  0  0  0
  5  6  2  0  0  0  0
  6  7  1  0  0  0  0
  7  8  2  0  0  0  0
  8  9  1  0  0  0  0
  9 10  2  0  0  0  0
 10 11  1  0  0  0  0
 11 12  1  0  0  0  0
 12 13  2  0  0  0  0
 13 14  1  0  0  0  0
 14 15  1  0  0  0  0
 15 16  1  0  0  0  0
 16 17  1  0  0  0  0
 17 18  1  0  0  0  0
  8 19  1  0  0  0  0
 19 20  2  0  0  0  0
  1 21  2  0  0  0  0
 21 22  1  0  0  0  0
 22 23  1  0  0  0  0
 23 24  1  0  0  0  0
 24 25  1  0  0  0  0
 25 26  1  0  0  0  0
 20  5  1  0  0  0  0
 26 21  1  0  0  0  0
 18 13  1  0  0  0  0
  1 27  1  0  0  0  0
  3 28  1  0  0  0  0
  4 29  1  0  0  0  0
  6 30  1  0  0  0  0
  7 31  1  0  0  0  0
  9 32  1  0  0  0  0
 10 33  1  0  0  0  0
 12 34  1  0  0  0  0
 14 35  1  0  0  0  0
 14 36  1  0  0  0  0
 15 37  1  0  0  0  0
 15 38  1  0  0  0  0
 16 39  1  0  0  0  0
 16 40  1  0  0  0  0
 17 41  1  0  0  0  0
 17 42  1  0  0  0  0
 18 43  1  0  0  0  0
 18 44  1  0  0  0  0
 19 45  1  0  0  0  0
 20 46  1  0  0  0  0
 22 47  1  0  0  0  0
 22 48  1  0  0  0  0
 23 49  1  0  0  0  0
 23 50  1  0  0  0  0
 24 51  1  0  0  0  0
 24 52  1  0  0  0  0
 25 53  1  0  0  0  0
 25 54  1  0  0  0  0
 26 55  1  0  0  0  0
 26 56  1  0  0  0  0
M  END
