
  xtb     03022214043D
 energy: -35.619832369763 gnorm: 0.000397406192 xtb: 6.4.1 (afa7bdf)
 24 24  0     0  0            999 V2000
    4.0117    0.0082    0.3487 C   0  0  0  0  0  0  0  0  0  0  0  0
    2.8956    0.6984    0.1428 C   0  0  0  0  0  0  0  0  0  0  0  0
    1.5367    0.1763    0.1088 C   0  0  0  0  0  0  0  0  0  0  0  0
    1.2257   -1.1592    0.3255 C   0  0  0  0  0  0  0  0  0  0  0  0
   -0.0866   -1.6006    0.2810 C   0  0  0  0  0  0  0  0  0  0  0  0
   -1.1243   -0.7216    0.0187 C   0  0  0  0  0  0  0  0  0  0  0  0
   -2.4429   -1.0542   -0.0462 O   0  0  0  0  0  0  0  0  0  0  0  0
   -2.8049   -2.3938    0.1727 C   0  0  0  0  0  0  0  0  0  0  0  0
   -0.8261    0.6418   -0.2040 C   0  0  0  0  0  0  0  0  0  0  0  0
   -1.9017    1.4416   -0.4548 O   0  0  0  0  0  0  0  0  0  0  0  0
   -1.6771    2.8099   -0.6785 C   0  0  0  0  0  0  0  0  0  0  0  0
    0.4866    1.0653   -0.1553 C   0  0  0  0  0  0  0  0  0  0  0  0
    4.9740    0.4908    0.3556 H   0  0  0  0  0  0  0  0  0  0  0  0
    4.0173   -1.0545    0.5183 H   0  0  0  0  0  0  0  0  0  0  0  0
    2.9699    1.7670   -0.0225 H   0  0  0  0  0  0  0  0  0  0  0  0
    2.0060   -1.8732    0.5341 H   0  0  0  0  0  0  0  0  0  0  0  0
   -0.2899   -2.6454    0.4550 H   0  0  0  0  0  0  0  0  0  0  0  0
   -3.8892   -2.4241    0.0766 H   0  0  0  0  0  0  0  0  0  0  0  0
   -2.5219   -2.7304    1.1760 H   0  0  0  0  0  0  0  0  0  0  0  0
   -2.3579   -3.0609   -0.5724 H   0  0  0  0  0  0  0  0  0  0  0  0
   -2.6608    3.2443   -0.8507 H   0  0  0  0  0  0  0  0  0  0  0  0
   -1.0493    2.9784   -1.5603 H   0  0  0  0  0  0  0  0  0  0  0  0
   -1.2172    3.2919    0.1912 H   0  0  0  0  0  0  0  0  0  0  0  0
    0.7264    2.1040   -0.3238 H   0  0  0  0  0  0  0  0  0  0  0  0
  1  2  2  0  0  0  0
  2  3  1  0  0  0  0
  3  4  2  0  0  0  0
  4  5  1  0  0  0  0
  5  6  2  0  0  0  0
  6  7  1  0  0  0  0
  7  8  1  0  0  0  0
  6  9  1  0  0  0  0
  9 10  1  0  0  0  0
 10 11  1  0  0  0  0
  9 12  2  0  0  0  0
 12  3  1  0  0  0  0
  1 13  1  0  0  0  0
  1 14  1  0  0  0  0
  2 15  1  0  0  0  0
  4 16  1  0  0  0  0
  5 17  1  0  0  0  0
  8 18  1  0  0  0  0
  8 19  1  0  0  0  0
  8 20  1  0  0  0  0
 11 21  1  0  0  0  0
 11 22  1  0  0  0  0
 11 23  1  0  0  0  0
 12 24  1  0  0  0  0
M  END
