
  xtb     03022212093D
 energy: -31.302802427944 gnorm: 0.000045639474 xtb: 6.4.1 (afa7bdf)
 20 21  0     0  0            999 V2000
   -3.4612    0.1890   -0.2035 C   0  0  0  0  0  0  0  0  0  0  0  0
   -2.8346   -1.0459   -0.2304 C   0  0  0  0  0  0  0  0  0  0  0  0
   -1.4567   -1.1047   -0.1133 C   0  0  0  0  0  0  0  0  0  0  0  0
   -0.7383    0.0856    0.0287 C   0  0  0  0  0  0  0  0  0  0  0  0
    0.7307    0.1293    0.1606 C   0  0  0  0  0  0  0  0  0  0  0  0
    1.5317   -1.0159    0.1550 C   0  0  0  0  0  0  0  0  0  0  0  0
    2.9026   -0.8754    0.2847 C   0  0  0  0  0  0  0  0  0  0  0  0
    3.4405    0.3941    0.4162 C   0  0  0  0  0  0  0  0  0  0  0  0
    2.5621    1.4700    0.4104 C   0  0  0  0  0  0  0  0  0  0  0  0
    1.2593    1.3441    0.2876 N   0  0  0  0  0  0  0  0  0  0  0  0
   -1.3518    1.2665    0.0532 N   0  0  0  0  0  0  0  0  0  0  0  0
   -2.6607    1.3147   -0.0586 C   0  0  0  0  0  0  0  0  0  0  0  0
   -4.5330    0.2759   -0.2919 H   0  0  0  0  0  0  0  0  0  0  0  0
   -3.4106   -1.9541   -0.3412 H   0  0  0  0  0  0  0  0  0  0  0  0
   -0.9617   -2.0623   -0.1333 H   0  0  0  0  0  0  0  0  0  0  0  0
    1.1055   -2.0009    0.0522 H   0  0  0  0  0  0  0  0  0  0  0  0
    3.5416   -1.7474    0.2830 H   0  0  0  0  0  0  0  0  0  0  0  0
    4.5039    0.5445    0.5195 H   0  0  0  0  0  0  0  0  0  0  0  0
    2.9233    2.4858    0.5095 H   0  0  0  0  0  0  0  0  0  0  0  0
   -3.0930    2.3070   -0.0307 H   0  0  0  0  0  0  0  0  0  0  0  0
  1  2  2  0  0  0  0
  2  3  1  0  0  0  0
  3  4  2  0  0  0  0
  4  5  1  0  0  0  0
  5  6  2  0  0  0  0
  6  7  1  0  0  0  0
  7  8  2  0  0  0  0
  8  9  1  0  0  0  0
  9 10  2  0  0  0  0
  4 11  1  0  0  0  0
 11 12  2  0  0  0  0
 12  1  1  0  0  0  0
 10  5  1  0  0  0  0
  1 13  1  0  0  0  0
  2 14  1  0  0  0  0
  3 15  1  0  0  0  0
  6 16  1  0  0  0  0
  7 17  1  0  0  0  0
  8 18  1  0  0  0  0
  9 19  1  0  0  0  0
 12 20  1  0  0  0  0
M  END
