
  xtb     03022213043D
 energy: -129.316232871942 gnorm: 0.000163878335 xtb: 6.4.1 (afa7bdf)
 84 88  0     0  0            999 V2000
    8.2594   -2.6560    2.0965 C   0  0  0  0  0  0  0  0  0  0  0  0
    7.6453   -2.5756    0.8385 O   0  0  0  0  0  0  0  0  0  0  0  0
    6.2599   -2.3336    0.9160 C   0  0  0  0  0  0  0  0  0  0  0  0
    5.6920   -2.2916   -0.5054 C   0  0  0  0  0  0  0  0  0  0  0  0
    4.2394   -1.9674   -0.4865 C   0  0  0  0  0  0  0  0  0  0  0  0
    3.1943   -2.8336   -0.5697 C   0  0  0  0  0  0  0  0  0  0  0  0
    1.9959   -2.0448   -0.4615 C   0  0  0  0  0  0  0  0  0  0  0  0
    2.3082   -0.7471   -0.3143 N   0  0  0  0  0  0  0  0  0  0  0  0
    3.6510   -0.6427   -0.3222 C   0  0  0  0  0  0  0  0  0  0  0  0
    4.3869    0.5420   -0.1961 C   0  0  0  0  0  0  0  0  0  0  0  0
    3.9818    1.8497   -0.0117 C   0  0  0  0  0  0  0  0  0  0  0  0
    2.6962    2.3884    0.0981 C   0  0  0  0  0  0  0  0  0  0  0  0
    1.5427    1.6789    0.0310 N   0  0  0  0  0  0  0  0  0  0  0  0
    0.4782    2.4952    0.1960 C   0  0  0  0  0  0  0  0  0  0  0  0
    0.9753    3.8143    0.3740 C   0  0  0  0  0  0  0  0  0  0  0  0
    2.3442    3.7619    0.3137 C   0  0  0  0  0  0  0  0  0  0  0  0
    3.2910    4.9079    0.4085 C   0  0  0  0  0  0  0  0  0  0  0  0
    3.7506    5.3557   -0.9823 C   0  0  0  0  0  0  0  0  0  0  0  0
    4.6918    6.3919   -0.8293 O   0  0  0  0  0  0  0  0  0  0  0  0
    5.1644    6.8900   -2.0523 C   0  0  0  0  0  0  0  0  0  0  0  0
   -0.8559    2.0575    0.1833 C   0  0  0  0  0  0  0  0  0  0  0  0
   -1.2087    0.7804   -0.0440 N   0  0  0  0  0  0  0  0  0  0  0  0
   -2.5557    0.7090    0.0191 C   0  0  0  0  0  0  0  0  0  0  0  0
   -3.2727   -0.4853   -0.1988 C   0  0  0  0  0  0  0  0  0  0  0  0
   -4.6643   -0.3214   -0.2847 O   0  0  0  0  0  0  0  0  0  0  0  0
   -5.4973   -1.0823    0.4408 C   0  0  0  0  0  0  0  0  0  0  0  0
   -6.9216   -0.8630   -0.0027 C   0  0  0  0  0  0  0  0  0  0  0  0
   -5.1560   -1.8407    1.3074 O   0  0  0  0  0  0  0  0  0  0  0  0
   -2.8320   -1.7811   -0.4075 C   0  0  0  0  0  0  0  0  0  0  0  0
   -1.5505   -2.3285   -0.4663 C   0  0  0  0  0  0  0  0  0  0  0  0
   -0.3894   -1.6389   -0.3862 N   0  0  0  0  0  0  0  0  0  0  0  0
    0.6649   -2.4822   -0.4970 C   0  0  0  0  0  0  0  0  0  0  0  0
    0.1485   -3.7952   -0.6536 C   0  0  0  0  0  0  0  0  0  0  0  0
   -1.2204   -3.7144   -0.6354 C   0  0  0  0  0  0  0  0  0  0  0  0
   -2.1965   -4.8282   -0.7779 C   0  0  0  0  0  0  0  0  0  0  0  0
   -2.7419   -4.8958   -2.2184 C   0  0  0  0  0  0  0  0  0  0  0  0
   -3.7029   -5.9037   -2.4131 O   0  0  0  0  0  0  0  0  0  0  0  0
   -4.9722   -5.6127   -1.8849 C   0  0  0  0  0  0  0  0  0  0  0  0
   -3.0999    2.0272    0.3147 C   0  0  0  0  0  0  0  0  0  0  0  0
   -4.5089    2.4288    0.5800 C   0  0  0  0  0  0  0  0  0  0  0  0
   -4.8765    2.1101    2.0436 C   0  0  0  0  0  0  0  0  0  0  0  0
   -6.0273    2.7807    2.4972 O   0  0  0  0  0  0  0  0  0  0  0  0
   -7.2392    2.2685    2.0081 C   0  0  0  0  0  0  0  0  0  0  0  0
   -2.0233    2.8566    0.4108 C   0  0  0  0  0  0  0  0  0  0  0  0
    9.3161   -2.8430    1.9170 H   0  0  0  0  0  0  0  0  0  0  0  0
    7.8391   -3.4750    2.6942 H   0  0  0  0  0  0  0  0  0  0  0  0
    8.1432   -1.7196    2.6578 H   0  0  0  0  0  0  0  0  0  0  0  0
    6.0689   -1.3787    1.4326 H   0  0  0  0  0  0  0  0  0  0  0  0
    5.7641   -3.1301    1.4938 H   0  0  0  0  0  0  0  0  0  0  0  0
    5.8507   -3.2664   -0.9689 H   0  0  0  0  0  0  0  0  0  0  0  0
    6.2527   -1.5504   -1.0780 H   0  0  0  0  0  0  0  0  0  0  0  0
    3.2299   -3.8977   -0.6966 H   0  0  0  0  0  0  0  0  0  0  0  0
    5.4591    0.3994   -0.2471 H   0  0  0  0  0  0  0  0  0  0  0  0
    4.7782    2.5785    0.0676 H   0  0  0  0  0  0  0  0  0  0  0  0
    1.5824    0.6363   -0.1145 H   0  0  0  0  0  0  0  0  0  0  0  0
    0.3743    4.6885    0.5291 H   0  0  0  0  0  0  0  0  0  0  0  0
    4.1742    4.6370    0.9892 H   0  0  0  0  0  0  0  0  0  0  0  0
    2.8085    5.7529    0.9006 H   0  0  0  0  0  0  0  0  0  0  0  0
    2.8862    5.7074   -1.5682 H   0  0  0  0  0  0  0  0  0  0  0  0
    4.2008    4.5091   -1.5257 H   0  0  0  0  0  0  0  0  0  0  0  0
    4.3478    7.3074   -2.6554 H   0  0  0  0  0  0  0  0  0  0  0  0
    5.8782    7.6759   -1.8145 H   0  0  0  0  0  0  0  0  0  0  0  0
    5.6637    6.1060   -2.6362 H   0  0  0  0  0  0  0  0  0  0  0  0
   -7.6002   -1.0686    0.8197 H   0  0  0  0  0  0  0  0  0  0  0  0
   -7.1364   -1.5608   -0.8108 H   0  0  0  0  0  0  0  0  0  0  0  0
   -7.0585    0.1471   -0.3750 H   0  0  0  0  0  0  0  0  0  0  0  0
   -3.6255   -2.5052   -0.5372 H   0  0  0  0  0  0  0  0  0  0  0  0
   -0.4242   -0.5986   -0.2519 H   0  0  0  0  0  0  0  0  0  0  0  0
    0.7374   -4.6849   -0.7602 H   0  0  0  0  0  0  0  0  0  0  0  0
   -1.7173   -5.7799   -0.5446 H   0  0  0  0  0  0  0  0  0  0  0  0
   -3.0245   -4.6809   -0.0816 H   0  0  0  0  0  0  0  0  0  0  0  0
   -1.9241   -5.1394   -2.9018 H   0  0  0  0  0  0  0  0  0  0  0  0
   -3.1537   -3.9158   -2.5041 H   0  0  0  0  0  0  0  0  0  0  0  0
   -5.3496   -4.6565   -2.2704 H   0  0  0  0  0  0  0  0  0  0  0  0
   -4.9693   -5.5759   -0.7900 H   0  0  0  0  0  0  0  0  0  0  0  0
   -5.6302   -6.4164   -2.2097 H   0  0  0  0  0  0  0  0  0  0  0  0
   -4.5999    3.5092    0.4446 H   0  0  0  0  0  0  0  0  0  0  0  0
   -5.1951    1.9317   -0.1050 H   0  0  0  0  0  0  0  0  0  0  0  0
   -4.0714    2.4629    2.6945 H   0  0  0  0  0  0  0  0  0  0  0  0
   -4.9850    1.0240    2.1811 H   0  0  0  0  0  0  0  0  0  0  0  0
   -7.3479    2.4292    0.9290 H   0  0  0  0  0  0  0  0  0  0  0  0
   -8.0305    2.8072    2.5267 H   0  0  0  0  0  0  0  0  0  0  0  0
   -7.3289    1.1964    2.2219 H   0  0  0  0  0  0  0  0  0  0  0  0
   -2.0320    3.9075    0.6226 H   0  0  0  0  0  0  0  0  0  0  0  0
  1  2  1  0  0  0  0
  2  3  1  0  0  0  0
  3  4  1  0  0  0  0
  4  5  1  0  0  0  0
  5  6  2  0  0  0  0
  6  7  1  0  0  0  0
  7  8  2  0  0  0  0
  8  9  1  0  0  0  0
  9 10  2  0  0  0  0
 10 11  1  0  0  0  0
 11 12  2  0  0  0  0
 12 13  1  0  0  0  0
 13 14  1  0  0  0  0
 14 15  1  0  0  0  0
 15 16  2  0  0  0  0
 16 17  1  0  0  0  0
 17 18  1  0  0  0  0
 18 19  1  0  0  0  0
 19 20  1  0  0  0  0
 14 21  2  0  0  0  0
 21 22  1  0  0  0  0
 22 23  2  0  0  0  0
 23 24  1  0  0  0  0
 24 25  1  0  0  0  0
 25 26  1  0  0  0  0
 26 27  1  0  0  0  0
 26 28  2  0  0  0  0
 24 29  2  0  0  0  0
 29 30  1  0  0  0  0
 30 31  1  0  0  0  0
 31 32  1  0  0  0  0
 32 33  2  0  0  0  0
 33 34  1  0  0  0  0
 34 35  1  0  0  0  0
 35 36  1  0  0  0  0
 36 37  1  0  0  0  0
 37 38  1  0  0  0  0
 23 39  1  0  0  0  0
 39 40  1  0  0  0  0
 40 41  1  0  0  0  0
 41 42  1  0  0  0  0
 42 43  1  0  0  0  0
 39 44  2  0  0  0  0
  9  5  1  0  0  0  0
 16 12  1  0  0  0  0
 44 21  1  0  0  0  0
 32  7  1  0  0  0  0
 34 30  2  0  0  0  0
  1 45  1  0  0  0  0
  1 46  1  0  0  0  0
  1 47  1  0  0  0  0
  3 48  1  0  0  0  0
  3 49  1  0  0  0  0
  4 50  1  0  0  0  0
  4 51  1  0  0  0  0
  6 52  1  0  0  0  0
 10 53  1  0  0  0  0
 11 54  1  0  0  0  0
 13 55  1  0  0  0  0
 15 56  1  0  0  0  0
 17 57  1  0  0  0  0
 17 58  1  0  0  0  0
 18 59  1  0  0  0  0
 18 60  1  0  0  0  0
 20 61  1  0  0  0  0
 20 62  1  0  0  0  0
 20 63  1  0  0  0  0
 27 64  1  0  0  0  0
 27 65  1  0  0  0  0
 27 66  1  0  0  0  0
 29 67  1  0  0  0  0
 31 68  1  0  0  0  0
 33 69  1  0  0  0  0
 35 70  1  0  0  0  0
 35 71  1  0  0  0  0
 36 72  1  0  0  0  0
 36 73  1  0  0  0  0
 38 74  1  0  0  0  0
 38 75  1  0  0  0  0
 38 76  1  0  0  0  0
 40 77  1  0  0  0  0
 40 78  1  0  0  0  0
 41 79  1  0  0  0  0
 41 80  1  0  0  0  0
 43 81  1  0  0  0  0
 43 82  1  0  0  0  0
 43 83  1  0  0  0  0
 44 84  1  0  0  0  0
M  END
