
  xtb     03022214143D
 energy: -120.126145098277 gnorm: 0.000092942230 xtb: 6.4.1 (afa7bdf)
 84 90  0     0  0            999 V2000
    0.7426   -5.0826   -2.1794 C   0  0  0  0  0  0  0  0  0  0  0  0
    2.0032   -4.2365   -2.3121 C   0  0  0  0  0  0  0  0  0  0  0  0
    1.8314   -2.8066   -1.8031 C   0  0  0  0  0  0  0  0  0  0  0  0
    1.5139   -2.7377   -0.3015 C   0  0  0  0  0  0  0  0  0  0  0  0
    1.6767   -1.3959    0.2101 N   0  0  0  0  0  0  0  0  0  0  0  0
    2.9267   -0.8065    0.1353 C   0  0  0  0  0  0  0  0  0  0  0  0
    4.1826   -1.3960    0.1820 C   0  0  0  0  0  0  0  0  0  0  0  0
    5.2904   -0.5768    0.1094 C   0  0  0  0  0  0  0  0  0  0  0  0
    5.1805    0.8153   -0.0127 C   0  0  0  0  0  0  0  0  0  0  0  0
    6.3898    1.6474   -0.0837 C   0  0  0  0  0  0  0  0  0  0  0  0
    6.4597    2.8633    0.5867 C   0  0  0  0  0  0  0  0  0  0  0  0
    7.5907    3.6584    0.5279 C   0  0  0  0  0  0  0  0  0  0  0  0
    8.6888    3.2482   -0.2186 C   0  0  0  0  0  0  0  0  0  0  0  0
    9.8532    3.9474   -0.3524 O   0  0  0  0  0  0  0  0  0  0  0  0
    9.9696    5.1862    0.3011 C   0  0  0  0  0  0  0  0  0  0  0  0
    8.6284    2.0303   -0.8972 C   0  0  0  0  0  0  0  0  0  0  0  0
    7.4997    1.2451   -0.8272 C   0  0  0  0  0  0  0  0  0  0  0  0
    3.9216    1.3987   -0.0646 C   0  0  0  0  0  0  0  0  0  0  0  0
    2.7973    0.5908    0.0067 C   0  0  0  0  0  0  0  0  0  0  0  0
    1.3904    0.8642   -0.0290 C   0  0  0  0  0  0  0  0  0  0  0  0
    0.7164    2.0707   -0.2201 C   0  0  0  0  0  0  0  0  0  0  0  0
   -0.6545    2.0673   -0.2348 C   0  0  0  0  0  0  0  0  0  0  0  0
   -1.3286    0.8782    0.0464 C   0  0  0  0  0  0  0  0  0  0  0  0
   -2.7263    0.6464    0.2537 C   0  0  0  0  0  0  0  0  0  0  0  0
   -3.8443    1.4606    0.1528 C   0  0  0  0  0  0  0  0  0  0  0  0
   -5.0894    0.9481    0.4895 C   0  0  0  0  0  0  0  0  0  0  0  0
   -6.2934    1.7845    0.3885 C   0  0  0  0  0  0  0  0  0  0  0  0
   -6.2680    3.1218    0.7682 C   0  0  0  0  0  0  0  0  0  0  0  0
   -7.3940    3.9210    0.6793 C   0  0  0  0  0  0  0  0  0  0  0  0
   -8.5846    3.3909    0.1970 C   0  0  0  0  0  0  0  0  0  0  0  0
   -9.7543    4.0813    0.0629 O   0  0  0  0  0  0  0  0  0  0  0  0
   -9.7758    5.4388    0.4260 C   0  0  0  0  0  0  0  0  0  0  0  0
   -8.6208    2.0502   -0.1888 C   0  0  0  0  0  0  0  0  0  0  0  0
   -7.4953    1.2632   -0.0913 C   0  0  0  0  0  0  0  0  0  0  0  0
   -5.1879   -0.3746    0.9431 C   0  0  0  0  0  0  0  0  0  0  0  0
   -4.0867   -1.1982    1.0530 C   0  0  0  0  0  0  0  0  0  0  0  0
   -2.8470   -0.6908    0.6858 C   0  0  0  0  0  0  0  0  0  0  0  0
   -1.6063   -1.2913    0.6946 N   0  0  0  0  0  0  0  0  0  0  0  0
   -1.3847   -2.5210    1.4147 C   0  0  0  0  0  0  0  0  0  0  0  0
   -1.8480   -3.7586    0.6342 C   0  0  0  0  0  0  0  0  0  0  0  0
   -1.4652   -5.0494    1.3536 C   0  0  0  0  0  0  0  0  0  0  0  0
   -2.0155   -6.2774    0.6384 C   0  0  0  0  0  0  0  0  0  0  0  0
   -0.6638   -0.3485    0.3012 C   0  0  0  0  0  0  0  0  0  0  0  0
    0.7264   -0.3762    0.1409 C   0  0  0  0  0  0  0  0  0  0  0  0
   -0.1026   -4.5838   -2.6498 H   0  0  0  0  0  0  0  0  0  0  0  0
    0.8828   -6.0453   -2.6658 H   0  0  0  0  0  0  0  0  0  0  0  0
    0.5060   -5.2654   -1.1347 H   0  0  0  0  0  0  0  0  0  0  0  0
    2.2926   -4.1920   -3.3643 H   0  0  0  0  0  0  0  0  0  0  0  0
    2.8195   -4.7169   -1.7673 H   0  0  0  0  0  0  0  0  0  0  0  0
    1.0315   -2.3088   -2.3569 H   0  0  0  0  0  0  0  0  0  0  0  0
    2.7557   -2.2554   -1.9910 H   0  0  0  0  0  0  0  0  0  0  0  0
    2.1883   -3.4005    0.2505 H   0  0  0  0  0  0  0  0  0  0  0  0
    0.4939   -3.0648   -0.1412 H   0  0  0  0  0  0  0  0  0  0  0  0
    4.3038   -2.4643    0.2828 H   0  0  0  0  0  0  0  0  0  0  0  0
    6.2745   -1.0178    0.1687 H   0  0  0  0  0  0  0  0  0  0  0  0
    5.6217    3.1894    1.1855 H   0  0  0  0  0  0  0  0  0  0  0  0
    7.6030    4.5910    1.0703 H   0  0  0  0  0  0  0  0  0  0  0  0
    9.2179    5.9003   -0.0516 H   0  0  0  0  0  0  0  0  0  0  0  0
   10.9624    5.5589    0.0533 H   0  0  0  0  0  0  0  0  0  0  0  0
    9.8858    5.0785    1.3878 H   0  0  0  0  0  0  0  0  0  0  0  0
    9.4853    1.7255   -1.4775 H   0  0  0  0  0  0  0  0  0  0  0  0
    7.4665    0.3144   -1.3743 H   0  0  0  0  0  0  0  0  0  0  0  0
    3.8182    2.4671   -0.1790 H   0  0  0  0  0  0  0  0  0  0  0  0
    1.2789    2.9796   -0.3661 H   0  0  0  0  0  0  0  0  0  0  0  0
   -1.2176    2.9697   -0.4149 H   0  0  0  0  0  0  0  0  0  0  0  0
   -3.7473    2.4754   -0.2019 H   0  0  0  0  0  0  0  0  0  0  0  0
   -5.3556    3.5456    1.1617 H   0  0  0  0  0  0  0  0  0  0  0  0
   -7.3295    4.9516    0.9924 H   0  0  0  0  0  0  0  0  0  0  0  0
   -9.0761    6.0283   -0.1758 H   0  0  0  0  0  0  0  0  0  0  0  0
  -10.7916    5.7805    0.2324 H   0  0  0  0  0  0  0  0  0  0  0  0
   -9.5457    5.5761    1.4880 H   0  0  0  0  0  0  0  0  0  0  0  0
   -9.5496    1.6519   -0.5663 H   0  0  0  0  0  0  0  0  0  0  0  0
   -7.5393    0.2326   -0.4115 H   0  0  0  0  0  0  0  0  0  0  0  0
   -6.1559   -0.7515    1.2391 H   0  0  0  0  0  0  0  0  0  0  0  0
   -4.2050   -2.2034    1.4273 H   0  0  0  0  0  0  0  0  0  0  0  0
   -0.3266   -2.5955    1.6734 H   0  0  0  0  0  0  0  0  0  0  0  0
   -1.9446   -2.4726    2.3578 H   0  0  0  0  0  0  0  0  0  0  0  0
   -1.4204   -3.7519   -0.3708 H   0  0  0  0  0  0  0  0  0  0  0  0
   -2.9311   -3.7225    0.5122 H   0  0  0  0  0  0  0  0  0  0  0  0
   -1.8548   -5.0204    2.3738 H   0  0  0  0  0  0  0  0  0  0  0  0
   -0.3766   -5.1222    1.4213 H   0  0  0  0  0  0  0  0  0  0  0  0
   -1.6428   -6.3278   -0.3823 H   0  0  0  0  0  0  0  0  0  0  0  0
   -1.7199   -7.1859    1.1573 H   0  0  0  0  0  0  0  0  0  0  0  0
   -3.1019   -6.2415    0.6024 H   0  0  0  0  0  0  0  0  0  0  0  0
  1  2  1  0  0  0  0
  2  3  1  0  0  0  0
  3  4  1  0  0  0  0
  4  5  1  0  0  0  0
  5  6  1  0  0  0  0
  6  7  2  0  0  0  0
  7  8  1  0  0  0  0
  8  9  2  0  0  0  0
  9 10  1  0  0  0  0
 10 11  2  0  0  0  0
 11 12  1  0  0  0  0
 12 13  2  0  0  0  0
 13 14  1  0  0  0  0
 14 15  1  0  0  0  0
 13 16  1  0  0  0  0
 16 17  2  0  0  0  0
  9 18  1  0  0  0  0
 18 19  2  0  0  0  0
 19 20  1  0  0  0  0
 20 21  2  0  0  0  0
 21 22  1  0  0  0  0
 22 23  2  0  0  0  0
 23 24  1  0  0  0  0
 24 25  2  0  0  0  0
 25 26  1  0  0  0  0
 26 27  1  0  0  0  0
 27 28  2  0  0  0  0
 28 29  1  0  0  0  0
 29 30  2  0  0  0  0
 30 31  1  0  0  0  0
 31 32  1  0  0  0  0
 30 33  1  0  0  0  0
 33 34  2  0  0  0  0
 26 35  2  0  0  0  0
 35 36  1  0  0  0  0
 36 37  2  0  0  0  0
 37 38  1  0  0  0  0
 38 39  1  0  0  0  0
 39 40  1  0  0  0  0
 40 41  1  0  0  0  0
 41 42  1  0  0  0  0
 38 43  1  0  0  0  0
 43 44  2  0  0  0  0
 44  5  1  0  0  0  0
 19  6  1  0  0  0  0
 44 20  1  0  0  0  0
 17 10  1  0  0  0  0
 43 23  1  0  0  0  0
 37 24  1  0  0  0  0
 34 27  1  0  0  0  0
  1 45  1  0  0  0  0
  1 46  1  0  0  0  0
  1 47  1  0  0  0  0
  2 48  1  0  0  0  0
  2 49  1  0  0  0  0
  3 50  1  0  0  0  0
  3 51  1  0  0  0  0
  4 52  1  0  0  0  0
  4 53  1  0  0  0  0
  7 54  1  0  0  0  0
  8 55  1  0  0  0  0
 11 56  1  0  0  0  0
 12 57  1  0  0  0  0
 15 58  1  0  0  0  0
 15 59  1  0  0  0  0
 15 60  1  0  0  0  0
 16 61  1  0  0  0  0
 17 62  1  0  0  0  0
 18 63  1  0  0  0  0
 21 64  1  0  0  0  0
 22 65  1  0  0  0  0
 25 66  1  0  0  0  0
 28 67  1  0  0  0  0
 29 68  1  0  0  0  0
 32 69  1  0  0  0  0
 32 70  1  0  0  0  0
 32 71  1  0  0  0  0
 33 72  1  0  0  0  0
 34 73  1  0  0  0  0
 35 74  1  0  0  0  0
 36 75  1  0  0  0  0
 39 76  1  0  0  0  0
 39 77  1  0  0  0  0
 40 78  1  0  0  0  0
 40 79  1  0  0  0  0
 41 80  1  0  0  0  0
 41 81  1  0  0  0  0
 42 82  1  0  0  0  0
 42 83  1  0  0  0  0
 42 84  1  0  0  0  0
M  END
