
  xtb     03022212083D
 energy: -86.849840826626 gnorm: 0.000269781332 xtb: 6.4.1 (afa7bdf)
 44 47  0     0  0            999 V2000
   -0.1342    4.0918   -0.2991 C   0  0  0  0  0  0  0  0  0  0  0  0
   -0.8398    2.8302   -0.2889 N   0  0  0  0  0  0  0  0  0  0  0  0
   -2.2275    2.8513   -0.4536 C   0  0  0  0  0  0  0  0  0  0  0  0
   -2.8142    3.9113   -0.5932 O   0  0  0  0  0  0  0  0  0  0  0  0
   -2.8887    1.5631   -0.4353 C   0  0  0  0  0  0  0  0  0  0  0  0
   -2.2179    0.3895   -0.2521 C   0  0  0  0  0  0  0  0  0  0  0  0
   -2.8232   -0.9684   -0.2296 C   0  0  0  0  0  0  0  0  0  0  0  0
   -2.1033   -1.9424   -0.3464 O   0  0  0  0  0  0  0  0  0  0  0  0
   -4.2867   -1.0824   -0.0636 C   0  0  0  0  0  0  0  0  0  0  0  0
   -4.9864   -0.2953    0.8493 C   0  0  0  0  0  0  0  0  0  0  0  0
   -6.3516   -0.4586    0.9956 C   0  0  0  0  0  0  0  0  0  0  0  0
   -7.0289   -1.3952    0.2311 C   0  0  0  0  0  0  0  0  0  0  0  0
   -6.3353   -2.1906   -0.6673 C   0  0  0  0  0  0  0  0  0  0  0  0
   -4.9683   -2.0459   -0.8052 C   0  0  0  0  0  0  0  0  0  0  0  0
   -0.8142    0.4479   -0.1311 C   0  0  0  0  0  0  0  0  0  0  0  0
    0.2545   -0.8898    0.0265 S   0  0  0  0  0  0  0  0  0  0  0  0
    1.6235    0.1925    0.1106 C   0  0  0  0  0  0  0  0  0  0  0  0
    2.9623   -0.3383    0.2681 C   0  0  0  0  0  0  0  0  0  0  0  0
    4.0622    0.5012    0.4706 C   0  0  0  0  0  0  0  0  0  0  0  0
    5.3329   -0.0173    0.6215 C   0  0  0  0  0  0  0  0  0  0  0  0
    5.5150   -1.3895    0.5749 C   0  0  0  0  0  0  0  0  0  0  0  0
    6.8114   -1.9317    0.7679 O   0  0  0  0  0  0  0  0  0  0  0  0
    7.5537   -2.0173   -0.3141 C   0  0  0  0  0  0  0  0  0  0  0  0
    7.0151   -2.7775   -1.2867 F   0  0  0  0  0  0  0  0  0  0  0  0
    7.8066   -0.8306   -0.9009 F   0  0  0  0  0  0  0  0  0  0  0  0
    8.7296   -2.5533   -0.0110 F   0  0  0  0  0  0  0  0  0  0  0  0
    4.4456   -2.2469    0.3745 C   0  0  0  0  0  0  0  0  0  0  0  0
    3.1797   -1.7188    0.2254 C   0  0  0  0  0  0  0  0  0  0  0  0
    1.2499    1.5092   -0.0010 C   0  0  0  0  0  0  0  0  0  0  0  0
   -0.1438    1.6689   -0.1451 C   0  0  0  0  0  0  0  0  0  0  0  0
    0.5788    4.1236   -1.1240 H   0  0  0  0  0  0  0  0  0  0  0  0
    0.3910    4.2419    0.6450 H   0  0  0  0  0  0  0  0  0  0  0  0
   -0.8796    4.8757   -0.4312 H   0  0  0  0  0  0  0  0  0  0  0  0
   -3.9554    1.5917   -0.5900 H   0  0  0  0  0  0  0  0  0  0  0  0
   -4.4579    0.4168    1.4654 H   0  0  0  0  0  0  0  0  0  0  0  0
   -6.8896    0.1476    1.7089 H   0  0  0  0  0  0  0  0  0  0  0  0
   -8.0965   -1.5115    0.3429 H   0  0  0  0  0  0  0  0  0  0  0  0
   -6.8606   -2.9280   -1.2553 H   0  0  0  0  0  0  0  0  0  0  0  0
   -4.4119   -2.6628   -1.4949 H   0  0  0  0  0  0  0  0  0  0  0  0
    3.9281    1.5695    0.5165 H   0  0  0  0  0  0  0  0  0  0  0  0
    6.1799    0.6325    0.7766 H   0  0  0  0  0  0  0  0  0  0  0  0
    4.6111   -3.3119    0.3383 H   0  0  0  0  0  0  0  0  0  0  0  0
    2.3429   -2.3820    0.0678 H   0  0  0  0  0  0  0  0  0  0  0  0
    1.9418    2.3297    0.0086 H   0  0  0  0  0  0  0  0  0  0  0  0
  1  2  1  0  0  0  0
  2  3  1  0  0  0  0
  3  4  2  0  0  0  0
  3  5  1  0  0  0  0
  5  6  2  0  0  0  0
  6  7  1  0  0  0  0
  7  8  2  0  0  0  0
  7  9  1  0  0  0  0
  9 10  2  0  0  0  0
 10 11  1  0  0  0  0
 11 12  2  0  0  0  0
 12 13  1  0  0  0  0
 13 14  2  0  0  0  0
  6 15  1  0  0  0  0
 15 16  1  0  0  0  0
 16 17  1  0  0  0  0
 17 18  1  0  0  0  0
 18 19  2  0  0  0  0
 19 20  1  0  0  0  0
 20 21  2  0  0  0  0
 21 22  1  0  0  0  0
 22 23  1  0  0  0  0
 23 24  1  0  0  0  0
 23 25  1  0  0  0  0
 23 26  1  0  0  0  0
 21 27  1  0  0  0  0
 27 28  2  0  0  0  0
 17 29  2  0  0  0  0
 29 30  1  0  0  0  0
 30  2  1  0  0  0  0
 14  9  1  0  0  0  0
 30 15  2  0  0  0  0
 28 18  1  0  0  0  0
  1 31  1  0  0  0  0
  1 32  1  0  0  0  0
  1 33  1  0  0  0  0
  5 34  1  0  0  0  0
 10 35  1  0  0  0  0
 11 36  1  0  0  0  0
 12 37  1  0  0  0  0
 13 38  1  0  0  0  0
 14 39  1  0  0  0  0
 19 40  1  0  0  0  0
 20 41  1  0  0  0  0
 27 42  1  0  0  0  0
 28 43  1  0  0  0  0
 29 44  1  0  0  0  0
M  END
