
  xtb     03022213153D
 energy: -130.529835738787 gnorm: 0.000121079058 xtb: 6.4.1 (afa7bdf)
 85 91  0     0  0            999 V2000
   11.8018    2.7924   -0.5662 C   0  0  0  0  0  0  0  0  0  0  0  0
   10.6412    3.5243   -1.2286 C   0  0  0  0  0  0  0  0  0  0  0  0
    9.2756    3.2047   -0.6174 C   0  0  0  0  0  0  0  0  0  0  0  0
    8.8454    1.7409   -0.7838 C   0  0  0  0  0  0  0  0  0  0  0  0
    9.1002    0.9017    0.4683 C   0  0  0  0  0  0  0  0  0  0  0  0
    8.8558   -0.5886    0.2322 C   0  0  0  0  0  0  0  0  0  0  0  0
    7.4810   -0.8593   -0.1750 N   0  0  0  0  0  0  0  0  0  0  0  0
    7.2410   -1.0795   -1.5201 C   0  0  0  0  0  0  0  0  0  0  0  0
    8.1476   -1.0860   -2.3282 O   0  0  0  0  0  0  0  0  0  0  0  0
    5.8383   -1.3126   -1.9095 C   0  0  0  0  0  0  0  0  0  0  0  0
    5.5279   -1.4780   -3.2426 C   0  0  0  0  0  0  0  0  0  0  0  0
    4.2008   -1.6620   -3.6336 C   0  0  0  0  0  0  0  0  0  0  0  0
    3.2003   -1.7278   -2.6973 C   0  0  0  0  0  0  0  0  0  0  0  0
    3.4817   -1.6166   -1.3207 C   0  0  0  0  0  0  0  0  0  0  0  0
    2.4840   -1.6989   -0.3042 C   0  0  0  0  0  0  0  0  0  0  0  0
    1.1231   -2.0944   -0.6075 C   0  0  0  0  0  0  0  0  0  0  0  0
    0.6748   -3.0834   -1.4456 C   0  0  0  0  0  0  0  0  0  0  0  0
   -0.7202   -3.2218   -1.4462 C   0  0  0  0  0  0  0  0  0  0  0  0
   -1.3603   -2.3576   -0.5943 C   0  0  0  0  0  0  0  0  0  0  0  0
   -2.7966   -2.2081   -0.4418 C   0  0  0  0  0  0  0  0  0  0  0  0
   -3.5715   -2.2693   -1.5891 C   0  0  0  0  0  0  0  0  0  0  0  0
   -4.9509   -2.1040   -1.5472 C   0  0  0  0  0  0  0  0  0  0  0  0
   -5.5880   -1.8637   -0.3470 C   0  0  0  0  0  0  0  0  0  0  0  0
   -4.8392   -1.8152    0.8455 C   0  0  0  0  0  0  0  0  0  0  0  0
   -5.4959   -1.5964    2.0742 C   0  0  0  0  0  0  0  0  0  0  0  0
   -4.7797   -1.5821    3.2522 C   0  0  0  0  0  0  0  0  0  0  0  0
   -3.4030   -1.8083    3.2348 C   0  0  0  0  0  0  0  0  0  0  0  0
   -2.7449   -2.0179    2.0498 C   0  0  0  0  0  0  0  0  0  0  0  0
   -3.4311   -2.0017    0.8187 C   0  0  0  0  0  0  0  0  0  0  0  0
   -6.9556   -1.3924    2.1194 C   0  0  0  0  0  0  0  0  0  0  0  0
   -7.5521   -1.2072    3.1607 O   0  0  0  0  0  0  0  0  0  0  0  0
   -7.6242   -1.4320    0.9077 N   0  0  0  0  0  0  0  0  0  0  0  0
   -9.0682   -1.2234    0.9214 C   0  0  0  0  0  0  0  0  0  0  0  0
   -9.4524    0.1760    0.4418 C   0  0  0  0  0  0  0  0  0  0  0  0
   -8.8666    1.2758    1.3246 C   0  0  0  0  0  0  0  0  0  0  0  0
   -9.2882    2.6786    0.8866 C   0  0  0  0  0  0  0  0  0  0  0  0
  -10.7630    2.9793    1.1459 C   0  0  0  0  0  0  0  0  0  0  0  0
  -11.1115    4.4196    0.7899 C   0  0  0  0  0  0  0  0  0  0  0  0
   -7.0469   -1.6721   -0.3269 C   0  0  0  0  0  0  0  0  0  0  0  0
   -7.7274   -1.7263   -1.3316 O   0  0  0  0  0  0  0  0  0  0  0  0
   -0.2084   -1.3425    0.2190 S   0  0  0  0  0  0  0  0  0  0  0  0
    2.8280   -1.4211    1.0080 C   0  0  0  0  0  0  0  0  0  0  0  0
    4.1393   -1.1375    1.3715 C   0  0  0  0  0  0  0  0  0  0  0  0
    5.1408   -1.1325    0.4215 C   0  0  0  0  0  0  0  0  0  0  0  0
    4.8224   -1.3581   -0.9325 C   0  0  0  0  0  0  0  0  0  0  0  0
    6.5297   -0.8712    0.8310 C   0  0  0  0  0  0  0  0  0  0  0  0
    6.8462   -0.6798    1.9879 O   0  0  0  0  0  0  0  0  0  0  0  0
   11.8127    2.9834    0.5049 H   0  0  0  0  0  0  0  0  0  0  0  0
   12.7469    3.1346   -0.9829 H   0  0  0  0  0  0  0  0  0  0  0  0
   11.7305    1.7206   -0.7307 H   0  0  0  0  0  0  0  0  0  0  0  0
   10.6210    3.2768   -2.2925 H   0  0  0  0  0  0  0  0  0  0  0  0
   10.8100    4.6011   -1.1455 H   0  0  0  0  0  0  0  0  0  0  0  0
    9.2861    3.4613    0.4441 H   0  0  0  0  0  0  0  0  0  0  0  0
    8.5389    3.8511   -1.0997 H   0  0  0  0  0  0  0  0  0  0  0  0
    7.7773    1.7044   -1.0144 H   0  0  0  0  0  0  0  0  0  0  0  0
    9.3701    1.2977   -1.6321 H   0  0  0  0  0  0  0  0  0  0  0  0
    8.4526    1.2433    1.2783 H   0  0  0  0  0  0  0  0  0  0  0  0
   10.1333    1.0177    0.7946 H   0  0  0  0  0  0  0  0  0  0  0  0
    9.5028   -0.9596   -0.5644 H   0  0  0  0  0  0  0  0  0  0  0  0
    9.0417   -1.1426    1.1553 H   0  0  0  0  0  0  0  0  0  0  0  0
    6.3239   -1.4387   -3.9705 H   0  0  0  0  0  0  0  0  0  0  0  0
    3.9631   -1.7459   -4.6832 H   0  0  0  0  0  0  0  0  0  0  0  0
    2.1761   -1.8397   -3.0174 H   0  0  0  0  0  0  0  0  0  0  0  0
    1.3324   -3.7199   -2.0101 H   0  0  0  0  0  0  0  0  0  0  0  0
   -1.2410   -3.9602   -2.0293 H   0  0  0  0  0  0  0  0  0  0  0  0
   -3.0878   -2.4213   -2.5422 H   0  0  0  0  0  0  0  0  0  0  0  0
   -5.5408   -2.1449   -2.4503 H   0  0  0  0  0  0  0  0  0  0  0  0
   -5.3064   -1.4115    4.1788 H   0  0  0  0  0  0  0  0  0  0  0  0
   -2.8552   -1.8253    4.1647 H   0  0  0  0  0  0  0  0  0  0  0  0
   -1.6848   -2.2149    2.0646 H   0  0  0  0  0  0  0  0  0  0  0  0
   -9.4023   -1.3786    1.9484 H   0  0  0  0  0  0  0  0  0  0  0  0
   -9.5161   -1.9721    0.2636 H   0  0  0  0  0  0  0  0  0  0  0  0
  -10.5411    0.2330    0.4478 H   0  0  0  0  0  0  0  0  0  0  0  0
   -9.1124    0.3061   -0.5873 H   0  0  0  0  0  0  0  0  0  0  0  0
   -9.1706    1.1096    2.3603 H   0  0  0  0  0  0  0  0  0  0  0  0
   -7.7752    1.2152    1.2911 H   0  0  0  0  0  0  0  0  0  0  0  0
   -9.0750    2.8035   -0.1779 H   0  0  0  0  0  0  0  0  0  0  0  0
   -8.6849    3.4093    1.4313 H   0  0  0  0  0  0  0  0  0  0  0  0
  -11.3885    2.3073    0.5562 H   0  0  0  0  0  0  0  0  0  0  0  0
  -10.9847    2.8027    2.2008 H   0  0  0  0  0  0  0  0  0  0  0  0
  -12.1647    4.6166    0.9762 H   0  0  0  0  0  0  0  0  0  0  0  0
  -10.5221    5.1143    1.3847 H   0  0  0  0  0  0  0  0  0  0  0  0
  -10.9073    4.6121   -0.2613 H   0  0  0  0  0  0  0  0  0  0  0  0
    2.0629   -1.4562    1.7700 H   0  0  0  0  0  0  0  0  0  0  0  0
    4.3976   -0.9398    2.4007 H   0  0  0  0  0  0  0  0  0  0  0  0
  1  2  1  0  0  0  0
  2  3  1  0  0  0  0
  3  4  1  0  0  0  0
  4  5  1  0  0  0  0
  5  6  1  0  0  0  0
  6  7  1  0  0  0  0
  7  8  1  0  0  0  0
  8  9  2  0  0  0  0
  8 10  1  0  0  0  0
 10 11  1  0  0  0  0
 11 12  2  0  0  0  0
 12 13  1  0  0  0  0
 13 14  2  0  0  0  0
 14 15  1  0  0  0  0
 15 16  1  0  0  0  0
 16 17  2  0  0  0  0
 17 18  1  0  0  0  0
 18 19  2  0  0  0  0
 19 20  1  0  0  0  0
 20 21  2  0  0  0  0
 21 22  1  0  0  0  0
 22 23  2  0  0  0  0
 23 24  1  0  0  0  0
 24 25  2  0  0  0  0
 25 26  1  0  0  0  0
 26 27  2  0  0  0  0
 27 28  1  0  0  0  0
 28 29  2  0  0  0  0
 25 30  1  0  0  0  0
 30 31  2  0  0  0  0
 30 32  1  0  0  0  0
 32 33  1  0  0  0  0
 33 34  1  0  0  0  0
 34 35  1  0  0  0  0
 35 36  1  0  0  0  0
 36 37  1  0  0  0  0
 37 38  1  0  0  0  0
 32 39  1  0  0  0  0
 39 40  2  0  0  0  0
 19 41  1  0  0  0  0
 15 42  2  0  0  0  0
 42 43  1  0  0  0  0
 43 44  2  0  0  0  0
 44 45  1  0  0  0  0
 44 46  1  0  0  0  0
 46 47  2  0  0  0  0
 46  7  1  0  0  0  0
 45 10  2  0  0  0  0
 45 14  1  0  0  0  0
 41 16  1  0  0  0  0
 29 20  1  0  0  0  0
 39 23  1  0  0  0  0
 29 24  1  0  0  0  0
  1 48  1  0  0  0  0
  1 49  1  0  0  0  0
  1 50  1  0  0  0  0
  2 51  1  0  0  0  0
  2 52  1  0  0  0  0
  3 53  1  0  0  0  0
  3 54  1  0  0  0  0
  4 55  1  0  0  0  0
  4 56  1  0  0  0  0
  5 57  1  0  0  0  0
  5 58  1  0  0  0  0
  6 59  1  0  0  0  0
  6 60  1  0  0  0  0
 11 61  1  0  0  0  0
 12 62  1  0  0  0  0
 13 63  1  0  0  0  0
 17 64  1  0  0  0  0
 18 65  1  0  0  0  0
 21 66  1  0  0  0  0
 22 67  1  0  0  0  0
 26 68  1  0  0  0  0
 27 69  1  0  0  0  0
 28 70  1  0  0  0  0
 33 71  1  0  0  0  0
 33 72  1  0  0  0  0
 34 73  1  0  0  0  0
 34 74  1  0  0  0  0
 35 75  1  0  0  0  0
 35 76  1  0  0  0  0
 36 77  1  0  0  0  0
 36 78  1  0  0  0  0
 37 79  1  0  0  0  0
 37 80  1  0  0  0  0
 38 81  1  0  0  0  0
 38 82  1  0  0  0  0
 38 83  1  0  0  0  0
 42 84  1  0  0  0  0
 43 85  1  0  0  0  0
M  END
