
  xtb     03022214283D
 energy: -116.246054548880 gnorm: 0.000396593395 xtb: 6.4.1 (afa7bdf)
 70 78  0     0  0            999 V2000
    8.1164   -3.5375    0.0395 C   0  0  0  0  0  0  0  0  0  0  0  0
    6.8318   -3.8716    0.5090 O   0  0  0  0  0  0  0  0  0  0  0  0
    5.8360   -2.9612    0.4061 C   0  0  0  0  0  0  0  0  0  0  0  0
    4.5879   -3.3565    0.8996 C   0  0  0  0  0  0  0  0  0  0  0  0
    3.5124   -2.5064    0.8418 C   0  0  0  0  0  0  0  0  0  0  0  0
    3.6384   -1.2234    0.2918 C   0  0  0  0  0  0  0  0  0  0  0  0
    4.8994   -0.8179   -0.1929 C   0  0  0  0  0  0  0  0  0  0  0  0
    5.9744   -1.6852   -0.1364 C   0  0  0  0  0  0  0  0  0  0  0  0
    5.0667    0.5418   -0.8114 C   0  0  0  0  0  0  0  0  0  0  0  0
    4.2503    1.5880   -0.0525 C   0  0  0  0  0  0  0  0  0  0  0  0
    2.8382    1.1174    0.0088 C   0  0  0  0  0  0  0  0  0  0  0  0
    1.6360    1.7834   -0.0168 C   0  0  0  0  0  0  0  0  0  0  0  0
    1.3348    3.1952   -0.1949 C   0  0  0  0  0  0  0  0  0  0  0  0
    2.0086    3.9676   -1.1400 C   0  0  0  0  0  0  0  0  0  0  0  0
    1.6984    5.3046   -1.3018 C   0  0  0  0  0  0  0  0  0  0  0  0
    0.7126    5.8911   -0.5255 C   0  0  0  0  0  0  0  0  0  0  0  0
    0.0297    5.1287    0.4081 C   0  0  0  0  0  0  0  0  0  0  0  0
    0.3347    3.7919    0.5722 C   0  0  0  0  0  0  0  0  0  0  0  0
    0.6273    0.7719    0.1518 C   0  0  0  0  0  0  0  0  0  0  0  0
    1.2409   -0.4622    0.2960 N   0  0  0  0  0  0  0  0  0  0  0  0
    2.5681   -0.2698    0.2125 C   0  0  0  0  0  0  0  0  0  0  0  0
    0.3922   -1.7554    0.4812 B   0  0  0  0  0  4  0  0  0  0  0  0
    0.7644   -2.7108   -0.4419 F   0  0  0  0  0  0  0  0  0  0  0  0
    0.5576   -2.2539    1.7660 F   0  0  0  0  0  0  0  0  0  0  0  0
   -1.0779   -1.3476    0.2877 N   0  0  0  0  0  4  0  0  0  0  0  0
   -2.1806   -2.1253    0.2896 C   0  0  0  0  0  0  0  0  0  0  0  0
   -2.2443   -3.5242    0.3696 C   0  0  0  0  0  0  0  0  0  0  0  0
   -3.4731   -4.1104    0.3526 C   0  0  0  0  0  0  0  0  0  0  0  0
   -4.6782   -3.3499    0.3075 C   0  0  0  0  0  0  0  0  0  0  0  0
   -5.9253   -3.9931    0.3619 C   0  0  0  0  0  0  0  0  0  0  0  0
   -7.0936   -3.2723    0.3816 C   0  0  0  0  0  0  0  0  0  0  0  0
   -7.0490   -1.8783    0.3656 C   0  0  0  0  0  0  0  0  0  0  0  0
   -5.8433   -1.2205    0.2967 C   0  0  0  0  0  0  0  0  0  0  0  0
   -4.6383   -1.9326    0.2410 C   0  0  0  0  0  0  0  0  0  0  0  0
   -3.3499   -1.3135    0.1704 C   0  0  0  0  0  0  0  0  0  0  0  0
   -2.9086    0.0124    0.0698 C   0  0  0  0  0  0  0  0  0  0  0  0
   -3.6177    1.2553   -0.1853 C   0  0  0  0  0  0  0  0  0  0  0  0
   -4.5654    1.3415   -1.2063 C   0  0  0  0  0  0  0  0  0  0  0  0
   -5.1933    2.5423   -1.4762 C   0  0  0  0  0  0  0  0  0  0  0  0
   -4.8868    3.6726   -0.7353 C   0  0  0  0  0  0  0  0  0  0  0  0
   -3.9387    3.5982    0.2720 C   0  0  0  0  0  0  0  0  0  0  0  0
   -3.3038    2.4017    0.5432 C   0  0  0  0  0  0  0  0  0  0  0  0
   -1.4884   -0.0442    0.1695 C   0  0  0  0  0  0  0  0  0  0  0  0
   -0.6593    0.9791    0.0979 N   0  0  0  0  0  0  0  0  0  0  0  0
    8.1085   -3.3246   -1.0340 H   0  0  0  0  0  0  0  0  0  0  0  0
    8.7353   -4.4133    0.2277 H   0  0  0  0  0  0  0  0  0  0  0  0
    8.5305   -2.6800    0.5792 H   0  0  0  0  0  0  0  0  0  0  0  0
    4.4951   -4.3424    1.3254 H   0  0  0  0  0  0  0  0  0  0  0  0
    2.5694   -2.8284    1.2412 H   0  0  0  0  0  0  0  0  0  0  0  0
    6.9256   -1.3533   -0.5243 H   0  0  0  0  0  0  0  0  0  0  0  0
    4.7145    0.4997   -1.8480 H   0  0  0  0  0  0  0  0  0  0  0  0
    6.1216    0.8204   -0.8290 H   0  0  0  0  0  0  0  0  0  0  0  0
    4.6395    1.6776    0.9680 H   0  0  0  0  0  0  0  0  0  0  0  0
    4.3299    2.5658   -0.5245 H   0  0  0  0  0  0  0  0  0  0  0  0
    2.7525    3.5093   -1.7744 H   0  0  0  0  0  0  0  0  0  0  0  0
    2.2240    5.8912   -2.0414 H   0  0  0  0  0  0  0  0  0  0  0  0
    0.4738    6.9366   -0.6532 H   0  0  0  0  0  0  0  0  0  0  0  0
   -0.7438    5.5811    1.0112 H   0  0  0  0  0  0  0  0  0  0  0  0
   -0.1908    3.1959    1.3004 H   0  0  0  0  0  0  0  0  0  0  0  0
   -1.3318   -4.0938    0.4363 H   0  0  0  0  0  0  0  0  0  0  0  0
   -3.5603   -5.1865    0.3996 H   0  0  0  0  0  0  0  0  0  0  0  0
   -5.9508   -5.0730    0.3999 H   0  0  0  0  0  0  0  0  0  0  0  0
   -8.0462   -3.7794    0.4249 H   0  0  0  0  0  0  0  0  0  0  0  0
   -7.9680   -1.3126    0.4109 H   0  0  0  0  0  0  0  0  0  0  0  0
   -5.8187   -0.1422    0.3031 H   0  0  0  0  0  0  0  0  0  0  0  0
   -4.7851    0.4671   -1.8017 H   0  0  0  0  0  0  0  0  0  0  0  0
   -5.9216    2.5988   -2.2722 H   0  0  0  0  0  0  0  0  0  0  0  0
   -5.3822    4.6087   -0.9469 H   0  0  0  0  0  0  0  0  0  0  0  0
   -3.6946    4.4786    0.8483 H   0  0  0  0  0  0  0  0  0  0  0  0
   -2.5689    2.3372    1.3294 H   0  0  0  0  0  0  0  0  0  0  0  0
  1  2  1  0  0  0  0
  2  3  1  0  0  0  0
  3  4  2  0  0  0  0
  4  5  1  0  0  0  0
  5  6  2  0  0  0  0
  6  7  1  0  0  0  0
  7  8  2  0  0  0  0
  7  9  1  0  0  0  0
  9 10  1  0  0  0  0
 10 11  1  0  0  0  0
 11 12  1  0  0  0  0
 12 13  1  0  0  0  0
 13 14  2  0  0  0  0
 14 15  1  0  0  0  0
 15 16  2  0  0  0  0
 16 17  1  0  0  0  0
 17 18  2  0  0  0  0
 12 19  2  0  0  0  0
 19 20  1  0  0  0  0
 20 21  1  0  0  0  0
 20 22  1  0  0  0  0
 22 23  1  0  0  0  0
 22 24  1  0  0  0  0
 22 25  1  0  0  0  0
 25 26  2  0  0  0  0
 26 27  1  0  0  0  0
 27 28  2  0  0  0  0
 28 29  1  0  0  0  0
 29 30  2  0  0  0  0
 30 31  1  0  0  0  0
 31 32  2  0  0  0  0
 32 33  1  0  0  0  0
 33 34  2  0  0  0  0
 34 35  1  0  0  0  0
 35 36  2  0  0  0  0
 36 37  1  0  0  0  0
 37 38  2  0  0  0  0
 38 39  1  0  0  0  0
 39 40  2  0  0  0  0
 40 41  1  0  0  0  0
 41 42  2  0  0  0  0
 36 43  1  0  0  0  0
 43 44  2  0  0  0  0
  8  3  1  0  0  0  0
 21 11  2  0  0  0  0
 43 25  1  0  0  0  0
 21  6  1  0  0  0  0
 35 26  1  0  0  0  0
 42 37  1  0  0  0  0
 18 13  1  0  0  0  0
 44 19  1  0  0  0  0
 34 29  1  0  0  0  0
  1 45  1  0  0  0  0
  1 46  1  0  0  0  0
  1 47  1  0  0  0  0
  4 48  1  0  0  0  0
  5 49  1  0  0  0  0
  8 50  1  0  0  0  0
  9 51  1  0  0  0  0
  9 52  1  0  0  0  0
 10 53  1  0  0  0  0
 10 54  1  0  0  0  0
 14 55  1  0  0  0  0
 15 56  1  0  0  0  0
 16 57  1  0  0  0  0
 17 58  1  0  0  0  0
 18 59  1  0  0  0  0
 27 60  1  0  0  0  0
 28 61  1  0  0  0  0
 30 62  1  0  0  0  0
 31 63  1  0  0  0  0
 32 64  1  0  0  0  0
 33 65  1  0  0  0  0
 38 66  1  0  0  0  0
 39 67  1  0  0  0  0
 40 68  1  0  0  0  0
 41 69  1  0  0  0  0
 42 70  1  0  0  0  0
M  CHG  1  22  -1
M  CHG  1  25   1
M  END
