
  xtb     03022214033D
 energy: -86.229290496198 gnorm: 0.000079118479 xtb: 6.4.1 (afa7bdf)
 57 61  0     0  0            999 V2000
   -9.4846   -0.7103   -0.0702 C   0  0  0  0  0  0  0  0  0  0  0  0
   -8.4865    0.4170    0.2079 C   0  0  0  0  0  0  0  0  0  0  0  0
   -8.7301    0.9270    1.6353 C   0  0  0  0  0  0  0  0  0  0  0  0
   -8.7495    1.5450   -0.7997 C   0  0  0  0  0  0  0  0  0  0  0  0
   -7.0348   -0.0271    0.0835 C   0  0  0  0  0  0  0  0  0  0  0  0
   -6.6832   -1.3407   -0.2535 C   0  0  0  0  0  0  0  0  0  0  0  0
   -5.3711   -1.7656   -0.3721 C   0  0  0  0  0  0  0  0  0  0  0  0
   -4.3894   -0.8259   -0.1408 C   0  0  0  0  0  0  0  0  0  0  0  0
   -3.0363   -0.9251   -0.1768 O   0  0  0  0  0  0  0  0  0  0  0  0
   -2.6009    0.3274    0.1386 C   0  0  0  0  0  0  0  0  0  0  0  0
   -1.2020    0.5963    0.1960 C   0  0  0  0  0  0  0  0  0  0  0  0
   -0.6127    1.8042    0.4995 C   0  0  0  0  0  0  0  0  0  0  0  0
    0.7799    1.7452    0.4734 C   0  0  0  0  0  0  0  0  0  0  0  0
    1.2533    0.4924    0.1500 C   0  0  0  0  0  0  0  0  0  0  0  0
    2.6213    0.1063    0.0406 C   0  0  0  0  0  0  0  0  0  0  0  0
    3.6381    0.8915    0.2334 N   0  0  0  0  0  0  0  0  0  0  0  0
    4.7404    0.1038    0.0233 C   0  0  0  0  0  0  0  0  0  0  0  0
    6.0946    0.3922    0.0864 C   0  0  0  0  0  0  0  0  0  0  0  0
    7.0042   -0.6214   -0.1800 C   0  0  0  0  0  0  0  0  0  0  0  0
    8.4919   -0.3019   -0.1099 C   0  0  0  0  0  0  0  0  0  0  0  0
    8.8117    0.8037   -1.1260 C   0  0  0  0  0  0  0  0  0  0  0  0
    8.8307    0.1803    1.3077 C   0  0  0  0  0  0  0  0  0  0  0  0
    9.3801   -1.5084   -0.4260 C   0  0  0  0  0  0  0  0  0  0  0  0
    6.5305   -1.8995   -0.5033 C   0  0  0  0  0  0  0  0  0  0  0  0
    5.1837   -2.2117   -0.5725 C   0  0  0  0  0  0  0  0  0  0  0  0
    4.2943   -1.1932   -0.3049 C   0  0  0  0  0  0  0  0  0  0  0  0
    2.9372   -1.1776   -0.2903 O   0  0  0  0  0  0  0  0  0  0  0  0
   -0.0299   -0.6352   -0.1275 S   0  0  0  0  0  0  0  0  0  0  0  0
   -3.5398    1.1956    0.3670 N   0  0  0  0  0  0  0  0  0  0  0  0
   -4.7118    0.5040    0.2002 C   0  0  0  0  0  0  0  0  0  0  0  0
   -6.0335    0.9059    0.3129 C   0  0  0  0  0  0  0  0  0  0  0  0
   -9.3754   -1.0911   -1.0829 H   0  0  0  0  0  0  0  0  0  0  0  0
  -10.4976   -0.3273    0.0354 H   0  0  0  0  0  0  0  0  0  0  0  0
   -9.3613   -1.5277    0.6363 H   0  0  0  0  0  0  0  0  0  0  0  0
   -8.5250    0.1384    2.3562 H   0  0  0  0  0  0  0  0  0  0  0  0
   -8.0924    1.7748    1.8678 H   0  0  0  0  0  0  0  0  0  0  0  0
   -9.7662    1.2382    1.7495 H   0  0  0  0  0  0  0  0  0  0  0  0
   -8.5585    1.1963   -1.8125 H   0  0  0  0  0  0  0  0  0  0  0  0
   -8.1119    2.4033   -0.6095 H   0  0  0  0  0  0  0  0  0  0  0  0
   -9.7860    1.8693   -0.7360 H   0  0  0  0  0  0  0  0  0  0  0  0
   -7.4555   -2.0695   -0.4328 H   0  0  0  0  0  0  0  0  0  0  0  0
   -5.1283   -2.7831   -0.6330 H   0  0  0  0  0  0  0  0  0  0  0  0
   -1.1939    2.6780    0.7271 H   0  0  0  0  0  0  0  0  0  0  0  0
    1.4410    2.5665    0.6777 H   0  0  0  0  0  0  0  0  0  0  0  0
    6.4043    1.3921    0.3397 H   0  0  0  0  0  0  0  0  0  0  0  0
    8.2566    1.7122   -0.9114 H   0  0  0  0  0  0  0  0  0  0  0  0
    8.5541    0.4763   -2.1311 H   0  0  0  0  0  0  0  0  0  0  0  0
    9.8735    1.0388   -1.1010 H   0  0  0  0  0  0  0  0  0  0  0  0
    9.8930    0.4026    1.3831 H   0  0  0  0  0  0  0  0  0  0  0  0
    8.5869   -0.5910    2.0352 H   0  0  0  0  0  0  0  0  0  0  0  0
    8.2759    1.0779    1.5645 H   0  0  0  0  0  0  0  0  0  0  0  0
    9.2148   -2.3150    0.2844 H   0  0  0  0  0  0  0  0  0  0  0  0
   10.4251   -1.2126   -0.3586 H   0  0  0  0  0  0  0  0  0  0  0  0
    9.2011   -1.8750   -1.4340 H   0  0  0  0  0  0  0  0  0  0  0  0
    7.2313   -2.6905   -0.7111 H   0  0  0  0  0  0  0  0  0  0  0  0
    4.8463   -3.2044   -0.8237 H   0  0  0  0  0  0  0  0  0  0  0  0
   -6.2479    1.9283    0.5748 H   0  0  0  0  0  0  0  0  0  0  0  0
  1  2  1  0  0  0  0
  2  3  1  0  0  0  0
  2  4  1  0  0  0  0
  2  5  1  0  0  0  0
  5  6  2  0  0  0  0
  6  7  1  0  0  0  0
  7  8  2  0  0  0  0
  8  9  1  0  0  0  0
  9 10  1  0  0  0  0
 10 11  1  0  0  0  0
 11 12  2  0  0  0  0
 12 13  1  0  0  0  0
 13 14  2  0  0  0  0
 14 15  1  0  0  0  0
 15 16  2  0  0  0  0
 16 17  1  0  0  0  0
 17 18  2  0  0  0  0
 18 19  1  0  0  0  0
 19 20  1  0  0  0  0
 20 21  1  0  0  0  0
 20 22  1  0  0  0  0
 20 23  1  0  0  0  0
 19 24  2  0  0  0  0
 24 25  1  0  0  0  0
 25 26  2  0  0  0  0
 26 27  1  0  0  0  0
 14 28  1  0  0  0  0
 10 29  2  0  0  0  0
 29 30  1  0  0  0  0
 30 31  2  0  0  0  0
 31  5  1  0  0  0  0
 30  8  1  0  0  0  0
 28 11  1  0  0  0  0
 27 15  1  0  0  0  0
 26 17  1  0  0  0  0
  1 32  1  0  0  0  0
  1 33  1  0  0  0  0
  1 34  1  0  0  0  0
  3 35  1  0  0  0  0
  3 36  1  0  0  0  0
  3 37  1  0  0  0  0
  4 38  1  0  0  0  0
  4 39  1  0  0  0  0
  4 40  1  0  0  0  0
  6 41  1  0  0  0  0
  7 42  1  0  0  0  0
 12 43  1  0  0  0  0
 13 44  1  0  0  0  0
 18 45  1  0  0  0  0
 21 46  1  0  0  0  0
 21 47  1  0  0  0  0
 21 48  1  0  0  0  0
 22 49  1  0  0  0  0
 22 50  1  0  0  0  0
 22 51  1  0  0  0  0
 23 52  1  0  0  0  0
 23 53  1  0  0  0  0
 23 54  1  0  0  0  0
 24 55  1  0  0  0  0
 25 56  1  0  0  0  0
 31 57  1  0  0  0  0
M  END
