
  xtb     03022215303D
 energy: -78.771600256006 gnorm: 0.000311027424 xtb: 6.4.1 (afa7bdf)
 42 45  0     0  0            999 V2000
   -5.5327   -0.8855    0.0093 C   0  0  0  0  0  0  0  0  0  0  0  0
   -4.3674    0.0350   -0.0032 C   0  0  0  0  0  0  0  0  0  0  0  0
   -4.3694    1.4115   -0.1238 C   0  0  0  0  0  0  0  0  0  0  0  0
   -3.0396    1.8531   -0.0844 C   0  0  0  0  0  0  0  0  0  0  0  0
   -2.5299    3.2389   -0.1593 C   0  0  0  0  0  0  0  0  0  0  0  0
   -2.2274    0.7939    0.0459 N   0  0  0  0  0  0  0  0  0  0  0  0
   -3.0055   -0.3494    0.1053 C   0  0  0  0  0  0  0  0  0  0  0  0
   -2.4253   -1.6020    0.2226 C   0  0  0  0  0  0  0  0  0  0  0  0
   -1.0550   -1.7413    0.2629 C   0  0  0  0  0  0  0  0  0  0  0  0
   -0.2604   -2.9427    0.2560 C   0  0  0  0  0  0  0  0  0  0  0  0
   -0.5423   -4.1198    0.3155 O   0  0  0  0  0  0  0  0  0  0  0  0
    1.0627   -2.4558    0.1524 N   0  0  0  0  0  0  0  0  0  0  0  0
    2.1999   -3.3351    0.1733 C   0  0  0  0  0  0  0  0  0  0  0  0
    1.0468   -1.1046    0.1435 C   0  0  0  0  0  0  0  0  0  0  0  0
    2.2435   -0.2790    0.0221 C   0  0  0  0  0  0  0  0  0  0  0  0
    3.1590   -0.5489   -0.9994 C   0  0  0  0  0  0  0  0  0  0  0  0
    4.2904    0.2254   -1.1417 C   0  0  0  0  0  0  0  0  0  0  0  0
    4.5139    1.2711   -0.2536 C   0  0  0  0  0  0  0  0  0  0  0  0
    5.7029    2.0768   -0.3962 N   0  0  0  0  0  4  0  0  0  0  0  0
    5.8612    2.9883    0.3857 O   0  0  0  0  0  0  0  0  0  0  0  0
    6.4727    1.7863   -1.2866 O   0  0  0  0  0  1  0  0  0  0  0  0
    3.6123    1.5525    0.7653 C   0  0  0  0  0  0  0  0  0  0  0  0
    2.4791    0.7774    0.9035 C   0  0  0  0  0  0  0  0  0  0  0  0
   -0.1955   -0.6574    0.2193 N   0  0  0  0  0  4  0  0  0  0  0  0
   -0.7066    0.8261    0.2270 B   0  0  0  0  0  4  0  0  0  0  0  0
   -0.0729    1.5112   -0.7855 F   0  0  0  0  0  0  0  0  0  0  0  0
   -0.3947    1.3992    1.4475 F   0  0  0  0  0  0  0  0  0  0  0  0
   -5.5508   -1.4657    0.9310 H   0  0  0  0  0  0  0  0  0  0  0  0
   -5.4751   -1.5854   -0.8236 H   0  0  0  0  0  0  0  0  0  0  0  0
   -6.4586   -0.3225   -0.0698 H   0  0  0  0  0  0  0  0  0  0  0  0
   -5.2276    2.0462   -0.2277 H   0  0  0  0  0  0  0  0  0  0  0  0
   -1.8815    3.3506   -1.0276 H   0  0  0  0  0  0  0  0  0  0  0  0
   -3.3513    3.9464   -0.2224 H   0  0  0  0  0  0  0  0  0  0  0  0
   -1.9237    3.4555    0.7195 H   0  0  0  0  0  0  0  0  0  0  0  0
   -3.0355   -2.4902    0.2587 H   0  0  0  0  0  0  0  0  0  0  0  0
    3.0133   -2.8972    0.7498 H   0  0  0  0  0  0  0  0  0  0  0  0
    2.5461   -3.5566   -0.8378 H   0  0  0  0  0  0  0  0  0  0  0  0
    1.8699   -4.2676    0.6336 H   0  0  0  0  0  0  0  0  0  0  0  0
    2.9640   -1.3432   -1.7022 H   0  0  0  0  0  0  0  0  0  0  0  0
    5.0033    0.0407   -1.9307 H   0  0  0  0  0  0  0  0  0  0  0  0
    3.8114    2.3751    1.4348 H   0  0  0  0  0  0  0  0  0  0  0  0
    1.7761    0.9883    1.6909 H   0  0  0  0  0  0  0  0  0  0  0  0
  1  2  1  0  0  0  0
  2  3  1  0  0  0  0
  3  4  2  0  0  0  0
  4  5  1  0  0  0  0
  4  6  1  0  0  0  0
  6  7  1  0  0  0  0
  7  8  1  0  0  0  0
  8  9  2  0  0  0  0
  9 10  1  0  0  0  0
 10 11  2  0  0  0  0
 10 12  1  0  0  0  0
 12 13  1  0  0  0  0
 12 14  1  0  0  0  0
 14 15  1  0  0  0  0
 15 16  2  0  0  0  0
 16 17  1  0  0  0  0
 17 18  2  0  0  0  0
 18 19  1  0  0  0  0
 19 20  2  0  0  0  0
 19 21  1  0  0  0  0
 18 22  1  0  0  0  0
 22 23  2  0  0  0  0
 14 24  2  0  0  0  0
 24 25  1  0  0  0  0
 25 26  1  0  0  0  0
 25 27  1  0  0  0  0
  7  2  2  0  0  0  0
 24  9  1  0  0  0  0
 25  6  1  0  0  0  0
 23 15  1  0  0  0  0
  1 28  1  0  0  0  0
  1 29  1  0  0  0  0
  1 30  1  0  0  0  0
  3 31  1  0  0  0  0
  5 32  1  0  0  0  0
  5 33  1  0  0  0  0
  5 34  1  0  0  0  0
  8 35  1  0  0  0  0
 13 36  1  0  0  0  0
 13 37  1  0  0  0  0
 13 38  1  0  0  0  0
 16 39  1  0  0  0  0
 17 40  1  0  0  0  0
 22 41  1  0  0  0  0
 23 42  1  0  0  0  0
M  CHG  1  19   1
M  CHG  1  21  -1
M  CHG  1  24   1
M  CHG  1  25  -1
M  END
