
  xtb     03022212173D
 energy: -134.927974846775 gnorm: 0.000148883253 xtb: 6.4.1 (afa7bdf)
 86 94  0     0  0            999 V2000
   -7.5555   -2.0773   -1.7724 N   0  0  0  0  0  0  0  0  0  0  0  0
   -6.6783   -2.2908   -0.7271 C   0  0  0  0  0  0  0  0  0  0  0  0
   -7.0321   -3.1167    0.3403 C   0  0  0  0  0  0  0  0  0  0  0  0
   -6.1202   -3.3855    1.3423 C   0  0  0  0  0  0  0  0  0  0  0  0
   -4.8478   -2.8442    1.3029 C   0  0  0  0  0  0  0  0  0  0  0  0
   -4.4805   -2.0144    0.2470 C   0  0  0  0  0  0  0  0  0  0  0  0
   -3.1268   -1.4220    0.1963 C   0  0  0  0  0  0  0  0  0  0  0  0
   -2.0356   -2.2917    0.1160 C   0  0  0  0  0  0  0  0  0  0  0  0
   -0.7297   -1.9473    0.1571 N   0  0  0  0  0  0  0  0  0  0  0  0
   -0.0354   -3.1046    0.0912 C   0  0  0  0  0  0  0  0  0  0  0  0
    1.3547   -3.2426    0.1413 C   0  0  0  0  0  0  0  0  0  0  0  0
    1.9137   -4.6108    0.1697 C   0  0  0  0  0  0  0  0  0  0  0  0
    1.6134   -5.4738    1.2205 C   0  0  0  0  0  0  0  0  0  0  0  0
    2.1494   -6.7488    1.2383 C   0  0  0  0  0  0  0  0  0  0  0  0
    2.9774   -7.1800    0.2203 C   0  0  0  0  0  0  0  0  0  0  0  0
    3.2848   -6.3291   -0.8419 C   0  0  0  0  0  0  0  0  0  0  0  0
    4.0490   -6.7750   -1.9022 N   0  0  0  0  0  0  0  0  0  0  0  0
    2.7494   -5.0425   -0.8503 C   0  0  0  0  0  0  0  0  0  0  0  0
    2.2645   -2.1846    0.1684 C   0  0  0  0  0  0  0  0  0  0  0  0
    3.6789   -2.2821    0.2917 C   0  0  0  0  0  0  0  0  0  0  0  0
    4.1899   -1.0187    0.2538 C   0  0  0  0  0  0  0  0  0  0  0  0
    3.1016   -0.1134    0.1075 C   0  0  0  0  0  0  0  0  0  0  0  0
    1.9634   -0.8599    0.0768 N   0  0  0  0  0  0  0  0  0  0  0  0
    3.1845    1.2763    0.0133 C   0  0  0  0  0  0  0  0  0  0  0  0
    4.5413    1.8631   -0.0201 C   0  0  0  0  0  0  0  0  0  0  0  0
    5.4170    1.5551   -1.0580 C   0  0  0  0  0  0  0  0  0  0  0  0
    6.6792    2.1205   -1.0838 C   0  0  0  0  0  0  0  0  0  0  0  0
    7.0860    2.9834   -0.0851 C   0  0  0  0  0  0  0  0  0  0  0  0
    6.2231    3.2968    0.9658 C   0  0  0  0  0  0  0  0  0  0  0  0
    6.6456    4.0973    2.0084 N   0  0  0  0  0  0  0  0  0  0  0  0
    4.9496    2.7311    0.9822 C   0  0  0  0  0  0  0  0  0  0  0  0
    2.0911    2.1448   -0.0517 C   0  0  0  0  0  0  0  0  0  0  0  0
    0.7884    1.8036    0.0578 N   0  0  0  0  0  0  0  0  0  0  0  0
    0.0903    2.9578   -0.0172 C   0  0  0  0  0  0  0  0  0  0  0  0
   -1.2970    3.0971    0.0833 C   0  0  0  0  0  0  0  0  0  0  0  0
   -1.8594    4.4645    0.0880 C   0  0  0  0  0  0  0  0  0  0  0  0
   -1.5268    5.3612    1.0999 C   0  0  0  0  0  0  0  0  0  0  0  0
   -2.0672    6.6345    1.0963 C   0  0  0  0  0  0  0  0  0  0  0  0
   -2.9303    7.0315    0.0935 C   0  0  0  0  0  0  0  0  0  0  0  0
   -3.2717    6.1459   -0.9290 C   0  0  0  0  0  0  0  0  0  0  0  0
   -4.1904    6.5074   -1.8962 N   0  0  0  0  0  0  0  0  0  0  0  0
   -2.7283    4.8629   -0.9177 C   0  0  0  0  0  0  0  0  0  0  0  0
   -2.2043    2.0415    0.1827 C   0  0  0  0  0  0  0  0  0  0  0  0
   -3.6130    2.1463    0.3563 C   0  0  0  0  0  0  0  0  0  0  0  0
   -4.1239    0.8827    0.3887 C   0  0  0  0  0  0  0  0  0  0  0  0
   -3.0425   -0.0297    0.2355 C   0  0  0  0  0  0  0  0  0  0  0  0
   -1.9067    0.7139    0.1308 N   0  0  0  0  0  0  0  0  0  0  0  0
    0.9829    4.0841   -0.2290 C   0  0  0  0  0  0  0  0  0  0  0  0
    2.2302    3.5770   -0.2519 C   0  0  0  0  0  0  0  0  0  0  0  0
   -0.9360   -4.2368   -0.0452 C   0  0  0  0  0  0  0  0  0  0  0  0
   -2.1831   -3.7299   -0.0299 C   0  0  0  0  0  0  0  0  0  0  0  0
   -5.3984   -1.7403   -0.7568 C   0  0  0  0  0  0  0  0  0  0  0  0
   -8.5301   -2.2399   -1.5781 H   0  0  0  0  0  0  0  0  0  0  0  0
   -7.3712   -1.2748   -2.3521 H   0  0  0  0  0  0  0  0  0  0  0  0
   -8.0236   -3.5454    0.3733 H   0  0  0  0  0  0  0  0  0  0  0  0
   -6.4064   -4.0240    2.1654 H   0  0  0  0  0  0  0  0  0  0  0  0
   -4.1389   -3.0496    2.0905 H   0  0  0  0  0  0  0  0  0  0  0  0
    0.9730   -5.1360    2.0210 H   0  0  0  0  0  0  0  0  0  0  0  0
    1.9209   -7.4154    2.0572 H   0  0  0  0  0  0  0  0  0  0  0  0
    3.3905   -8.1785    0.2368 H   0  0  0  0  0  0  0  0  0  0  0  0
    4.4673   -6.0645   -2.4804 H   0  0  0  0  0  0  0  0  0  0  0  0
    4.6379   -7.5723   -1.7248 H   0  0  0  0  0  0  0  0  0  0  0  0
    2.9752   -4.3781   -1.6729 H   0  0  0  0  0  0  0  0  0  0  0  0
    4.2217   -3.1990    0.4113 H   0  0  0  0  0  0  0  0  0  0  0  0
    5.2197   -0.7308    0.3339 H   0  0  0  0  0  0  0  0  0  0  0  0
    1.0252   -0.4843    0.0211 H   0  0  0  0  0  0  0  0  0  0  0  0
    5.0972    0.8906   -1.8463 H   0  0  0  0  0  0  0  0  0  0  0  0
    7.3545    1.8889   -1.8949 H   0  0  0  0  0  0  0  0  0  0  0  0
    8.0739    3.4211   -0.1089 H   0  0  0  0  0  0  0  0  0  0  0  0
    5.9218    4.5120    2.5727 H   0  0  0  0  0  0  0  0  0  0  0  0
    7.4281    4.7022    1.8191 H   0  0  0  0  0  0  0  0  0  0  0  0
    4.2736    2.9645    1.7930 H   0  0  0  0  0  0  0  0  0  0  0  0
   -0.8561    5.0513    1.8868 H   0  0  0  0  0  0  0  0  0  0  0  0
   -1.8106    7.3287    1.8834 H   0  0  0  0  0  0  0  0  0  0  0  0
   -3.3475    8.0284    0.0935 H   0  0  0  0  0  0  0  0  0  0  0  0
   -4.3193    7.4963   -2.0379 H   0  0  0  0  0  0  0  0  0  0  0  0
   -4.1754    5.9647   -2.7447 H   0  0  0  0  0  0  0  0  0  0  0  0
   -2.9785    4.1723   -1.7111 H   0  0  0  0  0  0  0  0  0  0  0  0
   -4.1517    3.0680    0.4571 H   0  0  0  0  0  0  0  0  0  0  0  0
   -5.1495    0.6001    0.5233 H   0  0  0  0  0  0  0  0  0  0  0  0
   -0.9717    0.3338    0.0539 H   0  0  0  0  0  0  0  0  0  0  0  0
    0.6715    5.1021   -0.3607 H   0  0  0  0  0  0  0  0  0  0  0  0
    3.1584    4.0907   -0.4104 H   0  0  0  0  0  0  0  0  0  0  0  0
   -0.6297   -5.2582   -0.1584 H   0  0  0  0  0  0  0  0  0  0  0  0
   -3.1174   -4.2472   -0.1273 H   0  0  0  0  0  0  0  0  0  0  0  0
   -5.1120   -1.1047   -1.5833 H   0  0  0  0  0  0  0  0  0  0  0  0
  1  2  1  0  0  0  0
  2  3  2  0  0  0  0
  3  4  1  0  0  0  0
  4  5  2  0  0  0  0
  5  6  1  0  0  0  0
  6  7  1  0  0  0  0
  7  8  1  0  0  0  0
  8  9  2  0  0  0  0
  9 10  1  0  0  0  0
 10 11  2  0  0  0  0
 11 12  1  0  0  0  0
 12 13  2  0  0  0  0
 13 14  1  0  0  0  0
 14 15  2  0  0  0  0
 15 16  1  0  0  0  0
 16 17  1  0  0  0  0
 16 18  2  0  0  0  0
 11 19  1  0  0  0  0
 19 20  2  0  0  0  0
 20 21  1  0  0  0  0
 21 22  2  0  0  0  0
 22 23  1  0  0  0  0
 22 24  1  0  0  0  0
 24 25  1  0  0  0  0
 25 26  2  0  0  0  0
 26 27  1  0  0  0  0
 27 28  2  0  0  0  0
 28 29  1  0  0  0  0
 29 30  1  0  0  0  0
 29 31  2  0  0  0  0
 24 32  2  0  0  0  0
 32 33  1  0  0  0  0
 33 34  2  0  0  0  0
 34 35  1  0  0  0  0
 35 36  1  0  0  0  0
 36 37  2  0  0  0  0
 37 38  1  0  0  0  0
 38 39  2  0  0  0  0
 39 40  1  0  0  0  0
 40 41  1  0  0  0  0
 40 42  2  0  0  0  0
 35 43  2  0  0  0  0
 43 44  1  0  0  0  0
 44 45  2  0  0  0  0
 45 46  1  0  0  0  0
 46 47  1  0  0  0  0
 34 48  1  0  0  0  0
 48 49  2  0  0  0  0
 10 50  1  0  0  0  0
 50 51  2  0  0  0  0
  6 52  2  0  0  0  0
 52  2  1  0  0  0  0
 46  7  2  0  0  0  0
 51  8  1  0  0  0  0
 18 12  1  0  0  0  0
 23 19  1  0  0  0  0
 31 25  1  0  0  0  0
 49 32  1  0  0  0  0
 42 36  1  0  0  0  0
 47 43  1  0  0  0  0
  1 53  1  0  0  0  0
  1 54  1  0  0  0  0
  3 55  1  0  0  0  0
  4 56  1  0  0  0  0
  5 57  1  0  0  0  0
 13 58  1  0  0  0  0
 14 59  1  0  0  0  0
 15 60  1  0  0  0  0
 17 61  1  0  0  0  0
 17 62  1  0  0  0  0
 18 63  1  0  0  0  0
 20 64  1  0  0  0  0
 21 65  1  0  0  0  0
 23 66  1  0  0  0  0
 26 67  1  0  0  0  0
 27 68  1  0  0  0  0
 28 69  1  0  0  0  0
 30 70  1  0  0  0  0
 30 71  1  0  0  0  0
 31 72  1  0  0  0  0
 37 73  1  0  0  0  0
 38 74  1  0  0  0  0
 39 75  1  0  0  0  0
 41 76  1  0  0  0  0
 41 77  1  0  0  0  0
 42 78  1  0  0  0  0
 44 79  1  0  0  0  0
 45 80  1  0  0  0  0
 47 81  1  0  0  0  0
 48 82  1  0  0  0  0
 49 83  1  0  0  0  0
 50 84  1  0  0  0  0
 51 85  1  0  0  0  0
 52 86  1  0  0  0  0
M  END
