
  xtb     03022212253D
 energy: -50.893817054955 gnorm: 0.000132033118 xtb: 6.4.1 (afa7bdf)
 33 36  0     0  0            999 V2000
   -2.3110   -3.1087   -0.6214 C   0  0  0  0  0  0  0  0  0  0  0  0
   -1.9915   -3.1717    0.7240 C   0  0  0  0  0  0  0  0  0  0  0  0
   -1.3531   -2.1058    1.3333 C   0  0  0  0  0  0  0  0  0  0  0  0
   -1.0307   -0.9732    0.5965 C   0  0  0  0  0  0  0  0  0  0  0  0
   -0.1476    0.3920    1.4574 P   0  0  0  0  0  0  0  0  0  0  0  0
    1.3251    0.4730    0.3696 C   0  0  0  0  0  0  0  0  0  0  0  0
    2.3453   -0.5222    0.4670 C   0  0  0  0  0  0  0  0  0  0  0  0
    3.4628   -0.7173   -0.3051 C   0  0  0  0  0  0  0  0  0  0  0  0
    4.2159   -1.8380    0.0880 C   0  0  0  0  0  0  0  0  0  0  0  0
    3.6737   -2.4898    1.1515 C   0  0  0  0  0  0  0  0  0  0  0  0
    2.2257   -1.7467    1.6959 S   0  0  0  0  0  0  0  0  0  0  0  0
    1.3089    1.5664   -0.4329 C   0  0  0  0  0  0  0  0  0  0  0  0
    0.1140    2.3600   -0.3346 C   0  0  0  0  0  0  0  0  0  0  0  0
   -0.1973    3.5119   -1.0484 C   0  0  0  0  0  0  0  0  0  0  0  0
   -1.4231    4.1220   -0.8512 C   0  0  0  0  0  0  0  0  0  0  0  0
   -2.3381    3.6023    0.0542 C   0  0  0  0  0  0  0  0  0  0  0  0
   -2.0347    2.4644    0.7865 C   0  0  0  0  0  0  0  0  0  0  0  0
   -0.8196    1.8381    0.5840 C   0  0  0  0  0  0  0  0  0  0  0  0
   -1.3527   -0.9116   -0.7544 C   0  0  0  0  0  0  0  0  0  0  0  0
   -1.9916   -1.9785   -1.3575 C   0  0  0  0  0  0  0  0  0  0  0  0
   -2.8090   -3.9399   -1.0987 H   0  0  0  0  0  0  0  0  0  0  0  0
   -2.2397   -4.0515    1.2996 H   0  0  0  0  0  0  0  0  0  0  0  0
   -1.0976   -2.1476    2.3829 H   0  0  0  0  0  0  0  0  0  0  0  0
    3.7285   -0.0800   -1.1290 H   0  0  0  0  0  0  0  0  0  0  0  0
    5.1238   -2.1475   -0.3987 H   0  0  0  0  0  0  0  0  0  0  0  0
    4.0385   -3.3646    1.6517 H   0  0  0  0  0  0  0  0  0  0  0  0
    2.1076    1.8324   -1.1074 H   0  0  0  0  0  0  0  0  0  0  0  0
    0.5145    3.9219   -1.7505 H   0  0  0  0  0  0  0  0  0  0  0  0
   -1.6717    5.0141   -1.4076 H   0  0  0  0  0  0  0  0  0  0  0  0
   -3.2908    4.0918    0.1934 H   0  0  0  0  0  0  0  0  0  0  0  0
   -2.7415    2.0654    1.5001 H   0  0  0  0  0  0  0  0  0  0  0  0
   -1.1027   -0.0314   -1.3301 H   0  0  0  0  0  0  0  0  0  0  0  0
   -2.2402   -1.9299   -2.4080 H   0  0  0  0  0  0  0  0  0  0  0  0
  1  2  2  0  0  0  0
  2  3  1  0  0  0  0
  3  4  2  0  0  0  0
  4  5  1  0  0  0  0
  5  6  1  0  0  0  0
  6  7  1  0  0  0  0
  7  8  2  0  0  0  0
  8  9  1  0  0  0  0
  9 10  2  0  0  0  0
 10 11  1  0  0  0  0
  6 12  2  0  0  0  0
 12 13  1  0  0  0  0
 13 14  2  0  0  0  0
 14 15  1  0  0  0  0
 15 16  2  0  0  0  0
 16 17  1  0  0  0  0
 17 18  2  0  0  0  0
  4 19  1  0  0  0  0
 19 20  2  0  0  0  0
 20  1  1  0  0  0  0
 18  5  1  0  0  0  0
 11  7  1  0  0  0  0
 18 13  1  0  0  0  0
  1 21  1  0  0  0  0
  2 22  1  0  0  0  0
  3 23  1  0  0  0  0
  8 24  1  0  0  0  0
  9 25  1  0  0  0  0
 10 26  1  0  0  0  0
 12 27  1  0  0  0  0
 14 28  1  0  0  0  0
 15 29  1  0  0  0  0
 16 30  1  0  0  0  0
 17 31  1  0  0  0  0
 19 32  1  0  0  0  0
 20 33  1  0  0  0  0
M  END
