
  xtb     03022216063D
 energy: -84.620835027241 gnorm: 0.000383974939 xtb: 6.4.1 (afa7bdf)
 46 49  0     0  0            999 V2000
   -8.2494   -5.1447    3.5371 O   0  0  0  0  0  0  0  0  0  0  0  0
   -8.5562   -4.4618    2.5812 N   0  0  0  0  0  4  0  0  0  0  0  0
   -9.6695   -4.4117    2.0994 O   0  0  0  0  0  1  0  0  0  0  0  0
   -7.5301   -3.6572    1.9779 C   0  0  0  0  0  0  0  0  0  0  0  0
   -7.8447   -2.8521    0.8866 C   0  0  0  0  0  0  0  0  0  0  0  0
   -6.8611   -2.0815    0.3087 C   0  0  0  0  0  0  0  0  0  0  0  0
   -5.5561   -2.1109    0.8163 C   0  0  0  0  0  0  0  0  0  0  0  0
   -4.5507   -1.3261    0.2220 C   0  0  0  0  0  0  0  0  0  0  0  0
   -3.6821   -0.6557   -0.2856 C   0  0  0  0  0  0  0  0  0  0  0  0
   -2.6791    0.1289   -0.8887 C   0  0  0  0  0  0  0  0  0  0  0  0
   -3.0224    1.0062   -1.9459 C   0  0  0  0  0  0  0  0  0  0  0  0
   -2.0643    1.7720   -2.5416 C   0  0  0  0  0  0  0  0  0  0  0  0
   -0.7178    1.7069   -2.1243 C   0  0  0  0  0  0  0  0  0  0  0  0
    0.2917    2.4886   -2.7254 C   0  0  0  0  0  0  0  0  0  0  0  0
    1.5871    2.4052   -2.3079 C   0  0  0  0  0  0  0  0  0  0  0  0
    1.9429    1.5249   -1.2573 C   0  0  0  0  0  0  0  0  0  0  0  0
    3.2875    1.4473   -0.8435 C   0  0  0  0  0  0  0  0  0  0  0  0
    4.4453    1.3879   -0.5006 C   0  0  0  0  0  0  0  0  0  0  0  0
    5.7918    1.3118   -0.0993 C   0  0  0  0  0  0  0  0  0  0  0  0
    6.7452    2.1578   -0.6796 C   0  0  0  0  0  0  0  0  0  0  0  0
    8.0633    2.0842   -0.2891 C   0  0  0  0  0  0  0  0  0  0  0  0
    8.4374    1.1626    0.6851 C   0  0  0  0  0  0  0  0  0  0  0  0
    9.8131    1.0847    1.0924 N   0  0  0  0  0  4  0  0  0  0  0  0
   10.6022    1.8411    0.5639 O   0  0  0  0  0  0  0  0  0  0  0  0
   10.1054    0.2669    1.9409 O   0  0  0  0  0  1  0  0  0  0  0  0
    7.5010    0.3152    1.2708 C   0  0  0  0  0  0  0  0  0  0  0  0
    6.1830    0.3901    0.8801 C   0  0  0  0  0  0  0  0  0  0  0  0
    0.9759    0.7517   -0.6502 C   0  0  0  0  0  0  0  0  0  0  0  0
   -0.3668    0.8246   -1.0652 C   0  0  0  0  0  0  0  0  0  0  0  0
   -1.3709    0.0456   -0.4608 C   0  0  0  0  0  0  0  0  0  0  0  0
   -5.2546   -2.9256    1.9148 C   0  0  0  0  0  0  0  0  0  0  0  0
   -6.2377   -3.6958    2.4941 C   0  0  0  0  0  0  0  0  0  0  0  0
   -8.8570   -2.8469    0.5123 H   0  0  0  0  0  0  0  0  0  0  0  0
   -7.0859   -1.4513   -0.5380 H   0  0  0  0  0  0  0  0  0  0  0  0
   -4.0524    1.0557   -2.2663 H   0  0  0  0  0  0  0  0  0  0  0  0
   -2.3247    2.4433   -3.3473 H   0  0  0  0  0  0  0  0  0  0  0  0
    0.0188    3.1584   -3.5281 H   0  0  0  0  0  0  0  0  0  0  0  0
    2.3592    3.0033   -2.7686 H   0  0  0  0  0  0  0  0  0  0  0  0
    6.4361    2.8658   -1.4334 H   0  0  0  0  0  0  0  0  0  0  0  0
    8.8157    2.7259   -0.7216 H   0  0  0  0  0  0  0  0  0  0  0  0
    7.8264   -0.3873    2.0229 H   0  0  0  0  0  0  0  0  0  0  0  0
    5.4427   -0.2586    1.3227 H   0  0  0  0  0  0  0  0  0  0  0  0
    1.2456    0.0808    0.1527 H   0  0  0  0  0  0  0  0  0  0  0  0
   -1.1073   -0.6244    0.3450 H   0  0  0  0  0  0  0  0  0  0  0  0
   -4.2468   -2.9427    2.3006 H   0  0  0  0  0  0  0  0  0  0  0  0
   -6.0294   -4.3312    3.3413 H   0  0  0  0  0  0  0  0  0  0  0  0
  1  2  2  0  0  0  0
  2  3  1  0  0  0  0
  2  4  1  0  0  0  0
  4  5  2  0  0  0  0
  5  6  1  0  0  0  0
  6  7  2  0  0  0  0
  7  8  1  0  0  0  0
  8  9  3  0  0  0  0
  9 10  1  0  0  0  0
 10 11  2  0  0  0  0
 11 12  1  0  0  0  0
 12 13  2  0  0  0  0
 13 14  1  0  0  0  0
 14 15  2  0  0  0  0
 15 16  1  0  0  0  0
 16 17  1  0  0  0  0
 17 18  3  0  0  0  0
 18 19  1  0  0  0  0
 19 20  2  0  0  0  0
 20 21  1  0  0  0  0
 21 22  2  0  0  0  0
 22 23  1  0  0  0  0
 23 24  2  0  0  0  0
 23 25  1  0  0  0  0
 22 26  1  0  0  0  0
 26 27  2  0  0  0  0
 16 28  2  0  0  0  0
 28 29  1  0  0  0  0
 29 30  2  0  0  0  0
  7 31  1  0  0  0  0
 31 32  2  0  0  0  0
 32  4  1  0  0  0  0
 30 10  1  0  0  0  0
 29 13  1  0  0  0  0
 27 19  1  0  0  0  0
  5 33  1  0  0  0  0
  6 34  1  0  0  0  0
 11 35  1  0  0  0  0
 12 36  1  0  0  0  0
 14 37  1  0  0  0  0
 15 38  1  0  0  0  0
 20 39  1  0  0  0  0
 21 40  1  0  0  0  0
 26 41  1  0  0  0  0
 27 42  1  0  0  0  0
 28 43  1  0  0  0  0
 30 44  1  0  0  0  0
 31 45  1  0  0  0  0
 32 46  1  0  0  0  0
M  CHG  1   2   1
M  CHG  1   3  -1
M  CHG  1  23   1
M  CHG  1  25  -1
M  END
