
  xtb     03022212173D
 energy: -101.160006524464 gnorm: 0.000189116741 xtb: 6.4.1 (afa7bdf)
 66 74  0     0  0            999 V2000
   -4.1736   -2.1572   -2.8406 C   0  0  0  0  0  0  0  0  0  0  0  0
   -4.7026   -2.0055   -1.5703 C   0  0  0  0  0  0  0  0  0  0  0  0
   -3.8622   -1.8316   -0.4848 C   0  0  0  0  0  0  0  0  0  0  0  0
   -2.4837   -1.7997   -0.6570 C   0  0  0  0  0  0  0  0  0  0  0  0
   -1.5649   -1.6778    0.5374 C   0  0  0  0  0  0  0  0  0  0  0  0
   -1.1834   -3.1167    0.9244 C   0  0  0  0  0  0  0  0  0  0  0  0
    0.0532   -3.1487    1.8048 C   0  0  0  0  0  0  0  0  0  0  0  0
    1.1500   -2.6103    1.0358 N   0  0  0  0  0  0  0  0  0  0  0  0
    2.4556   -2.7614    1.6316 C   0  0  0  0  0  0  0  0  0  0  0  0
    3.4871   -2.4345    0.7476 O   0  0  0  0  0  0  0  0  0  0  0  0
    3.3482   -1.1751    0.2110 C   0  0  0  0  0  0  0  0  0  0  0  0
    4.4762   -0.4987   -0.2722 C   0  0  0  0  0  0  0  0  0  0  0  0
    5.7666   -1.0812   -0.2541 C   0  0  0  0  0  0  0  0  0  0  0  0
    6.8481   -0.3983   -0.7223 C   0  0  0  0  0  0  0  0  0  0  0  0
    6.7013    0.9061   -1.2365 C   0  0  0  0  0  0  0  0  0  0  0  0
    5.4761    1.5001   -1.2718 C   0  0  0  0  0  0  0  0  0  0  0  0
    4.3274    0.8244   -0.7939 C   0  0  0  0  0  0  0  0  0  0  0  0
    3.0565    1.4147   -0.8094 C   0  0  0  0  0  0  0  0  0  0  0  0
    1.9337    0.7085   -0.3824 C   0  0  0  0  0  0  0  0  0  0  0  0
    0.6285    1.2661   -0.4931 C   0  0  0  0  0  0  0  0  0  0  0  0
   -0.4827    0.5026   -0.2105 C   0  0  0  0  0  0  0  0  0  0  0  0
   -0.3386   -0.8333    0.2607 C   0  0  0  0  0  0  0  0  0  0  0  0
    0.9194   -1.3431    0.4941 C   0  0  0  0  0  0  0  0  0  0  0  0
    2.0799   -0.6020    0.1331 C   0  0  0  0  0  0  0  0  0  0  0  0
   -1.8522    1.1220   -0.3309 C   0  0  0  0  0  0  0  0  0  0  0  0
   -2.4301    1.4700    1.0230 C   0  0  0  0  0  0  0  0  0  0  0  0
   -3.8109    1.5182    1.1794 C   0  0  0  0  0  0  0  0  0  0  0  0
   -4.3743    1.8586    2.3953 C   0  0  0  0  0  0  0  0  0  0  0  0
   -3.5625    2.1559    3.4774 C   0  0  0  0  0  0  0  0  0  0  0  0
   -2.1872    2.1074    3.3334 C   0  0  0  0  0  0  0  0  0  0  0  0
   -1.6250    1.7672    2.1148 C   0  0  0  0  0  0  0  0  0  0  0  0
   -1.8074    2.3630   -1.2338 C   0  0  0  0  0  0  0  0  0  0  0  0
   -0.6719    3.2854   -0.8231 C   0  0  0  0  0  0  0  0  0  0  0  0
    0.5717    2.5711   -0.9739 N   0  0  0  0  0  0  0  0  0  0  0  0
    1.7733    3.3383   -0.7652 C   0  0  0  0  0  0  0  0  0  0  0  0
    2.9092    2.7013   -1.2752 O   0  0  0  0  0  0  0  0  0  0  0  0
   -1.9600   -1.9682   -1.9340 C   0  0  0  0  0  0  0  0  0  0  0  0
   -2.8001   -2.1392   -3.0189 C   0  0  0  0  0  0  0  0  0  0  0  0
   -4.8292   -2.2910   -3.6883 H   0  0  0  0  0  0  0  0  0  0  0  0
   -5.7730   -2.0234   -1.4240 H   0  0  0  0  0  0  0  0  0  0  0  0
   -4.2778   -1.7068    0.5056 H   0  0  0  0  0  0  0  0  0  0  0  0
   -2.1211   -1.2179    1.3649 H   0  0  0  0  0  0  0  0  0  0  0  0
   -2.0234   -3.5956    1.4293 H   0  0  0  0  0  0  0  0  0  0  0  0
   -0.9634   -3.6820    0.0167 H   0  0  0  0  0  0  0  0  0  0  0  0
    0.2979   -4.1769    2.0853 H   0  0  0  0  0  0  0  0  0  0  0  0
   -0.1144   -2.5667    2.7268 H   0  0  0  0  0  0  0  0  0  0  0  0
    2.5482   -2.1374    2.5501 H   0  0  0  0  0  0  0  0  0  0  0  0
    2.6029   -3.8125    1.9001 H   0  0  0  0  0  0  0  0  0  0  0  0
    5.8602   -2.0819    0.1387 H   0  0  0  0  0  0  0  0  0  0  0  0
    7.8290   -0.8506   -0.7040 H   0  0  0  0  0  0  0  0  0  0  0  0
    7.5725    1.4297   -1.6025 H   0  0  0  0  0  0  0  0  0  0  0  0
    5.3451    2.4962   -1.6656 H   0  0  0  0  0  0  0  0  0  0  0  0
   -2.5336    0.4115   -0.8047 H   0  0  0  0  0  0  0  0  0  0  0  0
   -4.4468    1.2808    0.3377 H   0  0  0  0  0  0  0  0  0  0  0  0
   -5.4491    1.8899    2.5010 H   0  0  0  0  0  0  0  0  0  0  0  0
   -4.0004    2.4205    4.4286 H   0  0  0  0  0  0  0  0  0  0  0  0
   -1.5474    2.3347    4.1742 H   0  0  0  0  0  0  0  0  0  0  0  0
   -0.5499    1.7203    2.0152 H   0  0  0  0  0  0  0  0  0  0  0  0
   -2.7576    2.8963   -1.1800 H   0  0  0  0  0  0  0  0  0  0  0  0
   -1.6430    2.0437   -2.2644 H   0  0  0  0  0  0  0  0  0  0  0  0
   -0.6397    4.1678   -1.4698 H   0  0  0  0  0  0  0  0  0  0  0  0
   -0.8200    3.6261    0.2151 H   0  0  0  0  0  0  0  0  0  0  0  0
    1.6875    4.2881   -1.3027 H   0  0  0  0  0  0  0  0  0  0  0  0
    1.9283    3.5505    0.3174 H   0  0  0  0  0  0  0  0  0  0  0  0
   -0.8887   -1.9499   -2.0725 H   0  0  0  0  0  0  0  0  0  0  0  0
   -2.3823   -2.2612   -4.0075 H   0  0  0  0  0  0  0  0  0  0  0  0
  1  2  2  0  0  0  0
  2  3  1  0  0  0  0
  3  4  2  0  0  0  0
  4  5  1  0  0  0  0
  5  6  1  0  0  0  0
  6  7  1  0  0  0  0
  7  8  1  0  0  0  0
  8  9  1  0  0  0  0
  9 10  1  0  0  0  0
 10 11  1  0  0  0  0
 11 12  1  0  0  0  0
 12 13  2  0  0  0  0
 13 14  1  0  0  0  0
 14 15  2  0  0  0  0
 15 16  1  0  0  0  0
 16 17  2  0  0  0  0
 17 18  1  0  0  0  0
 18 19  2  0  0  0  0
 19 20  1  0  0  0  0
 20 21  2  0  0  0  0
 21 22  1  0  0  0  0
 22 23  2  0  0  0  0
 23 24  1  0  0  0  0
 21 25  1  0  0  0  0
 25 26  1  0  0  0  0
 26 27  2  0  0  0  0
 27 28  1  0  0  0  0
 28 29  2  0  0  0  0
 29 30  1  0  0  0  0
 30 31  2  0  0  0  0
 25 32  1  0  0  0  0
 32 33  1  0  0  0  0
 33 34  1  0  0  0  0
 34 35  1  0  0  0  0
 35 36  1  0  0  0  0
  4 37  1  0  0  0  0
 37 38  2  0  0  0  0
 38  1  1  0  0  0  0
 22  5  1  0  0  0  0
 31 26  1  0  0  0  0
 23  8  1  0  0  0  0
 24 11  2  0  0  0  0
 17 12  1  0  0  0  0
 36 18  1  0  0  0  0
 24 19  1  0  0  0  0
 34 20  1  0  0  0  0
  1 39  1  0  0  0  0
  2 40  1  0  0  0  0
  3 41  1  0  0  0  0
  5 42  1  0  0  0  0
  6 43  1  0  0  0  0
  6 44  1  0  0  0  0
  7 45  1  0  0  0  0
  7 46  1  0  0  0  0
  9 47  1  0  0  0  0
  9 48  1  0  0  0  0
 13 49  1  0  0  0  0
 14 50  1  0  0  0  0
 15 51  1  0  0  0  0
 16 52  1  0  0  0  0
 25 53  1  0  0  0  0
 27 54  1  0  0  0  0
 28 55  1  0  0  0  0
 29 56  1  0  0  0  0
 30 57  1  0  0  0  0
 31 58  1  0  0  0  0
 32 59  1  0  0  0  0
 32 60  1  0  0  0  0
 33 61  1  0  0  0  0
 33 62  1  0  0  0  0
 35 63  1  0  0  0  0
 35 64  1  0  0  0  0
 37 65  1  0  0  0  0
 38 66  1  0  0  0  0
M  END
