
  xtb     03022214193D
 energy: -150.460453149234 gnorm: 0.000166239738 xtb: 6.4.1 (afa7bdf)
 92101  0     0  0            999 V2000
   -9.4746   -1.6532   -0.0629 C   0  0  0  0  0  0  0  0  0  0  0  0
   -8.8539   -0.4460   -0.4261 O   0  0  0  0  0  0  0  0  0  0  0  0
   -7.4951   -0.3537   -0.3508 C   0  0  0  0  0  0  0  0  0  0  0  0
   -6.9558    0.8785   -0.7418 C   0  0  0  0  0  0  0  0  0  0  0  0
   -5.6000    1.0655   -0.7052 C   0  0  0  0  0  0  0  0  0  0  0  0
   -4.7396    0.0454   -0.2818 C   0  0  0  0  0  0  0  0  0  0  0  0
   -3.3228    0.2347   -0.2533 C   0  0  0  0  0  0  0  0  0  0  0  0
   -2.4303   -0.7939    0.1714 C   0  0  0  0  0  0  0  0  0  0  0  0
   -2.9513   -2.0555    0.5961 C   0  0  0  0  0  0  0  0  0  0  0  0
   -2.1398   -3.1117    1.0436 C   0  0  0  0  0  0  0  0  0  0  0  0
   -2.6631   -4.3108    1.4423 C   0  0  0  0  0  0  0  0  0  0  0  0
   -4.0475   -4.5133    1.4121 C   0  0  0  0  0  0  0  0  0  0  0  0
   -4.4786   -5.7354    1.8241 O   0  0  0  0  0  0  0  0  0  0  0  0
   -5.8573   -6.0103    1.8190 C   0  0  0  0  0  0  0  0  0  0  0  0
   -4.8671   -3.4876    0.9793 C   0  0  0  0  0  0  0  0  0  0  0  0
   -4.3600   -2.2503    0.5657 C   0  0  0  0  0  0  0  0  0  0  0  0
   -5.2644   -1.1972    0.1199 C   0  0  0  0  0  0  0  0  0  0  0  0
   -6.6559   -1.3668    0.0723 C   0  0  0  0  0  0  0  0  0  0  0  0
   -1.1584   -0.3353    0.0807 N   0  0  0  0  0  4  0  0  0  0  0  0
   -1.2150    0.9593   -0.3905 C   0  0  0  0  0  0  0  0  0  0  0  0
   -0.0763    1.7283   -0.6120 C   0  0  0  0  0  0  0  0  0  0  0  0
   -0.2162    3.1095   -1.1200 C   0  0  0  0  0  0  0  0  0  0  0  0
   -0.3029    3.3361   -2.4936 C   0  0  0  0  0  0  0  0  0  0  0  0
   -0.2503    2.1824   -3.4486 C   0  0  0  0  0  0  0  0  0  0  0  0
   -0.4318    4.6387   -2.9518 C   0  0  0  0  0  0  0  0  0  0  0  0
   -0.4769    5.7129   -2.0752 C   0  0  0  0  0  0  0  0  0  0  0  0
   -0.6373    7.1143   -2.5815 C   0  0  0  0  0  0  0  0  0  0  0  0
   -0.3907    5.4635   -0.7122 C   0  0  0  0  0  0  0  0  0  0  0  0
   -0.2602    4.1748   -0.2195 C   0  0  0  0  0  0  0  0  0  0  0  0
   -0.1687    3.9148    1.2535 C   0  0  0  0  0  0  0  0  0  0  0  0
    1.1886    1.2111   -0.3620 C   0  0  0  0  0  0  0  0  0  0  0  0
    2.4294    1.8488   -0.5405 C   0  0  0  0  0  0  0  0  0  0  0  0
    3.3970    0.9406   -0.1573 C   0  0  0  0  0  0  0  0  0  0  0  0
    4.8240    1.0531   -0.1307 C   0  0  0  0  0  0  0  0  0  0  0  0
    5.4717    2.2195   -0.5377 C   0  0  0  0  0  0  0  0  0  0  0  0
    6.8437    2.3295   -0.5122 C   0  0  0  0  0  0  0  0  0  0  0  0
    7.6033    1.2471   -0.0689 C   0  0  0  0  0  0  0  0  0  0  0  0
    8.9648    1.2289    0.0043 O   0  0  0  0  0  0  0  0  0  0  0  0
    9.6753    2.3773   -0.3872 C   0  0  0  0  0  0  0  0  0  0  0  0
    6.9678    0.0812    0.3378 C   0  0  0  0  0  0  0  0  0  0  0  0
    5.5804   -0.0488    0.3201 C   0  0  0  0  0  0  0  0  0  0  0  0
    4.8992   -1.2662    0.7461 C   0  0  0  0  0  0  0  0  0  0  0  0
    5.6297   -2.3593    1.2005 C   0  0  0  0  0  0  0  0  0  0  0  0
    5.0283   -3.5403    1.6173 C   0  0  0  0  0  0  0  0  0  0  0  0
    5.8741   -4.5174    2.0367 O   0  0  0  0  0  0  0  0  0  0  0  0
    5.3270   -5.7374    2.4770 C   0  0  0  0  0  0  0  0  0  0  0  0
    3.6385   -3.6420    1.5793 C   0  0  0  0  0  0  0  0  0  0  0  0
    2.8944   -2.5754    1.1350 C   0  0  0  0  0  0  0  0  0  0  0  0
    3.4783   -1.3744    0.7126 C   0  0  0  0  0  0  0  0  0  0  0  0
    2.7228   -0.2502    0.2528 C   0  0  0  0  0  0  0  0  0  0  0  0
    1.3886   -0.0662    0.1195 N   0  0  0  0  0  0  0  0  0  0  0  0
    0.1961   -1.0188    0.4086 B   0  0  0  0  0  4  0  0  0  0  0  0
    0.3289   -2.1485   -0.3864 F   0  0  0  0  0  0  0  0  0  0  0  0
    0.2115   -1.3519    1.7561 F   0  0  0  0  0  0  0  0  0  0  0  0
   -2.5533    1.3303   -0.6002 C   0  0  0  0  0  0  0  0  0  0  0  0
  -10.5413   -1.4921   -0.2119 H   0  0  0  0  0  0  0  0  0  0  0  0
   -9.2922   -1.9011    0.9883 H   0  0  0  0  0  0  0  0  0  0  0  0
   -9.1446   -2.4834   -0.6967 H   0  0  0  0  0  0  0  0  0  0  0  0
   -7.6288    1.6557   -1.0665 H   0  0  0  0  0  0  0  0  0  0  0  0
   -5.1817    2.0126   -1.0076 H   0  0  0  0  0  0  0  0  0  0  0  0
   -1.0773   -2.9876    1.0806 H   0  0  0  0  0  0  0  0  0  0  0  0
   -2.0302   -5.1138    1.7835 H   0  0  0  0  0  0  0  0  0  0  0  0
   -6.2776   -5.9452    0.8098 H   0  0  0  0  0  0  0  0  0  0  0  0
   -5.9554   -7.0324    2.1819 H   0  0  0  0  0  0  0  0  0  0  0  0
   -6.4051   -5.3375    2.4874 H   0  0  0  0  0  0  0  0  0  0  0  0
   -5.9302   -3.6523    0.9636 H   0  0  0  0  0  0  0  0  0  0  0  0
   -7.0925   -2.3045    0.3688 H   0  0  0  0  0  0  0  0  0  0  0  0
   -0.3138    2.5292   -4.4768 H   0  0  0  0  0  0  0  0  0  0  0  0
   -1.0732    1.4938   -3.2601 H   0  0  0  0  0  0  0  0  0  0  0  0
    0.6779    1.6260   -3.3223 H   0  0  0  0  0  0  0  0  0  0  0  0
   -0.4975    4.8182   -4.0156 H   0  0  0  0  0  0  0  0  0  0  0  0
   -0.3412    7.1878   -3.6250 H   0  0  0  0  0  0  0  0  0  0  0  0
   -1.6803    7.4222   -2.5017 H   0  0  0  0  0  0  0  0  0  0  0  0
   -0.0390    7.8079   -1.9945 H   0  0  0  0  0  0  0  0  0  0  0  0
   -0.4259    6.2924   -0.0193 H   0  0  0  0  0  0  0  0  0  0  0  0
   -0.9621    3.2390    1.5706 H   0  0  0  0  0  0  0  0  0  0  0  0
    0.7818    3.4421    1.4986 H   0  0  0  0  0  0  0  0  0  0  0  0
   -0.2526    4.8418    1.8150 H   0  0  0  0  0  0  0  0  0  0  0  0
    2.5519    2.8487   -0.9072 H   0  0  0  0  0  0  0  0  0  0  0  0
    4.8820    3.0555   -0.8810 H   0  0  0  0  0  0  0  0  0  0  0  0
    7.3096    3.2472   -0.8345 H   0  0  0  0  0  0  0  0  0  0  0  0
    9.5026    2.6188   -1.4412 H   0  0  0  0  0  0  0  0  0  0  0  0
    9.4156    3.2427    0.2315 H   0  0  0  0  0  0  0  0  0  0  0  0
   10.7273    2.1362   -0.2426 H   0  0  0  0  0  0  0  0  0  0  0  0
    7.6099   -0.7174    0.6678 H   0  0  0  0  0  0  0  0  0  0  0  0
    6.7047   -2.3320    1.2487 H   0  0  0  0  0  0  0  0  0  0  0  0
    6.1768   -6.3541    2.7656 H   0  0  0  0  0  0  0  0  0  0  0  0
    4.7705   -6.2390    1.6791 H   0  0  0  0  0  0  0  0  0  0  0  0
    4.6730   -5.5948    3.3429 H   0  0  0  0  0  0  0  0  0  0  0  0
    3.1323   -4.5409    1.8919 H   0  0  0  0  0  0  0  0  0  0  0  0
    1.8296   -2.6854    1.1187 H   0  0  0  0  0  0  0  0  0  0  0  0
   -2.8706    2.2879   -0.9626 H   0  0  0  0  0  0  0  0  0  0  0  0
  1  2  1  0  0  0  0
  2  3  1  0  0  0  0
  3  4  2  0  0  0  0
  4  5  1  0  0  0  0
  5  6  2  0  0  0  0
  6  7  1  0  0  0  0
  7  8  1  0  0  0  0
  8  9  1  0  0  0  0
  9 10  2  0  0  0  0
 10 11  1  0  0  0  0
 11 12  2  0  0  0  0
 12 13  1  0  0  0  0
 13 14  1  0  0  0  0
 12 15  1  0  0  0  0
 15 16  2  0  0  0  0
 16 17  1  0  0  0  0
 17 18  2  0  0  0  0
  8 19  2  0  0  0  0
 19 20  1  0  0  0  0
 20 21  2  0  0  0  0
 21 22  1  0  0  0  0
 22 23  2  0  0  0  0
 23 24  1  0  0  0  0
 23 25  1  0  0  0  0
 25 26  2  0  0  0  0
 26 27  1  0  0  0  0
 26 28  1  0  0  0  0
 28 29  2  0  0  0  0
 29 30  1  0  0  0  0
 21 31  1  0  0  0  0
 31 32  2  0  0  0  0
 32 33  1  0  0  0  0
 33 34  2  0  0  0  0
 34 35  1  0  0  0  0
 35 36  2  0  0  0  0
 36 37  1  0  0  0  0
 37 38  1  0  0  0  0
 38 39  1  0  0  0  0
 37 40  2  0  0  0  0
 40 41  1  0  0  0  0
 41 42  2  0  0  0  0
 42 43  1  0  0  0  0
 43 44  2  0  0  0  0
 44 45  1  0  0  0  0
 45 46  1  0  0  0  0
 44 47  1  0  0  0  0
 47 48  2  0  0  0  0
 48 49  1  0  0  0  0
 49 50  2  0  0  0  0
 50 51  1  0  0  0  0
 51 52  1  0  0  0  0
 52 53  1  0  0  0  0
 52 54  1  0  0  0  0
 20 55  1  0  0  0  0
 18  3  1  0  0  0  0
 52 19  1  0  0  0  0
 17  6  1  0  0  0  0
 29 22  1  0  0  0  0
 51 31  1  0  0  0  0
 55  7  2  0  0  0  0
 16  9  1  0  0  0  0
 50 33  1  0  0  0  0
 41 34  1  0  0  0  0
 49 42  1  0  0  0  0
  1 56  1  0  0  0  0
  1 57  1  0  0  0  0
  1 58  1  0  0  0  0
  4 59  1  0  0  0  0
  5 60  1  0  0  0  0
 10 61  1  0  0  0  0
 11 62  1  0  0  0  0
 14 63  1  0  0  0  0
 14 64  1  0  0  0  0
 14 65  1  0  0  0  0
 15 66  1  0  0  0  0
 18 67  1  0  0  0  0
 24 68  1  0  0  0  0
 24 69  1  0  0  0  0
 24 70  1  0  0  0  0
 25 71  1  0  0  0  0
 27 72  1  0  0  0  0
 27 73  1  0  0  0  0
 27 74  1  0  0  0  0
 28 75  1  0  0  0  0
 30 76  1  0  0  0  0
 30 77  1  0  0  0  0
 30 78  1  0  0  0  0
 32 79  1  0  0  0  0
 35 80  1  0  0  0  0
 36 81  1  0  0  0  0
 39 82  1  0  0  0  0
 39 83  1  0  0  0  0
 39 84  1  0  0  0  0
 40 85  1  0  0  0  0
 43 86  1  0  0  0  0
 46 87  1  0  0  0  0
 46 88  1  0  0  0  0
 46 89  1  0  0  0  0
 47 90  1  0  0  0  0
 48 91  1  0  0  0  0
 55 92  1  0  0  0  0
M  CHG  1  19   1
M  CHG  1  52  -1
M  END
