
  xtb     03022212433D
 energy: -67.406246127127 gnorm: 0.000273095291 xtb: 6.4.1 (afa7bdf)
 47 50  0     0  0            999 V2000
    3.2314   -0.0446   -0.0698 C   0  0  0  0  0  0  0  0  0  0  0  0
    2.0612   -0.6923   -0.1485 C   0  0  0  0  0  0  0  0  0  0  0  0
    0.7852   -0.0087   -0.0594 C   0  0  0  0  0  0  0  0  0  0  0  0
    0.7674    1.3062    0.1177 N   0  0  0  0  0  0  0  0  0  0  0  0
   -0.4147    1.8911    0.2803 C   0  0  0  0  0  0  0  0  0  0  0  0
   -1.6173    1.1910    0.2159 C   0  0  0  0  0  0  0  0  0  0  0  0
   -1.4942   -0.1830   -0.0869 C   0  0  0  0  0  0  0  0  0  0  0  0
   -2.5793   -1.0263   -0.2077 N   0  0  0  0  0  0  0  0  0  0  0  0
   -2.3153   -2.4469   -0.0622 C   0  0  0  0  0  0  0  0  0  0  0  0
   -3.6672   -3.1885   -0.0489 C   0  0  0  0  0  0  0  0  0  0  0  0
   -4.7150   -2.3386    0.3525 O   0  0  0  0  0  0  0  0  0  0  0  0
   -4.9446   -1.3008   -0.5751 C   0  0  0  0  0  0  0  0  0  0  0  0
   -3.6230   -0.8008   -1.1825 C   0  0  0  0  0  0  0  0  0  0  0  0
   -0.3022   -0.7660   -0.1766 N   0  0  0  0  0  0  0  0  0  0  0  0
   -2.9106    1.8408    0.6264 C   0  0  0  0  0  0  0  0  0  0  0  0
   -2.8445    3.3644    0.5661 C   0  0  0  0  0  0  0  0  0  0  0  0
   -1.5978    3.8626    1.2851 C   0  0  0  0  0  0  0  0  0  0  0  0
   -0.3635    3.3690    0.5428 C   0  0  0  0  0  0  0  0  0  0  0  0
    4.5580   -0.6234   -0.1431 C   0  0  0  0  0  0  0  0  0  0  0  0
    4.7863   -1.9917   -0.3148 C   0  0  0  0  0  0  0  0  0  0  0  0
    6.0721   -2.4907   -0.3765 C   0  0  0  0  0  0  0  0  0  0  0  0
    7.1610   -1.6398   -0.2689 C   0  0  0  0  0  0  0  0  0  0  0  0
    6.9530   -0.2808   -0.0986 C   0  0  0  0  0  0  0  0  0  0  0  0
    5.6678    0.2205   -0.0367 C   0  0  0  0  0  0  0  0  0  0  0  0
    3.1898    1.0288    0.0636 H   0  0  0  0  0  0  0  0  0  0  0  0
    1.9856   -1.7607   -0.2823 H   0  0  0  0  0  0  0  0  0  0  0  0
   -1.7820   -2.5845    0.8792 H   0  0  0  0  0  0  0  0  0  0  0  0
   -1.6791   -2.8255   -0.8746 H   0  0  0  0  0  0  0  0  0  0  0  0
   -3.8860   -3.6093   -1.0422 H   0  0  0  0  0  0  0  0  0  0  0  0
   -3.6511   -4.0038    0.6755 H   0  0  0  0  0  0  0  0  0  0  0  0
   -5.6174   -1.6463   -1.3762 H   0  0  0  0  0  0  0  0  0  0  0  0
   -5.4448   -0.5116   -0.0090 H   0  0  0  0  0  0  0  0  0  0  0  0
   -3.6892    0.2479   -1.4632 H   0  0  0  0  0  0  0  0  0  0  0  0
   -3.3930   -1.3685   -2.0991 H   0  0  0  0  0  0  0  0  0  0  0  0
   -3.1133    1.5280    1.6575 H   0  0  0  0  0  0  0  0  0  0  0  0
   -3.7505    1.4936    0.0277 H   0  0  0  0  0  0  0  0  0  0  0  0
   -3.7436    3.7839    1.0222 H   0  0  0  0  0  0  0  0  0  0  0  0
   -2.8136    3.6903   -0.4767 H   0  0  0  0  0  0  0  0  0  0  0  0
   -1.5921    4.9533    1.3321 H   0  0  0  0  0  0  0  0  0  0  0  0
   -1.5909    3.4805    2.3083 H   0  0  0  0  0  0  0  0  0  0  0  0
   -0.2866    3.8766   -0.4241 H   0  0  0  0  0  0  0  0  0  0  0  0
    0.5510    3.5886    1.0952 H   0  0  0  0  0  0  0  0  0  0  0  0
    3.9499   -2.6678   -0.4001 H   0  0  0  0  0  0  0  0  0  0  0  0
    6.2302   -3.5514   -0.5095 H   0  0  0  0  0  0  0  0  0  0  0  0
    8.1653   -2.0344   -0.3175 H   0  0  0  0  0  0  0  0  0  0  0  0
    7.7973    0.3882   -0.0139 H   0  0  0  0  0  0  0  0  0  0  0  0
    5.5102    1.2815    0.0964 H   0  0  0  0  0  0  0  0  0  0  0  0
  1  2  2  0  0  0  0
  2  3  1  0  0  0  0
  3  4  2  0  0  0  0
  4  5  1  0  0  0  0
  5  6  2  0  0  0  0
  6  7  1  0  0  0  0
  7  8  1  0  0  0  0
  8  9  1  0  0  0  0
  9 10  1  0  0  0  0
 10 11  1  0  0  0  0
 11 12  1  0  0  0  0
 12 13  1  0  0  0  0
  7 14  2  0  0  0  0
  6 15  1  0  0  0  0
 15 16  1  0  0  0  0
 16 17  1  0  0  0  0
 17 18  1  0  0  0  0
  1 19  1  0  0  0  0
 19 20  2  0  0  0  0
 20 21  1  0  0  0  0
 21 22  2  0  0  0  0
 22 23  1  0  0  0  0
 23 24  2  0  0  0  0
 14  3  1  0  0  0  0
 24 19  1  0  0  0  0
 18  5  1  0  0  0  0
 13  8  1  0  0  0  0
  1 25  1  0  0  0  0
  2 26  1  0  0  0  0
  9 27  1  0  0  0  0
  9 28  1  0  0  0  0
 10 29  1  0  0  0  0
 10 30  1  0  0  0  0
 12 31  1  0  0  0  0
 12 32  1  0  0  0  0
 13 33  1  0  0  0  0
 13 34  1  0  0  0  0
 15 35  1  0  0  0  0
 15 36  1  0  0  0  0
 16 37  1  0  0  0  0
 16 38  1  0  0  0  0
 17 39  1  0  0  0  0
 17 40  1  0  0  0  0
 18 41  1  0  0  0  0
 18 42  1  0  0  0  0
 20 43  1  0  0  0  0
 21 44  1  0  0  0  0
 22 45  1  0  0  0  0
 23 46  1  0  0  0  0
 24 47  1  0  0  0  0
M  END
