
  xtb     03022214553D
 energy: -63.800050690507 gnorm: 0.000149698660 xtb: 6.4.1 (afa7bdf)
 39 43  0     0  0            999 V2000
    5.0396   -2.4441    0.2358 C   0  0  0  0  0  0  0  0  0  0  0  0
    4.0231   -3.1958   -0.3331 C   0  0  0  0  0  0  0  0  0  0  0  0
    2.7401   -2.6906   -0.4004 C   0  0  0  0  0  0  0  0  0  0  0  0
    2.4570   -1.4188    0.0992 C   0  0  0  0  0  0  0  0  0  0  0  0
    1.0984   -0.9100    0.0115 C   0  0  0  0  0  0  0  0  0  0  0  0
    0.0742   -1.7210   -0.0381 N   0  0  0  0  0  0  0  0  0  0  0  0
   -1.0629   -1.0012   -0.1110 N   0  0  0  0  0  0  0  0  0  0  0  0
   -2.2969   -1.6404   -0.1640 C   0  0  0  0  0  0  0  0  0  0  0  0
   -3.4863   -0.9093   -0.2018 C   0  0  0  0  0  0  0  0  0  0  0  0
   -4.6712   -1.6180   -0.2533 C   0  0  0  0  0  0  0  0  0  0  0  0
   -4.6360   -3.0062   -0.2647 C   0  0  0  0  0  0  0  0  0  0  0  0
   -3.3967   -3.6250   -0.2252 C   0  0  0  0  0  0  0  0  0  0  0  0
   -2.2556   -2.9651   -0.1767 N   0  0  0  0  0  0  0  0  0  0  0  0
   -0.7832    0.3399   -0.1203 C   0  0  0  0  0  0  0  0  0  0  0  0
   -1.6308    1.3354   -0.1995 N   0  0  0  0  0  0  0  0  0  0  0  0
   -1.0962    2.5688   -0.2228 C   0  0  0  0  0  0  0  0  0  0  0  0
   -1.9748    3.6723   -0.2991 C   0  0  0  0  0  0  0  0  0  0  0  0
   -1.4870    4.9457   -0.3433 C   0  0  0  0  0  0  0  0  0  0  0  0
   -0.1007    5.1844   -0.3166 C   0  0  0  0  0  0  0  0  0  0  0  0
    0.7768    4.1426   -0.2425 C   0  0  0  0  0  0  0  0  0  0  0  0
    0.3140    2.8086   -0.1891 C   0  0  0  0  0  0  0  0  0  0  0  0
    1.1929    1.7151   -0.1064 C   0  0  0  0  0  0  0  0  0  0  0  0
    0.6445    0.4559   -0.0471 C   0  0  0  0  0  0  0  0  0  0  0  0
    3.4800   -0.6761    0.6852 C   0  0  0  0  0  0  0  0  0  0  0  0
    4.7625   -1.1886    0.7501 C   0  0  0  0  0  0  0  0  0  0  0  0
    6.0439   -2.8386    0.2852 H   0  0  0  0  0  0  0  0  0  0  0  0
    4.2352   -4.1796   -0.7254 H   0  0  0  0  0  0  0  0  0  0  0  0
    1.9356   -3.2623   -0.8355 H   0  0  0  0  0  0  0  0  0  0  0  0
   -3.4589    0.1671   -0.1923 H   0  0  0  0  0  0  0  0  0  0  0  0
   -5.6148   -1.0927   -0.2837 H   0  0  0  0  0  0  0  0  0  0  0  0
   -5.5433   -3.5878   -0.3037 H   0  0  0  0  0  0  0  0  0  0  0  0
   -3.3050   -4.7031   -0.2326 H   0  0  0  0  0  0  0  0  0  0  0  0
   -3.0343    3.4703   -0.3210 H   0  0  0  0  0  0  0  0  0  0  0  0
   -2.1645    5.7849   -0.4008 H   0  0  0  0  0  0  0  0  0  0  0  0
    0.2618    6.2010   -0.3550 H   0  0  0  0  0  0  0  0  0  0  0  0
    1.8435    4.3175   -0.2200 H   0  0  0  0  0  0  0  0  0  0  0  0
    2.2603    1.8829   -0.1057 H   0  0  0  0  0  0  0  0  0  0  0  0
    3.2665    0.2892    1.1184 H   0  0  0  0  0  0  0  0  0  0  0  0
    5.5493   -0.6073    1.2089 H   0  0  0  0  0  0  0  0  0  0  0  0
  1  2  2  0  0  0  0
  2  3  1  0  0  0  0
  3  4  2  0  0  0  0
  4  5  1  0  0  0  0
  5  6  2  0  0  0  0
  6  7  1  0  0  0  0
  7  8  1  0  0  0  0
  8  9  2  0  0  0  0
  9 10  1  0  0  0  0
 10 11  2  0  0  0  0
 11 12  1  0  0  0  0
 12 13  2  0  0  0  0
  7 14  1  0  0  0  0
 14 15  2  0  0  0  0
 15 16  1  0  0  0  0
 16 17  2  0  0  0  0
 17 18  1  0  0  0  0
 18 19  2  0  0  0  0
 19 20  1  0  0  0  0
 20 21  2  0  0  0  0
 21 22  1  0  0  0  0
 22 23  2  0  0  0  0
  4 24  1  0  0  0  0
 24 25  2  0  0  0  0
 25  1  1  0  0  0  0
 23  5  1  0  0  0  0
 13  8  1  0  0  0  0
 23 14  1  0  0  0  0
 21 16  1  0  0  0  0
  1 26  1  0  0  0  0
  2 27  1  0  0  0  0
  3 28  1  0  0  0  0
  9 29  1  0  0  0  0
 10 30  1  0  0  0  0
 11 31  1  0  0  0  0
 12 32  1  0  0  0  0
 17 33  1  0  0  0  0
 18 34  1  0  0  0  0
 19 35  1  0  0  0  0
 20 36  1  0  0  0  0
 22 37  1  0  0  0  0
 24 38  1  0  0  0  0
 25 39  1  0  0  0  0
M  END
