
  xtb     03022212423D
 energy: -100.293552888917 gnorm: 0.000173011303 xtb: 6.4.1 (afa7bdf)
 59 62  0     0  0            999 V2000
    5.5631    0.7944   -0.7269 C   0  0  0  0  0  0  0  0  0  0  0  0
    4.8979    0.8218    0.6510 C   0  0  0  0  0  0  0  0  0  0  0  0
    3.5022    0.2928    0.5824 C   0  0  0  0  0  0  0  0  0  0  0  0
    2.3372    1.0057    0.3462 C   0  0  0  0  0  0  0  0  0  0  0  0
    2.2228    2.4750    0.1369 C   0  0  0  0  0  0  0  0  0  0  0  0
    1.2727    0.0572    0.3421 C   0  0  0  0  0  0  0  0  0  0  0  0
   -0.1000    0.2141    0.1619 C   0  0  0  0  0  0  0  0  0  0  0  0
   -0.6545    1.5631   -0.0825 C   0  0  0  0  0  0  0  0  0  0  0  0
   -1.0760    2.3524    0.9787 C   0  0  0  0  0  0  0  0  0  0  0  0
   -1.6009    3.6281    0.7522 C   0  0  0  0  0  0  0  0  0  0  0  0
   -2.0216    4.3876    1.9410 C   0  0  0  0  0  0  0  0  0  0  0  0
   -1.9578    4.0178    3.0696 O   0  0  0  0  0  0  0  0  0  0  0  0
   -2.6745    5.9904    1.5927 Cl  0  0  0  0  0  0  0  0  0  0  0  0
   -1.7042    4.1175   -0.5452 C   0  0  0  0  0  0  0  0  0  0  0  0
   -1.2830    3.3306   -1.6114 C   0  0  0  0  0  0  0  0  0  0  0  0
   -1.3531    3.7646   -3.0163 C   0  0  0  0  0  0  0  0  0  0  0  0
   -1.0124    3.1325   -3.9646 O   0  0  0  0  0  0  0  0  0  0  0  0
   -2.0132    5.3851   -3.2501 Cl  0  0  0  0  0  0  0  0  0  0  0  0
   -0.7600    2.0557   -1.3759 C   0  0  0  0  0  0  0  0  0  0  0  0
   -0.9572   -0.8833    0.2102 C   0  0  0  0  0  0  0  0  0  0  0  0
   -2.3719   -0.9813    0.0634 C   0  0  0  0  0  0  0  0  0  0  0  0
   -3.3200    0.1346   -0.2043 C   0  0  0  0  0  0  0  0  0  0  0  0
   -2.6942   -2.3208    0.2157 C   0  0  0  0  0  0  0  0  0  0  0  0
   -4.0463   -2.9499    0.1214 C   0  0  0  0  0  0  0  0  0  0  0  0
   -4.3497   -3.3864   -1.3137 C   0  0  0  0  0  0  0  0  0  0  0  0
   -1.4870   -3.0182    0.4360 C   0  0  0  0  0  0  0  0  0  0  0  0
   -1.2764   -4.4664    0.6484 C   0  0  0  0  0  0  0  0  0  0  0  0
   -0.4670   -2.1549    0.4345 N   0  0  0  0  0  0  0  0  0  0  0  0
    1.0194   -2.5069    0.6392 B   0  0  0  0  0  4  0  0  0  0  0  0
    1.2004   -3.1038    1.8749 F   0  0  0  0  0  0  0  0  0  0  0  0
    1.4417   -3.3740   -0.3552 F   0  0  0  0  0  0  0  0  0  0  0  0
    1.8190   -1.1913    0.5659 N   0  0  0  0  0  4  0  0  0  0  0  0
    3.1422   -1.0665    0.7050 C   0  0  0  0  0  0  0  0  0  0  0  0
    4.0100   -2.2384    0.9505 C   0  0  0  0  0  0  0  0  0  0  0  0
    5.0056    1.4106   -1.4284 H   0  0  0  0  0  0  0  0  0  0  0  0
    5.5912   -0.2213   -1.1137 H   0  0  0  0  0  0  0  0  0  0  0  0
    6.5812    1.1717   -0.6654 H   0  0  0  0  0  0  0  0  0  0  0  0
    4.8879    1.8456    1.0293 H   0  0  0  0  0  0  0  0  0  0  0  0
    5.4827    0.2199    1.3488 H   0  0  0  0  0  0  0  0  0  0  0  0
    3.2013    2.9406    0.2140 H   0  0  0  0  0  0  0  0  0  0  0  0
    1.5647    2.9255    0.8793 H   0  0  0  0  0  0  0  0  0  0  0  0
    1.8152    2.6957   -0.8492 H   0  0  0  0  0  0  0  0  0  0  0  0
   -1.0014    1.9871    1.9925 H   0  0  0  0  0  0  0  0  0  0  0  0
   -2.1081    5.1005   -0.7232 H   0  0  0  0  0  0  0  0  0  0  0  0
   -0.4384    1.4565   -2.2151 H   0  0  0  0  0  0  0  0  0  0  0  0
   -4.3342   -0.2470   -0.2802 H   0  0  0  0  0  0  0  0  0  0  0  0
   -3.0722    0.6388   -1.1378 H   0  0  0  0  0  0  0  0  0  0  0  0
   -3.2872    0.8751    0.5946 H   0  0  0  0  0  0  0  0  0  0  0  0
   -4.0923   -3.8173    0.7821 H   0  0  0  0  0  0  0  0  0  0  0  0
   -4.8078   -2.2426    0.4550 H   0  0  0  0  0  0  0  0  0  0  0  0
   -4.3319   -2.5287   -1.9820 H   0  0  0  0  0  0  0  0  0  0  0  0
   -3.6058   -4.1011   -1.6573 H   0  0  0  0  0  0  0  0  0  0  0  0
   -5.3312   -3.8512   -1.3705 H   0  0  0  0  0  0  0  0  0  0  0  0
   -2.2089   -5.0172    0.5794 H   0  0  0  0  0  0  0  0  0  0  0  0
   -0.5718   -4.8437   -0.0913 H   0  0  0  0  0  0  0  0  0  0  0  0
   -0.8242   -4.6299    1.6261 H   0  0  0  0  0  0  0  0  0  0  0  0
    5.0567   -1.9552    0.9913 H   0  0  0  0  0  0  0  0  0  0  0  0
    3.8594   -2.9741    0.1620 H   0  0  0  0  0  0  0  0  0  0  0  0
    3.7219   -2.7164    1.8862 H   0  0  0  0  0  0  0  0  0  0  0  0
  1  2  1  0  0  0  0
  2  3  1  0  0  0  0
  3  4  2  0  0  0  0
  4  5  1  0  0  0  0
  4  6  1  0  0  0  0
  6  7  2  0  0  0  0
  7  8  1  0  0  0  0
  8  9  2  0  0  0  0
  9 10  1  0  0  0  0
 10 11  1  0  0  0  0
 11 12  2  0  0  0  0
 11 13  1  0  0  0  0
 10 14  2  0  0  0  0
 14 15  1  0  0  0  0
 15 16  1  0  0  0  0
 16 17  2  0  0  0  0
 16 18  1  0  0  0  0
 15 19  2  0  0  0  0
  7 20  1  0  0  0  0
 20 21  2  0  0  0  0
 21 22  1  0  0  0  0
 21 23  1  0  0  0  0
 23 24  1  0  0  0  0
 24 25  1  0  0  0  0
 23 26  2  0  0  0  0
 26 27  1  0  0  0  0
 26 28  1  0  0  0  0
 28 29  1  0  0  0  0
 29 30  1  0  0  0  0
 29 31  1  0  0  0  0
 29 32  1  0  0  0  0
 32 33  2  0  0  0  0
 33 34  1  0  0  0  0
 33  3  1  0  0  0  0
 32  6  1  0  0  0  0
 19  8  1  0  0  0  0
 28 20  1  0  0  0  0
  1 35  1  0  0  0  0
  1 36  1  0  0  0  0
  1 37  1  0  0  0  0
  2 38  1  0  0  0  0
  2 39  1  0  0  0  0
  5 40  1  0  0  0  0
  5 41  1  0  0  0  0
  5 42  1  0  0  0  0
  9 43  1  0  0  0  0
 14 44  1  0  0  0  0
 19 45  1  0  0  0  0
 22 46  1  0  0  0  0
 22 47  1  0  0  0  0
 22 48  1  0  0  0  0
 24 49  1  0  0  0  0
 24 50  1  0  0  0  0
 25 51  1  0  0  0  0
 25 52  1  0  0  0  0
 25 53  1  0  0  0  0
 27 54  1  0  0  0  0
 27 55  1  0  0  0  0
 27 56  1  0  0  0  0
 34 57  1  0  0  0  0
 34 58  1  0  0  0  0
 34 59  1  0  0  0  0
M  CHG  1  29  -1
M  CHG  1  32   1
M  END
