
  xtb     03022213003D
 energy: -51.385203508076 gnorm: 0.000295573644 xtb: 6.4.1 (afa7bdf)
 31 33  0     0  0            999 V2000
   -5.7057    1.0214   -0.6742 C   0  0  0  0  0  0  0  0  0  0  0  0
   -5.2386    0.0706    0.2518 O   0  0  0  0  0  0  0  0  0  0  0  0
   -3.8974   -0.1189    0.3714 C   0  0  0  0  0  0  0  0  0  0  0  0
   -3.4993   -1.0690    1.3155 C   0  0  0  0  0  0  0  0  0  0  0  0
   -2.1666   -1.3401    1.5213 C   0  0  0  0  0  0  0  0  0  0  0  0
   -1.1838   -0.6701    0.7894 C   0  0  0  0  0  0  0  0  0  0  0  0
    0.2366   -0.9256    0.9800 C   0  0  0  0  0  0  0  0  0  0  0  0
    0.8029   -1.8459    1.8285 C   0  0  0  0  0  0  0  0  0  0  0  0
    2.5106   -1.8105    1.7388 S   0  0  0  0  0  0  0  0  0  0  0  0
    2.3650   -0.5288    0.5351 C   0  0  0  0  0  0  0  0  0  0  0  0
    3.5258    0.0788   -0.0734 C   0  0  0  0  0  0  0  0  0  0  0  0
    4.8239   -0.3079    0.2612 C   0  0  0  0  0  0  0  0  0  0  0  0
    5.8831    0.3241   -0.3663 C   0  0  0  0  0  0  0  0  0  0  0  0
    5.7343    1.2782   -1.2698 N   0  0  0  0  0  0  0  0  0  0  0  0
    4.5035    1.6454   -1.5878 C   0  0  0  0  0  0  0  0  0  0  0  0
    3.3687    1.0872   -1.0280 C   0  0  0  0  0  0  0  0  0  0  0  0
    1.1470   -0.2090    0.2728 N   0  0  0  0  0  0  0  0  0  0  0  0
   -1.5877    0.2748   -0.1505 C   0  0  0  0  0  0  0  0  0  0  0  0
   -2.9242    0.5521   -0.3626 C   0  0  0  0  0  0  0  0  0  0  0  0
   -5.3399    2.0259   -0.4383 H   0  0  0  0  0  0  0  0  0  0  0  0
   -5.4190    0.7606   -1.6980 H   0  0  0  0  0  0  0  0  0  0  0  0
   -6.7913    1.0056   -0.5902 H   0  0  0  0  0  0  0  0  0  0  0  0
   -4.2647   -1.5809    1.8772 H   0  0  0  0  0  0  0  0  0  0  0  0
   -1.8881   -2.0765    2.2589 H   0  0  0  0  0  0  0  0  0  0  0  0
    0.3238   -2.5362    2.4916 H   0  0  0  0  0  0  0  0  0  0  0  0
    4.9948   -1.0826    0.9938 H   0  0  0  0  0  0  0  0  0  0  0  0
    6.9056    0.0549   -0.1358 H   0  0  0  0  0  0  0  0  0  0  0  0
    4.4295    2.4287   -2.3309 H   0  0  0  0  0  0  0  0  0  0  0  0
    2.3790    1.4084   -1.3078 H   0  0  0  0  0  0  0  0  0  0  0  0
   -0.8323    0.7947   -0.7185 H   0  0  0  0  0  0  0  0  0  0  0  0
   -3.1951    1.2909   -1.1005 H   0  0  0  0  0  0  0  0  0  0  0  0
  1  2  1  0  0  0  0
  2  3  1  0  0  0  0
  3  4  2  0  0  0  0
  4  5  1  0  0  0  0
  5  6  2  0  0  0  0
  6  7  1  0  0  0  0
  7  8  2  0  0  0  0
  8  9  1  0  0  0  0
  9 10  1  0  0  0  0
 10 11  1  0  0  0  0
 11 12  2  0  0  0  0
 12 13  1  0  0  0  0
 13 14  2  0  0  0  0
 14 15  1  0  0  0  0
 15 16  2  0  0  0  0
 10 17  2  0  0  0  0
  6 18  1  0  0  0  0
 18 19  2  0  0  0  0
 19  3  1  0  0  0  0
 17  7  1  0  0  0  0
 16 11  1  0  0  0  0
  1 20  1  0  0  0  0
  1 21  1  0  0  0  0
  1 22  1  0  0  0  0
  4 23  1  0  0  0  0
  5 24  1  0  0  0  0
  8 25  1  0  0  0  0
 12 26  1  0  0  0  0
 13 27  1  0  0  0  0
 15 28  1  0  0  0  0
 16 29  1  0  0  0  0
 18 30  1  0  0  0  0
 19 31  1  0  0  0  0
M  END
