
  xtb     03022213573D
 energy: -49.723043565881 gnorm: 0.000243721010 xtb: 6.4.1 (afa7bdf)
 27 29  0     0  0            999 V2000
   -4.2466    1.5656   -0.1910 O   0  0  0  0  0  0  0  0  0  0  0  0
   -3.0493    1.4202   -0.2124 C   0  0  0  0  0  0  0  0  0  0  0  0
   -2.2390    2.5093   -0.2704 O   0  0  0  0  0  0  0  0  0  0  0  0
   -2.3764    0.1116   -0.1779 C   0  0  0  0  0  0  0  0  0  0  0  0
   -3.2296   -0.9900   -0.1096 C   0  0  0  0  0  0  0  0  0  0  0  0
   -2.7463   -2.2845   -0.0700 C   0  0  0  0  0  0  0  0  0  0  0  0
   -1.3828   -2.4945   -0.0987 C   0  0  0  0  0  0  0  0  0  0  0  0
   -0.4933   -1.4248   -0.1671 C   0  0  0  0  0  0  0  0  0  0  0  0
    0.9522   -1.7136   -0.1950 C   0  0  0  0  0  0  0  0  0  0  0  0
    1.3886   -2.8534   -0.1591 O   0  0  0  0  0  0  0  0  0  0  0  0
    1.8203   -0.5334   -0.2689 C   0  0  0  0  0  0  0  0  0  0  0  0
    3.2093   -0.6809   -0.3020 C   0  0  0  0  0  0  0  0  0  0  0  0
    4.0319    0.4196   -0.3717 C   0  0  0  0  0  0  0  0  0  0  0  0
    3.4764    1.6967   -0.4099 C   0  0  0  0  0  0  0  0  0  0  0  0
    2.1106    1.8670   -0.3783 C   0  0  0  0  0  0  0  0  0  0  0  0
    1.2669    0.7543   -0.3074 C   0  0  0  0  0  0  0  0  0  0  0  0
   -0.0909    0.9258   -0.2758 N   0  0  0  0  0  0  0  0  0  0  0  0
   -0.9770   -0.1005   -0.2082 C   0  0  0  0  0  0  0  0  0  0  0  0
   -2.7948    3.3050   -0.2864 H   0  0  0  0  0  0  0  0  0  0  0  0
   -4.2913   -0.7951   -0.0884 H   0  0  0  0  0  0  0  0  0  0  0  0
   -3.4295   -3.1172   -0.0172 H   0  0  0  0  0  0  0  0  0  0  0  0
   -0.9614   -3.4885   -0.0693 H   0  0  0  0  0  0  0  0  0  0  0  0
    3.6064   -1.6842   -0.2709 H   0  0  0  0  0  0  0  0  0  0  0  0
    5.1038    0.2989   -0.3969 H   0  0  0  0  0  0  0  0  0  0  0  0
    4.1210    2.5612   -0.4648 H   0  0  0  0  0  0  0  0  0  0  0  0
    1.6775    2.8566   -0.4077 H   0  0  0  0  0  0  0  0  0  0  0  0
   -0.4566    1.8687   -0.3038 H   0  0  0  0  0  0  0  0  0  0  0  0
  1  2  2  0  0  0  0
  2  3  1  0  0  0  0
  2  4  1  0  0  0  0
  4  5  2  0  0  0  0
  5  6  1  0  0  0  0
  6  7  2  0  0  0  0
  7  8  1  0  0  0  0
  8  9  1  0  0  0  0
  9 10  2  0  0  0  0
  9 11  1  0  0  0  0
 11 12  2  0  0  0  0
 12 13  1  0  0  0  0
 13 14  2  0  0  0  0
 14 15  1  0  0  0  0
 15 16  2  0  0  0  0
 16 17  1  0  0  0  0
 17 18  1  0  0  0  0
 18  4  1  0  0  0  0
 18  8  2  0  0  0  0
 16 11  1  0  0  0  0
  3 19  1  0  0  0  0
  5 20  1  0  0  0  0
  6 21  1  0  0  0  0
  7 22  1  0  0  0  0
 12 23  1  0  0  0  0
 13 24  1  0  0  0  0
 14 25  1  0  0  0  0
 15 26  1  0  0  0  0
 17 27  1  0  0  0  0
M  END
