
  xtb     03022215343D
 energy: -50.778132875230 gnorm: 0.000360102507 xtb: 6.4.1 (afa7bdf)
 27 28  0     0  0            999 V2000
   -4.4254   -2.0185   -0.2641 C   0  0  0  0  0  0  0  0  0  0  0  0
   -3.0350   -1.7390   -0.2557 O   0  0  0  0  0  0  0  0  0  0  0  0
   -2.7000   -0.4392   -0.2570 C   0  0  0  0  0  0  0  0  0  0  0  0
   -3.5129    0.4574   -0.2642 O   0  0  0  0  0  0  0  0  0  0  0  0
   -1.2523   -0.2507   -0.2476 C   0  0  0  0  0  0  0  0  0  0  0  0
   -0.2487   -1.2226   -0.2399 C   0  0  0  0  0  0  0  0  0  0  0  0
    0.9855   -0.5837   -0.2332 C   0  0  0  0  0  0  0  0  0  0  0  0
    2.2930   -1.2387   -0.2252 C   0  0  0  0  0  0  0  0  0  0  0  0
    2.4332   -2.4392   -0.2214 O   0  0  0  0  0  0  0  0  0  0  0  0
    3.3139   -0.3721   -0.2199 O   0  0  0  0  0  0  0  0  0  0  0  0
    4.6094   -0.9489   -0.2113 C   0  0  0  0  0  0  0  0  0  0  0  0
    0.7600    0.7643   -0.2358 N   0  0  0  0  0  0  0  0  0  0  0  0
    1.6700    1.7169   -0.2310 N   0  0  0  0  0  0  0  0  0  0  0  0
    1.2497    2.9470   -0.2349 C   0  0  0  0  0  0  0  0  0  0  0  0
   -0.1117    3.3177   -0.2441 C   0  0  0  0  0  0  0  0  0  0  0  0
   -1.0547    2.3235   -0.2492 C   0  0  0  0  0  0  0  0  0  0  0  0
   -0.6067    0.9975   -0.2449 C   0  0  0  0  0  0  0  0  0  0  0  0
   -4.5173   -3.1013   -0.2504 H   0  0  0  0  0  0  0  0  0  0  0  0
   -4.8913   -1.6050   -1.1613 H   0  0  0  0  0  0  0  0  0  0  0  0
   -4.9071   -1.5809    0.6131 H   0  0  0  0  0  0  0  0  0  0  0  0
   -0.3889   -2.2847   -0.2398 H   0  0  0  0  0  0  0  0  0  0  0  0
    4.7419   -1.5754    0.6735 H   0  0  0  0  0  0  0  0  0  0  0  0
    4.7577   -1.5662   -1.1002 H   0  0  0  0  0  0  0  0  0  0  0  0
    5.3094   -0.1177   -0.2009 H   0  0  0  0  0  0  0  0  0  0  0  0
    2.0320    3.6909   -0.2306 H   0  0  0  0  0  0  0  0  0  0  0  0
   -0.3873    4.3592   -0.2469 H   0  0  0  0  0  0  0  0  0  0  0  0
   -2.1169    2.5096   -0.2563 H   0  0  0  0  0  0  0  0  0  0  0  0
  1  2  1  0  0  0  0
  2  3  1  0  0  0  0
  3  4  2  0  0  0  0
  3  5  1  0  0  0  0
  5  6  1  0  0  0  0
  6  7  2  0  0  0  0
  7  8  1  0  0  0  0
  8  9  2  0  0  0  0
  8 10  1  0  0  0  0
 10 11  1  0  0  0  0
  7 12  1  0  0  0  0
 12 13  1  0  0  0  0
 13 14  2  0  0  0  0
 14 15  1  0  0  0  0
 15 16  2  0  0  0  0
 16 17  1  0  0  0  0
 17  5  2  0  0  0  0
 17 12  1  0  0  0  0
  1 18  1  0  0  0  0
  1 19  1  0  0  0  0
  1 20  1  0  0  0  0
  6 21  1  0  0  0  0
 11 22  1  0  0  0  0
 11 23  1  0  0  0  0
 11 24  1  0  0  0  0
 14 25  1  0  0  0  0
 15 26  1  0  0  0  0
 16 27  1  0  0  0  0
M  END
