
  xtb     03022213583D
 energy: -37.106637078169 gnorm: 0.000241901257 xtb: 6.4.1 (afa7bdf)
 28 29  0     0  0            999 V2000
   -1.2822    1.3474   -1.4745 C   0  0  0  0  0  0  0  0  0  0  0  0
   -1.6593    0.2898   -0.4808 C   0  0  0  0  0  0  0  0  0  0  0  0
   -2.9521   -0.2112   -0.4274 C   0  0  0  0  0  0  0  0  0  0  0  0
   -3.3038   -1.1836    0.4926 C   0  0  0  0  0  0  0  0  0  0  0  0
   -2.3582   -1.6700    1.3776 C   0  0  0  0  0  0  0  0  0  0  0  0
   -1.0648   -1.1811    1.3341 C   0  0  0  0  0  0  0  0  0  0  0  0
   -0.7072   -0.2062    0.4126 C   0  0  0  0  0  0  0  0  0  0  0  0
    0.6832    0.3062    0.3897 C   0  0  0  0  0  0  0  0  0  0  0  0
    0.9931    1.4807    1.0621 C   0  0  0  0  0  0  0  0  0  0  0  0
    2.2850    1.9753    1.0592 C   0  0  0  0  0  0  0  0  0  0  0  0
    3.2773    1.2934    0.3778 C   0  0  0  0  0  0  0  0  0  0  0  0
    2.9732    0.1218   -0.2934 C   0  0  0  0  0  0  0  0  0  0  0  0
    1.6823   -0.3870   -0.2970 C   0  0  0  0  0  0  0  0  0  0  0  0
    1.3571   -1.6601   -1.0192 C   0  0  0  0  0  0  0  0  0  0  0  0
   -0.3950    1.0528   -2.0333 H   0  0  0  0  0  0  0  0  0  0  0  0
   -1.0483    2.2808   -0.9631 H   0  0  0  0  0  0  0  0  0  0  0  0
   -2.0952    1.5297   -2.1729 H   0  0  0  0  0  0  0  0  0  0  0  0
   -3.6946    0.1663   -1.1167 H   0  0  0  0  0  0  0  0  0  0  0  0
   -4.3159   -1.5604    0.5179 H   0  0  0  0  0  0  0  0  0  0  0  0
   -2.6262   -2.4275    2.0995 H   0  0  0  0  0  0  0  0  0  0  0  0
   -0.3190   -1.5517    2.0234 H   0  0  0  0  0  0  0  0  0  0  0  0
    0.2109    2.0037    1.5945 H   0  0  0  0  0  0  0  0  0  0  0  0
    2.5156    2.8893    1.5868 H   0  0  0  0  0  0  0  0  0  0  0  0
    4.2887    1.6727    0.3683 H   0  0  0  0  0  0  0  0  0  0  0  0
    3.7520   -0.4080   -0.8241 H   0  0  0  0  0  0  0  0  0  0  0  0
    2.2042   -1.9958   -1.6124 H   0  0  0  0  0  0  0  0  0  0  0  0
    0.4980   -1.5236   -1.6744 H   0  0  0  0  0  0  0  0  0  0  0  0
    1.1007   -2.4438   -0.3069 H   0  0  0  0  0  0  0  0  0  0  0  0
  1  2  1  0  0  0  0
  2  3  2  0  0  0  0
  3  4  1  0  0  0  0
  4  5  2  0  0  0  0
  5  6  1  0  0  0  0
  6  7  2  0  0  0  0
  7  8  1  0  0  0  0
  8  9  2  0  0  0  0
  9 10  1  0  0  0  0
 10 11  2  0  0  0  0
 11 12  1  0  0  0  0
 12 13  2  0  0  0  0
 13 14  1  0  0  0  0
  7  2  1  0  0  0  0
 13  8  1  0  0  0  0
  1 15  1  0  0  0  0
  1 16  1  0  0  0  0
  1 17  1  0  0  0  0
  3 18  1  0  0  0  0
  4 19  1  0  0  0  0
  5 20  1  0  0  0  0
  6 21  1  0  0  0  0
  9 22  1  0  0  0  0
 10 23  1  0  0  0  0
 11 24  1  0  0  0  0
 12 25  1  0  0  0  0
 14 26  1  0  0  0  0
 14 27  1  0  0  0  0
 14 28  1  0  0  0  0
M  END
