
  xtb     03022212353D
 energy: -83.512497953524 gnorm: 0.000085346118 xtb: 6.4.1 (afa7bdf)
 41 43  0     0  0            999 V2000
   -3.3641    1.1921    2.3172 C   0  0  0  0  0  0  0  0  0  0  0  0
   -2.8731    0.4857    1.1501 N   0  0  0  0  0  0  0  0  0  0  0  0
   -1.5062    0.6151    0.8839 C   0  0  0  0  0  0  0  0  0  0  0  0
   -0.7932    1.2742    1.6119 O   0  0  0  0  0  0  0  0  0  0  0  0
   -1.0352   -0.0895   -0.3042 C   0  0  0  0  0  0  0  0  0  0  0  0
    0.2661   -0.0844   -0.7304 N   0  0  0  0  0  0  0  0  0  0  0  0
    1.1068    0.6380   -0.1542 N   0  0  0  0  0  0  0  0  0  0  0  0
    2.4340    0.6159   -0.2964 C   0  0  0  0  0  0  0  0  0  0  0  0
    3.1657   -0.5638   -0.0267 C   0  0  0  0  0  0  0  0  0  0  0  0
    4.5275   -0.5069    0.0783 C   0  0  0  0  0  0  0  0  0  0  0  0
    5.4112   -2.0228    0.3489 S   0  0  0  0  0  6  0  0  0  0  0  0
    4.5184   -3.0736    0.7407 O   0  0  0  0  0  0  0  0  0  0  0  0
    6.5892   -1.7858    1.1129 O   0  0  0  0  0  0  0  0  0  0  0  0
    5.8529   -2.3536   -1.1784 O   0  0  0  0  0  0  0  0  0  0  0  0
    5.2504    0.6635   -0.0802 C   0  0  0  0  0  0  0  0  0  0  0  0
    4.5540    1.8233   -0.3624 C   0  0  0  0  0  0  0  0  0  0  0  0
    3.1671    1.8173   -0.4768 C   0  0  0  0  0  0  0  0  0  0  0  0
    2.4851    3.0807   -0.8029 C   0  0  0  0  0  0  0  0  0  0  0  0
    3.0154    4.1653   -0.8061 O   0  0  0  0  0  0  0  0  0  0  0  0
    1.1880    2.9231   -1.1183 O   0  0  0  0  0  0  0  0  0  0  0  0
   -1.8849   -0.8475   -1.0921 C   0  0  0  0  0  0  0  0  0  0  0  0
   -1.4213   -1.4809   -2.1663 O   0  0  0  0  0  0  0  0  0  0  0  0
   -3.2665   -0.9497   -0.7553 C   0  0  0  0  0  0  0  0  0  0  0  0
   -4.1494   -1.7137   -1.5328 C   0  0  0  0  0  0  0  0  0  0  0  0
   -5.4769   -1.7992   -1.1991 C   0  0  0  0  0  0  0  0  0  0  0  0
   -5.9437   -1.1160   -0.0771 C   0  0  0  0  0  0  0  0  0  0  0  0
   -5.0961   -0.3602    0.7009 C   0  0  0  0  0  0  0  0  0  0  0  0
   -3.7329   -0.2566    0.3860 C   0  0  0  0  0  0  0  0  0  0  0  0
   -2.5102    1.7049    2.7592 H   0  0  0  0  0  0  0  0  0  0  0  0
   -4.1178    1.9275    2.0342 H   0  0  0  0  0  0  0  0  0  0  0  0
   -3.7787    0.4946    3.0455 H   0  0  0  0  0  0  0  0  0  0  0  0
    2.6529   -1.4987    0.1342 H   0  0  0  0  0  0  0  0  0  0  0  0
    5.4525   -3.1804   -1.4511 H   0  0  0  0  0  0  0  0  0  0  0  0
    6.3215    0.6370    0.0214 H   0  0  0  0  0  0  0  0  0  0  0  0
    5.0641    2.7639   -0.5060 H   0  0  0  0  0  0  0  0  0  0  0  0
    0.7826    3.7935   -1.2563 H   0  0  0  0  0  0  0  0  0  0  0  0
   -0.4649   -1.2910   -2.2235 H   0  0  0  0  0  0  0  0  0  0  0  0
   -3.7506   -2.2268   -2.3934 H   0  0  0  0  0  0  0  0  0  0  0  0
   -6.1559   -2.3873   -1.7957 H   0  0  0  0  0  0  0  0  0  0  0  0
   -6.9878   -1.1788    0.1899 H   0  0  0  0  0  0  0  0  0  0  0  0
   -5.4963    0.1514    1.5596 H   0  0  0  0  0  0  0  0  0  0  0  0
  1  2  1  0  0  0  0
  2  3  1  0  0  0  0
  3  4  2  0  0  0  0
  3  5  1  0  0  0  0
  5  6  1  0  0  0  0
  6  7  2  0  0  0  0
  7  8  1  0  0  0  0
  8  9  2  0  0  0  0
  9 10  1  0  0  0  0
 10 11  1  0  0  0  0
 11 12  2  0  0  0  0
 11 13  2  0  0  0  0
 11 14  1  0  0  0  0
 10 15  2  0  0  0  0
 15 16  1  0  0  0  0
 16 17  2  0  0  0  0
 17 18  1  0  0  0  0
 18 19  2  0  0  0  0
 18 20  1  0  0  0  0
  5 21  2  0  0  0  0
 21 22  1  0  0  0  0
 21 23  1  0  0  0  0
 23 24  2  0  0  0  0
 24 25  1  0  0  0  0
 25 26  2  0  0  0  0
 26 27  1  0  0  0  0
 27 28  2  0  0  0  0
 28  2  1  0  0  0  0
 17  8  1  0  0  0  0
 28 23  1  0  0  0  0
  1 29  1  0  0  0  0
  1 30  1  0  0  0  0
  1 31  1  0  0  0  0
  9 32  1  0  0  0  0
 14 33  1  0  0  0  0
 15 34  1  0  0  0  0
 16 35  1  0  0  0  0
 20 36  1  0  0  0  0
 22 37  1  0  0  0  0
 24 38  1  0  0  0  0
 25 39  1  0  0  0  0
 26 40  1  0  0  0  0
 27 41  1  0  0  0  0
M  END
