
  xtb     03022212303D
 energy: -54.336078179726 gnorm: 0.000207029588 xtb: 6.4.1 (afa7bdf)
 35 37  0     0  0            999 V2000
   -3.4345    1.6888    0.0632 C   0  0  0  0  0  0  0  0  0  0  0  0
   -3.0124    0.7066   -1.0326 C   0  0  0  0  0  0  0  0  0  0  0  0
   -2.1120   -0.3456   -0.4791 C   0  0  0  0  0  0  0  0  0  0  0  0
   -2.4493   -1.5889   -0.0524 C   0  0  0  0  0  0  0  0  0  0  0  0
   -3.7742   -2.2633   -0.0507 C   0  0  0  0  0  0  0  0  0  0  0  0
   -1.2552   -2.2716    0.4542 C   0  0  0  0  0  0  0  0  0  0  0  0
   -1.1491   -3.3809    0.9078 O   0  0  0  0  0  0  0  0  0  0  0  0
   -0.1964   -1.3341    0.2999 N   0  0  0  0  0  0  0  0  0  0  0  0
   -0.7005   -0.1577   -0.2676 C   0  0  0  0  0  0  0  0  0  0  0  0
    0.1216    0.8912   -0.5196 C   0  0  0  0  0  0  0  0  0  0  0  0
    1.4856    0.7592   -0.1911 C   0  0  0  0  0  0  0  0  0  0  0  0
    2.5704    1.6146   -0.3121 C   0  0  0  0  0  0  0  0  0  0  0  0
    2.5523    2.9956   -0.8664 C   0  0  0  0  0  0  0  0  0  0  0  0
    3.6855    0.9185    0.1897 C   0  0  0  0  0  0  0  0  0  0  0  0
    3.2872   -0.3294    0.6054 C   0  0  0  0  0  0  0  0  0  0  0  0
    4.1052   -1.4116    1.1992 C   0  0  0  0  0  0  0  0  0  0  0  0
    1.9352   -0.4351    0.3747 N   0  0  0  0  0  0  0  0  0  0  0  0
    1.1245   -1.5424    0.6502 C   0  0  0  0  0  0  0  0  0  0  0  0
    1.5470   -2.5536    1.1383 O   0  0  0  0  0  0  0  0  0  0  0  0
   -2.5630    2.1698    0.5008 H   0  0  0  0  0  0  0  0  0  0  0  0
   -4.0865    2.4551   -0.3485 H   0  0  0  0  0  0  0  0  0  0  0  0
   -3.9689    1.1662    0.8526 H   0  0  0  0  0  0  0  0  0  0  0  0
   -2.4979    1.2491   -1.8282 H   0  0  0  0  0  0  0  0  0  0  0  0
   -3.9002    0.2346   -1.4557 H   0  0  0  0  0  0  0  0  0  0  0  0
   -3.6474   -3.2898    0.2846 H   0  0  0  0  0  0  0  0  0  0  0  0
   -4.2121   -2.2636   -1.0484 H   0  0  0  0  0  0  0  0  0  0  0  0
   -4.4667   -1.7571    0.6214 H   0  0  0  0  0  0  0  0  0  0  0  0
   -0.2390    1.8053   -0.9576 H   0  0  0  0  0  0  0  0  0  0  0  0
    2.2151    2.9897   -1.9027 H   0  0  0  0  0  0  0  0  0  0  0  0
    3.5485    3.4275   -0.8274 H   0  0  0  0  0  0  0  0  0  0  0  0
    1.8740    3.6305   -0.2971 H   0  0  0  0  0  0  0  0  0  0  0  0
    4.6875    1.2974    0.2415 H   0  0  0  0  0  0  0  0  0  0  0  0
    3.7289   -1.6829    2.1844 H   0  0  0  0  0  0  0  0  0  0  0  0
    5.1375   -1.0822    1.2832 H   0  0  0  0  0  0  0  0  0  0  0  0
    4.0594   -2.3100    0.5855 H   0  0  0  0  0  0  0  0  0  0  0  0
  1  2  1  0  0  0  0
  2  3  1  0  0  0  0
  3  4  2  0  0  0  0
  4  5  1  0  0  0  0
  4  6  1  0  0  0  0
  6  7  2  0  0  0  0
  6  8  1  0  0  0  0
  8  9  1  0  0  0  0
  9 10  2  0  0  0  0
 10 11  1  0  0  0  0
 11 12  2  0  0  0  0
 12 13  1  0  0  0  0
 12 14  1  0  0  0  0
 14 15  2  0  0  0  0
 15 16  1  0  0  0  0
 15 17  1  0  0  0  0
 17 18  1  0  0  0  0
 18 19  2  0  0  0  0
  9  3  1  0  0  0  0
 17 11  1  0  0  0  0
 18  8  1  0  0  0  0
  1 20  1  0  0  0  0
  1 21  1  0  0  0  0
  1 22  1  0  0  0  0
  2 23  1  0  0  0  0
  2 24  1  0  0  0  0
  5 25  1  0  0  0  0
  5 26  1  0  0  0  0
  5 27  1  0  0  0  0
 10 28  1  0  0  0  0
 13 29  1  0  0  0  0
 13 30  1  0  0  0  0
 13 31  1  0  0  0  0
 14 32  1  0  0  0  0
 16 33  1  0  0  0  0
 16 34  1  0  0  0  0
 16 35  1  0  0  0  0
M  END
