
  xtb     03022214493D
 energy: -101.120396782152 gnorm: 0.000203653139 xtb: 6.4.1 (afa7bdf)
 66 70  0     0  0            999 V2000
   -8.4437    1.7743    2.2599 C   0  0  0  0  0  0  0  0  0  0  0  0
   -7.7851    1.9997    1.0376 O   0  0  0  0  0  0  0  0  0  0  0  0
   -6.5802    1.4019    0.8265 C   0  0  0  0  0  0  0  0  0  0  0  0
   -5.9311    0.5705    1.7321 C   0  0  0  0  0  0  0  0  0  0  0  0
   -4.7039    0.0174    1.4054 C   0  0  0  0  0  0  0  0  0  0  0  0
   -4.1039    0.2786    0.1829 C   0  0  0  0  0  0  0  0  0  0  0  0
   -2.7964   -0.3201   -0.1571 C   0  0  0  0  0  0  0  0  0  0  0  0
   -2.7515   -1.5554   -0.8078 C   0  0  0  0  0  0  0  0  0  0  0  0
   -3.7905   -2.4221   -1.2449 C   0  0  0  0  0  0  0  0  0  0  0  0
   -5.2598   -2.2320   -1.1142 C   0  0  0  0  0  0  0  0  0  0  0  0
   -3.1635   -3.5073   -1.8302 C   0  0  0  0  0  0  0  0  0  0  0  0
   -1.7813   -3.3061   -1.7504 C   0  0  0  0  0  0  0  0  0  0  0  0
   -0.6937   -4.1855   -2.2346 C   0  0  0  0  0  0  0  0  0  0  0  0
   -1.5444   -2.1393   -1.1386 N   0  0  0  0  0  4  0  0  0  0  0  0
   -0.1612   -1.5359   -0.8395 B   0  0  0  0  0  4  0  0  0  0  0  0
    0.5627   -2.3972   -0.0246 F   0  0  0  0  0  0  0  0  0  0  0  0
    0.5390   -1.3485   -2.0240 F   0  0  0  0  0  0  0  0  0  0  0  0
   -0.3824   -0.1877   -0.1293 N   0  0  0  0  0  0  0  0  0  0  0  0
    0.5777    0.6582    0.2979 C   0  0  0  0  0  0  0  0  0  0  0  0
    1.9623    0.3845    0.1344 C   0  0  0  0  0  0  0  0  0  0  0  0
    2.9547    1.2058    0.5452 C   0  0  0  0  0  0  0  0  0  0  0  0
    4.3643    0.9724    0.4025 C   0  0  0  0  0  0  0  0  0  0  0  0
    4.9052   -0.1749   -0.1938 C   0  0  0  0  0  0  0  0  0  0  0  0
    6.2614   -0.3547   -0.3100 C   0  0  0  0  0  0  0  0  0  0  0  0
    7.1729    0.6059    0.1640 C   0  0  0  0  0  0  0  0  0  0  0  0
    8.5230    0.4282    0.0451 N   0  0  0  0  0  0  0  0  0  0  0  0
    9.0523   -0.7557   -0.5846 C   0  0  0  0  0  0  0  0  0  0  0  0
    9.4388    1.4150    0.5595 C   0  0  0  0  0  0  0  0  0  0  0  0
    6.6337    1.7566    0.7640 C   0  0  0  0  0  0  0  0  0  0  0  0
    5.2750    1.9266    0.8758 C   0  0  0  0  0  0  0  0  0  0  0  0
   -0.0501    1.7785    0.8930 C   0  0  0  0  0  0  0  0  0  0  0  0
   -1.4091    1.5999    0.8214 C   0  0  0  0  0  0  0  0  0  0  0  0
   -2.4390    2.5451    1.3301 C   0  0  0  0  0  0  0  0  0  0  0  0
   -1.6168    0.3448    0.1697 C   0  0  0  0  0  0  0  0  0  0  0  0
   -4.7576    1.1110   -0.7215 C   0  0  0  0  0  0  0  0  0  0  0  0
   -5.9785    1.6661   -0.4055 C   0  0  0  0  0  0  0  0  0  0  0  0
   -9.3717    2.3410    2.2033 H   0  0  0  0  0  0  0  0  0  0  0  0
   -8.6766    0.7140    2.4025 H   0  0  0  0  0  0  0  0  0  0  0  0
   -7.8523    2.1344    3.1082 H   0  0  0  0  0  0  0  0  0  0  0  0
   -6.3672    0.3444    2.6924 H   0  0  0  0  0  0  0  0  0  0  0  0
   -4.2053   -0.6286    2.1135 H   0  0  0  0  0  0  0  0  0  0  0  0
   -5.5490   -2.1365   -0.0685 H   0  0  0  0  0  0  0  0  0  0  0  0
   -5.5840   -1.3278   -1.6276 H   0  0  0  0  0  0  0  0  0  0  0  0
   -5.7778   -3.0856   -1.5455 H   0  0  0  0  0  0  0  0  0  0  0  0
   -3.6417   -4.3604   -2.2718 H   0  0  0  0  0  0  0  0  0  0  0  0
   -0.0487   -4.4651   -1.4025 H   0  0  0  0  0  0  0  0  0  0  0  0
   -0.0751   -3.6459   -2.9502 H   0  0  0  0  0  0  0  0  0  0  0  0
   -1.1016   -5.0784   -2.7001 H   0  0  0  0  0  0  0  0  0  0  0  0
    2.1923   -0.5486   -0.3534 H   0  0  0  0  0  0  0  0  0  0  0  0
    2.6924    2.1374    1.0314 H   0  0  0  0  0  0  0  0  0  0  0  0
    4.2467   -0.9404   -0.5724 H   0  0  0  0  0  0  0  0  0  0  0  0
    6.6188   -1.2580   -0.7760 H   0  0  0  0  0  0  0  0  0  0  0  0
    8.7652   -1.6591   -0.0370 H   0  0  0  0  0  0  0  0  0  0  0  0
   10.1381   -0.7030   -0.6051 H   0  0  0  0  0  0  0  0  0  0  0  0
    8.6973   -0.8455   -1.6156 H   0  0  0  0  0  0  0  0  0  0  0  0
   10.4614    1.0873    0.3892 H   0  0  0  0  0  0  0  0  0  0  0  0
    9.3029    1.5577    1.6362 H   0  0  0  0  0  0  0  0  0  0  0  0
    9.3033    2.3797    0.0603 H   0  0  0  0  0  0  0  0  0  0  0  0
    7.2820    2.5279    1.1464 H   0  0  0  0  0  0  0  0  0  0  0  0
    4.8974    2.8259    1.3430 H   0  0  0  0  0  0  0  0  0  0  0  0
    0.4557    2.6201    1.3243 H   0  0  0  0  0  0  0  0  0  0  0  0
   -3.1044    2.8652    0.5299 H   0  0  0  0  0  0  0  0  0  0  0  0
   -1.9526    3.4204    1.7548 H   0  0  0  0  0  0  0  0  0  0  0  0
   -3.0517    2.0761    2.0987 H   0  0  0  0  0  0  0  0  0  0  0  0
   -4.2989    1.3203   -1.6767 H   0  0  0  0  0  0  0  0  0  0  0  0
   -6.4939    2.3127   -1.0980 H   0  0  0  0  0  0  0  0  0  0  0  0
  1  2  1  0  0  0  0
  2  3  1  0  0  0  0
  3  4  2  0  0  0  0
  4  5  1  0  0  0  0
  5  6  2  0  0  0  0
  6  7  1  0  0  0  0
  7  8  2  0  0  0  0
  8  9  1  0  0  0  0
  9 10  1  0  0  0  0
  9 11  2  0  0  0  0
 11 12  1  0  0  0  0
 12 13  1  0  0  0  0
 12 14  2  0  0  0  0
 14 15  1  0  0  0  0
 15 16  1  0  0  0  0
 15 17  1  0  0  0  0
 15 18  1  0  0  0  0
 18 19  1  0  0  0  0
 19 20  1  0  0  0  0
 20 21  2  0  0  0  0
 21 22  1  0  0  0  0
 22 23  2  0  0  0  0
 23 24  1  0  0  0  0
 24 25  2  0  0  0  0
 25 26  1  0  0  0  0
 26 27  1  0  0  0  0
 26 28  1  0  0  0  0
 25 29  1  0  0  0  0
 29 30  2  0  0  0  0
 19 31  2  0  0  0  0
 31 32  1  0  0  0  0
 32 33  1  0  0  0  0
 32 34  2  0  0  0  0
  6 35  1  0  0  0  0
 35 36  2  0  0  0  0
 36  3  1  0  0  0  0
 34  7  1  0  0  0  0
 14  8  1  0  0  0  0
 34 18  1  0  0  0  0
 30 22  1  0  0  0  0
  1 37  1  0  0  0  0
  1 38  1  0  0  0  0
  1 39  1  0  0  0  0
  4 40  1  0  0  0  0
  5 41  1  0  0  0  0
 10 42  1  0  0  0  0
 10 43  1  0  0  0  0
 10 44  1  0  0  0  0
 11 45  1  0  0  0  0
 13 46  1  0  0  0  0
 13 47  1  0  0  0  0
 13 48  1  0  0  0  0
 20 49  1  0  0  0  0
 21 50  1  0  0  0  0
 23 51  1  0  0  0  0
 24 52  1  0  0  0  0
 27 53  1  0  0  0  0
 27 54  1  0  0  0  0
 27 55  1  0  0  0  0
 28 56  1  0  0  0  0
 28 57  1  0  0  0  0
 28 58  1  0  0  0  0
 29 59  1  0  0  0  0
 30 60  1  0  0  0  0
 31 61  1  0  0  0  0
 33 62  1  0  0  0  0
 33 63  1  0  0  0  0
 33 64  1  0  0  0  0
 35 65  1  0  0  0  0
 36 66  1  0  0  0  0
M  CHG  1  14   1
M  CHG  1  15  -1
M  END
