
  xtb     03022214393D
 energy: -50.025902797071 gnorm: 0.000077021573 xtb: 6.4.1 (afa7bdf)
 30 31  0     0  0            999 V2000
    1.6036    1.7931   -1.0307 O   0  0  0  0  0  0  0  0  0  0  0  0
    1.7481    0.7878   -0.3776 C   0  0  0  0  0  0  0  0  0  0  0  0
    0.6934    0.0241    0.0693 N   0  0  0  0  0  0  0  0  0  0  0  0
   -0.5699    0.3409   -0.2314 N   0  0  0  0  0  0  0  0  0  0  0  0
   -1.5287   -0.3515    0.2334 C   0  0  0  0  0  0  0  0  0  0  0  0
   -2.9025   -0.0277   -0.0864 C   0  0  0  0  0  0  0  0  0  0  0  0
   -3.1670    1.0746   -0.9092 C   0  0  0  0  0  0  0  0  0  0  0  0
   -4.4551    1.4249   -1.2433 C   0  0  0  0  0  0  0  0  0  0  0  0
   -5.5204    0.6758   -0.7594 C   0  0  0  0  0  0  0  0  0  0  0  0
   -5.2866   -0.4141    0.0524 C   0  0  0  0  0  0  0  0  0  0  0  0
   -3.9877   -0.7780    0.3972 C   0  0  0  0  0  0  0  0  0  0  0  0
   -3.8573   -1.8665    1.2005 O   0  0  0  0  0  0  0  0  0  0  0  0
    3.0809    0.2659    0.0423 C   0  0  0  0  0  0  0  0  0  0  0  0
    3.3626   -1.0926    0.1587 C   0  0  0  0  0  0  0  0  0  0  0  0
    4.6294   -1.5085    0.5286 C   0  0  0  0  0  0  0  0  0  0  0  0
    5.6216   -0.5774    0.7882 C   0  0  0  0  0  0  0  0  0  0  0  0
    5.3518    0.7754    0.6591 C   0  0  0  0  0  0  0  0  0  0  0  0
    4.0907    1.1947    0.2802 C   0  0  0  0  0  0  0  0  0  0  0  0
    0.8779   -0.7698    0.6885 H   0  0  0  0  0  0  0  0  0  0  0  0
   -1.3188   -1.2144    0.8908 H   0  0  0  0  0  0  0  0  0  0  0  0
   -2.3209    1.6373   -1.2695 H   0  0  0  0  0  0  0  0  0  0  0  0
   -4.6367    2.2781   -1.8784 H   0  0  0  0  0  0  0  0  0  0  0  0
   -6.5345    0.9425   -1.0159 H   0  0  0  0  0  0  0  0  0  0  0  0
   -6.0970   -1.0111    0.4399 H   0  0  0  0  0  0  0  0  0  0  0  0
   -2.9287   -2.0435    1.3884 H   0  0  0  0  0  0  0  0  0  0  0  0
    2.6099   -1.8336   -0.0725 H   0  0  0  0  0  0  0  0  0  0  0  0
    4.8443   -2.5638    0.6104 H   0  0  0  0  0  0  0  0  0  0  0  0
    6.6070   -0.9080    1.0808 H   0  0  0  0  0  0  0  0  0  0  0  0
    6.1271    1.5024    0.8491 H   0  0  0  0  0  0  0  0  0  0  0  0
    3.8634    2.2433    0.1626 H   0  0  0  0  0  0  0  0  0  0  0  0
  1  2  2  0  0  0  0
  2  3  1  0  0  0  0
  3  4  1  0  0  0  0
  4  5  2  0  0  0  0
  5  6  1  0  0  0  0
  6  7  2  0  0  0  0
  7  8  1  0  0  0  0
  8  9  2  0  0  0  0
  9 10  1  0  0  0  0
 10 11  2  0  0  0  0
 11 12  1  0  0  0  0
  2 13  1  0  0  0  0
 13 14  2  0  0  0  0
 14 15  1  0  0  0  0
 15 16  2  0  0  0  0
 16 17  1  0  0  0  0
 17 18  2  0  0  0  0
 11  6  1  0  0  0  0
 18 13  1  0  0  0  0
  3 19  1  0  0  0  0
  5 20  1  0  0  0  0
  7 21  1  0  0  0  0
  8 22  1  0  0  0  0
  9 23  1  0  0  0  0
 10 24  1  0  0  0  0
 12 25  1  0  0  0  0
 14 26  1  0  0  0  0
 15 27  1  0  0  0  0
 16 28  1  0  0  0  0
 17 29  1  0  0  0  0
 18 30  1  0  0  0  0
M  END
