
  xtb     03022215033D
 energy: -40.970288838333 gnorm: 0.000093355543 xtb: 6.4.1 (afa7bdf)
 21 23  0     0  0            999 V2000
    0.0519    3.7274    0.0006 O   0  0  0  0  0  0  0  0  0  0  0  0
   -0.3519    2.5987    0.0439 C   0  0  0  0  0  0  0  0  0  0  0  0
   -1.6968    2.3953    0.1946 O   0  0  0  0  0  0  0  0  0  0  0  0
   -2.3265    1.1821    0.2631 C   0  0  0  0  0  0  0  0  0  0  0  0
   -3.5184    1.1660    0.3969 O   0  0  0  0  0  0  0  0  0  0  0  0
   -1.4825   -0.0188    0.1663 C   0  0  0  0  0  0  0  0  0  0  0  0
   -2.0493   -1.2757    0.2278 C   0  0  0  0  0  0  0  0  0  0  0  0
   -1.2436   -2.4144    0.1354 C   0  0  0  0  0  0  0  0  0  0  0  0
    0.1148   -2.2983   -0.0168 C   0  0  0  0  0  0  0  0  0  0  0  0
    0.7303   -1.0310   -0.0837 C   0  0  0  0  0  0  0  0  0  0  0  0
    2.1216   -0.8586   -0.2396 C   0  0  0  0  0  0  0  0  0  0  0  0
    2.6736    0.3958   -0.2994 C   0  0  0  0  0  0  0  0  0  0  0  0
    1.8666    1.5336   -0.2068 C   0  0  0  0  0  0  0  0  0  0  0  0
    0.5011    1.4042   -0.0538 C   0  0  0  0  0  0  0  0  0  0  0  0
   -0.0873    0.1233    0.0100 C   0  0  0  0  0  0  0  0  0  0  0  0
   -3.1186   -1.3595    0.3477 H   0  0  0  0  0  0  0  0  0  0  0  0
   -1.7015   -3.3905    0.1852 H   0  0  0  0  0  0  0  0  0  0  0  0
    0.7350   -3.1800   -0.0879 H   0  0  0  0  0  0  0  0  0  0  0  0
    2.7476   -1.7362   -0.3113 H   0  0  0  0  0  0  0  0  0  0  0  0
    3.7398    0.5131   -0.4188 H   0  0  0  0  0  0  0  0  0  0  0  0
    2.2941    2.5235   -0.2531 H   0  0  0  0  0  0  0  0  0  0  0  0
  1  2  2  0  0  0  0
  2  3  1  0  0  0  0
  3  4  1  0  0  0  0
  4  5  2  0  0  0  0
  4  6  1  0  0  0  0
  6  7  1  0  0  0  0
  7  8  2  0  0  0  0
  8  9  1  0  0  0  0
  9 10  2  0  0  0  0
 10 11  1  0  0  0  0
 11 12  2  0  0  0  0
 12 13  1  0  0  0  0
 13 14  2  0  0  0  0
 14 15  1  0  0  0  0
 14  2  1  0  0  0  0
 15  6  2  0  0  0  0
 15 10  1  0  0  0  0
  7 16  1  0  0  0  0
  8 17  1  0  0  0  0
  9 18  1  0  0  0  0
 11 19  1  0  0  0  0
 12 20  1  0  0  0  0
 13 21  1  0  0  0  0
M  END
