
  xtb     03022212193D
 energy: -87.090949207599 gnorm: 0.000180545892 xtb: 6.4.1 (afa7bdf)
 51 54  0     0  0            999 V2000
   -5.3300   -3.8343    0.9158 C   0  0  0  0  0  0  0  0  0  0  0  0
   -4.4079   -3.6820   -0.1357 O   0  0  0  0  0  0  0  0  0  0  0  0
   -3.4139   -2.7625   -0.0043 C   0  0  0  0  0  0  0  0  0  0  0  0
   -2.5239   -2.6700   -1.0767 C   0  0  0  0  0  0  0  0  0  0  0  0
   -1.4839   -1.7699   -1.0455 C   0  0  0  0  0  0  0  0  0  0  0  0
   -1.3071   -0.9250    0.0509 C   0  0  0  0  0  0  0  0  0  0  0  0
   -0.1754   -0.0010    0.0677 C   0  0  0  0  0  0  0  0  0  0  0  0
    0.9886   -0.4161   -0.4754 N   0  0  0  0  0  0  0  0  0  0  0  0
    1.9475    0.4403   -0.3425 C   0  0  0  0  0  0  0  0  0  0  0  0
    3.2967    0.2369   -0.8139 C   0  0  0  0  0  0  0  0  0  0  0  0
    4.1751    1.3120   -0.5556 C   0  0  0  0  0  0  0  0  0  0  0  0
    4.8266    2.2242   -0.3083 N   0  0  0  0  0  0  0  0  0  0  0  0
    3.6230   -0.9244   -1.4434 C   0  0  0  0  0  0  0  0  0  0  0  0
    4.8795   -1.3556   -1.9939 C   0  0  0  0  0  0  0  0  0  0  0  0
    4.9346   -2.6318   -2.5752 C   0  0  0  0  0  0  0  0  0  0  0  0
    6.1001   -3.1221   -3.1225 C   0  0  0  0  0  0  0  0  0  0  0  0
    7.2451   -2.3374   -3.1000 C   0  0  0  0  0  0  0  0  0  0  0  0
    8.7091   -2.9419   -3.7819 Cl  0  0  0  0  0  0  0  0  0  0  0  0
    7.2205   -1.0704   -2.5334 C   0  0  0  0  0  0  0  0  0  0  0  0
    6.0503   -0.5865   -1.9871 C   0  0  0  0  0  0  0  0  0  0  0  0
    1.4729    1.9109    0.4944 S   0  0  0  0  0  0  0  0  0  0  0  0
   -0.1314    1.2621    0.6372 C   0  0  0  0  0  0  0  0  0  0  0  0
   -1.1888    2.0616    1.2227 C   0  0  0  0  0  0  0  0  0  0  0  0
   -2.4938    2.0171    0.7207 C   0  0  0  0  0  0  0  0  0  0  0  0
   -3.4822    2.7943    1.2757 C   0  0  0  0  0  0  0  0  0  0  0  0
   -3.2048    3.6476    2.3482 C   0  0  0  0  0  0  0  0  0  0  0  0
   -4.2573    4.3626    2.8244 O   0  0  0  0  0  0  0  0  0  0  0  0
   -4.0400    5.2562    3.8900 C   0  0  0  0  0  0  0  0  0  0  0  0
   -1.9052    3.7116    2.8405 C   0  0  0  0  0  0  0  0  0  0  0  0
   -0.9148    2.9307    2.2759 C   0  0  0  0  0  0  0  0  0  0  0  0
   -2.1842   -1.0327    1.1244 C   0  0  0  0  0  0  0  0  0  0  0  0
   -3.2290   -1.9378    1.1013 C   0  0  0  0  0  0  0  0  0  0  0  0
   -6.0181   -4.6141    0.5933 H   0  0  0  0  0  0  0  0  0  0  0  0
   -4.8364   -4.1485    1.8412 H   0  0  0  0  0  0  0  0  0  0  0  0
   -5.8896   -2.9110    1.0974 H   0  0  0  0  0  0  0  0  0  0  0  0
   -2.6736   -3.3215   -1.9231 H   0  0  0  0  0  0  0  0  0  0  0  0
   -0.7951   -1.7034   -1.8733 H   0  0  0  0  0  0  0  0  0  0  0  0
    2.8052   -1.6283   -1.5367 H   0  0  0  0  0  0  0  0  0  0  0  0
    4.0437   -3.2422   -2.5918 H   0  0  0  0  0  0  0  0  0  0  0  0
    6.1291   -4.1052   -3.5656 H   0  0  0  0  0  0  0  0  0  0  0  0
    8.1156   -0.4686   -2.5218 H   0  0  0  0  0  0  0  0  0  0  0  0
    6.0457    0.3988   -1.5515 H   0  0  0  0  0  0  0  0  0  0  0  0
   -2.7210    1.3762   -0.1171 H   0  0  0  0  0  0  0  0  0  0  0  0
   -4.4894    2.7682    0.8915 H   0  0  0  0  0  0  0  0  0  0  0  0
   -3.3215    6.0365    3.6198 H   0  0  0  0  0  0  0  0  0  0  0  0
   -5.0073    5.7130    4.0929 H   0  0  0  0  0  0  0  0  0  0  0  0
   -3.6915    4.7348    4.7873 H   0  0  0  0  0  0  0  0  0  0  0  0
   -1.6504    4.3651    3.6597 H   0  0  0  0  0  0  0  0  0  0  0  0
    0.0911    2.9884    2.6666 H   0  0  0  0  0  0  0  0  0  0  0  0
   -2.0453   -0.4105    1.9959 H   0  0  0  0  0  0  0  0  0  0  0  0
   -3.8873   -1.9942    1.9538 H   0  0  0  0  0  0  0  0  0  0  0  0
  1  2  1  0  0  0  0
  2  3  1  0  0  0  0
  3  4  2  0  0  0  0
  4  5  1  0  0  0  0
  5  6  2  0  0  0  0
  6  7  1  0  0  0  0
  7  8  1  0  0  0  0
  8  9  2  0  0  0  0
  9 10  1  0  0  0  0
 10 11  1  0  0  0  0
 11 12  3  0  0  0  0
 10 13  2  0  0  0  0
 13 14  1  0  0  0  0
 14 15  2  0  0  0  0
 15 16  1  0  0  0  0
 16 17  2  0  0  0  0
 17 18  1  0  0  0  0
 17 19  1  0  0  0  0
 19 20  2  0  0  0  0
  9 21  1  0  0  0  0
 21 22  1  0  0  0  0
 22 23  1  0  0  0  0
 23 24  2  0  0  0  0
 24 25  1  0  0  0  0
 25 26  2  0  0  0  0
 26 27  1  0  0  0  0
 27 28  1  0  0  0  0
 26 29  1  0  0  0  0
 29 30  2  0  0  0  0
  6 31  1  0  0  0  0
 31 32  2  0  0  0  0
 32  3  1  0  0  0  0
 22  7  2  0  0  0  0
 30 23  1  0  0  0  0
 20 14  1  0  0  0  0
  1 33  1  0  0  0  0
  1 34  1  0  0  0  0
  1 35  1  0  0  0  0
  4 36  1  0  0  0  0
  5 37  1  0  0  0  0
 13 38  1  0  0  0  0
 15 39  1  0  0  0  0
 16 40  1  0  0  0  0
 19 41  1  0  0  0  0
 20 42  1  0  0  0  0
 24 43  1  0  0  0  0
 25 44  1  0  0  0  0
 28 45  1  0  0  0  0
 28 46  1  0  0  0  0
 28 47  1  0  0  0  0
 29 48  1  0  0  0  0
 30 49  1  0  0  0  0
 31 50  1  0  0  0  0
 32 51  1  0  0  0  0
M  END
