
  xtb     03022214393D
 energy: -123.613511221086 gnorm: 0.000077244448 xtb: 6.4.1 (afa7bdf)
 86 92  0     0  0            999 V2000
   -9.9151   -0.6343    0.3234 C   0  0  0  0  0  0  0  0  0  0  0  0
   -9.3044   -0.1568   -1.0021 C   0  0  0  0  0  0  0  0  0  0  0  0
   -9.8052   -1.0783   -2.1176 C   0  0  0  0  0  0  0  0  0  0  0  0
   -9.7798    1.2703   -1.3100 C   0  0  0  0  0  0  0  0  0  0  0  0
   -7.7902   -0.1551   -0.8767 C   0  0  0  0  0  0  0  0  0  0  0  0
   -6.9600   -0.9094   -1.7004 C   0  0  0  0  0  0  0  0  0  0  0  0
   -5.5863   -0.8810   -1.5619 C   0  0  0  0  0  0  0  0  0  0  0  0
   -4.9837   -0.0886   -0.5845 C   0  0  0  0  0  0  0  0  0  0  0  0
   -3.5567   -0.0138   -0.3920 C   0  0  0  0  0  0  0  0  0  0  0  0
   -2.5822   -0.7701   -0.9416 C   0  0  0  0  0  0  0  0  0  0  0  0
   -1.2301   -0.4567   -0.5401 C   0  0  0  0  0  0  0  0  0  0  0  0
   -0.0672   -1.0928   -0.9723 C   0  0  0  0  0  0  0  0  0  0  0  0
    1.1380   -0.6469   -0.4780 C   0  0  0  0  0  0  0  0  0  0  0  0
    1.2265    0.4195    0.4332 C   0  0  0  0  0  0  0  0  0  0  0  0
    0.0634    1.0545    0.8667 C   0  0  0  0  0  0  0  0  0  0  0  0
   -1.1416    0.6093    0.3716 C   0  0  0  0  0  0  0  0  0  0  0  0
   -2.8154    1.2283    0.7362 P   0  0  0  0  0  5  0  0  0  0  0  0
   -3.0617    2.6506    0.4727 O   0  0  0  0  0  0  0  0  0  0  0  0
   -3.1489    0.6991    2.4409 C   0  0  0  0  0  0  0  0  0  0  0  0
   -2.9547   -0.6159    2.8420 C   0  0  0  0  0  0  0  0  0  0  0  0
   -3.2084   -0.9703    4.1535 C   0  0  0  0  0  0  0  0  0  0  0  0
   -3.6516   -0.0171    5.0584 C   0  0  0  0  0  0  0  0  0  0  0  0
   -3.8420    1.2948    4.6560 C   0  0  0  0  0  0  0  0  0  0  0  0
   -3.5896    1.6548    3.3440 C   0  0  0  0  0  0  0  0  0  0  0  0
    2.5792    0.7382    0.8284 C   0  0  0  0  0  0  0  0  0  0  0  0
    3.5542   -0.0147    0.2752 C   0  0  0  0  0  0  0  0  0  0  0  0
    4.9825    0.0744    0.4514 C   0  0  0  0  0  0  0  0  0  0  0  0
    5.5901    0.8959    1.4014 C   0  0  0  0  0  0  0  0  0  0  0  0
    6.9653    0.9445    1.5173 C   0  0  0  0  0  0  0  0  0  0  0  0
    7.7923    0.1820    0.6980 C   0  0  0  0  0  0  0  0  0  0  0  0
    9.3083    0.2087    0.7962 C   0  0  0  0  0  0  0  0  0  0  0  0
    9.8151    1.1725    1.8724 C   0  0  0  0  0  0  0  0  0  0  0  0
    9.8889    0.6521   -0.5544 C   0  0  0  0  0  0  0  0  0  0  0  0
    9.8092   -1.2012    1.1405 C   0  0  0  0  0  0  0  0  0  0  0  0
    7.1790   -0.6414   -0.2463 C   0  0  0  0  0  0  0  0  0  0  0  0
    5.8085   -0.6965   -0.3679 C   0  0  0  0  0  0  0  0  0  0  0  0
    2.8119   -1.2643   -0.8443 P   0  0  0  0  0  5  0  0  0  0  0  0
    3.0600   -2.6851   -0.5742 O   0  0  0  0  0  0  0  0  0  0  0  0
    3.1435   -0.7426   -2.5516 C   0  0  0  0  0  0  0  0  0  0  0  0
    2.9499    0.5709   -2.9576 C   0  0  0  0  0  0  0  0  0  0  0  0
    3.2056    0.9209   -4.2700 C   0  0  0  0  0  0  0  0  0  0  0  0
    3.6503   -0.0356   -5.1708 C   0  0  0  0  0  0  0  0  0  0  0  0
    3.8397   -1.3461   -4.7636 C   0  0  0  0  0  0  0  0  0  0  0  0
    3.5853   -1.7015   -3.4508 C   0  0  0  0  0  0  0  0  0  0  0  0
   -5.8129    0.6716    0.2414 C   0  0  0  0  0  0  0  0  0  0  0  0
   -7.1819    0.6359    0.0980 C   0  0  0  0  0  0  0  0  0  0  0  0
  -11.0001   -0.6586    0.2474 H   0  0  0  0  0  0  0  0  0  0  0  0
   -9.6464    0.0243    1.1446 H   0  0  0  0  0  0  0  0  0  0  0  0
   -9.5630   -1.6362    0.5606 H   0  0  0  0  0  0  0  0  0  0  0  0
  -10.8919   -1.0392   -2.1583 H   0  0  0  0  0  0  0  0  0  0  0  0
   -9.5137   -2.1100   -1.9345 H   0  0  0  0  0  0  0  0  0  0  0  0
   -9.4226   -0.7647   -3.0861 H   0  0  0  0  0  0  0  0  0  0  0  0
  -10.8620    1.2881   -1.4205 H   0  0  0  0  0  0  0  0  0  0  0  0
   -9.5072    1.9595   -0.5159 H   0  0  0  0  0  0  0  0  0  0  0  0
   -9.3318    1.6239   -2.2362 H   0  0  0  0  0  0  0  0  0  0  0  0
   -7.3784   -1.5346   -2.4724 H   0  0  0  0  0  0  0  0  0  0  0  0
   -4.9757   -1.4726   -2.2274 H   0  0  0  0  0  0  0  0  0  0  0  0
   -2.7595   -1.5716   -1.6429 H   0  0  0  0  0  0  0  0  0  0  0  0
   -0.1037   -1.9187   -1.6694 H   0  0  0  0  0  0  0  0  0  0  0  0
    0.0999    1.8802    1.5639 H   0  0  0  0  0  0  0  0  0  0  0  0
   -2.6071   -1.3486    2.1272 H   0  0  0  0  0  0  0  0  0  0  0  0
   -3.0598   -1.9910    4.4742 H   0  0  0  0  0  0  0  0  0  0  0  0
   -3.8477   -0.2998    6.0823 H   0  0  0  0  0  0  0  0  0  0  0  0
   -4.1856    2.0346    5.3641 H   0  0  0  0  0  0  0  0  0  0  0  0
   -3.7274    2.6706    3.0000 H   0  0  0  0  0  0  0  0  0  0  0  0
    2.7564    1.5422    1.5269 H   0  0  0  0  0  0  0  0  0  0  0  0
    4.9827    1.4966    2.0616 H   0  0  0  0  0  0  0  0  0  0  0  0
    7.3877    1.5933    2.2673 H   0  0  0  0  0  0  0  0  0  0  0  0
    9.4566    0.8837    2.8577 H   0  0  0  0  0  0  0  0  0  0  0  0
   10.9028    1.1521    1.8928 H   0  0  0  0  0  0  0  0  0  0  0  0
    9.5029    2.1931    1.6629 H   0  0  0  0  0  0  0  0  0  0  0  0
    9.5170    1.6402   -0.8178 H   0  0  0  0  0  0  0  0  0  0  0  0
    9.6175   -0.0368   -1.3493 H   0  0  0  0  0  0  0  0  0  0  0  0
   10.9745    0.6956   -0.4978 H   0  0  0  0  0  0  0  0  0  0  0  0
    9.5297   -1.9195    0.3750 H   0  0  0  0  0  0  0  0  0  0  0  0
   10.8935   -1.2014    1.2291 H   0  0  0  0  0  0  0  0  0  0  0  0
    9.3849   -1.5301    2.0868 H   0  0  0  0  0  0  0  0  0  0  0  0
    7.7794   -1.2550   -0.9007 H   0  0  0  0  0  0  0  0  0  0  0  0
    5.3523   -1.3462   -1.1039 H   0  0  0  0  0  0  0  0  0  0  0  0
    2.6013    1.3062   -2.2458 H   0  0  0  0  0  0  0  0  0  0  0  0
    3.0579    1.9405   -4.5944 H   0  0  0  0  0  0  0  0  0  0  0  0
    3.8486    0.2438   -6.1952 H   0  0  0  0  0  0  0  0  0  0  0  0
    4.1841   -2.0884   -5.4687 H   0  0  0  0  0  0  0  0  0  0  0  0
    3.7223   -2.7162   -3.1031 H   0  0  0  0  0  0  0  0  0  0  0  0
   -5.3603    1.2973    1.0002 H   0  0  0  0  0  0  0  0  0  0  0  0
   -7.7852    1.2403    0.7584 H   0  0  0  0  0  0  0  0  0  0  0  0
  1  2  1  0  0  0  0
  2  3  1  0  0  0  0
  2  4  1  0  0  0  0
  2  5  1  0  0  0  0
  5  6  2  0  0  0  0
  6  7  1  0  0  0  0
  7  8  2  0  0  0  0
  8  9  1  0  0  0  0
  9 10  2  0  0  0  0
 10 11  1  0  0  0  0
 11 12  2  0  0  0  0
 12 13  1  0  0  0  0
 13 14  2  0  0  0  0
 14 15  1  0  0  0  0
 15 16  2  0  0  0  0
 16 17  1  0  0  0  0
 17 18  2  0  0  0  0
 17 19  1  0  0  0  0
 19 20  2  0  0  0  0
 20 21  1  0  0  0  0
 21 22  2  0  0  0  0
 22 23  1  0  0  0  0
 23 24  2  0  0  0  0
 14 25  1  0  0  0  0
 25 26  2  0  0  0  0
 26 27  1  0  0  0  0
 27 28  2  0  0  0  0
 28 29  1  0  0  0  0
 29 30  2  0  0  0  0
 30 31  1  0  0  0  0
 31 32  1  0  0  0  0
 31 33  1  0  0  0  0
 31 34  1  0  0  0  0
 30 35  1  0  0  0  0
 35 36  2  0  0  0  0
 26 37  1  0  0  0  0
 37 38  2  0  0  0  0
 37 39  1  0  0  0  0
 39 40  2  0  0  0  0
 40 41  1  0  0  0  0
 41 42  2  0  0  0  0
 42 43  1  0  0  0  0
 43 44  2  0  0  0  0
  8 45  1  0  0  0  0
 45 46  2  0  0  0  0
 46  5  1  0  0  0  0
 17  9  1  0  0  0  0
 24 19  1  0  0  0  0
 36 27  1  0  0  0  0
 44 39  1  0  0  0  0
 16 11  1  0  0  0  0
 37 13  1  0  0  0  0
  1 47  1  0  0  0  0
  1 48  1  0  0  0  0
  1 49  1  0  0  0  0
  3 50  1  0  0  0  0
  3 51  1  0  0  0  0
  3 52  1  0  0  0  0
  4 53  1  0  0  0  0
  4 54  1  0  0  0  0
  4 55  1  0  0  0  0
  6 56  1  0  0  0  0
  7 57  1  0  0  0  0
 10 58  1  0  0  0  0
 12 59  1  0  0  0  0
 15 60  1  0  0  0  0
 20 61  1  0  0  0  0
 21 62  1  0  0  0  0
 22 63  1  0  0  0  0
 23 64  1  0  0  0  0
 24 65  1  0  0  0  0
 25 66  1  0  0  0  0
 28 67  1  0  0  0  0
 29 68  1  0  0  0  0
 32 69  1  0  0  0  0
 32 70  1  0  0  0  0
 32 71  1  0  0  0  0
 33 72  1  0  0  0  0
 33 73  1  0  0  0  0
 33 74  1  0  0  0  0
 34 75  1  0  0  0  0
 34 76  1  0  0  0  0
 34 77  1  0  0  0  0
 35 78  1  0  0  0  0
 36 79  1  0  0  0  0
 40 80  1  0  0  0  0
 41 81  1  0  0  0  0
 42 82  1  0  0  0  0
 43 83  1  0  0  0  0
 44 84  1  0  0  0  0
 45 85  1  0  0  0  0
 46 86  1  0  0  0  0
M  END
