
  xtb     03022215433D
 energy: -55.337981520019 gnorm: 0.000168506985 xtb: 6.4.1 (afa7bdf)
 37 39  0     0  0            999 V2000
   -5.1896    0.2496   -1.9049 C   0  0  0  0  0  0  0  0  0  0  0  0
   -3.7956    0.3641   -1.7726 O   0  0  0  0  0  0  0  0  0  0  0  0
   -3.1884   -0.3072   -0.7420 C   0  0  0  0  0  0  0  0  0  0  0  0
   -3.8462   -1.0677    0.2157 C   0  0  0  0  0  0  0  0  0  0  0  0
   -3.1119   -1.7288    1.1828 C   0  0  0  0  0  0  0  0  0  0  0  0
   -1.7264   -1.6409    1.2359 C   0  0  0  0  0  0  0  0  0  0  0  0
   -1.0806   -2.3446    2.1817 O   0  0  0  0  0  0  0  0  0  0  0  0
   -1.0555   -0.8162    0.3039 C   0  0  0  0  0  0  0  0  0  0  0  0
    0.3857   -0.6758    0.4205 C   0  0  0  0  0  0  0  0  0  0  0  0
    1.1300   -1.5684    1.0541 N   0  0  0  0  0  0  0  0  0  0  0  0
    2.4137   -1.1350    1.0073 C   0  0  0  0  0  0  0  0  0  0  0  0
    3.5300   -1.9024    1.6214 C   0  0  0  0  0  0  0  0  0  0  0  0
    2.4571    0.0616    0.3356 C   0  0  0  0  0  0  0  0  0  0  0  0
    1.1657    0.3520   -0.0274 N   0  0  0  0  0  0  0  0  0  0  0  0
    0.7801    1.5731   -0.6886 C   0  0  0  0  0  0  0  0  0  0  0  0
    1.8553    2.6397   -0.4968 C   0  0  0  0  0  0  0  0  0  0  0  0
    3.2101    2.0763   -0.9131 C   0  0  0  0  0  0  0  0  0  0  0  0
    3.6073    0.9667    0.0575 C   0  0  0  0  0  0  0  0  0  0  0  0
   -1.8041   -0.1899   -0.6873 C   0  0  0  0  0  0  0  0  0  0  0  0
   -5.7133    0.6608   -1.0353 H   0  0  0  0  0  0  0  0  0  0  0  0
   -5.4963   -0.7912   -2.0536 H   0  0  0  0  0  0  0  0  0  0  0  0
   -5.4512    0.8307   -2.7882 H   0  0  0  0  0  0  0  0  0  0  0  0
   -4.9193   -1.1708    0.2127 H   0  0  0  0  0  0  0  0  0  0  0  0
   -3.6071   -2.3446    1.9168 H   0  0  0  0  0  0  0  0  0  0  0  0
   -0.1099   -2.2620    2.0072 H   0  0  0  0  0  0  0  0  0  0  0  0
    3.1521   -2.8499    1.9937 H   0  0  0  0  0  0  0  0  0  0  0  0
    4.3131   -2.0925    0.8884 H   0  0  0  0  0  0  0  0  0  0  0  0
    3.9690   -1.3461    2.4494 H   0  0  0  0  0  0  0  0  0  0  0  0
   -0.1758    1.9112   -0.2780 H   0  0  0  0  0  0  0  0  0  0  0  0
    0.6523    1.3848   -1.7626 H   0  0  0  0  0  0  0  0  0  0  0  0
    1.8928    2.9428    0.5517 H   0  0  0  0  0  0  0  0  0  0  0  0
    1.5959    3.5130   -1.0961 H   0  0  0  0  0  0  0  0  0  0  0  0
    3.1391    1.6773   -1.9275 H   0  0  0  0  0  0  0  0  0  0  0  0
    3.9683    2.8604   -0.9120 H   0  0  0  0  0  0  0  0  0  0  0  0
    4.4423    0.3835   -0.3394 H   0  0  0  0  0  0  0  0  0  0  0  0
    3.9448    1.4093    1.0016 H   0  0  0  0  0  0  0  0  0  0  0  0
   -1.3331    0.3775   -1.4710 H   0  0  0  0  0  0  0  0  0  0  0  0
  1  2  1  0  0  0  0
  2  3  1  0  0  0  0
  3  4  2  0  0  0  0
  4  5  1  0  0  0  0
  5  6  2  0  0  0  0
  6  7  1  0  0  0  0
  6  8  1  0  0  0  0
  8  9  1  0  0  0  0
  9 10  2  0  0  0  0
 10 11  1  0  0  0  0
 11 12  1  0  0  0  0
 11 13  2  0  0  0  0
 13 14  1  0  0  0  0
 14 15  1  0  0  0  0
 15 16  1  0  0  0  0
 16 17  1  0  0  0  0
 17 18  1  0  0  0  0
  8 19  2  0  0  0  0
 19  3  1  0  0  0  0
 14  9  1  0  0  0  0
 18 13  1  0  0  0  0
  1 20  1  0  0  0  0
  1 21  1  0  0  0  0
  1 22  1  0  0  0  0
  4 23  1  0  0  0  0
  5 24  1  0  0  0  0
  7 25  1  0  0  0  0
 12 26  1  0  0  0  0
 12 27  1  0  0  0  0
 12 28  1  0  0  0  0
 15 29  1  0  0  0  0
 15 30  1  0  0  0  0
 16 31  1  0  0  0  0
 16 32  1  0  0  0  0
 17 33  1  0  0  0  0
 17 34  1  0  0  0  0
 18 35  1  0  0  0  0
 18 36  1  0  0  0  0
 19 37  1  0  0  0  0
M  END
