
  xtb     03022216123D
 energy: -64.934798483666 gnorm: 0.000408626918 xtb: 6.4.1 (afa7bdf)
 33 34  0     0  0            999 V2000
    4.9595    2.0350   -0.0517 C   0  0  0  0  0  0  0  0  0  0  0  0
    3.9523    0.9746   -0.3363 C   0  0  0  0  0  0  0  0  0  0  0  0
    4.1978   -0.3543   -0.2745 C   0  0  0  0  0  0  0  0  0  0  0  0
    3.1401   -1.2698   -0.5458 C   0  0  0  0  0  0  0  0  0  0  0  0
    3.4215   -2.5517   -0.5176 O   0  0  0  0  0  0  0  0  0  0  0  0
    1.8588   -0.7753   -0.8056 C   0  0  0  0  0  0  0  0  0  0  0  0
    0.7668   -1.7312   -0.9919 C   0  0  0  0  0  0  0  0  0  0  0  0
    1.0015   -2.9263   -1.1921 O   0  0  0  0  0  0  0  0  0  0  0  0
   -0.6257   -1.2768   -0.8884 C   0  0  0  0  0  0  0  0  0  0  0  0
   -1.0618   -0.4557    0.0681 C   0  0  0  0  0  0  0  0  0  0  0  0
   -2.4593   -0.0710    0.2083 C   0  0  0  0  0  0  0  0  0  0  0  0
   -3.1966    0.2648   -0.9284 C   0  0  0  0  0  0  0  0  0  0  0  0
   -4.5085    0.6865   -0.8330 C   0  0  0  0  0  0  0  0  0  0  0  0
   -5.1261    0.7925    0.4064 C   0  0  0  0  0  0  0  0  0  0  0  0
   -4.4207    0.4697    1.5472 C   0  0  0  0  0  0  0  0  0  0  0  0
   -3.1019    0.0369    1.4501 C   0  0  0  0  0  0  0  0  0  0  0  0
   -2.4313   -0.3292    2.6673 N   0  0  0  0  0  4  0  0  0  0  0  0
   -1.4357   -1.0215    2.5912 O   0  0  0  0  0  0  0  0  0  0  0  0
   -2.9056    0.0712    3.7102 O   0  0  0  0  0  1  0  0  0  0  0  0
    1.6612    0.6477   -0.9635 C   0  0  0  0  0  0  0  0  0  0  0  0
    0.6709    1.2175   -1.3473 O   0  0  0  0  0  0  0  0  0  0  0  0
    2.7560    1.4543   -0.6784 O   0  0  0  0  0  0  0  0  0  0  0  0
    4.6555    2.5985    0.8296 H   0  0  0  0  0  0  0  0  0  0  0  0
    5.0024    2.7337   -0.8852 H   0  0  0  0  0  0  0  0  0  0  0  0
    5.9388    1.6003    0.1176 H   0  0  0  0  0  0  0  0  0  0  0  0
    5.1685   -0.7453   -0.0274 H   0  0  0  0  0  0  0  0  0  0  0  0
    2.5901   -3.0534   -0.7690 H   0  0  0  0  0  0  0  0  0  0  0  0
   -1.3182   -1.7906   -1.5414 H   0  0  0  0  0  0  0  0  0  0  0  0
   -0.3665   -0.0453    0.7867 H   0  0  0  0  0  0  0  0  0  0  0  0
   -2.7064    0.2180   -1.8879 H   0  0  0  0  0  0  0  0  0  0  0  0
   -5.0550    0.9394   -1.7289 H   0  0  0  0  0  0  0  0  0  0  0  0
   -6.1504    1.1224    0.4799 H   0  0  0  0  0  0  0  0  0  0  0  0
   -4.8723    0.5336    2.5257 H   0  0  0  0  0  0  0  0  0  0  0  0
  1  2  1  0  0  0  0
  2  3  2  0  0  0  0
  3  4  1  0  0  0  0
  4  5  1  0  0  0  0
  4  6  2  0  0  0  0
  6  7  1  0  0  0  0
  7  8  2  0  0  0  0
  7  9  1  0  0  0  0
  9 10  2  0  0  0  0
 10 11  1  0  0  0  0
 11 12  2  0  0  0  0
 12 13  1  0  0  0  0
 13 14  2  0  0  0  0
 14 15  1  0  0  0  0
 15 16  2  0  0  0  0
 16 17  1  0  0  0  0
 17 18  2  0  0  0  0
 17 19  1  0  0  0  0
  6 20  1  0  0  0  0
 20 21  2  0  0  0  0
 20 22  1  0  0  0  0
 22  2  1  0  0  0  0
 16 11  1  0  0  0  0
  1 23  1  0  0  0  0
  1 24  1  0  0  0  0
  1 25  1  0  0  0  0
  3 26  1  0  0  0  0
  5 27  1  0  0  0  0
  9 28  1  0  0  0  0
 10 29  1  0  0  0  0
 12 30  1  0  0  0  0
 13 31  1  0  0  0  0
 14 32  1  0  0  0  0
 15 33  1  0  0  0  0
M  CHG  1  17   1
M  CHG  1  19  -1
M  END
