
  xtb     03022213533D
 energy: -53.368856255063 gnorm: 0.000112977615 xtb: 6.4.1 (afa7bdf)
 30 33  0     0  0            999 V2000
   -0.6146   -1.3360    2.5265 O   0  0  0  0  0  0  0  0  0  0  0  0
   -1.1717   -0.8668    1.5633 C   0  0  0  0  0  0  0  0  0  0  0  0
   -2.5339   -0.9391    1.5328 O   0  0  0  0  0  0  0  0  0  0  0  0
   -3.2771   -0.4521    0.5124 C   0  0  0  0  0  0  0  0  0  0  0  0
   -4.6616   -0.5828    0.5909 C   0  0  0  0  0  0  0  0  0  0  0  0
   -5.4476   -0.0969   -0.4326 C   0  0  0  0  0  0  0  0  0  0  0  0
   -4.8685    0.5209   -1.5393 C   0  0  0  0  0  0  0  0  0  0  0  0
   -3.5021    0.6530   -1.6224 C   0  0  0  0  0  0  0  0  0  0  0  0
   -2.6799    0.1685   -0.5971 C   0  0  0  0  0  0  0  0  0  0  0  0
   -1.2585    0.2660   -0.6077 C   0  0  0  0  0  0  0  0  0  0  0  0
   -0.5165   -0.2251    0.4203 C   0  0  0  0  0  0  0  0  0  0  0  0
    0.9271   -0.1217    0.4013 C   0  0  0  0  0  0  0  0  0  0  0  0
    1.8427   -0.5577    1.3457 C   0  0  0  0  0  0  0  0  0  0  0  0
    3.0641   -0.2263    0.8646 N   0  0  0  0  0  0  0  0  0  0  0  0
    4.3071   -0.4103    1.3688 C   0  0  0  0  0  0  0  0  0  0  0  0
    5.3857    0.0283    0.6656 C   0  0  0  0  0  0  0  0  0  0  0  0
    5.2132    0.6707   -0.5805 C   0  0  0  0  0  0  0  0  0  0  0  0
    3.9622    0.8591   -1.0943 C   0  0  0  0  0  0  0  0  0  0  0  0
    2.8509    0.4057   -0.3668 C   0  0  0  0  0  0  0  0  0  0  0  0
    1.5666    0.4680   -0.6443 N   0  0  0  0  0  0  0  0  0  0  0  0
   -5.0909   -1.0639    1.4552 H   0  0  0  0  0  0  0  0  0  0  0  0
   -6.5207   -0.1967   -0.3748 H   0  0  0  0  0  0  0  0  0  0  0  0
   -5.4976    0.8960   -2.3321 H   0  0  0  0  0  0  0  0  0  0  0  0
   -3.0414    1.1296   -2.4745 H   0  0  0  0  0  0  0  0  0  0  0  0
   -0.7541    0.7348   -1.4393 H   0  0  0  0  0  0  0  0  0  0  0  0
    1.6883   -1.0567    2.2781 H   0  0  0  0  0  0  0  0  0  0  0  0
    4.3790   -0.9069    2.3247 H   0  0  0  0  0  0  0  0  0  0  0  0
    6.3769   -0.1161    1.0633 H   0  0  0  0  0  0  0  0  0  0  0  0
    6.0827    1.0103   -1.1209 H   0  0  0  0  0  0  0  0  0  0  0  0
    3.7908    1.3443   -2.0405 H   0  0  0  0  0  0  0  0  0  0  0  0
  1  2  2  0  0  0  0
  2  3  1  0  0  0  0
  3  4  1  0  0  0  0
  4  5  2  0  0  0  0
  5  6  1  0  0  0  0
  6  7  2  0  0  0  0
  7  8  1  0  0  0  0
  8  9  2  0  0  0  0
  9 10  1  0  0  0  0
 10 11  2  0  0  0  0
 11 12  1  0  0  0  0
 12 13  2  0  0  0  0
 13 14  1  0  0  0  0
 14 15  1  0  0  0  0
 15 16  2  0  0  0  0
 16 17  1  0  0  0  0
 17 18  2  0  0  0  0
 18 19  1  0  0  0  0
 19 20  2  0  0  0  0
 11  2  1  0  0  0  0
 20 12  1  0  0  0  0
  9  4  1  0  0  0  0
 19 14  1  0  0  0  0
  5 21  1  0  0  0  0
  6 22  1  0  0  0  0
  7 23  1  0  0  0  0
  8 24  1  0  0  0  0
 10 25  1  0  0  0  0
 13 26  1  0  0  0  0
 15 27  1  0  0  0  0
 16 28  1  0  0  0  0
 17 29  1  0  0  0  0
 18 30  1  0  0  0  0
M  END
