
  xtb     03022215163D
 energy: -80.672359221459 gnorm: 0.000230429744 xtb: 6.4.1 (afa7bdf)
 51 54  0     0  0            999 V2000
   -3.4469    6.1491    1.7080 C   0  0  0  0  0  0  0  0  0  0  0  0
   -2.5062    5.7167    0.7575 O   0  0  0  0  0  0  0  0  0  0  0  0
   -2.1521    4.3976    0.7475 C   0  0  0  0  0  0  0  0  0  0  0  0
   -2.6426    3.4319    1.6190 C   0  0  0  0  0  0  0  0  0  0  0  0
   -2.2043    2.1247    1.5153 C   0  0  0  0  0  0  0  0  0  0  0  0
   -1.2686    1.7495    0.5569 C   0  0  0  0  0  0  0  0  0  0  0  0
   -0.8512    0.3577    0.4756 C   0  0  0  0  0  0  0  0  0  0  0  0
   -1.7103   -0.6335    0.8249 N   0  0  0  0  0  0  0  0  0  0  0  0
   -1.0955   -1.7763    0.5958 C   0  0  0  0  0  0  0  0  0  0  0  0
   -1.6867   -3.0742    0.8391 C   0  0  0  0  0  0  0  0  0  0  0  0
   -2.9887   -3.1076    1.3386 C   0  0  0  0  0  0  0  0  0  0  0  0
   -3.6281   -4.3015    1.6010 C   0  0  0  0  0  0  0  0  0  0  0  0
   -2.9668   -5.4934    1.3644 C   0  0  0  0  0  0  0  0  0  0  0  0
   -1.6737   -5.4882    0.8679 C   0  0  0  0  0  0  0  0  0  0  0  0
   -1.0215   -4.2927    0.6006 C   0  0  0  0  0  0  0  0  0  0  0  0
    0.2593   -4.2274    0.1072 O   0  0  0  0  0  0  0  0  0  0  0  0
    0.9569   -5.4267   -0.1284 C   0  0  0  0  0  0  0  0  0  0  0  0
    0.1513   -1.5530    0.1015 N   0  0  0  0  0  0  0  0  0  0  0  0
    0.3429   -0.1998    0.0254 C   0  0  0  0  0  0  0  0  0  0  0  0
    1.6072    0.3703   -0.3989 C   0  0  0  0  0  0  0  0  0  0  0  0
    2.0980    1.5463    0.1763 C   0  0  0  0  0  0  0  0  0  0  0  0
    3.3046    2.0718   -0.2215 C   0  0  0  0  0  0  0  0  0  0  0  0
    4.0687    1.4401   -1.2063 C   0  0  0  0  0  0  0  0  0  0  0  0
    5.2449    2.0494   -1.5277 O   0  0  0  0  0  0  0  0  0  0  0  0
    6.0548    1.4678   -2.5185 C   0  0  0  0  0  0  0  0  0  0  0  0
    3.5955    0.2641   -1.7760 C   0  0  0  0  0  0  0  0  0  0  0  0
    2.3808   -0.2601   -1.3702 C   0  0  0  0  0  0  0  0  0  0  0  0
   -0.7966    2.7205   -0.3274 C   0  0  0  0  0  0  0  0  0  0  0  0
   -1.2291    4.0238   -0.2310 C   0  0  0  0  0  0  0  0  0  0  0  0
   -3.5794    7.2152    1.5290 H   0  0  0  0  0  0  0  0  0  0  0  0
   -4.4085    5.6400    1.5840 H   0  0  0  0  0  0  0  0  0  0  0  0
   -3.0858    5.9974    2.7308 H   0  0  0  0  0  0  0  0  0  0  0  0
   -3.3651    3.6838    2.3798 H   0  0  0  0  0  0  0  0  0  0  0  0
   -2.5874    1.3703    2.1847 H   0  0  0  0  0  0  0  0  0  0  0  0
   -3.4739   -2.1601    1.5090 H   0  0  0  0  0  0  0  0  0  0  0  0
   -4.6359   -4.3054    1.9868 H   0  0  0  0  0  0  0  0  0  0  0  0
   -3.4514   -6.4376    1.5634 H   0  0  0  0  0  0  0  0  0  0  0  0
   -1.1817   -6.4318    0.6919 H   0  0  0  0  0  0  0  0  0  0  0  0
    0.4571   -6.0415   -0.8834 H   0  0  0  0  0  0  0  0  0  0  0  0
    1.9370   -5.1297   -0.5007 H   0  0  0  0  0  0  0  0  0  0  0  0
    1.0833   -6.0061    0.7912 H   0  0  0  0  0  0  0  0  0  0  0  0
    0.8228   -2.2693   -0.1198 H   0  0  0  0  0  0  0  0  0  0  0  0
    1.5229    2.0385    0.9452 H   0  0  0  0  0  0  0  0  0  0  0  0
    3.6886    2.9784    0.2185 H   0  0  0  0  0  0  0  0  0  0  0  0
    5.5378    1.4151   -3.4824 H   0  0  0  0  0  0  0  0  0  0  0  0
    6.3881    0.4652   -2.2299 H   0  0  0  0  0  0  0  0  0  0  0  0
    6.9215    2.1204   -2.6118 H   0  0  0  0  0  0  0  0  0  0  0  0
    4.1585   -0.2518   -2.5383 H   0  0  0  0  0  0  0  0  0  0  0  0
    2.0216   -1.1653   -1.8397 H   0  0  0  0  0  0  0  0  0  0  0  0
   -0.0960    2.4467   -1.1018 H   0  0  0  0  0  0  0  0  0  0  0  0
   -0.8704    4.7809   -0.9107 H   0  0  0  0  0  0  0  0  0  0  0  0
  1  2  1  0  0  0  0
  2  3  1  0  0  0  0
  3  4  2  0  0  0  0
  4  5  1  0  0  0  0
  5  6  2  0  0  0  0
  6  7  1  0  0  0  0
  7  8  1  0  0  0  0
  8  9  2  0  0  0  0
  9 10  1  0  0  0  0
 10 11  2  0  0  0  0
 11 12  1  0  0  0  0
 12 13  2  0  0  0  0
 13 14  1  0  0  0  0
 14 15  2  0  0  0  0
 15 16  1  0  0  0  0
 16 17  1  0  0  0  0
  9 18  1  0  0  0  0
 18 19  1  0  0  0  0
 19 20  1  0  0  0  0
 20 21  2  0  0  0  0
 21 22  1  0  0  0  0
 22 23  2  0  0  0  0
 23 24  1  0  0  0  0
 24 25  1  0  0  0  0
 23 26  1  0  0  0  0
 26 27  2  0  0  0  0
  6 28  1  0  0  0  0
 28 29  2  0  0  0  0
 29  3  1  0  0  0  0
 19  7  2  0  0  0  0
 27 20  1  0  0  0  0
 15 10  1  0  0  0  0
  1 30  1  0  0  0  0
  1 31  1  0  0  0  0
  1 32  1  0  0  0  0
  4 33  1  0  0  0  0
  5 34  1  0  0  0  0
 11 35  1  0  0  0  0
 12 36  1  0  0  0  0
 13 37  1  0  0  0  0
 14 38  1  0  0  0  0
 17 39  1  0  0  0  0
 17 40  1  0  0  0  0
 17 41  1  0  0  0  0
 18 42  1  0  0  0  0
 21 43  1  0  0  0  0
 22 44  1  0  0  0  0
 25 45  1  0  0  0  0
 25 46  1  0  0  0  0
 25 47  1  0  0  0  0
 26 48  1  0  0  0  0
 27 49  1  0  0  0  0
 28 50  1  0  0  0  0
 29 51  1  0  0  0  0
M  END
