
  xtb     03022214183D
 energy: -136.827675512413 gnorm: 0.000132393510 xtb: 6.4.1 (afa7bdf)
 83 91  0     0  0            999 V2000
   -2.5671   -7.8119   -4.9903 C   0  0  0  0  0  0  0  0  0  0  0  0
   -2.2888   -7.7245   -3.6143 O   0  0  0  0  0  0  0  0  0  0  0  0
   -1.9151   -6.5207   -3.1001 C   0  0  0  0  0  0  0  0  0  0  0  0
   -1.6504   -6.4995   -1.7292 C   0  0  0  0  0  0  0  0  0  0  0  0
   -1.2624   -5.3326   -1.1092 C   0  0  0  0  0  0  0  0  0  0  0  0
   -1.1336   -4.1499   -1.8340 C   0  0  0  0  0  0  0  0  0  0  0  0
   -0.7032   -2.8974   -1.1639 C   0  0  0  0  0  0  0  0  0  0  0  0
    0.6045   -2.9099   -0.6391 C   0  0  0  0  0  0  0  0  0  0  0  0
    1.5465   -3.9521   -0.7542 C   0  0  0  0  0  0  0  0  0  0  0  0
    2.7055   -3.5493   -0.1306 C   0  0  0  0  0  0  0  0  0  0  0  0
    2.4963   -2.2553    0.3701 C   0  0  0  0  0  0  0  0  0  0  0  0
    1.2182   -1.9008    0.0451 N   0  0  0  0  0  0  0  0  0  0  0  0
    3.4089   -1.4232    1.0499 C   0  0  0  0  0  0  0  0  0  0  0  0
    3.1276   -0.1747    1.4305 N   0  0  0  0  0  0  0  0  0  0  0  0
    4.2517    0.3190    2.0321 C   0  0  0  0  0  0  0  0  0  0  0  0
    4.3506    1.6253    2.5125 C   0  0  0  0  0  0  0  0  0  0  0  0
    5.5762    2.0737    3.1804 C   0  0  0  0  0  0  0  0  0  0  0  0
    6.1082    1.3508    4.2495 C   0  0  0  0  0  0  0  0  0  0  0  0
    7.2583    1.7714    4.8827 C   0  0  0  0  0  0  0  0  0  0  0  0
    7.9033    2.9322    4.4516 C   0  0  0  0  0  0  0  0  0  0  0  0
    9.0825    3.3673    5.0953 C   0  0  0  0  0  0  0  0  0  0  0  0
   10.0403    3.7212    5.6178 N   0  0  0  0  0  0  0  0  0  0  0  0
    7.3794    3.6627    3.3833 C   0  0  0  0  0  0  0  0  0  0  0  0
    6.2265    3.2352    2.7601 C   0  0  0  0  0  0  0  0  0  0  0  0
    3.2846    2.5335    2.3643 C   0  0  0  0  0  0  0  0  0  0  0  0
    3.1071    3.8575    2.8143 C   0  0  0  0  0  0  0  0  0  0  0  0
    1.8434    4.2542    2.4393 C   0  0  0  0  0  0  0  0  0  0  0  0
    1.2334    3.1765    1.7630 C   0  0  0  0  0  0  0  0  0  0  0  0
    2.1324    2.1641    1.7326 N   0  0  0  0  0  0  0  0  0  0  0  0
   -0.0702    3.1156    1.2304 C   0  0  0  0  0  0  0  0  0  0  0  0
   -1.0620    4.1044    1.2845 C   0  0  0  0  0  0  0  0  0  0  0  0
   -2.1925    3.6040    0.6767 C   0  0  0  0  0  0  0  0  0  0  0  0
   -1.9076    2.2993    0.2334 C   0  0  0  0  0  0  0  0  0  0  0  0
   -0.6131    2.0362    0.5868 N   0  0  0  0  0  0  0  0  0  0  0  0
   -2.7980    1.4190   -0.4147 C   0  0  0  0  0  0  0  0  0  0  0  0
   -4.1447    1.9737   -0.7037 C   0  0  0  0  0  0  0  0  0  0  0  0
   -4.2994    3.0250   -1.5963 C   0  0  0  0  0  0  0  0  0  0  0  0
   -5.5473    3.5595   -1.8681 C   0  0  0  0  0  0  0  0  0  0  0  0
   -6.6745    3.0463   -1.2363 C   0  0  0  0  0  0  0  0  0  0  0  0
   -7.9477    3.4912   -1.4223 O   0  0  0  0  0  0  0  0  0  0  0  0
   -8.1652    4.5578   -2.3131 C   0  0  0  0  0  0  0  0  0  0  0  0
   -6.5242    1.9919   -0.3333 C   0  0  0  0  0  0  0  0  0  0  0  0
   -5.2785    1.4651   -0.0739 C   0  0  0  0  0  0  0  0  0  0  0  0
   -2.5830    0.1090   -0.7994 C   0  0  0  0  0  0  0  0  0  0  0  0
   -3.5231   -0.7154   -1.4675 C   0  0  0  0  0  0  0  0  0  0  0  0
   -2.9386   -1.9281   -1.6701 C   0  0  0  0  0  0  0  0  0  0  0  0
   -1.6236   -1.8659   -1.1450 C   0  0  0  0  0  0  0  0  0  0  0  0
   -1.4227   -0.6107   -0.6105 O   0  0  0  0  0  0  0  0  0  0  0  0
    5.2876   -0.6835    2.0146 C   0  0  0  0  0  0  0  0  0  0  0  0
    4.7611   -1.7723    1.4016 C   0  0  0  0  0  0  0  0  0  0  0  0
   -1.3974   -4.1770   -3.1964 C   0  0  0  0  0  0  0  0  0  0  0  0
   -1.7830   -5.3453   -3.8310 C   0  0  0  0  0  0  0  0  0  0  0  0
   -3.4033   -7.1645   -5.2740 H   0  0  0  0  0  0  0  0  0  0  0  0
   -2.8404   -8.8504   -5.1703 H   0  0  0  0  0  0  0  0  0  0  0  0
   -1.6902   -7.5594   -5.5953 H   0  0  0  0  0  0  0  0  0  0  0  0
   -1.7577   -7.4176   -1.1736 H   0  0  0  0  0  0  0  0  0  0  0  0
   -1.0622   -5.3286   -0.0482 H   0  0  0  0  0  0  0  0  0  0  0  0
    1.3777   -4.8843   -1.2552 H   0  0  0  0  0  0  0  0  0  0  0  0
    3.6145   -4.1102   -0.0447 H   0  0  0  0  0  0  0  0  0  0  0  0
    0.7853   -1.0289    0.2956 H   0  0  0  0  0  0  0  0  0  0  0  0
    5.5977    0.4630    4.5921 H   0  0  0  0  0  0  0  0  0  0  0  0
    7.6648    1.2128    5.7131 H   0  0  0  0  0  0  0  0  0  0  0  0
    7.8850    4.5577    3.0510 H   0  0  0  0  0  0  0  0  0  0  0  0
    5.8293    3.7889    1.9225 H   0  0  0  0  0  0  0  0  0  0  0  0
    3.8240    4.4359    3.3631 H   0  0  0  0  0  0  0  0  0  0  0  0
    1.3889    5.2068    2.6246 H   0  0  0  0  0  0  0  0  0  0  0  0
    2.0914    1.1929    1.3894 H   0  0  0  0  0  0  0  0  0  0  0  0
   -0.9490    5.0709    1.7324 H   0  0  0  0  0  0  0  0  0  0  0  0
   -3.1348    4.1016    0.5665 H   0  0  0  0  0  0  0  0  0  0  0  0
   -0.1409    1.1721    0.3828 H   0  0  0  0  0  0  0  0  0  0  0  0
   -3.4306    3.4297   -2.0943 H   0  0  0  0  0  0  0  0  0  0  0  0
   -5.6253    4.3725   -2.5727 H   0  0  0  0  0  0  0  0  0  0  0  0
   -7.8592    4.3002   -3.3323 H   0  0  0  0  0  0  0  0  0  0  0  0
   -7.6392    5.4632   -1.9932 H   0  0  0  0  0  0  0  0  0  0  0  0
   -9.2384    4.7414   -2.2962 H   0  0  0  0  0  0  0  0  0  0  0  0
   -7.4056    1.6064    0.1541 H   0  0  0  0  0  0  0  0  0  0  0  0
   -5.1745    0.6545    0.6320 H   0  0  0  0  0  0  0  0  0  0  0  0
   -4.5082   -0.4082   -1.7526 H   0  0  0  0  0  0  0  0  0  0  0  0
   -3.3693   -2.7929   -2.1311 H   0  0  0  0  0  0  0  0  0  0  0  0
    6.2834   -0.5574    2.3933 H   0  0  0  0  0  0  0  0  0  0  0  0
    5.2333   -2.7141    1.2024 H   0  0  0  0  0  0  0  0  0  0  0  0
   -1.2906   -3.2712   -3.7753 H   0  0  0  0  0  0  0  0  0  0  0  0
   -1.9731   -5.3249   -4.8926 H   0  0  0  0  0  0  0  0  0  0  0  0
  1  2  1  0  0  0  0
  2  3  1  0  0  0  0
  3  4  2  0  0  0  0
  4  5  1  0  0  0  0
  5  6  2  0  0  0  0
  6  7  1  0  0  0  0
  7  8  1  0  0  0  0
  8  9  2  0  0  0  0
  9 10  1  0  0  0  0
 10 11  2  0  0  0  0
 11 12  1  0  0  0  0
 11 13  1  0  0  0  0
 13 14  2  0  0  0  0
 14 15  1  0  0  0  0
 15 16  2  0  0  0  0
 16 17  1  0  0  0  0
 17 18  2  0  0  0  0
 18 19  1  0  0  0  0
 19 20  2  0  0  0  0
 20 21  1  0  0  0  0
 21 22  3  0  0  0  0
 20 23  1  0  0  0  0
 23 24  2  0  0  0  0
 16 25  1  0  0  0  0
 25 26  2  0  0  0  0
 26 27  1  0  0  0  0
 27 28  2  0  0  0  0
 28 29  1  0  0  0  0
 28 30  1  0  0  0  0
 30 31  2  0  0  0  0
 31 32  1  0  0  0  0
 32 33  2  0  0  0  0
 33 34  1  0  0  0  0
 33 35  1  0  0  0  0
 35 36  1  0  0  0  0
 36 37  2  0  0  0  0
 37 38  1  0  0  0  0
 38 39  2  0  0  0  0
 39 40  1  0  0  0  0
 40 41  1  0  0  0  0
 39 42  1  0  0  0  0
 42 43  2  0  0  0  0
 35 44  2  0  0  0  0
 44 45  1  0  0  0  0
 45 46  2  0  0  0  0
 46 47  1  0  0  0  0
 47 48  1  0  0  0  0
 15 49  1  0  0  0  0
 49 50  2  0  0  0  0
  6 51  1  0  0  0  0
 51 52  2  0  0  0  0
 52  3  1  0  0  0  0
 47  7  2  0  0  0  0
 12  8  1  0  0  0  0
 50 13  1  0  0  0  0
 24 17  1  0  0  0  0
 29 25  1  0  0  0  0
 34 30  1  0  0  0  0
 43 36  1  0  0  0  0
 48 44  1  0  0  0  0
  1 53  1  0  0  0  0
  1 54  1  0  0  0  0
  1 55  1  0  0  0  0
  4 56  1  0  0  0  0
  5 57  1  0  0  0  0
  9 58  1  0  0  0  0
 10 59  1  0  0  0  0
 12 60  1  0  0  0  0
 18 61  1  0  0  0  0
 19 62  1  0  0  0  0
 23 63  1  0  0  0  0
 24 64  1  0  0  0  0
 26 65  1  0  0  0  0
 27 66  1  0  0  0  0
 29 67  1  0  0  0  0
 31 68  1  0  0  0  0
 32 69  1  0  0  0  0
 34 70  1  0  0  0  0
 37 71  1  0  0  0  0
 38 72  1  0  0  0  0
 41 73  1  0  0  0  0
 41 74  1  0  0  0  0
 41 75  1  0  0  0  0
 42 76  1  0  0  0  0
 43 77  1  0  0  0  0
 45 78  1  0  0  0  0
 46 79  1  0  0  0  0
 49 80  1  0  0  0  0
 50 81  1  0  0  0  0
 51 82  1  0  0  0  0
 52 83  1  0  0  0  0
M  END
