
  xtb     03022213053D
 energy: -139.504884704787 gnorm: 0.000187529556 xtb: 6.4.1 (afa7bdf)
 97101  0     0  0            999 V2000
   -7.7608   -2.5510    1.6630 C   0  0  0  0  0  0  0  0  0  0  0  0
   -8.1137   -1.5083    0.6108 C   0  0  0  0  0  0  0  0  0  0  0  0
   -7.4163   -1.7873   -0.7296 C   0  0  0  0  0  0  0  0  0  0  0  0
   -5.9368   -1.6610   -0.6184 C   0  0  0  0  0  0  0  0  0  0  0  0
   -5.0237   -2.6619   -0.4980 C   0  0  0  0  0  0  0  0  0  0  0  0
   -3.7354   -2.0335   -0.3767 C   0  0  0  0  0  0  0  0  0  0  0  0
   -3.8670   -0.6978   -0.4202 N   0  0  0  0  0  0  0  0  0  0  0  0
   -5.1765   -0.4173   -0.5667 C   0  0  0  0  0  0  0  0  0  0  0  0
   -5.7364    0.8620   -0.6634 C   0  0  0  0  0  0  0  0  0  0  0  0
   -5.1575    2.1154   -0.6085 C   0  0  0  0  0  0  0  0  0  0  0  0
   -3.8198    2.4857   -0.4438 C   0  0  0  0  0  0  0  0  0  0  0  0
   -2.7814    1.6239   -0.3096 N   0  0  0  0  0  0  0  0  0  0  0  0
   -1.6238    2.3035   -0.1517 C   0  0  0  0  0  0  0  0  0  0  0  0
   -1.9346    3.6894   -0.1909 C   0  0  0  0  0  0  0  0  0  0  0  0
   -3.2878    3.8156   -0.3718 C   0  0  0  0  0  0  0  0  0  0  0  0
   -4.0582    5.0826   -0.5177 C   0  0  0  0  0  0  0  0  0  0  0  0
   -4.3258    5.4001   -1.9952 C   0  0  0  0  0  0  0  0  0  0  0  0
   -5.1193    6.6901   -2.1555 C   0  0  0  0  0  0  0  0  0  0  0  0
   -0.3698    1.6961    0.0179 C   0  0  0  0  0  0  0  0  0  0  0  0
   -0.1850    0.3645   -0.0002 N   0  0  0  0  0  0  0  0  0  0  0  0
    1.1307    0.1294    0.2019 C   0  0  0  0  0  0  0  0  0  0  0  0
    1.6700   -1.1735    0.2134 C   0  0  0  0  0  0  0  0  0  0  0  0
    3.0735   -1.2327    0.3252 O   0  0  0  0  0  0  0  0  0  0  0  0
    3.6375   -1.9801    1.2745 C   0  0  0  0  0  0  0  0  0  0  0  0
    3.0528   -2.6277    2.1006 O   0  0  0  0  0  0  0  0  0  0  0  0
    5.1597   -1.9307    1.1860 C   0  0  0  0  0  0  0  0  0  0  0  0
    5.6714   -1.2892    0.0090 N   0  0  0  0  0  0  0  0  0  0  0  0
    6.3633   -0.1182    0.0778 C   0  0  0  0  0  0  0  0  0  0  0  0
    6.7097    0.3933    1.1142 O   0  0  0  0  0  0  0  0  0  0  0  0
    6.6066    0.3224   -1.1645 O   0  0  0  0  0  0  0  0  0  0  0  0
    7.4082    1.5108   -1.3798 C   0  0  0  0  0  0  0  0  0  0  0  0
    8.8070    1.3193   -0.7951 C   0  0  0  0  0  0  0  0  0  0  0  0
    6.7206    2.7310   -0.7695 C   0  0  0  0  0  0  0  0  0  0  0  0
    7.4756    1.6394   -2.9020 C   0  0  0  0  0  0  0  0  0  0  0  0
    1.0626   -2.4104    0.0830 C   0  0  0  0  0  0  0  0  0  0  0  0
   -0.2757   -2.7835   -0.0309 C   0  0  0  0  0  0  0  0  0  0  0  0
   -1.3288   -1.9409   -0.1364 N   0  0  0  0  0  0  0  0  0  0  0  0
   -2.4821   -2.6442   -0.2359 C   0  0  0  0  0  0  0  0  0  0  0  0
   -2.1479   -4.0230   -0.1817 C   0  0  0  0  0  0  0  0  0  0  0  0
   -0.7856   -4.1237   -0.0607 C   0  0  0  0  0  0  0  0  0  0  0  0
    0.0214   -5.3663    0.0895 C   0  0  0  0  0  0  0  0  0  0  0  0
    0.4675   -5.5670    1.5454 C   0  0  0  0  0  0  0  0  0  0  0  0
    1.2973   -6.8341    1.7027 C   0  0  0  0  0  0  0  0  0  0  0  0
    1.8338    1.3965    0.3606 C   0  0  0  0  0  0  0  0  0  0  0  0
    3.2709    1.6699    0.6505 C   0  0  0  0  0  0  0  0  0  0  0  0
    3.4877    2.0641    2.1196 C   0  0  0  0  0  0  0  0  0  0  0  0
    3.0030    1.0004    3.0957 C   0  0  0  0  0  0  0  0  0  0  0  0
    0.8797    2.3615    0.2371 C   0  0  0  0  0  0  0  0  0  0  0  0
   -8.2653   -2.3313    2.6012 H   0  0  0  0  0  0  0  0  0  0  0  0
   -6.6882   -2.5614    1.8425 H   0  0  0  0  0  0  0  0  0  0  0  0
   -8.0639   -3.5429    1.3339 H   0  0  0  0  0  0  0  0  0  0  0  0
   -7.8228   -0.5195    0.9719 H   0  0  0  0  0  0  0  0  0  0  0  0
   -9.1945   -1.5044    0.4506 H   0  0  0  0  0  0  0  0  0  0  0  0
   -7.7939   -1.0903   -1.4825 H   0  0  0  0  0  0  0  0  0  0  0  0
   -7.6648   -2.8005   -1.0538 H   0  0  0  0  0  0  0  0  0  0  0  0
   -5.2032   -3.7193   -0.4942 H   0  0  0  0  0  0  0  0  0  0  0  0
   -6.8107    0.8628   -0.8005 H   0  0  0  0  0  0  0  0  0  0  0  0
   -5.8426    2.9484   -0.7019 H   0  0  0  0  0  0  0  0  0  0  0  0
   -2.9641    0.5863   -0.3262 H   0  0  0  0  0  0  0  0  0  0  0  0
   -1.2248    4.4874   -0.0938 H   0  0  0  0  0  0  0  0  0  0  0  0
   -5.0108    5.0069    0.0120 H   0  0  0  0  0  0  0  0  0  0  0  0
   -3.4895    5.9028   -0.0748 H   0  0  0  0  0  0  0  0  0  0  0  0
   -4.8735    4.5714   -2.4489 H   0  0  0  0  0  0  0  0  0  0  0  0
   -3.3705    5.4887   -2.5167 H   0  0  0  0  0  0  0  0  0  0  0  0
   -5.2954    6.9014   -3.2076 H   0  0  0  0  0  0  0  0  0  0  0  0
   -4.5774    7.5286   -1.7233 H   0  0  0  0  0  0  0  0  0  0  0  0
   -6.0826    6.6121   -1.6555 H   0  0  0  0  0  0  0  0  0  0  0  0
    5.5287   -2.9599    1.2700 H   0  0  0  0  0  0  0  0  0  0  0  0
    5.5385   -1.3655    2.0457 H   0  0  0  0  0  0  0  0  0  0  0  0
    5.3396   -1.5824   -0.8958 H   0  0  0  0  0  0  0  0  0  0  0  0
    9.4291    2.1729   -1.0488 H   0  0  0  0  0  0  0  0  0  0  0  0
    8.7531    1.2295    0.2862 H   0  0  0  0  0  0  0  0  0  0  0  0
    9.2615    0.4179   -1.2009 H   0  0  0  0  0  0  0  0  0  0  0  0
    7.3008    3.6239   -0.9845 H   0  0  0  0  0  0  0  0  0  0  0  0
    5.7246    2.8463   -1.1911 H   0  0  0  0  0  0  0  0  0  0  0  0
    6.6374    2.6141    0.3073 H   0  0  0  0  0  0  0  0  0  0  0  0
    7.9518    0.7615   -3.3303 H   0  0  0  0  0  0  0  0  0  0  0  0
    8.0464    2.5219   -3.1746 H   0  0  0  0  0  0  0  0  0  0  0  0
    6.4729    1.7232   -3.3126 H   0  0  0  0  0  0  0  0  0  0  0  0
    1.7483   -3.2472    0.0967 H   0  0  0  0  0  0  0  0  0  0  0  0
   -1.1517   -0.9066   -0.1226 H   0  0  0  0  0  0  0  0  0  0  0  0
   -2.8498   -4.8325   -0.2315 H   0  0  0  0  0  0  0  0  0  0  0  0
    0.9048   -5.3198   -0.5526 H   0  0  0  0  0  0  0  0  0  0  0  0
   -0.5773   -6.2244   -0.2235 H   0  0  0  0  0  0  0  0  0  0  0  0
    1.0514   -4.7052    1.8729 H   0  0  0  0  0  0  0  0  0  0  0  0
   -0.4186   -5.6269    2.1807 H   0  0  0  0  0  0  0  0  0  0  0  0
    1.6003   -6.9612    2.7390 H   0  0  0  0  0  0  0  0  0  0  0  0
    0.7260   -7.7099    1.4008 H   0  0  0  0  0  0  0  0  0  0  0  0
    2.1944   -6.7826    1.0891 H   0  0  0  0  0  0  0  0  0  0  0  0
    3.5934    2.5073    0.0249 H   0  0  0  0  0  0  0  0  0  0  0  0
    3.8927    0.8126    0.4085 H   0  0  0  0  0  0  0  0  0  0  0  0
    4.5544    2.2379    2.2747 H   0  0  0  0  0  0  0  0  0  0  0  0
    2.9572    2.9985    2.3175 H   0  0  0  0  0  0  0  0  0  0  0  0
    3.5542    0.0725    2.9643 H   0  0  0  0  0  0  0  0  0  0  0  0
    3.1472    1.3357    4.1205 H   0  0  0  0  0  0  0  0  0  0  0  0
    1.9444    0.7945    2.9486 H   0  0  0  0  0  0  0  0  0  0  0  0
    1.0213    3.4230    0.2941 H   0  0  0  0  0  0  0  0  0  0  0  0
  1  2  1  0  0  0  0
  2  3  1  0  0  0  0
  3  4  1  0  0  0  0
  4  5  2  0  0  0  0
  5  6  1  0  0  0  0
  6  7  2  0  0  0  0
  7  8  1  0  0  0  0
  8  9  2  0  0  0  0
  9 10  1  0  0  0  0
 10 11  2  0  0  0  0
 11 12  1  0  0  0  0
 12 13  1  0  0  0  0
 13 14  1  0  0  0  0
 14 15  2  0  0  0  0
 15 16  1  0  0  0  0
 16 17  1  0  0  0  0
 17 18  1  0  0  0  0
 13 19  2  0  0  0  0
 19 20  1  0  0  0  0
 20 21  2  0  0  0  0
 21 22  1  0  0  0  0
 22 23  1  0  0  0  0
 23 24  1  0  0  0  0
 24 25  2  0  0  0  0
 24 26  1  0  0  0  0
 26 27  1  0  0  0  0
 27 28  1  0  0  0  0
 28 29  2  0  0  0  0
 28 30  1  0  0  0  0
 30 31  1  0  0  0  0
 31 32  1  0  0  0  0
 31 33  1  0  0  0  0
 31 34  1  0  0  0  0
 22 35  2  0  0  0  0
 35 36  1  0  0  0  0
 36 37  1  0  0  0  0
 37 38  1  0  0  0  0
 38 39  2  0  0  0  0
 39 40  1  0  0  0  0
 40 41  1  0  0  0  0
 41 42  1  0  0  0  0
 42 43  1  0  0  0  0
 21 44  1  0  0  0  0
 44 45  1  0  0  0  0
 45 46  1  0  0  0  0
 46 47  1  0  0  0  0
 44 48  2  0  0  0  0
  8  4  1  0  0  0  0
 15 11  1  0  0  0  0
 48 19  1  0  0  0  0
 38  6  1  0  0  0  0
 40 36  2  0  0  0  0
  1 49  1  0  0  0  0
  1 50  1  0  0  0  0
  1 51  1  0  0  0  0
  2 52  1  0  0  0  0
  2 53  1  0  0  0  0
  3 54  1  0  0  0  0
  3 55  1  0  0  0  0
  5 56  1  0  0  0  0
  9 57  1  0  0  0  0
 10 58  1  0  0  0  0
 12 59  1  0  0  0  0
 14 60  1  0  0  0  0
 16 61  1  0  0  0  0
 16 62  1  0  0  0  0
 17 63  1  0  0  0  0
 17 64  1  0  0  0  0
 18 65  1  0  0  0  0
 18 66  1  0  0  0  0
 18 67  1  0  0  0  0
 26 68  1  0  0  0  0
 26 69  1  0  0  0  0
 27 70  1  0  0  0  0
 32 71  1  0  0  0  0
 32 72  1  0  0  0  0
 32 73  1  0  0  0  0
 33 74  1  0  0  0  0
 33 75  1  0  0  0  0
 33 76  1  0  0  0  0
 34 77  1  0  0  0  0
 34 78  1  0  0  0  0
 34 79  1  0  0  0  0
 35 80  1  0  0  0  0
 37 81  1  0  0  0  0
 39 82  1  0  0  0  0
 41 83  1  0  0  0  0
 41 84  1  0  0  0  0
 42 85  1  0  0  0  0
 42 86  1  0  0  0  0
 43 87  1  0  0  0  0
 43 88  1  0  0  0  0
 43 89  1  0  0  0  0
 45 90  1  0  0  0  0
 45 91  1  0  0  0  0
 46 92  1  0  0  0  0
 46 93  1  0  0  0  0
 47 94  1  0  0  0  0
 47 95  1  0  0  0  0
 47 96  1  0  0  0  0
 48 97  1  0  0  0  0
M  END
