
  xtb     03022214473D
 energy: -36.048268661306 gnorm: 0.000150035117 xtb: 6.4.1 (afa7bdf)
 26 27  0     0  0            999 V2000
    0.4704    0.3608    0.5347 C   0  0  0  0  0  0  0  0  0  0  0  0
   -0.4703   -0.3600   -0.0921 C   0  0  0  0  0  0  0  0  0  0  0  0
   -1.9074   -0.1935    0.0229 C   0  0  0  0  0  0  0  0  0  0  0  0
   -2.7405   -1.0436   -0.7113 C   0  0  0  0  0  0  0  0  0  0  0  0
   -4.1150   -0.9331   -0.6426 C   0  0  0  0  0  0  0  0  0  0  0  0
   -4.6947    0.0323    0.1638 C   0  0  0  0  0  0  0  0  0  0  0  0
   -3.8851    0.8836    0.8986 C   0  0  0  0  0  0  0  0  0  0  0  0
   -2.5104    0.7743    0.8309 C   0  0  0  0  0  0  0  0  0  0  0  0
    1.9075    0.1939    0.4194 C   0  0  0  0  0  0  0  0  0  0  0  0
    2.5099   -0.7740   -0.3888 C   0  0  0  0  0  0  0  0  0  0  0  0
    3.8845   -0.8837   -0.4569 C   0  0  0  0  0  0  0  0  0  0  0  0
    4.6947   -0.0328    0.2778 C   0  0  0  0  0  0  0  0  0  0  0  0
    4.1154    0.9326    1.0844 C   0  0  0  0  0  0  0  0  0  0  0  0
    2.7410    1.0436    1.1535 C   0  0  0  0  0  0  0  0  0  0  0  0
    0.1706    1.1572    1.2032 H   0  0  0  0  0  0  0  0  0  0  0  0
   -0.1703   -1.1565   -0.7606 H   0  0  0  0  0  0  0  0  0  0  0  0
   -2.2964   -1.8001   -1.3434 H   0  0  0  0  0  0  0  0  0  0  0  0
   -4.7382   -1.6014   -1.2192 H   0  0  0  0  0  0  0  0  0  0  0  0
   -5.7695    0.1213    0.2197 H   0  0  0  0  0  0  0  0  0  0  0  0
   -4.3313    1.6389    1.5295 H   0  0  0  0  0  0  0  0  0  0  0  0
   -1.9008    1.4487    1.4123 H   0  0  0  0  0  0  0  0  0  0  0  0
    1.9000   -1.4480   -0.9703 H   0  0  0  0  0  0  0  0  0  0  0  0
    4.3303   -1.6391   -1.0881 H   0  0  0  0  0  0  0  0  0  0  0  0
    5.7694   -0.1222    0.2215 H   0  0  0  0  0  0  0  0  0  0  0  0
    4.7390    1.6006    1.6609 H   0  0  0  0  0  0  0  0  0  0  0  0
    2.2974    1.8002    1.7858 H   0  0  0  0  0  0  0  0  0  0  0  0
  1  2  2  0  0  0  0
  2  3  1  0  0  0  0
  3  4  2  0  0  0  0
  4  5  1  0  0  0  0
  5  6  2  0  0  0  0
  6  7  1  0  0  0  0
  7  8  2  0  0  0  0
  1  9  1  0  0  0  0
  9 10  2  0  0  0  0
 10 11  1  0  0  0  0
 11 12  2  0  0  0  0
 12 13  1  0  0  0  0
 13 14  2  0  0  0  0
  8  3  1  0  0  0  0
 14  9  1  0  0  0  0
  1 15  1  0  0  0  0
  2 16  1  0  0  0  0
  4 17  1  0  0  0  0
  5 18  1  0  0  0  0
  6 19  1  0  0  0  0
  7 20  1  0  0  0  0
  8 21  1  0  0  0  0
 10 22  1  0  0  0  0
 11 23  1  0  0  0  0
 12 24  1  0  0  0  0
 13 25  1  0  0  0  0
 14 26  1  0  0  0  0
M  END
