
  xtb     03022214043D
 energy: -79.047209956581 gnorm: 0.000089900260 xtb: 6.4.1 (afa7bdf)
 56 59  0     0  0            999 V2000
   -5.3810   -5.6162   -0.1442 C   0  0  0  0  0  0  0  0  0  0  0  0
   -4.5821   -4.3490   -0.1512 C   0  0  0  0  0  0  0  0  0  0  0  0
   -5.1713   -3.1301   -0.4651 C   0  0  0  0  0  0  0  0  0  0  0  0
   -4.4350   -1.9634   -0.4508 C   0  0  0  0  0  0  0  0  0  0  0  0
   -3.0763   -1.9661   -0.1207 C   0  0  0  0  0  0  0  0  0  0  0  0
   -2.3497   -0.7150   -0.1265 C   0  0  0  0  0  0  0  0  0  0  0  0
   -1.0451   -0.5435    0.1426 C   0  0  0  0  0  0  0  0  0  0  0  0
   -0.4155    0.7454    0.1308 C   0  0  0  0  0  0  0  0  0  0  0  0
   -1.1399    1.8949    0.0900 N   0  0  0  0  0  0  0  0  0  0  0  0
   -0.2915    2.8944    0.1747 C   0  0  0  0  0  0  0  0  0  0  0  0
   -0.6631    4.2918    0.1623 C   0  0  0  0  0  0  0  0  0  0  0  0
    0.2734    5.3213    0.2518 C   0  0  0  0  0  0  0  0  0  0  0  0
   -0.1345    6.6410    0.2330 C   0  0  0  0  0  0  0  0  0  0  0  0
   -1.4785    6.9754    0.1257 C   0  0  0  0  0  0  0  0  0  0  0  0
   -1.9161    8.4070    0.0826 C   0  0  0  0  0  0  0  0  0  0  0  0
   -2.4115    5.9459    0.0376 C   0  0  0  0  0  0  0  0  0  0  0  0
   -2.0153    4.6265    0.0553 C   0  0  0  0  0  0  0  0  0  0  0  0
    0.9868    2.4291    0.2779 N   0  0  0  0  0  0  0  0  0  0  0  0
    0.9477    1.0570    0.2340 C   0  0  0  0  0  0  0  0  0  0  0  0
    2.1454    0.2826    0.2919 C   0  0  0  0  0  0  0  0  0  0  0  0
    2.2786   -0.9896   -0.1267 C   0  0  0  0  0  0  0  0  0  0  0  0
    3.4785   -1.7942   -0.0582 C   0  0  0  0  0  0  0  0  0  0  0  0
    4.6378   -1.4011    0.6182 C   0  0  0  0  0  0  0  0  0  0  0  0
    5.7509   -2.2136    0.6479 C   0  0  0  0  0  0  0  0  0  0  0  0
    5.7587   -3.4500    0.0094 C   0  0  0  0  0  0  0  0  0  0  0  0
    6.9826   -4.3126    0.0384 C   0  0  0  0  0  0  0  0  0  0  0  0
    4.6085   -3.8497   -0.6596 C   0  0  0  0  0  0  0  0  0  0  0  0
    3.4910   -3.0412   -0.6911 C   0  0  0  0  0  0  0  0  0  0  0  0
   -2.4908   -3.1959    0.1955 C   0  0  0  0  0  0  0  0  0  0  0  0
   -3.2310   -4.3593    0.1793 C   0  0  0  0  0  0  0  0  0  0  0  0
   -5.7264   -5.8338    0.8675 H   0  0  0  0  0  0  0  0  0  0  0  0
   -4.7769   -6.4571   -0.4787 H   0  0  0  0  0  0  0  0  0  0  0  0
   -6.2538   -5.5298   -0.7874 H   0  0  0  0  0  0  0  0  0  0  0  0
   -6.2204   -3.0982   -0.7250 H   0  0  0  0  0  0  0  0  0  0  0  0
   -4.9128   -1.0263   -0.7000 H   0  0  0  0  0  0  0  0  0  0  0  0
   -2.9222    0.1663   -0.3828 H   0  0  0  0  0  0  0  0  0  0  0  0
   -0.4107   -1.3753    0.4090 H   0  0  0  0  0  0  0  0  0  0  0  0
    1.3287    5.1030    0.3376 H   0  0  0  0  0  0  0  0  0  0  0  0
    0.6049    7.4265    0.3037 H   0  0  0  0  0  0  0  0  0  0  0  0
   -2.8501    8.5416    0.6242 H   0  0  0  0  0  0  0  0  0  0  0  0
   -1.1603    9.0598    0.5129 H   0  0  0  0  0  0  0  0  0  0  0  0
   -2.0820    8.7145   -0.9506 H   0  0  0  0  0  0  0  0  0  0  0  0
   -3.4613    6.1893   -0.0449 H   0  0  0  0  0  0  0  0  0  0  0  0
   -2.7329    3.8246   -0.0104 H   0  0  0  0  0  0  0  0  0  0  0  0
    1.8267    2.9794    0.3438 H   0  0  0  0  0  0  0  0  0  0  0  0
    3.0068    0.8121    0.6818 H   0  0  0  0  0  0  0  0  0  0  0  0
    1.4326   -1.4722   -0.5956 H   0  0  0  0  0  0  0  0  0  0  0  0
    4.6664   -0.4543    1.1361 H   0  0  0  0  0  0  0  0  0  0  0  0
    6.6348   -1.8886    1.1793 H   0  0  0  0  0  0  0  0  0  0  0  0
    6.7541   -5.3246   -0.2870 H   0  0  0  0  0  0  0  0  0  0  0  0
    7.7450   -3.9037   -0.6256 H   0  0  0  0  0  0  0  0  0  0  0  0
    7.4026   -4.3514    1.0420 H   0  0  0  0  0  0  0  0  0  0  0  0
    4.5886   -4.8079   -1.1597 H   0  0  0  0  0  0  0  0  0  0  0  0
    2.6068   -3.3733   -1.2173 H   0  0  0  0  0  0  0  0  0  0  0  0
   -1.4449   -3.2437    0.4581 H   0  0  0  0  0  0  0  0  0  0  0  0
   -2.7547   -5.2981    0.4270 H   0  0  0  0  0  0  0  0  0  0  0  0
  1  2  1  0  0  0  0
  2  3  2  0  0  0  0
  3  4  1  0  0  0  0
  4  5  2  0  0  0  0
  5  6  1  0  0  0  0
  6  7  2  0  0  0  0
  7  8  1  0  0  0  0
  8  9  1  0  0  0  0
  9 10  2  0  0  0  0
 10 11  1  0  0  0  0
 11 12  2  0  0  0  0
 12 13  1  0  0  0  0
 13 14  2  0  0  0  0
 14 15  1  0  0  0  0
 14 16  1  0  0  0  0
 16 17  2  0  0  0  0
 10 18  1  0  0  0  0
 18 19  1  0  0  0  0
 19 20  1  0  0  0  0
 20 21  2  0  0  0  0
 21 22  1  0  0  0  0
 22 23  2  0  0  0  0
 23 24  1  0  0  0  0
 24 25  2  0  0  0  0
 25 26  1  0  0  0  0
 25 27  1  0  0  0  0
 27 28  2  0  0  0  0
  5 29  1  0  0  0  0
 29 30  2  0  0  0  0
 30  2  1  0  0  0  0
 19  8  2  0  0  0  0
 28 22  1  0  0  0  0
 17 11  1  0  0  0  0
  1 31  1  0  0  0  0
  1 32  1  0  0  0  0
  1 33  1  0  0  0  0
  3 34  1  0  0  0  0
  4 35  1  0  0  0  0
  6 36  1  0  0  0  0
  7 37  1  0  0  0  0
 12 38  1  0  0  0  0
 13 39  1  0  0  0  0
 15 40  1  0  0  0  0
 15 41  1  0  0  0  0
 15 42  1  0  0  0  0
 16 43  1  0  0  0  0
 17 44  1  0  0  0  0
 18 45  1  0  0  0  0
 20 46  1  0  0  0  0
 21 47  1  0  0  0  0
 23 48  1  0  0  0  0
 24 49  1  0  0  0  0
 26 50  1  0  0  0  0
 26 51  1  0  0  0  0
 26 52  1  0  0  0  0
 27 53  1  0  0  0  0
 28 54  1  0  0  0  0
 29 55  1  0  0  0  0
 30 56  1  0  0  0  0
M  END
