
  xtb     03022214363D
 energy: -129.770586691036 gnorm: 0.000194444519 xtb: 6.4.1 (afa7bdf)
 85 91  0     0  0            999 V2000
   -2.0412   -3.7072   -4.9510 C   0  0  0  0  0  0  0  0  0  0  0  0
   -2.2650   -3.0722   -3.6117 C   0  0  0  0  0  0  0  0  0  0  0  0
   -2.8337   -1.8122   -3.4968 C   0  0  0  0  0  0  0  0  0  0  0  0
   -3.0276   -1.2281   -2.2572 C   0  0  0  0  0  0  0  0  0  0  0  0
   -2.6648   -1.8918   -1.0929 C   0  0  0  0  0  0  0  0  0  0  0  0
   -2.8210   -1.2703    0.2722 C   0  0  0  0  0  0  0  0  0  0  0  0
   -4.1076   -0.4654    0.4305 C   0  0  0  0  0  0  0  0  0  0  0  0
   -4.3053   -0.0204    1.8882 C   0  0  0  0  0  0  0  0  0  0  0  0
   -4.9717   -1.0164    2.6506 O   0  0  0  0  0  0  0  0  0  0  0  0
   -5.0955    1.2802    1.9634 C   0  0  0  0  0  0  0  0  0  0  0  0
   -5.5922    1.7026    3.1942 C   0  0  0  0  0  0  0  0  0  0  0  0
   -6.2742    2.9026    3.2627 C   0  0  0  0  0  0  0  0  0  0  0  0
   -6.4472    3.6399    2.1009 C   0  0  0  0  0  0  0  0  0  0  0  0
   -5.9368    3.1223    0.9231 C   0  0  0  0  0  0  0  0  0  0  0  0
   -5.2818    1.9766    0.8516 N   0  0  0  0  0  0  0  0  0  0  0  0
   -2.9434    0.1705    2.5803 C   0  0  0  0  0  0  0  0  0  0  0  0
   -1.8532    0.6770    1.6257 C   0  0  0  0  0  0  0  0  0  0  0  0
   -0.6470    0.8760    2.3533 O   0  0  0  0  0  0  0  0  0  0  0  0
   -2.2689    2.0424    1.0881 C   0  0  0  0  0  0  0  0  0  0  0  0
   -2.4187    2.3893   -0.2482 C   0  0  0  0  0  0  0  0  0  0  0  0
   -2.7916    3.6860   -0.5626 C   0  0  0  0  0  0  0  0  0  0  0  0
   -3.0010    4.5969    0.4583 C   0  0  0  0  0  0  0  0  0  0  0  0
   -2.8006    4.1635    1.7588 C   0  0  0  0  0  0  0  0  0  0  0  0
   -2.4395    2.9329    2.0633 N   0  0  0  0  0  0  0  0  0  0  0  0
   -1.5713   -0.4106    0.5667 C   0  0  0  0  0  0  0  0  0  0  0  0
   -0.4719   -1.3176    1.1310 C   0  0  0  0  0  0  0  0  0  0  0  0
   -0.7490   -2.2470    1.8586 O   0  0  0  0  0  0  0  0  0  0  0  0
    0.9190   -1.0453    0.7277 C   0  0  0  0  0  0  0  0  0  0  0  0
    1.8643   -2.0502    0.9546 C   0  0  0  0  0  0  0  0  0  0  0  0
    3.1857   -1.8803    0.6164 C   0  0  0  0  0  0  0  0  0  0  0  0
    3.6165   -0.6789    0.0451 C   0  0  0  0  0  0  0  0  0  0  0  0
    4.9522   -0.4945   -0.2950 N   0  0  0  0  0  0  0  0  0  0  0  0
    5.5450    0.7727   -0.1996 C   0  0  0  0  0  0  0  0  0  0  0  0
    6.4708    1.1877   -1.1558 C   0  0  0  0  0  0  0  0  0  0  0  0
    7.0672    2.4296   -1.0531 C   0  0  0  0  0  0  0  0  0  0  0  0
    6.7463    3.2770   -0.0054 C   0  0  0  0  0  0  0  0  0  0  0  0
    5.8243    2.8699    0.9452 C   0  0  0  0  0  0  0  0  0  0  0  0
    5.2288    1.6267    0.8562 C   0  0  0  0  0  0  0  0  0  0  0  0
    5.7318   -1.5812   -0.7183 C   0  0  0  0  0  0  0  0  0  0  0  0
    5.1937   -2.5511   -1.5632 C   0  0  0  0  0  0  0  0  0  0  0  0
    5.9677   -3.6175   -1.9778 C   0  0  0  0  0  0  0  0  0  0  0  0
    7.2861   -3.7294   -1.5675 C   0  0  0  0  0  0  0  0  0  0  0  0
    7.8267   -2.7646   -0.7335 C   0  0  0  0  0  0  0  0  0  0  0  0
    7.0584   -1.6988   -0.3067 C   0  0  0  0  0  0  0  0  0  0  0  0
    2.6775    0.3346   -0.1708 C   0  0  0  0  0  0  0  0  0  0  0  0
    1.3532    0.1531    0.1610 C   0  0  0  0  0  0  0  0  0  0  0  0
   -2.0916   -3.1535   -1.2089 C   0  0  0  0  0  0  0  0  0  0  0  0
   -1.8941   -3.7336   -2.4467 C   0  0  0  0  0  0  0  0  0  0  0  0
   -2.3990   -4.7353   -4.9521 H   0  0  0  0  0  0  0  0  0  0  0  0
   -2.5553   -3.1563   -5.7348 H   0  0  0  0  0  0  0  0  0  0  0  0
   -0.9766   -3.7254   -5.1853 H   0  0  0  0  0  0  0  0  0  0  0  0
   -3.1309   -1.2779   -4.3887 H   0  0  0  0  0  0  0  0  0  0  0  0
   -3.4772   -0.2475   -2.2059 H   0  0  0  0  0  0  0  0  0  0  0  0
   -2.8419   -2.0779    1.0124 H   0  0  0  0  0  0  0  0  0  0  0  0
   -4.1036    0.4239   -0.1955 H   0  0  0  0  0  0  0  0  0  0  0  0
   -4.9574   -1.0830    0.1275 H   0  0  0  0  0  0  0  0  0  0  0  0
   -5.8121   -1.2250    2.2274 H   0  0  0  0  0  0  0  0  0  0  0  0
   -5.4402    1.0875    4.0674 H   0  0  0  0  0  0  0  0  0  0  0  0
   -6.6640    3.2596    4.2052 H   0  0  0  0  0  0  0  0  0  0  0  0
   -6.9679    4.5848    2.1084 H   0  0  0  0  0  0  0  0  0  0  0  0
   -6.0557    3.6438   -0.0184 H   0  0  0  0  0  0  0  0  0  0  0  0
   -3.0433    0.8728    3.4089 H   0  0  0  0  0  0  0  0  0  0  0  0
   -2.6290   -0.7937    2.9826 H   0  0  0  0  0  0  0  0  0  0  0  0
   -0.8212    1.5792    2.9935 H   0  0  0  0  0  0  0  0  0  0  0  0
   -2.2536    1.6750   -1.0380 H   0  0  0  0  0  0  0  0  0  0  0  0
   -2.9197    3.9781   -1.5951 H   0  0  0  0  0  0  0  0  0  0  0  0
   -3.3028    5.6122    0.2542 H   0  0  0  0  0  0  0  0  0  0  0  0
   -2.9325    4.8297    2.6022 H   0  0  0  0  0  0  0  0  0  0  0  0
   -1.2077    0.0398   -0.3566 H   0  0  0  0  0  0  0  0  0  0  0  0
    1.5317   -2.9695    1.4127 H   0  0  0  0  0  0  0  0  0  0  0  0
    3.9018   -2.6664    0.8053 H   0  0  0  0  0  0  0  0  0  0  0  0
    6.7169    0.5306   -1.9771 H   0  0  0  0  0  0  0  0  0  0  0  0
    7.7822    2.7401   -1.8008 H   0  0  0  0  0  0  0  0  0  0  0  0
    7.2126    4.2476    0.0705 H   0  0  0  0  0  0  0  0  0  0  0  0
    5.5733    3.5217    1.7690 H   0  0  0  0  0  0  0  0  0  0  0  0
    4.5190    1.3064    1.6047 H   0  0  0  0  0  0  0  0  0  0  0  0
    4.1687   -2.4597   -1.8915 H   0  0  0  0  0  0  0  0  0  0  0  0
    5.5400   -4.3621   -2.6329 H   0  0  0  0  0  0  0  0  0  0  0  0
    7.8883   -4.5629   -1.8957 H   0  0  0  0  0  0  0  0  0  0  0  0
    8.8524   -2.8463   -0.4052 H   0  0  0  0  0  0  0  0  0  0  0  0
    7.4786   -0.9517    0.3507 H   0  0  0  0  0  0  0  0  0  0  0  0
    2.9999    1.2678   -0.6095 H   0  0  0  0  0  0  0  0  0  0  0  0
    0.6634    0.9665    0.0033 H   0  0  0  0  0  0  0  0  0  0  0  0
   -1.7967   -3.6831   -0.3149 H   0  0  0  0  0  0  0  0  0  0  0  0
   -1.4491   -4.7164   -2.5132 H   0  0  0  0  0  0  0  0  0  0  0  0
  1  2  1  0  0  0  0
  2  3  2  0  0  0  0
  3  4  1  0  0  0  0
  4  5  2  0  0  0  0
  5  6  1  0  0  0  0
  6  7  1  0  0  0  0
  7  8  1  0  0  0  0
  8  9  1  0  0  0  0
  8 10  1  0  0  0  0
 10 11  2  0  0  0  0
 11 12  1  0  0  0  0
 12 13  2  0  0  0  0
 13 14  1  0  0  0  0
 14 15  2  0  0  0  0
  8 16  1  0  0  0  0
 16 17  1  0  0  0  0
 17 18  1  0  0  0  0
 17 19  1  0  0  0  0
 19 20  2  0  0  0  0
 20 21  1  0  0  0  0
 21 22  2  0  0  0  0
 22 23  1  0  0  0  0
 23 24  2  0  0  0  0
 17 25  1  0  0  0  0
 25 26  1  0  0  0  0
 26 27  2  0  0  0  0
 26 28  1  0  0  0  0
 28 29  2  0  0  0  0
 29 30  1  0  0  0  0
 30 31  2  0  0  0  0
 31 32  1  0  0  0  0
 32 33  1  0  0  0  0
 33 34  2  0  0  0  0
 34 35  1  0  0  0  0
 35 36  2  0  0  0  0
 36 37  1  0  0  0  0
 37 38  2  0  0  0  0
 32 39  1  0  0  0  0
 39 40  2  0  0  0  0
 40 41  1  0  0  0  0
 41 42  2  0  0  0  0
 42 43  1  0  0  0  0
 43 44  2  0  0  0  0
 31 45  1  0  0  0  0
 45 46  2  0  0  0  0
  5 47  1  0  0  0  0
 47 48  2  0  0  0  0
 48  2  1  0  0  0  0
 25  6  1  0  0  0  0
 46 28  1  0  0  0  0
 15 10  1  0  0  0  0
 24 19  1  0  0  0  0
 38 33  1  0  0  0  0
 44 39  1  0  0  0  0
  1 49  1  0  0  0  0
  1 50  1  0  0  0  0
  1 51  1  0  0  0  0
  3 52  1  0  0  0  0
  4 53  1  0  0  0  0
  6 54  1  0  0  0  0
  7 55  1  0  0  0  0
  7 56  1  0  0  0  0
  9 57  1  0  0  0  0
 11 58  1  0  0  0  0
 12 59  1  0  0  0  0
 13 60  1  0  0  0  0
 14 61  1  0  0  0  0
 16 62  1  0  0  0  0
 16 63  1  0  0  0  0
 18 64  1  0  0  0  0
 20 65  1  0  0  0  0
 21 66  1  0  0  0  0
 22 67  1  0  0  0  0
 23 68  1  0  0  0  0
 25 69  1  0  0  0  0
 29 70  1  0  0  0  0
 30 71  1  0  0  0  0
 34 72  1  0  0  0  0
 35 73  1  0  0  0  0
 36 74  1  0  0  0  0
 37 75  1  0  0  0  0
 38 76  1  0  0  0  0
 40 77  1  0  0  0  0
 41 78  1  0  0  0  0
 42 79  1  0  0  0  0
 43 80  1  0  0  0  0
 44 81  1  0  0  0  0
 45 82  1  0  0  0  0
 46 83  1  0  0  0  0
 47 84  1  0  0  0  0
 48 85  1  0  0  0  0
M  END
