
  xtb     03022215063D
 energy: -65.545925631798 gnorm: 0.000074348201 xtb: 6.4.1 (afa7bdf)
 37 40  0     0  0            999 V2000
   -7.5049   -0.7957    1.8925 C   0  0  0  0  0  0  0  0  0  0  0  0
   -6.1761   -0.4124    2.2130 O   0  0  0  0  0  0  0  0  0  0  0  0
   -5.2688   -0.5947    1.2781 C   0  0  0  0  0  0  0  0  0  0  0  0
   -5.6451   -1.1199    0.1047 N   0  0  0  0  0  0  0  0  0  0  0  0
   -4.6646   -1.2605   -0.7593 C   0  0  0  0  0  0  0  0  0  0  0  0
   -5.0754   -1.9229   -2.2717 Cl  0  0  0  0  0  0  0  0  0  0  0  0
   -3.4048   -0.9466   -0.5845 N   0  0  0  0  0  0  0  0  0  0  0  0
   -3.1215   -0.4278    0.6193 C   0  0  0  0  0  0  0  0  0  0  0  0
   -1.8758   -0.0572    0.9488 N   0  0  0  0  0  0  0  0  0  0  0  0
   -0.6768   -0.0957    0.2376 C   0  0  0  0  0  0  0  0  0  0  0  0
   -0.6011   -0.5917   -1.0885 C   0  0  0  0  0  0  0  0  0  0  0  0
    0.5904   -0.6094   -1.7422 C   0  0  0  0  0  0  0  0  0  0  0  0
    1.7823   -0.1403   -1.1330 C   0  0  0  0  0  0  0  0  0  0  0  0
    3.0082   -0.1520   -1.7893 C   0  0  0  0  0  0  0  0  0  0  0  0
    4.1682    0.3131   -1.1745 C   0  0  0  0  0  0  0  0  0  0  0  0
    5.4244    0.3071   -1.8320 C   0  0  0  0  0  0  0  0  0  0  0  0
    6.5426    0.7678   -1.2075 C   0  0  0  0  0  0  0  0  0  0  0  0
    6.4713    1.2622    0.1124 C   0  0  0  0  0  0  0  0  0  0  0  0
    5.2842    1.2848    0.7777 C   0  0  0  0  0  0  0  0  0  0  0  0
    4.0953    0.8142    0.1634 C   0  0  0  0  0  0  0  0  0  0  0  0
    2.8680    0.8258    0.8203 C   0  0  0  0  0  0  0  0  0  0  0  0
    1.7079    0.3606    0.2050 C   0  0  0  0  0  0  0  0  0  0  0  0
    0.4545    0.3664    0.8598 C   0  0  0  0  0  0  0  0  0  0  0  0
   -4.0352   -0.2370    1.5801 N   0  0  0  0  0  0  0  0  0  0  0  0
   -7.8711   -0.2324    1.0324 H   0  0  0  0  0  0  0  0  0  0  0  0
   -7.5526   -1.8608    1.6593 H   0  0  0  0  0  0  0  0  0  0  0  0
   -8.0964   -0.5709    2.7770 H   0  0  0  0  0  0  0  0  0  0  0  0
   -1.8188    0.3160    1.8891 H   0  0  0  0  0  0  0  0  0  0  0  0
   -1.5013   -0.9492   -1.5571 H   0  0  0  0  0  0  0  0  0  0  0  0
    0.6464   -0.9877   -2.7525 H   0  0  0  0  0  0  0  0  0  0  0  0
    3.0620   -0.5310   -2.8006 H   0  0  0  0  0  0  0  0  0  0  0  0
    5.4725   -0.0728   -2.8427 H   0  0  0  0  0  0  0  0  0  0  0  0
    7.4962    0.7600   -1.7149 H   0  0  0  0  0  0  0  0  0  0  0  0
    7.3721    1.6225    0.5875 H   0  0  0  0  0  0  0  0  0  0  0  0
    5.2246    1.6625    1.7886 H   0  0  0  0  0  0  0  0  0  0  0  0
    2.8147    1.2049    1.8317 H   0  0  0  0  0  0  0  0  0  0  0  0
    0.4043    0.7462    1.8713 H   0  0  0  0  0  0  0  0  0  0  0  0
  1  2  1  0  0  0  0
  2  3  1  0  0  0  0
  3  4  2  0  0  0  0
  4  5  1  0  0  0  0
  5  6  1  0  0  0  0
  5  7  2  0  0  0  0
  7  8  1  0  0  0  0
  8  9  1  0  0  0  0
  9 10  1  0  0  0  0
 10 11  2  0  0  0  0
 11 12  1  0  0  0  0
 12 13  2  0  0  0  0
 13 14  1  0  0  0  0
 14 15  2  0  0  0  0
 15 16  1  0  0  0  0
 16 17  2  0  0  0  0
 17 18  1  0  0  0  0
 18 19  2  0  0  0  0
 19 20  1  0  0  0  0
 20 21  2  0  0  0  0
 21 22  1  0  0  0  0
 22 23  2  0  0  0  0
  8 24  2  0  0  0  0
 24  3  1  0  0  0  0
 23 10  1  0  0  0  0
 22 13  1  0  0  0  0
 20 15  1  0  0  0  0
  1 25  1  0  0  0  0
  1 26  1  0  0  0  0
  1 27  1  0  0  0  0
  9 28  1  0  0  0  0
 11 29  1  0  0  0  0
 12 30  1  0  0  0  0
 14 31  1  0  0  0  0
 16 32  1  0  0  0  0
 17 33  1  0  0  0  0
 18 34  1  0  0  0  0
 19 35  1  0  0  0  0
 21 36  1  0  0  0  0
 23 37  1  0  0  0  0
M  END
