
  xtb     03022214203D
 energy: -23.115698078443 gnorm: 0.000244480832 xtb: 6.4.1 (afa7bdf)
 16 16  0     0  0            999 V2000
   -2.4712    0.0957    0.0860 C   0  0  0  0  0  0  0  0  0  0  0  0
   -0.9764    0.0223   -0.0017 C   0  0  0  0  0  0  0  0  0  0  0  0
   -0.2338    1.1614   -0.2901 C   0  0  0  0  0  0  0  0  0  0  0  0
    1.1452    1.1140   -0.3591 C   0  0  0  0  0  0  0  0  0  0  0  0
    1.8094   -0.0862   -0.1406 C   0  0  0  0  0  0  0  0  0  0  0  0
    3.1865   -0.1513   -0.2646 O   0  0  0  0  0  0  0  0  0  0  0  0
    1.0790   -1.2307    0.1464 C   0  0  0  0  0  0  0  0  0  0  0  0
   -0.3012   -1.1712    0.2131 C   0  0  0  0  0  0  0  0  0  0  0  0
   -2.8788    0.6425   -0.7622 H   0  0  0  0  0  0  0  0  0  0  0  0
   -2.9095   -0.8988    0.1060 H   0  0  0  0  0  0  0  0  0  0  0  0
   -2.7685    0.6201    0.9944 H   0  0  0  0  0  0  0  0  0  0  0  0
   -0.7437    2.0983   -0.4639 H   0  0  0  0  0  0  0  0  0  0  0  0
    1.7178    1.9998   -0.5903 H   0  0  0  0  0  0  0  0  0  0  0  0
    3.6060    0.0160    0.5847 H   0  0  0  0  0  0  0  0  0  0  0  0
    1.5994   -2.1631    0.3074 H   0  0  0  0  0  0  0  0  0  0  0  0
   -0.8602   -2.0692    0.4347 H   0  0  0  0  0  0  0  0  0  0  0  0
  1  2  1  0  0  0  0
  2  3  2  0  0  0  0
  3  4  1  0  0  0  0
  4  5  2  0  0  0  0
  5  6  1  0  0  0  0
  5  7  1  0  0  0  0
  7  8  2  0  0  0  0
  8  2  1  0  0  0  0
  1  9  1  0  0  0  0
  1 10  1  0  0  0  0
  1 11  1  0  0  0  0
  3 12  1  0  0  0  0
  4 13  1  0  0  0  0
  6 14  1  0  0  0  0
  7 15  1  0  0  0  0
  8 16  1  0  0  0  0
M  END
