
  xtb     03022212503D
 energy: -78.354012234155 gnorm: 0.000175280160 xtb: 6.4.1 (afa7bdf)
 50 54  0     0  0            999 V2000
    2.2845    1.0763   -0.5341 C   0  0  0  0  0  0  0  0  0  0  0  0
    3.4296    1.3882   -0.7717 C   0  0  0  0  0  0  0  0  0  0  0  0
    4.7629    1.7400   -1.0525 C   0  0  0  0  0  0  0  0  0  0  0  0
    5.0259    2.9985   -1.3585 N   0  0  0  0  0  0  0  0  0  0  0  0
    6.2954    3.3110   -1.6211 C   0  0  0  0  0  0  0  0  0  0  0  0
    7.3279    2.5161   -1.6180 N   0  0  0  0  0  0  0  0  0  0  0  0
    7.1005    1.2184   -1.3145 C   0  0  0  0  0  0  0  0  0  0  0  0
    8.1733    0.3049   -1.3014 C   0  0  0  0  0  0  0  0  0  0  0  0
    7.9450   -1.0092   -0.9984 C   0  0  0  0  0  0  0  0  0  0  0  0
    6.6517   -1.4658   -0.6970 C   0  0  0  0  0  0  0  0  0  0  0  0
    5.5900   -0.6021   -0.7006 C   0  0  0  0  0  0  0  0  0  0  0  0
    5.7944    0.7533   -1.0091 C   0  0  0  0  0  0  0  0  0  0  0  0
    0.9514    0.7220   -0.2679 C   0  0  0  0  0  0  0  0  0  0  0  0
    0.6427   -0.4904    0.3578 C   0  0  0  0  0  0  0  0  0  0  0  0
   -0.6652   -0.8299    0.6161 C   0  0  0  0  0  0  0  0  0  0  0  0
   -1.7101    0.0250    0.2476 C   0  0  0  0  0  0  0  0  0  0  0  0
   -3.0313   -0.3219    0.5017 N   0  0  0  0  0  0  0  0  0  0  0  0
   -3.9896    0.6685    0.7668 C   0  0  0  0  0  0  0  0  0  0  0  0
   -3.6710    1.7696    1.5601 C   0  0  0  0  0  0  0  0  0  0  0  0
   -4.6214    2.7393    1.8153 C   0  0  0  0  0  0  0  0  0  0  0  0
   -5.9000    2.6226    1.2951 C   0  0  0  0  0  0  0  0  0  0  0  0
   -6.2230    1.5257    0.5133 C   0  0  0  0  0  0  0  0  0  0  0  0
   -5.2773    0.5550    0.2454 C   0  0  0  0  0  0  0  0  0  0  0  0
   -3.4311   -1.6666    0.4891 C   0  0  0  0  0  0  0  0  0  0  0  0
   -2.9234   -2.5496   -0.4628 C   0  0  0  0  0  0  0  0  0  0  0  0
   -3.3262   -3.8711   -0.4685 C   0  0  0  0  0  0  0  0  0  0  0  0
   -4.2435   -4.3290    0.4631 C   0  0  0  0  0  0  0  0  0  0  0  0
   -4.7563   -3.4532    1.4059 C   0  0  0  0  0  0  0  0  0  0  0  0
   -4.3535   -2.1319    1.4250 C   0  0  0  0  0  0  0  0  0  0  0  0
   -1.3991    1.2360   -0.3815 C   0  0  0  0  0  0  0  0  0  0  0  0
   -0.0915    1.5818   -0.6299 C   0  0  0  0  0  0  0  0  0  0  0  0
    6.4783    4.3509   -1.8646 H   0  0  0  0  0  0  0  0  0  0  0  0
    9.1588    0.6749   -1.5363 H   0  0  0  0  0  0  0  0  0  0  0  0
    8.7652   -1.7123   -0.9894 H   0  0  0  0  0  0  0  0  0  0  0  0
    6.5014   -2.5094   -0.4625 H   0  0  0  0  0  0  0  0  0  0  0  0
    4.5889   -0.9393   -0.4727 H   0  0  0  0  0  0  0  0  0  0  0  0
    1.4416   -1.1551    0.6526 H   0  0  0  0  0  0  0  0  0  0  0  0
   -0.8925   -1.7603    1.1152 H   0  0  0  0  0  0  0  0  0  0  0  0
   -2.6779    1.8565    1.9761 H   0  0  0  0  0  0  0  0  0  0  0  0
   -4.3632    3.5876    2.4317 H   0  0  0  0  0  0  0  0  0  0  0  0
   -6.6402    3.3813    1.4987 H   0  0  0  0  0  0  0  0  0  0  0  0
   -7.2166    1.4285    0.1014 H   0  0  0  0  0  0  0  0  0  0  0  0
   -5.5276   -0.2960   -0.3710 H   0  0  0  0  0  0  0  0  0  0  0  0
   -2.2178   -2.1913   -1.1982 H   0  0  0  0  0  0  0  0  0  0  0  0
   -2.9274   -4.5454   -1.2119 H   0  0  0  0  0  0  0  0  0  0  0  0
   -4.5579   -5.3615    0.4533 H   0  0  0  0  0  0  0  0  0  0  0  0
   -5.4697   -3.8026    2.1375 H   0  0  0  0  0  0  0  0  0  0  0  0
   -4.7484   -1.4511    2.1650 H   0  0  0  0  0  0  0  0  0  0  0  0
   -2.1981    1.8980   -0.6809 H   0  0  0  0  0  0  0  0  0  0  0  0
    0.1414    2.5150   -1.1203 H   0  0  0  0  0  0  0  0  0  0  0  0
  1  2  3  0  0  0  0
  2  3  1  0  0  0  0
  3  4  2  0  0  0  0
  4  5  1  0  0  0  0
  5  6  2  0  0  0  0
  6  7  1  0  0  0  0
  7  8  2  0  0  0  0
  8  9  1  0  0  0  0
  9 10  2  0  0  0  0
 10 11  1  0  0  0  0
 11 12  2  0  0  0  0
  1 13  1  0  0  0  0
 13 14  2  0  0  0  0
 14 15  1  0  0  0  0
 15 16  2  0  0  0  0
 16 17  1  0  0  0  0
 17 18  1  0  0  0  0
 18 19  2  0  0  0  0
 19 20  1  0  0  0  0
 20 21  2  0  0  0  0
 21 22  1  0  0  0  0
 22 23  2  0  0  0  0
 17 24  1  0  0  0  0
 24 25  2  0  0  0  0
 25 26  1  0  0  0  0
 26 27  2  0  0  0  0
 27 28  1  0  0  0  0
 28 29  2  0  0  0  0
 16 30  1  0  0  0  0
 30 31  2  0  0  0  0
 12  3  1  0  0  0  0
 31 13  1  0  0  0  0
 12  7  1  0  0  0  0
 23 18  1  0  0  0  0
 29 24  1  0  0  0  0
  5 32  1  0  0  0  0
  8 33  1  0  0  0  0
  9 34  1  0  0  0  0
 10 35  1  0  0  0  0
 11 36  1  0  0  0  0
 14 37  1  0  0  0  0
 15 38  1  0  0  0  0
 19 39  1  0  0  0  0
 20 40  1  0  0  0  0
 21 41  1  0  0  0  0
 22 42  1  0  0  0  0
 23 43  1  0  0  0  0
 25 44  1  0  0  0  0
 26 45  1  0  0  0  0
 27 46  1  0  0  0  0
 28 47  1  0  0  0  0
 29 48  1  0  0  0  0
 30 49  1  0  0  0  0
 31 50  1  0  0  0  0
M  END
