
  xtb     03022215183D
 energy: -55.047724128643 gnorm: 0.000126005046 xtb: 6.4.1 (afa7bdf)
 37 40  0     0  0            999 V2000
    6.5673   -0.4464    0.7275 C   0  0  0  0  0  0  0  0  0  0  0  0
    5.6702   -1.1090    1.5484 C   0  0  0  0  0  0  0  0  0  0  0  0
    4.3098   -0.9811    1.3387 C   0  0  0  0  0  0  0  0  0  0  0  0
    3.8230   -0.1823    0.3064 C   0  0  0  0  0  0  0  0  0  0  0  0
    2.3771   -0.0412    0.0841 C   0  0  0  0  0  0  0  0  0  0  0  0
    1.8204    1.1979   -0.2259 C   0  0  0  0  0  0  0  0  0  0  0  0
    0.4631    1.3317   -0.4355 C   0  0  0  0  0  0  0  0  0  0  0  0
   -0.3866    0.2306   -0.3455 C   0  0  0  0  0  0  0  0  0  0  0  0
   -1.8315    0.3716   -0.5708 C   0  0  0  0  0  0  0  0  0  0  0  0
   -2.3132    1.1911   -1.5897 C   0  0  0  0  0  0  0  0  0  0  0  0
   -3.6696    1.3407   -1.8304 C   0  0  0  0  0  0  0  0  0  0  0  0
   -4.5500    0.6519   -1.0175 C   0  0  0  0  0  0  0  0  0  0  0  0
   -4.0878   -0.1704    0.0096 C   0  0  0  0  0  0  0  0  0  0  0  0
   -2.7410   -0.3188    0.2368 C   0  0  0  0  0  0  0  0  0  0  0  0
   -5.2779   -0.7635    0.7074 C   0  0  0  0  0  0  0  0  0  0  0  0
   -6.4481   -0.1620   -0.0978 C   0  0  0  0  0  0  0  0  0  0  0  0
   -5.9034    0.6875   -1.1090 O   0  0  0  0  0  0  0  0  0  0  0  0
    0.1712   -1.0084   -0.0354 C   0  0  0  0  0  0  0  0  0  0  0  0
    1.5282   -1.1419    0.1769 C   0  0  0  0  0  0  0  0  0  0  0  0
    4.7347    0.4812   -0.5118 C   0  0  0  0  0  0  0  0  0  0  0  0
    6.0947    0.3476   -0.3041 C   0  0  0  0  0  0  0  0  0  0  0  0
    7.6301   -0.5483    0.8908 H   0  0  0  0  0  0  0  0  0  0  0  0
    6.0332   -1.7269    2.3572 H   0  0  0  0  0  0  0  0  0  0  0  0
    3.6146   -1.4875    1.9926 H   0  0  0  0  0  0  0  0  0  0  0  0
    2.4580    2.0688   -0.2785 H   0  0  0  0  0  0  0  0  0  0  0  0
    0.0491    2.3063   -0.6499 H   0  0  0  0  0  0  0  0  0  0  0  0
   -1.6097    1.7078   -2.2253 H   0  0  0  0  0  0  0  0  0  0  0  0
   -4.0338    1.9708   -2.6255 H   0  0  0  0  0  0  0  0  0  0  0  0
   -2.3874   -0.9429    1.0440 H   0  0  0  0  0  0  0  0  0  0  0  0
   -5.3144   -0.4693    1.7576 H   0  0  0  0  0  0  0  0  0  0  0  0
   -5.2713   -1.8536    0.6608 H   0  0  0  0  0  0  0  0  0  0  0  0
   -7.0461   -0.9322   -0.5953 H   0  0  0  0  0  0  0  0  0  0  0  0
   -7.1123    0.4447    0.5253 H   0  0  0  0  0  0  0  0  0  0  0  0
   -0.4651   -1.8802    0.0157 H   0  0  0  0  0  0  0  0  0  0  0  0
    1.9424   -2.1163    0.3933 H   0  0  0  0  0  0  0  0  0  0  0  0
    4.3720    1.0888   -1.3283 H   0  0  0  0  0  0  0  0  0  0  0  0
    6.7900    0.8635   -0.9506 H   0  0  0  0  0  0  0  0  0  0  0  0
  1  2  2  0  0  0  0
  2  3  1  0  0  0  0
  3  4  2  0  0  0  0
  4  5  1  0  0  0  0
  5  6  2  0  0  0  0
  6  7  1  0  0  0  0
  7  8  2  0  0  0  0
  8  9  1  0  0  0  0
  9 10  2  0  0  0  0
 10 11  1  0  0  0  0
 11 12  2  0  0  0  0
 12 13  1  0  0  0  0
 13 14  2  0  0  0  0
 13 15  1  0  0  0  0
 15 16  1  0  0  0  0
 16 17  1  0  0  0  0
  8 18  1  0  0  0  0
 18 19  2  0  0  0  0
  4 20  1  0  0  0  0
 20 21  2  0  0  0  0
 21  1  1  0  0  0  0
 19  5  1  0  0  0  0
 14  9  1  0  0  0  0
 17 12  1  0  0  0  0
  1 22  1  0  0  0  0
  2 23  1  0  0  0  0
  3 24  1  0  0  0  0
  6 25  1  0  0  0  0
  7 26  1  0  0  0  0
 10 27  1  0  0  0  0
 11 28  1  0  0  0  0
 14 29  1  0  0  0  0
 15 30  1  0  0  0  0
 15 31  1  0  0  0  0
 16 32  1  0  0  0  0
 16 33  1  0  0  0  0
 18 34  1  0  0  0  0
 19 35  1  0  0  0  0
 20 36  1  0  0  0  0
 21 37  1  0  0  0  0
M  END
