
  xtb     03022213233D
 energy: -75.876051324148 gnorm: 0.000071653297 xtb: 6.4.1 (afa7bdf)
 53 56  0     0  0            999 V2000
    5.0488   -3.8810    3.9044 C   0  0  0  0  0  0  0  0  0  0  0  0
    4.3482   -2.8742    3.0444 C   0  0  0  0  0  0  0  0  0  0  0  0
    4.9727   -1.6908    2.6693 C   0  0  0  0  0  0  0  0  0  0  0  0
    4.3286   -0.7752    1.8627 C   0  0  0  0  0  0  0  0  0  0  0  0
    3.0310   -1.0055    1.3956 C   0  0  0  0  0  0  0  0  0  0  0  0
    2.3982   -0.0086    0.5594 C   0  0  0  0  0  0  0  0  0  0  0  0
    1.1582   -0.0625    0.0464 C   0  0  0  0  0  0  0  0  0  0  0  0
    0.6197    0.9711   -0.7900 C   0  0  0  0  0  0  0  0  0  0  0  0
    1.4046    1.9440   -1.3229 N   0  0  0  0  0  0  0  0  0  0  0  0
    0.6419    2.6797   -2.0995 C   0  0  0  0  0  0  0  0  0  0  0  0
    1.1003    3.8261   -2.8535 C   0  0  0  0  0  0  0  0  0  0  0  0
    2.4468    4.1882   -2.7659 C   0  0  0  0  0  0  0  0  0  0  0  0
    2.9261    5.2755   -3.4668 C   0  0  0  0  0  0  0  0  0  0  0  0
    2.0733    6.0208   -4.2668 C   0  0  0  0  0  0  0  0  0  0  0  0
    0.7370    5.6697   -4.3605 C   0  0  0  0  0  0  0  0  0  0  0  0
    0.2496    4.5817   -3.6612 C   0  0  0  0  0  0  0  0  0  0  0  0
   -0.6385    2.2081   -2.0978 N   0  0  0  0  0  0  0  0  0  0  0  0
   -0.6942    1.1258   -1.2551 C   0  0  0  0  0  0  0  0  0  0  0  0
   -1.9188    0.4296   -1.0227 C   0  0  0  0  0  0  0  0  0  0  0  0
   -2.1858   -0.3472    0.0433 C   0  0  0  0  0  0  0  0  0  0  0  0
   -3.4088   -1.0796    0.2881 C   0  0  0  0  0  0  0  0  0  0  0  0
   -3.5862   -1.6985    1.5300 C   0  0  0  0  0  0  0  0  0  0  0  0
   -4.7333   -2.4072    1.8191 C   0  0  0  0  0  0  0  0  0  0  0  0
   -5.7500   -2.5329    0.8795 C   0  0  0  0  0  0  0  0  0  0  0  0
   -6.9860   -3.3225    1.1818 C   0  0  0  0  0  0  0  0  0  0  0  0
   -5.5766   -1.9272   -0.3604 C   0  0  0  0  0  0  0  0  0  0  0  0
   -4.4324   -1.2156   -0.6543 C   0  0  0  0  0  0  0  0  0  0  0  0
    2.4102   -2.1997    1.7746 C   0  0  0  0  0  0  0  0  0  0  0  0
    3.0581   -3.1112    2.5815 C   0  0  0  0  0  0  0  0  0  0  0  0
    5.5065   -4.6504    3.2809 H   0  0  0  0  0  0  0  0  0  0  0  0
    5.8342   -3.4116    4.4923 H   0  0  0  0  0  0  0  0  0  0  0  0
    4.3477   -4.3704    4.5773 H   0  0  0  0  0  0  0  0  0  0  0  0
    5.9759   -1.4858    3.0168 H   0  0  0  0  0  0  0  0  0  0  0  0
    4.8320    0.1400    1.5847 H   0  0  0  0  0  0  0  0  0  0  0  0
    2.9883    0.8706    0.3379 H   0  0  0  0  0  0  0  0  0  0  0  0
    0.5124   -0.9097    0.2217 H   0  0  0  0  0  0  0  0  0  0  0  0
    3.0917    3.5939   -2.1388 H   0  0  0  0  0  0  0  0  0  0  0  0
    3.9689    5.5469   -3.3921 H   0  0  0  0  0  0  0  0  0  0  0  0
    2.4479    6.8722   -4.8155 H   0  0  0  0  0  0  0  0  0  0  0  0
    0.0693    6.2480   -4.9828 H   0  0  0  0  0  0  0  0  0  0  0  0
   -0.7975    4.3279   -3.7500 H   0  0  0  0  0  0  0  0  0  0  0  0
   -1.4250    2.5917   -2.5948 H   0  0  0  0  0  0  0  0  0  0  0  0
   -2.6826    0.5932   -1.7739 H   0  0  0  0  0  0  0  0  0  0  0  0
   -1.4448   -0.4233    0.8267 H   0  0  0  0  0  0  0  0  0  0  0  0
   -2.8091   -1.6122    2.2768 H   0  0  0  0  0  0  0  0  0  0  0  0
   -4.8447   -2.8723    2.7887 H   0  0  0  0  0  0  0  0  0  0  0  0
   -7.8475   -2.9100    0.6611 H   0  0  0  0  0  0  0  0  0  0  0  0
   -7.1891   -3.3324    2.2502 H   0  0  0  0  0  0  0  0  0  0  0  0
   -6.8582   -4.3550    0.8533 H   0  0  0  0  0  0  0  0  0  0  0  0
   -6.3536   -2.0184   -1.1068 H   0  0  0  0  0  0  0  0  0  0  0  0
   -4.3305   -0.7680   -1.6314 H   0  0  0  0  0  0  0  0  0  0  0  0
    1.4094   -2.4190    1.4348 H   0  0  0  0  0  0  0  0  0  0  0  0
    2.5558   -4.0270    2.8619 H   0  0  0  0  0  0  0  0  0  0  0  0
  1  2  1  0  0  0  0
  2  3  2  0  0  0  0
  3  4  1  0  0  0  0
  4  5  2  0  0  0  0
  5  6  1  0  0  0  0
  6  7  2  0  0  0  0
  7  8  1  0  0  0  0
  8  9  1  0  0  0  0
  9 10  2  0  0  0  0
 10 11  1  0  0  0  0
 11 12  2  0  0  0  0
 12 13  1  0  0  0  0
 13 14  2  0  0  0  0
 14 15  1  0  0  0  0
 15 16  2  0  0  0  0
 10 17  1  0  0  0  0
 17 18  1  0  0  0  0
 18 19  1  0  0  0  0
 19 20  2  0  0  0  0
 20 21  1  0  0  0  0
 21 22  2  0  0  0  0
 22 23  1  0  0  0  0
 23 24  2  0  0  0  0
 24 25  1  0  0  0  0
 24 26  1  0  0  0  0
 26 27  2  0  0  0  0
  5 28  1  0  0  0  0
 28 29  2  0  0  0  0
 29  2  1  0  0  0  0
 18  8  2  0  0  0  0
 27 21  1  0  0  0  0
 16 11  1  0  0  0  0
  1 30  1  0  0  0  0
  1 31  1  0  0  0  0
  1 32  1  0  0  0  0
  3 33  1  0  0  0  0
  4 34  1  0  0  0  0
  6 35  1  0  0  0  0
  7 36  1  0  0  0  0
 12 37  1  0  0  0  0
 13 38  1  0  0  0  0
 14 39  1  0  0  0  0
 15 40  1  0  0  0  0
 16 41  1  0  0  0  0
 17 42  1  0  0  0  0
 19 43  1  0  0  0  0
 20 44  1  0  0  0  0
 22 45  1  0  0  0  0
 23 46  1  0  0  0  0
 25 47  1  0  0  0  0
 25 48  1  0  0  0  0
 25 49  1  0  0  0  0
 26 50  1  0  0  0  0
 27 51  1  0  0  0  0
 28 52  1  0  0  0  0
 29 53  1  0  0  0  0
M  END
