
  xtb     03022215323D
 energy: -67.938089495805 gnorm: 0.000083888003 xtb: 6.4.1 (afa7bdf)
 44 48  0     0  0            999 V2000
   -4.2380   -1.7609   -0.7535 C   0  0  0  0  0  0  0  0  0  0  0  0
   -3.9838   -0.3039   -0.3498 C   0  0  0  0  0  0  0  0  0  0  0  0
   -4.3029    0.6338   -1.5191 C   0  0  0  0  0  0  0  0  0  0  0  0
   -4.8734    0.0658    0.8377 C   0  0  0  0  0  0  0  0  0  0  0  0
   -2.5636   -0.1586    0.0008 N   0  0  0  0  0  0  0  0  0  0  0  0
   -1.5546   -0.3002   -0.9120 C   0  0  0  0  0  0  0  0  0  0  0  0
   -1.6847   -0.5869   -2.0860 O   0  0  0  0  0  0  0  0  0  0  0  0
   -0.2931   -0.0353   -0.1849 C   0  0  0  0  0  0  0  0  0  0  0  0
   -0.5953    0.2164    1.1495 C   0  0  0  0  0  0  0  0  0  0  0  0
    0.3777    0.4854    2.0826 C   0  0  0  0  0  0  0  0  0  0  0  0
    1.7154    0.5185    1.6670 C   0  0  0  0  0  0  0  0  0  0  0  0
    2.7708    0.7947    2.5836 C   0  0  0  0  0  0  0  0  0  0  0  0
    4.0634    0.8229    2.1827 C   0  0  0  0  0  0  0  0  0  0  0  0
    4.4220    0.5768    0.8256 C   0  0  0  0  0  0  0  0  0  0  0  0
    5.7491    0.5981    0.3926 C   0  0  0  0  0  0  0  0  0  0  0  0
    6.0628    0.3542   -0.9316 C   0  0  0  0  0  0  0  0  0  0  0  0
    5.0665    0.0845   -1.8523 C   0  0  0  0  0  0  0  0  0  0  0  0
    3.7256    0.0520   -1.4657 C   0  0  0  0  0  0  0  0  0  0  0  0
    2.6772   -0.2254   -2.3920 C   0  0  0  0  0  0  0  0  0  0  0  0
    1.3814   -0.2572   -2.0018 C   0  0  0  0  0  0  0  0  0  0  0  0
    1.0248   -0.0118   -0.6456 C   0  0  0  0  0  0  0  0  0  0  0  0
    2.0410    0.2711    0.3069 C   0  0  0  0  0  0  0  0  0  0  0  0
    3.3940    0.3008   -0.1100 C   0  0  0  0  0  0  0  0  0  0  0  0
   -2.0809    0.0689    1.3502 C   0  0  0  0  0  0  0  0  0  0  0  0
   -2.4038   -0.9768    2.2306 O   0  0  0  0  0  0  0  0  0  0  0  0
   -4.0536   -2.4250    0.0886 H   0  0  0  0  0  0  0  0  0  0  0  0
   -5.2682   -1.8855   -1.0759 H   0  0  0  0  0  0  0  0  0  0  0  0
   -3.5803   -2.0356   -1.5738 H   0  0  0  0  0  0  0  0  0  0  0  0
   -4.0724    1.6628   -1.2503 H   0  0  0  0  0  0  0  0  0  0  0  0
   -5.3583    0.5644   -1.7679 H   0  0  0  0  0  0  0  0  0  0  0  0
   -3.7170    0.3624   -2.3916 H   0  0  0  0  0  0  0  0  0  0  0  0
   -4.7719    1.1198    1.0869 H   0  0  0  0  0  0  0  0  0  0  0  0
   -5.9101   -0.1200    0.5689 H   0  0  0  0  0  0  0  0  0  0  0  0
   -4.6321   -0.5297    1.7134 H   0  0  0  0  0  0  0  0  0  0  0  0
    0.1230    0.6655    3.1163 H   0  0  0  0  0  0  0  0  0  0  0  0
    2.5090    0.9822    3.6152 H   0  0  0  0  0  0  0  0  0  0  0  0
    4.8547    1.0336    2.8882 H   0  0  0  0  0  0  0  0  0  0  0  0
    6.5327    0.8076    1.1065 H   0  0  0  0  0  0  0  0  0  0  0  0
    7.0950    0.3742   -1.2499 H   0  0  0  0  0  0  0  0  0  0  0  0
    5.3205   -0.1051   -2.8853 H   0  0  0  0  0  0  0  0  0  0  0  0
    2.9463   -0.4117   -3.4220 H   0  0  0  0  0  0  0  0  0  0  0  0
    0.5841   -0.4677   -2.6973 H   0  0  0  0  0  0  0  0  0  0  0  0
   -2.5348    0.9634    1.7928 H   0  0  0  0  0  0  0  0  0  0  0  0
   -1.9641   -1.7824    1.9313 H   0  0  0  0  0  0  0  0  0  0  0  0
  1  2  1  0  0  0  0
  2  3  1  0  0  0  0
  2  4  1  0  0  0  0
  2  5  1  0  0  0  0
  5  6  1  0  0  0  0
  6  7  2  0  0  0  0
  6  8  1  0  0  0  0
  8  9  2  0  0  0  0
  9 10  1  0  0  0  0
 10 11  2  0  0  0  0
 11 12  1  0  0  0  0
 12 13  2  0  0  0  0
 13 14  1  0  0  0  0
 14 15  2  0  0  0  0
 15 16  1  0  0  0  0
 16 17  2  0  0  0  0
 17 18  1  0  0  0  0
 18 19  2  0  0  0  0
 19 20  1  0  0  0  0
 20 21  2  0  0  0  0
 21 22  1  0  0  0  0
 22 23  2  0  0  0  0
  9 24  1  0  0  0  0
 24 25  1  0  0  0  0
 24  5  1  0  0  0  0
 21  8  1  0  0  0  0
 22 11  1  0  0  0  0
 23 14  1  0  0  0  0
 23 18  1  0  0  0  0
  1 26  1  0  0  0  0
  1 27  1  0  0  0  0
  1 28  1  0  0  0  0
  3 29  1  0  0  0  0
  3 30  1  0  0  0  0
  3 31  1  0  0  0  0
  4 32  1  0  0  0  0
  4 33  1  0  0  0  0
  4 34  1  0  0  0  0
 10 35  1  0  0  0  0
 12 36  1  0  0  0  0
 13 37  1  0  0  0  0
 15 38  1  0  0  0  0
 16 39  1  0  0  0  0
 17 40  1  0  0  0  0
 19 41  1  0  0  0  0
 20 42  1  0  0  0  0
 24 43  1  0  0  0  0
 25 44  1  0  0  0  0
M  END
