
  xtb     03022214473D
 energy: -65.923477481714 gnorm: 0.000416729820 xtb: 6.4.1 (afa7bdf)
 40 44  0     0  0            999 V2000
   -5.4618   -0.2655   -0.2610 C   0  0  0  0  0  0  0  0  0  0  0  0
   -4.7420    0.7658   -0.8478 C   0  0  0  0  0  0  0  0  0  0  0  0
   -3.4257    0.8350   -0.7821 N   0  0  0  0  0  0  0  0  0  0  0  0
   -2.7884   -0.1364   -0.1311 C   0  0  0  0  0  0  0  0  0  0  0  0
   -1.3190   -0.0653   -0.0605 C   0  0  0  0  0  0  0  0  0  0  0  0
   -0.7002    1.1098    0.4016 C   0  0  0  0  0  0  0  0  0  0  0  0
   -1.4410    2.2354    0.8457 C   0  0  0  0  0  0  0  0  0  0  0  0
   -0.8236    3.3543    1.3147 C   0  0  0  0  0  0  0  0  0  0  0  0
    0.5809    3.4155    1.3878 C   0  0  0  0  0  0  0  0  0  0  0  0
    1.3307    2.3535    0.9862 C   0  0  0  0  0  0  0  0  0  0  0  0
    0.7266    1.1749    0.4752 C   0  0  0  0  0  0  0  0  0  0  0  0
    1.4950    0.0727    0.0711 C   0  0  0  0  0  0  0  0  0  0  0  0
    2.9615    0.1453    0.1383 C   0  0  0  0  0  0  0  0  0  0  0  0
    3.7093    0.9917   -0.6830 C   0  0  0  0  0  0  0  0  0  0  0  0
    5.0267    1.0602   -0.6191 N   0  0  0  0  0  0  0  0  0  0  0  0
    5.6254    0.2775    0.2600 C   0  0  0  0  0  0  0  0  0  0  0  0
    5.0295   -0.5645    1.0845 N   0  0  0  0  0  0  0  0  0  0  0  0
    3.7115   -0.6268    1.0281 C   0  0  0  0  0  0  0  0  0  0  0  0
    0.8788   -1.0977   -0.3968 C   0  0  0  0  0  0  0  0  0  0  0  0
    1.6400   -2.2097   -0.8432 C   0  0  0  0  0  0  0  0  0  0  0  0
    1.0380   -3.3385   -1.3068 C   0  0  0  0  0  0  0  0  0  0  0  0
   -0.3664   -3.4152   -1.3646 C   0  0  0  0  0  0  0  0  0  0  0  0
   -1.1310   -2.3637   -0.9612 C   0  0  0  0  0  0  0  0  0  0  0  0
   -0.5482   -1.1726   -0.4565 C   0  0  0  0  0  0  0  0  0  0  0  0
   -3.3893   -1.1674    0.4599 N   0  0  0  0  0  0  0  0  0  0  0  0
   -4.7063   -1.2254    0.3977 C   0  0  0  0  0  0  0  0  0  0  0  0
   -6.5364   -0.3175   -0.3134 H   0  0  0  0  0  0  0  0  0  0  0  0
   -5.2279    1.5682   -1.3893 H   0  0  0  0  0  0  0  0  0  0  0  0
   -2.5171    2.1966    0.8010 H   0  0  0  0  0  0  0  0  0  0  0  0
   -1.4078    4.2005    1.6447 H   0  0  0  0  0  0  0  0  0  0  0  0
    1.0562    4.3052    1.7732 H   0  0  0  0  0  0  0  0  0  0  0  0
    2.4073    2.3960    1.0622 H   0  0  0  0  0  0  0  0  0  0  0  0
    3.2287    1.6271   -1.4165 H   0  0  0  0  0  0  0  0  0  0  0  0
    6.7049    0.3310    0.3092 H   0  0  0  0  0  0  0  0  0  0  0  0
    3.2313   -1.3098    1.7178 H   0  0  0  0  0  0  0  0  0  0  0  0
    2.7180   -2.1465   -0.8187 H   0  0  0  0  0  0  0  0  0  0  0  0
    1.6317   -4.1761   -1.6415 H   0  0  0  0  0  0  0  0  0  0  0  0
   -0.8319   -4.3134   -1.7424 H   0  0  0  0  0  0  0  0  0  0  0  0
   -2.2052   -2.4306   -1.0164 H   0  0  0  0  0  0  0  0  0  0  0  0
   -5.1630   -2.0733    0.8931 H   0  0  0  0  0  0  0  0  0  0  0  0
  1  2  2  0  0  0  0
  2  3  1  0  0  0  0
  3  4  2  0  0  0  0
  4  5  1  0  0  0  0
  5  6  1  0  0  0  0
  6  7  2  0  0  0  0
  7  8  1  0  0  0  0
  8  9  2  0  0  0  0
  9 10  1  0  0  0  0
 10 11  2  0  0  0  0
 11 12  1  0  0  0  0
 12 13  1  0  0  0  0
 13 14  2  0  0  0  0
 14 15  1  0  0  0  0
 15 16  2  0  0  0  0
 16 17  1  0  0  0  0
 17 18  2  0  0  0  0
 12 19  2  0  0  0  0
 19 20  1  0  0  0  0
 20 21  2  0  0  0  0
 21 22  1  0  0  0  0
 22 23  2  0  0  0  0
 23 24  1  0  0  0  0
  4 25  1  0  0  0  0
 25 26  2  0  0  0  0
 26  1  1  0  0  0  0
 24  5  2  0  0  0  0
 11  6  1  0  0  0  0
 18 13  1  0  0  0  0
 24 19  1  0  0  0  0
  1 27  1  0  0  0  0
  2 28  1  0  0  0  0
  7 29  1  0  0  0  0
  8 30  1  0  0  0  0
  9 31  1  0  0  0  0
 10 32  1  0  0  0  0
 14 33  1  0  0  0  0
 16 34  1  0  0  0  0
 18 35  1  0  0  0  0
 20 36  1  0  0  0  0
 21 37  1  0  0  0  0
 22 38  1  0  0  0  0
 23 39  1  0  0  0  0
 26 40  1  0  0  0  0
M  END
