
  xtb     03022212393D
 energy: -141.398145719660 gnorm: 0.000087272315 xtb: 6.4.1 (afa7bdf)
 95104  0     0  0            999 V2000
    0.5531   -2.0747    0.3741 C   0  0  0  0  0  0  0  0  0  0  0  0
    0.3662   -0.5950    0.5447 C   0  0  0  0  0  0  0  0  0  0  0  0
   -0.9169   -0.1131    0.7602 C   0  0  0  0  0  0  0  0  0  0  0  0
   -1.1786    1.2491    0.8682 C   0  0  0  0  0  0  0  0  0  0  0  0
   -2.5046    1.8035    1.0786 C   0  0  0  0  0  0  0  0  0  0  0  0
   -2.7009    2.9361    1.7094 N   0  0  0  0  0  0  0  0  0  0  0  0
   -4.0423    3.1392    1.7128 C   0  0  0  0  0  0  0  0  0  0  0  0
   -4.7611    4.2149    2.3046 C   0  0  0  0  0  0  0  0  0  0  0  0
   -4.0989    5.2342    2.9965 C   0  0  0  0  0  0  0  0  0  0  0  0
   -4.8114    6.2497    3.5833 C   0  0  0  0  0  0  0  0  0  0  0  0
   -6.2016    6.2541    3.4870 C   0  0  0  0  0  0  0  0  0  0  0  0
   -6.8624    5.2592    2.8051 C   0  0  0  0  0  0  0  0  0  0  0  0
   -6.1695    4.2084    2.1845 C   0  0  0  0  0  0  0  0  0  0  0  0
   -6.8355    3.1599    1.4309 C   0  0  0  0  0  0  0  0  0  0  0  0
   -8.2243    3.1630    1.2384 C   0  0  0  0  0  0  0  0  0  0  0  0
   -8.8606    2.1983    0.4940 C   0  0  0  0  0  0  0  0  0  0  0  0
   -8.1241    1.1852   -0.1111 C   0  0  0  0  0  0  0  0  0  0  0  0
   -6.7623    1.1411    0.0579 C   0  0  0  0  0  0  0  0  0  0  0  0
   -6.0970    2.0998    0.8358 C   0  0  0  0  0  0  0  0  0  0  0  0
   -4.6895    2.0994    1.0464 C   0  0  0  0  0  0  0  0  0  0  0  0
   -3.6888    1.2415    0.6510 N   0  0  0  0  0  0  0  0  0  0  0  0
   -3.8093    0.0192   -0.0390 C   0  0  0  0  0  0  0  0  0  0  0  0
   -4.4110   -1.0746    0.5704 C   0  0  0  0  0  0  0  0  0  0  0  0
   -4.4765   -2.2878   -0.0904 C   0  0  0  0  0  0  0  0  0  0  0  0
   -3.9410   -2.4472   -1.3639 C   0  0  0  0  0  0  0  0  0  0  0  0
   -3.9643   -3.7720   -2.1090 C   0  0  0  0  0  0  0  0  0  0  0  0
   -4.6944   -3.5868   -3.4465 C   0  0  0  0  0  0  0  0  0  0  0  0
   -4.6775   -4.8780   -1.3265 C   0  0  0  0  0  0  0  0  0  0  0  0
   -2.5172   -4.2196   -2.3615 C   0  0  0  0  0  0  0  0  0  0  0  0
   -3.3493   -1.3355   -1.9610 C   0  0  0  0  0  0  0  0  0  0  0  0
   -3.2825   -0.1162   -1.3173 C   0  0  0  0  0  0  0  0  0  0  0  0
   -0.1083    2.1425    0.7890 C   0  0  0  0  0  0  0  0  0  0  0  0
    1.1697    1.6731    0.5891 C   0  0  0  0  0  0  0  0  0  0  0  0
    1.4300    0.3080    0.4637 C   0  0  0  0  0  0  0  0  0  0  0  0
    2.8251   -0.1175    0.2580 C   0  0  0  0  0  0  0  0  0  0  0  0
    3.5897    0.4682   -0.7500 C   0  0  0  0  0  0  0  0  0  0  0  0
    4.9080    0.1100   -0.9374 C   0  0  0  0  0  0  0  0  0  0  0  0
    5.5071   -0.8411   -0.1113 C   0  0  0  0  0  0  0  0  0  0  0  0
    6.9017   -1.2111   -0.3134 C   0  0  0  0  0  0  0  0  0  0  0  0
    8.0492   -0.4297   -0.4548 C   0  0  0  0  0  0  0  0  0  0  0  0
    8.1893    1.0159   -0.3567 C   0  0  0  0  0  0  0  0  0  0  0  0
    9.2543    1.6352   -1.0095 C   0  0  0  0  0  0  0  0  0  0  0  0
    9.4217    3.0040   -0.9324 C   0  0  0  0  0  0  0  0  0  0  0  0
    8.5333    3.7732   -0.1982 C   0  0  0  0  0  0  0  0  0  0  0  0
    7.4833    3.1630    0.4682 C   0  0  0  0  0  0  0  0  0  0  0  0
    7.3103    1.7937    0.3946 C   0  0  0  0  0  0  0  0  0  0  0  0
    9.1310   -1.2116   -0.6791 N   0  0  0  0  0  0  0  0  0  0  0  0
    8.7016   -2.4560   -0.6785 C   0  0  0  0  0  0  0  0  0  0  0  0
    9.4023   -3.6554   -0.8665 C   0  0  0  0  0  0  0  0  0  0  0  0
    8.7165   -4.8367   -0.8422 C   0  0  0  0  0  0  0  0  0  0  0  0
    7.3192   -4.8429   -0.6439 C   0  0  0  0  0  0  0  0  0  0  0  0
    6.6434   -3.6769   -0.4565 C   0  0  0  0  0  0  0  0  0  0  0  0
    7.3218   -2.5048   -0.4521 N   0  0  0  0  0  0  0  0  0  0  0  0
    4.7487   -1.4184    0.9059 C   0  0  0  0  0  0  0  0  0  0  0  0
    3.4270   -1.0607    1.0862 C   0  0  0  0  0  0  0  0  0  0  0  0
   -0.3109   -2.5011   -0.1328 H   0  0  0  0  0  0  0  0  0  0  0  0
    1.4463   -2.2949   -0.2053 H   0  0  0  0  0  0  0  0  0  0  0  0
    0.6439   -2.5644    1.3439 H   0  0  0  0  0  0  0  0  0  0  0  0
   -1.7176   -0.8303    0.8566 H   0  0  0  0  0  0  0  0  0  0  0  0
   -3.0226    5.1872    3.0540 H   0  0  0  0  0  0  0  0  0  0  0  0
   -4.3047    7.0384    4.1197 H   0  0  0  0  0  0  0  0  0  0  0  0
   -6.7677    7.0480    3.9527 H   0  0  0  0  0  0  0  0  0  0  0  0
   -7.9390    5.3042    2.7597 H   0  0  0  0  0  0  0  0  0  0  0  0
   -8.8242    3.9450    1.6752 H   0  0  0  0  0  0  0  0  0  0  0  0
   -9.9329    2.2344    0.3687 H   0  0  0  0  0  0  0  0  0  0  0  0
   -8.6195    0.4388   -0.7146 H   0  0  0  0  0  0  0  0  0  0  0  0
   -6.1937    0.3640   -0.4277 H   0  0  0  0  0  0  0  0  0  0  0  0
   -4.8243   -0.9697    1.5632 H   0  0  0  0  0  0  0  0  0  0  0  0
   -4.9496   -3.1133    0.4150 H   0  0  0  0  0  0  0  0  0  0  0  0
   -4.1883   -2.8652   -4.0813 H   0  0  0  0  0  0  0  0  0  0  0  0
   -5.7106   -3.2377   -3.2751 H   0  0  0  0  0  0  0  0  0  0  0  0
   -4.7410   -4.5336   -3.9801 H   0  0  0  0  0  0  0  0  0  0  0  0
   -5.7151   -4.6150   -1.1341 H   0  0  0  0  0  0  0  0  0  0  0  0
   -4.1776   -5.0770   -0.3814 H   0  0  0  0  0  0  0  0  0  0  0  0
   -4.6671   -5.7967   -1.9094 H   0  0  0  0  0  0  0  0  0  0  0  0
   -1.9945   -4.3542   -1.4163 H   0  0  0  0  0  0  0  0  0  0  0  0
   -1.9721   -3.4880   -2.9517 H   0  0  0  0  0  0  0  0  0  0  0  0
   -2.5066   -5.1663   -2.8970 H   0  0  0  0  0  0  0  0  0  0  0  0
   -2.9253   -1.4138   -2.9502 H   0  0  0  0  0  0  0  0  0  0  0  0
   -2.8126    0.7319   -1.7926 H   0  0  0  0  0  0  0  0  0  0  0  0
   -0.3065    3.1976    0.8888 H   0  0  0  0  0  0  0  0  0  0  0  0
    1.9958    2.3677    0.5393 H   0  0  0  0  0  0  0  0  0  0  0  0
    3.1343    1.2001   -1.4012 H   0  0  0  0  0  0  0  0  0  0  0  0
    5.4906    0.5661   -1.7242 H   0  0  0  0  0  0  0  0  0  0  0  0
    9.9404    1.0205   -1.5711 H   0  0  0  0  0  0  0  0  0  0  0  0
   10.2480    3.4751   -1.4449 H   0  0  0  0  0  0  0  0  0  0  0  0
    8.6628    4.8441   -0.1386 H   0  0  0  0  0  0  0  0  0  0  0  0
    6.7971    3.7577    1.0540 H   0  0  0  0  0  0  0  0  0  0  0  0
    6.5009    1.3247    0.9338 H   0  0  0  0  0  0  0  0  0  0  0  0
   10.4656   -3.6042   -1.0296 H   0  0  0  0  0  0  0  0  0  0  0  0
    9.2330   -5.7731   -0.9829 H   0  0  0  0  0  0  0  0  0  0  0  0
    6.7792   -5.7757   -0.6440 H   0  0  0  0  0  0  0  0  0  0  0  0
    5.5739   -3.6272   -0.3180 H   0  0  0  0  0  0  0  0  0  0  0  0
    5.2078   -2.1286    1.5800 H   0  0  0  0  0  0  0  0  0  0  0  0
    2.8625   -1.4949    1.8978 H   0  0  0  0  0  0  0  0  0  0  0  0
  1  2  1  0  0  0  0
  2  3  2  0  0  0  0
  3  4  1  0  0  0  0
  4  5  1  0  0  0  0
  5  6  2  0  0  0  0
  6  7  1  0  0  0  0
  7  8  2  0  0  0  0
  8  9  1  0  0  0  0
  9 10  2  0  0  0  0
 10 11  1  0  0  0  0
 11 12  2  0  0  0  0
 12 13  1  0  0  0  0
 13 14  2  0  0  0  0
 14 15  1  0  0  0  0
 15 16  2  0  0  0  0
 16 17  1  0  0  0  0
 17 18  2  0  0  0  0
 18 19  1  0  0  0  0
 19 20  2  0  0  0  0
 20 21  1  0  0  0  0
 21 22  1  0  0  0  0
 22 23  2  0  0  0  0
 23 24  1  0  0  0  0
 24 25  2  0  0  0  0
 25 26  1  0  0  0  0
 26 27  1  0  0  0  0
 26 28  1  0  0  0  0
 26 29  1  0  0  0  0
 25 30  1  0  0  0  0
 30 31  2  0  0  0  0
  4 32  2  0  0  0  0
 32 33  1  0  0  0  0
 33 34  2  0  0  0  0
 34 35  1  0  0  0  0
 35 36  2  0  0  0  0
 36 37  1  0  0  0  0
 37 38  2  0  0  0  0
 38 39  1  0  0  0  0
 39 40  2  0  0  0  0
 40 41  1  0  0  0  0
 41 42  2  0  0  0  0
 42 43  1  0  0  0  0
 43 44  2  0  0  0  0
 44 45  1  0  0  0  0
 45 46  2  0  0  0  0
 40 47  1  0  0  0  0
 47 48  2  0  0  0  0
 48 49  1  0  0  0  0
 49 50  2  0  0  0  0
 50 51  1  0  0  0  0
 51 52  2  0  0  0  0
 52 53  1  0  0  0  0
 38 54  1  0  0  0  0
 54 55  2  0  0  0  0
 34  2  1  0  0  0  0
 55 35  1  0  0  0  0
 21  5  1  0  0  0  0
 31 22  1  0  0  0  0
 53 39  1  0  0  0  0
 20  7  1  0  0  0  0
 46 41  1  0  0  0  0
 53 48  1  0  0  0  0
 13  8  1  0  0  0  0
 19 14  1  0  0  0  0
  1 56  1  0  0  0  0
  1 57  1  0  0  0  0
  1 58  1  0  0  0  0
  3 59  1  0  0  0  0
  9 60  1  0  0  0  0
 10 61  1  0  0  0  0
 11 62  1  0  0  0  0
 12 63  1  0  0  0  0
 15 64  1  0  0  0  0
 16 65  1  0  0  0  0
 17 66  1  0  0  0  0
 18 67  1  0  0  0  0
 23 68  1  0  0  0  0
 24 69  1  0  0  0  0
 27 70  1  0  0  0  0
 27 71  1  0  0  0  0
 27 72  1  0  0  0  0
 28 73  1  0  0  0  0
 28 74  1  0  0  0  0
 28 75  1  0  0  0  0
 29 76  1  0  0  0  0
 29 77  1  0  0  0  0
 29 78  1  0  0  0  0
 30 79  1  0  0  0  0
 31 80  1  0  0  0  0
 32 81  1  0  0  0  0
 33 82  1  0  0  0  0
 36 83  1  0  0  0  0
 37 84  1  0  0  0  0
 42 85  1  0  0  0  0
 43 86  1  0  0  0  0
 44 87  1  0  0  0  0
 45 88  1  0  0  0  0
 46 89  1  0  0  0  0
 49 90  1  0  0  0  0
 50 91  1  0  0  0  0
 51 92  1  0  0  0  0
 52 93  1  0  0  0  0
 54 94  1  0  0  0  0
 55 95  1  0  0  0  0
M  END
