
  xtb     03022215463D
 energy: -136.852329799473 gnorm: 0.000175432348 xtb: 6.4.1 (afa7bdf)
 47 47  0     0  0            999 V2000
    7.8754    1.1801    0.2289 C   0  0  0  0  0  0  0  0  0  0  0  0
    8.4211    0.4566   -0.7293 C   0  0  0  0  0  0  0  0  0  0  0  0
    7.8752    0.3158   -2.1212 C   0  0  0  0  0  0  0  0  0  0  0  0
    6.5380    0.7898   -2.2598 O   0  0  0  0  0  0  0  0  0  0  0  0
    5.6092    0.0835   -1.6588 C   0  0  0  0  0  0  0  0  0  0  0  0
    5.8962   -1.0823   -1.0661 N   0  0  0  0  0  0  0  0  0  0  0  0
    5.0081   -1.6263   -0.3075 N   0  0  0  0  0  0  0  0  0  0  0  0
    3.8542   -0.9786   -0.1460 C   0  0  0  0  0  0  0  0  0  0  0  0
    3.0505   -1.3902    0.8240 O   0  0  0  0  0  0  0  0  0  0  0  0
    1.7764   -0.7778    0.9164 C   0  0  0  0  0  0  0  0  0  0  0  0
    0.8426   -1.2799   -0.1921 C   0  0  0  0  0  0  0  0  0  0  0  0
   -0.5449   -0.6599   -0.1299 C   0  0  0  0  0  0  0  0  0  0  0  0
   -1.2703   -1.0582   -1.2015 F   0  0  0  0  0  0  0  0  0  0  0  0
   -0.4835    0.6897   -0.2005 F   0  0  0  0  0  0  0  0  0  0  0  0
   -1.3450   -1.0187    1.1630 C   0  0  0  0  0  0  0  0  0  0  0  0
   -0.8760   -0.2935    2.1969 F   0  0  0  0  0  0  0  0  0  0  0  0
   -1.1276   -2.3111    1.4790 F   0  0  0  0  0  0  0  0  0  0  0  0
   -2.8948   -0.8278    1.0896 C   0  0  0  0  0  0  0  0  0  0  0  0
   -3.3992   -1.1691    2.2906 F   0  0  0  0  0  0  0  0  0  0  0  0
   -3.4081   -1.6874    0.1955 F   0  0  0  0  0  0  0  0  0  0  0  0
   -3.3610    0.6178    0.7321 C   0  0  0  0  0  0  0  0  0  0  0  0
   -3.1680    0.8448   -0.5743 F   0  0  0  0  0  0  0  0  0  0  0  0
   -2.6214    1.5136    1.4065 F   0  0  0  0  0  0  0  0  0  0  0  0
   -4.8589    0.9183    1.0750 C   0  0  0  0  0  0  0  0  0  0  0  0
   -5.1017    2.1888    0.6999 F   0  0  0  0  0  0  0  0  0  0  0  0
   -5.0345    0.8683    2.4021 F   0  0  0  0  0  0  0  0  0  0  0  0
   -5.9006   -0.0211    0.3923 C   0  0  0  0  0  0  0  0  0  0  0  0
   -5.5508   -0.2886   -0.8748 F   0  0  0  0  0  0  0  0  0  0  0  0
   -5.9152   -1.1911    1.0509 F   0  0  0  0  0  0  0  0  0  0  0  0
   -7.3549    0.5544    0.4184 C   0  0  0  0  0  0  0  0  0  0  0  0
   -8.1854   -0.4342    0.0534 F   0  0  0  0  0  0  0  0  0  0  0  0
   -7.6745    0.8952    1.6769 F   0  0  0  0  0  0  0  0  0  0  0  0
   -7.6204    1.7910   -0.5146 C   0  0  0  0  0  0  0  0  0  0  0  0
   -7.6483    2.9075    0.1981 F   0  0  0  0  0  0  0  0  0  0  0  0
   -6.6948    1.9229   -1.4580 F   0  0  0  0  0  0  0  0  0  0  0  0
   -8.7944    1.6543   -1.1131 F   0  0  0  0  0  0  0  0  0  0  0  0
    3.4535   -0.0767   -1.0427 N   0  0  0  0  0  0  0  0  0  0  0  0
    4.3380    0.4566   -1.8214 N   0  0  0  0  0  0  0  0  0  0  0  0
    8.3130    1.2413    1.2094 H   0  0  0  0  0  0  0  0  0  0  0  0
    6.9714    1.7473    0.0751 H   0  0  0  0  0  0  0  0  0  0  0  0
    9.3336   -0.0966   -0.5619 H   0  0  0  0  0  0  0  0  0  0  0  0
    7.9249   -0.7346   -2.4295 H   0  0  0  0  0  0  0  0  0  0  0  0
    8.4559    0.9251   -2.8207 H   0  0  0  0  0  0  0  0  0  0  0  0
    1.8721    0.3121    0.8494 H   0  0  0  0  0  0  0  0  0  0  0  0
    1.4152   -1.0614    1.9068 H   0  0  0  0  0  0  0  0  0  0  0  0
    1.2643   -0.9982   -1.1612 H   0  0  0  0  0  0  0  0  0  0  0  0
    0.7455   -2.3661   -0.1453 H   0  0  0  0  0  0  0  0  0  0  0  0
  1  2  2  0  0  0  0
  2  3  1  0  0  0  0
  3  4  1  0  0  0  0
  4  5  1  0  0  0  0
  5  6  2  0  0  0  0
  6  7  1  0  0  0  0
  7  8  2  0  0  0  0
  8  9  1  0  0  0  0
  9 10  1  0  0  0  0
 10 11  1  0  0  0  0
 11 12  1  0  0  0  0
 12 13  1  0  0  0  0
 12 14  1  0  0  0  0
 12 15  1  0  0  0  0
 15 16  1  0  0  0  0
 15 17  1  0  0  0  0
 15 18  1  0  0  0  0
 18 19  1  0  0  0  0
 18 20  1  0  0  0  0
 18 21  1  0  0  0  0
 21 22  1  0  0  0  0
 21 23  1  0  0  0  0
 21 24  1  0  0  0  0
 24 25  1  0  0  0  0
 24 26  1  0  0  0  0
 24 27  1  0  0  0  0
 27 28  1  0  0  0  0
 27 29  1  0  0  0  0
 27 30  1  0  0  0  0
 30 31  1  0  0  0  0
 30 32  1  0  0  0  0
 30 33  1  0  0  0  0
 33 34  1  0  0  0  0
 33 35  1  0  0  0  0
 33 36  1  0  0  0  0
  8 37  1  0  0  0  0
 37 38  2  0  0  0  0
 38  5  1  0  0  0  0
  1 39  1  0  0  0  0
  1 40  1  0  0  0  0
  2 41  1  0  0  0  0
  3 42  1  0  0  0  0
  3 43  1  0  0  0  0
 10 44  1  0  0  0  0
 10 45  1  0  0  0  0
 11 46  1  0  0  0  0
 11 47  1  0  0  0  0
M  END
