
  xtb     03022212433D
 energy: -110.726768184866 gnorm: 0.000199713583 xtb: 6.4.1 (afa7bdf)
 66 69  0     0  0            999 V2000
   -2.2914    4.4368   -1.2309 C   0  0  0  0  0  0  0  0  0  0  0  0
   -3.1328    3.3642   -1.9076 C   0  0  0  0  0  0  0  0  0  0  0  0
   -3.2100    2.1847   -1.1095 O   0  0  0  0  0  0  0  0  0  0  0  0
   -2.2272    1.2850   -1.2573 C   0  0  0  0  0  0  0  0  0  0  0  0
   -1.2824    1.4389   -1.9935 O   0  0  0  0  0  0  0  0  0  0  0  0
   -2.4767    0.1172   -0.4067 C   0  0  0  0  0  0  0  0  0  0  0  0
   -1.5649   -0.7784    0.2250 C   0  0  0  0  0  0  0  0  0  0  0  0
   -0.1122   -0.8147    0.1793 C   0  0  0  0  0  0  0  0  0  0  0  0
    0.6041   -0.5750   -0.9484 C   0  0  0  0  0  0  0  0  0  0  0  0
    2.0259   -0.6434   -0.9304 C   0  0  0  0  0  0  0  0  0  0  0  0
    2.8342   -0.4059   -2.0523 C   0  0  0  0  0  0  0  0  0  0  0  0
    4.1959   -0.5051   -1.9659 C   0  0  0  0  0  0  0  0  0  0  0  0
    4.8155   -0.8532   -0.7499 C   0  0  0  0  0  0  0  0  0  0  0  0
    6.1587   -0.9212   -0.7837 O   0  0  0  0  0  0  0  0  0  0  0  0
    6.8682   -1.2585    0.4063 C   0  0  0  0  0  0  0  0  0  0  0  0
    8.3386   -1.2149    0.1076 C   0  0  0  0  0  0  0  0  0  0  0  0
    9.0235   -0.0888   -0.0625 C   0  0  0  0  0  0  0  0  0  0  0  0
    8.3845    1.2648    0.0512 C   0  0  0  0  0  0  0  0  0  0  0  0
   10.4891   -0.0940   -0.3630 C   0  0  0  0  0  0  0  0  0  0  0  0
    4.0340   -1.0924    0.3719 C   0  0  0  0  0  0  0  0  0  0  0  0
    2.6498   -0.9832    0.2791 C   0  0  0  0  0  0  0  0  0  0  0  0
    1.9330   -1.2126    1.4010 O   0  0  0  0  0  0  0  0  0  0  0  0
    0.5653   -1.1339    1.4415 C   0  0  0  0  0  0  0  0  0  0  0  0
    0.0334   -1.3062    2.5077 O   0  0  0  0  0  0  0  0  0  0  0  0
   -2.2310   -1.6282    0.9837 N   0  0  0  0  0  0  0  0  0  0  0  0
   -3.5189   -1.3348    0.8807 N   0  0  0  0  0  0  0  0  0  0  0  0
   -4.4629   -2.1044    1.5769 C   0  0  0  0  0  0  0  0  0  0  0  0
   -4.0786   -2.6697    2.7882 C   0  0  0  0  0  0  0  0  0  0  0  0
   -4.9860   -3.4306    3.5005 C   0  0  0  0  0  0  0  0  0  0  0  0
   -6.2676   -3.6280    3.0112 C   0  0  0  0  0  0  0  0  0  0  0  0
   -6.6377   -3.0780    1.7950 C   0  0  0  0  0  0  0  0  0  0  0  0
   -5.7369   -2.3209    1.0674 C   0  0  0  0  0  0  0  0  0  0  0  0
   -3.7269   -0.2807    0.0578 C   0  0  0  0  0  0  0  0  0  0  0  0
   -5.0470    0.3362   -0.2160 C   0  0  0  0  0  0  0  0  0  0  0  0
   -5.5392    0.4492   -1.3076 O   0  0  0  0  0  0  0  0  0  0  0  0
   -5.6086    0.7404    0.9253 O   0  0  0  0  0  0  0  0  0  0  0  0
   -6.8714    1.4012    0.8266 C   0  0  0  0  0  0  0  0  0  0  0  0
   -6.6921    2.8764    0.5021 C   0  0  0  0  0  0  0  0  0  0  0  0
   -2.3016    5.3415   -1.8320 H   0  0  0  0  0  0  0  0  0  0  0  0
   -2.6887    4.6597   -0.2434 H   0  0  0  0  0  0  0  0  0  0  0  0
   -1.2652    4.0922   -1.1288 H   0  0  0  0  0  0  0  0  0  0  0  0
   -4.1671    3.6923   -2.0326 H   0  0  0  0  0  0  0  0  0  0  0  0
   -2.7058    3.1049   -2.8818 H   0  0  0  0  0  0  0  0  0  0  0  0
    0.1067   -0.3275   -1.8733 H   0  0  0  0  0  0  0  0  0  0  0  0
    2.3601   -0.1383   -2.9839 H   0  0  0  0  0  0  0  0  0  0  0  0
    4.8292   -0.3240   -2.8195 H   0  0  0  0  0  0  0  0  0  0  0  0
    6.5754   -2.2627    0.7352 H   0  0  0  0  0  0  0  0  0  0  0  0
    6.6160   -0.5381    1.1968 H   0  0  0  0  0  0  0  0  0  0  0  0
    8.8307   -2.1702    0.0042 H   0  0  0  0  0  0  0  0  0  0  0  0
    7.4619    1.3039   -0.5228 H   0  0  0  0  0  0  0  0  0  0  0  0
    8.1429    1.4818    1.0924 H   0  0  0  0  0  0  0  0  0  0  0  0
    9.0554    2.0392   -0.3106 H   0  0  0  0  0  0  0  0  0  0  0  0
   10.6719    0.3668   -1.3332 H   0  0  0  0  0  0  0  0  0  0  0  0
   10.8883   -1.1044   -0.3758 H   0  0  0  0  0  0  0  0  0  0  0  0
   11.0247    0.4881    0.3862 H   0  0  0  0  0  0  0  0  0  0  0  0
    4.4554   -1.3616    1.3260 H   0  0  0  0  0  0  0  0  0  0  0  0
   -3.0735   -2.5014    3.1416 H   0  0  0  0  0  0  0  0  0  0  0  0
   -4.6931   -3.8683    4.4426 H   0  0  0  0  0  0  0  0  0  0  0  0
   -6.9764   -4.2179    3.5725 H   0  0  0  0  0  0  0  0  0  0  0  0
   -7.6299   -3.2464    1.4039 H   0  0  0  0  0  0  0  0  0  0  0  0
   -6.0160   -1.9218    0.1039 H   0  0  0  0  0  0  0  0  0  0  0  0
   -7.3399    1.2607    1.8026 H   0  0  0  0  0  0  0  0  0  0  0  0
   -7.4684    0.9112    0.0503 H   0  0  0  0  0  0  0  0  0  0  0  0
   -6.2153    2.9822   -0.4690 H   0  0  0  0  0  0  0  0  0  0  0  0
   -7.6608    3.3672    0.4779 H   0  0  0  0  0  0  0  0  0  0  0  0
   -6.0679    3.3520    1.2544 H   0  0  0  0  0  0  0  0  0  0  0  0
  1  2  1  0  0  0  0
  2  3  1  0  0  0  0
  3  4  1  0  0  0  0
  4  5  2  0  0  0  0
  4  6  1  0  0  0  0
  6  7  1  0  0  0  0
  7  8  1  0  0  0  0
  8  9  2  0  0  0  0
  9 10  1  0  0  0  0
 10 11  2  0  0  0  0
 11 12  1  0  0  0  0
 12 13  2  0  0  0  0
 13 14  1  0  0  0  0
 14 15  1  0  0  0  0
 15 16  1  0  0  0  0
 16 17  2  0  0  0  0
 17 18  1  0  0  0  0
 17 19  1  0  0  0  0
 13 20  1  0  0  0  0
 20 21  2  0  0  0  0
 21 22  1  0  0  0  0
 22 23  1  0  0  0  0
 23 24  2  0  0  0  0
  7 25  2  0  0  0  0
 25 26  1  0  0  0  0
 26 27  1  0  0  0  0
 27 28  2  0  0  0  0
 28 29  1  0  0  0  0
 29 30  2  0  0  0  0
 30 31  1  0  0  0  0
 31 32  2  0  0  0  0
 26 33  1  0  0  0  0
 33 34  1  0  0  0  0
 34 35  2  0  0  0  0
 34 36  1  0  0  0  0
 36 37  1  0  0  0  0
 37 38  1  0  0  0  0
 33  6  2  0  0  0  0
 23  8  1  0  0  0  0
 32 27  1  0  0  0  0
 21 10  1  0  0  0  0
  1 39  1  0  0  0  0
  1 40  1  0  0  0  0
  1 41  1  0  0  0  0
  2 42  1  0  0  0  0
  2 43  1  0  0  0  0
  9 44  1  0  0  0  0
 11 45  1  0  0  0  0
 12 46  1  0  0  0  0
 15 47  1  0  0  0  0
 15 48  1  0  0  0  0
 16 49  1  0  0  0  0
 18 50  1  0  0  0  0
 18 51  1  0  0  0  0
 18 52  1  0  0  0  0
 19 53  1  0  0  0  0
 19 54  1  0  0  0  0
 19 55  1  0  0  0  0
 20 56  1  0  0  0  0
 28 57  1  0  0  0  0
 29 58  1  0  0  0  0
 30 59  1  0  0  0  0
 31 60  1  0  0  0  0
 32 61  1  0  0  0  0
 37 62  1  0  0  0  0
 37 63  1  0  0  0  0
 38 64  1  0  0  0  0
 38 65  1  0  0  0  0
 38 66  1  0  0  0  0
M  END
