
  xtb     03022212173D
 energy: -75.586773918629 gnorm: 0.000198042568 xtb: 6.4.1 (afa7bdf)
 48 51  0     0  0            999 V2000
    6.2335   -1.3903   -2.1367 C   0  0  0  0  0  0  0  0  0  0  0  0
    6.4917   -0.6182   -0.8742 C   0  0  0  0  0  0  0  0  0  0  0  0
    7.6025   -0.3761   -0.4492 O   0  0  0  0  0  0  0  0  0  0  0  0
    5.2789   -0.1741   -0.1854 C   0  0  0  0  0  0  0  0  0  0  0  0
    4.0155   -0.4398   -0.6521 N   0  0  0  0  0  0  0  0  0  0  0  0
    3.2040    0.1018    0.2036 C   0  0  0  0  0  0  0  0  0  0  0  0
    1.7635    0.0937    0.1485 C   0  0  0  0  0  0  0  0  0  0  0  0
    1.1138   -0.5334   -0.9174 C   0  0  0  0  0  0  0  0  0  0  0  0
   -0.2595   -0.5477   -0.9855 C   0  0  0  0  0  0  0  0  0  0  0  0
   -1.0286    0.0624    0.0125 C   0  0  0  0  0  0  0  0  0  0  0  0
   -2.4168    0.0475   -0.0544 N   0  0  0  0  0  0  0  0  0  0  0  0
   -3.1645    1.1224    0.4494 C   0  0  0  0  0  0  0  0  0  0  0  0
   -2.7296    2.4344    0.2678 C   0  0  0  0  0  0  0  0  0  0  0  0
   -3.4736    3.4874    0.7639 C   0  0  0  0  0  0  0  0  0  0  0  0
   -4.6610    3.2516    1.4374 C   0  0  0  0  0  0  0  0  0  0  0  0
   -5.1001    1.9498    1.6143 C   0  0  0  0  0  0  0  0  0  0  0  0
   -4.3592    0.8897    1.1287 C   0  0  0  0  0  0  0  0  0  0  0  0
   -3.0904   -1.0418   -0.6271 C   0  0  0  0  0  0  0  0  0  0  0  0
   -4.2221   -0.8327   -1.4134 C   0  0  0  0  0  0  0  0  0  0  0  0
   -4.8925   -1.9070   -1.9657 C   0  0  0  0  0  0  0  0  0  0  0  0
   -4.4438   -3.1996   -1.7499 C   0  0  0  0  0  0  0  0  0  0  0  0
   -3.3183   -3.4119   -0.9707 C   0  0  0  0  0  0  0  0  0  0  0  0
   -2.6457   -2.3447   -0.4075 C   0  0  0  0  0  0  0  0  0  0  0  0
   -0.3745    0.6878    1.0790 C   0  0  0  0  0  0  0  0  0  0  0  0
    1.0001    0.7045    1.1450 C   0  0  0  0  0  0  0  0  0  0  0  0
    3.8513    0.7221    1.2278 O   0  0  0  0  0  0  0  0  0  0  0  0
    5.1655    0.5478    0.9826 C   0  0  0  0  0  0  0  0  0  0  0  0
    6.1758    1.1011    1.9086 C   0  0  0  0  0  0  0  0  0  0  0  0
    5.6387   -0.7808   -2.8128 H   0  0  0  0  0  0  0  0  0  0  0  0
    5.6480   -2.2752   -1.8982 H   0  0  0  0  0  0  0  0  0  0  0  0
    7.1718   -1.6731   -2.6054 H   0  0  0  0  0  0  0  0  0  0  0  0
    1.7120   -0.9948   -1.6865 H   0  0  0  0  0  0  0  0  0  0  0  0
   -0.7554   -1.0237   -1.8182 H   0  0  0  0  0  0  0  0  0  0  0  0
   -1.8098    2.6198   -0.2674 H   0  0  0  0  0  0  0  0  0  0  0  0
   -3.1279    4.4997    0.6151 H   0  0  0  0  0  0  0  0  0  0  0  0
   -5.2410    4.0772    1.8208 H   0  0  0  0  0  0  0  0  0  0  0  0
   -6.0230    1.7570    2.1411 H   0  0  0  0  0  0  0  0  0  0  0  0
   -4.6987   -0.1256    1.2732 H   0  0  0  0  0  0  0  0  0  0  0  0
   -4.5684    0.1755   -1.5882 H   0  0  0  0  0  0  0  0  0  0  0  0
   -5.7668   -1.7323   -2.5751 H   0  0  0  0  0  0  0  0  0  0  0  0
   -4.9685   -4.0364   -2.1853 H   0  0  0  0  0  0  0  0  0  0  0  0
   -2.9657   -4.4169   -0.7919 H   0  0  0  0  0  0  0  0  0  0  0  0
   -1.7747   -2.5123    0.2090 H   0  0  0  0  0  0  0  0  0  0  0  0
   -0.9582    1.1522    1.8598 H   0  0  0  0  0  0  0  0  0  0  0  0
    1.4956    1.1832    1.9759 H   0  0  0  0  0  0  0  0  0  0  0  0
    6.0649    2.1824    1.9851 H   0  0  0  0  0  0  0  0  0  0  0  0
    7.1656    0.8586    1.5335 H   0  0  0  0  0  0  0  0  0  0  0  0
    6.0456    0.6784    2.9045 H   0  0  0  0  0  0  0  0  0  0  0  0
  1  2  1  0  0  0  0
  2  3  2  0  0  0  0
  2  4  1  0  0  0  0
  4  5  1  0  0  0  0
  5  6  2  0  0  0  0
  6  7  1  0  0  0  0
  7  8  2  0  0  0  0
  8  9  1  0  0  0  0
  9 10  2  0  0  0  0
 10 11  1  0  0  0  0
 11 12  1  0  0  0  0
 12 13  2  0  0  0  0
 13 14  1  0  0  0  0
 14 15  2  0  0  0  0
 15 16  1  0  0  0  0
 16 17  2  0  0  0  0
 11 18  1  0  0  0  0
 18 19  2  0  0  0  0
 19 20  1  0  0  0  0
 20 21  2  0  0  0  0
 21 22  1  0  0  0  0
 22 23  2  0  0  0  0
 10 24  1  0  0  0  0
 24 25  2  0  0  0  0
  6 26  1  0  0  0  0
 26 27  1  0  0  0  0
 27 28  1  0  0  0  0
 27  4  2  0  0  0  0
 25  7  1  0  0  0  0
 17 12  1  0  0  0  0
 23 18  1  0  0  0  0
  1 29  1  0  0  0  0
  1 30  1  0  0  0  0
  1 31  1  0  0  0  0
  8 32  1  0  0  0  0
  9 33  1  0  0  0  0
 13 34  1  0  0  0  0
 14 35  1  0  0  0  0
 15 36  1  0  0  0  0
 16 37  1  0  0  0  0
 17 38  1  0  0  0  0
 19 39  1  0  0  0  0
 20 40  1  0  0  0  0
 21 41  1  0  0  0  0
 22 42  1  0  0  0  0
 23 43  1  0  0  0  0
 24 44  1  0  0  0  0
 25 45  1  0  0  0  0
 28 46  1  0  0  0  0
 28 47  1  0  0  0  0
 28 48  1  0  0  0  0
M  END
