
  xtb     03022216103D
 energy: -118.715694850269 gnorm: 0.000107848514 xtb: 6.4.1 (afa7bdf)
 70 79  0     0  0            999 V2000
   -2.5639    7.8685   -3.2605 N   0  0  0  0  0  0  0  0  0  0  0  0
   -1.9536    7.0025   -2.8251 C   0  0  0  0  0  0  0  0  0  0  0  0
   -1.1671    5.9521   -2.2887 C   0  0  0  0  0  0  0  0  0  0  0  0
   -1.7550    4.8077   -1.9846 N   0  0  0  0  0  0  0  0  0  0  0  0
   -1.0071    3.8263   -1.4827 C   0  0  0  0  0  0  0  0  0  0  0  0
   -1.6287    2.5765   -1.1435 C   0  0  0  0  0  0  0  0  0  0  0  0
   -2.9994    2.3931   -1.3669 C   0  0  0  0  0  0  0  0  0  0  0  0
   -3.6104    1.2028   -1.0669 C   0  0  0  0  0  0  0  0  0  0  0  0
   -2.8574    0.1618   -0.5074 C   0  0  0  0  0  0  0  0  0  0  0  0
   -3.4529   -1.0599   -0.2036 N   0  0  0  0  0  0  0  0  0  0  0  0
   -2.9310   -2.3081   -0.5047 C   0  0  0  0  0  0  0  0  0  0  0  0
   -1.7856   -2.6450   -1.2116 C   0  0  0  0  0  0  0  0  0  0  0  0
   -1.5099   -3.9869   -1.3951 C   0  0  0  0  0  0  0  0  0  0  0  0
   -2.3554   -4.9774   -0.9031 C   0  0  0  0  0  0  0  0  0  0  0  0
   -3.5152   -4.6483   -0.2300 C   0  0  0  0  0  0  0  0  0  0  0  0
   -3.8110   -3.3066   -0.0315 C   0  0  0  0  0  0  0  0  0  0  0  0
   -4.9122   -2.6232    0.5901 C   0  0  0  0  0  0  0  0  0  0  0  0
   -6.0557   -3.0616    1.2437 C   0  0  0  0  0  0  0  0  0  0  0  0
   -6.9190   -2.1201    1.7680 C   0  0  0  0  0  0  0  0  0  0  0  0
   -6.6417   -0.7596    1.6642 C   0  0  0  0  0  0  0  0  0  0  0  0
   -5.5091   -0.3002    1.0182 C   0  0  0  0  0  0  0  0  0  0  0  0
   -4.6552   -1.2403    0.4607 C   0  0  0  0  0  0  0  0  0  0  0  0
   -1.5032    0.3423   -0.2667 C   0  0  0  0  0  0  0  0  0  0  0  0
   -0.8541    1.5331   -0.5926 C   0  0  0  0  0  0  0  0  0  0  0  0
    0.5763    1.7140   -0.4002 C   0  0  0  0  0  0  0  0  0  0  0  0
    1.3918    0.7031    0.1084 C   0  0  0  0  0  0  0  0  0  0  0  0
    2.7628    0.8697    0.2380 C   0  0  0  0  0  0  0  0  0  0  0  0
    3.5421   -0.1848    0.7072 N   0  0  0  0  0  0  0  0  0  0  0  0
    3.4481   -1.5033    0.2907 C   0  0  0  0  0  0  0  0  0  0  0  0
    2.6497   -2.0689   -0.6929 C   0  0  0  0  0  0  0  0  0  0  0  0
    2.7794   -3.4243   -0.9311 C   0  0  0  0  0  0  0  0  0  0  0  0
    3.6888   -4.2040   -0.2218 C   0  0  0  0  0  0  0  0  0  0  0  0
    4.5106   -3.6405    0.7339 C   0  0  0  0  0  0  0  0  0  0  0  0
    4.3964   -2.2811    0.9915 C   0  0  0  0  0  0  0  0  0  0  0  0
    5.0890   -1.3856    1.8771 C   0  0  0  0  0  0  0  0  0  0  0  0
    6.0951   -1.5666    2.8162 C   0  0  0  0  0  0  0  0  0  0  0  0
    6.5267   -0.4736    3.5412 C   0  0  0  0  0  0  0  0  0  0  0  0
    5.9534    0.7811    3.3525 C   0  0  0  0  0  0  0  0  0  0  0  0
    4.9502    0.9850    2.4233 C   0  0  0  0  0  0  0  0  0  0  0  0
    4.5356   -0.1027    1.6692 C   0  0  0  0  0  0  0  0  0  0  0  0
    3.3535    2.0891   -0.1193 C   0  0  0  0  0  0  0  0  0  0  0  0
    2.5677    3.1060   -0.5975 C   0  0  0  0  0  0  0  0  0  0  0  0
    1.1858    2.9374   -0.7526 C   0  0  0  0  0  0  0  0  0  0  0  0
    0.3875    4.0071   -1.2840 C   0  0  0  0  0  0  0  0  0  0  0  0
    0.9735    5.1638   -1.5892 N   0  0  0  0  0  0  0  0  0  0  0  0
    0.2252    6.1349   -2.0839 C   0  0  0  0  0  0  0  0  0  0  0  0
    0.8381    7.3714   -2.4085 C   0  0  0  0  0  0  0  0  0  0  0  0
    1.3062    8.3809   -2.6800 N   0  0  0  0  0  0  0  0  0  0  0  0
   -3.5561    3.2095   -1.7995 H   0  0  0  0  0  0  0  0  0  0  0  0
   -4.6570    1.0515   -1.2798 H   0  0  0  0  0  0  0  0  0  0  0  0
   -1.1346   -1.8898   -1.6255 H   0  0  0  0  0  0  0  0  0  0  0  0
   -0.6209   -4.2723   -1.9373 H   0  0  0  0  0  0  0  0  0  0  0  0
   -2.1034   -6.0148   -1.0639 H   0  0  0  0  0  0  0  0  0  0  0  0
   -4.1841   -5.4141    0.1318 H   0  0  0  0  0  0  0  0  0  0  0  0
   -6.2578   -4.1172    1.3422 H   0  0  0  0  0  0  0  0  0  0  0  0
   -7.8161   -2.4387    2.2771 H   0  0  0  0  0  0  0  0  0  0  0  0
   -7.3238   -0.0461    2.1019 H   0  0  0  0  0  0  0  0  0  0  0  0
   -5.2956    0.7566    0.9674 H   0  0  0  0  0  0  0  0  0  0  0  0
   -0.9657   -0.4665    0.2000 H   0  0  0  0  0  0  0  0  0  0  0  0
    0.9694   -0.2350    0.4286 H   0  0  0  0  0  0  0  0  0  0  0  0
    1.9602   -1.4736   -1.2723 H   0  0  0  0  0  0  0  0  0  0  0  0
    2.1653   -3.8866   -1.6894 H   0  0  0  0  0  0  0  0  0  0  0  0
    3.7580   -5.2601   -0.4348 H   0  0  0  0  0  0  0  0  0  0  0  0
    5.2328   -4.2386    1.2684 H   0  0  0  0  0  0  0  0  0  0  0  0
    6.5234   -2.5443    2.9764 H   0  0  0  0  0  0  0  0  0  0  0  0
    7.3105   -0.5910    4.2742 H   0  0  0  0  0  0  0  0  0  0  0  0
    6.2962    1.6140    3.9481 H   0  0  0  0  0  0  0  0  0  0  0  0
    4.4990    1.9584    2.3054 H   0  0  0  0  0  0  0  0  0  0  0  0
    4.4227    2.2087   -0.0414 H   0  0  0  0  0  0  0  0  0  0  0  0
    2.9982    4.0524   -0.8848 H   0  0  0  0  0  0  0  0  0  0  0  0
  1  2  3  0  0  0  0
  2  3  1  0  0  0  0
  3  4  2  0  0  0  0
  4  5  1  0  0  0  0
  5  6  2  0  0  0  0
  6  7  1  0  0  0  0
  7  8  2  0  0  0  0
  8  9  1  0  0  0  0
  9 10  1  0  0  0  0
 10 11  1  0  0  0  0
 11 12  2  0  0  0  0
 12 13  1  0  0  0  0
 13 14  2  0  0  0  0
 14 15  1  0  0  0  0
 15 16  2  0  0  0  0
 16 17  1  0  0  0  0
 17 18  2  0  0  0  0
 18 19  1  0  0  0  0
 19 20  2  0  0  0  0
 20 21  1  0  0  0  0
 21 22  2  0  0  0  0
  9 23  2  0  0  0  0
 23 24  1  0  0  0  0
 24 25  2  0  0  0  0
 25 26  1  0  0  0  0
 26 27  2  0  0  0  0
 27 28  1  0  0  0  0
 28 29  1  0  0  0  0
 29 30  2  0  0  0  0
 30 31  1  0  0  0  0
 31 32  2  0  0  0  0
 32 33  1  0  0  0  0
 33 34  2  0  0  0  0
 34 35  1  0  0  0  0
 35 36  2  0  0  0  0
 36 37  1  0  0  0  0
 37 38  2  0  0  0  0
 38 39  1  0  0  0  0
 39 40  2  0  0  0  0
 27 41  1  0  0  0  0
 41 42  2  0  0  0  0
 42 43  1  0  0  0  0
 43 44  2  0  0  0  0
 44 45  1  0  0  0  0
 45 46  2  0  0  0  0
 46 47  1  0  0  0  0
 47 48  3  0  0  0  0
 46  3  1  0  0  0  0
 44  5  1  0  0  0  0
 24  6  1  0  0  0  0
 43 25  1  0  0  0  0
 22 10  1  0  0  0  0
 40 28  1  0  0  0  0
 16 11  1  0  0  0  0
 22 17  1  0  0  0  0
 34 29  1  0  0  0  0
 40 35  1  0  0  0  0
  7 49  1  0  0  0  0
  8 50  1  0  0  0  0
 12 51  1  0  0  0  0
 13 52  1  0  0  0  0
 14 53  1  0  0  0  0
 15 54  1  0  0  0  0
 18 55  1  0  0  0  0
 19 56  1  0  0  0  0
 20 57  1  0  0  0  0
 21 58  1  0  0  0  0
 23 59  1  0  0  0  0
 26 60  1  0  0  0  0
 30 61  1  0  0  0  0
 31 62  1  0  0  0  0
 32 63  1  0  0  0  0
 33 64  1  0  0  0  0
 36 65  1  0  0  0  0
 37 66  1  0  0  0  0
 38 67  1  0  0  0  0
 39 68  1  0  0  0  0
 41 69  1  0  0  0  0
 42 70  1  0  0  0  0
M  END
