
  xtb     03022213543D
 energy: -91.816975804604 gnorm: 0.000147380333 xtb: 6.4.1 (afa7bdf)
 58 64  0     0  0            999 V2000
    5.6598    0.7631   -2.3171 O   0  0  0  0  0  0  0  0  0  0  0  0
    5.2542    0.2925   -1.2721 C   0  0  0  0  0  0  0  0  0  0  0  0
    6.1839   -0.0517   -0.1644 C   0  0  0  0  0  0  0  0  0  0  0  0
    7.4580   -0.5176   -0.4803 C   0  0  0  0  0  0  0  0  0  0  0  0
    8.3567   -0.8266    0.5228 C   0  0  0  0  0  0  0  0  0  0  0  0
    7.9995   -0.6506    1.8501 C   0  0  0  0  0  0  0  0  0  0  0  0
    6.7434   -0.1612    2.1711 C   0  0  0  0  0  0  0  0  0  0  0  0
    5.8348    0.1342    1.1714 C   0  0  0  0  0  0  0  0  0  0  0  0
    3.8123    0.0361   -1.0428 C   0  0  0  0  0  0  0  0  0  0  0  0
    2.8769    0.8297   -1.7079 C   0  0  0  0  0  0  0  0  0  0  0  0
    1.5267    0.6151   -1.5413 C   0  0  0  0  0  0  0  0  0  0  0  0
    1.0806   -0.4175   -0.7154 C   0  0  0  0  0  0  0  0  0  0  0  0
   -0.2867   -0.6218   -0.5460 N   0  0  0  0  0  0  0  0  0  0  0  0
   -0.9648   -1.8274   -0.5969 C   0  0  0  0  0  0  0  0  0  0  0  0
   -0.4742   -3.1001   -0.8532 C   0  0  0  0  0  0  0  0  0  0  0  0
   -1.3646   -4.1551   -0.8556 C   0  0  0  0  0  0  0  0  0  0  0  0
   -2.7240   -3.9593   -0.6145 C   0  0  0  0  0  0  0  0  0  0  0  0
   -3.2350   -2.6977   -0.3998 C   0  0  0  0  0  0  0  0  0  0  0  0
   -2.3622   -1.6121   -0.4064 C   0  0  0  0  0  0  0  0  0  0  0  0
   -2.4976   -0.2059   -0.2606 C   0  0  0  0  0  0  0  0  0  0  0  0
   -1.2318    0.3640   -0.3422 C   0  0  0  0  0  0  0  0  0  0  0  0
   -1.3543    1.7535   -0.0809 C   0  0  0  0  0  0  0  0  0  0  0  0
   -0.4746    2.8311    0.0088 C   0  0  0  0  0  0  0  0  0  0  0  0
   -0.9860    4.0845    0.2623 C   0  0  0  0  0  0  0  0  0  0  0  0
   -2.3583    4.2881    0.4119 C   0  0  0  0  0  0  0  0  0  0  0  0
   -3.2519    3.2392    0.3452 C   0  0  0  0  0  0  0  0  0  0  0  0
   -2.7511    1.9627    0.1268 C   0  0  0  0  0  0  0  0  0  0  0  0
   -3.4315    0.7651    0.0242 N   0  0  0  0  0  0  0  0  0  0  0  0
   -4.8126    0.5686    0.1393 C   0  0  0  0  0  0  0  0  0  0  0  0
   -5.4806   -0.1917   -0.8168 C   0  0  0  0  0  0  0  0  0  0  0  0
   -6.8420   -0.4007   -0.7048 C   0  0  0  0  0  0  0  0  0  0  0  0
   -7.5489    0.1518    0.3508 C   0  0  0  0  0  0  0  0  0  0  0  0
   -6.8856    0.9096    1.3015 C   0  0  0  0  0  0  0  0  0  0  0  0
   -5.5218    1.1155    1.2045 C   0  0  0  0  0  0  0  0  0  0  0  0
    2.0111   -1.2279   -0.0651 C   0  0  0  0  0  0  0  0  0  0  0  0
    3.3623   -1.0019   -0.2277 C   0  0  0  0  0  0  0  0  0  0  0  0
    7.7222   -0.6385   -1.5204 H   0  0  0  0  0  0  0  0  0  0  0  0
    9.3386   -1.1994    0.2716 H   0  0  0  0  0  0  0  0  0  0  0  0
    8.7026   -0.8872    2.6350 H   0  0  0  0  0  0  0  0  0  0  0  0
    6.4717   -0.0086    3.2054 H   0  0  0  0  0  0  0  0  0  0  0  0
    4.8626    0.5325    1.4237 H   0  0  0  0  0  0  0  0  0  0  0  0
    3.2345    1.6159   -2.3560 H   0  0  0  0  0  0  0  0  0  0  0  0
    0.8040    1.2258   -2.0609 H   0  0  0  0  0  0  0  0  0  0  0  0
    0.5727   -3.2638   -1.0581 H   0  0  0  0  0  0  0  0  0  0  0  0
   -1.0005   -5.1532   -1.0480 H   0  0  0  0  0  0  0  0  0  0  0  0
   -3.3864   -4.8121   -0.6092 H   0  0  0  0  0  0  0  0  0  0  0  0
   -4.2903   -2.5494   -0.2270 H   0  0  0  0  0  0  0  0  0  0  0  0
    0.5878    2.6827   -0.1140 H   0  0  0  0  0  0  0  0  0  0  0  0
   -0.3171    4.9289    0.3371 H   0  0  0  0  0  0  0  0  0  0  0  0
   -2.7275    5.2879    0.5853 H   0  0  0  0  0  0  0  0  0  0  0  0
   -4.3125    3.4093    0.4513 H   0  0  0  0  0  0  0  0  0  0  0  0
   -4.9262   -0.6044   -1.6464 H   0  0  0  0  0  0  0  0  0  0  0  0
   -7.3549   -0.9914   -1.4494 H   0  0  0  0  0  0  0  0  0  0  0  0
   -8.6131   -0.0094    0.4331 H   0  0  0  0  0  0  0  0  0  0  0  0
   -7.4317    1.3357    2.1301 H   0  0  0  0  0  0  0  0  0  0  0  0
   -4.9982    1.6827    1.9593 H   0  0  0  0  0  0  0  0  0  0  0  0
    1.6670   -2.0180    0.5849 H   0  0  0  0  0  0  0  0  0  0  0  0
    4.0743   -1.6435    0.2702 H   0  0  0  0  0  0  0  0  0  0  0  0
  1  2  2  0  0  0  0
  2  3  1  0  0  0  0
  3  4  2  0  0  0  0
  4  5  1  0  0  0  0
  5  6  2  0  0  0  0
  6  7  1  0  0  0  0
  7  8  2  0  0  0  0
  2  9  1  0  0  0  0
  9 10  2  0  0  0  0
 10 11  1  0  0  0  0
 11 12  2  0  0  0  0
 12 13  1  0  0  0  0
 13 14  1  0  0  0  0
 14 15  2  0  0  0  0
 15 16  1  0  0  0  0
 16 17  2  0  0  0  0
 17 18  1  0  0  0  0
 18 19  2  0  0  0  0
 19 20  1  0  0  0  0
 20 21  2  0  0  0  0
 21 22  1  0  0  0  0
 22 23  2  0  0  0  0
 23 24  1  0  0  0  0
 24 25  2  0  0  0  0
 25 26  1  0  0  0  0
 26 27  2  0  0  0  0
 27 28  1  0  0  0  0
 28 29  1  0  0  0  0
 29 30  2  0  0  0  0
 30 31  1  0  0  0  0
 31 32  2  0  0  0  0
 32 33  1  0  0  0  0
 33 34  2  0  0  0  0
 12 35  1  0  0  0  0
 35 36  2  0  0  0  0
  8  3  1  0  0  0  0
 36  9  1  0  0  0  0
 21 13  1  0  0  0  0
 27 22  1  0  0  0  0
 34 29  1  0  0  0  0
 19 14  1  0  0  0  0
 28 20  1  0  0  0  0
  4 37  1  0  0  0  0
  5 38  1  0  0  0  0
  6 39  1  0  0  0  0
  7 40  1  0  0  0  0
  8 41  1  0  0  0  0
 10 42  1  0  0  0  0
 11 43  1  0  0  0  0
 15 44  1  0  0  0  0
 16 45  1  0  0  0  0
 17 46  1  0  0  0  0
 18 47  1  0  0  0  0
 23 48  1  0  0  0  0
 24 49  1  0  0  0  0
 25 50  1  0  0  0  0
 26 51  1  0  0  0  0
 30 52  1  0  0  0  0
 31 53  1  0  0  0  0
 32 54  1  0  0  0  0
 33 55  1  0  0  0  0
 34 56  1  0  0  0  0
 35 57  1  0  0  0  0
 36 58  1  0  0  0  0
M  END
