
  xtb     03022214473D
 energy: -53.071710670850 gnorm: 0.000097265658 xtb: 6.4.1 (afa7bdf)
 32 34  0     0  0            999 V2000
    6.0824    0.4225    0.2318 C   0  0  0  0  0  0  0  0  0  0  0  0
    5.2943   -0.7334    0.3887 O   0  0  0  0  0  0  0  0  0  0  0  0
    3.9437   -0.6146    0.3395 C   0  0  0  0  0  0  0  0  0  0  0  0
    3.2177   -1.7981    0.5028 C   0  0  0  0  0  0  0  0  0  0  0  0
    1.8447   -1.7860    0.4696 C   0  0  0  0  0  0  0  0  0  0  0  0
    1.1347   -0.5958    0.2725 C   0  0  0  0  0  0  0  0  0  0  0  0
   -0.3110   -0.5954    0.2398 C   0  0  0  0  0  0  0  0  0  0  0  0
   -1.1585    0.4680    0.0629 C   0  0  0  0  0  0  0  0  0  0  0  0
   -2.5226    0.1051    0.0860 C   0  0  0  0  0  0  0  0  0  0  0  0
   -2.7093   -1.2615    0.2847 C   0  0  0  0  0  0  0  0  0  0  0  0
   -4.0017   -1.8051    0.3366 C   0  0  0  0  0  0  0  0  0  0  0  0
   -5.0563   -0.9652    0.1882 C   0  0  0  0  0  0  0  0  0  0  0  0
   -4.9098    0.4573   -0.0198 C   0  0  0  0  0  0  0  0  0  0  0  0
   -5.8421    1.2331   -0.1561 O   0  0  0  0  0  0  0  0  0  0  0  0
   -3.5940    0.9309   -0.0607 N   0  0  0  0  0  0  0  0  0  0  0  0
   -3.3860    2.3464   -0.2665 C   0  0  0  0  0  0  0  0  0  0  0  0
   -1.1938   -2.0874    0.4415 S   0  0  0  0  0  0  0  0  0  0  0  0
    1.8694    0.5797    0.1103 C   0  0  0  0  0  0  0  0  0  0  0  0
    3.2499    0.5762    0.1423 C   0  0  0  0  0  0  0  0  0  0  0  0
    5.8822    1.1551    1.0201 H   0  0  0  0  0  0  0  0  0  0  0  0
    5.9240    0.8869   -0.7466 H   0  0  0  0  0  0  0  0  0  0  0  0
    7.1152    0.0868    0.3072 H   0  0  0  0  0  0  0  0  0  0  0  0
    3.7630   -2.7158    0.6548 H   0  0  0  0  0  0  0  0  0  0  0  0
    1.3003   -2.7101    0.5977 H   0  0  0  0  0  0  0  0  0  0  0  0
   -0.8164    1.4755   -0.0785 H   0  0  0  0  0  0  0  0  0  0  0  0
   -4.1372   -2.8647    0.4910 H   0  0  0  0  0  0  0  0  0  0  0  0
   -6.0720   -1.3253    0.2190 H   0  0  0  0  0  0  0  0  0  0  0  0
   -4.3715    2.8026   -0.3592 H   0  0  0  0  0  0  0  0  0  0  0  0
   -2.8599    2.7838    0.5834 H   0  0  0  0  0  0  0  0  0  0  0  0
   -2.8155    2.5209   -1.1801 H   0  0  0  0  0  0  0  0  0  0  0  0
    1.3607    1.5180   -0.0445 H   0  0  0  0  0  0  0  0  0  0  0  0
    3.7751    1.5093    0.0122 H   0  0  0  0  0  0  0  0  0  0  0  0
  1  2  1  0  0  0  0
  2  3  1  0  0  0  0
  3  4  2  0  0  0  0
  4  5  1  0  0  0  0
  5  6  2  0  0  0  0
  6  7  1  0  0  0  0
  7  8  2  0  0  0  0
  8  9  1  0  0  0  0
  9 10  2  0  0  0  0
 10 11  1  0  0  0  0
 11 12  2  0  0  0  0
 12 13  1  0  0  0  0
 13 14  2  0  0  0  0
 13 15  1  0  0  0  0
 15 16  1  0  0  0  0
 10 17  1  0  0  0  0
  6 18  1  0  0  0  0
 18 19  2  0  0  0  0
 19  3  1  0  0  0  0
 17  7  1  0  0  0  0
 15  9  1  0  0  0  0
  1 20  1  0  0  0  0
  1 21  1  0  0  0  0
  1 22  1  0  0  0  0
  4 23  1  0  0  0  0
  5 24  1  0  0  0  0
  8 25  1  0  0  0  0
 11 26  1  0  0  0  0
 12 27  1  0  0  0  0
 16 28  1  0  0  0  0
 16 29  1  0  0  0  0
 16 30  1  0  0  0  0
 18 31  1  0  0  0  0
 19 32  1  0  0  0  0
M  END
