
  xtb     03022212013D
 energy: -26.340041648104 gnorm: 0.000376691807 xtb: 6.4.1 (afa7bdf)
 14 14  0     0  0            999 V2000
    2.9207   -0.9141   -0.0838 O   0  0  0  0  0  0  0  0  0  0  0  0
    2.2985    0.1065    0.1197 N   0  0  0  0  0  4  0  0  0  0  0  0
    2.7994    1.1787    0.3838 O   0  0  0  0  0  1  0  0  0  0  0  0
    0.8594    0.0398    0.0448 C   0  0  0  0  0  0  0  0  0  0  0  0
    0.1118    1.1886    0.2730 C   0  0  0  0  0  0  0  0  0  0  0  0
   -1.2664    1.1180    0.1994 C   0  0  0  0  0  0  0  0  0  0  0  0
   -1.8850   -0.0873   -0.0986 C   0  0  0  0  0  0  0  0  0  0  0  0
   -1.1303   -1.2290   -0.3248 C   0  0  0  0  0  0  0  0  0  0  0  0
    0.2487   -1.1719   -0.2543 C   0  0  0  0  0  0  0  0  0  0  0  0
    0.6207    2.1122    0.5028 H   0  0  0  0  0  0  0  0  0  0  0  0
   -1.8595    2.0023    0.3743 H   0  0  0  0  0  0  0  0  0  0  0  0
   -2.9620   -0.1372   -0.1549 H   0  0  0  0  0  0  0  0  0  0  0  0
   -1.6179   -2.1633   -0.5562 H   0  0  0  0  0  0  0  0  0  0  0  0
    0.8616   -2.0435   -0.4254 H   0  0  0  0  0  0  0  0  0  0  0  0
  1  2  2  0  0  0  0
  2  3  1  0  0  0  0
  2  4  1  0  0  0  0
  4  5  2  0  0  0  0
  5  6  1  0  0  0  0
  6  7  2  0  0  0  0
  7  8  1  0  0  0  0
  8  9  2  0  0  0  0
  9  4  1  0  0  0  0
  5 10  1  0  0  0  0
  6 11  1  0  0  0  0
  7 12  1  0  0  0  0
  8 13  1  0  0  0  0
  9 14  1  0  0  0  0
M  CHG  1   2   1
M  CHG  1   3  -1
M  END
