
  xtb     03022214573D
 energy: -58.554532402926 gnorm: 0.000281908826 xtb: 6.4.1 (afa7bdf)
 37 39  0     0  0            999 V2000
    6.6918    0.3174   -0.0233 C   0  0  0  0  0  0  0  0  0  0  0  0
    5.5549   -0.6576    0.2189 C   0  0  0  0  0  0  0  0  0  0  0  0
    4.3232    0.0295    0.0208 O   0  0  0  0  0  0  0  0  0  0  0  0
    3.2067   -0.6982    0.2082 C   0  0  0  0  0  0  0  0  0  0  0  0
    3.2279   -1.8684    0.5255 O   0  0  0  0  0  0  0  0  0  0  0  0
    2.0034    0.0845   -0.0127 C   0  0  0  0  0  0  0  0  0  0  0  0
    1.8981    1.4410   -0.3829 C   0  0  0  0  0  0  0  0  0  0  0  0
    0.5650    1.7707   -0.4803 C   0  0  0  0  0  0  0  0  0  0  0  0
   -0.1056    3.0497   -0.8265 C   0  0  0  0  0  0  0  0  0  0  0  0
   -0.1568    0.6585   -0.1806 N   0  0  0  0  0  0  0  0  0  0  0  0
   -1.4762    0.5849   -0.1741 N   0  0  0  0  0  0  0  0  0  0  0  0
   -2.0248   -0.5660    0.1266 C   0  0  0  0  0  0  0  0  0  0  0  0
   -3.4930   -0.5987    0.1224 C   0  0  0  0  0  0  0  0  0  0  0  0
   -4.1951   -1.7692   -0.1551 C   0  0  0  0  0  0  0  0  0  0  0  0
   -5.5779   -1.7709   -0.1523 C   0  0  0  0  0  0  0  0  0  0  0  0
   -6.2774   -0.6093    0.1282 C   0  0  0  0  0  0  0  0  0  0  0  0
   -5.5868    0.5619    0.3960 C   0  0  0  0  0  0  0  0  0  0  0  0
   -4.2058    0.5692    0.3906 C   0  0  0  0  0  0  0  0  0  0  0  0
   -1.2506   -1.7128    0.4573 C   0  0  0  0  0  0  0  0  0  0  0  0
    0.1141   -1.6248    0.4499 C   0  0  0  0  0  0  0  0  0  0  0  0
    0.6965   -0.3983    0.1112 C   0  0  0  0  0  0  0  0  0  0  0  0
    6.6456    0.7001   -1.0393 H   0  0  0  0  0  0  0  0  0  0  0  0
    7.6430   -0.1854    0.1252 H   0  0  0  0  0  0  0  0  0  0  0  0
    6.6193    1.1542    0.6662 H   0  0  0  0  0  0  0  0  0  0  0  0
    5.6037   -1.5071   -0.4728 H   0  0  0  0  0  0  0  0  0  0  0  0
    5.5805   -1.0544    1.2407 H   0  0  0  0  0  0  0  0  0  0  0  0
    2.7252    2.0993   -0.5586 H   0  0  0  0  0  0  0  0  0  0  0  0
   -0.5687    3.4899    0.0572 H   0  0  0  0  0  0  0  0  0  0  0  0
    0.6162    3.7525   -1.2321 H   0  0  0  0  0  0  0  0  0  0  0  0
   -0.8925    2.8706   -1.5577 H   0  0  0  0  0  0  0  0  0  0  0  0
   -3.6634   -2.6770   -0.3984 H   0  0  0  0  0  0  0  0  0  0  0  0
   -6.1124   -2.6834   -0.3725 H   0  0  0  0  0  0  0  0  0  0  0  0
   -7.3573   -0.6160    0.1340 H   0  0  0  0  0  0  0  0  0  0  0  0
   -6.1290    1.4712    0.6105 H   0  0  0  0  0  0  0  0  0  0  0  0
   -3.6566    1.4743    0.5975 H   0  0  0  0  0  0  0  0  0  0  0  0
   -1.7444   -2.6287    0.7356 H   0  0  0  0  0  0  0  0  0  0  0  0
    0.7591   -2.4531    0.6961 H   0  0  0  0  0  0  0  0  0  0  0  0
  1  2  1  0  0  0  0
  2  3  1  0  0  0  0
  3  4  1  0  0  0  0
  4  5  2  0  0  0  0
  4  6  1  0  0  0  0
  6  7  1  0  0  0  0
  7  8  2  0  0  0  0
  8  9  1  0  0  0  0
  8 10  1  0  0  0  0
 10 11  1  0  0  0  0
 11 12  2  0  0  0  0
 12 13  1  0  0  0  0
 13 14  2  0  0  0  0
 14 15  1  0  0  0  0
 15 16  2  0  0  0  0
 16 17  1  0  0  0  0
 17 18  2  0  0  0  0
 12 19  1  0  0  0  0
 19 20  2  0  0  0  0
 20 21  1  0  0  0  0
 21  6  2  0  0  0  0
 21 10  1  0  0  0  0
 18 13  1  0  0  0  0
  1 22  1  0  0  0  0
  1 23  1  0  0  0  0
  1 24  1  0  0  0  0
  2 25  1  0  0  0  0
  2 26  1  0  0  0  0
  7 27  1  0  0  0  0
  9 28  1  0  0  0  0
  9 29  1  0  0  0  0
  9 30  1  0  0  0  0
 14 31  1  0  0  0  0
 15 32  1  0  0  0  0
 16 33  1  0  0  0  0
 17 34  1  0  0  0  0
 18 35  1  0  0  0  0
 19 36  1  0  0  0  0
 20 37  1  0  0  0  0
M  END
