
  xtb     03022212403D
 energy: -99.105300697555 gnorm: 0.000266375049 xtb: 6.4.1 (afa7bdf)
 55 58  0     0  0            999 V2000
    0.2171    5.1181    0.2996 C   0  0  0  0  0  0  0  0  0  0  0  0
    0.7095    4.1242    1.3421 C   0  0  0  0  0  0  0  0  0  0  0  0
    0.1097    2.8388    1.1853 O   0  0  0  0  0  0  0  0  0  0  0  0
    0.6231    2.0607    0.2417 C   0  0  0  0  0  0  0  0  0  0  0  0
    1.4925    2.3831   -0.5314 O   0  0  0  0  0  0  0  0  0  0  0  0
    0.0257    0.7089    0.2433 C   0  0  0  0  0  0  0  0  0  0  0  0
    0.7768   -0.4846    0.1742 C   0  0  0  0  0  0  0  0  0  0  0  0
    2.2264   -0.5880    0.1575 C   0  0  0  0  0  0  0  0  0  0  0  0
    2.9098   -1.4520   -0.6381 C   0  0  0  0  0  0  0  0  0  0  0  0
    2.0731   -2.5184   -1.6837 Cl  0  0  0  0  0  0  0  0  0  0  0  0
    4.3458   -1.4704   -0.6431 C   0  0  0  0  0  0  0  0  0  0  0  0
    5.1231   -2.3122   -1.4464 C   0  0  0  0  0  0  0  0  0  0  0  0
    6.4966   -2.2461   -1.3995 C   0  0  0  0  0  0  0  0  0  0  0  0
    7.1273   -1.3393   -0.5521 C   0  0  0  0  0  0  0  0  0  0  0  0
    6.3836   -0.5003    0.2499 C   0  0  0  0  0  0  0  0  0  0  0  0
    4.9925   -0.5613    0.2103 C   0  0  0  0  0  0  0  0  0  0  0  0
    4.3069    0.2713    1.0240 O   0  0  0  0  0  0  0  0  0  0  0  0
    2.9502    0.3091    1.0661 C   0  0  0  0  0  0  0  0  0  0  0  0
    2.4271    1.0486    1.8612 O   0  0  0  0  0  0  0  0  0  0  0  0
   -0.0333   -1.5335    0.1400 N   0  0  0  0  0  0  0  0  0  0  0  0
   -1.2690   -1.0741    0.1996 N   0  0  0  0  0  0  0  0  0  0  0  0
   -2.3323   -2.0007    0.1770 C   0  0  0  0  0  0  0  0  0  0  0  0
   -3.3421   -1.9569    1.1263 C   0  0  0  0  0  0  0  0  0  0  0  0
   -4.3483   -2.9051    1.0723 C   0  0  0  0  0  0  0  0  0  0  0  0
   -4.3363   -3.8886    0.1001 C   0  0  0  0  0  0  0  0  0  0  0  0
   -3.3099   -3.9539   -0.8367 C   0  0  0  0  0  0  0  0  0  0  0  0
   -3.2870   -5.0417   -1.8659 C   0  0  0  0  0  0  0  0  0  0  0  0
   -2.3052   -3.0003   -0.7871 C   0  0  0  0  0  0  0  0  0  0  0  0
   -1.3009    0.2877    0.2487 C   0  0  0  0  0  0  0  0  0  0  0  0
   -2.5229    1.0999    0.1440 C   0  0  0  0  0  0  0  0  0  0  0  0
   -3.6488    0.7072    0.3319 O   0  0  0  0  0  0  0  0  0  0  0  0
   -2.2178    2.3412   -0.2382 O   0  0  0  0  0  0  0  0  0  0  0  0
   -3.2964    3.2712   -0.3260 C   0  0  0  0  0  0  0  0  0  0  0  0
   -3.6888    3.7951    1.0483 C   0  0  0  0  0  0  0  0  0  0  0  0
   -0.8640    5.2192    0.3510 H   0  0  0  0  0  0  0  0  0  0  0  0
    0.4930    4.7757   -0.6943 H   0  0  0  0  0  0  0  0  0  0  0  0
    0.6739    6.0875    0.4789 H   0  0  0  0  0  0  0  0  0  0  0  0
    0.4363    4.4384    2.3516 H   0  0  0  0  0  0  0  0  0  0  0  0
    1.7959    4.0090    1.2724 H   0  0  0  0  0  0  0  0  0  0  0  0
    4.6247   -3.0089   -2.1015 H   0  0  0  0  0  0  0  0  0  0  0  0
    7.0878   -2.8987   -2.0230 H   0  0  0  0  0  0  0  0  0  0  0  0
    8.2049   -1.2914   -0.5210 H   0  0  0  0  0  0  0  0  0  0  0  0
    6.8495    0.2093    0.9145 H   0  0  0  0  0  0  0  0  0  0  0  0
   -3.3411   -1.1966    1.8892 H   0  0  0  0  0  0  0  0  0  0  0  0
   -5.1449   -2.8770    1.7998 H   0  0  0  0  0  0  0  0  0  0  0  0
   -5.1290   -4.6219    0.0682 H   0  0  0  0  0  0  0  0  0  0  0  0
   -2.5803   -4.8130   -2.6591 H   0  0  0  0  0  0  0  0  0  0  0  0
   -2.9906   -5.9836   -1.4045 H   0  0  0  0  0  0  0  0  0  0  0  0
   -4.2748   -5.1801   -2.3007 H   0  0  0  0  0  0  0  0  0  0  0  0
   -1.4903   -3.0220   -1.4949 H   0  0  0  0  0  0  0  0  0  0  0  0
   -4.1520    2.7822   -0.8045 H   0  0  0  0  0  0  0  0  0  0  0  0
   -2.9209    4.0723   -0.9658 H   0  0  0  0  0  0  0  0  0  0  0  0
   -4.1183    2.9925    1.6426 H   0  0  0  0  0  0  0  0  0  0  0  0
   -2.8136    4.1821    1.5646 H   0  0  0  0  0  0  0  0  0  0  0  0
   -4.4242    4.5875    0.9416 H   0  0  0  0  0  0  0  0  0  0  0  0
  1  2  1  0  0  0  0
  2  3  1  0  0  0  0
  3  4  1  0  0  0  0
  4  5  2  0  0  0  0
  4  6  1  0  0  0  0
  6  7  1  0  0  0  0
  7  8  1  0  0  0  0
  8  9  2  0  0  0  0
  9 10  1  0  0  0  0
  9 11  1  0  0  0  0
 11 12  2  0  0  0  0
 12 13  1  0  0  0  0
 13 14  2  0  0  0  0
 14 15  1  0  0  0  0
 15 16  2  0  0  0  0
 16 17  1  0  0  0  0
 17 18  1  0  0  0  0
 18 19  2  0  0  0  0
  7 20  2  0  0  0  0
 20 21  1  0  0  0  0
 21 22  1  0  0  0  0
 22 23  2  0  0  0  0
 23 24  1  0  0  0  0
 24 25  2  0  0  0  0
 25 26  1  0  0  0  0
 26 27  1  0  0  0  0
 26 28  2  0  0  0  0
 21 29  1  0  0  0  0
 29 30  1  0  0  0  0
 30 31  2  0  0  0  0
 30 32  1  0  0  0  0
 32 33  1  0  0  0  0
 33 34  1  0  0  0  0
 29  6  2  0  0  0  0
 18  8  1  0  0  0  0
 28 22  1  0  0  0  0
 16 11  1  0  0  0  0
  1 35  1  0  0  0  0
  1 36  1  0  0  0  0
  1 37  1  0  0  0  0
  2 38  1  0  0  0  0
  2 39  1  0  0  0  0
 12 40  1  0  0  0  0
 13 41  1  0  0  0  0
 14 42  1  0  0  0  0
 15 43  1  0  0  0  0
 23 44  1  0  0  0  0
 24 45  1  0  0  0  0
 25 46  1  0  0  0  0
 27 47  1  0  0  0  0
 27 48  1  0  0  0  0
 27 49  1  0  0  0  0
 28 50  1  0  0  0  0
 33 51  1  0  0  0  0
 33 52  1  0  0  0  0
 34 53  1  0  0  0  0
 34 54  1  0  0  0  0
 34 55  1  0  0  0  0
M  END
