
  xtb     03022212363D
 energy: -72.405817121764 gnorm: 0.000364249621 xtb: 6.4.1 (afa7bdf)
 40 44  0     0  0            999 V2000
   -2.9805    1.6590   -1.0062 C   0  0  0  0  0  0  0  0  0  0  0  0
   -2.8535    0.9813    0.3608 C   0  0  0  0  0  0  0  0  0  0  0  0
   -4.1010    1.7368    1.4766 S   0  0  0  0  0  0  0  0  0  0  0  0
   -2.8652    2.6305    2.4322 C   0  0  0  0  0  0  0  0  0  0  0  0
   -3.1562    3.4039    3.2991 O   0  0  0  0  0  0  0  0  0  0  0  0
   -1.5469    2.2114    1.9872 C   0  0  0  0  0  0  0  0  0  0  0  0
   -1.5195    1.3269    0.9801 C   0  0  0  0  0  0  0  0  0  0  0  0
   -0.3999    0.6166    0.4405 C   0  0  0  0  0  0  0  0  0  0  0  0
    0.9171    0.8900    0.5513 N   0  0  0  0  0  0  0  0  0  0  0  0
    1.5507   -0.0509   -0.1222 C   0  0  0  0  0  0  0  0  0  0  0  0
    2.9866   -0.1255   -0.2535 C   0  0  0  0  0  0  0  0  0  0  0  0
    3.7682    0.8453    0.3835 C   0  0  0  0  0  0  0  0  0  0  0  0
    5.1393    0.8176    0.2914 C   0  0  0  0  0  0  0  0  0  0  0  0
    5.7710   -0.1861   -0.4446 C   0  0  0  0  0  0  0  0  0  0  0  0
    7.1209   -0.1781   -0.5101 O   0  0  0  0  0  0  0  0  0  0  0  0
    5.0008   -1.1546   -1.0826 C   0  0  0  0  0  0  0  0  0  0  0  0
    3.6244   -1.1252   -0.9884 C   0  0  0  0  0  0  0  0  0  0  0  0
    0.6700   -0.9411   -0.6780 N   0  0  0  0  0  0  0  0  0  0  0  0
   -0.5854   -0.5420   -0.3226 C   0  0  0  0  0  0  0  0  0  0  0  0
   -1.8623   -1.0840   -0.6214 C   0  0  0  0  0  0  0  0  0  0  0  0
   -2.2267   -1.9547   -1.5806 C   0  0  0  0  0  0  0  0  0  0  0  0
   -3.6529   -2.1651   -1.7431 C   0  0  0  0  0  0  0  0  0  0  0  0
   -4.2166   -2.8861   -2.5176 O   0  0  0  0  0  0  0  0  0  0  0  0
   -4.5253   -1.1006   -0.5882 S   0  0  0  0  0  0  0  0  0  0  0  0
   -2.9821   -0.5495    0.2424 C   0  0  0  0  0  0  0  0  0  0  0  0
   -2.9304   -1.2177    1.6193 C   0  0  0  0  0  0  0  0  0  0  0  0
   -3.9661    1.4637   -1.4220 H   0  0  0  0  0  0  0  0  0  0  0  0
   -2.8538    2.7337   -0.8983 H   0  0  0  0  0  0  0  0  0  0  0  0
   -2.2241    1.2840   -1.6936 H   0  0  0  0  0  0  0  0  0  0  0  0
   -0.6733    2.5837    2.4934 H   0  0  0  0  0  0  0  0  0  0  0  0
    3.2651    1.6138    0.9471 H   0  0  0  0  0  0  0  0  0  0  0  0
    5.7497    1.5604    0.7787 H   0  0  0  0  0  0  0  0  0  0  0  0
    7.4398   -0.9163   -1.0445 H   0  0  0  0  0  0  0  0  0  0  0  0
    5.4858   -1.9341   -1.6553 H   0  0  0  0  0  0  0  0  0  0  0  0
    3.0564   -1.8908   -1.4965 H   0  0  0  0  0  0  0  0  0  0  0  0
    0.8981   -1.7552   -1.2232 H   0  0  0  0  0  0  0  0  0  0  0  0
   -1.5551   -2.4588   -2.2552 H   0  0  0  0  0  0  0  0  0  0  0  0
   -3.7736   -0.8830    2.2184 H   0  0  0  0  0  0  0  0  0  0  0  0
   -2.0062   -0.9615    2.1351 H   0  0  0  0  0  0  0  0  0  0  0  0
   -2.9880   -2.2985    1.5107 H   0  0  0  0  0  0  0  0  0  0  0  0
  2  1  1  0  0  0  0
  2  3  1  0  0  0  0
  3  4  1  0  0  0  0
  4  5  2  0  0  0  0
  4  6  1  0  0  0  0
  6  7  2  0  0  0  0
  7  8  1  0  0  0  0
  8  9  1  0  0  0  0
  9 10  2  0  0  0  0
 10 11  1  0  0  0  0
 11 12  2  0  0  0  0
 12 13  1  0  0  0  0
 13 14  2  0  0  0  0
 14 15  1  0  0  0  0
 14 16  1  0  0  0  0
 16 17  2  0  0  0  0
 10 18  1  0  0  0  0
 18 19  1  0  0  0  0
 19 20  1  0  0  0  0
 20 21  2  0  0  0  0
 21 22  1  0  0  0  0
 22 23  2  0  0  0  0
 22 24  1  0  0  0  0
 24 25  1  0  0  0  0
 25 26  1  0  0  0  0
  7  2  1  0  0  0  0
 19  8  2  0  0  0  0
 25 20  1  0  0  0  0
 25  2  1  0  0  0  0
 17 11  1  0  0  0  0
  1 27  1  0  0  0  0
  1 28  1  0  0  0  0
  1 29  1  0  0  0  0
  6 30  1  0  0  0  0
 12 31  1  0  0  0  0
 13 32  1  0  0  0  0
 15 33  1  0  0  0  0
 16 34  1  0  0  0  0
 17 35  1  0  0  0  0
 18 36  1  0  0  0  0
 21 37  1  0  0  0  0
 26 38  1  0  0  0  0
 26 39  1  0  0  0  0
 26 40  1  0  0  0  0
M  END
