
  xtb     03022216023D
 energy: -65.636615152544 gnorm: 0.000203041809 xtb: 6.4.1 (afa7bdf)
 34 37  0     0  0            999 V2000
    3.5029    2.6124   -1.2204 C   0  0  0  0  0  0  0  0  0  0  0  0
    2.8523    1.4229   -0.5979 C   0  0  0  0  0  0  0  0  0  0  0  0
    1.4721    1.2896   -0.5666 C   0  0  0  0  0  0  0  0  0  0  0  0
    0.9194    0.1598    0.0411 C   0  0  0  0  0  0  0  0  0  0  0  0
   -0.5220   -0.0496    0.1598 C   0  0  0  0  0  0  0  0  0  0  0  0
   -0.9922   -0.9491    1.1489 C   0  0  0  0  0  0  0  0  0  0  0  0
   -2.3260   -1.1836    1.2963 C   0  0  0  0  0  0  0  0  0  0  0  0
   -3.2720   -0.5520    0.4584 C   0  0  0  0  0  0  0  0  0  0  0  0
   -4.6563   -0.7825    0.5803 C   0  0  0  0  0  0  0  0  0  0  0  0
   -5.5430   -0.1633   -0.2575 C   0  0  0  0  0  0  0  0  0  0  0  0
   -5.0865    0.7150   -1.2538 C   0  0  0  0  0  0  0  0  0  0  0  0
   -3.7505    0.9619   -1.3972 C   0  0  0  0  0  0  0  0  0  0  0  0
   -2.8083    0.3397   -0.5476 C   0  0  0  0  0  0  0  0  0  0  0  0
   -1.4286    0.5776   -0.6717 C   0  0  0  0  0  0  0  0  0  0  0  0
    1.6680   -0.7581    0.5597 O   0  0  0  0  0  3  0  0  0  0  0  0
    3.1477   -0.7153    0.5250 B   0  0  0  0  0  4  0  0  0  0  0  0
    3.6626   -1.8749   -0.2080 O   0  0  0  0  0  0  0  0  0  0  0  0
    4.4208   -2.6195    0.5909 C   0  0  0  0  0  0  0  0  0  0  0  0
    4.9795   -3.6285    0.2781 O   0  0  0  0  0  0  0  0  0  0  0  0
    4.4324   -1.9314    1.9796 C   0  0  0  0  0  0  0  0  0  0  0  0
    4.9992   -2.2982    2.9655 O   0  0  0  0  0  0  0  0  0  0  0  0
    3.6814   -0.8379    1.8810 O   0  0  0  0  0  0  0  0  0  0  0  0
    3.6467    0.5383   -0.1059 O   0  0  0  0  0  0  0  0  0  0  0  0
    2.9421    3.5174   -1.0044 H   0  0  0  0  0  0  0  0  0  0  0  0
    4.5245    2.7032   -0.8626 H   0  0  0  0  0  0  0  0  0  0  0  0
    3.5287    2.4764   -2.3014 H   0  0  0  0  0  0  0  0  0  0  0  0
    0.8487    2.0652   -0.9704 H   0  0  0  0  0  0  0  0  0  0  0  0
   -0.2662   -1.4310    1.7842 H   0  0  0  0  0  0  0  0  0  0  0  0
   -2.6803   -1.8632    2.0571 H   0  0  0  0  0  0  0  0  0  0  0  0
   -5.0042   -1.4597    1.3464 H   0  0  0  0  0  0  0  0  0  0  0  0
   -6.6025   -0.3470   -0.1602 H   0  0  0  0  0  0  0  0  0  0  0  0
   -5.8022    1.1924   -1.9062 H   0  0  0  0  0  0  0  0  0  0  0  0
   -3.3941    1.6369   -2.1617 H   0  0  0  0  0  0  0  0  0  0  0  0
   -1.0943    1.2366   -1.4586 H   0  0  0  0  0  0  0  0  0  0  0  0
  1  2  1  0  0  0  0
  2  3  2  0  0  0  0
  3  4  1  0  0  0  0
  4  5  1  0  0  0  0
  5  6  2  0  0  0  0
  6  7  1  0  0  0  0
  7  8  2  0  0  0  0
  8  9  1  0  0  0  0
  9 10  2  0  0  0  0
 10 11  1  0  0  0  0
 11 12  2  0  0  0  0
 12 13  1  0  0  0  0
 13 14  2  0  0  0  0
  4 15  2  0  0  0  0
 15 16  1  0  0  0  0
 16 17  1  0  0  0  0
 17 18  1  0  0  0  0
 18 19  2  0  0  0  0
 18 20  1  0  0  0  0
 20 21  2  0  0  0  0
 20 22  1  0  0  0  0
 16 23  1  0  0  0  0
 23  2  1  0  0  0  0
 14  5  1  0  0  0  0
 22 16  1  0  0  0  0
 13  8  1  0  0  0  0
  1 24  1  0  0  0  0
  1 25  1  0  0  0  0
  1 26  1  0  0  0  0
  3 27  1  0  0  0  0
  6 28  1  0  0  0  0
  7 29  1  0  0  0  0
  9 30  1  0  0  0  0
 10 31  1  0  0  0  0
 11 32  1  0  0  0  0
 12 33  1  0  0  0  0
 14 34  1  0  0  0  0
M  CHG  1  15   1
M  CHG  1  16  -1
M  END
