
  xtb     03022214203D
 energy: -89.484461341355 gnorm: 0.000192446282 xtb: 6.4.1 (afa7bdf)
 58 64  0     0  0            999 V2000
   -0.0032    1.7262   -0.1114 C   0  0  0  0  0  0  0  0  0  0  0  0
   -0.0209    0.2658    0.1989 C   0  0  0  0  0  0  0  0  0  0  0  0
   -1.2429   -0.4195    0.2096 C   0  0  0  0  0  0  0  0  0  0  0  0
   -2.5599   -0.0333   -0.1765 C   0  0  0  0  0  0  0  0  0  0  0  0
   -3.4299   -0.9804    0.3661 C   0  0  0  0  0  0  0  0  0  0  0  0
   -4.9089   -0.8264    0.2589 C   0  0  0  0  0  0  0  0  0  0  0  0
   -5.2140    0.6757    0.2184 C   0  0  0  0  0  0  0  0  0  0  0  0
   -4.4483    1.3151   -0.9057 C   0  0  0  0  0  0  0  0  0  0  0  0
   -5.0383    2.2149   -1.7754 C   0  0  0  0  0  0  0  0  0  0  0  0
   -4.3293    2.7338   -2.8471 C   0  0  0  0  0  0  0  0  0  0  0  0
   -3.0304    2.3155   -3.0794 C   0  0  0  0  0  0  0  0  0  0  0  0
   -2.4234    1.4239   -2.2142 C   0  0  0  0  0  0  0  0  0  0  0  0
   -3.1029    0.9554   -1.0905 C   0  0  0  0  0  0  0  0  0  0  0  0
   -2.6525   -1.9663    0.9782 C   0  0  0  0  0  0  0  0  0  0  0  0
   -3.0870   -3.2064    1.6591 C   0  0  0  0  0  0  0  0  0  0  0  0
   -1.3572   -1.6371    0.8563 N   0  0  0  0  0  4  0  0  0  0  0  0
   -0.1661   -2.5220    1.2494 B   0  0  0  0  0  4  0  0  0  0  0  0
   -0.1553   -2.7670    2.6152 F   0  0  0  0  0  0  0  0  0  0  0  0
   -0.2470   -3.7286    0.5725 F   0  0  0  0  0  0  0  0  0  0  0  0
    1.1085   -1.7609    0.8480 N   0  0  0  0  0  0  0  0  0  0  0  0
    2.3497   -2.2665    0.8697 C   0  0  0  0  0  0  0  0  0  0  0  0
    2.6251   -3.6855    1.1879 C   0  0  0  0  0  0  0  0  0  0  0  0
    3.2564   -1.2491    0.5653 C   0  0  0  0  0  0  0  0  0  0  0  0
    2.5373   -0.0612    0.4266 C   0  0  0  0  0  0  0  0  0  0  0  0
    1.1559   -0.4093    0.5446 C   0  0  0  0  0  0  0  0  0  0  0  0
    3.2875    1.1706    0.2406 C   0  0  0  0  0  0  0  0  0  0  0  0
    2.9220    2.4026    0.7769 C   0  0  0  0  0  0  0  0  0  0  0  0
    3.7145    3.5204    0.5919 C   0  0  0  0  0  0  0  0  0  0  0  0
    4.8977    3.4223   -0.1182 C   0  0  0  0  0  0  0  0  0  0  0  0
    5.3143    2.1857   -0.5844 C   0  0  0  0  0  0  0  0  0  0  0  0
    4.5386    1.0563   -0.3935 C   0  0  0  0  0  0  0  0  0  0  0  0
    5.0242   -0.3055   -0.8037 C   0  0  0  0  0  0  0  0  0  0  0  0
    4.7257   -1.3047    0.3192 C   0  0  0  0  0  0  0  0  0  0  0  0
   -0.9222    2.0447   -0.5866 H   0  0  0  0  0  0  0  0  0  0  0  0
    0.8483    1.9927   -0.7326 H   0  0  0  0  0  0  0  0  0  0  0  0
    0.0769    2.2744    0.8269 H   0  0  0  0  0  0  0  0  0  0  0  0
   -5.4120   -1.2933    1.1068 H   0  0  0  0  0  0  0  0  0  0  0  0
   -5.2757   -1.3030   -0.6566 H   0  0  0  0  0  0  0  0  0  0  0  0
   -6.2836    0.8489    0.0928 H   0  0  0  0  0  0  0  0  0  0  0  0
   -4.9060    1.1221    1.1697 H   0  0  0  0  0  0  0  0  0  0  0  0
   -6.0684    2.5048   -1.6224 H   0  0  0  0  0  0  0  0  0  0  0  0
   -4.8009    3.4382   -3.5160 H   0  0  0  0  0  0  0  0  0  0  0  0
   -2.4906    2.6764   -3.9424 H   0  0  0  0  0  0  0  0  0  0  0  0
   -1.4307    1.0573   -2.4304 H   0  0  0  0  0  0  0  0  0  0  0  0
   -2.6303   -3.2665    2.6452 H   0  0  0  0  0  0  0  0  0  0  0  0
   -2.7420   -4.0719    1.0947 H   0  0  0  0  0  0  0  0  0  0  0  0
   -4.1689   -3.2404    1.7484 H   0  0  0  0  0  0  0  0  0  0  0  0
    2.0785   -3.9700    2.0848 H   0  0  0  0  0  0  0  0  0  0  0  0
    3.6888   -3.8470    1.3383 H   0  0  0  0  0  0  0  0  0  0  0  0
    2.2691   -4.3251    0.3807 H   0  0  0  0  0  0  0  0  0  0  0  0
    2.0352    2.4771    1.3836 H   0  0  0  0  0  0  0  0  0  0  0  0
    3.4098    4.4681    1.0110 H   0  0  0  0  0  0  0  0  0  0  0  0
    5.5119    4.2958   -0.2783 H   0  0  0  0  0  0  0  0  0  0  0  0
    6.2654    2.0962   -1.0904 H   0  0  0  0  0  0  0  0  0  0  0  0
    4.5007   -0.6271   -1.7102 H   0  0  0  0  0  0  0  0  0  0  0  0
    6.0925   -0.2742   -1.0217 H   0  0  0  0  0  0  0  0  0  0  0  0
    5.2794   -1.0223    1.2211 H   0  0  0  0  0  0  0  0  0  0  0  0
    5.0346   -2.3096    0.0299 H   0  0  0  0  0  0  0  0  0  0  0  0
  1  2  1  0  0  0  0
  2  3  2  0  0  0  0
  3  4  1  0  0  0  0
  4  5  2  0  0  0  0
  5  6  1  0  0  0  0
  6  7  1  0  0  0  0
  7  8  1  0  0  0  0
  8  9  2  0  0  0  0
  9 10  1  0  0  0  0
 10 11  2  0  0  0  0
 11 12  1  0  0  0  0
 12 13  2  0  0  0  0
  5 14  1  0  0  0  0
 14 15  1  0  0  0  0
 14 16  2  0  0  0  0
 16 17  1  0  0  0  0
 17 18  1  0  0  0  0
 17 19  1  0  0  0  0
 17 20  1  0  0  0  0
 20 21  1  0  0  0  0
 21 22  1  0  0  0  0
 21 23  2  0  0  0  0
 23 24  1  0  0  0  0
 24 25  2  0  0  0  0
 24 26  1  0  0  0  0
 26 27  2  0  0  0  0
 27 28  1  0  0  0  0
 28 29  2  0  0  0  0
 29 30  1  0  0  0  0
 30 31  2  0  0  0  0
 31 32  1  0  0  0  0
 32 33  1  0  0  0  0
 25  2  1  0  0  0  0
 31 26  1  0  0  0  0
 16  3  1  0  0  0  0
 25 20  1  0  0  0  0
 13  4  1  0  0  0  0
 33 23  1  0  0  0  0
 13  8  1  0  0  0  0
  1 34  1  0  0  0  0
  1 35  1  0  0  0  0
  1 36  1  0  0  0  0
  6 37  1  0  0  0  0
  6 38  1  0  0  0  0
  7 39  1  0  0  0  0
  7 40  1  0  0  0  0
  9 41  1  0  0  0  0
 10 42  1  0  0  0  0
 11 43  1  0  0  0  0
 12 44  1  0  0  0  0
 15 45  1  0  0  0  0
 15 46  1  0  0  0  0
 15 47  1  0  0  0  0
 22 48  1  0  0  0  0
 22 49  1  0  0  0  0
 22 50  1  0  0  0  0
 27 51  1  0  0  0  0
 28 52  1  0  0  0  0
 29 53  1  0  0  0  0
 30 54  1  0  0  0  0
 32 55  1  0  0  0  0
 32 56  1  0  0  0  0
 33 57  1  0  0  0  0
 33 58  1  0  0  0  0
M  CHG  1  16   1
M  CHG  1  17  -1
M  END
