
  xtb     03022215493D
 energy: -96.318492199963 gnorm: 0.000079213240 xtb: 6.4.1 (afa7bdf)
 80 82  0     0  0            999 V2000
    6.6105   -2.8148    0.9383 C   0  0  0  0  0  0  0  0  0  0  0  0
    5.7544   -1.8326    1.7506 C   0  0  0  0  0  0  0  0  0  0  0  0
    6.6595   -0.9474    2.6185 C   0  0  0  0  0  0  0  0  0  0  0  0
    4.8531   -2.6485    2.6815 C   0  0  0  0  0  0  0  0  0  0  0  0
    4.9651   -0.9522    0.7920 C   0  0  0  0  0  0  0  0  0  0  0  0
    3.5820   -0.9013    0.7884 C   0  0  0  0  0  0  0  0  0  0  0  0
    2.8972   -0.0898   -0.1136 C   0  0  0  0  0  0  0  0  0  0  0  0
    1.4279   -0.0496   -0.1075 C   0  0  0  0  0  0  0  0  0  0  0  0
    0.6793   -1.2059    0.1030 C   0  0  0  0  0  0  0  0  0  0  0  0
   -0.6999   -1.1676    0.1078 C   0  0  0  0  0  0  0  0  0  0  0  0
   -1.3851    0.0285   -0.0971 C   0  0  0  0  0  0  0  0  0  0  0  0
   -2.8545    0.0692   -0.0917 C   0  0  0  0  0  0  0  0  0  0  0  0
   -3.5864   -0.9665   -0.6638 C   0  0  0  0  0  0  0  0  0  0  0  0
   -4.9724   -0.9460   -0.6616 C   0  0  0  0  0  0  0  0  0  0  0  0
   -5.8143   -2.0619   -1.2637 C   0  0  0  0  0  0  0  0  0  0  0  0
   -4.9643   -3.1933   -1.8484 C   0  0  0  0  0  0  0  0  0  0  0  0
   -6.6822   -1.4857   -2.3910 C   0  0  0  0  0  0  0  0  0  0  0  0
   -6.7103   -2.6584   -0.1688 C   0  0  0  0  0  0  0  0  0  0  0  0
   -5.6081    0.1456   -0.0812 C   0  0  0  0  0  0  0  0  0  0  0  0
   -4.9085    1.2001    0.4941 C   0  0  0  0  0  0  0  0  0  0  0  0
   -5.6827    2.3608    1.1023 C   0  0  0  0  0  0  0  0  0  0  0  0
   -6.5719    1.8333    2.2369 C   0  0  0  0  0  0  0  0  0  0  0  0
   -6.5533    3.0059    0.0145 C   0  0  0  0  0  0  0  0  0  0  0  0
   -4.7669    3.4436    1.6796 C   0  0  0  0  0  0  0  0  0  0  0  0
   -3.5236    1.1438    0.4858 C   0  0  0  0  0  0  0  0  0  0  0  0
   -0.6363    1.1848   -0.3070 C   0  0  0  0  0  0  0  0  0  0  0  0
    0.7430    1.1464   -0.3123 C   0  0  0  0  0  0  0  0  0  0  0  0
    3.6180    0.6794   -1.0164 C   0  0  0  0  0  0  0  0  0  0  0  0
    5.0076    0.6600   -1.0320 C   0  0  0  0  0  0  0  0  0  0  0  0
    5.7508    1.5319   -2.0340 C   0  0  0  0  0  0  0  0  0  0  0  0
    7.2727    1.4172   -1.9102 C   0  0  0  0  0  0  0  0  0  0  0  0
    5.3544    1.1101   -3.4556 C   0  0  0  0  0  0  0  0  0  0  0  0
    5.3647    2.9993   -1.7996 C   0  0  0  0  0  0  0  0  0  0  0  0
    5.6572   -0.1617   -0.1237 C   0  0  0  0  0  0  0  0  0  0  0  0
    7.1637   -3.4719    1.6064 H   0  0  0  0  0  0  0  0  0  0  0  0
    5.9761   -3.4262    0.2997 H   0  0  0  0  0  0  0  0  0  0  0  0
    7.3251   -2.2930    0.3079 H   0  0  0  0  0  0  0  0  0  0  0  0
    6.0595   -0.2339    3.1797 H   0  0  0  0  0  0  0  0  0  0  0  0
    7.3706   -0.3921    2.0131 H   0  0  0  0  0  0  0  0  0  0  0  0
    7.2184   -1.5593    3.3238 H   0  0  0  0  0  0  0  0  0  0  0  0
    4.2038   -3.3118    2.1146 H   0  0  0  0  0  0  0  0  0  0  0  0
    5.4689   -3.2614    3.3370 H   0  0  0  0  0  0  0  0  0  0  0  0
    4.2431   -1.9991    3.3052 H   0  0  0  0  0  0  0  0  0  0  0  0
    3.0056   -1.4729    1.4968 H   0  0  0  0  0  0  0  0  0  0  0  0
    1.1859   -2.1494    0.2473 H   0  0  0  0  0  0  0  0  0  0  0  0
   -1.2565   -2.0755    0.2908 H   0  0  0  0  0  0  0  0  0  0  0  0
   -3.0471   -1.7760   -1.1270 H   0  0  0  0  0  0  0  0  0  0  0  0
   -5.6165   -3.9628   -2.2570 H   0  0  0  0  0  0  0  0  0  0  0  0
   -4.3437   -3.6521   -1.0821 H   0  0  0  0  0  0  0  0  0  0  0  0
   -4.3287   -2.8306   -2.6529 H   0  0  0  0  0  0  0  0  0  0  0  0
   -7.3577   -0.7196   -2.0204 H   0  0  0  0  0  0  0  0  0  0  0  0
   -6.0527   -1.0414   -3.1592 H   0  0  0  0  0  0  0  0  0  0  0  0
   -7.2789   -2.2738   -2.8459 H   0  0  0  0  0  0  0  0  0  0  0  0
   -7.3031   -3.4765   -0.5730 H   0  0  0  0  0  0  0  0  0  0  0  0
   -7.3908   -1.9154    0.2375 H   0  0  0  0  0  0  0  0  0  0  0  0
   -6.1010   -3.0431    0.6466 H   0  0  0  0  0  0  0  0  0  0  0  0
   -6.6864    0.1754   -0.0771 H   0  0  0  0  0  0  0  0  0  0  0  0
   -7.2914    1.1056    1.8721 H   0  0  0  0  0  0  0  0  0  0  0  0
   -7.1206    2.6531    2.6962 H   0  0  0  0  0  0  0  0  0  0  0  0
   -5.9616    1.3551    3.0003 H   0  0  0  0  0  0  0  0  0  0  0  0
   -5.9304    3.3562   -0.8060 H   0  0  0  0  0  0  0  0  0  0  0  0
   -7.2772    2.3016   -0.3858 H   0  0  0  0  0  0  0  0  0  0  0  0
   -7.0967    3.8555    0.4231 H   0  0  0  0  0  0  0  0  0  0  0  0
   -4.1280    3.8673    0.9082 H   0  0  0  0  0  0  0  0  0  0  0  0
   -5.3723    4.2481    2.0930 H   0  0  0  0  0  0  0  0  0  0  0  0
   -4.1459    3.0466    2.4793 H   0  0  0  0  0  0  0  0  0  0  0  0
   -2.9368    1.9221    0.9447 H   0  0  0  0  0  0  0  0  0  0  0  0
   -1.1429    2.1224   -0.4857 H   0  0  0  0  0  0  0  0  0  0  0  0
    1.3002    2.0606   -0.4592 H   0  0  0  0  0  0  0  0  0  0  0  0
    3.0751    1.2848   -1.7263 H   0  0  0  0  0  0  0  0  0  0  0  0
    7.7455    2.0670   -2.6443 H   0  0  0  0  0  0  0  0  0  0  0  0
    7.6099    1.7264   -0.9233 H   0  0  0  0  0  0  0  0  0  0  0  0
    7.6064    0.3997   -2.1008 H   0  0  0  0  0  0  0  0  0  0  0  0
    4.2872    1.2286   -3.6210 H   0  0  0  0  0  0  0  0  0  0  0  0
    5.6104    0.0657   -3.6224 H   0  0  0  0  0  0  0  0  0  0  0  0
    5.8826    1.7168   -4.1885 H   0  0  0  0  0  0  0  0  0  0  0  0
    5.9036    3.6448   -2.4903 H   0  0  0  0  0  0  0  0  0  0  0  0
    5.6150    3.2957   -0.7829 H   0  0  0  0  0  0  0  0  0  0  0  0
    4.3002    3.1575   -1.9481 H   0  0  0  0  0  0  0  0  0  0  0  0
    6.7331   -0.1957   -0.1192 H   0  0  0  0  0  0  0  0  0  0  0  0
  1  2  1  0  0  0  0
  2  3  1  0  0  0  0
  2  4  1  0  0  0  0
  2  5  1  0  0  0  0
  5  6  2  0  0  0  0
  6  7  1  0  0  0  0
  7  8  1  0  0  0  0
  8  9  2  0  0  0  0
  9 10  1  0  0  0  0
 10 11  2  0  0  0  0
 11 12  1  0  0  0  0
 12 13  2  0  0  0  0
 13 14  1  0  0  0  0
 14 15  1  0  0  0  0
 15 16  1  0  0  0  0
 15 17  1  0  0  0  0
 15 18  1  0  0  0  0
 14 19  2  0  0  0  0
 19 20  1  0  0  0  0
 20 21  1  0  0  0  0
 21 22  1  0  0  0  0
 21 23  1  0  0  0  0
 21 24  1  0  0  0  0
 20 25  2  0  0  0  0
 11 26  1  0  0  0  0
 26 27  2  0  0  0  0
  7 28  2  0  0  0  0
 28 29  1  0  0  0  0
 29 30  1  0  0  0  0
 30 31  1  0  0  0  0
 30 32  1  0  0  0  0
 30 33  1  0  0  0  0
 29 34  2  0  0  0  0
 34  5  1  0  0  0  0
 27  8  1  0  0  0  0
 25 12  1  0  0  0  0
  1 35  1  0  0  0  0
  1 36  1  0  0  0  0
  1 37  1  0  0  0  0
  3 38  1  0  0  0  0
  3 39  1  0  0  0  0
  3 40  1  0  0  0  0
  4 41  1  0  0  0  0
  4 42  1  0  0  0  0
  4 43  1  0  0  0  0
  6 44  1  0  0  0  0
  9 45  1  0  0  0  0
 10 46  1  0  0  0  0
 13 47  1  0  0  0  0
 16 48  1  0  0  0  0
 16 49  1  0  0  0  0
 16 50  1  0  0  0  0
 17 51  1  0  0  0  0
 17 52  1  0  0  0  0
 17 53  1  0  0  0  0
 18 54  1  0  0  0  0
 18 55  1  0  0  0  0
 18 56  1  0  0  0  0
 19 57  1  0  0  0  0
 22 58  1  0  0  0  0
 22 59  1  0  0  0  0
 22 60  1  0  0  0  0
 23 61  1  0  0  0  0
 23 62  1  0  0  0  0
 23 63  1  0  0  0  0
 24 64  1  0  0  0  0
 24 65  1  0  0  0  0
 24 66  1  0  0  0  0
 25 67  1  0  0  0  0
 26 68  1  0  0  0  0
 27 69  1  0  0  0  0
 28 70  1  0  0  0  0
 31 71  1  0  0  0  0
 31 72  1  0  0  0  0
 31 73  1  0  0  0  0
 32 74  1  0  0  0  0
 32 75  1  0  0  0  0
 32 76  1  0  0  0  0
 33 77  1  0  0  0  0
 33 78  1  0  0  0  0
 33 79  1  0  0  0  0
 34 80  1  0  0  0  0
M  END
