
  xtb     03022212293D
 energy: -52.804490554375 gnorm: 0.000113215152 xtb: 6.4.1 (afa7bdf)
 32 35  0     0  0            999 V2000
    4.6285    1.4856    0.2913 C   0  0  0  0  0  0  0  0  0  0  0  0
    3.8096    0.3433    0.3637 O   0  0  0  0  0  0  0  0  0  0  0  0
    2.4668    0.4957    0.2567 C   0  0  0  0  0  0  0  0  0  0  0  0
    1.8201    1.6969    0.0742 C   0  0  0  0  0  0  0  0  0  0  0  0
    0.4302    1.7488   -0.0217 C   0  0  0  0  0  0  0  0  0  0  0  0
   -0.3624    0.6197    0.0599 C   0  0  0  0  0  0  0  0  0  0  0  0
    0.2841   -0.6322    0.2457 C   0  0  0  0  0  0  0  0  0  0  0  0
   -0.4493   -1.8383    0.3370 C   0  0  0  0  0  0  0  0  0  0  0  0
    0.2018   -3.0443    0.5173 C   0  0  0  0  0  0  0  0  0  0  0  0
    1.5896   -3.1022    0.6133 C   0  0  0  0  0  0  0  0  0  0  0  0
    2.3251   -1.9479    0.5284 C   0  0  0  0  0  0  0  0  0  0  0  0
    1.6972   -0.7021    0.3447 C   0  0  0  0  0  0  0  0  0  0  0  0
   -1.9193   -1.8407    0.2425 C   0  0  0  0  0  0  0  0  0  0  0  0
   -2.5674   -2.8739    0.3176 O   0  0  0  0  0  0  0  0  0  0  0  0
   -2.5601   -0.5290    0.0542 C   0  0  0  0  0  0  0  0  0  0  0  0
   -3.9524   -0.4992   -0.0345 C   0  0  0  0  0  0  0  0  0  0  0  0
   -4.6268    0.6884   -0.2101 C   0  0  0  0  0  0  0  0  0  0  0  0
   -3.9013    1.8688   -0.2993 C   0  0  0  0  0  0  0  0  0  0  0  0
   -2.5245    1.8536   -0.2134 C   0  0  0  0  0  0  0  0  0  0  0  0
   -1.8158    0.6607   -0.0350 C   0  0  0  0  0  0  0  0  0  0  0  0
    4.5296    1.9895   -0.6752 H   0  0  0  0  0  0  0  0  0  0  0  0
    5.6491    1.1237    0.4056 H   0  0  0  0  0  0  0  0  0  0  0  0
    4.4030    2.1922    1.0961 H   0  0  0  0  0  0  0  0  0  0  0  0
    2.3723    2.6207    0.0018 H   0  0  0  0  0  0  0  0  0  0  0  0
   -0.0145    2.7207   -0.1643 H   0  0  0  0  0  0  0  0  0  0  0  0
   -0.3979   -3.9406    0.5813 H   0  0  0  0  0  0  0  0  0  0  0  0
    2.0805   -4.0535    0.7541 H   0  0  0  0  0  0  0  0  0  0  0  0
    3.4014   -1.9698    0.6003 H   0  0  0  0  0  0  0  0  0  0  0  0
   -4.4791   -1.4392    0.0397 H   0  0  0  0  0  0  0  0  0  0  0  0
   -5.7041    0.7037   -0.2776 H   0  0  0  0  0  0  0  0  0  0  0  0
   -4.4160    2.8089   -0.4369 H   0  0  0  0  0  0  0  0  0  0  0  0
   -1.9983    2.7921   -0.2869 H   0  0  0  0  0  0  0  0  0  0  0  0
  1  2  1  0  0  0  0
  2  3  1  0  0  0  0
  3  4  2  0  0  0  0
  4  5  1  0  0  0  0
  5  6  2  0  0  0  0
  6  7  1  0  0  0  0
  7  8  2  0  0  0  0
  8  9  1  0  0  0  0
  9 10  2  0  0  0  0
 10 11  1  0  0  0  0
 11 12  2  0  0  0  0
  8 13  1  0  0  0  0
 13 14  2  0  0  0  0
 13 15  1  0  0  0  0
 15 16  2  0  0  0  0
 16 17  1  0  0  0  0
 17 18  2  0  0  0  0
 18 19  1  0  0  0  0
 19 20  2  0  0  0  0
 12  3  1  0  0  0  0
 20 15  1  0  0  0  0
 20  6  1  0  0  0  0
 12  7  1  0  0  0  0
  1 21  1  0  0  0  0
  1 22  1  0  0  0  0
  1 23  1  0  0  0  0
  4 24  1  0  0  0  0
  5 25  1  0  0  0  0
  9 26  1  0  0  0  0
 10 27  1  0  0  0  0
 11 28  1  0  0  0  0
 16 29  1  0  0  0  0
 17 30  1  0  0  0  0
 18 31  1  0  0  0  0
 19 32  1  0  0  0  0
M  END
