
  xtb     03022212263D
 energy: -75.630628857695 gnorm: 0.000054638735 xtb: 6.4.1 (afa7bdf)
 42 45  0     0  0            999 V2000
   -8.1288    0.5109   -1.1757 C   0  0  0  0  0  0  0  0  0  0  0  0
   -7.5629   -0.3141   -0.1848 O   0  0  0  0  0  0  0  0  0  0  0  0
   -6.2134   -0.3401   -0.0496 C   0  0  0  0  0  0  0  0  0  0  0  0
   -5.7262   -1.1876    0.9601 C   0  0  0  0  0  0  0  0  0  0  0  0
   -4.3809   -1.3129    1.2086 C   0  0  0  0  0  0  0  0  0  0  0  0
   -3.4899   -0.5764    0.4336 C   0  0  0  0  0  0  0  0  0  0  0  0
   -3.9748    0.2683   -0.5725 C   0  0  0  0  0  0  0  0  0  0  0  0
   -5.3303    0.3986   -0.8276 C   0  0  0  0  0  0  0  0  0  0  0  0
   -2.6463    1.0665   -1.3843 S   0  0  0  0  0  0  0  0  0  0  0  0
   -1.5255    0.2326   -0.3412 C   0  0  0  0  0  0  0  0  0  0  0  0
   -2.1216   -0.5675    0.5297 N   0  0  0  0  0  4  0  0  0  0  0  0
   -1.2312   -1.3889    1.5400 B   0  0  0  0  0  4  0  0  0  0  0  0
   -1.5640   -1.0273    2.8194 F   0  0  0  0  0  0  0  0  0  0  0  0
   -1.4514   -2.7265    1.3388 F   0  0  0  0  0  0  0  0  0  0  0  0
    0.1837   -1.0619    1.2722 O   0  0  0  0  0  0  0  0  0  0  0  0
    0.5794   -0.2339    0.3550 C   0  0  0  0  0  0  0  0  0  0  0  0
    1.9999   -0.0166    0.2148 C   0  0  0  0  0  0  0  0  0  0  0  0
    2.9090   -0.6794    1.0487 C   0  0  0  0  0  0  0  0  0  0  0  0
    4.2594   -0.4796    0.9216 C   0  0  0  0  0  0  0  0  0  0  0  0
    4.7787    0.3991   -0.0508 C   0  0  0  0  0  0  0  0  0  0  0  0
    6.1176    0.5986   -0.1788 N   0  0  0  0  0  0  0  0  0  0  0  0
    6.6321    1.5585   -1.1252 C   0  0  0  0  0  0  0  0  0  0  0  0
    7.0527   -0.1448    0.6307 C   0  0  0  0  0  0  0  0  0  0  0  0
    3.8546    1.0621   -0.8848 C   0  0  0  0  0  0  0  0  0  0  0  0
    2.5049    0.8585   -0.7545 C   0  0  0  0  0  0  0  0  0  0  0  0
   -0.2265    0.4254   -0.4616 N   0  0  0  0  0  0  0  0  0  0  0  0
   -9.2051    0.3679   -1.0965 H   0  0  0  0  0  0  0  0  0  0  0  0
   -7.8900    1.5651   -1.0044 H   0  0  0  0  0  0  0  0  0  0  0  0
   -7.7976    0.2196   -2.1774 H   0  0  0  0  0  0  0  0  0  0  0  0
   -6.4476   -1.7412    1.5386 H   0  0  0  0  0  0  0  0  0  0  0  0
   -4.0008   -1.9604    1.9807 H   0  0  0  0  0  0  0  0  0  0  0  0
   -5.6619    1.0591   -1.6106 H   0  0  0  0  0  0  0  0  0  0  0  0
    2.5258   -1.3529    1.7993 H   0  0  0  0  0  0  0  0  0  0  0  0
    4.9221   -1.0049    1.5886 H   0  0  0  0  0  0  0  0  0  0  0  0
    6.1929    2.5453   -0.9576 H   0  0  0  0  0  0  0  0  0  0  0  0
    7.7091    1.6451   -1.0063 H   0  0  0  0  0  0  0  0  0  0  0  0
    6.4248    1.2529   -2.1554 H   0  0  0  0  0  0  0  0  0  0  0  0
    8.0677    0.0790    0.3123 H   0  0  0  0  0  0  0  0  0  0  0  0
    6.9601    0.1175    1.6891 H   0  0  0  0  0  0  0  0  0  0  0  0
    6.8936   -1.2206    0.5214 H   0  0  0  0  0  0  0  0  0  0  0  0
    4.2019    1.7386   -1.6477 H   0  0  0  0  0  0  0  0  0  0  0  0
    1.8069    1.3681   -1.3988 H   0  0  0  0  0  0  0  0  0  0  0  0
  1  2  1  0  0  0  0
  2  3  1  0  0  0  0
  3  4  2  0  0  0  0
  4  5  1  0  0  0  0
  5  6  2  0  0  0  0
  6  7  1  0  0  0  0
  7  8  2  0  0  0  0
  7  9  1  0  0  0  0
  9 10  1  0  0  0  0
 10 11  2  0  0  0  0
 11 12  1  0  0  0  0
 12 13  1  0  0  0  0
 12 14  1  0  0  0  0
 12 15  1  0  0  0  0
 15 16  1  0  0  0  0
 16 17  1  0  0  0  0
 17 18  2  0  0  0  0
 18 19  1  0  0  0  0
 19 20  2  0  0  0  0
 20 21  1  0  0  0  0
 21 22  1  0  0  0  0
 21 23  1  0  0  0  0
 20 24  1  0  0  0  0
 24 25  2  0  0  0  0
 16 26  2  0  0  0  0
  8  3  1  0  0  0  0
 26 10  1  0  0  0  0
 11  6  1  0  0  0  0
 25 17  1  0  0  0  0
  1 27  1  0  0  0  0
  1 28  1  0  0  0  0
  1 29  1  0  0  0  0
  4 30  1  0  0  0  0
  5 31  1  0  0  0  0
  8 32  1  0  0  0  0
 18 33  1  0  0  0  0
 19 34  1  0  0  0  0
 22 35  1  0  0  0  0
 22 36  1  0  0  0  0
 22 37  1  0  0  0  0
 23 38  1  0  0  0  0
 23 39  1  0  0  0  0
 23 40  1  0  0  0  0
 24 41  1  0  0  0  0
 25 42  1  0  0  0  0
M  CHG  1  11   1
M  CHG  1  12  -1
M  END
