
  xtb     03022212233D
 energy: -98.620962883386 gnorm: 0.000184299920 xtb: 6.4.1 (afa7bdf)
 66 70  0     0  0            999 V2000
    6.4583   -4.8220   -2.0345 C   0  0  0  0  0  0  0  0  0  0  0  0
    5.0968   -4.5911   -2.2967 O   0  0  0  0  0  0  0  0  0  0  0  0
    4.5082   -3.4874   -1.7499 C   0  0  0  0  0  0  0  0  0  0  0  0
    5.1495   -2.5545   -0.9436 C   0  0  0  0  0  0  0  0  0  0  0  0
    4.4485   -1.4747   -0.4372 C   0  0  0  0  0  0  0  0  0  0  0  0
    3.1010   -1.2931   -0.7303 C   0  0  0  0  0  0  0  0  0  0  0  0
    2.3995   -0.1914   -0.2210 N   0  0  0  0  0  0  0  0  0  0  0  0
    1.0817   -0.3393    0.2071 C   0  0  0  0  0  0  0  0  0  0  0  0
    0.6549   -1.5313    0.7969 C   0  0  0  0  0  0  0  0  0  0  0  0
   -0.6504   -1.6774    1.2095 C   0  0  0  0  0  0  0  0  0  0  0  0
   -1.5876   -0.6544    1.0393 C   0  0  0  0  0  0  0  0  0  0  0  0
   -2.9520   -0.8641    1.4902 C   0  0  0  0  0  0  0  0  0  0  0  0
   -4.0771   -0.3345    0.9753 C   0  0  0  0  0  0  0  0  0  0  0  0
   -5.3826   -0.5907    1.5992 C   0  0  0  0  0  0  0  0  0  0  0  0
   -6.5206   -0.7501    0.8081 C   0  0  0  0  0  0  0  0  0  0  0  0
   -7.7503   -1.0032    1.3845 C   0  0  0  0  0  0  0  0  0  0  0  0
   -7.8705   -1.0928    2.7616 C   0  0  0  0  0  0  0  0  0  0  0  0
   -6.7500   -0.9262    3.5584 C   0  0  0  0  0  0  0  0  0  0  0  0
   -5.5177   -0.6780    2.9844 C   0  0  0  0  0  0  0  0  0  0  0  0
   -4.1047    0.4685   -0.2612 C   0  0  0  0  0  0  0  0  0  0  0  0
   -4.7693    1.6918   -0.2875 C   0  0  0  0  0  0  0  0  0  0  0  0
   -4.8168    2.4394   -1.4498 C   0  0  0  0  0  0  0  0  0  0  0  0
   -4.2149    1.9686   -2.6046 C   0  0  0  0  0  0  0  0  0  0  0  0
   -3.5657    0.7446   -2.5919 C   0  0  0  0  0  0  0  0  0  0  0  0
   -3.5105   -0.0014   -1.4301 C   0  0  0  0  0  0  0  0  0  0  0  0
   -1.1454    0.5458    0.4768 C   0  0  0  0  0  0  0  0  0  0  0  0
    0.1597    0.7009    0.0660 C   0  0  0  0  0  0  0  0  0  0  0  0
    3.0404    1.0520   -0.1396 C   0  0  0  0  0  0  0  0  0  0  0  0
    2.8305    1.8949    0.9471 C   0  0  0  0  0  0  0  0  0  0  0  0
    3.4632    3.1224    1.0304 C   0  0  0  0  0  0  0  0  0  0  0  0
    4.3357    3.5282    0.0274 C   0  0  0  0  0  0  0  0  0  0  0  0
    5.0178    4.7108    0.0089 O   0  0  0  0  0  0  0  0  0  0  0  0
    4.8357    5.6049    1.0780 C   0  0  0  0  0  0  0  0  0  0  0  0
    4.5540    2.6817   -1.0610 C   0  0  0  0  0  0  0  0  0  0  0  0
    3.9138    1.4667   -1.1471 C   0  0  0  0  0  0  0  0  0  0  0  0
    2.4636   -2.2277   -1.5488 C   0  0  0  0  0  0  0  0  0  0  0  0
    3.1551   -3.3093   -2.0442 C   0  0  0  0  0  0  0  0  0  0  0  0
    6.6454   -4.9589   -0.9641 H   0  0  0  0  0  0  0  0  0  0  0  0
    7.0854   -4.0070   -2.4111 H   0  0  0  0  0  0  0  0  0  0  0  0
    6.7087   -5.7408   -2.5626 H   0  0  0  0  0  0  0  0  0  0  0  0
    6.1934   -2.6578   -0.6930 H   0  0  0  0  0  0  0  0  0  0  0  0
    4.9557   -0.7605    0.1947 H   0  0  0  0  0  0  0  0  0  0  0  0
    1.3604   -2.3375    0.9351 H   0  0  0  0  0  0  0  0  0  0  0  0
   -0.9610   -2.6066    1.6665 H   0  0  0  0  0  0  0  0  0  0  0  0
   -3.0501   -1.5496    2.3239 H   0  0  0  0  0  0  0  0  0  0  0  0
   -6.4316   -0.6875   -0.2671 H   0  0  0  0  0  0  0  0  0  0  0  0
   -8.6204   -1.1313    0.7568 H   0  0  0  0  0  0  0  0  0  0  0  0
   -8.8328   -1.2876    3.2116 H   0  0  0  0  0  0  0  0  0  0  0  0
   -6.8387   -0.9855    4.6338 H   0  0  0  0  0  0  0  0  0  0  0  0
   -4.6526   -0.5284    3.6140 H   0  0  0  0  0  0  0  0  0  0  0  0
   -5.2404    2.0579    0.6141 H   0  0  0  0  0  0  0  0  0  0  0  0
   -5.3283    3.3912   -1.4556 H   0  0  0  0  0  0  0  0  0  0  0  0
   -4.2553    2.5515   -3.5131 H   0  0  0  0  0  0  0  0  0  0  0  0
   -3.1033    0.3693   -3.4933 H   0  0  0  0  0  0  0  0  0  0  0  0
   -3.0091   -0.9583   -1.4203 H   0  0  0  0  0  0  0  0  0  0  0  0
   -1.8331    1.3704    0.3702 H   0  0  0  0  0  0  0  0  0  0  0  0
    0.4774    1.6341   -0.3755 H   0  0  0  0  0  0  0  0  0  0  0  0
    2.1632    1.5863    1.7383 H   0  0  0  0  0  0  0  0  0  0  0  0
    3.2715    3.7464    1.8890 H   0  0  0  0  0  0  0  0  0  0  0  0
    5.4625    6.4663    0.8521 H   0  0  0  0  0  0  0  0  0  0  0  0
    5.1548    5.1663    2.0295 H   0  0  0  0  0  0  0  0  0  0  0  0
    3.7929    5.9290    1.1596 H   0  0  0  0  0  0  0  0  0  0  0  0
    5.2295    3.0079   -1.8358 H   0  0  0  0  0  0  0  0  0  0  0  0
    4.0847    0.8253   -1.9987 H   0  0  0  0  0  0  0  0  0  0  0  0
    1.4202   -2.0961   -1.7930 H   0  0  0  0  0  0  0  0  0  0  0  0
    2.6687   -4.0351   -2.6763 H   0  0  0  0  0  0  0  0  0  0  0  0
  1  2  1  0  0  0  0
  2  3  1  0  0  0  0
  3  4  2  0  0  0  0
  4  5  1  0  0  0  0
  5  6  2  0  0  0  0
  6  7  1  0  0  0  0
  7  8  1  0  0  0  0
  8  9  2  0  0  0  0
  9 10  1  0  0  0  0
 10 11  2  0  0  0  0
 11 12  1  0  0  0  0
 12 13  2  0  0  0  0
 13 14  1  0  0  0  0
 14 15  2  0  0  0  0
 15 16  1  0  0  0  0
 16 17  2  0  0  0  0
 17 18  1  0  0  0  0
 18 19  2  0  0  0  0
 13 20  1  0  0  0  0
 20 21  2  0  0  0  0
 21 22  1  0  0  0  0
 22 23  2  0  0  0  0
 23 24  1  0  0  0  0
 24 25  2  0  0  0  0
 11 26  1  0  0  0  0
 26 27  2  0  0  0  0
  7 28  1  0  0  0  0
 28 29  2  0  0  0  0
 29 30  1  0  0  0  0
 30 31  2  0  0  0  0
 31 32  1  0  0  0  0
 32 33  1  0  0  0  0
 31 34  1  0  0  0  0
 34 35  2  0  0  0  0
  6 36  1  0  0  0  0
 36 37  2  0  0  0  0
 37  3  1  0  0  0  0
 27  8  1  0  0  0  0
 35 28  1  0  0  0  0
 19 14  1  0  0  0  0
 25 20  1  0  0  0  0
  1 38  1  0  0  0  0
  1 39  1  0  0  0  0
  1 40  1  0  0  0  0
  4 41  1  0  0  0  0
  5 42  1  0  0  0  0
  9 43  1  0  0  0  0
 10 44  1  0  0  0  0
 12 45  1  0  0  0  0
 15 46  1  0  0  0  0
 16 47  1  0  0  0  0
 17 48  1  0  0  0  0
 18 49  1  0  0  0  0
 19 50  1  0  0  0  0
 21 51  1  0  0  0  0
 22 52  1  0  0  0  0
 23 53  1  0  0  0  0
 24 54  1  0  0  0  0
 25 55  1  0  0  0  0
 26 56  1  0  0  0  0
 27 57  1  0  0  0  0
 29 58  1  0  0  0  0
 30 59  1  0  0  0  0
 33 60  1  0  0  0  0
 33 61  1  0  0  0  0
 33 62  1  0  0  0  0
 34 63  1  0  0  0  0
 35 64  1  0  0  0  0
 36 65  1  0  0  0  0
 37 66  1  0  0  0  0
M  END
