
  xtb     03022213513D
 energy: -62.445575223509 gnorm: 0.000081198942 xtb: 6.4.1 (afa7bdf)
 36 39  0     0  0            999 V2000
    6.0918    1.7244    0.1299 C   0  0  0  0  0  0  0  0  0  0  0  0
    5.7377    0.3645    0.0401 O   0  0  0  0  0  0  0  0  0  0  0  0
    4.4254    0.0290    0.0229 C   0  0  0  0  0  0  0  0  0  0  0  0
    3.3654    0.9335    0.0842 C   0  0  0  0  0  0  0  0  0  0  0  0
    2.0678    0.4723    0.0604 C   0  0  0  0  0  0  0  0  0  0  0  0
    1.7736   -0.8936   -0.0246 C   0  0  0  0  0  0  0  0  0  0  0  0
    0.3745   -1.2985   -0.0417 C   0  0  0  0  0  0  0  0  0  0  0  0
   -0.5186   -0.3542    0.0327 N   0  0  0  0  0  0  0  0  0  0  0  0
   -1.8418   -0.6511    0.0246 C   0  0  0  0  0  0  0  0  0  0  0  0
   -2.2712   -1.9727   -0.0624 C   0  0  0  0  0  0  0  0  0  0  0  0
   -3.6368   -2.3038   -0.0706 C   0  0  0  0  0  0  0  0  0  0  0  0
   -4.5659   -1.3076    0.0079 C   0  0  0  0  0  0  0  0  0  0  0  0
   -4.1839    0.0535    0.0977 C   0  0  0  0  0  0  0  0  0  0  0  0
   -5.1371    1.0872    0.1788 C   0  0  0  0  0  0  0  0  0  0  0  0
   -4.7443    2.3962    0.2649 C   0  0  0  0  0  0  0  0  0  0  0  0
   -3.3834    2.7273    0.2738 C   0  0  0  0  0  0  0  0  0  0  0  0
   -2.4316    1.7447    0.1963 C   0  0  0  0  0  0  0  0  0  0  0  0
   -2.8095    0.3959    0.1070 C   0  0  0  0  0  0  0  0  0  0  0  0
   -1.3627   -2.9730   -0.1419 O   0  0  0  0  0  0  0  0  0  0  0  0
   -0.0191   -2.7248   -0.1392 C   0  0  0  0  0  0  0  0  0  0  0  0
    0.7123   -3.6814   -0.2157 O   0  0  0  0  0  0  0  0  0  0  0  0
    2.8453   -1.7932   -0.0869 C   0  0  0  0  0  0  0  0  0  0  0  0
    4.1422   -1.3374   -0.0633 C   0  0  0  0  0  0  0  0  0  0  0  0
    7.1804    1.7455    0.1305 H   0  0  0  0  0  0  0  0  0  0  0  0
    5.7211    2.1753    1.0558 H   0  0  0  0  0  0  0  0  0  0  0  0
    5.7198    2.2936   -0.7276 H   0  0  0  0  0  0  0  0  0  0  0  0
    3.5446    1.9953    0.1504 H   0  0  0  0  0  0  0  0  0  0  0  0
    1.2475    1.1702    0.1077 H   0  0  0  0  0  0  0  0  0  0  0  0
   -3.9140   -3.3437   -0.1395 H   0  0  0  0  0  0  0  0  0  0  0  0
   -5.6188   -1.5481    0.0025 H   0  0  0  0  0  0  0  0  0  0  0  0
   -6.1859    0.8278    0.1717 H   0  0  0  0  0  0  0  0  0  0  0  0
   -5.4830    3.1817    0.3266 H   0  0  0  0  0  0  0  0  0  0  0  0
   -3.0899    3.7644    0.3423 H   0  0  0  0  0  0  0  0  0  0  0  0
   -1.3790    1.9784    0.2017 H   0  0  0  0  0  0  0  0  0  0  0  0
    2.6562   -2.8511   -0.1534 H   0  0  0  0  0  0  0  0  0  0  0  0
    4.9707   -2.0264   -0.1106 H   0  0  0  0  0  0  0  0  0  0  0  0
  1  2  1  0  0  0  0
  2  3  1  0  0  0  0
  3  4  2  0  0  0  0
  4  5  1  0  0  0  0
  5  6  2  0  0  0  0
  6  7  1  0  0  0  0
  7  8  2  0  0  0  0
  8  9  1  0  0  0  0
  9 10  2  0  0  0  0
 10 11  1  0  0  0  0
 11 12  2  0  0  0  0
 12 13  1  0  0  0  0
 13 14  2  0  0  0  0
 14 15  1  0  0  0  0
 15 16  2  0  0  0  0
 16 17  1  0  0  0  0
 17 18  2  0  0  0  0
 10 19  1  0  0  0  0
 19 20  1  0  0  0  0
 20 21  2  0  0  0  0
  6 22  1  0  0  0  0
 22 23  2  0  0  0  0
 23  3  1  0  0  0  0
 20  7  1  0  0  0  0
 18  9  1  0  0  0  0
 18 13  1  0  0  0  0
  1 24  1  0  0  0  0
  1 25  1  0  0  0  0
  1 26  1  0  0  0  0
  4 27  1  0  0  0  0
  5 28  1  0  0  0  0
 11 29  1  0  0  0  0
 12 30  1  0  0  0  0
 14 31  1  0  0  0  0
 15 32  1  0  0  0  0
 16 33  1  0  0  0  0
 17 34  1  0  0  0  0
 22 35  1  0  0  0  0
 23 36  1  0  0  0  0
M  END
