
  xtb     03022213403D
 energy: -159.706188871888 gnorm: 0.000448165689 xtb: 6.4.1 (afa7bdf)
 98104  0     0  0            999 V2000
  -11.7069    2.1975   -1.2555 C   0  0  0  0  0  0  0  0  0  0  0  0
  -10.2135    2.1923   -0.9669 C   0  0  0  0  0  0  0  0  0  0  0  0
   -9.9516    2.4563    0.4138 O   0  0  0  0  0  0  0  0  0  0  0  0
   -9.9211    3.7244    0.7968 C   0  0  0  0  0  0  0  0  0  0  0  0
  -10.0841    4.6746    0.0774 O   0  0  0  0  0  0  0  0  0  0  0  0
   -9.6553    3.8506    2.2978 C   0  0  0  0  0  0  0  0  0  0  0  0
   -9.0988    2.7074    2.8872 O   0  0  0  0  0  0  0  0  0  0  0  0
   -7.8588    2.3039    2.4888 C   0  0  0  0  0  0  0  0  0  0  0  0
   -7.3754    1.1419    3.0925 C   0  0  0  0  0  0  0  0  0  0  0  0
   -6.1298    0.6568    2.7705 C   0  0  0  0  0  0  0  0  0  0  0  0
   -5.3175    1.3037    1.8318 C   0  0  0  0  0  0  0  0  0  0  0  0
   -4.0164    0.7418    1.5258 C   0  0  0  0  0  0  0  0  0  0  0  0
   -3.1533    1.1761    0.5992 C   0  0  0  0  0  0  0  0  0  0  0  0
   -1.8504    0.5596    0.3830 C   0  0  0  0  0  0  0  0  0  0  0  0
   -0.6982    1.3652    0.4058 C   0  0  0  0  0  0  0  0  0  0  0  0
   -0.5716    2.7512    0.6946 C   0  0  0  0  0  0  0  0  0  0  0  0
   -1.6330    3.7295    1.0586 C   0  0  0  0  0  0  0  0  0  0  0  0
    0.7713    3.0365    0.6002 C   0  0  0  0  0  0  0  0  0  0  0  0
    1.4609    1.8548    0.2621 C   0  0  0  0  0  0  0  0  0  0  0  0
    2.8780    1.8304    0.0872 C   0  0  0  0  0  0  0  0  0  0  0  0
    3.6609    0.8224   -0.3447 C   0  0  0  0  0  0  0  0  0  0  0  0
    5.0982    0.8669   -0.4834 C   0  0  0  0  0  0  0  0  0  0  0  0
    5.8683    2.0183   -0.3079 C   0  0  0  0  0  0  0  0  0  0  0  0
    7.2432    1.9985   -0.4432 C   0  0  0  0  0  0  0  0  0  0  0  0
    7.8964    0.8108   -0.7563 C   0  0  0  0  0  0  0  0  0  0  0  0
    9.2455    0.6712   -0.9082 O   0  0  0  0  0  0  0  0  0  0  0  0
   10.0657    1.7854   -0.6852 C   0  0  0  0  0  0  0  0  0  0  0  0
   11.5331    1.3734   -0.7477 C   0  0  0  0  0  0  0  0  0  0  0  0
   12.4190    2.1568   -0.9693 O   0  0  0  0  0  0  0  0  0  0  0  0
   11.6950    0.0880   -0.4867 O   0  0  0  0  0  0  0  0  0  0  0  0
   13.0291   -0.4261   -0.5235 C   0  0  0  0  0  0  0  0  0  0  0  0
   13.4429   -0.7803   -1.9441 C   0  0  0  0  0  0  0  0  0  0  0  0
    7.1413   -0.3492   -0.9433 C   0  0  0  0  0  0  0  0  0  0  0  0
    5.7737   -0.3171   -0.8133 C   0  0  0  0  0  0  0  0  0  0  0  0
    0.5557    0.8509    0.1564 N   0  0  0  0  0  4  0  0  0  0  0  0
    0.8306   -0.6523   -0.0210 B   0  0  0  0  0  4  0  0  0  0  0  0
    1.3130   -0.9314   -1.2959 F   0  0  0  0  0  0  0  0  0  0  0  0
    1.7374   -1.0661    0.9267 F   0  0  0  0  0  0  0  0  0  0  0  0
   -0.5113   -1.4297    0.1106 N   0  0  0  0  0  0  0  0  0  0  0  0
   -1.7444   -0.8120    0.1626 C   0  0  0  0  0  0  0  0  0  0  0  0
   -2.7409   -1.7989   -0.1375 C   0  0  0  0  0  0  0  0  0  0  0  0
   -4.1276   -1.7821   -0.2997 C   0  0  0  0  0  0  0  0  0  0  0  0
   -4.7705   -2.9545   -0.6285 C   0  0  0  0  0  0  0  0  0  0  0  0
   -4.0743   -4.1573   -0.7914 C   0  0  0  0  0  0  0  0  0  0  0  0
   -2.7067   -4.1980   -0.6611 C   0  0  0  0  0  0  0  0  0  0  0  0
   -2.0369   -3.0122   -0.3562 C   0  0  0  0  0  0  0  0  0  0  0  0
   -0.6529   -2.7306   -0.1698 C   0  0  0  0  0  0  0  0  0  0  0  0
    0.3982   -3.7033   -0.2894 C   0  0  0  0  0  0  0  0  0  0  0  0
    0.4442   -4.5061   -1.4066 N   0  0  0  0  0  0  0  0  0  0  0  0
    1.4678   -5.3910   -1.2996 C   0  0  0  0  0  0  0  0  0  0  0  0
    1.7974   -6.3418   -2.3941 C   0  0  0  0  0  0  0  0  0  0  0  0
    2.0454   -5.2058   -0.0672 C   0  0  0  0  0  0  0  0  0  0  0  0
    1.3823   -4.1448    0.5814 C   0  0  0  0  0  0  0  0  0  0  0  0
    1.6394   -3.6984    1.9767 C   0  0  0  0  0  0  0  0  0  0  0  0
   -5.8139    2.4642    1.2376 C   0  0  0  0  0  0  0  0  0  0  0  0
   -7.0620    2.9622    1.5571 C   0  0  0  0  0  0  0  0  0  0  0  0
  -12.1168    3.1888   -1.0779 H   0  0  0  0  0  0  0  0  0  0  0  0
  -12.2162    1.4827   -0.6139 H   0  0  0  0  0  0  0  0  0  0  0  0
  -11.8771    1.9278   -2.2937 H   0  0  0  0  0  0  0  0  0  0  0  0
   -9.7061    2.9493   -1.5737 H   0  0  0  0  0  0  0  0  0  0  0  0
   -9.7760    1.2094   -1.1516 H   0  0  0  0  0  0  0  0  0  0  0  0
  -10.6210    3.9942    2.7938 H   0  0  0  0  0  0  0  0  0  0  0  0
   -9.0442    4.7470    2.4694 H   0  0  0  0  0  0  0  0  0  0  0  0
   -8.0020    0.6410    3.8131 H   0  0  0  0  0  0  0  0  0  0  0  0
   -5.7711   -0.2451    3.2450 H   0  0  0  0  0  0  0  0  0  0  0  0
   -3.7335   -0.1132    2.1276 H   0  0  0  0  0  0  0  0  0  0  0  0
   -3.3770    2.0391   -0.0093 H   0  0  0  0  0  0  0  0  0  0  0  0
   -2.2181    4.0150    0.1836 H   0  0  0  0  0  0  0  0  0  0  0  0
   -2.3100    3.3175    1.8048 H   0  0  0  0  0  0  0  0  0  0  0  0
   -1.1712    4.6295    1.4589 H   0  0  0  0  0  0  0  0  0  0  0  0
    1.2325    3.9936    0.7532 H   0  0  0  0  0  0  0  0  0  0  0  0
    3.3334    2.7795    0.3436 H   0  0  0  0  0  0  0  0  0  0  0  0
    3.2199   -0.1220   -0.6100 H   0  0  0  0  0  0  0  0  0  0  0  0
    5.3913    2.9562   -0.0691 H   0  0  0  0  0  0  0  0  0  0  0  0
    7.7943    2.9163   -0.3059 H   0  0  0  0  0  0  0  0  0  0  0  0
    9.8968    2.2155    0.3143 H   0  0  0  0  0  0  0  0  0  0  0  0
    9.9016    2.5736   -1.4333 H   0  0  0  0  0  0  0  0  0  0  0  0
   13.0060   -1.3122    0.1137 H   0  0  0  0  0  0  0  0  0  0  0  0
   13.7095    0.3221   -0.1037 H   0  0  0  0  0  0  0  0  0  0  0  0
   12.7309   -1.4778   -2.3781 H   0  0  0  0  0  0  0  0  0  0  0  0
   13.4765    0.1177   -2.5560 H   0  0  0  0  0  0  0  0  0  0  0  0
   14.4286   -1.2365   -1.9337 H   0  0  0  0  0  0  0  0  0  0  0  0
    7.6611   -1.2615   -1.1897 H   0  0  0  0  0  0  0  0  0  0  0  0
    5.2007   -1.2211   -0.9573 H   0  0  0  0  0  0  0  0  0  0  0  0
   -4.6931   -0.8724   -0.1789 H   0  0  0  0  0  0  0  0  0  0  0  0
   -5.8430   -2.9499   -0.7586 H   0  0  0  0  0  0  0  0  0  0  0  0
   -4.6228   -5.0567   -1.0295 H   0  0  0  0  0  0  0  0  0  0  0  0
   -2.1574   -5.1189   -0.7896 H   0  0  0  0  0  0  0  0  0  0  0  0
   -0.1028   -4.3467   -2.2364 H   0  0  0  0  0  0  0  0  0  0  0  0
    2.6084   -6.9943   -2.0844 H   0  0  0  0  0  0  0  0  0  0  0  0
    0.9328   -6.9551   -2.6498 H   0  0  0  0  0  0  0  0  0  0  0  0
    2.1074   -5.8045   -3.2909 H   0  0  0  0  0  0  0  0  0  0  0  0
    2.8598   -5.7726    0.3394 H   0  0  0  0  0  0  0  0  0  0  0  0
    0.8418   -3.0498    2.3270 H   0  0  0  0  0  0  0  0  0  0  0  0
    2.5717   -3.1399    2.0293 H   0  0  0  0  0  0  0  0  0  0  0  0
    1.7188   -4.5625    2.6356 H   0  0  0  0  0  0  0  0  0  0  0  0
   -5.2174    2.9984    0.5145 H   0  0  0  0  0  0  0  0  0  0  0  0
   -7.4032    3.8636    1.0706 H   0  0  0  0  0  0  0  0  0  0  0  0
  1  2  1  0  0  0  0
  2  3  1  0  0  0  0
  3  4  1  0  0  0  0
  4  5  2  0  0  0  0
  4  6  1  0  0  0  0
  6  7  1  0  0  0  0
  7  8  1  0  0  0  0
  8  9  2  0  0  0  0
  9 10  1  0  0  0  0
 10 11  2  0  0  0  0
 11 12  1  0  0  0  0
 12 13  2  0  0  0  0
 13 14  1  0  0  0  0
 14 15  2  0  0  0  0
 15 16  1  0  0  0  0
 16 17  1  0  0  0  0
 16 18  2  0  0  0  0
 18 19  1  0  0  0  0
 19 20  1  0  0  0  0
 20 21  2  0  0  0  0
 21 22  1  0  0  0  0
 22 23  2  0  0  0  0
 23 24  1  0  0  0  0
 24 25  2  0  0  0  0
 25 26  1  0  0  0  0
 26 27  1  0  0  0  0
 27 28  1  0  0  0  0
 28 29  2  0  0  0  0
 28 30  1  0  0  0  0
 30 31  1  0  0  0  0
 31 32  1  0  0  0  0
 25 33  1  0  0  0  0
 33 34  2  0  0  0  0
 19 35  2  0  0  0  0
 35 36  1  0  0  0  0
 36 37  1  0  0  0  0
 36 38  1  0  0  0  0
 36 39  1  0  0  0  0
 39 40  1  0  0  0  0
 40 41  2  0  0  0  0
 41 42  1  0  0  0  0
 42 43  2  0  0  0  0
 43 44  1  0  0  0  0
 44 45  2  0  0  0  0
 45 46  1  0  0  0  0
 46 47  2  0  0  0  0
 47 48  1  0  0  0  0
 48 49  1  0  0  0  0
 49 50  1  0  0  0  0
 50 51  1  0  0  0  0
 50 52  2  0  0  0  0
 52 53  1  0  0  0  0
 53 54  1  0  0  0  0
 11 55  1  0  0  0  0
 55 56  2  0  0  0  0
 56  8  1  0  0  0  0
 40 14  1  0  0  0  0
 46 41  1  0  0  0  0
 53 48  2  0  0  0  0
 35 15  1  0  0  0  0
 47 39  1  0  0  0  0
 34 22  1  0  0  0  0
  1 57  1  0  0  0  0
  1 58  1  0  0  0  0
  1 59  1  0  0  0  0
  2 60  1  0  0  0  0
  2 61  1  0  0  0  0
  6 62  1  0  0  0  0
  6 63  1  0  0  0  0
  9 64  1  0  0  0  0
 10 65  1  0  0  0  0
 12 66  1  0  0  0  0
 13 67  1  0  0  0  0
 17 68  1  0  0  0  0
 17 69  1  0  0  0  0
 17 70  1  0  0  0  0
 18 71  1  0  0  0  0
 20 72  1  0  0  0  0
 21 73  1  0  0  0  0
 23 74  1  0  0  0  0
 24 75  1  0  0  0  0
 27 76  1  0  0  0  0
 27 77  1  0  0  0  0
 31 78  1  0  0  0  0
 31 79  1  0  0  0  0
 32 80  1  0  0  0  0
 32 81  1  0  0  0  0
 32 82  1  0  0  0  0
 33 83  1  0  0  0  0
 34 84  1  0  0  0  0
 42 85  1  0  0  0  0
 43 86  1  0  0  0  0
 44 87  1  0  0  0  0
 45 88  1  0  0  0  0
 49 89  1  0  0  0  0
 51 90  1  0  0  0  0
 51 91  1  0  0  0  0
 51 92  1  0  0  0  0
 52 93  1  0  0  0  0
 54 94  1  0  0  0  0
 54 95  1  0  0  0  0
 54 96  1  0  0  0  0
 55 97  1  0  0  0  0
 56 98  1  0  0  0  0
M  CHG  1  35   1
M  CHG  1  36  -1
M  END
