
  xtb     03022215213D
 energy: -81.800980280993 gnorm: 0.000151285378 xtb: 6.4.1 (afa7bdf)
 64 65  0     0  0            999 V2000
    8.8063   -1.3086   -2.7958 C   0  0  0  0  0  0  0  0  0  0  0  0
    8.3067   -1.0076   -1.3881 C   0  0  0  0  0  0  0  0  0  0  0  0
    7.3870    0.2111   -1.3596 C   0  0  0  0  0  0  0  0  0  0  0  0
    6.9054    0.5282    0.0553 C   0  0  0  0  0  0  0  0  0  0  0  0
    5.9451    1.7245    0.1204 C   0  0  0  0  0  0  0  0  0  0  0  0
    4.4675    1.3365    0.2027 C   0  0  0  0  0  0  0  0  0  0  0  0
    3.9451    0.6322   -1.0474 C   0  0  0  0  0  0  0  0  0  0  0  0
    2.4290    0.4221   -1.0303 C   0  0  0  0  0  0  0  0  0  0  0  0
    1.9879   -0.6420   -0.0279 C   0  0  0  0  0  0  0  0  0  0  0  0
    0.4704   -0.7926    0.0865 C   0  0  0  0  0  0  0  0  0  0  0  0
   -0.2135   -1.2876   -1.1951 C   0  0  0  0  0  0  0  0  0  0  0  0
   -0.8668   -0.1529   -1.9879 C   0  0  0  0  0  0  0  0  0  0  0  0
   -1.8329    0.5505   -1.2305 O   0  0  0  0  0  0  0  0  0  0  0  0
   -2.9966   -0.0297   -0.8394 C   0  0  0  0  0  0  0  0  0  0  0  0
   -3.6504    0.6202    0.1843 C   0  0  0  0  0  0  0  0  0  0  0  0
   -4.8887    0.1882    0.6907 C   0  0  0  0  0  0  0  0  0  0  0  0
   -5.5389    0.8602    1.7360 C   0  0  0  0  0  0  0  0  0  0  0  0
   -6.7552    0.4229    2.2393 C   0  0  0  0  0  0  0  0  0  0  0  0
   -7.3823    1.0657    3.2709 N   0  0  0  0  0  0  0  0  0  0  0  0
   -8.7017    0.6718    3.6994 C   0  0  0  0  0  0  0  0  0  0  0  0
   -6.7725    2.2228    3.8764 C   0  0  0  0  0  0  0  0  0  0  0  0
   -7.3378   -0.7371    1.6544 C   0  0  0  0  0  0  0  0  0  0  0  0
   -6.7251   -1.4030    0.6382 C   0  0  0  0  0  0  0  0  0  0  0  0
   -5.4844   -0.9705    0.1212 C   0  0  0  0  0  0  0  0  0  0  0  0
   -4.8249   -1.6258   -0.9192 C   0  0  0  0  0  0  0  0  0  0  0  0
   -3.6050   -1.1842   -1.4106 C   0  0  0  0  0  0  0  0  0  0  0  0
   -3.0818   -1.9418   -2.4774 C   0  0  0  0  0  0  0  0  0  0  0  0
   -2.7469   -2.6237   -3.3404 N   0  0  0  0  0  0  0  0  0  0  0  0
    7.9701   -1.5059   -3.4633 H   0  0  0  0  0  0  0  0  0  0  0  0
    9.3659   -0.4632   -3.1906 H   0  0  0  0  0  0  0  0  0  0  0  0
    9.4572   -2.1800   -2.7943 H   0  0  0  0  0  0  0  0  0  0  0  0
    7.7670   -1.8756   -1.0018 H   0  0  0  0  0  0  0  0  0  0  0  0
    9.1608   -0.8311   -0.7299 H   0  0  0  0  0  0  0  0  0  0  0  0
    7.9266    1.0755   -1.7549 H   0  0  0  0  0  0  0  0  0  0  0  0
    6.5329    0.0295   -2.0131 H   0  0  0  0  0  0  0  0  0  0  0  0
    7.7834    0.7353    0.6720 H   0  0  0  0  0  0  0  0  0  0  0  0
    6.4174   -0.3527    0.4779 H   0  0  0  0  0  0  0  0  0  0  0  0
    6.1785    2.3209    1.0056 H   0  0  0  0  0  0  0  0  0  0  0  0
    6.1026    2.3641   -0.7508 H   0  0  0  0  0  0  0  0  0  0  0  0
    3.8815    2.2461    0.3601 H   0  0  0  0  0  0  0  0  0  0  0  0
    4.3232    0.6972    1.0758 H   0  0  0  0  0  0  0  0  0  0  0  0
    4.2025    1.2386   -1.9196 H   0  0  0  0  0  0  0  0  0  0  0  0
    4.4330   -0.3376   -1.1564 H   0  0  0  0  0  0  0  0  0  0  0  0
    2.1135    0.1202   -2.0311 H   0  0  0  0  0  0  0  0  0  0  0  0
    1.9372    1.3686   -0.7935 H   0  0  0  0  0  0  0  0  0  0  0  0
    2.4228   -1.6037   -0.3115 H   0  0  0  0  0  0  0  0  0  0  0  0
    2.3731   -0.3844    0.9605 H   0  0  0  0  0  0  0  0  0  0  0  0
    0.2647   -1.4979    0.8949 H   0  0  0  0  0  0  0  0  0  0  0  0
    0.0315    0.1656    0.3734 H   0  0  0  0  0  0  0  0  0  0  0  0
   -0.9847   -2.0175   -0.9404 H   0  0  0  0  0  0  0  0  0  0  0  0
    0.5033   -1.7907   -1.8447 H   0  0  0  0  0  0  0  0  0  0  0  0
   -0.1300    0.6139   -2.2371 H   0  0  0  0  0  0  0  0  0  0  0  0
   -1.2997   -0.5357   -2.9178 H   0  0  0  0  0  0  0  0  0  0  0  0
   -3.1802    1.4975    0.6024 H   0  0  0  0  0  0  0  0  0  0  0  0
   -5.0552    1.7373    2.1325 H   0  0  0  0  0  0  0  0  0  0  0  0
   -9.4149    0.6960    2.8696 H   0  0  0  0  0  0  0  0  0  0  0  0
   -9.0540    1.3596    4.4643 H   0  0  0  0  0  0  0  0  0  0  0  0
   -8.6964   -0.3357    4.1278 H   0  0  0  0  0  0  0  0  0  0  0  0
   -7.3672    2.5458    4.7273 H   0  0  0  0  0  0  0  0  0  0  0  0
   -5.7681    1.9846    4.2366 H   0  0  0  0  0  0  0  0  0  0  0  0
   -6.7006    3.0570    3.1697 H   0  0  0  0  0  0  0  0  0  0  0  0
   -8.2815   -1.1053    2.0214 H   0  0  0  0  0  0  0  0  0  0  0  0
   -7.1867   -2.2821    0.2114 H   0  0  0  0  0  0  0  0  0  0  0  0
   -5.2746   -2.5040   -1.3623 H   0  0  0  0  0  0  0  0  0  0  0  0
  1  2  1  0  0  0  0
  2  3  1  0  0  0  0
  3  4  1  0  0  0  0
  4  5  1  0  0  0  0
  5  6  1  0  0  0  0
  6  7  1  0  0  0  0
  7  8  1  0  0  0  0
  8  9  1  0  0  0  0
  9 10  1  0  0  0  0
 10 11  1  0  0  0  0
 11 12  1  0  0  0  0
 12 13  1  0  0  0  0
 13 14  1  0  0  0  0
 14 15  2  0  0  0  0
 15 16  1  0  0  0  0
 16 17  2  0  0  0  0
 17 18  1  0  0  0  0
 18 19  1  0  0  0  0
 19 20  1  0  0  0  0
 19 21  1  0  0  0  0
 18 22  2  0  0  0  0
 22 23  1  0  0  0  0
 23 24  2  0  0  0  0
 24 25  1  0  0  0  0
 25 26  2  0  0  0  0
 26 27  1  0  0  0  0
 27 28  3  0  0  0  0
 26 14  1  0  0  0  0
 24 16  1  0  0  0  0
  1 29  1  0  0  0  0
  1 30  1  0  0  0  0
  1 31  1  0  0  0  0
  2 32  1  0  0  0  0
  2 33  1  0  0  0  0
  3 34  1  0  0  0  0
  3 35  1  0  0  0  0
  4 36  1  0  0  0  0
  4 37  1  0  0  0  0
  5 38  1  0  0  0  0
  5 39  1  0  0  0  0
  6 40  1  0  0  0  0
  6 41  1  0  0  0  0
  7 42  1  0  0  0  0
  7 43  1  0  0  0  0
  8 44  1  0  0  0  0
  8 45  1  0  0  0  0
  9 46  1  0  0  0  0
  9 47  1  0  0  0  0
 10 48  1  0  0  0  0
 10 49  1  0  0  0  0
 11 50  1  0  0  0  0
 11 51  1  0  0  0  0
 12 52  1  0  0  0  0
 12 53  1  0  0  0  0
 15 54  1  0  0  0  0
 17 55  1  0  0  0  0
 20 56  1  0  0  0  0
 20 57  1  0  0  0  0
 20 58  1  0  0  0  0
 21 59  1  0  0  0  0
 21 60  1  0  0  0  0
 21 61  1  0  0  0  0
 22 62  1  0  0  0  0
 23 63  1  0  0  0  0
 25 64  1  0  0  0  0
M  END
