
  xtb     03022212573D
 energy: -28.910685082900 gnorm: 0.000090822972 xtb: 6.4.1 (afa7bdf)
 20 21  0     0  0            999 V2000
    3.1416    0.1679   -0.0767 C   0  0  0  0  0  0  0  0  0  0  0  0
    2.3777    1.0973   -0.7624 C   0  0  0  0  0  0  0  0  0  0  0  0
    0.9976    1.0297   -0.7287 C   0  0  0  0  0  0  0  0  0  0  0  0
    0.3638    0.0196   -0.0088 C   0  0  0  0  0  0  0  0  0  0  0  0
   -1.0313   -0.0550    0.0253 N   0  0  0  0  0  0  0  0  0  0  0  0
   -1.7840   -0.4902    1.0792 C   0  0  0  0  0  0  0  0  0  0  0  0
   -3.1029   -0.4125    0.7377 C   0  0  0  0  0  0  0  0  0  0  0  0
   -3.1613    0.0773   -0.5850 C   0  0  0  0  0  0  0  0  0  0  0  0
   -1.8764    0.2946   -0.9898 C   0  0  0  0  0  0  0  0  0  0  0  0
    1.1359   -0.9154    0.6768 C   0  0  0  0  0  0  0  0  0  0  0  0
    2.5153   -0.8357    0.6431 C   0  0  0  0  0  0  0  0  0  0  0  0
    4.2192    0.2254   -0.1031 H   0  0  0  0  0  0  0  0  0  0  0  0
    2.8588    1.8858   -1.3221 H   0  0  0  0  0  0  0  0  0  0  0  0
    0.4066    1.7689   -1.2475 H   0  0  0  0  0  0  0  0  0  0  0  0
   -1.3306   -0.7844    2.0048 H   0  0  0  0  0  0  0  0  0  0  0  0
   -3.9369   -0.6747    1.3583 H   0  0  0  0  0  0  0  0  0  0  0  0
   -4.0476    0.2473   -1.1639 H   0  0  0  0  0  0  0  0  0  0  0  0
   -1.5023    0.6331   -1.9355 H   0  0  0  0  0  0  0  0  0  0  0  0
    0.6529   -1.7120    1.2220 H   0  0  0  0  0  0  0  0  0  0  0  0
    3.1043   -1.5670    1.1765 H   0  0  0  0  0  0  0  0  0  0  0  0
  1  2  2  0  0  0  0
  2  3  1  0  0  0  0
  3  4  2  0  0  0  0
  4  5  1  0  0  0  0
  5  6  1  0  0  0  0
  6  7  2  0  0  0  0
  7  8  1  0  0  0  0
  8  9  2  0  0  0  0
  4 10  1  0  0  0  0
 10 11  2  0  0  0  0
 11  1  1  0  0  0  0
  9  5  1  0  0  0  0
  1 12  1  0  0  0  0
  2 13  1  0  0  0  0
  3 14  1  0  0  0  0
  6 15  1  0  0  0  0
  7 16  1  0  0  0  0
  8 17  1  0  0  0  0
  9 18  1  0  0  0  0
 10 19  1  0  0  0  0
 11 20  1  0  0  0  0
M  END
