
  xtb     03022216063D
 energy: -94.753441259884 gnorm: 0.000231264534 xtb: 6.4.1 (afa7bdf)
 52 54  0     0  0            999 V2000
    2.9873    4.2436   -0.4283 C   0  0  0  0  0  0  0  0  0  0  0  0
    1.6638    3.8484    0.2134 C   0  0  0  0  0  0  0  0  0  0  0  0
    0.5082    3.9849   -0.7874 C   0  0  0  0  0  0  0  0  0  0  0  0
   -0.7833    3.5277   -0.1650 C   0  0  0  0  0  0  0  0  0  0  0  0
   -1.6486    4.2959    0.1804 O   0  0  0  0  0  0  0  0  0  0  0  0
   -0.9461    2.0604    0.0326 C   0  0  0  0  0  0  0  0  0  0  0  0
   -1.9462    1.5672    0.8700 C   0  0  0  0  0  0  0  0  0  0  0  0
   -2.1621    0.2034    1.0980 C   0  0  0  0  0  0  0  0  0  0  0  0
   -1.4339   -0.8038    0.4674 C   0  0  0  0  0  0  0  0  0  0  0  0
   -1.6635   -2.2395    0.7809 C   0  0  0  0  0  0  0  0  0  0  0  0
   -2.2984   -2.5691    1.7538 O   0  0  0  0  0  0  0  0  0  0  0  0
   -1.0166   -3.2201   -0.1653 C   0  0  0  0  0  0  0  0  0  0  0  0
   -1.4810   -4.6553    0.0732 C   0  0  0  0  0  0  0  0  0  0  0  0
   -2.9151   -4.8679   -0.3959 C   0  0  0  0  0  0  0  0  0  0  0  0
   -0.4591   -0.3062   -0.4012 C   0  0  0  0  0  0  0  0  0  0  0  0
   -0.2033    1.0478   -0.5808 C   0  0  0  0  0  0  0  0  0  0  0  0
    0.8577    1.1861   -1.4400 O   0  0  0  0  0  0  0  0  0  0  0  0
    1.3813   -0.1111   -1.6291 C   0  0  0  0  0  0  0  0  0  0  0  0
    2.6984   -0.2854   -0.8343 C   0  0  0  0  0  0  0  0  0  0  0  0
    2.3540   -0.3057    0.6427 C   0  0  0  0  0  0  0  0  0  0  0  0
    2.2913    0.6661    1.3473 O   0  0  0  0  0  0  0  0  0  0  0  0
    2.0922   -1.5470    1.0479 O   0  0  0  0  0  0  0  0  0  0  0  0
    1.6861   -1.7162    2.4026 C   0  0  0  0  0  0  0  0  0  0  0  0
    1.6191   -0.3503   -3.1422 C   0  0  0  0  0  0  0  0  0  0  0  0
    2.6530   -0.7255   -3.6108 O   0  0  0  0  0  0  0  0  0  0  0  0
    0.5216   -0.0925   -3.8300 O   0  0  0  0  0  0  0  0  0  0  0  0
    0.4134   -1.0354   -1.1737 O   0  0  0  0  0  0  0  0  0  0  0  0
   -3.1767    0.0508    1.9826 O   0  0  0  0  0  0  0  0  0  0  0  0
   -3.6062    1.3529    2.3198 C   0  0  0  0  0  0  0  0  0  0  0  0
   -2.8209    2.2865    1.6112 O   0  0  0  0  0  0  0  0  0  0  0  0
    2.9577    5.2758   -0.7711 H   0  0  0  0  0  0  0  0  0  0  0  0
    3.2003    3.6044   -1.2827 H   0  0  0  0  0  0  0  0  0  0  0  0
    3.7977    4.1414    0.2889 H   0  0  0  0  0  0  0  0  0  0  0  0
    1.4663    4.4916    1.0731 H   0  0  0  0  0  0  0  0  0  0  0  0
    1.7283    2.8212    0.5722 H   0  0  0  0  0  0  0  0  0  0  0  0
    0.3964    5.0326   -1.0734 H   0  0  0  0  0  0  0  0  0  0  0  0
    0.7245    3.3891   -1.6731 H   0  0  0  0  0  0  0  0  0  0  0  0
   -1.2200   -2.9126   -1.1924 H   0  0  0  0  0  0  0  0  0  0  0  0
    0.0642   -3.1385   -0.0197 H   0  0  0  0  0  0  0  0  0  0  0  0
   -0.8157   -5.3388   -0.4582 H   0  0  0  0  0  0  0  0  0  0  0  0
   -1.4161   -4.8741    1.1402 H   0  0  0  0  0  0  0  0  0  0  0  0
   -3.5888   -4.2123    0.1494 H   0  0  0  0  0  0  0  0  0  0  0  0
   -3.2229   -5.8961   -0.2225 H   0  0  0  0  0  0  0  0  0  0  0  0
   -3.0071   -4.6562   -1.4597 H   0  0  0  0  0  0  0  0  0  0  0  0
    3.3502    0.5583   -1.0556 H   0  0  0  0  0  0  0  0  0  0  0  0
    3.1621   -1.2239   -1.1319 H   0  0  0  0  0  0  0  0  0  0  0  0
    2.2386   -1.0318    3.0485 H   0  0  0  0  0  0  0  0  0  0  0  0
    0.6164   -1.5177    2.4995 H   0  0  0  0  0  0  0  0  0  0  0  0
    1.8996   -2.7505    2.6607 H   0  0  0  0  0  0  0  0  0  0  0  0
    0.6559   -0.2423   -4.7815 H   0  0  0  0  0  0  0  0  0  0  0  0
   -3.4877    1.5129    3.4030 H   0  0  0  0  0  0  0  0  0  0  0  0
   -4.6661    1.4765    2.0467 H   0  0  0  0  0  0  0  0  0  0  0  0
  1  2  1  0  0  0  0
  2  3  1  0  0  0  0
  3  4  1  0  0  0  0
  4  5  2  0  0  0  0
  4  6  1  0  0  0  0
  6  7  2  0  0  0  0
  7  8  1  0  0  0  0
  8  9  2  0  0  0  0
  9 10  1  0  0  0  0
 10 11  2  0  0  0  0
 10 12  1  0  0  0  0
 12 13  1  0  0  0  0
 13 14  1  0  0  0  0
  9 15  1  0  0  0  0
 15 16  2  0  0  0  0
 16 17  1  0  0  0  0
 17 18  1  0  0  0  0
 18 19  1  0  0  0  0
 19 20  1  0  0  0  0
 20 21  2  0  0  0  0
 20 22  1  0  0  0  0
 22 23  1  0  0  0  0
 18 24  1  0  0  0  0
 24 25  2  0  0  0  0
 24 26  1  0  0  0  0
 18 27  1  0  0  0  0
  8 28  1  0  0  0  0
 28 29  1  0  0  0  0
 29 30  1  0  0  0  0
 16  6  1  0  0  0  0
 30  7  1  0  0  0  0
 27 15  1  0  0  0  0
  1 31  1  0  0  0  0
  1 32  1  0  0  0  0
  1 33  1  0  0  0  0
  2 34  1  0  0  0  0
  2 35  1  0  0  0  0
  3 36  1  0  0  0  0
  3 37  1  0  0  0  0
 12 38  1  0  0  0  0
 12 39  1  0  0  0  0
 13 40  1  0  0  0  0
 13 41  1  0  0  0  0
 14 42  1  0  0  0  0
 14 43  1  0  0  0  0
 14 44  1  0  0  0  0
 19 45  1  0  0  0  0
 19 46  1  0  0  0  0
 23 47  1  0  0  0  0
 23 48  1  0  0  0  0
 23 49  1  0  0  0  0
 26 50  1  0  0  0  0
 29 51  1  0  0  0  0
 29 52  1  0  0  0  0
M  END
