
  xtb     03022213313D
 energy: -77.680921940732 gnorm: 0.000430479393 xtb: 6.4.1 (afa7bdf)
 56 58  0     0  0            999 V2000
   10.0230    0.2133   -0.2986 C   0  0  0  0  0  0  0  0  0  0  0  0
    8.8587    0.8077    0.3081 N   0  0  0  0  0  0  0  0  0  0  0  0
    9.0348    1.8593    1.2777 C   0  0  0  0  0  0  0  0  0  0  0  0
    7.6038    0.3971   -0.0510 C   0  0  0  0  0  0  0  0  0  0  0  0
    6.4539    0.9536    0.5345 C   0  0  0  0  0  0  0  0  0  0  0  0
    5.1944    0.5354    0.1773 C   0  0  0  0  0  0  0  0  0  0  0  0
    4.9942   -0.4623   -0.7842 C   0  0  0  0  0  0  0  0  0  0  0  0
    3.6981   -0.9394   -1.1863 C   0  0  0  0  0  0  0  0  0  0  0  0
    2.4968   -0.5250   -0.7291 C   0  0  0  0  0  0  0  0  0  0  0  0
    1.2673   -1.0778   -1.1884 C   0  0  0  0  0  0  0  0  0  0  0  0
    0.0361   -0.7153   -0.7694 C   0  0  0  0  0  0  0  0  0  0  0  0
   -0.3134    0.3284    0.2494 C   0  0  0  0  0  0  0  0  0  0  0  0
   -1.8459    0.4612    0.2017 C   0  0  0  0  0  0  0  0  0  0  0  0
   -2.3327   -0.6919   -0.6251 C   0  0  0  0  0  0  0  0  0  0  0  0
   -3.5769   -1.1721   -0.8130 C   0  0  0  0  0  0  0  0  0  0  0  0
   -4.8477   -0.7356   -0.2951 C   0  0  0  0  0  0  0  0  0  0  0  0
   -5.9532   -1.5852   -0.4376 C   0  0  0  0  0  0  0  0  0  0  0  0
   -7.1976   -1.2536    0.0406 C   0  0  0  0  0  0  0  0  0  0  0  0
   -7.4221   -0.0273    0.6883 C   0  0  0  0  0  0  0  0  0  0  0  0
   -8.6548    0.3053    1.1837 N   0  0  0  0  0  0  0  0  0  0  0  0
   -9.7845   -0.5621    0.9624 C   0  0  0  0  0  0  0  0  0  0  0  0
   -8.8802    1.6060    1.7619 C   0  0  0  0  0  0  0  0  0  0  0  0
   -6.3230    0.8373    0.8101 C   0  0  0  0  0  0  0  0  0  0  0  0
   -5.0778    0.4905    0.3374 C   0  0  0  0  0  0  0  0  0  0  0  0
   -1.1854   -1.3554   -1.2666 C   0  0  0  0  0  0  0  0  0  0  0  0
   -1.2429   -2.2802   -2.0627 O   0  0  0  0  0  0  0  0  0  0  0  0
    6.1426   -1.0120   -1.3678 C   0  0  0  0  0  0  0  0  0  0  0  0
    7.4069   -0.6015   -1.0189 C   0  0  0  0  0  0  0  0  0  0  0  0
   10.0457    0.3931   -1.3786 H   0  0  0  0  0  0  0  0  0  0  0  0
   10.0491   -0.8667   -0.1248 H   0  0  0  0  0  0  0  0  0  0  0  0
   10.9211    0.6459    0.1354 H   0  0  0  0  0  0  0  0  0  0  0  0
    8.5502    2.7848    0.9510 H   0  0  0  0  0  0  0  0  0  0  0  0
   10.0952    2.0615    1.4073 H   0  0  0  0  0  0  0  0  0  0  0  0
    8.6218    1.5745    2.2508 H   0  0  0  0  0  0  0  0  0  0  0  0
    6.5440    1.7239    1.2830 H   0  0  0  0  0  0  0  0  0  0  0  0
    4.3440    0.9939    0.6587 H   0  0  0  0  0  0  0  0  0  0  0  0
    3.7086   -1.7204   -1.9382 H   0  0  0  0  0  0  0  0  0  0  0  0
    2.4348    0.2513    0.0201 H   0  0  0  0  0  0  0  0  0  0  0  0
    1.3193   -1.8604   -1.9358 H   0  0  0  0  0  0  0  0  0  0  0  0
    0.0147    0.0039    1.2408 H   0  0  0  0  0  0  0  0  0  0  0  0
    0.1795    1.2784    0.0341 H   0  0  0  0  0  0  0  0  0  0  0  0
   -2.2820    0.4447    1.2025 H   0  0  0  0  0  0  0  0  0  0  0  0
   -2.1260    1.4055   -0.2736 H   0  0  0  0  0  0  0  0  0  0  0  0
   -3.6233   -2.0558   -1.4424 H   0  0  0  0  0  0  0  0  0  0  0  0
   -5.8191   -2.5366   -0.9327 H   0  0  0  0  0  0  0  0  0  0  0  0
   -8.0041   -1.9552   -0.0956 H   0  0  0  0  0  0  0  0  0  0  0  0
   -9.9788   -0.7089   -0.1057 H   0  0  0  0  0  0  0  0  0  0  0  0
   -9.6193   -1.5400    1.4238 H   0  0  0  0  0  0  0  0  0  0  0  0
  -10.6727   -0.1247    1.4119 H   0  0  0  0  0  0  0  0  0  0  0  0
   -9.9109    1.6802    2.1003 H   0  0  0  0  0  0  0  0  0  0  0  0
   -8.6990    2.4083    1.0377 H   0  0  0  0  0  0  0  0  0  0  0  0
   -8.2296    1.7643    2.6267 H   0  0  0  0  0  0  0  0  0  0  0  0
   -6.4389    1.8012    1.2785 H   0  0  0  0  0  0  0  0  0  0  0  0
   -4.2768    1.2026    0.4409 H   0  0  0  0  0  0  0  0  0  0  0  0
    6.0309   -1.7840   -2.1165 H   0  0  0  0  0  0  0  0  0  0  0  0
    8.2498   -1.0630   -1.5065 H   0  0  0  0  0  0  0  0  0  0  0  0
  1  2  1  0  0  0  0
  2  3  1  0  0  0  0
  2  4  1  0  0  0  0
  4  5  2  0  0  0  0
  5  6  1  0  0  0  0
  6  7  2  0  0  0  0
  7  8  1  0  0  0  0
  8  9  2  0  0  0  0
  9 10  1  0  0  0  0
 10 11  2  0  0  0  0
 11 12  1  0  0  0  0
 12 13  1  0  0  0  0
 13 14  1  0  0  0  0
 14 15  2  0  0  0  0
 15 16  1  0  0  0  0
 16 17  2  0  0  0  0
 17 18  1  0  0  0  0
 18 19  2  0  0  0  0
 19 20  1  0  0  0  0
 20 21  1  0  0  0  0
 20 22  1  0  0  0  0
 19 23  1  0  0  0  0
 23 24  2  0  0  0  0
 14 25  1  0  0  0  0
 25 26  2  0  0  0  0
  7 27  1  0  0  0  0
 27 28  2  0  0  0  0
 28  4  1  0  0  0  0
 25 11  1  0  0  0  0
 24 16  1  0  0  0  0
  1 29  1  0  0  0  0
  1 30  1  0  0  0  0
  1 31  1  0  0  0  0
  3 32  1  0  0  0  0
  3 33  1  0  0  0  0
  3 34  1  0  0  0  0
  5 35  1  0  0  0  0
  6 36  1  0  0  0  0
  8 37  1  0  0  0  0
  9 38  1  0  0  0  0
 10 39  1  0  0  0  0
 12 40  1  0  0  0  0
 12 41  1  0  0  0  0
 13 42  1  0  0  0  0
 13 43  1  0  0  0  0
 15 44  1  0  0  0  0
 17 45  1  0  0  0  0
 18 46  1  0  0  0  0
 21 47  1  0  0  0  0
 21 48  1  0  0  0  0
 21 49  1  0  0  0  0
 22 50  1  0  0  0  0
 22 51  1  0  0  0  0
 22 52  1  0  0  0  0
 23 53  1  0  0  0  0
 24 54  1  0  0  0  0
 27 55  1  0  0  0  0
 28 56  1  0  0  0  0
M  END
