
  xtb     03022212343D
 energy: -133.390064106900 gnorm: 0.000270117658 xtb: 6.4.1 (afa7bdf)
 81 88  0     0  0            999 V2000
   -3.8717    2.8837   -1.9342 C   0  0  0  0  0  0  0  0  0  0  0  0
   -3.1158    3.8324   -1.2263 O   0  0  0  0  0  0  0  0  0  0  0  0
   -1.9701    3.4316   -0.6011 C   0  0  0  0  0  0  0  0  0  0  0  0
   -1.5946    2.1020   -0.4620 C   0  0  0  0  0  0  0  0  0  0  0  0
   -0.3852    1.7929    0.1500 C   0  0  0  0  0  0  0  0  0  0  0  0
    0.4859    2.8244    0.5342 C   0  0  0  0  0  0  0  0  0  0  0  0
    0.1014    4.1419    0.4210 C   0  0  0  0  0  0  0  0  0  0  0  0
   -1.1393    4.4643   -0.1197 C   0  0  0  0  0  0  0  0  0  0  0  0
   -1.5432    5.8743   -0.2358 C   0  0  0  0  0  0  0  0  0  0  0  0
   -2.8114    6.2923    0.1605 C   0  0  0  0  0  0  0  0  0  0  0  0
   -3.1787    7.6210    0.0695 C   0  0  0  0  0  0  0  0  0  0  0  0
   -2.2658    8.5329   -0.4278 C   0  0  0  0  0  0  0  0  0  0  0  0
   -2.6204    9.8328   -0.5229 F   0  0  0  0  0  0  0  0  0  0  0  0
   -0.9995    8.1504   -0.8303 C   0  0  0  0  0  0  0  0  0  0  0  0
   -0.6444    6.8188   -0.7277 C   0  0  0  0  0  0  0  0  0  0  0  0
    1.8050    2.2669    0.9690 C   0  0  0  0  0  0  0  0  0  0  0  0
    1.6197    0.8038    0.7345 C   0  0  0  0  0  0  0  0  0  0  0  0
    2.5418   -0.2098    0.8156 C   0  0  0  0  0  0  0  0  0  0  0  0
    2.1717   -1.5318    0.5089 C   0  0  0  0  0  0  0  0  0  0  0  0
    0.8625   -1.8370    0.2309 C   0  0  0  0  0  0  0  0  0  0  0  0
   -0.1206   -0.8133    0.2312 C   0  0  0  0  0  0  0  0  0  0  0  0
    0.2811    0.5175    0.3600 C   0  0  0  0  0  0  0  0  0  0  0  0
   -1.4160   -1.4658    0.1271 C   0  0  0  0  0  0  0  0  0  0  0  0
   -2.7017   -0.9809    0.3365 C   0  0  0  0  0  0  0  0  0  0  0  0
   -3.7821   -1.8505    0.2610 C   0  0  0  0  0  0  0  0  0  0  0  0
   -5.0771   -1.4657    0.4543 O   0  0  0  0  0  0  0  0  0  0  0  0
   -5.3474   -0.1366    0.8171 C   0  0  0  0  0  0  0  0  0  0  0  0
   -3.5833   -3.2119   -0.0462 C   0  0  0  0  0  0  0  0  0  0  0  0
   -4.7180   -4.1407   -0.1789 C   0  0  0  0  0  0  0  0  0  0  0  0
   -4.7761   -4.9977   -1.2763 C   0  0  0  0  0  0  0  0  0  0  0  0
   -5.8192   -5.8918   -1.4251 C   0  0  0  0  0  0  0  0  0  0  0  0
   -6.8052   -5.9277   -0.4565 C   0  0  0  0  0  0  0  0  0  0  0  0
   -7.8284   -6.7989   -0.5930 F   0  0  0  0  0  0  0  0  0  0  0  0
   -6.7711   -5.0975    0.6489 C   0  0  0  0  0  0  0  0  0  0  0  0
   -5.7250   -4.2044    0.7808 C   0  0  0  0  0  0  0  0  0  0  0  0
   -2.2867   -3.6925   -0.2014 C   0  0  0  0  0  0  0  0  0  0  0  0
   -1.2129   -2.8385   -0.0840 C   0  0  0  0  0  0  0  0  0  0  0  0
    0.2479   -3.1640   -0.0718 C   0  0  0  0  0  0  0  0  0  0  0  0
    3.3761   -2.3791    0.6187 C   0  0  0  0  0  0  0  0  0  0  0  0
    3.5012   -3.5664    0.4396 O   0  0  0  0  0  0  0  0  0  0  0  0
    4.3967   -1.5214    1.0044 N   0  0  0  0  0  0  0  0  0  0  0  0
    5.7657   -1.9444    1.1983 C   0  0  0  0  0  0  0  0  0  0  0  0
    6.5777   -1.7719   -0.0861 C   0  0  0  0  0  0  0  0  0  0  0  0
    7.9996   -2.3307    0.0190 C   0  0  0  0  0  0  0  0  0  0  0  0
    8.6726   -2.2726   -1.3513 C   0  0  0  0  0  0  0  0  0  0  0  0
    8.8331   -1.5640    1.0431 C   0  0  0  0  0  0  0  0  0  0  0  0
    3.9821   -0.2035    1.1388 C   0  0  0  0  0  0  0  0  0  0  0  0
    4.6960    0.7157    1.4598 O   0  0  0  0  0  0  0  0  0  0  0  0
   -4.6547    3.4493   -2.4369 H   0  0  0  0  0  0  0  0  0  0  0  0
   -4.3369    2.1516   -1.2646 H   0  0  0  0  0  0  0  0  0  0  0  0
   -3.2675    2.3585   -2.6807 H   0  0  0  0  0  0  0  0  0  0  0  0
   -2.2035    1.3151   -0.8726 H   0  0  0  0  0  0  0  0  0  0  0  0
    0.7577    4.9344    0.7480 H   0  0  0  0  0  0  0  0  0  0  0  0
   -3.5107    5.5717    0.5532 H   0  0  0  0  0  0  0  0  0  0  0  0
   -4.1565    7.9560    0.3779 H   0  0  0  0  0  0  0  0  0  0  0  0
   -0.3134    8.8873   -1.2171 H   0  0  0  0  0  0  0  0  0  0  0  0
    0.3359    6.5035   -1.0524 H   0  0  0  0  0  0  0  0  0  0  0  0
    2.6390    2.6727    0.3933 H   0  0  0  0  0  0  0  0  0  0  0  0
    2.0231    2.4650    2.0213 H   0  0  0  0  0  0  0  0  0  0  0  0
   -2.8462    0.0501    0.6097 H   0  0  0  0  0  0  0  0  0  0  0  0
   -5.0546    0.5662    0.0295 H   0  0  0  0  0  0  0  0  0  0  0  0
   -6.4264   -0.0845    0.9544 H   0  0  0  0  0  0  0  0  0  0  0  0
   -4.8496    0.1397    1.7526 H   0  0  0  0  0  0  0  0  0  0  0  0
   -4.0036   -4.9500   -2.0294 H   0  0  0  0  0  0  0  0  0  0  0  0
   -5.8767   -6.5534   -2.2751 H   0  0  0  0  0  0  0  0  0  0  0  0
   -7.5539   -5.1584    1.3885 H   0  0  0  0  0  0  0  0  0  0  0  0
   -5.6820   -3.5586    1.6428 H   0  0  0  0  0  0  0  0  0  0  0  0
   -2.1330   -4.7474   -0.3736 H   0  0  0  0  0  0  0  0  0  0  0  0
    0.6061   -3.5449   -1.0315 H   0  0  0  0  0  0  0  0  0  0  0  0
    0.5007   -3.9154    0.6786 H   0  0  0  0  0  0  0  0  0  0  0  0
    6.1824   -1.3361    2.0035 H   0  0  0  0  0  0  0  0  0  0  0  0
    5.7443   -2.9961    1.4948 H   0  0  0  0  0  0  0  0  0  0  0  0
    6.6204   -0.7094   -0.3365 H   0  0  0  0  0  0  0  0  0  0  0  0
    6.0517   -2.2900   -0.8922 H   0  0  0  0  0  0  0  0  0  0  0  0
    7.9365   -3.3794    0.3307 H   0  0  0  0  0  0  0  0  0  0  0  0
    8.1020   -2.8365   -2.0857 H   0  0  0  0  0  0  0  0  0  0  0  0
    9.6751   -2.6913   -1.3024 H   0  0  0  0  0  0  0  0  0  0  0  0
    8.7479   -1.2420   -1.6917 H   0  0  0  0  0  0  0  0  0  0  0  0
    8.8333   -0.5013    0.8111 H   0  0  0  0  0  0  0  0  0  0  0  0
    8.4446   -1.6982    2.0489 H   0  0  0  0  0  0  0  0  0  0  0  0
    9.8617   -1.9176    1.0301 H   0  0  0  0  0  0  0  0  0  0  0  0
  1  2  1  0  0  0  0
  2  3  1  0  0  0  0
  3  4  2  0  0  0  0
  4  5  1  0  0  0  0
  5  6  2  0  0  0  0
  6  7  1  0  0  0  0
  7  8  2  0  0  0  0
  8  9  1  0  0  0  0
  9 10  2  0  0  0  0
 10 11  1  0  0  0  0
 11 12  2  0  0  0  0
 12 13  1  0  0  0  0
 12 14  1  0  0  0  0
 14 15  2  0  0  0  0
  6 16  1  0  0  0  0
 16 17  1  0  0  0  0
 17 18  2  0  0  0  0
 18 19  1  0  0  0  0
 19 20  2  0  0  0  0
 20 21  1  0  0  0  0
 21 22  2  0  0  0  0
 21 23  1  0  0  0  0
 23 24  2  0  0  0  0
 24 25  1  0  0  0  0
 25 26  1  0  0  0  0
 26 27  1  0  0  0  0
 25 28  2  0  0  0  0
 28 29  1  0  0  0  0
 29 30  2  0  0  0  0
 30 31  1  0  0  0  0
 31 32  2  0  0  0  0
 32 33  1  0  0  0  0
 32 34  1  0  0  0  0
 34 35  2  0  0  0  0
 28 36  1  0  0  0  0
 36 37  2  0  0  0  0
 37 38  1  0  0  0  0
 19 39  1  0  0  0  0
 39 40  2  0  0  0  0
 39 41  1  0  0  0  0
 41 42  1  0  0  0  0
 42 43  1  0  0  0  0
 43 44  1  0  0  0  0
 44 45  1  0  0  0  0
 44 46  1  0  0  0  0
 41 47  1  0  0  0  0
 47 48  2  0  0  0  0
  8  3  1  0  0  0  0
 15  9  1  0  0  0  0
 22 17  1  0  0  0  0
 37 23  1  0  0  0  0
 22  5  1  0  0  0  0
 35 29  1  0  0  0  0
 47 18  1  0  0  0  0
 38 20  1  0  0  0  0
  1 49  1  0  0  0  0
  1 50  1  0  0  0  0
  1 51  1  0  0  0  0
  4 52  1  0  0  0  0
  7 53  1  0  0  0  0
 10 54  1  0  0  0  0
 11 55  1  0  0  0  0
 14 56  1  0  0  0  0
 15 57  1  0  0  0  0
 16 58  1  0  0  0  0
 16 59  1  0  0  0  0
 24 60  1  0  0  0  0
 27 61  1  0  0  0  0
 27 62  1  0  0  0  0
 27 63  1  0  0  0  0
 30 64  1  0  0  0  0
 31 65  1  0  0  0  0
 34 66  1  0  0  0  0
 35 67  1  0  0  0  0
 36 68  1  0  0  0  0
 38 69  1  0  0  0  0
 38 70  1  0  0  0  0
 42 71  1  0  0  0  0
 42 72  1  0  0  0  0
 43 73  1  0  0  0  0
 43 74  1  0  0  0  0
 44 75  1  0  0  0  0
 45 76  1  0  0  0  0
 45 77  1  0  0  0  0
 45 78  1  0  0  0  0
 46 79  1  0  0  0  0
 46 80  1  0  0  0  0
 46 81  1  0  0  0  0
M  END
