
  xtb     03022213103D
 energy: -116.709959411624 gnorm: 0.000074357030 xtb: 6.4.1 (afa7bdf)
 76 82  0     0  0            999 V2000
   -7.4236   -4.4931    2.7392 C   0  0  0  0  0  0  0  0  0  0  0  0
   -6.8380   -3.3410    1.9317 C   0  0  0  0  0  0  0  0  0  0  0  0
   -7.4291   -3.2821    0.5247 C   0  0  0  0  0  0  0  0  0  0  0  0
   -6.9468   -2.0792   -0.2869 C   0  0  0  0  0  0  0  0  0  0  0  0
   -5.4571   -2.1400   -0.6203 C   0  0  0  0  0  0  0  0  0  0  0  0
   -5.0208   -1.0724   -1.6238 C   0  0  0  0  0  0  0  0  0  0  0  0
   -5.1509    0.3529   -1.0896 C   0  0  0  0  0  0  0  0  0  0  0  0
   -4.4907    1.3543   -2.0348 C   0  0  0  0  0  0  0  0  0  0  0  0
   -4.6372    2.8097   -1.5869 C   0  0  0  0  0  0  0  0  0  0  0  0
   -4.0323    3.1308   -0.2164 C   0  0  0  0  0  0  0  0  0  0  0  0
   -2.5954    2.6507   -0.0211 C   0  0  0  0  0  0  0  0  0  0  0  0
   -1.6225    3.2569   -1.0308 C   0  0  0  0  0  0  0  0  0  0  0  0
   -0.2869    2.6981   -0.8471 N   0  0  0  0  0  0  0  0  0  0  0  0
   -0.0439    1.4721   -1.4380 C   0  0  0  0  0  0  0  0  0  0  0  0
   -0.8985    0.9177   -2.1006 O   0  0  0  0  0  0  0  0  0  0  0  0
    1.2892    0.8873   -1.2220 C   0  0  0  0  0  0  0  0  0  0  0  0
    1.5974   -0.3329   -1.7896 C   0  0  0  0  0  0  0  0  0  0  0  0
    2.8447   -0.9056   -1.5899 C   0  0  0  0  0  0  0  0  0  0  0  0
    3.8229   -0.2846   -0.8210 C   0  0  0  0  0  0  0  0  0  0  0  0
    5.1302   -0.8823   -0.5994 C   0  0  0  0  0  0  0  0  0  0  0  0
    5.4747   -2.1194   -1.1325 C   0  0  0  0  0  0  0  0  0  0  0  0
    6.7227   -2.6842   -0.9197 C   0  0  0  0  0  0  0  0  0  0  0  0
    7.6703   -2.0238   -0.1632 C   0  0  0  0  0  0  0  0  0  0  0  0
    7.3660   -0.7662    0.4003 C   0  0  0  0  0  0  0  0  0  0  0  0
    8.3296   -0.0860    1.1753 C   0  0  0  0  0  0  0  0  0  0  0  0
    8.0252    1.1438    1.7240 C   0  0  0  0  0  0  0  0  0  0  0  0
    6.7782    1.7147    1.5219 C   0  0  0  0  0  0  0  0  0  0  0  0
    5.7965    1.0816    0.7677 C   0  0  0  0  0  0  0  0  0  0  0  0
    4.4845    1.6733    0.5575 C   0  0  0  0  0  0  0  0  0  0  0  0
    4.1278    2.9008    1.1050 C   0  0  0  0  0  0  0  0  0  0  0  0
    2.8732    3.4566    0.9023 C   0  0  0  0  0  0  0  0  0  0  0  0
    1.9314    2.7983    0.1370 C   0  0  0  0  0  0  0  0  0  0  0  0
    2.2514    1.5541   -0.4396 C   0  0  0  0  0  0  0  0  0  0  0  0
    3.5311    0.9758   -0.2325 C   0  0  0  0  0  0  0  0  0  0  0  0
    0.6029    3.4044   -0.0576 C   0  0  0  0  0  0  0  0  0  0  0  0
    0.2930    4.4677    0.4399 O   0  0  0  0  0  0  0  0  0  0  0  0
    6.0872   -0.1840    0.1876 C   0  0  0  0  0  0  0  0  0  0  0  0
    9.6591   -0.6738    1.4059 C   0  0  0  0  0  0  0  0  0  0  0  0
   10.5327   -0.1466    2.0584 O   0  0  0  0  0  0  0  0  0  0  0  0
    9.8657   -1.9046    0.8170 N   0  0  0  0  0  0  0  0  0  0  0  0
    8.9891   -2.6422    0.0476 C   0  0  0  0  0  0  0  0  0  0  0  0
    9.3171   -3.7169   -0.4043 O   0  0  0  0  0  0  0  0  0  0  0  0
   -6.9898   -4.5230    3.7363 H   0  0  0  0  0  0  0  0  0  0  0  0
   -8.5016   -4.3829    2.8372 H   0  0  0  0  0  0  0  0  0  0  0  0
   -7.2214   -5.4431    2.2487 H   0  0  0  0  0  0  0  0  0  0  0  0
   -7.0398   -2.3983    2.4460 H   0  0  0  0  0  0  0  0  0  0  0  0
   -5.7554   -3.4630    1.8714 H   0  0  0  0  0  0  0  0  0  0  0  0
   -8.5182   -3.2354    0.6060 H   0  0  0  0  0  0  0  0  0  0  0  0
   -7.1788   -4.2022   -0.0093 H   0  0  0  0  0  0  0  0  0  0  0  0
   -7.1627   -1.1660    0.2706 H   0  0  0  0  0  0  0  0  0  0  0  0
   -7.5124   -2.0402   -1.2214 H   0  0  0  0  0  0  0  0  0  0  0  0
   -4.8702   -2.0259    0.2930 H   0  0  0  0  0  0  0  0  0  0  0  0
   -5.2322   -3.1245   -1.0389 H   0  0  0  0  0  0  0  0  0  0  0  0
   -5.6088   -1.1723   -2.5393 H   0  0  0  0  0  0  0  0  0  0  0  0
   -3.9741   -1.2481   -1.8850 H   0  0  0  0  0  0  0  0  0  0  0  0
   -4.6792    0.4034   -0.1067 H   0  0  0  0  0  0  0  0  0  0  0  0
   -6.2047    0.6118   -0.9691 H   0  0  0  0  0  0  0  0  0  0  0  0
   -4.9504    1.2565   -3.0219 H   0  0  0  0  0  0  0  0  0  0  0  0
   -3.4355    1.1018   -2.1463 H   0  0  0  0  0  0  0  0  0  0  0  0
   -5.6997    3.0647   -1.5512 H   0  0  0  0  0  0  0  0  0  0  0  0
   -4.1791    3.4518   -2.3423 H   0  0  0  0  0  0  0  0  0  0  0  0
   -4.6480    2.6764    0.5622 H   0  0  0  0  0  0  0  0  0  0  0  0
   -4.0686    4.2129   -0.0689 H   0  0  0  0  0  0  0  0  0  0  0  0
   -2.2651    2.9220    0.9850 H   0  0  0  0  0  0  0  0  0  0  0  0
   -2.5551    1.5642   -0.1071 H   0  0  0  0  0  0  0  0  0  0  0  0
   -1.5511    4.3370   -0.8961 H   0  0  0  0  0  0  0  0  0  0  0  0
   -1.9336    3.0234   -2.0494 H   0  0  0  0  0  0  0  0  0  0  0  0
    0.8498   -0.8306   -2.3884 H   0  0  0  0  0  0  0  0  0  0  0  0
    3.0366   -1.8588   -2.0534 H   0  0  0  0  0  0  0  0  0  0  0  0
    4.7694   -2.6733   -1.7291 H   0  0  0  0  0  0  0  0  0  0  0  0
    6.9746   -3.6459   -1.3404 H   0  0  0  0  0  0  0  0  0  0  0  0
    8.7766    1.6483    2.3125 H   0  0  0  0  0  0  0  0  0  0  0  0
    6.5881    2.6750    1.9711 H   0  0  0  0  0  0  0  0  0  0  0  0
    4.8273    3.4540    1.7092 H   0  0  0  0  0  0  0  0  0  0  0  0
    2.6133    4.4094    1.3381 H   0  0  0  0  0  0  0  0  0  0  0  0
   10.7798   -2.3210    0.9694 H   0  0  0  0  0  0  0  0  0  0  0  0
  1  2  1  0  0  0  0
  2  3  1  0  0  0  0
  3  4  1  0  0  0  0
  4  5  1  0  0  0  0
  5  6  1  0  0  0  0
  6  7  1  0  0  0  0
  7  8  1  0  0  0  0
  8  9  1  0  0  0  0
  9 10  1  0  0  0  0
 10 11  1  0  0  0  0
 11 12  1  0  0  0  0
 12 13  1  0  0  0  0
 13 14  1  0  0  0  0
 14 15  2  0  0  0  0
 14 16  1  0  0  0  0
 16 17  2  0  0  0  0
 17 18  1  0  0  0  0
 18 19  2  0  0  0  0
 19 20  1  0  0  0  0
 20 21  2  0  0  0  0
 21 22  1  0  0  0  0
 22 23  2  0  0  0  0
 23 24  1  0  0  0  0
 24 25  1  0  0  0  0
 25 26  2  0  0  0  0
 26 27  1  0  0  0  0
 27 28  2  0  0  0  0
 28 29  1  0  0  0  0
 29 30  2  0  0  0  0
 30 31  1  0  0  0  0
 31 32  2  0  0  0  0
 32 33  1  0  0  0  0
 33 34  2  0  0  0  0
 32 35  1  0  0  0  0
 35 36  2  0  0  0  0
 28 37  1  0  0  0  0
 25 38  1  0  0  0  0
 38 39  2  0  0  0  0
 38 40  1  0  0  0  0
 40 41  1  0  0  0  0
 41 42  2  0  0  0  0
 35 13  1  0  0  0  0
 33 16  1  0  0  0  0
 34 19  1  0  0  0  0
 37 20  1  0  0  0  0
 41 23  1  0  0  0  0
 37 24  2  0  0  0  0
 34 29  1  0  0  0  0
  1 43  1  0  0  0  0
  1 44  1  0  0  0  0
  1 45  1  0  0  0  0
  2 46  1  0  0  0  0
  2 47  1  0  0  0  0
  3 48  1  0  0  0  0
  3 49  1  0  0  0  0
  4 50  1  0  0  0  0
  4 51  1  0  0  0  0
  5 52  1  0  0  0  0
  5 53  1  0  0  0  0
  6 54  1  0  0  0  0
  6 55  1  0  0  0  0
  7 56  1  0  0  0  0
  7 57  1  0  0  0  0
  8 58  1  0  0  0  0
  8 59  1  0  0  0  0
  9 60  1  0  0  0  0
  9 61  1  0  0  0  0
 10 62  1  0  0  0  0
 10 63  1  0  0  0  0
 11 64  1  0  0  0  0
 11 65  1  0  0  0  0
 12 66  1  0  0  0  0
 12 67  1  0  0  0  0
 17 68  1  0  0  0  0
 18 69  1  0  0  0  0
 21 70  1  0  0  0  0
 22 71  1  0  0  0  0
 26 72  1  0  0  0  0
 27 73  1  0  0  0  0
 30 74  1  0  0  0  0
 31 75  1  0  0  0  0
 40 76  1  0  0  0  0
M  END
