
  xtb     03022215023D
 energy: -50.695263670480 gnorm: 0.000211578372 xtb: 6.4.1 (afa7bdf)
 28 30  0     0  0            999 V2000
   -4.1261   -0.2870   -0.2367 C   0  0  0  0  0  0  0  0  0  0  0  0
   -2.7328    0.2188   -0.0375 C   0  0  0  0  0  0  0  0  0  0  0  0
   -2.5334    1.5549    0.3694 C   0  0  0  0  0  0  0  0  0  0  0  0
   -1.2852    2.0689    0.5674 C   0  0  0  0  0  0  0  0  0  0  0  0
   -0.1598    1.2468    0.3629 C   0  0  0  0  0  0  0  0  0  0  0  0
    1.0689    1.7462    0.5586 N   0  0  0  0  0  0  0  0  0  0  0  0
    2.0963    0.9578    0.3628 C   0  0  0  0  0  0  0  0  0  0  0  0
    3.4642    1.4741    0.5707 C   0  0  0  0  0  0  0  0  0  0  0  0
    3.7591    2.5889    0.9141 O   0  0  0  0  0  0  0  0  0  0  0  0
    4.4461    0.5207    0.3269 N   0  0  0  0  0  0  0  0  0  0  0  0
    4.3047   -0.7941   -0.0701 C   0  0  0  0  0  0  0  0  0  0  0  0
    5.2446   -1.5253   -0.2486 O   0  0  0  0  0  0  0  0  0  0  0  0
    3.0028   -1.1970   -0.2440 N   0  0  0  0  0  0  0  0  0  0  0  0
    1.9103   -0.3945   -0.0480 C   0  0  0  0  0  0  0  0  0  0  0  0
    0.7216   -0.9091   -0.2481 N   0  0  0  0  0  0  0  0  0  0  0  0
   -0.3472   -0.1092   -0.0498 C   0  0  0  0  0  0  0  0  0  0  0  0
   -1.6522   -0.6161   -0.2497 C   0  0  0  0  0  0  0  0  0  0  0  0
   -1.8302   -2.0360   -0.6826 C   0  0  0  0  0  0  0  0  0  0  0  0
   -4.3210   -1.1342    0.4201 H   0  0  0  0  0  0  0  0  0  0  0  0
   -4.2642   -0.6300   -1.2615 H   0  0  0  0  0  0  0  0  0  0  0  0
   -4.8565    0.4898   -0.0283 H   0  0  0  0  0  0  0  0  0  0  0  0
   -3.4010    2.1794    0.5253 H   0  0  0  0  0  0  0  0  0  0  0  0
   -1.1222    3.0881    0.8778 H   0  0  0  0  0  0  0  0  0  0  0  0
    5.4038    0.8296    0.4581 H   0  0  0  0  0  0  0  0  0  0  0  0
    2.8439   -2.1535   -0.5350 H   0  0  0  0  0  0  0  0  0  0  0  0
   -2.4166   -2.5882    0.0508 H   0  0  0  0  0  0  0  0  0  0  0  0
   -0.8592   -2.5082   -0.7914 H   0  0  0  0  0  0  0  0  0  0  0  0
   -2.3590   -2.0815   -1.6338 H   0  0  0  0  0  0  0  0  0  0  0  0
  1  2  1  0  0  0  0
  2  3  2  0  0  0  0
  3  4  1  0  0  0  0
  4  5  2  0  0  0  0
  5  6  1  0  0  0  0
  6  7  2  0  0  0  0
  7  8  1  0  0  0  0
  8  9  2  0  0  0  0
  8 10  1  0  0  0  0
 10 11  1  0  0  0  0
 11 12  2  0  0  0  0
 11 13  1  0  0  0  0
 13 14  1  0  0  0  0
 14 15  2  0  0  0  0
 15 16  1  0  0  0  0
 16 17  2  0  0  0  0
 17 18  1  0  0  0  0
 17  2  1  0  0  0  0
 16  5  1  0  0  0  0
 14  7  1  0  0  0  0
  1 19  1  0  0  0  0
  1 20  1  0  0  0  0
  1 21  1  0  0  0  0
  3 22  1  0  0  0  0
  4 23  1  0  0  0  0
 10 24  1  0  0  0  0
 13 25  1  0  0  0  0
 18 26  1  0  0  0  0
 18 27  1  0  0  0  0
 18 28  1  0  0  0  0
M  END
