
  xtb     03022213363D
 energy: -70.625315782364 gnorm: 0.000188085542 xtb: 6.4.1 (afa7bdf)
 47 50  0     0  0            999 V2000
    1.3741   -3.1957    0.2699 O   0  0  0  0  0  1  0  0  0  0  0  0
    0.4350   -2.3469    0.1611 N   0  0  0  0  0  4  0  0  0  0  0  0
    0.6841   -1.0032    0.0756 C   0  0  0  0  0  0  0  0  0  0  0  0
    2.0597   -0.5869    0.1041 C   0  0  0  0  0  0  0  0  0  0  0  0
    2.4552    0.6877   -0.0482 C   0  0  0  0  0  0  0  0  0  0  0  0
    3.8158    1.1773   -0.0154 C   0  0  0  0  0  0  0  0  0  0  0  0
    4.0409    2.5494   -0.1710 C   0  0  0  0  0  0  0  0  0  0  0  0
    5.3196    3.0690   -0.1403 C   0  0  0  0  0  0  0  0  0  0  0  0
    6.4061    2.2294    0.0451 C   0  0  0  0  0  0  0  0  0  0  0  0
    6.2009    0.8670    0.1988 C   0  0  0  0  0  0  0  0  0  0  0  0
    4.9237    0.3442    0.1698 C   0  0  0  0  0  0  0  0  0  0  0  0
   -0.2892   -0.1175   -0.0124 N   0  0  0  0  0  0  0  0  0  0  0  0
   -1.5568   -0.4965   -0.0466 C   0  0  0  0  0  0  0  0  0  0  0  0
   -2.5440    0.4450   -0.1139 N   0  0  0  0  0  0  0  0  0  0  0  0
   -2.4744    1.8327   -0.1249 C   0  0  0  0  0  0  0  0  0  0  0  0
   -3.6564    2.5312   -0.3785 C   0  0  0  0  0  0  0  0  0  0  0  0
   -3.6664    3.9117   -0.3944 C   0  0  0  0  0  0  0  0  0  0  0  0
   -2.5006    4.6203   -0.1555 C   0  0  0  0  0  0  0  0  0  0  0  0
   -1.3288    3.9310    0.1068 C   0  0  0  0  0  0  0  0  0  0  0  0
   -1.3072    2.5491    0.1265 C   0  0  0  0  0  0  0  0  0  0  0  0
   -1.8967   -1.8738   -0.0134 C   0  0  0  0  0  0  0  0  0  0  0  0
   -0.8632   -2.7718    0.1214 C   0  0  0  0  0  0  0  0  0  0  0  0
   -1.0522   -4.2482    0.2404 C   0  0  0  0  0  0  0  0  0  0  0  0
   -2.4949   -4.6082    0.5629 C   0  0  0  0  0  0  0  0  0  0  0  0
   -3.4218   -3.8456   -0.3747 C   0  0  0  0  0  0  0  0  0  0  0  0
   -3.3237   -2.3464   -0.1018 C   0  0  0  0  0  0  0  0  0  0  0  0
    2.7543   -1.4004    0.2538 H   0  0  0  0  0  0  0  0  0  0  0  0
    1.6920    1.4364   -0.2147 H   0  0  0  0  0  0  0  0  0  0  0  0
    3.1962    3.2081   -0.3164 H   0  0  0  0  0  0  0  0  0  0  0  0
    5.4727    4.1317   -0.2612 H   0  0  0  0  0  0  0  0  0  0  0  0
    7.4073    2.6338    0.0694 H   0  0  0  0  0  0  0  0  0  0  0  0
    7.0458    0.2092    0.3426 H   0  0  0  0  0  0  0  0  0  0  0  0
    4.7824   -0.7182    0.2903 H   0  0  0  0  0  0  0  0  0  0  0  0
   -3.4803    0.0799   -0.2075 H   0  0  0  0  0  0  0  0  0  0  0  0
   -4.5712    1.9838   -0.5644 H   0  0  0  0  0  0  0  0  0  0  0  0
   -4.5892    4.4362   -0.5945 H   0  0  0  0  0  0  0  0  0  0  0  0
   -2.5082    5.6996   -0.1704 H   0  0  0  0  0  0  0  0  0  0  0  0
   -0.4171    4.4762    0.3032 H   0  0  0  0  0  0  0  0  0  0  0  0
   -0.4007    2.0106    0.3382 H   0  0  0  0  0  0  0  0  0  0  0  0
   -0.7390   -4.7127   -0.7003 H   0  0  0  0  0  0  0  0  0  0  0  0
   -0.3595   -4.6133    1.0039 H   0  0  0  0  0  0  0  0  0  0  0  0
   -2.6403   -5.6833    0.4536 H   0  0  0  0  0  0  0  0  0  0  0  0
   -2.7220   -4.3396    1.5967 H   0  0  0  0  0  0  0  0  0  0  0  0
   -4.4553   -4.1707   -0.2439 H   0  0  0  0  0  0  0  0  0  0  0  0
   -3.1326   -4.0481   -1.4080 H   0  0  0  0  0  0  0  0  0  0  0  0
   -3.8413   -1.8086   -0.9026 H   0  0  0  0  0  0  0  0  0  0  0  0
   -3.8329   -2.1147    0.8407 H   0  0  0  0  0  0  0  0  0  0  0  0
  1  2  1  0  0  0  0
  2  3  2  0  0  0  0
  3  4  1  0  0  0  0
  4  5  2  0  0  0  0
  5  6  1  0  0  0  0
  6  7  2  0  0  0  0
  7  8  1  0  0  0  0
  8  9  2  0  0  0  0
  9 10  1  0  0  0  0
 10 11  2  0  0  0  0
  3 12  1  0  0  0  0
 12 13  2  0  0  0  0
 13 14  1  0  0  0  0
 14 15  1  0  0  0  0
 15 16  2  0  0  0  0
 16 17  1  0  0  0  0
 17 18  2  0  0  0  0
 18 19  1  0  0  0  0
 19 20  2  0  0  0  0
 13 21  1  0  0  0  0
 21 22  2  0  0  0  0
 22 23  1  0  0  0  0
 23 24  1  0  0  0  0
 24 25  1  0  0  0  0
 25 26  1  0  0  0  0
 22  2  1  0  0  0  0
 11  6  1  0  0  0  0
 20 15  1  0  0  0  0
 26 21  1  0  0  0  0
  4 27  1  0  0  0  0
  5 28  1  0  0  0  0
  7 29  1  0  0  0  0
  8 30  1  0  0  0  0
  9 31  1  0  0  0  0
 10 32  1  0  0  0  0
 11 33  1  0  0  0  0
 14 34  1  0  0  0  0
 16 35  1  0  0  0  0
 17 36  1  0  0  0  0
 18 37  1  0  0  0  0
 19 38  1  0  0  0  0
 20 39  1  0  0  0  0
 23 40  1  0  0  0  0
 23 41  1  0  0  0  0
 24 42  1  0  0  0  0
 24 43  1  0  0  0  0
 25 44  1  0  0  0  0
 25 45  1  0  0  0  0
 26 46  1  0  0  0  0
 26 47  1  0  0  0  0
M  CHG  1   1  -1
M  CHG  1   2   1
M  END
