
  xtb     03022213133D
 energy: -52.209834325111 gnorm: 0.000307018300 xtb: 6.4.1 (afa7bdf)
 33 36  0     0  0            999 V2000
   -5.8097    0.0765   -0.4600 C   0  0  0  0  0  0  0  0  0  0  0  0
   -4.4004    0.6352   -0.5106 C   0  0  0  0  0  0  0  0  0  0  0  0
   -4.1541    1.7813   -0.8047 O   0  0  0  0  0  0  0  0  0  0  0  0
   -3.4653   -0.3048   -0.1846 N   0  0  0  0  0  0  0  0  0  0  0  0
   -2.0726   -0.1836   -0.1097 C   0  0  0  0  0  0  0  0  0  0  0  0
   -1.4092    1.0041   -0.3920 C   0  0  0  0  0  0  0  0  0  0  0  0
   -0.0203    1.0751   -0.3023 C   0  0  0  0  0  0  0  0  0  0  0  0
    0.6889    2.2810   -0.5851 C   0  0  0  0  0  0  0  0  0  0  0  0
    2.0374    2.3399   -0.4945 C   0  0  0  0  0  0  0  0  0  0  0  0
    2.8067    1.2003   -0.1131 C   0  0  0  0  0  0  0  0  0  0  0  0
    4.1980    1.2365   -0.0126 C   0  0  0  0  0  0  0  0  0  0  0  0
    4.9087    0.1101    0.3607 C   0  0  0  0  0  0  0  0  0  0  0  0
    4.2545   -1.0757    0.6420 C   0  0  0  0  0  0  0  0  0  0  0  0
    2.8644   -1.1594    0.5548 C   0  0  0  0  0  0  0  0  0  0  0  0
    2.1522   -2.3630    0.8364 C   0  0  0  0  0  0  0  0  0  0  0  0
    0.8037   -2.4211    0.7457 C   0  0  0  0  0  0  0  0  0  0  0  0
    0.0377   -1.2790    0.3642 C   0  0  0  0  0  0  0  0  0  0  0  0
   -1.3503   -1.3136    0.2647 C   0  0  0  0  0  0  0  0  0  0  0  0
    0.7193   -0.0707    0.0784 C   0  0  0  0  0  0  0  0  0  0  0  0
    2.1288   -0.0103    0.1733 C   0  0  0  0  0  0  0  0  0  0  0  0
   -5.9063   -0.7698   -1.1373 H   0  0  0  0  0  0  0  0  0  0  0  0
   -6.0459   -0.2515    0.5507 H   0  0  0  0  0  0  0  0  0  0  0  0
   -6.5098    0.8527   -0.7546 H   0  0  0  0  0  0  0  0  0  0  0  0
   -3.8131   -1.2262    0.0434 H   0  0  0  0  0  0  0  0  0  0  0  0
   -1.9731    1.8751   -0.6812 H   0  0  0  0  0  0  0  0  0  0  0  0
    0.1142    3.1488   -0.8747 H   0  0  0  0  0  0  0  0  0  0  0  0
    2.5652    3.2582   -0.7108 H   0  0  0  0  0  0  0  0  0  0  0  0
    4.7187    2.1582   -0.2303 H   0  0  0  0  0  0  0  0  0  0  0  0
    5.9858    0.1568    0.4333 H   0  0  0  0  0  0  0  0  0  0  0  0
    4.8188   -1.9504    0.9328 H   0  0  0  0  0  0  0  0  0  0  0  0
    2.7225   -3.2344    1.1266 H   0  0  0  0  0  0  0  0  0  0  0  0
    0.2758   -3.3395    0.9619 H   0  0  0  0  0  0  0  0  0  0  0  0
   -1.8716   -2.2366    0.4833 H   0  0  0  0  0  0  0  0  0  0  0  0
  1  2  1  0  0  0  0
  2  3  2  0  0  0  0
  2  4  1  0  0  0  0
  4  5  1  0  0  0  0
  5  6  2  0  0  0  0
  6  7  1  0  0  0  0
  7  8  2  0  0  0  0
  8  9  1  0  0  0  0
  9 10  2  0  0  0  0
 10 11  1  0  0  0  0
 11 12  2  0  0  0  0
 12 13  1  0  0  0  0
 13 14  2  0  0  0  0
 14 15  1  0  0  0  0
 15 16  2  0  0  0  0
 16 17  1  0  0  0  0
 17 18  2  0  0  0  0
 17 19  1  0  0  0  0
 19 20  2  0  0  0  0
 18  5  1  0  0  0  0
 19  7  1  0  0  0  0
 20 10  1  0  0  0  0
 20 14  1  0  0  0  0
  1 21  1  0  0  0  0
  1 22  1  0  0  0  0
  1 23  1  0  0  0  0
  4 24  1  0  0  0  0
  6 25  1  0  0  0  0
  8 26  1  0  0  0  0
  9 27  1  0  0  0  0
 11 28  1  0  0  0  0
 12 29  1  0  0  0  0
 13 30  1  0  0  0  0
 15 31  1  0  0  0  0
 16 32  1  0  0  0  0
 18 33  1  0  0  0  0
M  END
