
  xtb     03022212063D
 energy: -83.476098557821 gnorm: 0.000149181231 xtb: 6.4.1 (afa7bdf)
 65 66  0     0  0            999 V2000
    7.2167   -1.2941   -3.3392 C   0  0  0  0  0  0  0  0  0  0  0  0
    6.0550   -2.0300   -2.6828 C   0  0  0  0  0  0  0  0  0  0  0  0
    5.7863   -1.5207   -1.2685 C   0  0  0  0  0  0  0  0  0  0  0  0
    4.6150   -2.2492   -0.6135 C   0  0  0  0  0  0  0  0  0  0  0  0
    4.4141   -1.8787    0.8569 C   0  0  0  0  0  0  0  0  0  0  0  0
    4.0729   -0.4093    1.1127 C   0  0  0  0  0  0  0  0  0  0  0  0
    2.7849    0.0821    0.4492 C   0  0  0  0  0  0  0  0  0  0  0  0
    1.5171   -0.6619    0.8730 C   0  0  0  0  0  0  0  0  0  0  0  0
    1.2281   -0.6483    2.3753 C   0  0  0  0  0  0  0  0  0  0  0  0
    1.0961    0.7281    3.0333 C   0  0  0  0  0  0  0  0  0  0  0  0
   -0.1597    1.5156    2.6459 C   0  0  0  0  0  0  0  0  0  0  0  0
    0.0302    2.4266    1.4302 C   0  0  0  0  0  0  0  0  0  0  0  0
   -1.0691    3.2959    1.2390 O   0  0  0  0  0  0  0  0  0  0  0  0
   -2.2200    2.8301    0.6890 C   0  0  0  0  0  0  0  0  0  0  0  0
   -2.4181    1.5585    0.2149 C   0  0  0  0  0  0  0  0  0  0  0  0
   -3.6493    1.1646   -0.3568 C   0  0  0  0  0  0  0  0  0  0  0  0
   -3.8524   -0.1391   -0.8271 C   0  0  0  0  0  0  0  0  0  0  0  0
   -5.0613   -0.5360   -1.3830 C   0  0  0  0  0  0  0  0  0  0  0  0
   -5.2586   -1.8056   -1.8506 N   0  0  0  0  0  0  0  0  0  0  0  0
   -6.5778   -2.2793   -2.1911 C   0  0  0  0  0  0  0  0  0  0  0  0
   -4.1626   -2.7381   -1.9262 C   0  0  0  0  0  0  0  0  0  0  0  0
   -6.1027    0.4285   -1.4694 C   0  0  0  0  0  0  0  0  0  0  0  0
   -5.9268    1.6995   -1.0149 C   0  0  0  0  0  0  0  0  0  0  0  0
   -4.7048    2.1129   -0.4422 C   0  0  0  0  0  0  0  0  0  0  0  0
   -4.4885    3.4053    0.0412 C   0  0  0  0  0  0  0  0  0  0  0  0
   -3.2838    3.7825    0.6002 C   0  0  0  0  0  0  0  0  0  0  0  0
   -3.1149    5.1442    1.0933 C   0  0  0  0  0  0  0  0  0  0  0  0
   -3.9632    6.0071    1.0563 O   0  0  0  0  0  0  0  0  0  0  0  0
    7.0044   -0.2292   -3.4078 H   0  0  0  0  0  0  0  0  0  0  0  0
    7.3940   -1.6738   -4.3428 H   0  0  0  0  0  0  0  0  0  0  0  0
    8.1271   -1.4236   -2.7577 H   0  0  0  0  0  0  0  0  0  0  0  0
    6.2778   -3.0990   -2.6461 H   0  0  0  0  0  0  0  0  0  0  0  0
    5.1552   -1.9014   -3.2893 H   0  0  0  0  0  0  0  0  0  0  0  0
    5.5786   -0.4502   -1.3139 H   0  0  0  0  0  0  0  0  0  0  0  0
    6.6831   -1.6607   -0.6599 H   0  0  0  0  0  0  0  0  0  0  0  0
    3.7019   -2.0474   -1.1765 H   0  0  0  0  0  0  0  0  0  0  0  0
    4.7979   -3.3258   -0.6702 H   0  0  0  0  0  0  0  0  0  0  0  0
    5.3326   -2.1119    1.4021 H   0  0  0  0  0  0  0  0  0  0  0  0
    3.6249   -2.5096    1.2709 H   0  0  0  0  0  0  0  0  0  0  0  0
    4.8968    0.2144    0.7604 H   0  0  0  0  0  0  0  0  0  0  0  0
    4.0001   -0.2590    2.1918 H   0  0  0  0  0  0  0  0  0  0  0  0
    2.8840   -0.0041   -0.6348 H   0  0  0  0  0  0  0  0  0  0  0  0
    2.6712    1.1449    0.6733 H   0  0  0  0  0  0  0  0  0  0  0  0
    1.5938   -1.7047    0.5567 H   0  0  0  0  0  0  0  0  0  0  0  0
    0.6698   -0.2332    0.3339 H   0  0  0  0  0  0  0  0  0  0  0  0
    2.0263   -1.1899    2.8870 H   0  0  0  0  0  0  0  0  0  0  0  0
    0.3031   -1.2050    2.5497 H   0  0  0  0  0  0  0  0  0  0  0  0
    1.0663    0.5617    4.1127 H   0  0  0  0  0  0  0  0  0  0  0  0
    1.9827    1.3288    2.8266 H   0  0  0  0  0  0  0  0  0  0  0  0
   -0.9885    0.8276    2.4701 H   0  0  0  0  0  0  0  0  0  0  0  0
   -0.4483    2.1624    3.4779 H   0  0  0  0  0  0  0  0  0  0  0  0
    0.2313    1.8595    0.5162 H   0  0  0  0  0  0  0  0  0  0  0  0
    0.8739    3.1003    1.6094 H   0  0  0  0  0  0  0  0  0  0  0  0
   -1.6378    0.8146    0.2627 H   0  0  0  0  0  0  0  0  0  0  0  0
   -3.0365   -0.8373   -0.7284 H   0  0  0  0  0  0  0  0  0  0  0  0
   -6.9146   -1.8820   -3.1552 H   0  0  0  0  0  0  0  0  0  0  0  0
   -7.3030   -1.9988   -1.4240 H   0  0  0  0  0  0  0  0  0  0  0  0
   -6.5651   -3.3652   -2.2562 H   0  0  0  0  0  0  0  0  0  0  0  0
   -4.4505   -3.5851   -2.5452 H   0  0  0  0  0  0  0  0  0  0  0  0
   -3.2929   -2.2654   -2.3868 H   0  0  0  0  0  0  0  0  0  0  0  0
   -3.8747   -3.1132   -0.9369 H   0  0  0  0  0  0  0  0  0  0  0  0
   -7.0451    0.1588   -1.9169 H   0  0  0  0  0  0  0  0  0  0  0  0
   -6.7295    2.4185   -1.0927 H   0  0  0  0  0  0  0  0  0  0  0  0
   -5.2749    4.1447   -0.0132 H   0  0  0  0  0  0  0  0  0  0  0  0
   -2.1181    5.3478    1.5229 H   0  0  0  0  0  0  0  0  0  0  0  0
  1  2  1  0  0  0  0
  2  3  1  0  0  0  0
  3  4  1  0  0  0  0
  4  5  1  0  0  0  0
  5  6  1  0  0  0  0
  6  7  1  0  0  0  0
  7  8  1  0  0  0  0
  8  9  1  0  0  0  0
  9 10  1  0  0  0  0
 10 11  1  0  0  0  0
 11 12  1  0  0  0  0
 12 13  1  0  0  0  0
 13 14  1  0  0  0  0
 14 15  2  0  0  0  0
 15 16  1  0  0  0  0
 16 17  2  0  0  0  0
 17 18  1  0  0  0  0
 18 19  1  0  0  0  0
 19 20  1  0  0  0  0
 19 21  1  0  0  0  0
 18 22  2  0  0  0  0
 22 23  1  0  0  0  0
 23 24  2  0  0  0  0
 24 25  1  0  0  0  0
 25 26  2  0  0  0  0
 26 27  1  0  0  0  0
 27 28  2  0  0  0  0
 26 14  1  0  0  0  0
 24 16  1  0  0  0  0
  1 29  1  0  0  0  0
  1 30  1  0  0  0  0
  1 31  1  0  0  0  0
  2 32  1  0  0  0  0
  2 33  1  0  0  0  0
  3 34  1  0  0  0  0
  3 35  1  0  0  0  0
  4 36  1  0  0  0  0
  4 37  1  0  0  0  0
  5 38  1  0  0  0  0
  5 39  1  0  0  0  0
  6 40  1  0  0  0  0
  6 41  1  0  0  0  0
  7 42  1  0  0  0  0
  7 43  1  0  0  0  0
  8 44  1  0  0  0  0
  8 45  1  0  0  0  0
  9 46  1  0  0  0  0
  9 47  1  0  0  0  0
 10 48  1  0  0  0  0
 10 49  1  0  0  0  0
 11 50  1  0  0  0  0
 11 51  1  0  0  0  0
 12 52  1  0  0  0  0
 12 53  1  0  0  0  0
 15 54  1  0  0  0  0
 17 55  1  0  0  0  0
 20 56  1  0  0  0  0
 20 57  1  0  0  0  0
 20 58  1  0  0  0  0
 21 59  1  0  0  0  0
 21 60  1  0  0  0  0
 21 61  1  0  0  0  0
 22 62  1  0  0  0  0
 23 63  1  0  0  0  0
 25 64  1  0  0  0  0
 27 65  1  0  0  0  0
M  END
