
  xtb     03022212343D
 energy: -87.580585512800 gnorm: 0.000173609578 xtb: 6.4.1 (afa7bdf)
 63 68  0     0  0            999 V2000
   -6.0878    0.8538   -2.1306 C   0  0  0  0  0  0  0  0  0  0  0  0
   -5.8471    1.1693   -0.6513 C   0  0  0  0  0  0  0  0  0  0  0  0
   -5.2126    0.1011    0.0839 N   0  0  0  0  0  0  0  0  0  0  0  0
   -6.0688   -0.9513    0.5856 C   0  0  0  0  0  0  0  0  0  0  0  0
   -6.0233   -2.2304   -0.2535 C   0  0  0  0  0  0  0  0  0  0  0  0
   -3.8434   -0.0344    0.1076 C   0  0  0  0  0  0  0  0  0  0  0  0
   -3.0015    0.8004   -0.6448 C   0  0  0  0  0  0  0  0  0  0  0  0
   -1.6307    0.6973   -0.5704 C   0  0  0  0  0  0  0  0  0  0  0  0
   -1.0208   -0.2519    0.2466 C   0  0  0  0  0  0  0  0  0  0  0  0
    0.4338   -0.4061    0.2903 C   0  0  0  0  0  0  0  0  0  0  0  0
    0.8724   -1.6633    0.3301 N   0  0  0  0  0  0  0  0  0  0  0  0
    2.1482   -1.9210    0.1534 C   0  0  0  0  0  0  0  0  0  0  0  0
    3.0894   -0.9279   -0.1722 C   0  0  0  0  0  0  0  0  0  0  0  0
    2.6847    0.3958   -0.0031 C   0  0  0  0  0  0  0  0  0  0  0  0
    1.3375    0.6707    0.2755 C   0  0  0  0  0  0  0  0  0  0  0  0
    0.9487    2.0563    0.5550 C   0  0  0  0  0  0  0  0  0  0  0  0
   -0.1133    2.3784    1.3966 C   0  0  0  0  0  0  0  0  0  0  0  0
   -0.4652    3.6974    1.6109 C   0  0  0  0  0  0  0  0  0  0  0  0
    0.2429    4.7162    0.9961 C   0  0  0  0  0  0  0  0  0  0  0  0
    1.3370    4.4092    0.2052 C   0  0  0  0  0  0  0  0  0  0  0  0
    1.7063    3.0922   -0.0065 C   0  0  0  0  0  0  0  0  0  0  0  0
    2.9460    2.7223   -0.7682 C   0  0  0  0  0  0  0  0  0  0  0  0
    3.6187    1.5729   -0.0188 C   0  0  0  0  0  0  0  0  0  0  0  0
    4.4083   -1.3835   -0.6238 C   0  0  0  0  0  0  0  0  0  0  0  0
    5.1234   -0.7509   -1.6367 C   0  0  0  0  0  0  0  0  0  0  0  0
    6.3583   -1.2321   -2.0331 C   0  0  0  0  0  0  0  0  0  0  0  0
    6.8880   -2.3620   -1.4356 C   0  0  0  0  0  0  0  0  0  0  0  0
    6.1511   -3.0411   -0.4792 C   0  0  0  0  0  0  0  0  0  0  0  0
    4.9109   -2.5738   -0.0816 C   0  0  0  0  0  0  0  0  0  0  0  0
    4.0344   -3.3329    0.8714 C   0  0  0  0  0  0  0  0  0  0  0  0
    2.6135   -3.3388    0.3063 C   0  0  0  0  0  0  0  0  0  0  0  0
   -1.8467   -1.1123    0.9651 C   0  0  0  0  0  0  0  0  0  0  0  0
   -3.2178   -1.0029    0.9089 C   0  0  0  0  0  0  0  0  0  0  0  0
   -5.1623    0.5436   -2.6087 H   0  0  0  0  0  0  0  0  0  0  0  0
   -6.4685    1.7352   -2.6409 H   0  0  0  0  0  0  0  0  0  0  0  0
   -6.8161    0.0541   -2.2385 H   0  0  0  0  0  0  0  0  0  0  0  0
   -6.8075    1.3841   -0.1713 H   0  0  0  0  0  0  0  0  0  0  0  0
   -5.2350    2.0698   -0.5586 H   0  0  0  0  0  0  0  0  0  0  0  0
   -5.7972   -1.1826    1.6214 H   0  0  0  0  0  0  0  0  0  0  0  0
   -7.0920   -0.5687    0.6001 H   0  0  0  0  0  0  0  0  0  0  0  0
   -6.3741   -2.0401   -1.2641 H   0  0  0  0  0  0  0  0  0  0  0  0
   -5.0074   -2.6112   -0.3127 H   0  0  0  0  0  0  0  0  0  0  0  0
   -6.6572   -2.9904    0.1967 H   0  0  0  0  0  0  0  0  0  0  0  0
   -3.4119    1.5387   -1.3139 H   0  0  0  0  0  0  0  0  0  0  0  0
   -1.0213    1.3521   -1.1767 H   0  0  0  0  0  0  0  0  0  0  0  0
   -0.6588    1.5913    1.8940 H   0  0  0  0  0  0  0  0  0  0  0  0
   -1.2941    3.9308    2.2631 H   0  0  0  0  0  0  0  0  0  0  0  0
   -0.0388    5.7472    1.1527 H   0  0  0  0  0  0  0  0  0  0  0  0
    1.9193    5.2025   -0.2432 H   0  0  0  0  0  0  0  0  0  0  0  0
    2.6889    2.3989   -1.7830 H   0  0  0  0  0  0  0  0  0  0  0  0
    3.6155    3.5805   -0.8457 H   0  0  0  0  0  0  0  0  0  0  0  0
    4.5857    1.3220   -0.4468 H   0  0  0  0  0  0  0  0  0  0  0  0
    3.7882    1.8861    1.0186 H   0  0  0  0  0  0  0  0  0  0  0  0
    4.6972    0.0989   -2.1491 H   0  0  0  0  0  0  0  0  0  0  0  0
    6.9041   -0.7270   -2.8169 H   0  0  0  0  0  0  0  0  0  0  0  0
    7.8575   -2.7321   -1.7352 H   0  0  0  0  0  0  0  0  0  0  0  0
    6.5395   -3.9525   -0.0464 H   0  0  0  0  0  0  0  0  0  0  0  0
    4.0306   -2.8431    1.8508 H   0  0  0  0  0  0  0  0  0  0  0  0
    4.4042   -4.3508    1.0022 H   0  0  0  0  0  0  0  0  0  0  0  0
    1.9215   -3.8723    0.9578 H   0  0  0  0  0  0  0  0  0  0  0  0
    2.6091   -3.8340   -0.6699 H   0  0  0  0  0  0  0  0  0  0  0  0
   -1.3911   -1.8680    1.5868 H   0  0  0  0  0  0  0  0  0  0  0  0
   -3.8032   -1.6795    1.5095 H   0  0  0  0  0  0  0  0  0  0  0  0
  1  2  1  0  0  0  0
  2  3  1  0  0  0  0
  3  4  1  0  0  0  0
  4  5  1  0  0  0  0
  3  6  1  0  0  0  0
  6  7  2  0  0  0  0
  7  8  1  0  0  0  0
  8  9  2  0  0  0  0
  9 10  1  0  0  0  0
 10 11  2  0  0  0  0
 11 12  1  0  0  0  0
 12 13  2  0  0  0  0
 13 14  1  0  0  0  0
 14 15  2  0  0  0  0
 15 16  1  0  0  0  0
 16 17  2  0  0  0  0
 17 18  1  0  0  0  0
 18 19  2  0  0  0  0
 19 20  1  0  0  0  0
 20 21  2  0  0  0  0
 21 22  1  0  0  0  0
 22 23  1  0  0  0  0
 13 24  1  0  0  0  0
 24 25  2  0  0  0  0
 25 26  1  0  0  0  0
 26 27  2  0  0  0  0
 27 28  1  0  0  0  0
 28 29  2  0  0  0  0
 29 30  1  0  0  0  0
 30 31  1  0  0  0  0
  9 32  1  0  0  0  0
 32 33  2  0  0  0  0
 33  6  1  0  0  0  0
 15 10  1  0  0  0  0
 21 16  1  0  0  0  0
 29 24  1  0  0  0  0
 31 12  1  0  0  0  0
 23 14  1  0  0  0  0
  1 34  1  0  0  0  0
  1 35  1  0  0  0  0
  1 36  1  0  0  0  0
  2 37  1  0  0  0  0
  2 38  1  0  0  0  0
  4 39  1  0  0  0  0
  4 40  1  0  0  0  0
  5 41  1  0  0  0  0
  5 42  1  0  0  0  0
  5 43  1  0  0  0  0
  7 44  1  0  0  0  0
  8 45  1  0  0  0  0
 17 46  1  0  0  0  0
 18 47  1  0  0  0  0
 19 48  1  0  0  0  0
 20 49  1  0  0  0  0
 22 50  1  0  0  0  0
 22 51  1  0  0  0  0
 23 52  1  0  0  0  0
 23 53  1  0  0  0  0
 25 54  1  0  0  0  0
 26 55  1  0  0  0  0
 27 56  1  0  0  0  0
 28 57  1  0  0  0  0
 30 58  1  0  0  0  0
 30 59  1  0  0  0  0
 31 60  1  0  0  0  0
 31 61  1  0  0  0  0
 32 62  1  0  0  0  0
 33 63  1  0  0  0  0
M  END
