
  xtb     03022215203D
 energy: -108.828967812806 gnorm: 0.000095062654 xtb: 6.4.1 (afa7bdf)
 65 71  0     0  0            999 V2000
    3.6148   -0.2501    1.6949 C   0  0  0  0  0  0  0  0  0  0  0  0
    3.0812   -0.5363    0.3464 C   0  0  0  0  0  0  0  0  0  0  0  0
    3.8709   -0.8147   -0.6903 N   0  0  0  0  0  4  0  0  0  0  0  0
    3.0866   -1.0131   -1.8123 C   0  0  0  0  0  0  0  0  0  0  0  0
    3.6443   -1.3380   -3.0383 C   0  0  0  0  0  0  0  0  0  0  0  0
    5.0121   -1.4866   -3.1828 C   0  0  0  0  0  0  0  0  0  0  0  0
    5.7941   -1.8193   -4.3142 C   0  0  0  0  0  0  0  0  0  0  0  0
    7.1049   -1.8347   -3.9018 C   0  0  0  0  0  0  0  0  0  0  0  0
    7.1200   -1.5131   -2.5297 C   0  0  0  0  0  0  0  0  0  0  0  0
    8.2855   -1.3984   -1.6291 C   0  0  0  0  0  0  0  0  0  0  0  0
    5.8678   -1.3095   -2.1138 N   0  0  0  0  0  0  0  0  0  0  0  0
    5.4183   -0.9176   -0.6885 B   0  0  0  0  0  4  0  0  0  0  0  0
    5.9745    0.3034   -0.3467 F   0  0  0  0  0  0  0  0  0  0  0  0
    5.8234   -1.8784    0.2178 F   0  0  0  0  0  0  0  0  0  0  0  0
    1.7408   -0.8365   -1.4372 C   0  0  0  0  0  0  0  0  0  0  0  0
    1.7239   -0.5460   -0.0823 C   0  0  0  0  0  0  0  0  0  0  0  0
    0.5474   -0.2954    0.7156 C   0  0  0  0  0  0  0  0  0  0  0  0
   -0.7033    0.0845    0.2432 C   0  0  0  0  0  0  0  0  0  0  0  0
   -1.5534    0.2037    1.3599 C   0  0  0  0  0  0  0  0  0  0  0  0
   -0.8238   -0.1094    2.4877 N   0  0  0  0  0  0  0  0  0  0  0  0
    0.4138   -0.4060    2.1163 C   0  0  0  0  0  0  0  0  0  0  0  0
   -1.3766   -0.0975    3.9351 B   0  0  0  0  0  4  0  0  0  0  0  0
   -1.2762   -1.3565    4.4840 F   0  0  0  0  0  0  0  0  0  0  0  0
   -0.6698    0.8108    4.6924 F   0  0  0  0  0  0  0  0  0  0  0  0
   -2.8615    0.3260    3.8456 N   0  0  0  0  0  4  0  0  0  0  0  0
   -3.7143    0.4641    4.8553 C   0  0  0  0  0  0  0  0  0  0  0  0
   -4.9706    0.8527    4.3760 C   0  0  0  0  0  0  0  0  0  0  0  0
   -4.8628    0.9509    3.0057 C   0  0  0  0  0  0  0  0  0  0  0  0
   -3.5292    0.6177    2.6759 C   0  0  0  0  0  0  0  0  0  0  0  0
   -2.8982    0.5604    1.4354 C   0  0  0  0  0  0  0  0  0  0  0  0
   -3.6512    0.8680    0.2033 C   0  0  0  0  0  0  0  0  0  0  0  0
   -3.7095    2.1821   -0.2632 C   0  0  0  0  0  0  0  0  0  0  0  0
   -3.0077    3.2748    0.4844 C   0  0  0  0  0  0  0  0  0  0  0  0
   -4.4201    2.4485   -1.4226 C   0  0  0  0  0  0  0  0  0  0  0  0
   -5.0697    1.4407   -2.1230 C   0  0  0  0  0  0  0  0  0  0  0  0
   -5.8484    1.7597   -3.3624 C   0  0  0  0  0  0  0  0  0  0  0  0
   -4.9969    0.1423   -1.6401 C   0  0  0  0  0  0  0  0  0  0  0  0
   -4.2947   -0.1616   -0.4837 C   0  0  0  0  0  0  0  0  0  0  0  0
   -4.2204   -1.5674    0.0300 C   0  0  0  0  0  0  0  0  0  0  0  0
    4.6539    0.0578    1.6255 H   0  0  0  0  0  0  0  0  0  0  0  0
    3.0319    0.5293    2.1802 H   0  0  0  0  0  0  0  0  0  0  0  0
    3.5753   -1.1508    2.3087 H   0  0  0  0  0  0  0  0  0  0  0  0
    2.9995   -1.4813   -3.8917 H   0  0  0  0  0  0  0  0  0  0  0  0
    5.4099   -2.0174   -5.2956 H   0  0  0  0  0  0  0  0  0  0  0  0
    7.9726   -2.0487   -4.4944 H   0  0  0  0  0  0  0  0  0  0  0  0
    8.1781   -2.0946   -0.7981 H   0  0  0  0  0  0  0  0  0  0  0  0
    8.3199   -0.3979   -1.1992 H   0  0  0  0  0  0  0  0  0  0  0  0
    9.2087   -1.6017   -2.1638 H   0  0  0  0  0  0  0  0  0  0  0  0
    0.8975   -0.9336   -2.0918 H   0  0  0  0  0  0  0  0  0  0  0  0
   -0.9905    0.2742   -0.7722 H   0  0  0  0  0  0  0  0  0  0  0  0
    1.1380   -0.7077    2.8467 H   0  0  0  0  0  0  0  0  0  0  0  0
   -3.4022    0.2833    5.8660 H   0  0  0  0  0  0  0  0  0  0  0  0
   -5.8399    1.0346    4.9762 H   0  0  0  0  0  0  0  0  0  0  0  0
   -5.6222    1.2244    2.2992 H   0  0  0  0  0  0  0  0  0  0  0  0
   -3.3870    3.3450    1.5032 H   0  0  0  0  0  0  0  0  0  0  0  0
   -3.1519    4.2327   -0.0082 H   0  0  0  0  0  0  0  0  0  0  0  0
   -1.9394    3.0700    0.5447 H   0  0  0  0  0  0  0  0  0  0  0  0
   -4.4686    3.4638   -1.7895 H   0  0  0  0  0  0  0  0  0  0  0  0
   -6.8204    2.1744   -3.0945 H   0  0  0  0  0  0  0  0  0  0  0  0
   -6.0135    0.8667   -3.9598 H   0  0  0  0  0  0  0  0  0  0  0  0
   -5.3263    2.4984   -3.9669 H   0  0  0  0  0  0  0  0  0  0  0  0
   -5.4974   -0.6523   -2.1749 H   0  0  0  0  0  0  0  0  0  0  0  0
   -4.6295   -1.6276    1.0379 H   0  0  0  0  0  0  0  0  0  0  0  0
   -4.7782   -2.2428   -0.6135 H   0  0  0  0  0  0  0  0  0  0  0  0
   -3.1850   -1.9032    0.0754 H   0  0  0  0  0  0  0  0  0  0  0  0
  1  2  1  0  0  0  0
  2  3  2  0  0  0  0
  3  4  1  0  0  0  0
  4  5  2  0  0  0  0
  5  6  1  0  0  0  0
  6  7  2  0  0  0  0
  7  8  1  0  0  0  0
  8  9  2  0  0  0  0
  9 10  1  0  0  0  0
  9 11  1  0  0  0  0
 11 12  1  0  0  0  0
 12 13  1  0  0  0  0
 12 14  1  0  0  0  0
  4 15  1  0  0  0  0
 15 16  2  0  0  0  0
 16 17  1  0  0  0  0
 17 18  1  0  0  0  0
 18 19  2  0  0  0  0
 19 20  1  0  0  0  0
 20 21  1  0  0  0  0
 20 22  1  0  0  0  0
 22 23  1  0  0  0  0
 22 24  1  0  0  0  0
 22 25  1  0  0  0  0
 25 26  2  0  0  0  0
 26 27  1  0  0  0  0
 27 28  2  0  0  0  0
 28 29  1  0  0  0  0
 29 30  2  0  0  0  0
 30 31  1  0  0  0  0
 31 32  2  0  0  0  0
 32 33  1  0  0  0  0
 32 34  1  0  0  0  0
 34 35  2  0  0  0  0
 35 36  1  0  0  0  0
 35 37  1  0  0  0  0
 37 38  2  0  0  0  0
 38 39  1  0  0  0  0
 16  2  1  0  0  0  0
 21 17  2  0  0  0  0
 29 25  1  0  0  0  0
 38 31  1  0  0  0  0
 12  3  1  0  0  0  0
 30 19  1  0  0  0  0
 11  6  1  0  0  0  0
  1 40  1  0  0  0  0
  1 41  1  0  0  0  0
  1 42  1  0  0  0  0
  5 43  1  0  0  0  0
  7 44  1  0  0  0  0
  8 45  1  0  0  0  0
 10 46  1  0  0  0  0
 10 47  1  0  0  0  0
 10 48  1  0  0  0  0
 15 49  1  0  0  0  0
 18 50  1  0  0  0  0
 21 51  1  0  0  0  0
 26 52  1  0  0  0  0
 27 53  1  0  0  0  0
 28 54  1  0  0  0  0
 33 55  1  0  0  0  0
 33 56  1  0  0  0  0
 33 57  1  0  0  0  0
 34 58  1  0  0  0  0
 36 59  1  0  0  0  0
 36 60  1  0  0  0  0
 36 61  1  0  0  0  0
 37 62  1  0  0  0  0
 39 63  1  0  0  0  0
 39 64  1  0  0  0  0
 39 65  1  0  0  0  0
M  CHG  1   3   1
M  CHG  1  12  -1
M  CHG  1  22  -1
M  CHG  1  25   1
M  END
