
  xtb     03022212453D
 energy: -53.286541412785 gnorm: 0.000149691889 xtb: 6.4.1 (afa7bdf)
 31 33  0     0  0            999 V2000
   -1.5154    1.5005    3.7949 N   0  0  0  0  0  0  0  0  0  0  0  0
   -0.9325    1.1770    2.8593 C   0  0  0  0  0  0  0  0  0  0  0  0
   -0.2504    0.7748    1.7095 C   0  0  0  0  0  0  0  0  0  0  0  0
    1.0472    0.9881    1.5062 N   0  0  0  0  0  0  0  0  0  0  0  0
    1.3042    0.4834    0.3309 N   0  0  0  0  0  0  0  0  0  0  0  0
    2.5706    0.5109   -0.2357 C   0  0  0  0  0  0  0  0  0  0  0  0
    3.6260    1.0858    0.4678 C   0  0  0  0  0  0  0  0  0  0  0  0
    4.8856    1.1116   -0.0961 C   0  0  0  0  0  0  0  0  0  0  0  0
    5.0682    0.5623   -1.3546 C   0  0  0  0  0  0  0  0  0  0  0  0
    6.2982    0.5872   -1.9056 F   0  0  0  0  0  0  0  0  0  0  0  0
    4.0274   -0.0120   -2.0647 C   0  0  0  0  0  0  0  0  0  0  0  0
    2.7679   -0.0379   -1.4997 C   0  0  0  0  0  0  0  0  0  0  0  0
    0.2600   -0.0672   -0.2904 N   0  0  0  0  0  0  0  0  0  0  0  0
   -0.7585    0.0932    0.5513 C   0  0  0  0  0  0  0  0  0  0  0  0
   -1.9977   -0.3339    0.2983 N   0  0  0  0  0  0  0  0  0  0  0  0
   -3.1301   -0.1561    1.1812 C   0  0  0  0  0  0  0  0  0  0  0  0
   -4.2277   -0.9872    0.5188 C   0  0  0  0  0  0  0  0  0  0  0  0
   -3.8794   -0.8938   -0.9667 C   0  0  0  0  0  0  0  0  0  0  0  0
   -2.3549   -0.9607   -0.9574 C   0  0  0  0  0  0  0  0  0  0  0  0
    3.4425    1.5025    1.4449 H   0  0  0  0  0  0  0  0  0  0  0  0
    5.7225    1.5489    0.4242 H   0  0  0  0  0  0  0  0  0  0  0  0
    4.2112   -0.4288   -3.0420 H   0  0  0  0  0  0  0  0  0  0  0  0
    1.9302   -0.4760   -2.0171 H   0  0  0  0  0  0  0  0  0  0  0  0
   -3.4123    0.9037    1.2361 H   0  0  0  0  0  0  0  0  0  0  0  0
   -2.8969   -0.4961    2.1937 H   0  0  0  0  0  0  0  0  0  0  0  0
   -5.2215   -0.6091    0.7455 H   0  0  0  0  0  0  0  0  0  0  0  0
   -4.1624   -2.0235    0.8518 H   0  0  0  0  0  0  0  0  0  0  0  0
   -4.3252   -1.6924   -1.5549 H   0  0  0  0  0  0  0  0  0  0  0  0
   -4.2104    0.0647   -1.3680 H   0  0  0  0  0  0  0  0  0  0  0  0
   -1.9990   -1.9983   -0.9719 H   0  0  0  0  0  0  0  0  0  0  0  0
   -1.8875   -0.4293   -1.7896 H   0  0  0  0  0  0  0  0  0  0  0  0
  1  2  3  0  0  0  0
  2  3  1  0  0  0  0
  3  4  2  0  0  0  0
  4  5  1  0  0  0  0
  5  6  1  0  0  0  0
  6  7  2  0  0  0  0
  7  8  1  0  0  0  0
  8  9  2  0  0  0  0
  9 10  1  0  0  0  0
  9 11  1  0  0  0  0
 11 12  2  0  0  0  0
  5 13  1  0  0  0  0
 13 14  2  0  0  0  0
 14 15  1  0  0  0  0
 15 16  1  0  0  0  0
 16 17  1  0  0  0  0
 17 18  1  0  0  0  0
 18 19  1  0  0  0  0
 14  3  1  0  0  0  0
 19 15  1  0  0  0  0
 12  6  1  0  0  0  0
  7 20  1  0  0  0  0
  8 21  1  0  0  0  0
 11 22  1  0  0  0  0
 12 23  1  0  0  0  0
 16 24  1  0  0  0  0
 16 25  1  0  0  0  0
 17 26  1  0  0  0  0
 17 27  1  0  0  0  0
 18 28  1  0  0  0  0
 18 29  1  0  0  0  0
 19 30  1  0  0  0  0
 19 31  1  0  0  0  0
M  END
