
  xtb     03022215073D
 energy: -69.217663263714 gnorm: 0.000394501463 xtb: 6.4.1 (afa7bdf)
 39 41  0     0  0            999 V2000
    7.4643   -1.4831   -0.1323 C   0  0  0  0  0  0  0  0  0  0  0  0
    6.9788   -0.1607   -0.1571 O   0  0  0  0  0  0  0  0  0  0  0  0
    5.6443    0.0506   -0.1392 C   0  0  0  0  0  0  0  0  0  0  0  0
    5.2361    1.3898   -0.1644 C   0  0  0  0  0  0  0  0  0  0  0  0
    3.9021    1.7116   -0.1488 C   0  0  0  0  0  0  0  0  0  0  0  0
    2.9131    0.7158   -0.1091 C   0  0  0  0  0  0  0  0  0  0  0  0
    1.5301    1.1095   -0.0966 C   0  0  0  0  0  0  0  0  0  0  0  0
    0.4457    0.3062   -0.0826 C   0  0  0  0  0  0  0  0  0  0  0  0
   -0.8942    0.8423   -0.0723 C   0  0  0  0  0  0  0  0  0  0  0  0
   -1.9950   -0.0246   -0.0673 C   0  0  0  0  0  0  0  0  0  0  0  0
   -3.2774    0.5108   -0.0471 C   0  0  0  0  0  0  0  0  0  0  0  0
   -4.4782   -0.3380   -0.0508 C   0  0  0  0  0  0  0  0  0  0  0  0
   -5.6755    0.1994   -0.5271 C   0  0  0  0  0  0  0  0  0  0  0  0
   -6.8233   -0.5682   -0.5566 C   0  0  0  0  0  0  0  0  0  0  0  0
   -6.7952   -1.8766   -0.1005 C   0  0  0  0  0  0  0  0  0  0  0  0
   -5.6146   -2.4127    0.3900 C   0  0  0  0  0  0  0  0  0  0  0  0
   -4.4604   -1.6531    0.4145 C   0  0  0  0  0  0  0  0  0  0  0  0
   -3.4903    1.7828   -0.0457 O   0  0  0  0  0  3  0  0  0  0  0  0
   -2.3776    2.7888   -0.0999 B   0  0  0  0  0  4  0  0  0  0  0  0
   -2.4850    3.4801   -1.2750 F   0  0  0  0  0  0  0  0  0  0  0  0
   -2.4817    3.6106    0.9833 F   0  0  0  0  0  0  0  0  0  0  0  0
   -1.0324    2.1252   -0.0654 O   0  0  0  0  0  0  0  0  0  0  0  0
    3.3350   -0.6175   -0.0838 C   0  0  0  0  0  0  0  0  0  0  0  0
    4.6730   -0.9504   -0.0978 C   0  0  0  0  0  0  0  0  0  0  0  0
    7.1287   -2.0502   -1.0061 H   0  0  0  0  0  0  0  0  0  0  0  0
    7.1611   -2.0045    0.7809 H   0  0  0  0  0  0  0  0  0  0  0  0
    8.5494   -1.3977   -0.1542 H   0  0  0  0  0  0  0  0  0  0  0  0
    5.9973    2.1531   -0.1956 H   0  0  0  0  0  0  0  0  0  0  0  0
    3.6030    2.7490   -0.1682 H   0  0  0  0  0  0  0  0  0  0  0  0
    1.3418    2.1762   -0.1012 H   0  0  0  0  0  0  0  0  0  0  0  0
    0.5228   -0.7698   -0.0810 H   0  0  0  0  0  0  0  0  0  0  0  0
   -1.8380   -1.0868   -0.1016 H   0  0  0  0  0  0  0  0  0  0  0  0
   -5.6805    1.2201   -0.8771 H   0  0  0  0  0  0  0  0  0  0  0  0
   -7.7429   -0.1463   -0.9335 H   0  0  0  0  0  0  0  0  0  0  0  0
   -7.6925   -2.4770   -0.1209 H   0  0  0  0  0  0  0  0  0  0  0  0
   -5.5959   -3.4278    0.7582 H   0  0  0  0  0  0  0  0  0  0  0  0
   -3.5546   -2.0740    0.8223 H   0  0  0  0  0  0  0  0  0  0  0  0
    2.6048   -1.4111   -0.0512 H   0  0  0  0  0  0  0  0  0  0  0  0
    4.9546   -1.9916   -0.0764 H   0  0  0  0  0  0  0  0  0  0  0  0
  1  2  1  0  0  0  0
  2  3  1  0  0  0  0
  3  4  2  0  0  0  0
  4  5  1  0  0  0  0
  5  6  2  0  0  0  0
  6  7  1  0  0  0  0
  7  8  2  0  0  0  0
  8  9  1  0  0  0  0
  9 10  2  0  0  0  0
 10 11  1  0  0  0  0
 11 12  1  0  0  0  0
 12 13  2  0  0  0  0
 13 14  1  0  0  0  0
 14 15  2  0  0  0  0
 15 16  1  0  0  0  0
 16 17  2  0  0  0  0
 11 18  2  0  0  0  0
 18 19  1  0  0  0  0
 19 20  1  0  0  0  0
 19 21  1  0  0  0  0
 19 22  1  0  0  0  0
  6 23  1  0  0  0  0
 23 24  2  0  0  0  0
 24  3  1  0  0  0  0
 22  9  1  0  0  0  0
 17 12  1  0  0  0  0
  1 25  1  0  0  0  0
  1 26  1  0  0  0  0
  1 27  1  0  0  0  0
  4 28  1  0  0  0  0
  5 29  1  0  0  0  0
  7 30  1  0  0  0  0
  8 31  1  0  0  0  0
 10 32  1  0  0  0  0
 13 33  1  0  0  0  0
 14 34  1  0  0  0  0
 15 35  1  0  0  0  0
 16 36  1  0  0  0  0
 17 37  1  0  0  0  0
 23 38  1  0  0  0  0
 24 39  1  0  0  0  0
M  CHG  1  18   1
M  CHG  1  19  -1
M  END
