
  xtb     03022212523D
 energy: -107.259734085293 gnorm: 0.000070027360 xtb: 6.4.1 (afa7bdf)
 63 66  0     0  0            999 V2000
    8.3670   -4.5633    0.5560 C   0  0  0  0  0  0  0  0  0  0  0  0
    8.0161   -3.2019    0.6163 O   0  0  0  0  0  0  0  0  0  0  0  0
    6.7070   -2.8596    0.5030 C   0  0  0  0  0  0  0  0  0  0  0  0
    5.6561   -3.7550    0.3281 C   0  0  0  0  0  0  0  0  0  0  0  0
    4.3622   -3.2835    0.2258 C   0  0  0  0  0  0  0  0  0  0  0  0
    4.0647   -1.9210    0.2921 C   0  0  0  0  0  0  0  0  0  0  0  0
    2.6853   -1.4989    0.1771 C   0  0  0  0  0  0  0  0  0  0  0  0
    2.2277   -0.2387    0.2135 C   0  0  0  0  0  0  0  0  0  0  0  0
    0.8395    0.1634    0.0934 C   0  0  0  0  0  0  0  0  0  0  0  0
   -0.2320   -0.7221   -0.0476 C   0  0  0  0  0  0  0  0  0  0  0  0
   -1.5144   -0.1799   -0.1534 C   0  0  0  0  0  0  0  0  0  0  0  0
   -2.7285   -0.9581   -0.3027 C   0  0  0  0  0  0  0  0  0  0  0  0
   -2.8040   -2.2969   -0.3320 C   0  0  0  0  0  0  0  0  0  0  0  0
   -4.0053   -3.0905   -0.4770 C   0  0  0  0  0  0  0  0  0  0  0  0
   -3.8995   -4.4826   -0.4856 C   0  0  0  0  0  0  0  0  0  0  0  0
   -5.0052   -5.2989   -0.6201 C   0  0  0  0  0  0  0  0  0  0  0  0
   -6.2703   -4.7342   -0.7519 C   0  0  0  0  0  0  0  0  0  0  0  0
   -7.4278   -5.4306   -0.8904 O   0  0  0  0  0  0  0  0  0  0  0  0
   -7.3737   -6.8366   -0.9066 C   0  0  0  0  0  0  0  0  0  0  0  0
   -6.3921   -3.3410   -0.7449 C   0  0  0  0  0  0  0  0  0  0  0  0
   -5.2855   -2.5382   -0.6106 C   0  0  0  0  0  0  0  0  0  0  0  0
   -1.6940    1.1448   -0.1216 N   0  0  0  0  0  0  0  0  0  0  0  0
   -0.6211    1.9154    0.0177 C   0  0  0  0  0  0  0  0  0  0  0  0
   -0.8647    3.3489    0.0498 C   0  0  0  0  0  0  0  0  0  0  0  0
    0.1221    4.2432    0.1888 C   0  0  0  0  0  0  0  0  0  0  0  0
   -0.0110    5.6861    0.2308 C   0  0  0  0  0  0  0  0  0  0  0  0
    1.1429    6.4647    0.3691 C   0  0  0  0  0  0  0  0  0  0  0  0
    1.0769    7.8421    0.4125 C   0  0  0  0  0  0  0  0  0  0  0  0
   -0.1587    8.4705    0.3223 C   0  0  0  0  0  0  0  0  0  0  0  0
   -0.2460    9.9675    0.3351 C   0  0  0  0  0  0  0  0  0  0  0  0
   -0.2558   10.4865   -0.9117 F   0  0  0  0  0  0  0  0  0  0  0  0
    0.7837   10.5505    0.9687 F   0  0  0  0  0  0  0  0  0  0  0  0
   -1.3626   10.4204    0.9294 F   0  0  0  0  0  0  0  0  0  0  0  0
   -1.3192    7.7176    0.1814 C   0  0  0  0  0  0  0  0  0  0  0  0
   -1.2431    6.3413    0.1386 C   0  0  0  0  0  0  0  0  0  0  0  0
    0.6305    1.4824    0.1273 N   0  0  0  0  0  0  0  0  0  0  0  0
    5.1336   -1.0333    0.4683 C   0  0  0  0  0  0  0  0  0  0  0  0
    6.4245   -1.4916    0.5714 C   0  0  0  0  0  0  0  0  0  0  0  0
    9.4495   -4.5940    0.6686 H   0  0  0  0  0  0  0  0  0  0  0  0
    7.9033   -5.1342    1.3669 H   0  0  0  0  0  0  0  0  0  0  0  0
    8.0913   -5.0072   -0.4060 H   0  0  0  0  0  0  0  0  0  0  0  0
    5.8339   -4.8175    0.2705 H   0  0  0  0  0  0  0  0  0  0  0  0
    3.5587   -3.9940    0.0902 H   0  0  0  0  0  0  0  0  0  0  0  0
    1.9831   -2.3131    0.0478 H   0  0  0  0  0  0  0  0  0  0  0  0
    2.9016    0.5962    0.3361 H   0  0  0  0  0  0  0  0  0  0  0  0
   -0.0742   -1.7861   -0.0738 H   0  0  0  0  0  0  0  0  0  0  0  0
   -3.6144   -0.3466   -0.3884 H   0  0  0  0  0  0  0  0  0  0  0  0
   -1.8964   -2.8805   -0.2391 H   0  0  0  0  0  0  0  0  0  0  0  0
   -2.9248   -4.9393   -0.3842 H   0  0  0  0  0  0  0  0  0  0  0  0
   -4.8708   -6.3694   -0.6208 H   0  0  0  0  0  0  0  0  0  0  0  0
   -8.4032   -7.1698   -1.0268 H   0  0  0  0  0  0  0  0  0  0  0  0
   -6.7743   -7.2061   -1.7449 H   0  0  0  0  0  0  0  0  0  0  0  0
   -6.9726   -7.2343    0.0313 H   0  0  0  0  0  0  0  0  0  0  0  0
   -7.3787   -2.9172   -0.8478 H   0  0  0  0  0  0  0  0  0  0  0  0
   -5.4125   -1.4675   -0.6088 H   0  0  0  0  0  0  0  0  0  0  0  0
   -1.9038    3.6233   -0.0484 H   0  0  0  0  0  0  0  0  0  0  0  0
    1.1291    3.8573    0.2783 H   0  0  0  0  0  0  0  0  0  0  0  0
    2.1031    5.9764    0.4417 H   0  0  0  0  0  0  0  0  0  0  0  0
    1.9743    8.4321    0.5206 H   0  0  0  0  0  0  0  0  0  0  0  0
   -2.2744    8.2155    0.1116 H   0  0  0  0  0  0  0  0  0  0  0  0
   -2.1500    5.7685    0.0321 H   0  0  0  0  0  0  0  0  0  0  0  0
    4.9485    0.0274    0.5250 H   0  0  0  0  0  0  0  0  0  0  0  0
    7.2489   -0.8092    0.7071 H   0  0  0  0  0  0  0  0  0  0  0  0
  1  2  1  0  0  0  0
  2  3  1  0  0  0  0
  3  4  2  0  0  0  0
  4  5  1  0  0  0  0
  5  6  2  0  0  0  0
  6  7  1  0  0  0  0
  7  8  2  0  0  0  0
  8  9  1  0  0  0  0
  9 10  2  0  0  0  0
 10 11  1  0  0  0  0
 11 12  1  0  0  0  0
 12 13  2  0  0  0  0
 13 14  1  0  0  0  0
 14 15  2  0  0  0  0
 15 16  1  0  0  0  0
 16 17  2  0  0  0  0
 17 18  1  0  0  0  0
 18 19  1  0  0  0  0
 17 20  1  0  0  0  0
 20 21  2  0  0  0  0
 11 22  2  0  0  0  0
 22 23  1  0  0  0  0
 23 24  1  0  0  0  0
 24 25  2  0  0  0  0
 25 26  1  0  0  0  0
 26 27  2  0  0  0  0
 27 28  1  0  0  0  0
 28 29  2  0  0  0  0
 29 30  1  0  0  0  0
 30 31  1  0  0  0  0
 30 32  1  0  0  0  0
 30 33  1  0  0  0  0
 29 34  1  0  0  0  0
 34 35  2  0  0  0  0
 23 36  2  0  0  0  0
  6 37  1  0  0  0  0
 37 38  2  0  0  0  0
 38  3  1  0  0  0  0
 36  9  1  0  0  0  0
 21 14  1  0  0  0  0
 35 26  1  0  0  0  0
  1 39  1  0  0  0  0
  1 40  1  0  0  0  0
  1 41  1  0  0  0  0
  4 42  1  0  0  0  0
  5 43  1  0  0  0  0
  7 44  1  0  0  0  0
  8 45  1  0  0  0  0
 10 46  1  0  0  0  0
 12 47  1  0  0  0  0
 13 48  1  0  0  0  0
 15 49  1  0  0  0  0
 16 50  1  0  0  0  0
 19 51  1  0  0  0  0
 19 52  1  0  0  0  0
 19 53  1  0  0  0  0
 20 54  1  0  0  0  0
 21 55  1  0  0  0  0
 24 56  1  0  0  0  0
 25 57  1  0  0  0  0
 27 58  1  0  0  0  0
 28 59  1  0  0  0  0
 34 60  1  0  0  0  0
 35 61  1  0  0  0  0
 37 62  1  0  0  0  0
 38 63  1  0  0  0  0
M  END
