
  xtb     03022215153D
 energy: -64.138307761466 gnorm: 0.000187556539 xtb: 6.4.1 (afa7bdf)
 35 37  0     0  0            999 V2000
   -0.8284   -2.2686   -0.9027 N   0  0  0  0  0  0  0  0  0  0  0  0
   -0.7721   -1.2135   -0.4586 C   0  0  0  0  0  0  0  0  0  0  0  0
   -0.6312    0.0915    0.0773 C   0  0  0  0  0  0  0  0  0  0  0  0
   -1.6250    0.8367    0.6244 C   0  0  0  0  0  0  0  0  0  0  0  0
   -3.0217    0.5319    0.8003 C   0  0  0  0  0  0  0  0  0  0  0  0
   -3.6229   -0.6684    0.3941 C   0  0  0  0  0  0  0  0  0  0  0  0
   -4.9684   -0.8833    0.5971 C   0  0  0  0  0  0  0  0  0  0  0  0
   -5.7387    0.0994    1.2104 C   0  0  0  0  0  0  0  0  0  0  0  0
   -7.1453   -0.1254    1.4213 N   0  0  0  0  0  4  0  0  0  0  0  0
   -7.7838    0.7644    1.9434 O   0  0  0  0  0  0  0  0  0  0  0  0
   -7.6052   -1.1892    1.0649 O   0  0  0  0  0  1  0  0  0  0  0  0
   -5.1674    1.2991    1.6229 C   0  0  0  0  0  0  0  0  0  0  0  0
   -3.8230    1.5076    1.4176 C   0  0  0  0  0  0  0  0  0  0  0  0
    0.7249    0.5733   -0.0163 C   0  0  0  0  0  0  0  0  0  0  0  0
    1.6921   -0.0999   -0.5329 N   0  0  0  0  0  0  0  0  0  0  0  0
    2.8769    0.5535   -0.5155 C   0  0  0  0  0  0  0  0  0  0  0  0
    4.0583   -0.0943   -1.0702 C   0  0  0  0  0  0  0  0  0  0  0  0
    3.9441   -1.3973   -1.5563 C   0  0  0  0  0  0  0  0  0  0  0  0
    5.0433   -2.0415   -2.0892 C   0  0  0  0  0  0  0  0  0  0  0  0
    6.2688   -1.3976   -2.1457 C   0  0  0  0  0  0  0  0  0  0  0  0
    6.3895   -0.1032   -1.6664 C   0  0  0  0  0  0  0  0  0  0  0  0
    5.2943    0.5478   -1.1314 C   0  0  0  0  0  0  0  0  0  0  0  0
    2.8037    1.8045    0.0537 C   0  0  0  0  0  0  0  0  0  0  0  0
    1.2182    2.1667    0.5754 S   0  0  0  0  0  0  0  0  0  0  0  0
   -1.3302    1.8153    0.9876 H   0  0  0  0  0  0  0  0  0  0  0  0
   -3.0331   -1.4329   -0.0824 H   0  0  0  0  0  0  0  0  0  0  0  0
   -5.4391   -1.8038    0.2873 H   0  0  0  0  0  0  0  0  0  0  0  0
   -5.7888    2.0440    2.0960 H   0  0  0  0  0  0  0  0  0  0  0  0
   -3.3741    2.4367    1.7359 H   0  0  0  0  0  0  0  0  0  0  0  0
    2.9840   -1.8870   -1.5073 H   0  0  0  0  0  0  0  0  0  0  0  0
    4.9445   -3.0500   -2.4622 H   0  0  0  0  0  0  0  0  0  0  0  0
    7.1282   -1.9013   -2.5624 H   0  0  0  0  0  0  0  0  0  0  0  0
    7.3432    0.4021   -1.7104 H   0  0  0  0  0  0  0  0  0  0  0  0
    5.4026    1.5571   -0.7645 H   0  0  0  0  0  0  0  0  0  0  0  0
    3.5821    2.5252    0.1984 H   0  0  0  0  0  0  0  0  0  0  0  0
  1  2  3  0  0  0  0
  2  3  1  0  0  0  0
  3  4  2  0  0  0  0
  4  5  1  0  0  0  0
  5  6  2  0  0  0  0
  6  7  1  0  0  0  0
  7  8  2  0  0  0  0
  8  9  1  0  0  0  0
  9 10  2  0  0  0  0
  9 11  1  0  0  0  0
  8 12  1  0  0  0  0
 12 13  2  0  0  0  0
  3 14  1  0  0  0  0
 14 15  2  0  0  0  0
 15 16  1  0  0  0  0
 16 17  1  0  0  0  0
 17 18  2  0  0  0  0
 18 19  1  0  0  0  0
 19 20  2  0  0  0  0
 20 21  1  0  0  0  0
 21 22  2  0  0  0  0
 16 23  2  0  0  0  0
 23 24  1  0  0  0  0
 13  5  1  0  0  0  0
 24 14  1  0  0  0  0
 22 17  1  0  0  0  0
  4 25  1  0  0  0  0
  6 26  1  0  0  0  0
  7 27  1  0  0  0  0
 12 28  1  0  0  0  0
 13 29  1  0  0  0  0
 18 30  1  0  0  0  0
 19 31  1  0  0  0  0
 20 32  1  0  0  0  0
 21 33  1  0  0  0  0
 22 34  1  0  0  0  0
 23 35  1  0  0  0  0
M  CHG  1   9   1
M  CHG  1  11  -1
M  END
