
  xtb     03022215543D
 energy: -97.690428304180 gnorm: 0.000117400750 xtb: 6.4.1 (afa7bdf)
 51 58  0     0  0            999 V2000
    1.2108   -5.2964    5.7033 O   0  0  0  0  0  0  0  0  0  0  0  0
    1.8405   -4.6282    4.9135 C   0  0  0  0  0  0  0  0  0  0  0  0
    3.2157   -4.7245    4.8488 N   0  0  0  0  0  0  0  0  0  0  0  0
    4.0824   -4.0468    4.0155 C   0  0  0  0  0  0  0  0  0  0  0  0
    5.2766   -4.2388    4.0783 O   0  0  0  0  0  0  0  0  0  0  0  0
    3.4433   -3.1071    3.0804 C   0  0  0  0  0  0  0  0  0  0  0  0
    4.2253   -2.3820    2.2033 C   0  0  0  0  0  0  0  0  0  0  0  0
    3.6427   -1.5025    1.3038 C   0  0  0  0  0  0  0  0  0  0  0  0
    2.2663   -1.3120    1.2541 C   0  0  0  0  0  0  0  0  0  0  0  0
    1.6467   -0.4095    0.2966 C   0  0  0  0  0  0  0  0  0  0  0  0
    2.3817    0.2537   -0.6799 C   0  0  0  0  0  0  0  0  0  0  0  0
    1.7855    1.1295   -1.5751 C   0  0  0  0  0  0  0  0  0  0  0  0
    0.4286    1.3772   -1.5135 C   0  0  0  0  0  0  0  0  0  0  0  0
   -0.3566    0.7184   -0.5475 C   0  0  0  0  0  0  0  0  0  0  0  0
   -1.7407    0.9724   -0.4862 C   0  0  0  0  0  0  0  0  0  0  0  0
   -2.5118    0.3267    0.4597 C   0  0  0  0  0  0  0  0  0  0  0  0
   -1.9365   -0.5837    1.3338 C   0  0  0  0  0  0  0  0  0  0  0  0
   -0.5767   -0.8727    1.3013 C   0  0  0  0  0  0  0  0  0  0  0  0
    0.0318   -1.8420    2.1988 C   0  0  0  0  0  0  0  0  0  0  0  0
   -0.7229   -2.5990    3.0879 C   0  0  0  0  0  0  0  0  0  0  0  0
   -0.1341   -3.5039    3.9578 C   0  0  0  0  0  0  0  0  0  0  0  0
    1.2360   -3.6742    3.9697 C   0  0  0  0  0  0  0  0  0  0  0  0
    2.0422   -2.9376    3.0757 C   0  0  0  0  0  0  0  0  0  0  0  0
    1.4419   -2.0232    2.1689 C   0  0  0  0  0  0  0  0  0  0  0  0
    0.2430   -0.1960    0.3581 C   0  0  0  0  0  0  0  0  0  0  0  0
   -2.3784    1.9278   -1.4084 C   0  0  0  0  0  0  0  0  0  0  0  0
   -3.5620    2.1885   -1.3671 O   0  0  0  0  0  0  0  0  0  0  0  0
   -1.5423    2.5314   -2.3367 N   0  0  0  0  0  0  0  0  0  0  0  0
   -2.1456    3.4615   -3.2466 C   0  0  0  0  0  0  0  0  0  0  0  0
   -3.0957    3.0210   -4.1524 C   0  0  0  0  0  0  0  0  0  0  0  0
   -3.6802    3.9196   -5.0243 C   0  0  0  0  0  0  0  0  0  0  0  0
   -3.3109    5.2598   -5.0001 C   0  0  0  0  0  0  0  0  0  0  0  0
   -3.8574    6.1746   -5.8404 O   0  0  0  0  0  0  0  0  0  0  0  0
   -2.3507    5.6933   -4.0896 C   0  0  0  0  0  0  0  0  0  0  0  0
   -1.7742    4.7977   -3.2137 C   0  0  0  0  0  0  0  0  0  0  0  0
   -0.1774    2.3195   -2.4698 C   0  0  0  0  0  0  0  0  0  0  0  0
    0.4627    2.8790   -3.3342 O   0  0  0  0  0  0  0  0  0  0  0  0
    3.6450   -5.3780    5.4974 H   0  0  0  0  0  0  0  0  0  0  0  0
    5.2958   -2.5188    2.2300 H   0  0  0  0  0  0  0  0  0  0  0  0
    4.2936   -0.9604    0.6383 H   0  0  0  0  0  0  0  0  0  0  0  0
    3.4438    0.0954   -0.7660 H   0  0  0  0  0  0  0  0  0  0  0  0
    2.3705    1.6345   -2.3288 H   0  0  0  0  0  0  0  0  0  0  0  0
   -3.5690    0.5414    0.5005 H   0  0  0  0  0  0  0  0  0  0  0  0
   -2.5800   -1.0637    2.0521 H   0  0  0  0  0  0  0  0  0  0  0  0
   -1.7951   -2.4996    3.1167 H   0  0  0  0  0  0  0  0  0  0  0  0
   -0.7337   -4.0846    4.6424 H   0  0  0  0  0  0  0  0  0  0  0  0
   -3.3827    1.9810   -4.1717 H   0  0  0  0  0  0  0  0  0  0  0  0
   -4.4259    3.5782   -5.7298 H   0  0  0  0  0  0  0  0  0  0  0  0
   -4.5064    5.7496   -6.4143 H   0  0  0  0  0  0  0  0  0  0  0  0
   -2.0742    6.7351   -4.0836 H   0  0  0  0  0  0  0  0  0  0  0  0
   -1.0306    5.1318   -2.5071 H   0  0  0  0  0  0  0  0  0  0  0  0
  1  2  2  0  0  0  0
  2  3  1  0  0  0  0
  3  4  1  0  0  0  0
  4  5  2  0  0  0  0
  4  6  1  0  0  0  0
  6  7  2  0  0  0  0
  7  8  1  0  0  0  0
  8  9  2  0  0  0  0
  9 10  1  0  0  0  0
 10 11  2  0  0  0  0
 11 12  1  0  0  0  0
 12 13  2  0  0  0  0
 13 14  1  0  0  0  0
 14 15  1  0  0  0  0
 15 16  2  0  0  0  0
 16 17  1  0  0  0  0
 17 18  2  0  0  0  0
 18 19  1  0  0  0  0
 19 20  2  0  0  0  0
 20 21  1  0  0  0  0
 21 22  2  0  0  0  0
 22 23  1  0  0  0  0
 23 24  2  0  0  0  0
 18 25  1  0  0  0  0
 15 26  1  0  0  0  0
 26 27  2  0  0  0  0
 26 28  1  0  0  0  0
 28 29  1  0  0  0  0
 29 30  2  0  0  0  0
 30 31  1  0  0  0  0
 31 32  2  0  0  0  0
 32 33  1  0  0  0  0
 32 34  1  0  0  0  0
 34 35  2  0  0  0  0
 28 36  1  0  0  0  0
 36 37  2  0  0  0  0
 22  2  1  0  0  0  0
 35 29  1  0  0  0  0
 23  6  1  0  0  0  0
 24  9  1  0  0  0  0
 25 10  1  0  0  0  0
 36 13  1  0  0  0  0
 25 14  2  0  0  0  0
 24 19  1  0  0  0  0
  3 38  1  0  0  0  0
  7 39  1  0  0  0  0
  8 40  1  0  0  0  0
 11 41  1  0  0  0  0
 12 42  1  0  0  0  0
 16 43  1  0  0  0  0
 17 44  1  0  0  0  0
 20 45  1  0  0  0  0
 21 46  1  0  0  0  0
 30 47  1  0  0  0  0
 31 48  1  0  0  0  0
 33 49  1  0  0  0  0
 34 50  1  0  0  0  0
 35 51  1  0  0  0  0
M  END
