
  xtb     03022212183D
 energy: -75.669020318981 gnorm: 0.000319416283 xtb: 6.4.1 (afa7bdf)
 51 55  0     0  0            999 V2000
    4.4446    0.8083   -0.1475 C   0  0  0  0  0  0  0  0  0  0  0  0
    4.3033   -0.4419   -0.6096 C   0  0  0  0  0  0  0  0  0  0  0  0
    3.0558   -1.1619   -0.7893 C   0  0  0  0  0  0  0  0  0  0  0  0
    3.0875   -2.4062   -1.4267 C   0  0  0  0  0  0  0  0  0  0  0  0
    1.9240   -3.1227   -1.6306 C   0  0  0  0  0  0  0  0  0  0  0  0
    0.7079   -2.6204   -1.2089 C   0  0  0  0  0  0  0  0  0  0  0  0
    0.6401   -1.3826   -0.5643 C   0  0  0  0  0  0  0  0  0  0  0  0
   -0.6082   -0.7963   -0.1013 C   0  0  0  0  0  0  0  0  0  0  0  0
   -1.8409   -1.2181   -0.3983 C   0  0  0  0  0  0  0  0  0  0  0  0
   -3.0645   -0.5775    0.0853 C   0  0  0  0  0  0  0  0  0  0  0  0
   -3.2926    0.7964   -0.1215 C   0  0  0  0  0  0  0  0  0  0  0  0
   -2.4088    1.6184   -0.8685 C   0  0  0  0  0  0  0  0  0  0  0  0
   -2.6504    2.9479   -1.0378 C   0  0  0  0  0  0  0  0  0  0  0  0
   -3.7980    3.5472   -0.4804 C   0  0  0  0  0  0  0  0  0  0  0  0
   -4.6942    2.7880    0.2050 C   0  0  0  0  0  0  0  0  0  0  0  0
   -4.4839    1.3976    0.3945 C   0  0  0  0  0  0  0  0  0  0  0  0
   -5.4178    0.6135    1.0632 C   0  0  0  0  0  0  0  0  0  0  0  0
   -5.2220   -0.7519    1.2433 C   0  0  0  0  0  0  0  0  0  0  0  0
   -6.1783   -1.5536    1.9174 C   0  0  0  0  0  0  0  0  0  0  0  0
   -5.9650   -2.8824    2.1161 C   0  0  0  0  0  0  0  0  0  0  0  0
   -4.7733   -3.4806    1.6598 C   0  0  0  0  0  0  0  0  0  0  0  0
   -3.8321   -2.7427    1.0079 C   0  0  0  0  0  0  0  0  0  0  0  0
   -4.0241   -1.3596    0.7563 C   0  0  0  0  0  0  0  0  0  0  0  0
    1.8230   -0.6759   -0.3577 C   0  0  0  0  0  0  0  0  0  0  0  0
    5.6981    1.5209    0.0116 C   0  0  0  0  0  0  0  0  0  0  0  0
    5.6811    2.8414    0.4745 C   0  0  0  0  0  0  0  0  0  0  0  0
    6.8736    3.5247    0.6232 C   0  0  0  0  0  0  0  0  0  0  0  0
    8.0566    2.9988    0.3505 N   0  0  0  0  0  0  0  0  0  0  0  0
    8.0829    1.7499   -0.0864 C   0  0  0  0  0  0  0  0  0  0  0  0
    6.9537    0.9739   -0.2720 C   0  0  0  0  0  0  0  0  0  0  0  0
    3.5701    1.3793    0.1351 H   0  0  0  0  0  0  0  0  0  0  0  0
    5.1827   -0.9986   -0.9067 H   0  0  0  0  0  0  0  0  0  0  0  0
    4.0325   -2.8077   -1.7638 H   0  0  0  0  0  0  0  0  0  0  0  0
    1.9655   -4.0841   -2.1219 H   0  0  0  0  0  0  0  0  0  0  0  0
   -0.1886   -3.1989   -1.3696 H   0  0  0  0  0  0  0  0  0  0  0  0
   -0.4980    0.0681    0.5423 H   0  0  0  0  0  0  0  0  0  0  0  0
   -1.9838   -2.0911   -1.0219 H   0  0  0  0  0  0  0  0  0  0  0  0
   -1.5390    1.1691   -1.3228 H   0  0  0  0  0  0  0  0  0  0  0  0
   -1.9652    3.5551   -1.6115 H   0  0  0  0  0  0  0  0  0  0  0  0
   -3.9644    4.6053   -0.6201 H   0  0  0  0  0  0  0  0  0  0  0  0
   -5.5927    3.2270    0.6150 H   0  0  0  0  0  0  0  0  0  0  0  0
   -6.3156    1.0750    1.4506 H   0  0  0  0  0  0  0  0  0  0  0  0
   -7.0818   -1.0787    2.2729 H   0  0  0  0  0  0  0  0  0  0  0  0
   -6.6980   -3.4873    2.6294 H   0  0  0  0  0  0  0  0  0  0  0  0
   -4.6109   -4.5336    1.8383 H   0  0  0  0  0  0  0  0  0  0  0  0
   -2.9156   -3.2111    0.6825 H   0  0  0  0  0  0  0  0  0  0  0  0
    1.7700    0.2748    0.1517 H   0  0  0  0  0  0  0  0  0  0  0  0
    4.7438    3.3226    0.7125 H   0  0  0  0  0  0  0  0  0  0  0  0
    6.8892    4.5471    0.9788 H   0  0  0  0  0  0  0  0  0  0  0  0
    9.0678    1.3534   -0.2982 H   0  0  0  0  0  0  0  0  0  0  0  0
    7.0539   -0.0382   -0.6301 H   0  0  0  0  0  0  0  0  0  0  0  0
  1  2  2  0  0  0  0
  2  3  1  0  0  0  0
  3  4  2  0  0  0  0
  4  5  1  0  0  0  0
  5  6  2  0  0  0  0
  6  7  1  0  0  0  0
  7  8  1  0  0  0  0
  8  9  2  0  0  0  0
  9 10  1  0  0  0  0
 10 11  1  0  0  0  0
 11 12  2  0  0  0  0
 12 13  1  0  0  0  0
 13 14  2  0  0  0  0
 14 15  1  0  0  0  0
 15 16  2  0  0  0  0
 16 17  1  0  0  0  0
 17 18  2  0  0  0  0
 18 19  1  0  0  0  0
 19 20  2  0  0  0  0
 20 21  1  0  0  0  0
 21 22  2  0  0  0  0
 22 23  1  0  0  0  0
  7 24  2  0  0  0  0
  1 25  1  0  0  0  0
 25 26  2  0  0  0  0
 26 27  1  0  0  0  0
 27 28  2  0  0  0  0
 28 29  1  0  0  0  0
 29 30  2  0  0  0  0
 24  3  1  0  0  0  0
 30 25  1  0  0  0  0
 23 10  2  0  0  0  0
 16 11  1  0  0  0  0
 23 18  1  0  0  0  0
  1 31  1  0  0  0  0
  2 32  1  0  0  0  0
  4 33  1  0  0  0  0
  5 34  1  0  0  0  0
  6 35  1  0  0  0  0
  8 36  1  0  0  0  0
  9 37  1  0  0  0  0
 12 38  1  0  0  0  0
 13 39  1  0  0  0  0
 14 40  1  0  0  0  0
 15 41  1  0  0  0  0
 17 42  1  0  0  0  0
 19 43  1  0  0  0  0
 20 44  1  0  0  0  0
 21 45  1  0  0  0  0
 22 46  1  0  0  0  0
 24 47  1  0  0  0  0
 26 48  1  0  0  0  0
 27 49  1  0  0  0  0
 29 50  1  0  0  0  0
 30 51  1  0  0  0  0
M  END
