
  xtb     03022214113D
 energy: -72.313660021961 gnorm: 0.000172937843 xtb: 6.4.1 (afa7bdf)
 46 51  0     0  0            999 V2000
    1.4274   -1.4067    0.9268 C   0  0  0  0  0  0  0  0  0  0  0  0
    0.8265   -0.4752    0.1622 C   0  0  0  0  0  0  0  0  0  0  0  0
    0.2701    0.3638   -0.5195 C   0  0  0  0  0  0  0  0  0  0  0  0
   -0.3451    1.3423   -1.3119 C   0  0  0  0  0  0  0  0  0  0  0  0
    0.4453    2.1737   -2.1134 C   0  0  0  0  0  0  0  0  0  0  0  0
   -0.1264    3.1457   -2.9012 C   0  0  0  0  0  0  0  0  0  0  0  0
   -1.5127    3.3324   -2.9215 C   0  0  0  0  0  0  0  0  0  0  0  0
   -2.1305    4.3322   -3.7246 C   0  0  0  0  0  0  0  0  0  0  0  0
   -3.4741    4.4997   -3.7284 C   0  0  0  0  0  0  0  0  0  0  0  0
   -4.3233    3.6807   -2.9283 C   0  0  0  0  0  0  0  0  0  0  0  0
   -5.7104    3.8368   -2.9151 C   0  0  0  0  0  0  0  0  0  0  0  0
   -6.5051    3.0246   -2.1268 C   0  0  0  0  0  0  0  0  0  0  0  0
   -5.9408    2.0409   -1.3360 C   0  0  0  0  0  0  0  0  0  0  0  0
   -4.5579    1.8482   -1.3166 C   0  0  0  0  0  0  0  0  0  0  0  0
   -3.9404    0.8457   -0.5142 C   0  0  0  0  0  0  0  0  0  0  0  0
   -2.5966    0.6778   -0.5086 C   0  0  0  0  0  0  0  0  0  0  0  0
   -1.7484    1.4971   -1.3057 C   0  0  0  0  0  0  0  0  0  0  0  0
   -2.3303    2.5006   -2.1157 C   0  0  0  0  0  0  0  0  0  0  0  0
   -3.7357    2.6758   -2.1203 C   0  0  0  0  0  0  0  0  0  0  0  0
    1.9750   -2.2399    1.6220 C   0  0  0  0  0  0  0  0  0  0  0  0
    2.5790   -3.2168    2.4288 C   0  0  0  0  0  0  0  0  0  0  0  0
    1.8217   -4.2610    2.9261 C   0  0  0  0  0  0  0  0  0  0  0  0
    2.4051   -5.2425    3.7311 C   0  0  0  0  0  0  0  0  0  0  0  0
    3.7371   -5.1853    4.0423 C   0  0  0  0  0  0  0  0  0  0  0  0
    4.5463   -4.1363    3.5572 C   0  0  0  0  0  0  0  0  0  0  0  0
    5.9206   -4.0535    3.8650 C   0  0  0  0  0  0  0  0  0  0  0  0
    6.6856   -3.0278    3.3849 C   0  0  0  0  0  0  0  0  0  0  0  0
    6.1114   -2.0374    2.5743 C   0  0  0  0  0  0  0  0  0  0  0  0
    4.7818   -2.0886    2.2572 C   0  0  0  0  0  0  0  0  0  0  0  0
    3.9689   -3.1333    2.7375 C   0  0  0  0  0  0  0  0  0  0  0  0
    1.5177    2.0391   -2.1046 H   0  0  0  0  0  0  0  0  0  0  0  0
    0.4984    3.7789   -3.5152 H   0  0  0  0  0  0  0  0  0  0  0  0
   -1.4946    4.9584   -4.3348 H   0  0  0  0  0  0  0  0  0  0  0  0
   -3.9334    5.2624   -4.3415 H   0  0  0  0  0  0  0  0  0  0  0  0
   -6.1600    4.6033   -3.5302 H   0  0  0  0  0  0  0  0  0  0  0  0
   -7.5771    3.1603   -2.1291 H   0  0  0  0  0  0  0  0  0  0  0  0
   -6.5688    1.4103   -0.7230 H   0  0  0  0  0  0  0  0  0  0  0  0
   -4.5754    0.2182    0.0952 H   0  0  0  0  0  0  0  0  0  0  0  0
   -2.1365   -0.0846    0.1039 H   0  0  0  0  0  0  0  0  0  0  0  0
    0.7694   -4.3153    2.6864 H   0  0  0  0  0  0  0  0  0  0  0  0
    1.7914   -6.0487    4.1061 H   0  0  0  0  0  0  0  0  0  0  0  0
    4.1892   -5.9436    4.6654 H   0  0  0  0  0  0  0  0  0  0  0  0
    6.3567   -4.8198    4.4904 H   0  0  0  0  0  0  0  0  0  0  0  0
    7.7371   -2.9724    3.6262 H   0  0  0  0  0  0  0  0  0  0  0  0
    6.7282   -1.2326    2.2022 H   0  0  0  0  0  0  0  0  0  0  0  0
    4.3339   -1.3279    1.6336 H   0  0  0  0  0  0  0  0  0  0  0  0
  1  2  1  0  0  0  0
  2  3  3  0  0  0  0
  3  4  1  0  0  0  0
  4  5  2  0  0  0  0
  5  6  1  0  0  0  0
  6  7  2  0  0  0  0
  7  8  1  0  0  0  0
  8  9  2  0  0  0  0
  9 10  1  0  0  0  0
 10 11  2  0  0  0  0
 11 12  1  0  0  0  0
 12 13  2  0  0  0  0
 13 14  1  0  0  0  0
 14 15  2  0  0  0  0
 15 16  1  0  0  0  0
 16 17  2  0  0  0  0
 17 18  1  0  0  0  0
 18 19  2  0  0  0  0
  1 20  3  0  0  0  0
 20 21  1  0  0  0  0
 21 22  2  0  0  0  0
 22 23  1  0  0  0  0
 23 24  2  0  0  0  0
 24 25  1  0  0  0  0
 25 26  2  0  0  0  0
 26 27  1  0  0  0  0
 27 28  2  0  0  0  0
 28 29  1  0  0  0  0
 29 30  2  0  0  0  0
 17  4  1  0  0  0  0
 30 21  1  0  0  0  0
 18  7  1  0  0  0  0
 30 25  1  0  0  0  0
 19 10  1  0  0  0  0
 19 14  1  0  0  0  0
  5 31  1  0  0  0  0
  6 32  1  0  0  0  0
  8 33  1  0  0  0  0
  9 34  1  0  0  0  0
 11 35  1  0  0  0  0
 12 36  1  0  0  0  0
 13 37  1  0  0  0  0
 15 38  1  0  0  0  0
 16 39  1  0  0  0  0
 22 40  1  0  0  0  0
 23 41  1  0  0  0  0
 24 42  1  0  0  0  0
 26 43  1  0  0  0  0
 27 44  1  0  0  0  0
 28 45  1  0  0  0  0
 29 46  1  0  0  0  0
M  END
