
  xtb     03022214253D
 energy: -137.315378522309 gnorm: 0.000120128968 xtb: 6.4.1 (afa7bdf)
 85 92  0     0  0            999 V2000
    4.4571   -2.4319   -0.9976 C   0  0  0  0  0  0  0  0  0  0  0  0
    4.8692   -1.3953   -0.1445 O   0  0  0  0  0  0  0  0  0  0  0  0
    3.9672   -0.4445    0.2306 C   0  0  0  0  0  0  0  0  0  0  0  0
    2.6274   -0.4669   -0.1367 C   0  0  0  0  0  0  0  0  0  0  0  0
    1.7803    0.5464    0.2959 C   0  0  0  0  0  0  0  0  0  0  0  0
    2.2979    1.6191    1.0394 C   0  0  0  0  0  0  0  0  0  0  0  0
    3.6150    1.6204    1.4390 C   0  0  0  0  0  0  0  0  0  0  0  0
    4.4648    0.5869    1.0540 C   0  0  0  0  0  0  0  0  0  0  0  0
    5.8683    0.6118    1.4904 C   0  0  0  0  0  0  0  0  0  0  0  0
    6.9186    0.4088    0.5950 C   0  0  0  0  0  0  0  0  0  0  0  0
    8.2251    0.4617    1.0288 C   0  0  0  0  0  0  0  0  0  0  0  0
    8.5179    0.7160    2.3705 C   0  0  0  0  0  0  0  0  0  0  0  0
    9.9096    0.7647    2.8234 C   0  0  0  0  0  0  0  0  0  0  0  0
   10.8793    0.5979    2.1268 O   0  0  0  0  0  0  0  0  0  0  0  0
    7.4695    0.9235    3.2670 C   0  0  0  0  0  0  0  0  0  0  0  0
    6.1632    0.8759    2.8296 C   0  0  0  0  0  0  0  0  0  0  0  0
    1.2642    2.6860    1.2180 C   0  0  0  0  0  0  0  0  0  0  0  0
    0.1117    2.1382    0.4429 C   0  0  0  0  0  0  0  0  0  0  0  0
   -1.0800    2.7405    0.1248 C   0  0  0  0  0  0  0  0  0  0  0  0
   -2.0261    2.0659   -0.6670 C   0  0  0  0  0  0  0  0  0  0  0  0
   -1.8126    0.7624   -1.0406 C   0  0  0  0  0  0  0  0  0  0  0  0
   -0.6268    0.0934   -0.6394 C   0  0  0  0  0  0  0  0  0  0  0  0
    0.3837    0.8193   -0.0054 C   0  0  0  0  0  0  0  0  0  0  0  0
   -0.7903   -1.3089   -0.9886 C   0  0  0  0  0  0  0  0  0  0  0  0
   -0.0753   -2.4368   -0.6024 C   0  0  0  0  0  0  0  0  0  0  0  0
   -0.4925   -3.6910   -1.0288 C   0  0  0  0  0  0  0  0  0  0  0  0
    0.1174   -4.8551   -0.6616 O   0  0  0  0  0  0  0  0  0  0  0  0
    1.0845   -4.8252    0.3569 C   0  0  0  0  0  0  0  0  0  0  0  0
   -1.6278   -3.8246   -1.8557 C   0  0  0  0  0  0  0  0  0  0  0  0
   -2.0587   -5.1416   -2.3430 C   0  0  0  0  0  0  0  0  0  0  0  0
   -1.1466   -6.0309   -2.9123 C   0  0  0  0  0  0  0  0  0  0  0  0
   -1.5651   -7.2547   -3.3889 C   0  0  0  0  0  0  0  0  0  0  0  0
   -2.9081   -7.6233   -3.3047 C   0  0  0  0  0  0  0  0  0  0  0  0
   -3.3608   -8.9227   -3.8055 C   0  0  0  0  0  0  0  0  0  0  0  0
   -4.4959   -9.3280   -3.7760 O   0  0  0  0  0  0  0  0  0  0  0  0
   -3.8226   -6.7352   -2.7345 C   0  0  0  0  0  0  0  0  0  0  0  0
   -3.4032   -5.5104   -2.2641 C   0  0  0  0  0  0  0  0  0  0  0  0
   -2.3779   -2.6940   -2.1676 C   0  0  0  0  0  0  0  0  0  0  0  0
   -1.9791   -1.4544   -1.7214 C   0  0  0  0  0  0  0  0  0  0  0  0
   -2.6909   -0.1434   -1.8388 C   0  0  0  0  0  0  0  0  0  0  0  0
   -3.1611    2.9818   -0.8999 C   0  0  0  0  0  0  0  0  0  0  0  0
   -4.1763    2.8049   -1.5283 O   0  0  0  0  0  0  0  0  0  0  0  0
   -2.8334    4.1531   -0.2315 N   0  0  0  0  0  0  0  0  0  0  0  0
   -3.7049    5.3057   -0.1757 C   0  0  0  0  0  0  0  0  0  0  0  0
   -4.6002    5.2550    1.0631 C   0  0  0  0  0  0  0  0  0  0  0  0
   -5.4609    6.5099    1.2355 C   0  0  0  0  0  0  0  0  0  0  0  0
   -6.4946    6.6431    0.1198 C   0  0  0  0  0  0  0  0  0  0  0  0
   -6.1604    6.4672    2.5931 C   0  0  0  0  0  0  0  0  0  0  0  0
   -1.6076    4.0891    0.4157 C   0  0  0  0  0  0  0  0  0  0  0  0
   -1.1157    4.9854    1.0573 O   0  0  0  0  0  0  0  0  0  0  0  0
    4.0776   -2.0487   -1.9506 H   0  0  0  0  0  0  0  0  0  0  0  0
    3.6929   -3.0618   -0.5293 H   0  0  0  0  0  0  0  0  0  0  0  0
    5.3475   -3.0317   -1.1797 H   0  0  0  0  0  0  0  0  0  0  0  0
    2.2548   -1.2298   -0.7981 H   0  0  0  0  0  0  0  0  0  0  0  0
    4.0121    2.4428    2.0153 H   0  0  0  0  0  0  0  0  0  0  0  0
    6.7022    0.2229   -0.4449 H   0  0  0  0  0  0  0  0  0  0  0  0
    9.0465    0.3110    0.3441 H   0  0  0  0  0  0  0  0  0  0  0  0
   10.0176    0.9768    3.9071 H   0  0  0  0  0  0  0  0  0  0  0  0
    7.6877    1.1205    4.3072 H   0  0  0  0  0  0  0  0  0  0  0  0
    5.3537    1.0253    3.5293 H   0  0  0  0  0  0  0  0  0  0  0  0
    1.5942    3.6535    0.8350 H   0  0  0  0  0  0  0  0  0  0  0  0
    0.9884    2.8395    2.2643 H   0  0  0  0  0  0  0  0  0  0  0  0
    0.7620   -2.3375    0.0668 H   0  0  0  0  0  0  0  0  0  0  0  0
    0.7012   -4.3513    1.2660 H   0  0  0  0  0  0  0  0  0  0  0  0
    1.3218   -5.8672    0.5657 H   0  0  0  0  0  0  0  0  0  0  0  0
    1.9974   -4.3106    0.0368 H   0  0  0  0  0  0  0  0  0  0  0  0
   -0.1084   -5.7482   -2.9880 H   0  0  0  0  0  0  0  0  0  0  0  0
   -0.8532   -7.9360   -3.8333 H   0  0  0  0  0  0  0  0  0  0  0  0
   -2.5471   -9.5412   -4.2374 H   0  0  0  0  0  0  0  0  0  0  0  0
   -4.8586   -7.0334   -2.6712 H   0  0  0  0  0  0  0  0  0  0  0  0
   -4.1132   -4.8350   -1.8099 H   0  0  0  0  0  0  0  0  0  0  0  0
   -3.2725   -2.8002   -2.7627 H   0  0  0  0  0  0  0  0  0  0  0  0
   -2.7684    0.2059   -2.8714 H   0  0  0  0  0  0  0  0  0  0  0  0
   -3.7078   -0.1842   -1.4440 H   0  0  0  0  0  0  0  0  0  0  0  0
   -4.3026    5.2988   -1.0891 H   0  0  0  0  0  0  0  0  0  0  0  0
   -3.0740    6.1980   -0.1469 H   0  0  0  0  0  0  0  0  0  0  0  0
   -3.9577    5.1424    1.9400 H   0  0  0  0  0  0  0  0  0  0  0  0
   -5.2452    4.3753    0.9992 H   0  0  0  0  0  0  0  0  0  0  0  0
   -4.8025    7.3857    1.2121 H   0  0  0  0  0  0  0  0  0  0  0  0
   -6.0180    6.7851   -0.8462 H   0  0  0  0  0  0  0  0  0  0  0  0
   -7.1154    5.7511    0.0711 H   0  0  0  0  0  0  0  0  0  0  0  0
   -7.1393    7.4990    0.3060 H   0  0  0  0  0  0  0  0  0  0  0  0
   -6.8188    5.6031    2.6522 H   0  0  0  0  0  0  0  0  0  0  0  0
   -5.4337    6.4017    3.3996 H   0  0  0  0  0  0  0  0  0  0  0  0
   -6.7576    7.3635    2.7429 H   0  0  0  0  0  0  0  0  0  0  0  0
  1  2  1  0  0  0  0
  2  3  1  0  0  0  0
  3  4  2  0  0  0  0
  4  5  1  0  0  0  0
  5  6  2  0  0  0  0
  6  7  1  0  0  0  0
  7  8  2  0  0  0  0
  8  9  1  0  0  0  0
  9 10  2  0  0  0  0
 10 11  1  0  0  0  0
 11 12  2  0  0  0  0
 12 13  1  0  0  0  0
 13 14  2  0  0  0  0
 12 15  1  0  0  0  0
 15 16  2  0  0  0  0
  6 17  1  0  0  0  0
 17 18  1  0  0  0  0
 18 19  2  0  0  0  0
 19 20  1  0  0  0  0
 20 21  2  0  0  0  0
 21 22  1  0  0  0  0
 22 23  2  0  0  0  0
 22 24  1  0  0  0  0
 24 25  2  0  0  0  0
 25 26  1  0  0  0  0
 26 27  1  0  0  0  0
 27 28  1  0  0  0  0
 26 29  2  0  0  0  0
 29 30  1  0  0  0  0
 30 31  2  0  0  0  0
 31 32  1  0  0  0  0
 32 33  2  0  0  0  0
 33 34  1  0  0  0  0
 34 35  2  0  0  0  0
 33 36  1  0  0  0  0
 36 37  2  0  0  0  0
 29 38  1  0  0  0  0
 38 39  2  0  0  0  0
 39 40  1  0  0  0  0
 20 41  1  0  0  0  0
 41 42  2  0  0  0  0
 41 43  1  0  0  0  0
 43 44  1  0  0  0  0
 44 45  1  0  0  0  0
 45 46  1  0  0  0  0
 46 47  1  0  0  0  0
 46 48  1  0  0  0  0
 43 49  1  0  0  0  0
 49 50  2  0  0  0  0
  8  3  1  0  0  0  0
 16  9  1  0  0  0  0
 23 18  1  0  0  0  0
 39 24  1  0  0  0  0
 23  5  1  0  0  0  0
 37 30  1  0  0  0  0
 49 19  1  0  0  0  0
 40 21  1  0  0  0  0
  1 51  1  0  0  0  0
  1 52  1  0  0  0  0
  1 53  1  0  0  0  0
  4 54  1  0  0  0  0
  7 55  1  0  0  0  0
 10 56  1  0  0  0  0
 11 57  1  0  0  0  0
 13 58  1  0  0  0  0
 15 59  1  0  0  0  0
 16 60  1  0  0  0  0
 17 61  1  0  0  0  0
 17 62  1  0  0  0  0
 25 63  1  0  0  0  0
 28 64  1  0  0  0  0
 28 65  1  0  0  0  0
 28 66  1  0  0  0  0
 31 67  1  0  0  0  0
 32 68  1  0  0  0  0
 34 69  1  0  0  0  0
 36 70  1  0  0  0  0
 37 71  1  0  0  0  0
 38 72  1  0  0  0  0
 40 73  1  0  0  0  0
 40 74  1  0  0  0  0
 44 75  1  0  0  0  0
 44 76  1  0  0  0  0
 45 77  1  0  0  0  0
 45 78  1  0  0  0  0
 46 79  1  0  0  0  0
 47 80  1  0  0  0  0
 47 81  1  0  0  0  0
 47 82  1  0  0  0  0
 48 83  1  0  0  0  0
 48 84  1  0  0  0  0
 48 85  1  0  0  0  0
M  END
