
  xtb     03022212063D
 energy: -72.646215299753 gnorm: 0.000071699585 xtb: 6.4.1 (afa7bdf)
 47 50  0     0  0            999 V2000
   -5.2209   -2.2114    1.2519 C   0  0  0  0  0  0  0  0  0  0  0  0
   -5.0905   -0.7106    1.5151 C   0  0  0  0  0  0  0  0  0  0  0  0
   -4.6041    0.0112    0.3588 N   0  0  0  0  0  0  0  0  0  0  0  0
   -5.6201    0.5461   -0.5213 C   0  0  0  0  0  0  0  0  0  0  0  0
   -6.0138    1.9779   -0.1543 C   0  0  0  0  0  0  0  0  0  0  0  0
   -3.2738    0.1782    0.1230 C   0  0  0  0  0  0  0  0  0  0  0  0
   -2.8094    1.0163   -0.9203 C   0  0  0  0  0  0  0  0  0  0  0  0
   -1.4744    1.1880   -1.1618 C   0  0  0  0  0  0  0  0  0  0  0  0
   -0.5026    0.5482   -0.3787 C   0  0  0  0  0  0  0  0  0  0  0  0
    0.8950    0.6629   -0.5698 C   0  0  0  0  0  0  0  0  0  0  0  0
    1.7692   -0.0131    0.2301 C   0  0  0  0  0  0  0  0  0  0  0  0
    3.1983    0.1633    0.0251 C   0  0  0  0  0  0  0  0  0  0  0  0
    3.6944    1.3224   -0.3389 N   0  0  0  0  0  0  0  0  0  0  0  0
    5.0419    1.1365   -0.4376 C   0  0  0  0  0  0  0  0  0  0  0  0
    6.0541    2.0297   -0.7766 C   0  0  0  0  0  0  0  0  0  0  0  0
    7.3460    1.5528   -0.8016 C   0  0  0  0  0  0  0  0  0  0  0  0
    7.6421    0.2213   -0.4969 C   0  0  0  0  0  0  0  0  0  0  0  0
    6.6555   -0.6810   -0.1566 C   0  0  0  0  0  0  0  0  0  0  0  0
    5.3508   -0.2113   -0.1292 C   0  0  0  0  0  0  0  0  0  0  0  0
    4.1517   -0.8125    0.1535 N   0  0  0  0  0  0  0  0  0  0  0  0
    3.9640   -2.2127    0.4095 C   0  0  0  0  0  0  0  0  0  0  0  0
    1.2736   -0.7974    1.3545 C   0  0  0  0  0  0  0  0  0  0  0  0
    1.9503   -1.3318    2.2027 O   0  0  0  0  0  0  0  0  0  0  0  0
   -0.0835   -0.9188    1.4773 O   0  0  0  0  0  0  0  0  0  0  0  0
   -0.9570   -0.2780    0.6646 C   0  0  0  0  0  0  0  0  0  0  0  0
   -2.3061   -0.4671    0.9046 C   0  0  0  0  0  0  0  0  0  0  0  0
   -4.2581   -2.6389    0.9861 H   0  0  0  0  0  0  0  0  0  0  0  0
   -5.5947   -2.7144    2.1397 H   0  0  0  0  0  0  0  0  0  0  0  0
   -5.9125   -2.3945    0.4327 H   0  0  0  0  0  0  0  0  0  0  0  0
   -6.0702   -0.3027    1.7777 H   0  0  0  0  0  0  0  0  0  0  0  0
   -4.4272   -0.5319    2.3640 H   0  0  0  0  0  0  0  0  0  0  0  0
   -6.4992   -0.0998   -0.4492 H   0  0  0  0  0  0  0  0  0  0  0  0
   -5.2731    0.5022   -1.5561 H   0  0  0  0  0  0  0  0  0  0  0  0
   -6.7815    2.3400   -0.8329 H   0  0  0  0  0  0  0  0  0  0  0  0
   -6.4029    2.0155    0.8605 H   0  0  0  0  0  0  0  0  0  0  0  0
   -5.1535    2.6393   -0.2119 H   0  0  0  0  0  0  0  0  0  0  0  0
   -3.5102    1.5482   -1.5410 H   0  0  0  0  0  0  0  0  0  0  0  0
   -1.1483    1.8333   -1.9637 H   0  0  0  0  0  0  0  0  0  0  0  0
    1.2806    1.2881   -1.3613 H   0  0  0  0  0  0  0  0  0  0  0  0
    5.8206    3.0565   -1.0084 H   0  0  0  0  0  0  0  0  0  0  0  0
    8.1557    2.2195   -1.0603 H   0  0  0  0  0  0  0  0  0  0  0  0
    8.6708   -0.1068   -0.5260 H   0  0  0  0  0  0  0  0  0  0  0  0
    6.8978   -1.7054    0.0854 H   0  0  0  0  0  0  0  0  0  0  0  0
    3.0627   -2.5645   -0.0945 H   0  0  0  0  0  0  0  0  0  0  0  0
    4.8232   -2.7597    0.0231 H   0  0  0  0  0  0  0  0  0  0  0  0
    3.8559   -2.4033    1.4787 H   0  0  0  0  0  0  0  0  0  0  0  0
   -2.5666   -1.1298    1.7111 H   0  0  0  0  0  0  0  0  0  0  0  0
  1  2  1  0  0  0  0
  2  3  1  0  0  0  0
  3  4  1  0  0  0  0
  4  5  1  0  0  0  0
  3  6  1  0  0  0  0
  6  7  2  0  0  0  0
  7  8  1  0  0  0  0
  8  9  2  0  0  0  0
  9 10  1  0  0  0  0
 10 11  2  0  0  0  0
 11 12  1  0  0  0  0
 12 13  2  0  0  0  0
 13 14  1  0  0  0  0
 14 15  2  0  0  0  0
 15 16  1  0  0  0  0
 16 17  2  0  0  0  0
 17 18  1  0  0  0  0
 18 19  2  0  0  0  0
 19 20  1  0  0  0  0
 20 21  1  0  0  0  0
 11 22  1  0  0  0  0
 22 23  2  0  0  0  0
 22 24  1  0  0  0  0
 24 25  1  0  0  0  0
 25 26  2  0  0  0  0
 26  6  1  0  0  0  0
 25  9  1  0  0  0  0
 20 12  1  0  0  0  0
 19 14  1  0  0  0  0
  1 27  1  0  0  0  0
  1 28  1  0  0  0  0
  1 29  1  0  0  0  0
  2 30  1  0  0  0  0
  2 31  1  0  0  0  0
  4 32  1  0  0  0  0
  4 33  1  0  0  0  0
  5 34  1  0  0  0  0
  5 35  1  0  0  0  0
  5 36  1  0  0  0  0
  7 37  1  0  0  0  0
  8 38  1  0  0  0  0
 10 39  1  0  0  0  0
 15 40  1  0  0  0  0
 16 41  1  0  0  0  0
 17 42  1  0  0  0  0
 18 43  1  0  0  0  0
 21 44  1  0  0  0  0
 21 45  1  0  0  0  0
 21 46  1  0  0  0  0
 26 47  1  0  0  0  0
M  END
