
  xtb     03022214113D
 energy: -102.007877909802 gnorm: 0.000174813562 xtb: 6.4.1 (afa7bdf)
 66 72  0     0  0            999 V2000
   -8.9009    0.2190    2.6355 C   0  0  0  0  0  0  0  0  0  0  0  0
   -8.8267    0.9181    1.2785 C   0  0  0  0  0  0  0  0  0  0  0  0
   -8.2747    0.0578    0.2669 N   0  0  0  0  0  0  0  0  0  0  0  0
   -8.9897   -0.8286   -0.5069 C   0  0  0  0  0  0  0  0  0  0  0  0
  -10.3566   -1.0645   -0.5515 C   0  0  0  0  0  0  0  0  0  0  0  0
  -10.8194   -2.0156   -1.4406 C   0  0  0  0  0  0  0  0  0  0  0  0
   -9.9506   -2.7224   -2.2691 C   0  0  0  0  0  0  0  0  0  0  0  0
   -8.5894   -2.4959   -2.2285 C   0  0  0  0  0  0  0  0  0  0  0  0
   -8.1009   -1.5451   -1.3427 C   0  0  0  0  0  0  0  0  0  0  0  0
   -6.7824   -1.0682   -1.0325 C   0  0  0  0  0  0  0  0  0  0  0  0
   -5.5225   -1.3835   -1.5092 C   0  0  0  0  0  0  0  0  0  0  0  0
   -4.4209   -0.7216   -0.9701 C   0  0  0  0  0  0  0  0  0  0  0  0
   -3.1273   -1.0209   -1.4392 C   0  0  0  0  0  0  0  0  0  0  0  0
   -2.0186   -1.2780   -1.8464 C   0  0  0  0  0  0  0  0  0  0  0  0
   -0.7265   -1.5726   -2.3296 C   0  0  0  0  0  0  0  0  0  0  0  0
    0.4072   -1.0291   -1.7218 C   0  0  0  0  0  0  0  0  0  0  0  0
    1.6414   -1.3703   -2.2783 C   0  0  0  0  0  0  0  0  0  0  0  0
    2.8441   -0.8696   -1.7366 C   0  0  0  0  0  0  0  0  0  0  0  0
    3.8766   -0.4455   -1.2731 C   0  0  0  0  0  0  0  0  0  0  0  0
    5.0846    0.0467   -0.7419 C   0  0  0  0  0  0  0  0  0  0  0  0
    6.2708   -0.1102   -1.4807 C   0  0  0  0  0  0  0  0  0  0  0  0
    7.4783    0.3508   -1.0063 C   0  0  0  0  0  0  0  0  0  0  0  0
    7.5005    0.9793    0.2343 C   0  0  0  0  0  0  0  0  0  0  0  0
    6.3119    1.1371    0.9918 C   0  0  0  0  0  0  0  0  0  0  0  0
    5.1031    0.6747    0.5015 C   0  0  0  0  0  0  0  0  0  0  0  0
    6.6939    1.7995    2.2073 C   0  0  0  0  0  0  0  0  0  0  0  0
    5.9928    2.2141    3.3314 C   0  0  0  0  0  0  0  0  0  0  0  0
    6.6878    2.8275    4.3545 C   0  0  0  0  0  0  0  0  0  0  0  0
    8.0636    3.0279    4.2662 C   0  0  0  0  0  0  0  0  0  0  0  0
    8.7827    2.6243    3.1575 C   0  0  0  0  0  0  0  0  0  0  0  0
    8.0907    2.0096    2.1233 C   0  0  0  0  0  0  0  0  0  0  0  0
    8.5537    1.5269    0.9203 N   0  0  0  0  0  0  0  0  0  0  0  0
    9.9290    1.5084    0.5002 C   0  0  0  0  0  0  0  0  0  0  0  0
   10.6466    0.2439    0.9711 C   0  0  0  0  0  0  0  0  0  0  0  0
    1.7264   -2.1804   -3.3428 N   0  0  0  0  0  0  0  0  0  0  0  0
    0.5900   -2.6363   -3.8266 C   0  0  0  0  0  0  0  0  0  0  0  0
   -0.6265   -2.3861   -3.3901 N   0  0  0  0  0  0  0  0  0  0  0  0
   -4.5909    0.2443    0.0372 C   0  0  0  0  0  0  0  0  0  0  0  0
   -5.8401    0.5693    0.5172 C   0  0  0  0  0  0  0  0  0  0  0  0
   -6.9422   -0.0863   -0.0212 C   0  0  0  0  0  0  0  0  0  0  0  0
   -9.5271   -0.6676    2.5679 H   0  0  0  0  0  0  0  0  0  0  0  0
   -7.9075   -0.0855    2.9569 H   0  0  0  0  0  0  0  0  0  0  0  0
   -9.3207    0.8891    3.3809 H   0  0  0  0  0  0  0  0  0  0  0  0
   -8.2028    1.8132    1.3512 H   0  0  0  0  0  0  0  0  0  0  0  0
   -9.8262    1.2279    0.9612 H   0  0  0  0  0  0  0  0  0  0  0  0
  -11.0446   -0.5296    0.0860 H   0  0  0  0  0  0  0  0  0  0  0  0
  -11.8793   -2.2174   -1.4927 H   0  0  0  0  0  0  0  0  0  0  0  0
  -10.3526   -3.4581   -2.9494 H   0  0  0  0  0  0  0  0  0  0  0  0
   -7.9151   -3.0444   -2.8686 H   0  0  0  0  0  0  0  0  0  0  0  0
   -5.3849   -2.1260   -2.2803 H   0  0  0  0  0  0  0  0  0  0  0  0
    0.3331   -0.3760   -0.8665 H   0  0  0  0  0  0  0  0  0  0  0  0
    6.2187   -0.6054   -2.4388 H   0  0  0  0  0  0  0  0  0  0  0  0
    8.3784    0.2183   -1.5878 H   0  0  0  0  0  0  0  0  0  0  0  0
    4.1911    0.7900    1.0678 H   0  0  0  0  0  0  0  0  0  0  0  0
    4.9270    2.0564    3.4005 H   0  0  0  0  0  0  0  0  0  0  0  0
    6.1628    3.1566    5.2388 H   0  0  0  0  0  0  0  0  0  0  0  0
    8.5804    3.5075    5.0844 H   0  0  0  0  0  0  0  0  0  0  0  0
    9.8495    2.7837    3.1086 H   0  0  0  0  0  0  0  0  0  0  0  0
    9.9594    1.5726   -0.5910 H   0  0  0  0  0  0  0  0  0  0  0  0
   10.4261    2.3944    0.9046 H   0  0  0  0  0  0  0  0  0  0  0  0
   10.6240    0.1807    2.0566 H   0  0  0  0  0  0  0  0  0  0  0  0
   11.6822    0.2551    0.6417 H   0  0  0  0  0  0  0  0  0  0  0  0
   10.1587   -0.6392    0.5649 H   0  0  0  0  0  0  0  0  0  0  0  0
    0.6648   -3.2937   -4.6852 H   0  0  0  0  0  0  0  0  0  0  0  0
   -3.7157    0.7362    0.4357 H   0  0  0  0  0  0  0  0  0  0  0  0
   -5.9491    1.3126    1.2929 H   0  0  0  0  0  0  0  0  0  0  0  0
  1  2  1  0  0  0  0
  2  3  1  0  0  0  0
  3  4  1  0  0  0  0
  4  5  2  0  0  0  0
  5  6  1  0  0  0  0
  6  7  2  0  0  0  0
  7  8  1  0  0  0  0
  8  9  2  0  0  0  0
  9 10  1  0  0  0  0
 10 11  2  0  0  0  0
 11 12  1  0  0  0  0
 12 13  1  0  0  0  0
 13 14  3  0  0  0  0
 14 15  1  0  0  0  0
 15 16  2  0  0  0  0
 16 17  1  0  0  0  0
 17 18  1  0  0  0  0
 18 19  3  0  0  0  0
 19 20  1  0  0  0  0
 20 21  2  0  0  0  0
 21 22  1  0  0  0  0
 22 23  2  0  0  0  0
 23 24  1  0  0  0  0
 24 25  2  0  0  0  0
 24 26  1  0  0  0  0
 26 27  2  0  0  0  0
 27 28  1  0  0  0  0
 28 29  2  0  0  0  0
 29 30  1  0  0  0  0
 30 31  2  0  0  0  0
 31 32  1  0  0  0  0
 32 33  1  0  0  0  0
 33 34  1  0  0  0  0
 17 35  2  0  0  0  0
 35 36  1  0  0  0  0
 36 37  2  0  0  0  0
 12 38  2  0  0  0  0
 38 39  1  0  0  0  0
 39 40  2  0  0  0  0
 40  3  1  0  0  0  0
  9  4  1  0  0  0  0
 40 10  1  0  0  0  0
 37 15  1  0  0  0  0
 25 20  1  0  0  0  0
 31 26  1  0  0  0  0
 32 23  1  0  0  0  0
  1 41  1  0  0  0  0
  1 42  1  0  0  0  0
  1 43  1  0  0  0  0
  2 44  1  0  0  0  0
  2 45  1  0  0  0  0
  5 46  1  0  0  0  0
  6 47  1  0  0  0  0
  7 48  1  0  0  0  0
  8 49  1  0  0  0  0
 11 50  1  0  0  0  0
 16 51  1  0  0  0  0
 21 52  1  0  0  0  0
 22 53  1  0  0  0  0
 25 54  1  0  0  0  0
 27 55  1  0  0  0  0
 28 56  1  0  0  0  0
 29 57  1  0  0  0  0
 30 58  1  0  0  0  0
 33 59  1  0  0  0  0
 33 60  1  0  0  0  0
 34 61  1  0  0  0  0
 34 62  1  0  0  0  0
 34 63  1  0  0  0  0
 36 64  1  0  0  0  0
 38 65  1  0  0  0  0
 39 66  1  0  0  0  0
M  END
