
  xtb     03022215393D
 energy: -86.890624561202 gnorm: 0.000104534936 xtb: 6.4.1 (afa7bdf)
 57 62  0     0  0            999 V2000
    7.3661    2.8839    1.0131 C   0  0  0  0  0  0  0  0  0  0  0  0
    7.6217    1.6328    0.4773 C   0  0  0  0  0  0  0  0  0  0  0  0
    6.5960    0.7215    0.3084 C   0  0  0  0  0  0  0  0  0  0  0  0
    5.2941    1.0484    0.6846 C   0  0  0  0  0  0  0  0  0  0  0  0
    4.1847    0.1248    0.5256 C   0  0  0  0  0  0  0  0  0  0  0  0
    2.9227    0.5797    0.3746 N   0  0  0  0  0  0  0  0  0  0  0  0
    2.1190   -0.4589    0.2586 C   0  0  0  0  0  0  0  0  0  0  0  0
    0.6822   -0.3370    0.0971 C   0  0  0  0  0  0  0  0  0  0  0  0
   -0.2245   -1.2261    0.6745 C   0  0  0  0  0  0  0  0  0  0  0  0
   -1.5826   -1.0600    0.5001 C   0  0  0  0  0  0  0  0  0  0  0  0
   -2.0793    0.0126   -0.2417 C   0  0  0  0  0  0  0  0  0  0  0  0
   -3.4536    0.1753   -0.4239 N   0  0  0  0  0  0  0  0  0  0  0  0
   -3.9488    0.6983   -1.6246 C   0  0  0  0  0  0  0  0  0  0  0  0
   -3.3522    0.3691   -2.8415 C   0  0  0  0  0  0  0  0  0  0  0  0
   -3.8470    0.8883   -4.0219 C   0  0  0  0  0  0  0  0  0  0  0  0
   -4.9449    1.7329   -4.0122 C   0  0  0  0  0  0  0  0  0  0  0  0
   -5.5439    2.0595   -2.8065 C   0  0  0  0  0  0  0  0  0  0  0  0
   -5.0511    1.5527   -1.6200 C   0  0  0  0  0  0  0  0  0  0  0  0
   -4.3465   -0.1786    0.5959 C   0  0  0  0  0  0  0  0  0  0  0  0
   -5.5660   -0.7803    0.2869 C   0  0  0  0  0  0  0  0  0  0  0  0
   -6.4486   -1.1208    1.2934 C   0  0  0  0  0  0  0  0  0  0  0  0
   -6.1292   -0.8767    2.6191 C   0  0  0  0  0  0  0  0  0  0  0  0
   -4.9170   -0.2831    2.9314 C   0  0  0  0  0  0  0  0  0  0  0  0
   -4.0311    0.0685    1.9316 C   0  0  0  0  0  0  0  0  0  0  0  0
   -1.1740    0.9265   -0.7869 C   0  0  0  0  0  0  0  0  0  0  0  0
    0.1809    0.7522   -0.6199 C   0  0  0  0  0  0  0  0  0  0  0  0
    2.8286   -1.6266    0.3203 N   0  0  0  0  0  0  0  0  0  0  0  0
    2.4593   -2.9276    0.1516 C   0  0  0  0  0  0  0  0  0  0  0  0
    3.3806   -3.9133    0.2740 C   0  0  0  0  0  0  0  0  0  0  0  0
    4.7294   -3.6012    0.5801 C   0  0  0  0  0  0  0  0  0  0  0  0
    5.1169   -2.2988    0.6830 C   0  0  0  0  0  0  0  0  0  0  0  0
    4.1704   -1.2744    0.5096 C   0  0  0  0  0  0  0  0  0  0  0  0
    5.0434    2.3191    1.2047 C   0  0  0  0  0  0  0  0  0  0  0  0
    6.0708    3.2262    1.3680 C   0  0  0  0  0  0  0  0  0  0  0  0
    8.1714    3.5919    1.1444 H   0  0  0  0  0  0  0  0  0  0  0  0
    8.6271    1.3679    0.1817 H   0  0  0  0  0  0  0  0  0  0  0  0
    6.8027   -0.2356   -0.1460 H   0  0  0  0  0  0  0  0  0  0  0  0
    0.1254   -2.0394    1.2935 H   0  0  0  0  0  0  0  0  0  0  0  0
   -2.2715   -1.7631    0.9450 H   0  0  0  0  0  0  0  0  0  0  0  0
   -2.5023   -0.2975   -2.8535 H   0  0  0  0  0  0  0  0  0  0  0  0
   -3.3765    0.6238   -4.9576 H   0  0  0  0  0  0  0  0  0  0  0  0
   -5.3308    2.1336   -4.9371 H   0  0  0  0  0  0  0  0  0  0  0  0
   -6.3970    2.7217   -2.7882 H   0  0  0  0  0  0  0  0  0  0  0  0
   -5.5141    1.8167   -0.6805 H   0  0  0  0  0  0  0  0  0  0  0  0
   -5.8132   -0.9787   -0.7458 H   0  0  0  0  0  0  0  0  0  0  0  0
   -7.3893   -1.5877    1.0407 H   0  0  0  0  0  0  0  0  0  0  0  0
   -6.8204   -1.1462    3.4031 H   0  0  0  0  0  0  0  0  0  0  0  0
   -4.6625   -0.0832    3.9619 H   0  0  0  0  0  0  0  0  0  0  0  0
   -3.0912    0.5413    2.1763 H   0  0  0  0  0  0  0  0  0  0  0  0
   -1.5469    1.7761   -1.3395 H   0  0  0  0  0  0  0  0  0  0  0  0
    0.8805    1.4616   -1.0327 H   0  0  0  0  0  0  0  0  0  0  0  0
    1.4272   -3.1137   -0.0986 H   0  0  0  0  0  0  0  0  0  0  0  0
    3.0845   -4.9411    0.1402 H   0  0  0  0  0  0  0  0  0  0  0  0
    5.4393   -4.4017    0.7144 H   0  0  0  0  0  0  0  0  0  0  0  0
    6.1370   -2.0331    0.9069 H   0  0  0  0  0  0  0  0  0  0  0  0
    4.0295    2.5720    1.4733 H   0  0  0  0  0  0  0  0  0  0  0  0
    5.8644    4.2058    1.7749 H   0  0  0  0  0  0  0  0  0  0  0  0
  1  2  2  0  0  0  0
  2  3  1  0  0  0  0
  3  4  2  0  0  0  0
  4  5  1  0  0  0  0
  5  6  1  0  0  0  0
  6  7  2  0  0  0  0
  7  8  1  0  0  0  0
  8  9  2  0  0  0  0
  9 10  1  0  0  0  0
 10 11  2  0  0  0  0
 11 12  1  0  0  0  0
 12 13  1  0  0  0  0
 13 14  2  0  0  0  0
 14 15  1  0  0  0  0
 15 16  2  0  0  0  0
 16 17  1  0  0  0  0
 17 18  2  0  0  0  0
 12 19  1  0  0  0  0
 19 20  2  0  0  0  0
 20 21  1  0  0  0  0
 21 22  2  0  0  0  0
 22 23  1  0  0  0  0
 23 24  2  0  0  0  0
 11 25  1  0  0  0  0
 25 26  2  0  0  0  0
  7 27  1  0  0  0  0
 27 28  1  0  0  0  0
 28 29  2  0  0  0  0
 29 30  1  0  0  0  0
 30 31  2  0  0  0  0
 31 32  1  0  0  0  0
  4 33  1  0  0  0  0
 33 34  2  0  0  0  0
 34  1  1  0  0  0  0
 32  5  2  0  0  0  0
 26  8  1  0  0  0  0
 32 27  1  0  0  0  0
 18 13  1  0  0  0  0
 24 19  1  0  0  0  0
  1 35  1  0  0  0  0
  2 36  1  0  0  0  0
  3 37  1  0  0  0  0
  9 38  1  0  0  0  0
 10 39  1  0  0  0  0
 14 40  1  0  0  0  0
 15 41  1  0  0  0  0
 16 42  1  0  0  0  0
 17 43  1  0  0  0  0
 18 44  1  0  0  0  0
 20 45  1  0  0  0  0
 21 46  1  0  0  0  0
 22 47  1  0  0  0  0
 23 48  1  0  0  0  0
 24 49  1  0  0  0  0
 25 50  1  0  0  0  0
 26 51  1  0  0  0  0
 28 52  1  0  0  0  0
 29 53  1  0  0  0  0
 30 54  1  0  0  0  0
 31 55  1  0  0  0  0
 33 56  1  0  0  0  0
 34 57  1  0  0  0  0
M  END
