
  xtb     03022216033D
 energy: -49.971434312405 gnorm: 0.000242084980 xtb: 6.4.1 (afa7bdf)
 27 29  0     0  0            999 V2000
   -1.7132   -2.5314   -0.3370 O   0  0  0  0  0  0  0  0  0  0  0  0
   -2.5084   -1.4334   -0.3340 C   0  0  0  0  0  0  0  0  0  0  0  0
   -3.8756   -1.6601   -0.4628 C   0  0  0  0  0  0  0  0  0  0  0  0
   -4.7728   -0.6130   -0.4503 C   0  0  0  0  0  0  0  0  0  0  0  0
   -4.3128    0.6867   -0.3026 C   0  0  0  0  0  0  0  0  0  0  0  0
   -2.9614    0.9255   -0.1750 C   0  0  0  0  0  0  0  0  0  0  0  0
   -2.0312   -0.1186   -0.1901 C   0  0  0  0  0  0  0  0  0  0  0  0
   -0.6222    0.2035   -0.0481 C   0  0  0  0  0  0  0  0  0  0  0  0
    0.6786   -0.6824   -0.8092 S   0  0  0  0  0  0  0  0  0  0  0  0
    1.8345    0.4447   -0.1196 C   0  0  0  0  0  0  0  0  0  0  0  0
    3.2279    0.3025   -0.3447 C   0  0  0  0  0  0  0  0  0  0  0  0
    3.8786   -0.6606   -1.0776 C   0  0  0  0  0  0  0  0  0  0  0  0
    5.2719   -0.4890   -1.0821 C   0  0  0  0  0  0  0  0  0  0  0  0
    5.6684    0.5947   -0.3592 C   0  0  0  0  0  0  0  0  0  0  0  0
    4.3491    1.4346    0.3473 S   0  0  0  0  0  0  0  0  0  0  0  0
    1.2765    1.3764    0.5877 N   0  0  0  0  0  0  0  0  0  0  0  0
   -0.0623    1.2691    0.6333 C   0  0  0  0  0  0  0  0  0  0  0  0
   -0.7580    2.1689    1.3500 O   0  0  0  0  0  0  0  0  0  0  0  0
   -0.7866   -2.2883   -0.2142 H   0  0  0  0  0  0  0  0  0  0  0  0
   -4.2048   -2.6816   -0.5692 H   0  0  0  0  0  0  0  0  0  0  0  0
   -5.8290   -0.8101   -0.5533 H   0  0  0  0  0  0  0  0  0  0  0  0
   -5.0068    1.5127   -0.2907 H   0  0  0  0  0  0  0  0  0  0  0  0
   -2.6024    1.9357   -0.0658 H   0  0  0  0  0  0  0  0  0  0  0  0
    3.3630   -1.4548   -1.5880 H   0  0  0  0  0  0  0  0  0  0  0  0
    5.9515   -1.1414   -1.5997 H   0  0  0  0  0  0  0  0  0  0  0  0
    6.6658    0.9526   -0.1982 H   0  0  0  0  0  0  0  0  0  0  0  0
   -0.1190    2.7570    1.7738 H   0  0  0  0  0  0  0  0  0  0  0  0
  1  2  1  0  0  0  0
  2  3  2  0  0  0  0
  3  4  1  0  0  0  0
  4  5  2  0  0  0  0
  5  6  1  0  0  0  0
  6  7  2  0  0  0  0
  7  8  1  0  0  0  0
  8  9  1  0  0  0  0
  9 10  1  0  0  0  0
 10 11  1  0  0  0  0
 11 12  2  0  0  0  0
 12 13  1  0  0  0  0
 13 14  2  0  0  0  0
 14 15  1  0  0  0  0
 10 16  2  0  0  0  0
 16 17  1  0  0  0  0
 17 18  1  0  0  0  0
  7  2  1  0  0  0  0
 17  8  2  0  0  0  0
 15 11  1  0  0  0  0
  1 19  1  0  0  0  0
  3 20  1  0  0  0  0
  4 21  1  0  0  0  0
  5 22  1  0  0  0  0
  6 23  1  0  0  0  0
 12 24  1  0  0  0  0
 13 25  1  0  0  0  0
 14 26  1  0  0  0  0
 18 27  1  0  0  0  0
M  END
