
  xtb     03022212473D
 energy: -43.494999695514 gnorm: 0.000159850213 xtb: 6.4.1 (afa7bdf)
 25 27  0     0  0            999 V2000
    3.8262   -1.0460   -0.4420 C   0  0  0  0  0  0  0  0  0  0  0  0
    2.6585   -0.1823   -0.1270 C   0  0  0  0  0  0  0  0  0  0  0  0
    1.4626   -0.6374   -0.2579 N   0  0  0  0  0  0  0  0  0  0  0  0
    0.4041    0.1752    0.0438 C   0  0  0  0  0  0  0  0  0  0  0  0
    0.6137    1.4779    0.4848 C   0  0  0  0  0  0  0  0  0  0  0  0
   -0.4645    2.3242    0.8013 C   0  0  0  0  0  0  0  0  0  0  0  0
   -1.7406    1.8595    0.6762 C   0  0  0  0  0  0  0  0  0  0  0  0
   -2.0064    0.5414    0.2323 C   0  0  0  0  0  0  0  0  0  0  0  0
   -3.3206    0.0517    0.1016 C   0  0  0  0  0  0  0  0  0  0  0  0
   -3.5502   -1.2270   -0.3307 C   0  0  0  0  0  0  0  0  0  0  0  0
   -2.4776   -2.0698   -0.6511 C   0  0  0  0  0  0  0  0  0  0  0  0
   -1.1875   -1.6245   -0.5340 C   0  0  0  0  0  0  0  0  0  0  0  0
   -0.9270   -0.3171   -0.0915 C   0  0  0  0  0  0  0  0  0  0  0  0
    1.8712    1.9687    0.6225 O   0  0  0  0  0  0  0  0  0  0  0  0
    2.9547    1.1909    0.3343 C   0  0  0  0  0  0  0  0  0  0  0  0
    4.0609    1.6516    0.4670 O   0  0  0  0  0  0  0  0  0  0  0  0
    3.4887   -2.0117   -0.8045 H   0  0  0  0  0  0  0  0  0  0  0  0
    4.4360   -1.1732    0.4514 H   0  0  0  0  0  0  0  0  0  0  0  0
    4.4513   -0.5578   -1.1879 H   0  0  0  0  0  0  0  0  0  0  0  0
   -0.2483    3.3257    1.1379 H   0  0  0  0  0  0  0  0  0  0  0  0
   -2.5755    2.5006    0.9177 H   0  0  0  0  0  0  0  0  0  0  0  0
   -4.1449    0.7046    0.3496 H   0  0  0  0  0  0  0  0  0  0  0  0
   -4.5613   -1.5939   -0.4272 H   0  0  0  0  0  0  0  0  0  0  0  0
   -2.6764   -3.0750   -0.9916 H   0  0  0  0  0  0  0  0  0  0  0  0
   -0.3472   -2.2561   -0.7747 H   0  0  0  0  0  0  0  0  0  0  0  0
  1  2  1  0  0  0  0
  2  3  2  0  0  0  0
  3  4  1  0  0  0  0
  4  5  2  0  0  0  0
  5  6  1  0  0  0  0
  6  7  2  0  0  0  0
  7  8  1  0  0  0  0
  8  9  2  0  0  0  0
  9 10  1  0  0  0  0
 10 11  2  0  0  0  0
 11 12  1  0  0  0  0
 12 13  2  0  0  0  0
  5 14  1  0  0  0  0
 14 15  1  0  0  0  0
 15 16  2  0  0  0  0
 15  2  1  0  0  0  0
 13  4  1  0  0  0  0
 13  8  1  0  0  0  0
  1 17  1  0  0  0  0
  1 18  1  0  0  0  0
  1 19  1  0  0  0  0
  6 20  1  0  0  0  0
  7 21  1  0  0  0  0
  9 22  1  0  0  0  0
 10 23  1  0  0  0  0
 11 24  1  0  0  0  0
 12 25  1  0  0  0  0
M  END
