
  xtb     03022213243D
 energy: -79.053204801341 gnorm: 0.000182003736 xtb: 6.4.1 (afa7bdf)
 50 54  0     0  0            999 V2000
   -6.7190   -1.5268   -2.0203 C   0  0  0  0  0  0  0  0  0  0  0  0
   -6.4423   -0.1017   -1.5370 C   0  0  0  0  0  0  0  0  0  0  0  0
   -5.5760   -0.0688   -0.3796 N   0  0  0  0  0  0  0  0  0  0  0  0
   -6.2407   -0.0861    0.9054 C   0  0  0  0  0  0  0  0  0  0  0  0
   -6.5299    1.3196    1.4343 C   0  0  0  0  0  0  0  0  0  0  0  0
   -4.2180   -0.0189   -0.4864 C   0  0  0  0  0  0  0  0  0  0  0  0
   -3.5711   -0.1803   -1.7343 C   0  0  0  0  0  0  0  0  0  0  0  0
   -2.2074   -0.1400   -1.8436 C   0  0  0  0  0  0  0  0  0  0  0  0
   -1.3904    0.0599   -0.7233 C   0  0  0  0  0  0  0  0  0  0  0  0
    0.0283    0.0767   -0.7476 C   0  0  0  0  0  0  0  0  0  0  0  0
    0.7452    0.2628    0.3928 C   0  0  0  0  0  0  0  0  0  0  0  0
    2.1980    0.2480    0.3901 C   0  0  0  0  0  0  0  0  0  0  0  0
    3.0265    0.7185   -0.6265 C   0  0  0  0  0  0  0  0  0  0  0  0
    4.2951    0.5039   -0.2119 N   0  0  0  0  0  0  0  0  0  0  0  0
    5.4809    0.7674   -0.7811 C   0  0  0  0  0  0  0  0  0  0  0  0
    6.6556    0.4317   -0.1314 C   0  0  0  0  0  0  0  0  0  0  0  0
    7.9294    0.6942   -0.7047 C   0  0  0  0  0  0  0  0  0  0  0  0
    9.0695    0.3546   -0.0478 C   0  0  0  0  0  0  0  0  0  0  0  0
    9.0103   -0.2666    1.2209 C   0  0  0  0  0  0  0  0  0  0  0  0
    7.8112   -0.5344    1.8042 C   0  0  0  0  0  0  0  0  0  0  0  0
    6.5934   -0.1996    1.1579 C   0  0  0  0  0  0  0  0  0  0  0  0
    5.3526   -0.4606    1.7294 C   0  0  0  0  0  0  0  0  0  0  0  0
    4.1936   -0.1112    1.0567 C   0  0  0  0  0  0  0  0  0  0  0  0
    2.9254   -0.2581    1.4014 N   0  0  0  0  0  0  0  0  0  0  0  0
    0.0621    0.5056    1.6659 C   0  0  0  0  0  0  0  0  0  0  0  0
    0.5818    0.7884    2.7123 O   0  0  0  0  0  0  0  0  0  0  0  0
   -1.3122    0.4422    1.6473 O   0  0  0  0  0  0  0  0  0  0  0  0
   -2.0260    0.2259    0.5192 C   0  0  0  0  0  0  0  0  0  0  0  0
   -3.4047    0.1901    0.6346 C   0  0  0  0  0  0  0  0  0  0  0  0
   -5.7932   -2.0257   -2.2939 H   0  0  0  0  0  0  0  0  0  0  0  0
   -7.3768   -1.5070   -2.8853 H   0  0  0  0  0  0  0  0  0  0  0  0
   -7.1971   -2.1070   -1.2347 H   0  0  0  0  0  0  0  0  0  0  0  0
   -6.0041    0.4920   -2.3425 H   0  0  0  0  0  0  0  0  0  0  0  0
   -7.3872    0.3752   -1.2627 H   0  0  0  0  0  0  0  0  0  0  0  0
   -5.6327   -0.6413    1.6227 H   0  0  0  0  0  0  0  0  0  0  0  0
   -7.1825   -0.6294    0.7885 H   0  0  0  0  0  0  0  0  0  0  0  0
   -5.6074    1.8801    1.5570 H   0  0  0  0  0  0  0  0  0  0  0  0
   -7.1686    1.8626    0.7413 H   0  0  0  0  0  0  0  0  0  0  0  0
   -7.0339    1.2595    2.3951 H   0  0  0  0  0  0  0  0  0  0  0  0
   -4.1476   -0.3547   -2.6270 H   0  0  0  0  0  0  0  0  0  0  0  0
   -1.7408   -0.2731   -2.8088 H   0  0  0  0  0  0  0  0  0  0  0  0
    0.5333   -0.0915   -1.6891 H   0  0  0  0  0  0  0  0  0  0  0  0
    2.7945    1.2010   -1.5537 H   0  0  0  0  0  0  0  0  0  0  0  0
    5.4761    1.2445   -1.7507 H   0  0  0  0  0  0  0  0  0  0  0  0
    7.9663    1.1699   -1.6742 H   0  0  0  0  0  0  0  0  0  0  0  0
   10.0345    0.5563   -0.4886 H   0  0  0  0  0  0  0  0  0  0  0  0
    9.9321   -0.5251    1.7205 H   0  0  0  0  0  0  0  0  0  0  0  0
    7.7586   -1.0077    2.7736 H   0  0  0  0  0  0  0  0  0  0  0  0
    5.2662   -0.9279    2.6961 H   0  0  0  0  0  0  0  0  0  0  0  0
   -3.8111    0.3417    1.6191 H   0  0  0  0  0  0  0  0  0  0  0  0
  1  2  1  0  0  0  0
  2  3  1  0  0  0  0
  3  4  1  0  0  0  0
  4  5  1  0  0  0  0
  3  6  1  0  0  0  0
  6  7  2  0  0  0  0
  7  8  1  0  0  0  0
  8  9  2  0  0  0  0
  9 10  1  0  0  0  0
 10 11  2  0  0  0  0
 11 12  1  0  0  0  0
 12 13  2  0  0  0  0
 13 14  1  0  0  0  0
 14 15  1  0  0  0  0
 15 16  2  0  0  0  0
 16 17  1  0  0  0  0
 17 18  2  0  0  0  0
 18 19  1  0  0  0  0
 19 20  2  0  0  0  0
 20 21  1  0  0  0  0
 21 22  2  0  0  0  0
 22 23  1  0  0  0  0
 23 24  2  0  0  0  0
 11 25  1  0  0  0  0
 25 26  2  0  0  0  0
 25 27  1  0  0  0  0
 27 28  1  0  0  0  0
 28 29  2  0  0  0  0
 29  6  1  0  0  0  0
 28  9  1  0  0  0  0
 24 12  1  0  0  0  0
 23 14  1  0  0  0  0
 21 16  1  0  0  0  0
  1 30  1  0  0  0  0
  1 31  1  0  0  0  0
  1 32  1  0  0  0  0
  2 33  1  0  0  0  0
  2 34  1  0  0  0  0
  4 35  1  0  0  0  0
  4 36  1  0  0  0  0
  5 37  1  0  0  0  0
  5 38  1  0  0  0  0
  5 39  1  0  0  0  0
  7 40  1  0  0  0  0
  8 41  1  0  0  0  0
 10 42  1  0  0  0  0
 13 43  1  0  0  0  0
 15 44  1  0  0  0  0
 17 45  1  0  0  0  0
 18 46  1  0  0  0  0
 19 47  1  0  0  0  0
 20 48  1  0  0  0  0
 22 49  1  0  0  0  0
 29 50  1  0  0  0  0
M  END
