
  xtb     03022213083D
 energy: -50.233306192949 gnorm: 0.000065713866 xtb: 6.4.1 (afa7bdf)
 31 33  0     0  0            999 V2000
    0.0971    3.2694    0.0807 O   0  0  0  0  0  0  0  0  0  0  0  0
   -0.9571    2.4435    0.0675 C   0  0  0  0  0  0  0  0  0  0  0  0
   -2.2544    2.9771    0.0628 C   0  0  0  0  0  0  0  0  0  0  0  0
   -3.3307    2.1380    0.0418 C   0  0  0  0  0  0  0  0  0  0  0  0
   -3.1727    0.7330    0.0313 C   0  0  0  0  0  0  0  0  0  0  0  0
   -4.2923   -0.1209    0.0135 C   0  0  0  0  0  0  0  0  0  0  0  0
   -4.1385   -1.4811    0.0046 C   0  0  0  0  0  0  0  0  0  0  0  0
   -2.8547   -2.0366    0.0200 C   0  0  0  0  0  0  0  0  0  0  0  0
   -1.7433   -1.2328    0.0376 C   0  0  0  0  0  0  0  0  0  0  0  0
   -1.8697    0.1673    0.0379 C   0  0  0  0  0  0  0  0  0  0  0  0
   -0.7445    1.0531    0.0513 C   0  0  0  0  0  0  0  0  0  0  0  0
    0.5876    0.7578    0.0761 N   0  0  0  0  0  0  0  0  0  0  0  0
    1.0066   -0.4415   -0.0376 N   0  0  0  0  0  0  0  0  0  0  0  0
    2.3642   -0.6353    0.0906 C   0  0  0  0  0  0  0  0  0  0  0  0
    2.8834   -1.8180   -0.4483 C   0  0  0  0  0  0  0  0  0  0  0  0
    4.2241   -2.1101   -0.3123 C   0  0  0  0  0  0  0  0  0  0  0  0
    5.0614   -1.2454    0.3779 C   0  0  0  0  0  0  0  0  0  0  0  0
    4.5511   -0.0808    0.9325 C   0  0  0  0  0  0  0  0  0  0  0  0
    3.2154    0.2298    0.7911 C   0  0  0  0  0  0  0  0  0  0  0  0
    0.8876    2.6903    0.0855 H   0  0  0  0  0  0  0  0  0  0  0  0
   -2.3663    4.0497    0.0732 H   0  0  0  0  0  0  0  0  0  0  0  0
   -4.3324    2.5431    0.0328 H   0  0  0  0  0  0  0  0  0  0  0  0
   -5.2788    0.3208    0.0084 H   0  0  0  0  0  0  0  0  0  0  0  0
   -5.0028   -2.1287   -0.0109 H   0  0  0  0  0  0  0  0  0  0  0  0
   -2.7406   -3.1108    0.0185 H   0  0  0  0  0  0  0  0  0  0  0  0
   -0.7546   -1.6620    0.0493 H   0  0  0  0  0  0  0  0  0  0  0  0
    2.2188   -2.4778   -0.9850 H   0  0  0  0  0  0  0  0  0  0  0  0
    4.6224   -3.0189   -0.7393 H   0  0  0  0  0  0  0  0  0  0  0  0
    6.1089   -1.4826    0.4903 H   0  0  0  0  0  0  0  0  0  0  0  0
    5.2027    0.5863    1.4786 H   0  0  0  0  0  0  0  0  0  0  0  0
    2.8021    1.1242    1.2345 H   0  0  0  0  0  0  0  0  0  0  0  0
  1  2  1  0  0  0  0
  2  3  2  0  0  0  0
  3  4  1  0  0  0  0
  4  5  2  0  0  0  0
  5  6  1  0  0  0  0
  6  7  2  0  0  0  0
  7  8  1  0  0  0  0
  8  9  2  0  0  0  0
  9 10  1  0  0  0  0
 10 11  2  0  0  0  0
 11 12  1  0  0  0  0
 12 13  2  0  0  0  0
 13 14  1  0  0  0  0
 14 15  2  0  0  0  0
 15 16  1  0  0  0  0
 16 17  2  0  0  0  0
 17 18  1  0  0  0  0
 18 19  2  0  0  0  0
 11  2  1  0  0  0  0
 19 14  1  0  0  0  0
 10  5  1  0  0  0  0
  1 20  1  0  0  0  0
  3 21  1  0  0  0  0
  4 22  1  0  0  0  0
  6 23  1  0  0  0  0
  7 24  1  0  0  0  0
  8 25  1  0  0  0  0
  9 26  1  0  0  0  0
 15 27  1  0  0  0  0
 16 28  1  0  0  0  0
 17 29  1  0  0  0  0
 18 30  1  0  0  0  0
 19 31  1  0  0  0  0
M  END
