
  xtb     03022216033D
 energy: -103.194928682371 gnorm: 0.000268167841 xtb: 6.4.1 (afa7bdf)
 63 70  0     0  0            999 V2000
   -6.9382    2.7590    1.7266 C   0  0  0  0  0  0  0  0  0  0  0  0
   -5.8619    3.1624    0.7089 C   0  0  0  0  0  0  0  0  0  0  0  0
   -6.4031    4.2618   -0.2158 C   0  0  0  0  0  0  0  0  0  0  0  0
   -4.6690    3.7337    1.4804 C   0  0  0  0  0  0  0  0  0  0  0  0
   -5.4891    1.9477   -0.1287 C   0  0  0  0  0  0  0  0  0  0  0  0
   -6.4869    1.3152   -0.8821 C   0  0  0  0  0  0  0  0  0  0  0  0
   -6.2470    0.2054   -1.6703 C   0  0  0  0  0  0  0  0  0  0  0  0
   -4.9557   -0.2835   -1.7002 C   0  0  0  0  0  0  0  0  0  0  0  0
   -4.4983   -1.3639   -2.4038 O   0  0  0  0  0  0  0  0  0  0  0  0
   -3.1879   -1.4648   -2.1301 C   0  0  0  0  0  0  0  0  0  0  0  0
   -2.4362   -2.4158   -2.6509 N   0  0  0  0  0  0  0  0  0  0  0  0
   -1.1764   -2.3555   -2.2665 C   0  0  0  0  0  0  0  0  0  0  0  0
   -0.2571   -3.2462   -2.6911 O   0  0  0  0  0  0  0  0  0  0  0  0
    0.9199   -2.8941   -2.1059 C   0  0  0  0  0  0  0  0  0  0  0  0
    2.1363   -3.5357   -2.2555 C   0  0  0  0  0  0  0  0  0  0  0  0
    3.2182   -3.0176   -1.5673 C   0  0  0  0  0  0  0  0  0  0  0  0
    3.0870   -1.8871   -0.7574 C   0  0  0  0  0  0  0  0  0  0  0  0
    4.2324   -1.3887   -0.0694 N   0  0  0  0  0  0  0  0  0  0  0  0
    5.1221   -0.5812   -0.7419 C   0  0  0  0  0  0  0  0  0  0  0  0
    4.9107   -0.2476   -2.0865 C   0  0  0  0  0  0  0  0  0  0  0  0
    5.8052    0.5553   -2.7568 C   0  0  0  0  0  0  0  0  0  0  0  0
    6.9337    1.0562   -2.1138 C   0  0  0  0  0  0  0  0  0  0  0  0
    7.1465    0.7460   -0.7918 C   0  0  0  0  0  0  0  0  0  0  0  0
    6.2545   -0.0678   -0.0883 C   0  0  0  0  0  0  0  0  0  0  0  0
    6.5197   -0.3604    1.3241 C   0  0  0  0  0  0  0  0  0  0  0  0
    7.4867    0.0897    1.9221 O   0  0  0  0  0  0  0  0  0  0  0  0
    5.5315   -1.2369    1.9612 C   0  0  0  0  0  0  0  0  0  0  0  0
    5.7045   -1.5932    3.3014 C   0  0  0  0  0  0  0  0  0  0  0  0
    4.8106   -2.4212    3.9374 C   0  0  0  0  0  0  0  0  0  0  0  0
    3.7186   -2.9151    3.2293 C   0  0  0  0  0  0  0  0  0  0  0  0
    3.5247   -2.5788    1.9089 C   0  0  0  0  0  0  0  0  0  0  0  0
    4.4240   -1.7290    1.2510 C   0  0  0  0  0  0  0  0  0  0  0  0
    1.8698   -1.2423   -0.6074 C   0  0  0  0  0  0  0  0  0  0  0  0
    0.7739   -1.7544   -1.2869 C   0  0  0  0  0  0  0  0  0  0  0  0
   -0.6126   -1.3932   -1.3869 C   0  0  0  0  0  0  0  0  0  0  0  0
   -1.4227   -0.4026   -0.8503 C   0  0  0  0  0  0  0  0  0  0  0  0
   -2.7517   -0.4451   -1.2364 C   0  0  0  0  0  0  0  0  0  0  0  0
   -3.9311    0.3288   -0.9587 C   0  0  0  0  0  0  0  0  0  0  0  0
   -4.1987    1.4432   -0.1740 C   0  0  0  0  0  0  0  0  0  0  0  0
   -7.8428    2.4134    1.2347 H   0  0  0  0  0  0  0  0  0  0  0  0
   -7.1964    3.6100    2.3529 H   0  0  0  0  0  0  0  0  0  0  0  0
   -6.5706    1.9591    2.3657 H   0  0  0  0  0  0  0  0  0  0  0  0
   -7.2949    3.9357   -0.7431 H   0  0  0  0  0  0  0  0  0  0  0  0
   -6.6558    5.1462    0.3649 H   0  0  0  0  0  0  0  0  0  0  0  0
   -5.6520    4.5363   -0.9534 H   0  0  0  0  0  0  0  0  0  0  0  0
   -3.8854    4.0643    0.8028 H   0  0  0  0  0  0  0  0  0  0  0  0
   -4.9937    4.5944    2.0611 H   0  0  0  0  0  0  0  0  0  0  0  0
   -4.2608    2.9993    2.1708 H   0  0  0  0  0  0  0  0  0  0  0  0
   -7.4934    1.7021   -0.8541 H   0  0  0  0  0  0  0  0  0  0  0  0
   -7.0325   -0.2638   -2.2399 H   0  0  0  0  0  0  0  0  0  0  0  0
    2.2295   -4.4060   -2.8836 H   0  0  0  0  0  0  0  0  0  0  0  0
    4.1873   -3.4851   -1.6518 H   0  0  0  0  0  0  0  0  0  0  0  0
    4.0386   -0.6237   -2.5997 H   0  0  0  0  0  0  0  0  0  0  0  0
    5.6244    0.7973   -3.7937 H   0  0  0  0  0  0  0  0  0  0  0  0
    7.6292    1.6832   -2.6499 H   0  0  0  0  0  0  0  0  0  0  0  0
    8.0048    1.1184   -0.2528 H   0  0  0  0  0  0  0  0  0  0  0  0
    6.5680   -1.1925    3.8109 H   0  0  0  0  0  0  0  0  0  0  0  0
    4.9521   -2.6911    4.9724 H   0  0  0  0  0  0  0  0  0  0  0  0
    3.0134   -3.5722    3.7165 H   0  0  0  0  0  0  0  0  0  0  0  0
    2.6759   -2.9764    1.3733 H   0  0  0  0  0  0  0  0  0  0  0  0
    1.7839   -0.3713    0.0236 H   0  0  0  0  0  0  0  0  0  0  0  0
   -1.0413    0.3492   -0.1767 H   0  0  0  0  0  0  0  0  0  0  0  0
   -3.3938    1.8905    0.3841 H   0  0  0  0  0  0  0  0  0  0  0  0
  1  2  1  0  0  0  0
  2  3  1  0  0  0  0
  2  4  1  0  0  0  0
  2  5  1  0  0  0  0
  5  6  2  0  0  0  0
  6  7  1  0  0  0  0
  7  8  2  0  0  0  0
  8  9  1  0  0  0  0
  9 10  1  0  0  0  0
 10 11  2  0  0  0  0
 11 12  1  0  0  0  0
 12 13  1  0  0  0  0
 13 14  1  0  0  0  0
 14 15  2  0  0  0  0
 15 16  1  0  0  0  0
 16 17  2  0  0  0  0
 17 18  1  0  0  0  0
 18 19  1  0  0  0  0
 19 20  2  0  0  0  0
 20 21  1  0  0  0  0
 21 22  2  0  0  0  0
 22 23  1  0  0  0  0
 23 24  2  0  0  0  0
 24 25  1  0  0  0  0
 25 26  2  0  0  0  0
 25 27  1  0  0  0  0
 27 28  2  0  0  0  0
 28 29  1  0  0  0  0
 29 30  2  0  0  0  0
 30 31  1  0  0  0  0
 31 32  2  0  0  0  0
 17 33  1  0  0  0  0
 33 34  2  0  0  0  0
 34 35  1  0  0  0  0
 35 36  1  0  0  0  0
 36 37  2  0  0  0  0
 37 38  1  0  0  0  0
 38 39  2  0  0  0  0
 39  5  1  0  0  0  0
 38  8  1  0  0  0  0
 37 10  1  0  0  0  0
 35 12  2  0  0  0  0
 34 14  1  0  0  0  0
 32 18  1  0  0  0  0
 24 19  1  0  0  0  0
 32 27  1  0  0  0  0
  1 40  1  0  0  0  0
  1 41  1  0  0  0  0
  1 42  1  0  0  0  0
  3 43  1  0  0  0  0
  3 44  1  0  0  0  0
  3 45  1  0  0  0  0
  4 46  1  0  0  0  0
  4 47  1  0  0  0  0
  4 48  1  0  0  0  0
  6 49  1  0  0  0  0
  7 50  1  0  0  0  0
 15 51  1  0  0  0  0
 16 52  1  0  0  0  0
 20 53  1  0  0  0  0
 21 54  1  0  0  0  0
 22 55  1  0  0  0  0
 23 56  1  0  0  0  0
 28 57  1  0  0  0  0
 29 58  1  0  0  0  0
 30 59  1  0  0  0  0
 31 60  1  0  0  0  0
 33 61  1  0  0  0  0
 36 62  1  0  0  0  0
 39 63  1  0  0  0  0
M  END
