
  xtb     03022212483D
 energy: -75.975129322445 gnorm: 0.000287234808 xtb: 6.4.1 (afa7bdf)
 47 49  0     0  0            999 V2000
   -5.8328   -1.8587   -0.1072 C   0  0  0  0  0  0  0  0  0  0  0  0
   -5.8191   -0.4269   -0.6467 C   0  0  0  0  0  0  0  0  0  0  0  0
   -4.8087    0.4083   -0.0330 N   0  0  0  0  0  0  0  0  0  0  0  0
   -5.2467    1.3397    0.9839 C   0  0  0  0  0  0  0  0  0  0  0  0
   -5.2935    0.7410    2.3907 C   0  0  0  0  0  0  0  0  0  0  0  0
   -3.4791    0.2009   -0.2703 C   0  0  0  0  0  0  0  0  0  0  0  0
   -3.0395   -0.6327   -1.3261 C   0  0  0  0  0  0  0  0  0  0  0  0
   -1.7095   -0.8231   -1.5974 C   0  0  0  0  0  0  0  0  0  0  0  0
   -0.7164   -0.2012   -0.8311 C   0  0  0  0  0  0  0  0  0  0  0  0
    0.6802   -0.3625   -1.0584 C   0  0  0  0  0  0  0  0  0  0  0  0
    1.5744    0.2809   -0.2689 C   0  0  0  0  0  0  0  0  0  0  0  0
    3.0287    0.2171   -0.4079 C   0  0  0  0  0  0  0  0  0  0  0  0
    3.8188    1.2042    0.1917 C   0  0  0  0  0  0  0  0  0  0  0  0
    5.1941    1.1694    0.0720 C   0  0  0  0  0  0  0  0  0  0  0  0
    5.7867    0.1460   -0.6426 C   0  0  0  0  0  0  0  0  0  0  0  0
    7.5732    0.0683   -0.7545 S   0  0  0  0  0  6  0  0  0  0  0  0
    8.0378   -0.7782    0.7874 C   0  0  0  0  0  0  0  0  0  0  0  0
    7.9371   -0.7783   -1.8587 O   0  0  0  0  0  0  0  0  0  0  0  0
    8.1091    1.4015   -0.7138 O   0  0  0  0  0  0  0  0  0  0  0  0
    5.0278   -0.8425   -1.2399 C   0  0  0  0  0  0  0  0  0  0  0  0
    3.6519   -0.8090   -1.1249 C   0  0  0  0  0  0  0  0  0  0  0  0
    1.1666    1.0904    0.7497 O   0  0  0  0  0  0  0  0  0  0  0  0
   -0.1424    1.3061    1.0526 C   0  0  0  0  0  0  0  0  0  0  0  0
   -0.3948    2.0358    1.9816 O   0  0  0  0  0  0  0  0  0  0  0  0
   -1.1392    0.6301    0.2213 C   0  0  0  0  0  0  0  0  0  0  0  0
   -2.4850    0.8219    0.4948 C   0  0  0  0  0  0  0  0  0  0  0  0
   -6.0647   -1.8660    0.9542 H   0  0  0  0  0  0  0  0  0  0  0  0
   -6.5862   -2.4422   -0.6303 H   0  0  0  0  0  0  0  0  0  0  0  0
   -4.8648   -2.3331   -0.2460 H   0  0  0  0  0  0  0  0  0  0  0  0
   -5.6765   -0.4410   -1.7325 H   0  0  0  0  0  0  0  0  0  0  0  0
   -6.7908    0.0338   -0.4577 H   0  0  0  0  0  0  0  0  0  0  0  0
   -4.5856    2.2093    0.9728 H   0  0  0  0  0  0  0  0  0  0  0  0
   -6.2456    1.6905    0.7084 H   0  0  0  0  0  0  0  0  0  0  0  0
   -4.3271    0.3247    2.6619 H   0  0  0  0  0  0  0  0  0  0  0  0
   -5.5536    1.5134    3.1097 H   0  0  0  0  0  0  0  0  0  0  0  0
   -6.0395   -0.0475    2.4493 H   0  0  0  0  0  0  0  0  0  0  0  0
   -3.7571   -1.1317   -1.9559 H   0  0  0  0  0  0  0  0  0  0  0  0
   -1.4163   -1.4639   -2.4163 H   0  0  0  0  0  0  0  0  0  0  0  0
    1.0087   -0.9804   -1.8763 H   0  0  0  0  0  0  0  0  0  0  0  0
    3.3388    1.9962    0.7444 H   0  0  0  0  0  0  0  0  0  0  0  0
    5.8182    1.9334    0.5085 H   0  0  0  0  0  0  0  0  0  0  0  0
    7.6963   -0.1747    1.6179 H   0  0  0  0  0  0  0  0  0  0  0  0
    7.5688   -1.7535    0.7872 H   0  0  0  0  0  0  0  0  0  0  0  0
    9.1165   -0.8732    0.8022 H   0  0  0  0  0  0  0  0  0  0  0  0
    5.5315   -1.6178   -1.7957 H   0  0  0  0  0  0  0  0  0  0  0  0
    3.0625   -1.5896   -1.5786 H   0  0  0  0  0  0  0  0  0  0  0  0
   -2.7131    1.4648    1.3280 H   0  0  0  0  0  0  0  0  0  0  0  0
  1  2  1  0  0  0  0
  2  3  1  0  0  0  0
  3  4  1  0  0  0  0
  4  5  1  0  0  0  0
  3  6  1  0  0  0  0
  6  7  2  0  0  0  0
  7  8  1  0  0  0  0
  8  9  2  0  0  0  0
  9 10  1  0  0  0  0
 10 11  2  0  0  0  0
 11 12  1  0  0  0  0
 12 13  2  0  0  0  0
 13 14  1  0  0  0  0
 14 15  2  0  0  0  0
 15 16  1  0  0  0  0
 16 17  1  0  0  0  0
 16 18  2  0  0  0  0
 16 19  2  0  0  0  0
 15 20  1  0  0  0  0
 20 21  2  0  0  0  0
 11 22  1  0  0  0  0
 22 23  1  0  0  0  0
 23 24  2  0  0  0  0
 23 25  1  0  0  0  0
 25 26  2  0  0  0  0
 26  6  1  0  0  0  0
 25  9  1  0  0  0  0
 21 12  1  0  0  0  0
  1 27  1  0  0  0  0
  1 28  1  0  0  0  0
  1 29  1  0  0  0  0
  2 30  1  0  0  0  0
  2 31  1  0  0  0  0
  4 32  1  0  0  0  0
  4 33  1  0  0  0  0
  5 34  1  0  0  0  0
  5 35  1  0  0  0  0
  5 36  1  0  0  0  0
  7 37  1  0  0  0  0
  8 38  1  0  0  0  0
 10 39  1  0  0  0  0
 13 40  1  0  0  0  0
 14 41  1  0  0  0  0
 17 42  1  0  0  0  0
 17 43  1  0  0  0  0
 17 44  1  0  0  0  0
 20 45  1  0  0  0  0
 21 46  1  0  0  0  0
 26 47  1  0  0  0  0
M  END
