
  xtb     03022212423D
 energy: -110.073947204591 gnorm: 0.000382549292 xtb: 6.4.1 (afa7bdf)
 63 66  0     0  0            999 V2000
   -1.2681    5.5827    2.4654 C   0  0  0  0  0  0  0  0  0  0  0  0
   -1.1214    4.2030    2.1685 O   0  0  0  0  0  0  0  0  0  0  0  0
   -0.5585    3.9181    0.9839 C   0  0  0  0  0  0  0  0  0  0  0  0
   -0.1968    4.7672    0.2055 O   0  0  0  0  0  0  0  0  0  0  0  0
   -0.4343    2.4611    0.7468 C   0  0  0  0  0  0  0  0  0  0  0  0
    0.1415    2.0337   -0.4483 C   0  0  0  0  0  0  0  0  0  0  0  0
    0.2739    0.6863   -0.7147 C   0  0  0  0  0  0  0  0  0  0  0  0
   -0.1713   -0.2620    0.2071 C   0  0  0  0  0  0  0  0  0  0  0  0
   -0.0368   -1.7073   -0.0612 C   0  0  0  0  0  0  0  0  0  0  0  0
    1.2374   -2.2969   -0.1929 C   0  0  0  0  0  0  0  0  0  0  0  0
    2.4376   -1.4997   -0.1032 C   0  0  0  0  0  0  0  0  0  0  0  0
    3.6569   -2.0317   -0.3316 C   0  0  0  0  0  0  0  0  0  0  0  0
    4.9217   -1.3496   -0.2805 C   0  0  0  0  0  0  0  0  0  0  0  0
    6.0920   -2.0742   -0.5316 C   0  0  0  0  0  0  0  0  0  0  0  0
    7.3356   -1.4790   -0.5028 C   0  0  0  0  0  0  0  0  0  0  0  0
    7.4478   -0.1184   -0.2195 C   0  0  0  0  0  0  0  0  0  0  0  0
    8.6084    0.5731   -0.1663 O   0  0  0  0  0  0  0  0  0  0  0  0
    9.8189   -0.1043   -0.4135 C   0  0  0  0  0  0  0  0  0  0  0  0
    6.2842    0.6196    0.0330 C   0  0  0  0  0  0  0  0  0  0  0  0
    5.0507    0.0188    0.0037 C   0  0  0  0  0  0  0  0  0  0  0  0
    1.3928   -3.5645   -0.3960 O   0  0  0  0  0  0  0  0  0  0  0  0
    0.2657   -4.5409   -0.3305 B   0  0  0  0  0  4  0  0  0  0  0  0
    0.2850   -5.3086   -1.4579 F   0  0  0  0  0  0  0  0  0  0  0  0
    0.4194   -5.3002    0.7999 F   0  0  0  0  0  0  0  0  0  0  0  0
   -1.0479   -3.8346   -0.2533 O   0  0  0  0  0  3  0  0  0  0  0  0
   -1.1588   -2.5494   -0.1485 C   0  0  0  0  0  0  0  0  0  0  0  0
   -2.5336   -2.0882   -0.1360 C   0  0  0  0  0  0  0  0  0  0  0  0
   -2.9747   -0.8853   -0.5453 C   0  0  0  0  0  0  0  0  0  0  0  0
   -4.3462   -0.4379   -0.5736 C   0  0  0  0  0  0  0  0  0  0  0  0
   -4.6098    0.8930   -0.9309 C   0  0  0  0  0  0  0  0  0  0  0  0
   -5.8928    1.3799   -0.9698 C   0  0  0  0  0  0  0  0  0  0  0  0
   -6.9764    0.5500   -0.6600 C   0  0  0  0  0  0  0  0  0  0  0  0
   -8.2002    1.1213   -0.7368 O   0  0  0  0  0  0  0  0  0  0  0  0
   -9.3379    0.3400   -0.4538 C   0  0  0  0  0  0  0  0  0  0  0  0
   -6.7299   -0.7759   -0.3051 C   0  0  0  0  0  0  0  0  0  0  0  0
   -5.4367   -1.2544   -0.2630 C   0  0  0  0  0  0  0  0  0  0  0  0
   -0.7379    0.1718    1.4056 C   0  0  0  0  0  0  0  0  0  0  0  0
   -0.8712    1.5184    1.6751 C   0  0  0  0  0  0  0  0  0  0  0  0
   -1.8982    6.0675    1.7167 H   0  0  0  0  0  0  0  0  0  0  0  0
   -1.7314    5.6354    3.4473 H   0  0  0  0  0  0  0  0  0  0  0  0
   -0.2934    6.0752    2.4734 H   0  0  0  0  0  0  0  0  0  0  0  0
    0.4758    2.7776   -1.1559 H   0  0  0  0  0  0  0  0  0  0  0  0
    0.7093    0.3564   -1.6467 H   0  0  0  0  0  0  0  0  0  0  0  0
    2.3086   -0.4631    0.1608 H   0  0  0  0  0  0  0  0  0  0  0  0
    3.6933   -3.0831   -0.5889 H   0  0  0  0  0  0  0  0  0  0  0  0
    6.0186   -3.1290   -0.7525 H   0  0  0  0  0  0  0  0  0  0  0  0
    8.2104   -2.0775   -0.7019 H   0  0  0  0  0  0  0  0  0  0  0  0
    9.9893   -0.9000    0.3180 H   0  0  0  0  0  0  0  0  0  0  0  0
   10.6009    0.6469   -0.3171 H   0  0  0  0  0  0  0  0  0  0  0  0
    9.8436   -0.5247   -1.4235 H   0  0  0  0  0  0  0  0  0  0  0  0
    6.3878    1.6712    0.2492 H   0  0  0  0  0  0  0  0  0  0  0  0
    4.1725    0.6134    0.1998 H   0  0  0  0  0  0  0  0  0  0  0  0
   -3.2298   -2.8630    0.1523 H   0  0  0  0  0  0  0  0  0  0  0  0
   -2.2618   -0.1578   -0.9065 H   0  0  0  0  0  0  0  0  0  0  0  0
   -3.7838    1.5464   -1.1720 H   0  0  0  0  0  0  0  0  0  0  0  0
   -6.0960    2.4034   -1.2419 H   0  0  0  0  0  0  0  0  0  0  0  0
   -9.3258   -0.0278    0.5767 H   0  0  0  0  0  0  0  0  0  0  0  0
  -10.1905    1.0032   -0.5892 H   0  0  0  0  0  0  0  0  0  0  0  0
   -9.4247   -0.5057   -1.1428 H   0  0  0  0  0  0  0  0  0  0  0  0
   -7.5425   -1.4427   -0.0635 H   0  0  0  0  0  0  0  0  0  0  0  0
   -5.2767   -2.2862    0.0061 H   0  0  0  0  0  0  0  0  0  0  0  0
   -1.0743   -0.5610    2.1232 H   0  0  0  0  0  0  0  0  0  0  0  0
   -1.3095    1.8500    2.6028 H   0  0  0  0  0  0  0  0  0  0  0  0
  1  2  1  0  0  0  0
  2  3  1  0  0  0  0
  3  4  2  0  0  0  0
  3  5  1  0  0  0  0
  5  6  2  0  0  0  0
  6  7  1  0  0  0  0
  7  8  2  0  0  0  0
  8  9  1  0  0  0  0
  9 10  2  0  0  0  0
 10 11  1  0  0  0  0
 11 12  2  0  0  0  0
 12 13  1  0  0  0  0
 13 14  2  0  0  0  0
 14 15  1  0  0  0  0
 15 16  2  0  0  0  0
 16 17  1  0  0  0  0
 17 18  1  0  0  0  0
 16 19  1  0  0  0  0
 19 20  2  0  0  0  0
 10 21  1  0  0  0  0
 21 22  1  0  0  0  0
 22 23  1  0  0  0  0
 22 24  1  0  0  0  0
 22 25  1  0  0  0  0
 25 26  2  0  0  0  0
 26 27  1  0  0  0  0
 27 28  2  0  0  0  0
 28 29  1  0  0  0  0
 29 30  2  0  0  0  0
 30 31  1  0  0  0  0
 31 32  2  0  0  0  0
 32 33  1  0  0  0  0
 33 34  1  0  0  0  0
 32 35  1  0  0  0  0
 35 36  2  0  0  0  0
  8 37  1  0  0  0  0
 37 38  2  0  0  0  0
 38  5  1  0  0  0  0
 26  9  1  0  0  0  0
 36 29  1  0  0  0  0
 20 13  1  0  0  0  0
  1 39  1  0  0  0  0
  1 40  1  0  0  0  0
  1 41  1  0  0  0  0
  6 42  1  0  0  0  0
  7 43  1  0  0  0  0
 11 44  1  0  0  0  0
 12 45  1  0  0  0  0
 14 46  1  0  0  0  0
 15 47  1  0  0  0  0
 18 48  1  0  0  0  0
 18 49  1  0  0  0  0
 18 50  1  0  0  0  0
 19 51  1  0  0  0  0
 20 52  1  0  0  0  0
 27 53  1  0  0  0  0
 28 54  1  0  0  0  0
 30 55  1  0  0  0  0
 31 56  1  0  0  0  0
 34 57  1  0  0  0  0
 34 58  1  0  0  0  0
 34 59  1  0  0  0  0
 35 60  1  0  0  0  0
 36 61  1  0  0  0  0
 37 62  1  0  0  0  0
 38 63  1  0  0  0  0
M  CHG  1  22  -1
M  CHG  1  25   1
M  END
