
  xtb     03022212513D
 energy: -112.655296488953 gnorm: 0.000137938878 xtb: 6.4.1 (afa7bdf)
 70 79  0     0  0            999 V2000
    6.7992   -3.5001   -2.5720 C   0  0  0  0  0  0  0  0  0  0  0  0
    5.4911   -3.6434   -2.1403 C   0  0  0  0  0  0  0  0  0  0  0  0
    4.9655   -2.7701   -1.2062 C   0  0  0  0  0  0  0  0  0  0  0  0
    5.7498   -1.7360   -0.7039 C   0  0  0  0  0  0  0  0  0  0  0  0
    5.2186   -0.8460    0.2413 N   0  0  0  0  0  0  0  0  0  0  0  0
    5.7960   -0.5100    1.4504 C   0  0  0  0  0  0  0  0  0  0  0  0
    6.9715   -0.9698    2.0265 C   0  0  0  0  0  0  0  0  0  0  0  0
    7.3119   -0.4820    3.2736 C   0  0  0  0  0  0  0  0  0  0  0  0
    6.5035    0.4347    3.9424 C   0  0  0  0  0  0  0  0  0  0  0  0
    5.3211    0.8777    3.3846 C   0  0  0  0  0  0  0  0  0  0  0  0
    4.9575    0.4019    2.1318 C   0  0  0  0  0  0  0  0  0  0  0  0
    3.8236    0.6272    1.2794 C   0  0  0  0  0  0  0  0  0  0  0  0
    2.6953    1.4241    1.3892 C   0  0  0  0  0  0  0  0  0  0  0  0
    1.7702    1.4383    0.3528 C   0  0  0  0  0  0  0  0  0  0  0  0
    0.5650    2.2748    0.4465 C   0  0  0  0  0  0  0  0  0  0  0  0
    0.6257    3.5508    1.0049 C   0  0  0  0  0  0  0  0  0  0  0  0
   -0.5084    4.3361    1.0921 C   0  0  0  0  0  0  0  0  0  0  0  0
   -1.7251    3.8662    0.6322 C   0  0  0  0  0  0  0  0  0  0  0  0
   -1.7981    2.5975    0.0661 C   0  0  0  0  0  0  0  0  0  0  0  0
   -3.0275    2.1166   -0.4162 N   0  0  0  0  0  0  0  0  0  0  0  0
   -3.8691    2.7944   -1.2673 C   0  0  0  0  0  0  0  0  0  0  0  0
   -3.7462    4.0240   -1.8957 C   0  0  0  0  0  0  0  0  0  0  0  0
   -4.7905    4.3989   -2.7240 C   0  0  0  0  0  0  0  0  0  0  0  0
   -5.8849    3.5506   -2.8981 C   0  0  0  0  0  0  0  0  0  0  0  0
   -6.0046    2.3673   -2.3296 N   0  0  0  0  0  0  0  0  0  0  0  0
   -5.0141    1.9949   -1.5327 C   0  0  0  0  0  0  0  0  0  0  0  0
   -4.8370    0.7838   -0.7926 C   0  0  0  0  0  0  0  0  0  0  0  0
   -5.5953   -0.3675   -0.6177 C   0  0  0  0  0  0  0  0  0  0  0  0
   -7.1358   -0.7169   -1.3416 S   0  0  0  0  0  0  0  0  0  0  0  0
   -7.1836   -2.2656   -0.5215 C   0  0  0  0  0  0  0  0  0  0  0  0
   -8.2021   -3.1998   -0.6139 C   0  0  0  0  0  0  0  0  0  0  0  0
   -8.0857   -4.3768    0.0999 C   0  0  0  0  0  0  0  0  0  0  0  0
   -6.9682   -4.6176    0.8938 C   0  0  0  0  0  0  0  0  0  0  0  0
   -5.9542   -3.6870    0.9863 C   0  0  0  0  0  0  0  0  0  0  0  0
   -6.0487   -2.4923    0.2773 C   0  0  0  0  0  0  0  0  0  0  0  0
   -5.1268   -1.3886    0.2239 C   0  0  0  0  0  0  0  0  0  0  0  0
   -3.9071   -1.2381    0.8941 C   0  0  0  0  0  0  0  0  0  0  0  0
   -3.1400   -0.1057    0.7355 C   0  0  0  0  0  0  0  0  0  0  0  0
   -3.5997    0.8960   -0.1187 C   0  0  0  0  0  0  0  0  0  0  0  0
   -0.6578    1.8109   -0.0290 C   0  0  0  0  0  0  0  0  0  0  0  0
    1.9997    0.6608   -0.7913 C   0  0  0  0  0  0  0  0  0  0  0  0
    3.1174   -0.1363   -0.9234 C   0  0  0  0  0  0  0  0  0  0  0  0
    4.0255   -0.1661    0.1260 C   0  0  0  0  0  0  0  0  0  0  0  0
    7.0621   -1.5892   -1.1431 C   0  0  0  0  0  0  0  0  0  0  0  0
    7.5819   -2.4737   -2.0699 C   0  0  0  0  0  0  0  0  0  0  0  0
    7.2076   -4.1866   -3.2981 H   0  0  0  0  0  0  0  0  0  0  0  0
    4.8785   -4.4445   -2.5264 H   0  0  0  0  0  0  0  0  0  0  0  0
    3.9531   -2.8911   -0.8505 H   0  0  0  0  0  0  0  0  0  0  0  0
    7.5958   -1.6931    1.5240 H   0  0  0  0  0  0  0  0  0  0  0  0
    8.2238   -0.8218    3.7420 H   0  0  0  0  0  0  0  0  0  0  0  0
    6.8064    0.7941    4.9145 H   0  0  0  0  0  0  0  0  0  0  0  0
    4.6867    1.5760    3.9095 H   0  0  0  0  0  0  0  0  0  0  0  0
    2.5310    2.0116    2.2798 H   0  0  0  0  0  0  0  0  0  0  0  0
    1.5723    3.9351    1.3533 H   0  0  0  0  0  0  0  0  0  0  0  0
   -0.4474    5.3229    1.5268 H   0  0  0  0  0  0  0  0  0  0  0  0
   -2.6177    4.4668    0.7205 H   0  0  0  0  0  0  0  0  0  0  0  0
   -2.8796    4.6546   -1.7569 H   0  0  0  0  0  0  0  0  0  0  0  0
   -4.7597    5.3453   -3.2415 H   0  0  0  0  0  0  0  0  0  0  0  0
   -6.7053    3.8405   -3.5406 H   0  0  0  0  0  0  0  0  0  0  0  0
   -9.0645   -3.0043   -1.2319 H   0  0  0  0  0  0  0  0  0  0  0  0
   -8.8695   -5.1170    0.0411 H   0  0  0  0  0  0  0  0  0  0  0  0
   -6.8963   -5.5446    1.4433 H   0  0  0  0  0  0  0  0  0  0  0  0
   -5.0893   -3.8785    1.6037 H   0  0  0  0  0  0  0  0  0  0  0  0
   -3.5688   -2.0251    1.5506 H   0  0  0  0  0  0  0  0  0  0  0  0
   -2.2103    0.0092    1.2710 H   0  0  0  0  0  0  0  0  0  0  0  0
   -0.7288    0.8288   -0.4722 H   0  0  0  0  0  0  0  0  0  0  0  0
    1.2930    0.7098   -1.6064 H   0  0  0  0  0  0  0  0  0  0  0  0
    3.2849   -0.7069   -1.8245 H   0  0  0  0  0  0  0  0  0  0  0  0
    7.6618   -0.7745   -0.7656 H   0  0  0  0  0  0  0  0  0  0  0  0
    8.6009   -2.3558   -2.4075 H   0  0  0  0  0  0  0  0  0  0  0  0
  1  2  2  0  0  0  0
  2  3  1  0  0  0  0
  3  4  2  0  0  0  0
  4  5  1  0  0  0  0
  5  6  1  0  0  0  0
  6  7  2  0  0  0  0
  7  8  1  0  0  0  0
  8  9  2  0  0  0  0
  9 10  1  0  0  0  0
 10 11  2  0  0  0  0
 11 12  1  0  0  0  0
 12 13  2  0  0  0  0
 13 14  1  0  0  0  0
 14 15  1  0  0  0  0
 15 16  2  0  0  0  0
 16 17  1  0  0  0  0
 17 18  2  0  0  0  0
 18 19  1  0  0  0  0
 19 20  1  0  0  0  0
 20 21  1  0  0  0  0
 21 22  2  0  0  0  0
 22 23  1  0  0  0  0
 23 24  2  0  0  0  0
 24 25  1  0  0  0  0
 25 26  2  0  0  0  0
 26 27  1  0  0  0  0
 27 28  2  0  0  0  0
 28 29  1  0  0  0  0
 29 30  1  0  0  0  0
 30 31  2  0  0  0  0
 31 32  1  0  0  0  0
 32 33  2  0  0  0  0
 33 34  1  0  0  0  0
 34 35  2  0  0  0  0
 35 36  1  0  0  0  0
 36 37  2  0  0  0  0
 37 38  1  0  0  0  0
 38 39  2  0  0  0  0
 19 40  2  0  0  0  0
 14 41  2  0  0  0  0
 41 42  1  0  0  0  0
 42 43  2  0  0  0  0
  4 44  1  0  0  0  0
 44 45  2  0  0  0  0
 45  1  1  0  0  0  0
 43  5  1  0  0  0  0
 11  6  1  0  0  0  0
 43 12  1  0  0  0  0
 40 15  1  0  0  0  0
 39 20  1  0  0  0  0
 26 21  1  0  0  0  0
 39 27  1  0  0  0  0
 36 28  1  0  0  0  0
 35 30  1  0  0  0  0
  1 46  1  0  0  0  0
  2 47  1  0  0  0  0
  3 48  1  0  0  0  0
  7 49  1  0  0  0  0
  8 50  1  0  0  0  0
  9 51  1  0  0  0  0
 10 52  1  0  0  0  0
 13 53  1  0  0  0  0
 16 54  1  0  0  0  0
 17 55  1  0  0  0  0
 18 56  1  0  0  0  0
 22 57  1  0  0  0  0
 23 58  1  0  0  0  0
 24 59  1  0  0  0  0
 31 60  1  0  0  0  0
 32 61  1  0  0  0  0
 33 62  1  0  0  0  0
 34 63  1  0  0  0  0
 37 64  1  0  0  0  0
 38 65  1  0  0  0  0
 40 66  1  0  0  0  0
 41 67  1  0  0  0  0
 42 68  1  0  0  0  0
 44 69  1  0  0  0  0
 45 70  1  0  0  0  0
M  END
