
  xtb     03022216113D
 energy: -107.736435377924 gnorm: 0.000085707127 xtb: 6.4.1 (afa7bdf)
 82 86  0     0  0            999 V2000
  -11.6574   -2.8890   -1.3072 C   0  0  0  0  0  0  0  0  0  0  0  0
  -10.5391   -1.9236   -1.6812 C   0  0  0  0  0  0  0  0  0  0  0  0
  -10.3340   -0.8589   -0.6055 C   0  0  0  0  0  0  0  0  0  0  0  0
   -9.2742    0.1831   -0.9686 C   0  0  0  0  0  0  0  0  0  0  0  0
   -7.8530   -0.3752   -0.9345 C   0  0  0  0  0  0  0  0  0  0  0  0
   -6.7899    0.6340   -1.3702 C   0  0  0  0  0  0  0  0  0  0  0  0
   -6.6859    1.8905   -0.5024 C   0  0  0  0  0  0  0  0  0  0  0  0
   -6.3793    1.5801    0.9665 C   0  0  0  0  0  0  0  0  0  0  0  0
   -5.2942    0.6938    1.1305 O   0  0  0  0  0  0  0  0  0  0  0  0
   -4.0247    1.1173    0.8903 C   0  0  0  0  0  0  0  0  0  0  0  0
   -3.6357    2.4226    0.7064 C   0  0  0  0  0  0  0  0  0  0  0  0
   -2.2940    2.7370    0.5022 C   0  0  0  0  0  0  0  0  0  0  0  0
   -1.2993    1.7774    0.4649 C   0  0  0  0  0  0  0  0  0  0  0  0
    0.1024    2.1144    0.2556 C   0  0  0  0  0  0  0  0  0  0  0  0
    0.5317    3.4234    0.1086 C   0  0  0  0  0  0  0  0  0  0  0  0
    1.8724    3.7363   -0.0995 C   0  0  0  0  0  0  0  0  0  0  0  0
    2.8099    2.7425   -0.1696 C   0  0  0  0  0  0  0  0  0  0  0  0
    2.4264    1.3972   -0.0236 C   0  0  0  0  0  0  0  0  0  0  0  0
    3.4061    0.3640   -0.1012 C   0  0  0  0  0  0  0  0  0  0  0  0
    4.6764    0.7858   -0.3437 O   0  0  0  0  0  0  0  0  0  0  0  0
    5.7330   -0.1500   -0.3866 C   0  0  0  0  0  0  0  0  0  0  0  0
    6.1821   -0.5843    1.0120 C   0  0  0  0  0  0  0  0  0  0  0  0
    7.2786   -1.6562    0.9859 C   0  0  0  0  0  0  0  0  0  0  0  0
    8.7007   -1.1157    1.1463 C   0  0  0  0  0  0  0  0  0  0  0  0
    9.1575   -0.2174   -0.0007 C   0  0  0  0  0  0  0  0  0  0  0  0
   10.6299    0.1855    0.1076 C   0  0  0  0  0  0  0  0  0  0  0  0
   11.5995   -0.9521   -0.2066 C   0  0  0  0  0  0  0  0  0  0  0  0
   13.0487   -0.4844   -0.1496 C   0  0  0  0  0  0  0  0  0  0  0  0
    3.0103   -0.9443    0.0463 C   0  0  0  0  0  0  0  0  0  0  0  0
    1.6715   -1.2559    0.2711 C   0  0  0  0  0  0  0  0  0  0  0  0
    0.6843   -0.2920    0.3567 C   0  0  0  0  0  0  0  0  0  0  0  0
   -0.7125   -0.6267    0.5978 C   0  0  0  0  0  0  0  0  0  0  0  0
   -1.1357   -1.9322    0.7869 C   0  0  0  0  0  0  0  0  0  0  0  0
   -2.4752   -2.2451    1.0025 C   0  0  0  0  0  0  0  0  0  0  0  0
   -3.4179   -1.2544    1.0350 C   0  0  0  0  0  0  0  0  0  0  0  0
   -3.0384    0.0884    0.8573 C   0  0  0  0  0  0  0  0  0  0  0  0
   -1.6759    0.4175    0.6389 C   0  0  0  0  0  0  0  0  0  0  0  0
    1.0639    1.0690    0.1985 C   0  0  0  0  0  0  0  0  0  0  0  0
  -12.5969   -2.3553   -1.1788 H   0  0  0  0  0  0  0  0  0  0  0  0
  -11.7925   -3.6390   -2.0832 H   0  0  0  0  0  0  0  0  0  0  0  0
  -11.4245   -3.3986   -0.3746 H   0  0  0  0  0  0  0  0  0  0  0  0
  -10.7832   -1.4353   -2.6276 H   0  0  0  0  0  0  0  0  0  0  0  0
   -9.6167   -2.4879   -1.8261 H   0  0  0  0  0  0  0  0  0  0  0  0
  -10.0551   -1.3436    0.3333 H   0  0  0  0  0  0  0  0  0  0  0  0
  -11.2860   -0.3473   -0.4409 H   0  0  0  0  0  0  0  0  0  0  0  0
   -9.3528    1.0113   -0.2611 H   0  0  0  0  0  0  0  0  0  0  0  0
   -9.4841    0.5778   -1.9659 H   0  0  0  0  0  0  0  0  0  0  0  0
   -7.6265   -0.7356    0.0701 H   0  0  0  0  0  0  0  0  0  0  0  0
   -7.7879   -1.2309   -1.6089 H   0  0  0  0  0  0  0  0  0  0  0  0
   -5.8192    0.1325   -1.3662 H   0  0  0  0  0  0  0  0  0  0  0  0
   -6.9953    0.9468   -2.3969 H   0  0  0  0  0  0  0  0  0  0  0  0
   -7.6139    2.4622   -0.5408 H   0  0  0  0  0  0  0  0  0  0  0  0
   -5.8908    2.5163   -0.9133 H   0  0  0  0  0  0  0  0  0  0  0  0
   -6.2162    2.5106    1.5253 H   0  0  0  0  0  0  0  0  0  0  0  0
   -7.2234    1.0573    1.4232 H   0  0  0  0  0  0  0  0  0  0  0  0
   -4.3512    3.2299    0.7259 H   0  0  0  0  0  0  0  0  0  0  0  0
   -2.0545    3.7796    0.3697 H   0  0  0  0  0  0  0  0  0  0  0  0
   -0.1721    4.2387    0.1539 H   0  0  0  0  0  0  0  0  0  0  0  0
    2.1644    4.7709   -0.2076 H   0  0  0  0  0  0  0  0  0  0  0  0
    3.8514    2.9661   -0.3356 H   0  0  0  0  0  0  0  0  0  0  0  0
    5.4532   -1.0231   -0.9893 H   0  0  0  0  0  0  0  0  0  0  0  0
    6.5398    0.3739   -0.9042 H   0  0  0  0  0  0  0  0  0  0  0  0
    6.5283    0.2949    1.5579 H   0  0  0  0  0  0  0  0  0  0  0  0
    5.3070   -0.9667    1.5417 H   0  0  0  0  0  0  0  0  0  0  0  0
    7.2130   -2.2208    0.0527 H   0  0  0  0  0  0  0  0  0  0  0  0
    7.0996   -2.3588    1.8028 H   0  0  0  0  0  0  0  0  0  0  0  0
    9.3748   -1.9710    1.2212 H   0  0  0  0  0  0  0  0  0  0  0  0
    8.7690   -0.5604    2.0847 H   0  0  0  0  0  0  0  0  0  0  0  0
    8.5534    0.6914   -0.0024 H   0  0  0  0  0  0  0  0  0  0  0  0
    8.9955   -0.7315   -0.9513 H   0  0  0  0  0  0  0  0  0  0  0  0
   10.8274    0.5617    1.1141 H   0  0  0  0  0  0  0  0  0  0  0  0
   10.8208    1.0031   -0.5921 H   0  0  0  0  0  0  0  0  0  0  0  0
   11.3837   -1.3422   -1.2041 H   0  0  0  0  0  0  0  0  0  0  0  0
   11.4612   -1.7671    0.5059 H   0  0  0  0  0  0  0  0  0  0  0  0
   13.2889   -0.1085    0.8427 H   0  0  0  0  0  0  0  0  0  0  0  0
   13.2212    0.3143   -0.8679 H   0  0  0  0  0  0  0  0  0  0  0  0
   13.7258   -1.3041   -0.3789 H   0  0  0  0  0  0  0  0  0  0  0  0
    3.7173   -1.7571   -0.0094 H   0  0  0  0  0  0  0  0  0  0  0  0
    1.4278   -2.3006    0.3771 H   0  0  0  0  0  0  0  0  0  0  0  0
   -0.4277   -2.7450    0.7703 H   0  0  0  0  0  0  0  0  0  0  0  0
   -2.7627   -3.2772    1.1417 H   0  0  0  0  0  0  0  0  0  0  0  0
   -4.4599   -1.4787    1.1967 H   0  0  0  0  0  0  0  0  0  0  0  0
  1  2  1  0  0  0  0
  2  3  1  0  0  0  0
  3  4  1  0  0  0  0
  4  5  1  0  0  0  0
  5  6  1  0  0  0  0
  6  7  1  0  0  0  0
  7  8  1  0  0  0  0
  8  9  1  0  0  0  0
  9 10  1  0  0  0  0
 10 11  2  0  0  0  0
 11 12  1  0  0  0  0
 12 13  2  0  0  0  0
 13 14  1  0  0  0  0
 14 15  2  0  0  0  0
 15 16  1  0  0  0  0
 16 17  2  0  0  0  0
 17 18  1  0  0  0  0
 18 19  1  0  0  0  0
 19 20  1  0  0  0  0
 20 21  1  0  0  0  0
 21 22  1  0  0  0  0
 22 23  1  0  0  0  0
 23 24  1  0  0  0  0
 24 25  1  0  0  0  0
 25 26  1  0  0  0  0
 26 27  1  0  0  0  0
 27 28  1  0  0  0  0
 19 29  2  0  0  0  0
 29 30  1  0  0  0  0
 30 31  2  0  0  0  0
 31 32  1  0  0  0  0
 32 33  1  0  0  0  0
 33 34  2  0  0  0  0
 34 35  1  0  0  0  0
 35 36  2  0  0  0  0
 36 37  1  0  0  0  0
 31 38  1  0  0  0  0
 36 10  1  0  0  0  0
 37 13  1  0  0  0  0
 38 14  1  0  0  0  0
 38 18  2  0  0  0  0
 37 32  2  0  0  0  0
  1 39  1  0  0  0  0
  1 40  1  0  0  0  0
  1 41  1  0  0  0  0
  2 42  1  0  0  0  0
  2 43  1  0  0  0  0
  3 44  1  0  0  0  0
  3 45  1  0  0  0  0
  4 46  1  0  0  0  0
  4 47  1  0  0  0  0
  5 48  1  0  0  0  0
  5 49  1  0  0  0  0
  6 50  1  0  0  0  0
  6 51  1  0  0  0  0
  7 52  1  0  0  0  0
  7 53  1  0  0  0  0
  8 54  1  0  0  0  0
  8 55  1  0  0  0  0
 11 56  1  0  0  0  0
 12 57  1  0  0  0  0
 15 58  1  0  0  0  0
 16 59  1  0  0  0  0
 17 60  1  0  0  0  0
 21 61  1  0  0  0  0
 21 62  1  0  0  0  0
 22 63  1  0  0  0  0
 22 64  1  0  0  0  0
 23 65  1  0  0  0  0
 23 66  1  0  0  0  0
 24 67  1  0  0  0  0
 24 68  1  0  0  0  0
 25 69  1  0  0  0  0
 25 70  1  0  0  0  0
 26 71  1  0  0  0  0
 26 72  1  0  0  0  0
 27 73  1  0  0  0  0
 27 74  1  0  0  0  0
 28 75  1  0  0  0  0
 28 76  1  0  0  0  0
 28 77  1  0  0  0  0
 29 78  1  0  0  0  0
 30 79  1  0  0  0  0
 33 80  1  0  0  0  0
 34 81  1  0  0  0  0
 35 82  1  0  0  0  0
M  END
