
  xtb     03022214373D
 energy: -74.299142647292 gnorm: 0.000143530116 xtb: 6.4.1 (afa7bdf)
 39 43  0     0  0            999 V2000
   -2.8223    1.9312    2.2724 F   0  0  0  0  0  0  0  0  0  0  0  0
   -2.8725    1.5973    0.9400 B   0  0  0  0  0  4  0  0  0  0  0  0
   -3.1014    2.7156    0.1694 F   0  0  0  0  0  0  0  0  0  0  0  0
   -3.8880    0.6067    0.7033 O   0  0  0  0  0  0  0  0  0  0  0  0
   -3.6736   -0.5701    0.1592 C   0  0  0  0  0  0  0  0  0  0  0  0
   -4.7676   -1.4202   -0.0660 C   0  0  0  0  0  0  0  0  0  0  0  0
   -4.5820   -2.6624   -0.6225 C   0  0  0  0  0  0  0  0  0  0  0  0
   -3.3047   -3.1072   -0.9714 C   0  0  0  0  0  0  0  0  0  0  0  0
   -2.2204   -2.2949   -0.7594 C   0  0  0  0  0  0  0  0  0  0  0  0
   -2.3838   -1.0177   -0.1982 C   0  0  0  0  0  0  0  0  0  0  0  0
   -1.2463   -0.1698    0.0240 C   0  0  0  0  0  0  0  0  0  0  0  0
   -0.0454   -0.6831   -0.2757 N   0  0  0  0  0  0  0  0  0  0  0  0
    1.0413    0.0218   -0.1055 C   0  0  0  0  0  0  0  0  0  0  0  0
    2.3076   -0.6662   -0.3711 C   0  0  0  0  0  0  0  0  0  0  0  0
    2.4111   -1.4825   -1.4965 C   0  0  0  0  0  0  0  0  0  0  0  0
    3.5901   -2.1504   -1.7653 C   0  0  0  0  0  0  0  0  0  0  0  0
    4.6690   -2.0303   -0.9036 C   0  0  0  0  0  0  0  0  0  0  0  0
    4.5617   -1.2467    0.2340 C   0  0  0  0  0  0  0  0  0  0  0  0
    3.3897   -0.5637    0.5019 C   0  0  0  0  0  0  0  0  0  0  0  0
    0.9710    1.3857    0.3187 C   0  0  0  0  0  0  0  0  0  0  0  0
    2.0802    2.2450    0.3639 C   0  0  0  0  0  0  0  0  0  0  0  0
    1.9248    3.5286    0.8226 C   0  0  0  0  0  0  0  0  0  0  0  0
    3.2814    4.5911    0.8817 Cl  0  0  0  0  0  0  0  0  0  0  0  0
    0.6710    3.9930    1.2434 C   0  0  0  0  0  0  0  0  0  0  0  0
   -0.4307    3.1830    1.1668 C   0  0  0  0  0  0  0  0  0  0  0  0
   -0.3145    1.8680    0.6804 C   0  0  0  0  0  0  0  0  0  0  0  0
   -1.4032    1.0563    0.5384 N   0  0  0  0  0  4  0  0  0  0  0  0
   -5.7473   -1.0657    0.2111 H   0  0  0  0  0  0  0  0  0  0  0  0
   -5.4343   -3.3041   -0.7904 H   0  0  0  0  0  0  0  0  0  0  0  0
   -3.1755   -4.0872   -1.4037 H   0  0  0  0  0  0  0  0  0  0  0  0
   -1.2210   -2.6112   -1.0118 H   0  0  0  0  0  0  0  0  0  0  0  0
    1.5624   -1.5683   -2.1571 H   0  0  0  0  0  0  0  0  0  0  0  0
    3.6680   -2.7699   -2.6459 H   0  0  0  0  0  0  0  0  0  0  0  0
    5.5892   -2.5547   -1.1126 H   0  0  0  0  0  0  0  0  0  0  0  0
    5.3939   -1.1691    0.9175 H   0  0  0  0  0  0  0  0  0  0  0  0
    3.2979    0.0172    1.4078 H   0  0  0  0  0  0  0  0  0  0  0  0
    3.0414    1.8967    0.0216 H   0  0  0  0  0  0  0  0  0  0  0  0
    0.5768    5.0023    1.6118 H   0  0  0  0  0  0  0  0  0  0  0  0
   -1.3939    3.5557    1.4666 H   0  0  0  0  0  0  0  0  0  0  0  0
  1  2  1  0  0  0  0
  2  3  1  0  0  0  0
  2  4  1  0  0  0  0
  4  5  1  0  0  0  0
  5  6  2  0  0  0  0
  6  7  1  0  0  0  0
  7  8  2  0  0  0  0
  8  9  1  0  0  0  0
  9 10  2  0  0  0  0
 10 11  1  0  0  0  0
 11 12  2  0  0  0  0
 12 13  1  0  0  0  0
 13 14  1  0  0  0  0
 14 15  2  0  0  0  0
 15 16  1  0  0  0  0
 16 17  2  0  0  0  0
 17 18  1  0  0  0  0
 18 19  2  0  0  0  0
 13 20  2  0  0  0  0
 20 21  1  0  0  0  0
 21 22  2  0  0  0  0
 22 23  1  0  0  0  0
 22 24  1  0  0  0  0
 24 25  2  0  0  0  0
 25 26  1  0  0  0  0
 26 27  2  0  0  0  0
 27  2  1  0  0  0  0
 10  5  1  0  0  0  0
 27 11  1  0  0  0  0
 19 14  1  0  0  0  0
 26 20  1  0  0  0  0
  6 28  1  0  0  0  0
  7 29  1  0  0  0  0
  8 30  1  0  0  0  0
  9 31  1  0  0  0  0
 15 32  1  0  0  0  0
 16 33  1  0  0  0  0
 17 34  1  0  0  0  0
 18 35  1  0  0  0  0
 19 36  1  0  0  0  0
 21 37  1  0  0  0  0
 24 38  1  0  0  0  0
 25 39  1  0  0  0  0
M  CHG  1   2  -1
M  CHG  1  27   1
M  END
