
  xtb     03022214593D
 energy: -120.692688624350 gnorm: 0.000070424663 xtb: 6.4.1 (afa7bdf)
 74 81  0     0  0            999 V2000
   -2.4540    8.3405   -1.6751 N   0  0  0  0  0  0  0  0  0  0  0  0
   -1.8507    7.3804   -1.5094 C   0  0  0  0  0  0  0  0  0  0  0  0
   -1.0719    6.2137   -1.3120 C   0  0  0  0  0  0  0  0  0  0  0  0
   -1.6881    5.0740   -1.0403 N   0  0  0  0  0  0  0  0  0  0  0  0
   -0.9465    3.9854   -0.8452 C   0  0  0  0  0  0  0  0  0  0  0  0
   -1.5965    2.7308   -0.6000 C   0  0  0  0  0  0  0  0  0  0  0  0
   -2.9949    2.6283   -0.6011 C   0  0  0  0  0  0  0  0  0  0  0  0
   -3.6185    1.4199   -0.4307 C   0  0  0  0  0  0  0  0  0  0  0  0
   -2.8551    0.2476   -0.2922 C   0  0  0  0  0  0  0  0  0  0  0  0
   -3.4546   -0.9932   -0.1549 N   0  0  0  0  0  0  0  0  0  0  0  0
   -2.7618   -2.0457    0.4727 C   0  0  0  0  0  0  0  0  0  0  0  0
   -2.7634   -3.3196   -0.0902 C   0  0  0  0  0  0  0  0  0  0  0  0
   -2.0629   -4.3464    0.5145 C   0  0  0  0  0  0  0  0  0  0  0  0
   -1.3494   -4.1181    1.6789 C   0  0  0  0  0  0  0  0  0  0  0  0
   -1.3535   -2.8550    2.2478 C   0  0  0  0  0  0  0  0  0  0  0  0
   -2.0602   -1.8256    1.6573 C   0  0  0  0  0  0  0  0  0  0  0  0
   -4.7180   -1.2623   -0.7061 C   0  0  0  0  0  0  0  0  0  0  0  0
   -5.6183   -2.0662   -0.0096 C   0  0  0  0  0  0  0  0  0  0  0  0
   -6.8577   -2.3494   -0.5501 C   0  0  0  0  0  0  0  0  0  0  0  0
   -7.2177   -1.8339   -1.7845 C   0  0  0  0  0  0  0  0  0  0  0  0
   -6.3240   -1.0374   -2.4814 C   0  0  0  0  0  0  0  0  0  0  0  0
   -5.0789   -0.7551   -1.9528 C   0  0  0  0  0  0  0  0  0  0  0  0
   -1.4678    0.3490   -0.2839 C   0  0  0  0  0  0  0  0  0  0  0  0
   -0.8184    1.5734   -0.3886 C   0  0  0  0  0  0  0  0  0  0  0  0
    0.6286    1.6751   -0.3117 C   0  0  0  0  0  0  0  0  0  0  0  0
    1.4125    0.6006    0.0920 C   0  0  0  0  0  0  0  0  0  0  0  0
    2.8018    0.6679    0.1105 C   0  0  0  0  0  0  0  0  0  0  0  0
    3.5392   -0.4388    0.4968 N   0  0  0  0  0  0  0  0  0  0  0  0
    4.8089   -0.3056    1.0822 C   0  0  0  0  0  0  0  0  0  0  0  0
    5.8115   -1.2225    0.7725 C   0  0  0  0  0  0  0  0  0  0  0  0
    7.0592   -1.1094    1.3548 C   0  0  0  0  0  0  0  0  0  0  0  0
    7.3256   -0.0829    2.2461 C   0  0  0  0  0  0  0  0  0  0  0  0
    6.3303    0.8281    2.5592 C   0  0  0  0  0  0  0  0  0  0  0  0
    5.0767    0.7186    1.9883 C   0  0  0  0  0  0  0  0  0  0  0  0
    2.9841   -1.7283    0.3929 C   0  0  0  0  0  0  0  0  0  0  0  0
    2.2947   -2.1129   -0.7563 C   0  0  0  0  0  0  0  0  0  0  0  0
    1.7225   -3.3675   -0.8360 C   0  0  0  0  0  0  0  0  0  0  0  0
    1.8426   -4.2601    0.2165 C   0  0  0  0  0  0  0  0  0  0  0  0
    2.5453   -3.8901    1.3508 C   0  0  0  0  0  0  0  0  0  0  0  0
    3.1113   -2.6326    1.4445 C   0  0  0  0  0  0  0  0  0  0  0  0
    3.4264    1.8666   -0.2760 C   0  0  0  0  0  0  0  0  0  0  0  0
    2.6683    2.9570   -0.6141 C   0  0  0  0  0  0  0  0  0  0  0  0
    1.2676    2.8933   -0.6234 C   0  0  0  0  0  0  0  0  0  0  0  0
    0.4761    4.0550   -0.9076 C   0  0  0  0  0  0  0  0  0  0  0  0
    1.0871    5.2016   -1.1998 N   0  0  0  0  0  0  0  0  0  0  0  0
    0.3414    6.2750   -1.4099 C   0  0  0  0  0  0  0  0  0  0  0  0
    0.9808    7.4976   -1.7313 C   0  0  0  0  0  0  0  0  0  0  0  0
    1.4695    8.5010   -1.9914 N   0  0  0  0  0  0  0  0  0  0  0  0
   -3.5698    3.5314   -0.7344 H   0  0  0  0  0  0  0  0  0  0  0  0
   -4.6960    1.3613   -0.4078 H   0  0  0  0  0  0  0  0  0  0  0  0
   -3.3108   -3.4953   -1.0047 H   0  0  0  0  0  0  0  0  0  0  0  0
   -2.0679   -5.3289    0.0663 H   0  0  0  0  0  0  0  0  0  0  0  0
   -0.7963   -4.9190    2.1446 H   0  0  0  0  0  0  0  0  0  0  0  0
   -0.8077   -2.6712    3.1613 H   0  0  0  0  0  0  0  0  0  0  0  0
   -2.0708   -0.8429    2.1060 H   0  0  0  0  0  0  0  0  0  0  0  0
   -5.3380   -2.4633    0.9551 H   0  0  0  0  0  0  0  0  0  0  0  0
   -7.5489   -2.9710   -0.0007 H   0  0  0  0  0  0  0  0  0  0  0  0
   -8.1881   -2.0538   -2.2024 H   0  0  0  0  0  0  0  0  0  0  0  0
   -6.5935   -0.6400   -3.4485 H   0  0  0  0  0  0  0  0  0  0  0  0
   -4.3772   -0.1473   -2.5051 H   0  0  0  0  0  0  0  0  0  0  0  0
   -0.8931   -0.5600   -0.2154 H   0  0  0  0  0  0  0  0  0  0  0  0
    0.9443   -0.3110    0.4252 H   0  0  0  0  0  0  0  0  0  0  0  0
    5.6037   -2.0194    0.0735 H   0  0  0  0  0  0  0  0  0  0  0  0
    7.8299   -1.8235    1.1056 H   0  0  0  0  0  0  0  0  0  0  0  0
    8.3024    0.0050    2.6963 H   0  0  0  0  0  0  0  0  0  0  0  0
    6.5272    1.6251    3.2606 H   0  0  0  0  0  0  0  0  0  0  0  0
    4.2970    1.4202    2.2464 H   0  0  0  0  0  0  0  0  0  0  0  0
    2.2086   -1.4201   -1.5807 H   0  0  0  0  0  0  0  0  0  0  0  0
    1.1847   -3.6522   -1.7280 H   0  0  0  0  0  0  0  0  0  0  0  0
    1.3944   -5.2392    0.1490 H   0  0  0  0  0  0  0  0  0  0  0  0
    2.6466   -4.5810    2.1745 H   0  0  0  0  0  0  0  0  0  0  0  0
    3.6498   -2.3400    2.3340 H   0  0  0  0  0  0  0  0  0  0  0  0
    4.5039    1.9241   -0.2982 H   0  0  0  0  0  0  0  0  0  0  0  0
    3.1357    3.8904   -0.8863 H   0  0  0  0  0  0  0  0  0  0  0  0
  1  2  3  0  0  0  0
  2  3  1  0  0  0  0
  3  4  2  0  0  0  0
  4  5  1  0  0  0  0
  5  6  2  0  0  0  0
  6  7  1  0  0  0  0
  7  8  2  0  0  0  0
  8  9  1  0  0  0  0
  9 10  1  0  0  0  0
 10 11  1  0  0  0  0
 11 12  2  0  0  0  0
 12 13  1  0  0  0  0
 13 14  2  0  0  0  0
 14 15  1  0  0  0  0
 15 16  2  0  0  0  0
 10 17  1  0  0  0  0
 17 18  2  0  0  0  0
 18 19  1  0  0  0  0
 19 20  2  0  0  0  0
 20 21  1  0  0  0  0
 21 22  2  0  0  0  0
  9 23  2  0  0  0  0
 23 24  1  0  0  0  0
 24 25  2  0  0  0  0
 25 26  1  0  0  0  0
 26 27  2  0  0  0  0
 27 28  1  0  0  0  0
 28 29  1  0  0  0  0
 29 30  2  0  0  0  0
 30 31  1  0  0  0  0
 31 32  2  0  0  0  0
 32 33  1  0  0  0  0
 33 34  2  0  0  0  0
 28 35  1  0  0  0  0
 35 36  2  0  0  0  0
 36 37  1  0  0  0  0
 37 38  2  0  0  0  0
 38 39  1  0  0  0  0
 39 40  2  0  0  0  0
 27 41  1  0  0  0  0
 41 42  2  0  0  0  0
 42 43  1  0  0  0  0
 43 44  2  0  0  0  0
 44 45  1  0  0  0  0
 45 46  2  0  0  0  0
 46 47  1  0  0  0  0
 47 48  3  0  0  0  0
 46  3  1  0  0  0  0
 44  5  1  0  0  0  0
 24  6  1  0  0  0  0
 43 25  1  0  0  0  0
 16 11  1  0  0  0  0
 22 17  1  0  0  0  0
 34 29  1  0  0  0  0
 40 35  1  0  0  0  0
  7 49  1  0  0  0  0
  8 50  1  0  0  0  0
 12 51  1  0  0  0  0
 13 52  1  0  0  0  0
 14 53  1  0  0  0  0
 15 54  1  0  0  0  0
 16 55  1  0  0  0  0
 18 56  1  0  0  0  0
 19 57  1  0  0  0  0
 20 58  1  0  0  0  0
 21 59  1  0  0  0  0
 22 60  1  0  0  0  0
 23 61  1  0  0  0  0
 26 62  1  0  0  0  0
 30 63  1  0  0  0  0
 31 64  1  0  0  0  0
 32 65  1  0  0  0  0
 33 66  1  0  0  0  0
 34 67  1  0  0  0  0
 36 68  1  0  0  0  0
 37 69  1  0  0  0  0
 38 70  1  0  0  0  0
 39 71  1  0  0  0  0
 40 72  1  0  0  0  0
 41 73  1  0  0  0  0
 42 74  1  0  0  0  0
M  END
