
  xtb     03022212343D
 energy: -27.790170130964 gnorm: 0.000136328572 xtb: 6.4.1 (afa7bdf)
 15 15  0     0  0            999 V2000
    2.1711   -0.1979   -0.3028 C   0  0  0  0  0  0  0  0  0  0  0  0
    0.7100    0.0139   -0.0891 C   0  0  0  0  0  0  0  0  0  0  0  0
    0.1382    1.2179    0.1116 C   0  0  0  0  0  0  0  0  0  0  0  0
   -1.2916    1.3458    0.3081 C   0  0  0  0  0  0  0  0  0  0  0  0
   -1.9008    2.3736    0.4923 O   0  0  0  0  0  0  0  0  0  0  0  0
   -1.9706    0.1245    0.2690 N   0  0  0  0  0  0  0  0  0  0  0  0
   -1.4356   -1.1200    0.0700 C   0  0  0  0  0  0  0  0  0  0  0  0
   -2.0812   -2.1382    0.0486 O   0  0  0  0  0  0  0  0  0  0  0  0
   -0.0656   -1.1144   -0.1083 N   0  0  0  0  0  0  0  0  0  0  0  0
    2.3471   -0.6341   -1.2856 H   0  0  0  0  0  0  0  0  0  0  0  0
    2.5665   -0.8831    0.4460 H   0  0  0  0  0  0  0  0  0  0  0  0
    2.7068    0.7433   -0.2363 H   0  0  0  0  0  0  0  0  0  0  0  0
    0.7184    2.1236    0.1322 H   0  0  0  0  0  0  0  0  0  0  0  0
   -2.9748    0.1632    0.4030 H   0  0  0  0  0  0  0  0  0  0  0  0
    0.3622   -2.0179   -0.2586 H   0  0  0  0  0  0  0  0  0  0  0  0
  1  2  1  0  0  0  0
  2  3  2  0  0  0  0
  3  4  1  0  0  0  0
  4  5  2  0  0  0  0
  4  6  1  0  0  0  0
  6  7  1  0  0  0  0
  7  8  2  0  0  0  0
  7  9  1  0  0  0  0
  9  2  1  0  0  0  0
  1 10  1  0  0  0  0
  1 11  1  0  0  0  0
  1 12  1  0  0  0  0
  3 13  1  0  0  0  0
  6 14  1  0  0  0  0
  9 15  1  0  0  0  0
M  END
