
  xtb     03022215423D
 energy: -84.644204674234 gnorm: 0.000078053376 xtb: 6.4.1 (afa7bdf)
 49 51  0     0  0            999 V2000
   -5.5337    4.1331   -0.4130 C   0  0  0  0  0  0  0  0  0  0  0  0
   -5.7652    2.6339   -0.3724 C   0  0  0  0  0  0  0  0  0  0  0  0
   -4.4994    1.9817   -0.4530 O   0  0  0  0  0  0  0  0  0  0  0  0
   -4.5285    0.6318   -0.3317 C   0  0  0  0  0  0  0  0  0  0  0  0
   -5.5624    0.0318   -0.1742 O   0  0  0  0  0  0  0  0  0  0  0  0
   -3.1798    0.0543   -0.3974 C   0  0  0  0  0  0  0  0  0  0  0  0
   -2.0857    0.8865   -0.4039 C   0  0  0  0  0  0  0  0  0  0  0  0
   -0.8256    0.4598   -0.4234 N   0  0  0  0  0  0  0  0  0  0  0  0
    0.3380    1.2141   -0.4411 C   0  0  0  0  0  0  0  0  0  0  0  0
    0.3560    2.6043   -0.5906 C   0  0  0  0  0  0  0  0  0  0  0  0
    1.5549    3.2780   -0.5942 C   0  0  0  0  0  0  0  0  0  0  0  0
    2.7751    2.6133   -0.4628 C   0  0  0  0  0  0  0  0  0  0  0  0
    3.8772    3.3921   -0.4548 O   0  0  0  0  0  0  0  0  0  0  0  0
    2.7731    1.2136   -0.3294 C   0  0  0  0  0  0  0  0  0  0  0  0
    3.9547    0.3879   -0.1797 C   0  0  0  0  0  0  0  0  0  0  0  0
    3.9118   -0.7998    0.2993 N   0  0  0  0  0  0  0  0  0  0  0  0
    5.1206   -1.4165    0.3288 C   0  0  0  0  0  0  0  0  0  0  0  0
    5.3723   -2.7019    0.8030 C   0  0  0  0  0  0  0  0  0  0  0  0
    6.6634   -3.1820    0.7680 C   0  0  0  0  0  0  0  0  0  0  0  0
    7.7091   -2.4067    0.2695 C   0  0  0  0  0  0  0  0  0  0  0  0
    7.4858   -1.1298   -0.2080 C   0  0  0  0  0  0  0  0  0  0  0  0
    6.1914   -0.6439   -0.1749 C   0  0  0  0  0  0  0  0  0  0  0  0
    5.5935    0.8993   -0.6967 S   0  0  0  0  0  0  0  0  0  0  0  0
    1.5462    0.5439   -0.3159 C   0  0  0  0  0  0  0  0  0  0  0  0
   -2.9967   -1.3989   -0.4297 C   0  0  0  0  0  0  0  0  0  0  0  0
   -1.8942   -1.9343   -0.3882 O   0  0  0  0  0  0  0  0  0  0  0  0
   -4.1228   -2.0882   -0.5400 O   0  0  0  0  0  0  0  0  0  0  0  0
   -4.0260   -3.5095   -0.5494 C   0  0  0  0  0  0  0  0  0  0  0  0
   -3.9511   -4.0672    0.8653 C   0  0  0  0  0  0  0  0  0  0  0  0
   -6.4868    4.6508   -0.3590 H   0  0  0  0  0  0  0  0  0  0  0  0
   -4.9150    4.4401    0.4262 H   0  0  0  0  0  0  0  0  0  0  0  0
   -5.0311    4.4094   -1.3361 H   0  0  0  0  0  0  0  0  0  0  0  0
   -6.3888    2.3045   -1.2114 H   0  0  0  0  0  0  0  0  0  0  0  0
   -6.2627    2.3312    0.5561 H   0  0  0  0  0  0  0  0  0  0  0  0
   -2.2589    1.9531   -0.3854 H   0  0  0  0  0  0  0  0  0  0  0  0
   -0.7356   -0.5636   -0.4016 H   0  0  0  0  0  0  0  0  0  0  0  0
   -0.5598    3.1602   -0.7079 H   0  0  0  0  0  0  0  0  0  0  0  0
    1.5848    4.3506   -0.7008 H   0  0  0  0  0  0  0  0  0  0  0  0
    4.6822    2.8743   -0.3257 H   0  0  0  0  0  0  0  0  0  0  0  0
    4.5549   -3.2910    1.1858 H   0  0  0  0  0  0  0  0  0  0  0  0
    6.8723   -4.1762    1.1330 H   0  0  0  0  0  0  0  0  0  0  0  0
    8.7107   -2.8087    0.2551 H   0  0  0  0  0  0  0  0  0  0  0  0
    8.2918   -0.5263   -0.5957 H   0  0  0  0  0  0  0  0  0  0  0  0
    1.5592   -0.5289   -0.2035 H   0  0  0  0  0  0  0  0  0  0  0  0
   -3.1404   -3.8060   -1.1226 H   0  0  0  0  0  0  0  0  0  0  0  0
   -4.9317   -3.8480   -1.0562 H   0  0  0  0  0  0  0  0  0  0  0  0
   -4.8012   -3.7171    1.4453 H   0  0  0  0  0  0  0  0  0  0  0  0
   -3.0340   -3.7366    1.3469 H   0  0  0  0  0  0  0  0  0  0  0  0
   -3.9616   -5.1531    0.8325 H   0  0  0  0  0  0  0  0  0  0  0  0
  1  2  1  0  0  0  0
  2  3  1  0  0  0  0
  3  4  1  0  0  0  0
  4  5  2  0  0  0  0
  4  6  1  0  0  0  0
  6  7  2  0  0  0  0
  7  8  1  0  0  0  0
  8  9  1  0  0  0  0
  9 10  2  0  0  0  0
 10 11  1  0  0  0  0
 11 12  2  0  0  0  0
 12 13  1  0  0  0  0
 12 14  1  0  0  0  0
 14 15  1  0  0  0  0
 15 16  2  0  0  0  0
 16 17  1  0  0  0  0
 17 18  2  0  0  0  0
 18 19  1  0  0  0  0
 19 20  2  0  0  0  0
 20 21  1  0  0  0  0
 21 22  2  0  0  0  0
 22 23  1  0  0  0  0
 14 24  2  0  0  0  0
  6 25  1  0  0  0  0
 25 26  2  0  0  0  0
 25 27  1  0  0  0  0
 27 28  1  0  0  0  0
 28 29  1  0  0  0  0
 24  9  1  0  0  0  0
 23 15  1  0  0  0  0
 22 17  1  0  0  0  0
  1 30  1  0  0  0  0
  1 31  1  0  0  0  0
  1 32  1  0  0  0  0
  2 33  1  0  0  0  0
  2 34  1  0  0  0  0
  7 35  1  0  0  0  0
  8 36  1  0  0  0  0
 10 37  1  0  0  0  0
 11 38  1  0  0  0  0
 13 39  1  0  0  0  0
 18 40  1  0  0  0  0
 19 41  1  0  0  0  0
 20 42  1  0  0  0  0
 21 43  1  0  0  0  0
 24 44  1  0  0  0  0
 28 45  1  0  0  0  0
 28 46  1  0  0  0  0
 29 47  1  0  0  0  0
 29 48  1  0  0  0  0
 29 49  1  0  0  0  0
M  END
