
  xtb     03022213353D
 energy: -112.390039270246 gnorm: 0.000204045283 xtb: 6.4.1 (afa7bdf)
 68 74  0     0  0            999 V2000
   12.4529   -5.0289   -2.3869 C   0  0  0  0  0  0  0  0  0  0  0  0
   12.3218   -3.5257   -2.6436 C   0  0  0  0  0  0  0  0  0  0  0  0
   11.3187   -2.9218   -1.7057 C   0  0  0  0  0  0  0  0  0  0  0  0
   11.7070   -2.4383   -0.4615 C   0  0  0  0  0  0  0  0  0  0  0  0
   10.7842   -1.9221    0.4242 C   0  0  0  0  0  0  0  0  0  0  0  0
    9.4270   -1.8749    0.0922 C   0  0  0  0  0  0  0  0  0  0  0  0
    8.4467   -1.3389    1.0111 C   0  0  0  0  0  0  0  0  0  0  0  0
    8.6286   -0.8894    2.2993 C   0  0  0  0  0  0  0  0  0  0  0  0
    7.4570   -0.4358    2.9104 C   0  0  0  0  0  0  0  0  0  0  0  0
    6.3600   -0.5338    2.0887 C   0  0  0  0  0  0  0  0  0  0  0  0
    5.0258   -0.1598    2.4029 C   0  0  0  0  0  0  0  0  0  0  0  0
    4.6079    0.3448    3.5342 N   0  0  0  0  0  0  0  0  0  0  0  0
    3.2957    0.5520    3.4088 N   0  0  0  0  0  0  0  0  0  0  0  0
    2.9471    0.1712    2.2127 C   0  0  0  0  0  0  0  0  0  0  0  0
    1.6240    0.2181    1.6435 C   0  0  0  0  0  0  0  0  0  0  0  0
    0.5719    0.7185    2.4143 C   0  0  0  0  0  0  0  0  0  0  0  0
   -0.6984    0.7762    1.8871 C   0  0  0  0  0  0  0  0  0  0  0  0
   -0.9358    0.3346    0.5830 C   0  0  0  0  0  0  0  0  0  0  0  0
   -2.2613    0.3941    0.0200 C   0  0  0  0  0  0  0  0  0  0  0  0
   -2.6287    0.0153   -1.1702 N   0  0  0  0  0  0  0  0  0  0  0  0
   -3.9389    0.2472   -1.2815 N   0  0  0  0  0  0  0  0  0  0  0  0
   -4.3365    0.7638   -0.1508 C   0  0  0  0  0  0  0  0  0  0  0  0
   -5.6522    1.1761    0.1967 C   0  0  0  0  0  0  0  0  0  0  0  0
   -6.0741    1.7192    1.3870 C   0  0  0  0  0  0  0  0  0  0  0  0
   -7.4393    2.0150    1.3896 C   0  0  0  0  0  0  0  0  0  0  0  0
   -8.0739    1.7026    0.2085 C   0  0  0  0  0  0  0  0  0  0  0  0
   -9.4689    1.8749   -0.1364 C   0  0  0  0  0  0  0  0  0  0  0  0
  -10.3626    2.5050    0.7345 C   0  0  0  0  0  0  0  0  0  0  0  0
  -11.6892    2.6607    0.3897 C   0  0  0  0  0  0  0  0  0  0  0  0
  -12.1758    2.1967   -0.8270 C   0  0  0  0  0  0  0  0  0  0  0  0
  -13.6091    2.4128   -1.2139 C   0  0  0  0  0  0  0  0  0  0  0  0
  -13.7717    3.7598   -1.9223 C   0  0  0  0  0  0  0  0  0  0  0  0
  -11.2880    1.5727   -1.6964 C   0  0  0  0  0  0  0  0  0  0  0  0
   -9.9606    1.4128   -1.3598 C   0  0  0  0  0  0  0  0  0  0  0  0
   -6.9491    1.0241   -0.9339 S   0  0  0  0  0  0  0  0  0  0  0  0
   -3.3117    0.8850    0.7275 O   0  0  0  0  0  0  0  0  0  0  0  0
    0.1159   -0.1676   -0.1869 C   0  0  0  0  0  0  0  0  0  0  0  0
    1.3871   -0.2252    0.3401 C   0  0  0  0  0  0  0  0  0  0  0  0
    4.0132   -0.2965    1.5158 O   0  0  0  0  0  0  0  0  0  0  0  0
    6.7779   -1.1949    0.5439 S   0  0  0  0  0  0  0  0  0  0  0  0
    9.0404   -2.3612   -1.1592 C   0  0  0  0  0  0  0  0  0  0  0  0
    9.9695   -2.8753   -2.0384 C   0  0  0  0  0  0  0  0  0  0  0  0
   11.4957   -5.5233   -2.5363 H   0  0  0  0  0  0  0  0  0  0  0  0
   13.1808   -5.4680   -3.0651 H   0  0  0  0  0  0  0  0  0  0  0  0
   12.7758   -5.2114   -1.3644 H   0  0  0  0  0  0  0  0  0  0  0  0
   12.0079   -3.3637   -3.6766 H   0  0  0  0  0  0  0  0  0  0  0  0
   13.2946   -3.0507   -2.5022 H   0  0  0  0  0  0  0  0  0  0  0  0
   12.7515   -2.4640   -0.1848 H   0  0  0  0  0  0  0  0  0  0  0  0
   11.1198   -1.5487    1.3788 H   0  0  0  0  0  0  0  0  0  0  0  0
    9.5806   -0.8894    2.7974 H   0  0  0  0  0  0  0  0  0  0  0  0
    7.3898   -0.0485    3.9100 H   0  0  0  0  0  0  0  0  0  0  0  0
    0.7801    1.0535    3.4177 H   0  0  0  0  0  0  0  0  0  0  0  0
   -1.5175    1.1621    2.4748 H   0  0  0  0  0  0  0  0  0  0  0  0
   -5.4129    1.8915    2.2176 H   0  0  0  0  0  0  0  0  0  0  0  0
   -7.9391    2.4407    2.2402 H   0  0  0  0  0  0  0  0  0  0  0  0
  -10.0174    2.8795    1.6853 H   0  0  0  0  0  0  0  0  0  0  0  0
  -12.3630    3.1504    1.0785 H   0  0  0  0  0  0  0  0  0  0  0  0
  -13.9374    1.6138   -1.8814 H   0  0  0  0  0  0  0  0  0  0  0  0
  -14.2404    2.3968   -0.3232 H   0  0  0  0  0  0  0  0  0  0  0  0
  -13.1583    3.7914   -2.8199 H   0  0  0  0  0  0  0  0  0  0  0  0
  -13.4616    4.5715   -1.2680 H   0  0  0  0  0  0  0  0  0  0  0  0
  -14.8099    3.9179   -2.2045 H   0  0  0  0  0  0  0  0  0  0  0  0
  -11.6450    1.2050   -2.6476 H   0  0  0  0  0  0  0  0  0  0  0  0
   -9.2853    0.9221   -2.0457 H   0  0  0  0  0  0  0  0  0  0  0  0
   -0.0920   -0.5030   -1.1904 H   0  0  0  0  0  0  0  0  0  0  0  0
    2.2065   -0.6108   -0.2474 H   0  0  0  0  0  0  0  0  0  0  0  0
    7.9962   -2.3324   -1.4363 H   0  0  0  0  0  0  0  0  0  0  0  0
    9.6457   -3.2449   -3.0008 H   0  0  0  0  0  0  0  0  0  0  0  0
  1  2  1  0  0  0  0
  2  3  1  0  0  0  0
  3  4  2  0  0  0  0
  4  5  1  0  0  0  0
  5  6  2  0  0  0  0
  6  7  1  0  0  0  0
  7  8  2  0  0  0  0
  8  9  1  0  0  0  0
  9 10  2  0  0  0  0
 10 11  1  0  0  0  0
 11 12  2  0  0  0  0
 12 13  1  0  0  0  0
 13 14  2  0  0  0  0
 14 15  1  0  0  0  0
 15 16  2  0  0  0  0
 16 17  1  0  0  0  0
 17 18  2  0  0  0  0
 18 19  1  0  0  0  0
 19 20  2  0  0  0  0
 20 21  1  0  0  0  0
 21 22  2  0  0  0  0
 22 23  1  0  0  0  0
 23 24  2  0  0  0  0
 24 25  1  0  0  0  0
 25 26  2  0  0  0  0
 26 27  1  0  0  0  0
 27 28  2  0  0  0  0
 28 29  1  0  0  0  0
 29 30  2  0  0  0  0
 30 31  1  0  0  0  0
 31 32  1  0  0  0  0
 30 33  1  0  0  0  0
 33 34  2  0  0  0  0
 26 35  1  0  0  0  0
 22 36  1  0  0  0  0
 18 37  1  0  0  0  0
 37 38  2  0  0  0  0
 14 39  1  0  0  0  0
 10 40  1  0  0  0  0
  6 41  1  0  0  0  0
 41 42  2  0  0  0  0
 42  3  1  0  0  0  0
 40  7  1  0  0  0  0
 39 11  1  0  0  0  0
 38 15  1  0  0  0  0
 36 19  1  0  0  0  0
 35 23  1  0  0  0  0
 34 27  1  0  0  0  0
  1 43  1  0  0  0  0
  1 44  1  0  0  0  0
  1 45  1  0  0  0  0
  2 46  1  0  0  0  0
  2 47  1  0  0  0  0
  4 48  1  0  0  0  0
  5 49  1  0  0  0  0
  8 50  1  0  0  0  0
  9 51  1  0  0  0  0
 16 52  1  0  0  0  0
 17 53  1  0  0  0  0
 24 54  1  0  0  0  0
 25 55  1  0  0  0  0
 28 56  1  0  0  0  0
 29 57  1  0  0  0  0
 31 58  1  0  0  0  0
 31 59  1  0  0  0  0
 32 60  1  0  0  0  0
 32 61  1  0  0  0  0
 32 62  1  0  0  0  0
 33 63  1  0  0  0  0
 34 64  1  0  0  0  0
 37 65  1  0  0  0  0
 38 66  1  0  0  0  0
 41 67  1  0  0  0  0
 42 68  1  0  0  0  0
M  END
