
  xtb     03022214203D
 energy: -90.137503986247 gnorm: 0.000192495653 xtb: 6.4.1 (afa7bdf)
 62 66  0     0  0            999 V2000
   -5.4215    2.7527    2.7770 C   0  0  0  0  0  0  0  0  0  0  0  0
   -5.6491    2.9418    1.2818 C   0  0  0  0  0  0  0  0  0  0  0  0
   -4.4122    2.6302    0.4372 C   0  0  0  0  0  0  0  0  0  0  0  0
   -3.9069    1.1903    0.5369 C   0  0  0  0  0  0  0  0  0  0  0  0
   -4.9232    0.1630    0.0443 C   0  0  0  0  0  0  0  0  0  0  0  0
   -4.3367   -1.2537   -0.0045 C   0  0  0  0  0  0  0  0  0  0  0  0
   -3.2910   -1.3775   -0.9833 N   0  0  0  0  0  0  0  0  0  0  0  0
   -3.4978   -1.4879   -2.3408 C   0  0  0  0  0  0  0  0  0  0  0  0
   -4.6874   -1.5792   -3.0498 C   0  0  0  0  0  0  0  0  0  0  0  0
   -4.6121   -1.6980   -4.4244 C   0  0  0  0  0  0  0  0  0  0  0  0
   -3.3871   -1.7247   -5.0871 C   0  0  0  0  0  0  0  0  0  0  0  0
   -2.1996   -1.6358   -4.3885 C   0  0  0  0  0  0  0  0  0  0  0  0
   -2.2500   -1.5171   -3.0063 C   0  0  0  0  0  0  0  0  0  0  0  0
   -1.2470   -1.4095   -1.9841 C   0  0  0  0  0  0  0  0  0  0  0  0
    0.1350   -1.3808   -2.0093 C   0  0  0  0  0  0  0  0  0  0  0  0
    0.8485   -1.2722   -0.8144 C   0  0  0  0  0  0  0  0  0  0  0  0
    2.2928   -1.2543   -0.8775 C   0  0  0  0  0  0  0  0  0  0  0  0
    3.1474   -1.1534    0.1536 C   0  0  0  0  0  0  0  0  0  0  0  0
    4.5903   -1.1611    0.0192 C   0  0  0  0  0  0  0  0  0  0  0  0
    5.2144   -1.7895   -1.0156 C   0  0  0  0  0  0  0  0  0  0  0  0
    6.6482   -1.8489   -1.1606 C   0  0  0  0  0  0  0  0  0  0  0  0
    7.2371   -2.3838   -2.0698 O   0  0  0  0  0  0  0  0  0  0  0  0
    7.3943   -1.2585   -0.1722 O   0  0  0  0  0  0  0  0  0  0  0  0
    6.8167   -0.6171    0.8667 C   0  0  0  0  0  0  0  0  0  0  0  0
    7.6794   -0.0385    1.7966 C   0  0  0  0  0  0  0  0  0  0  0  0
    7.1845    0.6583    2.8805 C   0  0  0  0  0  0  0  0  0  0  0  0
    8.0986    1.2805    3.8882 C   0  0  0  0  0  0  0  0  0  0  0  0
    5.7991    0.7805    3.0205 C   0  0  0  0  0  0  0  0  0  0  0  0
    4.9415    0.2086    2.1121 C   0  0  0  0  0  0  0  0  0  0  0  0
    5.4244   -0.5197    1.0179 C   0  0  0  0  0  0  0  0  0  0  0  0
    0.1356   -1.1909    0.3966 C   0  0  0  0  0  0  0  0  0  0  0  0
   -1.2393   -1.2122    0.4440 C   0  0  0  0  0  0  0  0  0  0  0  0
   -1.9426   -1.3216   -0.7514 C   0  0  0  0  0  0  0  0  0  0  0  0
   -6.2896    3.0944    3.3361 H   0  0  0  0  0  0  0  0  0  0  0  0
   -5.2556    1.7065    3.0207 H   0  0  0  0  0  0  0  0  0  0  0  0
   -4.5563    3.3250    3.1050 H   0  0  0  0  0  0  0  0  0  0  0  0
   -6.4858    2.3202    0.9583 H   0  0  0  0  0  0  0  0  0  0  0  0
   -5.9290    3.9817    1.0974 H   0  0  0  0  0  0  0  0  0  0  0  0
   -4.6409    2.8489   -0.6089 H   0  0  0  0  0  0  0  0  0  0  0  0
   -3.6039    3.2989    0.7430 H   0  0  0  0  0  0  0  0  0  0  0  0
   -3.6329    0.9668    1.5695 H   0  0  0  0  0  0  0  0  0  0  0  0
   -3.0001    1.1097   -0.0674 H   0  0  0  0  0  0  0  0  0  0  0  0
   -5.2608    0.4420   -0.9562 H   0  0  0  0  0  0  0  0  0  0  0  0
   -5.7914    0.1474    0.7043 H   0  0  0  0  0  0  0  0  0  0  0  0
   -5.1276   -1.9700   -0.2507 H   0  0  0  0  0  0  0  0  0  0  0  0
   -3.9298   -1.5215    0.9733 H   0  0  0  0  0  0  0  0  0  0  0  0
   -5.6452   -1.5617   -2.5521 H   0  0  0  0  0  0  0  0  0  0  0  0
   -5.5241   -1.7713   -4.9985 H   0  0  0  0  0  0  0  0  0  0  0  0
   -3.3715   -1.8179   -6.1627 H   0  0  0  0  0  0  0  0  0  0  0  0
   -1.2504   -1.6593   -4.9019 H   0  0  0  0  0  0  0  0  0  0  0  0
    0.6612   -1.4464   -2.9503 H   0  0  0  0  0  0  0  0  0  0  0  0
    2.6982   -1.3094   -1.8800 H   0  0  0  0  0  0  0  0  0  0  0  0
    2.7682   -1.0562    1.1593 H   0  0  0  0  0  0  0  0  0  0  0  0
    4.6590   -2.3112   -1.7781 H   0  0  0  0  0  0  0  0  0  0  0  0
    8.7410   -0.1480    1.6385 H   0  0  0  0  0  0  0  0  0  0  0  0
    7.9103    2.3508    3.9595 H   0  0  0  0  0  0  0  0  0  0  0  0
    9.1395    1.1250    3.6193 H   0  0  0  0  0  0  0  0  0  0  0  0
    7.9235    0.8473    4.8723 H   0  0  0  0  0  0  0  0  0  0  0  0
    5.4011    1.3361    3.8569 H   0  0  0  0  0  0  0  0  0  0  0  0
    3.8784    0.3348    2.2420 H   0  0  0  0  0  0  0  0  0  0  0  0
    0.6793   -1.1080    1.3245 H   0  0  0  0  0  0  0  0  0  0  0  0
   -1.7495   -1.1428    1.3929 H   0  0  0  0  0  0  0  0  0  0  0  0
  1  2  1  0  0  0  0
  2  3  1  0  0  0  0
  3  4  1  0  0  0  0
  4  5  1  0  0  0  0
  5  6  1  0  0  0  0
  6  7  1  0  0  0  0
  7  8  1  0  0  0  0
  8  9  2  0  0  0  0
  9 10  1  0  0  0  0
 10 11  2  0  0  0  0
 11 12  1  0  0  0  0
 12 13  2  0  0  0  0
 13 14  1  0  0  0  0
 14 15  2  0  0  0  0
 15 16  1  0  0  0  0
 16 17  1  0  0  0  0
 17 18  2  0  0  0  0
 18 19  1  0  0  0  0
 19 20  2  0  0  0  0
 20 21  1  0  0  0  0
 21 22  2  0  0  0  0
 21 23  1  0  0  0  0
 23 24  1  0  0  0  0
 24 25  2  0  0  0  0
 25 26  1  0  0  0  0
 26 27  1  0  0  0  0
 26 28  2  0  0  0  0
 28 29  1  0  0  0  0
 29 30  2  0  0  0  0
 16 31  2  0  0  0  0
 31 32  1  0  0  0  0
 32 33  2  0  0  0  0
 33  7  1  0  0  0  0
 13  8  1  0  0  0  0
 33 14  1  0  0  0  0
 30 19  1  0  0  0  0
 30 24  1  0  0  0  0
  1 34  1  0  0  0  0
  1 35  1  0  0  0  0
  1 36  1  0  0  0  0
  2 37  1  0  0  0  0
  2 38  1  0  0  0  0
  3 39  1  0  0  0  0
  3 40  1  0  0  0  0
  4 41  1  0  0  0  0
  4 42  1  0  0  0  0
  5 43  1  0  0  0  0
  5 44  1  0  0  0  0
  6 45  1  0  0  0  0
  6 46  1  0  0  0  0
  9 47  1  0  0  0  0
 10 48  1  0  0  0  0
 11 49  1  0  0  0  0
 12 50  1  0  0  0  0
 15 51  1  0  0  0  0
 17 52  1  0  0  0  0
 18 53  1  0  0  0  0
 20 54  1  0  0  0  0
 25 55  1  0  0  0  0
 27 56  1  0  0  0  0
 27 57  1  0  0  0  0
 27 58  1  0  0  0  0
 28 59  1  0  0  0  0
 29 60  1  0  0  0  0
 31 61  1  0  0  0  0
 32 62  1  0  0  0  0
M  END
