
  xtb     03022214043D
 energy: -72.646034552580 gnorm: 0.000116182252 xtb: 6.4.1 (afa7bdf)
 38 41  0     0  0            999 V2000
   -9.0910   -1.3786    1.3713 O   0  0  0  0  0  0  0  0  0  0  0  0
   -8.1429   -0.7436    1.0214 C   0  0  0  0  0  0  0  0  0  0  0  0
   -8.1002    0.5220    0.4899 N   0  0  0  0  0  0  0  0  0  0  0  0
   -6.8266    0.8980    0.2188 N   0  0  0  0  0  0  0  0  0  0  0  0
   -6.0980   -0.1058    0.5719 C   0  0  0  0  0  0  0  0  0  0  0  0
   -4.6624   -0.1977    0.4813 C   0  0  0  0  0  0  0  0  0  0  0  0
   -3.9273    0.8744   -0.0317 C   0  0  0  0  0  0  0  0  0  0  0  0
   -2.5574    0.7942   -0.1213 C   0  0  0  0  0  0  0  0  0  0  0  0
   -1.8708   -0.3542    0.2959 C   0  0  0  0  0  0  0  0  0  0  0  0
   -0.4313   -0.4926    0.2244 C   0  0  0  0  0  0  0  0  0  0  0  0
    0.4327    0.4271   -0.2368 C   0  0  0  0  0  0  0  0  0  0  0  0
    1.8724    0.2990   -0.3126 C   0  0  0  0  0  0  0  0  0  0  0  0
    2.6115    1.3739   -0.8273 C   0  0  0  0  0  0  0  0  0  0  0  0
    3.9821    1.3197   -0.9278 C   0  0  0  0  0  0  0  0  0  0  0  0
    4.6643    0.1740   -0.5112 C   0  0  0  0  0  0  0  0  0  0  0  0
    6.1006    0.1144   -0.6154 C   0  0  0  0  0  0  0  0  0  0  0  0
    6.8764    1.0385   -1.0705 N   0  0  0  0  0  0  0  0  0  0  0  0
    8.1284    0.5289   -0.9704 N   0  0  0  0  0  0  0  0  0  0  0  0
    8.1090   -0.7378   -0.4404 C   0  0  0  0  0  0  0  0  0  0  0  0
    9.0235   -1.4714   -0.2165 O   0  0  0  0  0  0  0  0  0  0  0  0
    6.7863   -0.9956   -0.2140 O   0  0  0  0  0  0  0  0  0  0  0  0
    3.9439   -0.9057    0.0038 C   0  0  0  0  0  0  0  0  0  0  0  0
    2.5719   -0.8413    0.1001 C   0  0  0  0  0  0  0  0  0  0  0  0
   -2.6231   -1.4194    0.8077 C   0  0  0  0  0  0  0  0  0  0  0  0
   -3.9950   -1.3492    0.9015 C   0  0  0  0  0  0  0  0  0  0  0  0
   -6.8362   -1.1404    1.0696 O   0  0  0  0  0  0  0  0  0  0  0  0
   -8.8737    1.1362    0.3032 H   0  0  0  0  0  0  0  0  0  0  0  0
   -4.4560    1.7577   -0.3525 H   0  0  0  0  0  0  0  0  0  0  0  0
   -2.0108    1.6337   -0.5204 H   0  0  0  0  0  0  0  0  0  0  0  0
   -0.0565   -1.4406    0.5861 H   0  0  0  0  0  0  0  0  0  0  0  0
    0.0545    1.3741   -0.5977 H   0  0  0  0  0  0  0  0  0  0  0  0
    2.0896    2.2628   -1.1512 H   0  0  0  0  0  0  0  0  0  0  0  0
    4.5483    2.1473   -1.3238 H   0  0  0  0  0  0  0  0  0  0  0  0
    8.9300    1.0598   -1.2638 H   0  0  0  0  0  0  0  0  0  0  0  0
    4.4752   -1.7886    0.3243 H   0  0  0  0  0  0  0  0  0  0  0  0
    2.0368   -1.6874    0.5011 H   0  0  0  0  0  0  0  0  0  0  0  0
   -2.1142   -2.3146    1.1352 H   0  0  0  0  0  0  0  0  0  0  0  0
   -4.5636   -2.1765    1.2975 H   0  0  0  0  0  0  0  0  0  0  0  0
  1  2  2  0  0  0  0
  2  3  1  0  0  0  0
  3  4  1  0  0  0  0
  4  5  2  0  0  0  0
  5  6  1  0  0  0  0
  6  7  2  0  0  0  0
  7  8  1  0  0  0  0
  8  9  2  0  0  0  0
  9 10  1  0  0  0  0
 10 11  2  0  0  0  0
 11 12  1  0  0  0  0
 12 13  2  0  0  0  0
 13 14  1  0  0  0  0
 14 15  2  0  0  0  0
 15 16  1  0  0  0  0
 16 17  2  0  0  0  0
 17 18  1  0  0  0  0
 18 19  1  0  0  0  0
 19 20  2  0  0  0  0
 19 21  1  0  0  0  0
 15 22  1  0  0  0  0
 22 23  2  0  0  0  0
  9 24  1  0  0  0  0
 24 25  2  0  0  0  0
  5 26  1  0  0  0  0
 26  2  1  0  0  0  0
 25  6  1  0  0  0  0
 23 12  1  0  0  0  0
 21 16  1  0  0  0  0
  3 27  1  0  0  0  0
  7 28  1  0  0  0  0
  8 29  1  0  0  0  0
 10 30  1  0  0  0  0
 11 31  1  0  0  0  0
 13 32  1  0  0  0  0
 14 33  1  0  0  0  0
 18 34  1  0  0  0  0
 22 35  1  0  0  0  0
 23 36  1  0  0  0  0
 24 37  1  0  0  0  0
 25 38  1  0  0  0  0
M  END
