
  xtb     03022214253D
 energy: -153.006746137233 gnorm: 0.000069456464 xtb: 6.4.1 (afa7bdf)
 90100  0     0  0            999 V2000
    8.3953    4.3720   -0.2263 C   0  0  0  0  0  0  0  0  0  0  0  0
    7.9739    3.8499   -1.4653 O   0  0  0  0  0  0  0  0  0  0  0  0
    6.7248    3.3385   -1.5670 C   0  0  0  0  0  0  0  0  0  0  0  0
    6.4199    2.7144   -2.7835 C   0  0  0  0  0  0  0  0  0  0  0  0
    5.1972    2.1214   -2.9791 C   0  0  0  0  0  0  0  0  0  0  0  0
    4.2382    2.1462   -1.9619 C   0  0  0  0  0  0  0  0  0  0  0  0
    3.0041    1.4225   -2.1274 C   0  0  0  0  0  0  0  0  0  0  0  0
    2.6159    0.7415   -3.1693 N   0  0  0  0  0  0  0  0  0  0  0  0
    1.4660    0.1417   -2.8472 N   0  0  0  0  0  0  0  0  0  0  0  0
    1.1891    0.4633   -1.6146 C   0  0  0  0  0  0  0  0  0  0  0  0
    0.0341    0.0095   -0.8711 C   0  0  0  0  0  0  0  0  0  0  0  0
   -1.0525   -0.4373   -1.6206 C   0  0  0  0  0  0  0  0  0  0  0  0
   -2.2320   -0.8486   -1.0215 C   0  0  0  0  0  0  0  0  0  0  0  0
   -3.2896   -1.3121   -1.8057 N   0  0  0  0  0  0  0  0  0  0  0  0
   -4.0398   -2.4459   -1.5437 C   0  0  0  0  0  0  0  0  0  0  0  0
   -3.7484   -3.5131   -0.7091 C   0  0  0  0  0  0  0  0  0  0  0  0
   -4.6767   -4.5327   -0.6215 C   0  0  0  0  0  0  0  0  0  0  0  0
   -5.8513   -4.5083   -1.3680 C   0  0  0  0  0  0  0  0  0  0  0  0
   -6.1127   -3.4790   -2.2513 C   0  0  0  0  0  0  0  0  0  0  0  0
   -5.1970   -2.4414   -2.3511 C   0  0  0  0  0  0  0  0  0  0  0  0
   -5.1291   -1.2513   -3.1541 C   0  0  0  0  0  0  0  0  0  0  0  0
   -5.9693   -0.6992   -4.1107 C   0  0  0  0  0  0  0  0  0  0  0  0
   -5.6119    0.5016   -4.6917 C   0  0  0  0  0  0  0  0  0  0  0  0
   -4.4391    1.1544   -4.3224 C   0  0  0  0  0  0  0  0  0  0  0  0
   -3.5881    0.6253   -3.3700 C   0  0  0  0  0  0  0  0  0  0  0  0
   -3.9354   -0.5872   -2.7955 C   0  0  0  0  0  0  0  0  0  0  0  0
   -2.3502   -0.7733    0.3859 C   0  0  0  0  0  0  0  0  0  0  0  0
   -3.5437   -1.1135    1.0249 N   0  0  0  0  0  0  0  0  0  0  0  0
   -4.8048   -0.6956    0.6352 C   0  0  0  0  0  0  0  0  0  0  0  0
   -5.1588    0.3492   -0.2036 C   0  0  0  0  0  0  0  0  0  0  0  0
   -6.5047    0.5596   -0.4351 C   0  0  0  0  0  0  0  0  0  0  0  0
   -7.4761   -0.2284    0.1758 C   0  0  0  0  0  0  0  0  0  0  0  0
   -7.1282   -1.2271    1.0642 C   0  0  0  0  0  0  0  0  0  0  0  0
   -5.7821   -1.4601    1.3071 C   0  0  0  0  0  0  0  0  0  0  0  0
   -5.0708   -2.3731    2.1590 C   0  0  0  0  0  0  0  0  0  0  0  0
   -5.4762   -3.3694    3.0360 C   0  0  0  0  0  0  0  0  0  0  0  0
   -4.5106   -4.1000    3.7000 C   0  0  0  0  0  0  0  0  0  0  0  0
   -3.1565   -3.8536    3.4906 C   0  0  0  0  0  0  0  0  0  0  0  0
   -2.7288   -2.8685    2.6201 C   0  0  0  0  0  0  0  0  0  0  0  0
   -3.6948   -2.1226    1.9632 C   0  0  0  0  0  0  0  0  0  0  0  0
   -1.2550   -0.3692    1.1325 C   0  0  0  0  0  0  0  0  0  0  0  0
   -0.0540    0.0010    0.5313 C   0  0  0  0  0  0  0  0  0  0  0  0
    1.0298    0.3625    1.4212 C   0  0  0  0  0  0  0  0  0  0  0  0
    0.8852    0.8427    2.6239 N   0  0  0  0  0  0  0  0  0  0  0  0
    2.1082    1.0658    3.1150 N   0  0  0  0  0  0  0  0  0  0  0  0
    2.9650    0.7030    2.2021 C   0  0  0  0  0  0  0  0  0  0  0  0
    4.3981    0.8501    2.2458 C   0  0  0  0  0  0  0  0  0  0  0  0
    4.9865    1.4820    3.3389 C   0  0  0  0  0  0  0  0  0  0  0  0
    6.3454    1.7214    3.3626 C   0  0  0  0  0  0  0  0  0  0  0  0
    7.1393    1.3348    2.2840 C   0  0  0  0  0  0  0  0  0  0  0  0
    8.4745    1.5634    2.1834 O   0  0  0  0  0  0  0  0  0  0  0  0
    9.1485    2.1528    3.2717 C   0  0  0  0  0  0  0  0  0  0  0  0
    6.5518    0.6780    1.1984 C   0  0  0  0  0  0  0  0  0  0  0  0
    5.1987    0.4354    1.1791 C   0  0  0  0  0  0  0  0  0  0  0  0
    2.3356    0.2275    1.1032 O   0  0  0  0  0  0  0  0  0  0  0  0
    2.1226    1.2982   -1.1079 O   0  0  0  0  0  0  0  0  0  0  0  0
    4.5235    2.8050   -0.7692 C   0  0  0  0  0  0  0  0  0  0  0  0
    5.7563    3.3928   -0.5671 C   0  0  0  0  0  0  0  0  0  0  0  0
    8.3472    3.6111    0.5580 H   0  0  0  0  0  0  0  0  0  0  0  0
    7.8028    5.2443    0.0669 H   0  0  0  0  0  0  0  0  0  0  0  0
    9.4307    4.6752   -0.3736 H   0  0  0  0  0  0  0  0  0  0  0  0
    7.1777    2.6990   -3.5504 H   0  0  0  0  0  0  0  0  0  0  0  0
    4.9603    1.6172   -3.9021 H   0  0  0  0  0  0  0  0  0  0  0  0
   -0.9470   -0.4818   -2.6932 H   0  0  0  0  0  0  0  0  0  0  0  0
   -2.8262   -3.5543   -0.1495 H   0  0  0  0  0  0  0  0  0  0  0  0
   -4.4831   -5.3649    0.0387 H   0  0  0  0  0  0  0  0  0  0  0  0
   -6.5568   -5.3193   -1.2667 H   0  0  0  0  0  0  0  0  0  0  0  0
   -7.0072   -3.4791   -2.8552 H   0  0  0  0  0  0  0  0  0  0  0  0
   -6.8845   -1.1999   -4.3875 H   0  0  0  0  0  0  0  0  0  0  0  0
   -6.2507    0.9473   -5.4395 H   0  0  0  0  0  0  0  0  0  0  0  0
   -4.1888    2.0963   -4.7877 H   0  0  0  0  0  0  0  0  0  0  0  0
   -2.6885    1.1481   -3.0817 H   0  0  0  0  0  0  0  0  0  0  0  0
   -4.4131    0.9837   -0.6579 H   0  0  0  0  0  0  0  0  0  0  0  0
   -6.8057    1.3535   -1.1021 H   0  0  0  0  0  0  0  0  0  0  0  0
   -8.5177   -0.0389   -0.0360 H   0  0  0  0  0  0  0  0  0  0  0  0
   -7.8837   -1.8143    1.5636 H   0  0  0  0  0  0  0  0  0  0  0  0
   -6.5260   -3.5683    3.1881 H   0  0  0  0  0  0  0  0  0  0  0  0
   -4.8048   -4.8785    4.3879 H   0  0  0  0  0  0  0  0  0  0  0  0
   -2.4232   -4.4464    4.0172 H   0  0  0  0  0  0  0  0  0  0  0  0
   -1.6758   -2.6967    2.4546 H   0  0  0  0  0  0  0  0  0  0  0  0
   -1.3283   -0.3094    2.2071 H   0  0  0  0  0  0  0  0  0  0  0  0
    4.3573    1.7913    4.1582 H   0  0  0  0  0  0  0  0  0  0  0  0
    6.7751    2.2177    4.2181 H   0  0  0  0  0  0  0  0  0  0  0  0
    8.7844    3.1659    3.4712 H   0  0  0  0  0  0  0  0  0  0  0  0
    9.0533    1.5465    4.1771 H   0  0  0  0  0  0  0  0  0  0  0  0
   10.1957    2.1990    2.9773 H   0  0  0  0  0  0  0  0  0  0  0  0
    7.1822    0.3785    0.3764 H   0  0  0  0  0  0  0  0  0  0  0  0
    4.7520   -0.0663    0.3346 H   0  0  0  0  0  0  0  0  0  0  0  0
    3.7795    2.8476    0.0119 H   0  0  0  0  0  0  0  0  0  0  0  0
    5.9535    3.8790    0.3749 H   0  0  0  0  0  0  0  0  0  0  0  0
  1  2  1  0  0  0  0
  2  3  1  0  0  0  0
  3  4  2  0  0  0  0
  4  5  1  0  0  0  0
  5  6  2  0  0  0  0
  6  7  1  0  0  0  0
  7  8  2  0  0  0  0
  8  9  1  0  0  0  0
  9 10  2  0  0  0  0
 10 11  1  0  0  0  0
 11 12  2  0  0  0  0
 12 13  1  0  0  0  0
 13 14  1  0  0  0  0
 14 15  1  0  0  0  0
 15 16  2  0  0  0  0
 16 17  1  0  0  0  0
 17 18  2  0  0  0  0
 18 19  1  0  0  0  0
 19 20  2  0  0  0  0
 20 21  1  0  0  0  0
 21 22  2  0  0  0  0
 22 23  1  0  0  0  0
 23 24  2  0  0  0  0
 24 25  1  0  0  0  0
 25 26  2  0  0  0  0
 13 27  2  0  0  0  0
 27 28  1  0  0  0  0
 28 29  1  0  0  0  0
 29 30  2  0  0  0  0
 30 31  1  0  0  0  0
 31 32  2  0  0  0  0
 32 33  1  0  0  0  0
 33 34  2  0  0  0  0
 34 35  1  0  0  0  0
 35 36  2  0  0  0  0
 36 37  1  0  0  0  0
 37 38  2  0  0  0  0
 38 39  1  0  0  0  0
 39 40  2  0  0  0  0
 27 41  1  0  0  0  0
 41 42  2  0  0  0  0
 42 43  1  0  0  0  0
 43 44  2  0  0  0  0
 44 45  1  0  0  0  0
 45 46  2  0  0  0  0
 46 47  1  0  0  0  0
 47 48  2  0  0  0  0
 48 49  1  0  0  0  0
 49 50  2  0  0  0  0
 50 51  1  0  0  0  0
 51 52  1  0  0  0  0
 50 53  1  0  0  0  0
 53 54  2  0  0  0  0
 46 55  1  0  0  0  0
 10 56  1  0  0  0  0
  6 57  1  0  0  0  0
 57 58  2  0  0  0  0
 58  3  1  0  0  0  0
 56  7  1  0  0  0  0
 42 11  1  0  0  0  0
 55 43  1  0  0  0  0
 26 14  1  0  0  0  0
 40 28  1  0  0  0  0
 54 47  1  0  0  0  0
 20 15  1  0  0  0  0
 26 21  1  0  0  0  0
 34 29  1  0  0  0  0
 40 35  1  0  0  0  0
  1 59  1  0  0  0  0
  1 60  1  0  0  0  0
  1 61  1  0  0  0  0
  4 62  1  0  0  0  0
  5 63  1  0  0  0  0
 12 64  1  0  0  0  0
 16 65  1  0  0  0  0
 17 66  1  0  0  0  0
 18 67  1  0  0  0  0
 19 68  1  0  0  0  0
 22 69  1  0  0  0  0
 23 70  1  0  0  0  0
 24 71  1  0  0  0  0
 25 72  1  0  0  0  0
 30 73  1  0  0  0  0
 31 74  1  0  0  0  0
 32 75  1  0  0  0  0
 33 76  1  0  0  0  0
 36 77  1  0  0  0  0
 37 78  1  0  0  0  0
 38 79  1  0  0  0  0
 39 80  1  0  0  0  0
 41 81  1  0  0  0  0
 48 82  1  0  0  0  0
 49 83  1  0  0  0  0
 52 84  1  0  0  0  0
 52 85  1  0  0  0  0
 52 86  1  0  0  0  0
 53 87  1  0  0  0  0
 54 88  1  0  0  0  0
 57 89  1  0  0  0  0
 58 90  1  0  0  0  0
M  END
