
  xtb     03022212283D
 energy: -90.228812544983 gnorm: 0.000370089444 xtb: 6.4.1 (afa7bdf)
 56 60  0     0  0            999 V2000
    7.3575   -2.1443    0.7330 C   0  0  0  0  0  0  0  0  0  0  0  0
    7.1776   -0.6870    0.3319 C   0  0  0  0  0  0  0  0  0  0  0  0
    5.8497   -0.4300   -0.1237 O   0  0  0  0  0  0  0  0  0  0  0  0
    4.9196   -0.2169    0.8167 C   0  0  0  0  0  0  0  0  0  0  0  0
    5.1531   -0.2114    2.0011 O   0  0  0  0  0  0  0  0  0  0  0  0
    3.5747    0.0210    0.2366 C   0  0  0  0  0  0  0  0  0  0  0  0
    3.3469   -0.0091   -1.1361 C   0  0  0  0  0  0  0  0  0  0  0  0
    2.0760    0.2163   -1.6272 C   0  0  0  0  0  0  0  0  0  0  0  0
    1.0177    0.4715   -0.7624 C   0  0  0  0  0  0  0  0  0  0  0  0
   -0.3746    0.6779   -1.3016 C   0  0  0  0  0  0  0  0  0  0  0  0
   -1.2549   -0.5745   -1.1079 C   0  0  0  0  0  0  0  0  0  0  0  0
   -2.3459   -0.0653   -0.1780 C   0  0  0  0  0  0  0  0  0  0  0  0
   -3.4534   -0.7788    0.4307 C   0  0  0  0  0  0  0  0  0  0  0  0
   -4.2280   -0.0315    1.3090 C   0  0  0  0  0  0  0  0  0  0  0  0
   -5.3277   -0.5603    1.9774 C   0  0  0  0  0  0  0  0  0  0  0  0
   -5.6795   -1.8670    1.7804 C   0  0  0  0  0  0  0  0  0  0  0  0
   -4.9344   -2.6778    0.9026 C   0  0  0  0  0  0  0  0  0  0  0  0
   -5.3139   -4.0236    0.7096 C   0  0  0  0  0  0  0  0  0  0  0  0
   -4.6217   -4.8424   -0.1344 C   0  0  0  0  0  0  0  0  0  0  0  0
   -3.5136   -4.3334   -0.8212 C   0  0  0  0  0  0  0  0  0  0  0  0
   -3.1215   -3.0324   -0.6539 C   0  0  0  0  0  0  0  0  0  0  0  0
   -3.8050   -2.1495    0.2088 C   0  0  0  0  0  0  0  0  0  0  0  0
   -2.1883    1.1910    0.0716 N   0  0  0  0  0  0  0  0  0  0  0  0
   -1.1155    1.6882   -0.5414 N   0  0  0  0  0  0  0  0  0  0  0  0
   -0.7736    3.0126   -0.4381 C   0  0  0  0  0  0  0  0  0  0  0  0
    0.3596    3.5261   -1.0743 C   0  0  0  0  0  0  0  0  0  0  0  0
    0.6767    4.8651   -0.9580 C   0  0  0  0  0  0  0  0  0  0  0  0
   -0.1305    5.7044   -0.2082 C   0  0  0  0  0  0  0  0  0  0  0  0
    0.2725    7.3818   -0.0669 Cl  0  0  0  0  0  0  0  0  0  0  0  0
   -1.2587    5.2106    0.4306 C   0  0  0  0  0  0  0  0  0  0  0  0
   -1.5776    3.8756    0.3158 C   0  0  0  0  0  0  0  0  0  0  0  0
    1.2471    0.4947    0.6093 C   0  0  0  0  0  0  0  0  0  0  0  0
    2.5157    0.2752    1.1050 C   0  0  0  0  0  0  0  0  0  0  0  0
    7.0956   -2.7985   -0.0954 H   0  0  0  0  0  0  0  0  0  0  0  0
    8.3924   -2.3198    1.0120 H   0  0  0  0  0  0  0  0  0  0  0  0
    6.7194   -2.3757    1.5823 H   0  0  0  0  0  0  0  0  0  0  0  0
    7.8209   -0.4274   -0.5115 H   0  0  0  0  0  0  0  0  0  0  0  0
    7.3935   -0.0321    1.1827 H   0  0  0  0  0  0  0  0  0  0  0  0
    4.1666   -0.2063   -1.8086 H   0  0  0  0  0  0  0  0  0  0  0  0
    1.9007    0.1951   -2.6938 H   0  0  0  0  0  0  0  0  0  0  0  0
   -0.3271    0.9771   -2.3558 H   0  0  0  0  0  0  0  0  0  0  0  0
   -1.6693   -0.9123   -2.0584 H   0  0  0  0  0  0  0  0  0  0  0  0
   -0.6840   -1.3833   -0.6488 H   0  0  0  0  0  0  0  0  0  0  0  0
   -3.9537    0.9984    1.4703 H   0  0  0  0  0  0  0  0  0  0  0  0
   -5.8938    0.0678    2.6491 H   0  0  0  0  0  0  0  0  0  0  0  0
   -6.5289   -2.2974    2.2907 H   0  0  0  0  0  0  0  0  0  0  0  0
   -6.1738   -4.3927    1.2504 H   0  0  0  0  0  0  0  0  0  0  0  0
   -4.9188   -5.8708   -0.2766 H   0  0  0  0  0  0  0  0  0  0  0  0
   -2.9619   -4.9766   -1.4915 H   0  0  0  0  0  0  0  0  0  0  0  0
   -2.2656   -2.6948   -1.2063 H   0  0  0  0  0  0  0  0  0  0  0  0
    1.0024    2.8845   -1.6548 H   0  0  0  0  0  0  0  0  0  0  0  0
    1.5531    5.2571   -1.4497 H   0  0  0  0  0  0  0  0  0  0  0  0
   -1.8813    5.8714    1.0128 H   0  0  0  0  0  0  0  0  0  0  0  0
   -2.4511    3.4749    0.8030 H   0  0  0  0  0  0  0  0  0  0  0  0
    0.4288    0.6902    1.2866 H   0  0  0  0  0  0  0  0  0  0  0  0
    2.7100    0.2946    2.1664 H   0  0  0  0  0  0  0  0  0  0  0  0
  1  2  1  0  0  0  0
  2  3  1  0  0  0  0
  3  4  1  0  0  0  0
  4  5  2  0  0  0  0
  4  6  1  0  0  0  0
  6  7  2  0  0  0  0
  7  8  1  0  0  0  0
  8  9  2  0  0  0  0
  9 10  1  0  0  0  0
 10 11  1  0  0  0  0
 11 12  1  0  0  0  0
 12 13  1  0  0  0  0
 13 14  2  0  0  0  0
 14 15  1  0  0  0  0
 15 16  2  0  0  0  0
 16 17  1  0  0  0  0
 17 18  2  0  0  0  0
 18 19  1  0  0  0  0
 19 20  2  0  0  0  0
 20 21  1  0  0  0  0
 21 22  2  0  0  0  0
 12 23  2  0  0  0  0
 23 24  1  0  0  0  0
 24 25  1  0  0  0  0
 25 26  2  0  0  0  0
 26 27  1  0  0  0  0
 27 28  2  0  0  0  0
 28 29  1  0  0  0  0
 28 30  1  0  0  0  0
 30 31  2  0  0  0  0
  9 32  1  0  0  0  0
 32 33  2  0  0  0  0
 33  6  1  0  0  0  0
 24 10  1  0  0  0  0
 31 25  1  0  0  0  0
 22 13  1  0  0  0  0
 22 17  1  0  0  0  0
  1 34  1  0  0  0  0
  1 35  1  0  0  0  0
  1 36  1  0  0  0  0
  2 37  1  0  0  0  0
  2 38  1  0  0  0  0
  7 39  1  0  0  0  0
  8 40  1  0  0  0  0
 10 41  1  0  0  0  0
 11 42  1  0  0  0  0
 11 43  1  0  0  0  0
 14 44  1  0  0  0  0
 15 45  1  0  0  0  0
 16 46  1  0  0  0  0
 18 47  1  0  0  0  0
 19 48  1  0  0  0  0
 20 49  1  0  0  0  0
 21 50  1  0  0  0  0
 26 51  1  0  0  0  0
 27 52  1  0  0  0  0
 30 53  1  0  0  0  0
 31 54  1  0  0  0  0
 32 55  1  0  0  0  0
 33 56  1  0  0  0  0
M  END
