
  xtb     03022215173D
 energy: -99.423633294151 gnorm: 0.000354858660 xtb: 6.4.1 (afa7bdf)
 52 55  0     0  0            999 V2000
   -7.1075    3.6589    2.0972 C   0  0  0  0  0  0  0  0  0  0  0  0
   -7.7042    2.5545    1.6915 C   0  0  0  0  0  0  0  0  0  0  0  0
   -7.1244    1.6048    0.6891 C   0  0  0  0  0  0  0  0  0  0  0  0
   -7.1799    0.2450    1.1804 N   0  0  0  0  0  0  0  0  0  0  0  0
   -7.0844   -0.9727    0.0588 S   0  0  0  0  0  6  0  0  0  0  0  0
   -7.1576   -2.2047    0.7780 O   0  0  0  0  0  0  0  0  0  0  0  0
   -8.0302   -0.6828   -0.9736 O   0  0  0  0  0  0  0  0  0  0  0  0
   -5.4306   -0.7925   -0.6241 C   0  0  0  0  0  0  0  0  0  0  0  0
   -5.2606   -0.0961   -1.8106 C   0  0  0  0  0  0  0  0  0  0  0  0
   -3.9909    0.1076   -2.3288 C   0  0  0  0  0  0  0  0  0  0  0  0
   -2.9053   -0.3963   -1.6315 C   0  0  0  0  0  0  0  0  0  0  0  0
   -3.0815   -1.1046   -0.4334 C   0  0  0  0  0  0  0  0  0  0  0  0
   -4.3583   -1.3057    0.0758 C   0  0  0  0  0  0  0  0  0  0  0  0
   -1.8196   -1.5555    0.1528 C   0  0  0  0  0  0  0  0  0  0  0  0
   -1.6200   -2.1732    1.1792 O   0  0  0  0  0  0  0  0  0  0  0  0
   -0.7161   -1.1175   -0.7228 C   0  0  0  0  0  0  0  0  0  0  0  0
    0.5771   -1.3918   -0.4221 C   0  0  0  0  0  0  0  0  0  0  0  0
    1.0800   -2.2695    0.9764 S   0  0  0  0  0  0  0  0  0  0  0  0
    2.7708   -2.0873    0.4951 C   0  0  0  0  0  0  0  0  0  0  0  0
    3.8597   -2.5830    1.1940 C   0  0  0  0  0  0  0  0  0  0  0  0
    5.1291   -2.3475    0.6904 C   0  0  0  0  0  0  0  0  0  0  0  0
    5.2968   -1.6416   -0.4913 C   0  0  0  0  0  0  0  0  0  0  0  0
    6.9665   -1.2970   -1.0628 S   0  0  0  0  0  6  0  0  0  0  0  0
    6.9379   -1.1172   -2.4794 O   0  0  0  0  0  0  0  0  0  0  0  0
    7.8524   -2.2516   -0.4721 O   0  0  0  0  0  0  0  0  0  0  0  0
    7.3203    0.1679   -0.3765 N   0  0  0  0  0  0  0  0  0  0  0  0
    6.5986    1.3266   -0.8400 C   0  0  0  0  0  0  0  0  0  0  0  0
    7.3193    2.6162   -0.5764 C   0  0  0  0  0  0  0  0  0  0  0  0
    8.5584    2.7199   -0.1372 C   0  0  0  0  0  0  0  0  0  0  0  0
    4.2204   -1.1533   -1.2026 C   0  0  0  0  0  0  0  0  0  0  0  0
    2.9437   -1.3749   -0.7007 C   0  0  0  0  0  0  0  0  0  0  0  0
    1.6795   -0.9342   -1.2889 C   0  0  0  0  0  0  0  0  0  0  0  0
    1.4779   -0.2910   -2.2993 O   0  0  0  0  0  0  0  0  0  0  0  0
   -1.2143   -0.2342   -2.1196 S   0  0  0  0  0  0  0  0  0  0  0  0
   -6.1423    3.9552    1.7188 H   0  0  0  0  0  0  0  0  0  0  0  0
   -7.5628    4.3211    2.8127 H   0  0  0  0  0  0  0  0  0  0  0  0
   -8.6698    2.2629    2.0778 H   0  0  0  0  0  0  0  0  0  0  0  0
   -6.1004    1.9074    0.4214 H   0  0  0  0  0  0  0  0  0  0  0  0
   -7.7388    1.6007   -0.2166 H   0  0  0  0  0  0  0  0  0  0  0  0
   -6.6404    0.0603    2.0107 H   0  0  0  0  0  0  0  0  0  0  0  0
   -6.1394    0.2649   -2.3212 H   0  0  0  0  0  0  0  0  0  0  0  0
   -3.8457    0.6433   -3.2533 H   0  0  0  0  0  0  0  0  0  0  0  0
   -4.5109   -1.8641    0.9861 H   0  0  0  0  0  0  0  0  0  0  0  0
    3.7159   -3.1387    2.1068 H   0  0  0  0  0  0  0  0  0  0  0  0
    6.0093   -2.7206    1.1904 H   0  0  0  0  0  0  0  0  0  0  0  0
    7.4728    0.1184    0.6174 H   0  0  0  0  0  0  0  0  0  0  0  0
    6.4888    1.1881   -1.9204 H   0  0  0  0  0  0  0  0  0  0  0  0
    5.5878    1.3820   -0.4013 H   0  0  0  0  0  0  0  0  0  0  0  0
    6.7269    3.4963   -0.7881 H   0  0  0  0  0  0  0  0  0  0  0  0
    9.0210    3.6776    0.0264 H   0  0  0  0  0  0  0  0  0  0  0  0
    9.1594    1.8490    0.0594 H   0  0  0  0  0  0  0  0  0  0  0  0
    4.3662   -0.6299   -2.1342 H   0  0  0  0  0  0  0  0  0  0  0  0
  1  2  2  0  0  0  0
  2  3  1  0  0  0  0
  3  4  1  0  0  0  0
  4  5  1  0  0  0  0
  5  6  2  0  0  0  0
  5  7  2  0  0  0  0
  5  8  1  0  0  0  0
  8  9  2  0  0  0  0
  9 10  1  0  0  0  0
 10 11  2  0  0  0  0
 11 12  1  0  0  0  0
 12 13  2  0  0  0  0
 12 14  1  0  0  0  0
 14 15  2  0  0  0  0
 14 16  1  0  0  0  0
 16 17  2  0  0  0  0
 17 18  1  0  0  0  0
 18 19  1  0  0  0  0
 19 20  2  0  0  0  0
 20 21  1  0  0  0  0
 21 22  2  0  0  0  0
 22 23  1  0  0  0  0
 23 24  2  0  0  0  0
 23 25  2  0  0  0  0
 23 26  1  0  0  0  0
 26 27  1  0  0  0  0
 27 28  1  0  0  0  0
 28 29  2  0  0  0  0
 22 30  1  0  0  0  0
 30 31  2  0  0  0  0
 31 32  1  0  0  0  0
 32 33  2  0  0  0  0
 16 34  1  0  0  0  0
 13  8  1  0  0  0  0
 32 17  1  0  0  0  0
 34 11  1  0  0  0  0
 31 19  1  0  0  0  0
  1 35  1  0  0  0  0
  1 36  1  0  0  0  0
  2 37  1  0  0  0  0
  3 38  1  0  0  0  0
  3 39  1  0  0  0  0
  4 40  1  0  0  0  0
  9 41  1  0  0  0  0
 10 42  1  0  0  0  0
 13 43  1  0  0  0  0
 20 44  1  0  0  0  0
 21 45  1  0  0  0  0
 26 46  1  0  0  0  0
 27 47  1  0  0  0  0
 27 48  1  0  0  0  0
 28 49  1  0  0  0  0
 29 50  1  0  0  0  0
 29 51  1  0  0  0  0
 30 52  1  0  0  0  0
M  END
