
  xtb     03022215073D
 energy: -120.228778597359 gnorm: 0.000204191461 xtb: 6.4.1 (afa7bdf)
 70 78  0     0  0            999 V2000
   -8.3313    1.8143   -0.1601 C   0  0  0  0  0  0  0  0  0  0  0  0
   -6.8829    1.4318   -0.1440 C   0  0  0  0  0  0  0  0  0  0  0  0
   -6.2805    0.9765    1.0226 C   0  0  0  0  0  0  0  0  0  0  0  0
   -4.9405    0.6395    1.0456 C   0  0  0  0  0  0  0  0  0  0  0  0
   -4.1632    0.7574   -0.1022 C   0  0  0  0  0  0  0  0  0  0  0  0
   -2.7307    0.3951   -0.0730 C   0  0  0  0  0  0  0  0  0  0  0  0
   -2.3929   -0.9434    0.1483 C   0  0  0  0  0  0  0  0  0  0  0  0
   -1.1352   -1.4259    0.1462 N   0  0  0  0  0  0  0  0  0  0  0  0
   -1.2315   -2.7567    0.3007 C   0  0  0  0  0  0  0  0  0  0  0  0
   -0.1162   -3.6108    0.3130 C   0  0  0  0  0  0  0  0  0  0  0  0
   -0.3347   -5.0485    0.3292 C   0  0  0  0  0  0  0  0  0  0  0  0
   -1.2449   -5.8192   -0.3538 C   0  0  0  0  0  0  0  0  0  0  0  0
   -0.9895   -7.1587    0.0109 C   0  0  0  0  0  0  0  0  0  0  0  0
    0.0506   -7.1140    0.8883 C   0  0  0  0  0  0  0  0  0  0  0  0
    0.4580   -5.8507    1.0786 O   0  0  0  0  0  0  0  0  0  0  0  0
    1.1876   -3.1063    0.2760 C   0  0  0  0  0  0  0  0  0  0  0  0
    2.3786   -3.8542    0.1964 C   0  0  0  0  0  0  0  0  0  0  0  0
    3.5017   -3.0794    0.1628 C   0  0  0  0  0  0  0  0  0  0  0  0
    3.2295   -1.6975    0.2108 C   0  0  0  0  0  0  0  0  0  0  0  0
    1.5159   -1.3976    0.2553 S   0  0  0  0  0  0  0  0  0  0  0  0
    4.1809   -0.6711    0.1847 C   0  0  0  0  0  0  0  0  0  0  0  0
    5.5844   -1.0328    0.3364 C   0  0  0  0  0  0  0  0  0  0  0  0
    6.1856   -1.9126    1.2044 C   0  0  0  0  0  0  0  0  0  0  0  0
    7.5710   -1.8495    0.9418 C   0  0  0  0  0  0  0  0  0  0  0  0
    7.7175   -0.9462   -0.0668 C   0  0  0  0  0  0  0  0  0  0  0  0
    6.5294   -0.4449   -0.4315 O   0  0  0  0  0  0  0  0  0  0  0  0
    3.8411    0.6819    0.0339 C   0  0  0  0  0  0  0  0  0  0  0  0
    2.5873    1.1349   -0.1526 N   0  0  0  0  0  0  0  0  0  0  0  0
    2.6714    2.4735   -0.2540 C   0  0  0  0  0  0  0  0  0  0  0  0
    1.5566    3.3091   -0.4222 C   0  0  0  0  0  0  0  0  0  0  0  0
    1.7591    4.7457   -0.5475 C   0  0  0  0  0  0  0  0  0  0  0  0
    1.0998    5.8012    0.0350 C   0  0  0  0  0  0  0  0  0  0  0  0
    1.7427    6.9733   -0.4186 C   0  0  0  0  0  0  0  0  0  0  0  0
    2.7401    6.5545   -1.2456 C   0  0  0  0  0  0  0  0  0  0  0  0
    2.7624    5.2169   -1.3223 O   0  0  0  0  0  0  0  0  0  0  0  0
    0.2553    2.7975   -0.4350 C   0  0  0  0  0  0  0  0  0  0  0  0
   -0.9359    3.5185   -0.6554 C   0  0  0  0  0  0  0  0  0  0  0  0
   -2.0592    2.7512   -0.5481 C   0  0  0  0  0  0  0  0  0  0  0  0
   -1.7830    1.3962   -0.2712 C   0  0  0  0  0  0  0  0  0  0  0  0
   -0.0670    1.1123   -0.1569 S   0  0  0  0  0  0  0  0  0  0  0  0
    4.0468    2.9103   -0.1041 C   0  0  0  0  0  0  0  0  0  0  0  0
    4.7773    1.7918    0.0783 C   0  0  0  0  0  0  0  0  0  0  0  0
   -2.6200   -3.1525    0.4500 C   0  0  0  0  0  0  0  0  0  0  0  0
   -3.3466   -2.0200    0.3460 C   0  0  0  0  0  0  0  0  0  0  0  0
   -4.7615    1.2155   -1.2713 C   0  0  0  0  0  0  0  0  0  0  0  0
   -6.1040    1.5438   -1.2894 C   0  0  0  0  0  0  0  0  0  0  0  0
   -8.4403    2.8691    0.0954 H   0  0  0  0  0  0  0  0  0  0  0  0
   -8.7628    1.6613   -1.1466 H   0  0  0  0  0  0  0  0  0  0  0  0
   -8.8944    1.2334    0.5668 H   0  0  0  0  0  0  0  0  0  0  0  0
   -6.8695    0.8827    1.9240 H   0  0  0  0  0  0  0  0  0  0  0  0
   -4.4838    0.2899    1.9601 H   0  0  0  0  0  0  0  0  0  0  0  0
   -1.9750   -5.4719   -1.0554 H   0  0  0  0  0  0  0  0  0  0  0  0
   -1.5077   -8.0304   -0.3325 H   0  0  0  0  0  0  0  0  0  0  0  0
    0.5697   -7.8827    1.4260 H   0  0  0  0  0  0  0  0  0  0  0  0
    2.3907   -4.9280    0.1579 H   0  0  0  0  0  0  0  0  0  0  0  0
    4.4989   -3.4710    0.0734 H   0  0  0  0  0  0  0  0  0  0  0  0
    5.6981   -2.4977    1.9570 H   0  0  0  0  0  0  0  0  0  0  0  0
    8.3470   -2.3986    1.4343 H   0  0  0  0  0  0  0  0  0  0  0  0
    8.5823   -0.5894   -0.5906 H   0  0  0  0  0  0  0  0  0  0  0  0
    0.2887    5.7418    0.7313 H   0  0  0  0  0  0  0  0  0  0  0  0
    1.4964    7.9838   -0.1641 H   0  0  0  0  0  0  0  0  0  0  0  0
    3.4718    7.0912   -1.8167 H   0  0  0  0  0  0  0  0  0  0  0  0
   -0.9417    4.5659   -0.8962 H   0  0  0  0  0  0  0  0  0  0  0  0
   -3.0619    3.1242   -0.6610 H   0  0  0  0  0  0  0  0  0  0  0  0
    4.3880    3.9259   -0.1217 H   0  0  0  0  0  0  0  0  0  0  0  0
    5.8334    1.7154    0.2412 H   0  0  0  0  0  0  0  0  0  0  0  0
   -2.9691   -4.1480    0.6381 H   0  0  0  0  0  0  0  0  0  0  0  0
   -4.4120   -1.9040    0.3905 H   0  0  0  0  0  0  0  0  0  0  0  0
   -4.1711    1.2959   -2.1726 H   0  0  0  0  0  0  0  0  0  0  0  0
   -6.5556    1.8908   -2.2081 H   0  0  0  0  0  0  0  0  0  0  0  0
  1  2  1  0  0  0  0
  2  3  2  0  0  0  0
  3  4  1  0  0  0  0
  4  5  2  0  0  0  0
  5  6  1  0  0  0  0
  6  7  1  0  0  0  0
  7  8  2  0  0  0  0
  8  9  1  0  0  0  0
  9 10  2  0  0  0  0
 10 11  1  0  0  0  0
 11 12  2  0  0  0  0
 12 13  1  0  0  0  0
 13 14  2  0  0  0  0
 14 15  1  0  0  0  0
 10 16  1  0  0  0  0
 16 17  2  0  0  0  0
 17 18  1  0  0  0  0
 18 19  2  0  0  0  0
 19 20  1  0  0  0  0
 19 21  1  0  0  0  0
 21 22  1  0  0  0  0
 22 23  2  0  0  0  0
 23 24  1  0  0  0  0
 24 25  2  0  0  0  0
 25 26  1  0  0  0  0
 21 27  2  0  0  0  0
 27 28  1  0  0  0  0
 28 29  2  0  0  0  0
 29 30  1  0  0  0  0
 30 31  1  0  0  0  0
 31 32  2  0  0  0  0
 32 33  1  0  0  0  0
 33 34  2  0  0  0  0
 34 35  1  0  0  0  0
 30 36  2  0  0  0  0
 36 37  1  0  0  0  0
 37 38  2  0  0  0  0
 38 39  1  0  0  0  0
 39 40  1  0  0  0  0
 29 41  1  0  0  0  0
 41 42  2  0  0  0  0
  9 43  1  0  0  0  0
 43 44  2  0  0  0  0
  5 45  1  0  0  0  0
 45 46  2  0  0  0  0
 46  2  1  0  0  0  0
 39  6  2  0  0  0  0
 44  7  1  0  0  0  0
 15 11  1  0  0  0  0
 20 16  1  0  0  0  0
 26 22  1  0  0  0  0
 42 27  1  0  0  0  0
 35 31  1  0  0  0  0
 40 36  1  0  0  0  0
  1 47  1  0  0  0  0
  1 48  1  0  0  0  0
  1 49  1  0  0  0  0
  3 50  1  0  0  0  0
  4 51  1  0  0  0  0
 12 52  1  0  0  0  0
 13 53  1  0  0  0  0
 14 54  1  0  0  0  0
 17 55  1  0  0  0  0
 18 56  1  0  0  0  0
 23 57  1  0  0  0  0
 24 58  1  0  0  0  0
 25 59  1  0  0  0  0
 32 60  1  0  0  0  0
 33 61  1  0  0  0  0
 34 62  1  0  0  0  0
 37 63  1  0  0  0  0
 38 64  1  0  0  0  0
 41 65  1  0  0  0  0
 42 66  1  0  0  0  0
 43 67  1  0  0  0  0
 44 68  1  0  0  0  0
 45 69  1  0  0  0  0
 46 70  1  0  0  0  0
M  END
