
  xtb     03022216043D
 energy: -64.018919878038 gnorm: 0.000151147198 xtb: 6.4.1 (afa7bdf)
 38 39  0     0  0            999 V2000
   -4.4601    1.7365   -0.3923 C   0  0  0  0  0  0  0  0  0  0  0  0
   -3.9368    0.7279    0.5018 N   0  0  0  0  0  0  0  0  0  0  0  0
   -4.9097   -0.1109    1.1630 C   0  0  0  0  0  0  0  0  0  0  0  0
   -5.2752   -1.3565    0.3319 C   0  0  0  0  0  0  0  0  0  0  0  0
   -5.9219   -1.0350   -0.8720 O   0  0  0  0  0  0  0  0  0  0  0  0
   -2.6222    0.3741    0.4399 C   0  0  0  0  0  0  0  0  0  0  0  0
   -2.0879   -0.6613    1.2365 C   0  0  0  0  0  0  0  0  0  0  0  0
   -0.7541   -0.9717    1.2032 C   0  0  0  0  0  0  0  0  0  0  0  0
    0.1304   -0.2786    0.3633 C   0  0  0  0  0  0  0  0  0  0  0  0
    1.4423   -0.6485    0.4146 N   0  0  0  0  0  0  0  0  0  0  0  0
    2.2481   -0.1312   -0.4025 N   0  0  0  0  0  0  0  0  0  0  0  0
    3.5891   -0.2226   -0.3379 C   0  0  0  0  0  0  0  0  0  0  0  0
    4.3178   -0.4673   -1.5200 C   0  0  0  0  0  0  0  0  0  0  0  0
    5.6849   -0.3900   -1.5197 C   0  0  0  0  0  0  0  0  0  0  0  0
    6.3636   -0.0404   -0.3480 C   0  0  0  0  0  0  0  0  0  0  0  0
    7.7810    0.0438   -0.3519 N   0  0  0  0  0  4  0  0  0  0  0  0
    8.3697   -0.2235   -1.3871 O   0  0  0  0  0  0  0  0  0  0  0  0
    8.3391    0.3809    0.6801 O   0  0  0  0  0  1  0  0  0  0  0  0
    5.6566    0.2211    0.8275 C   0  0  0  0  0  0  0  0  0  0  0  0
    4.2896    0.1284    0.8367 C   0  0  0  0  0  0  0  0  0  0  0  0
   -0.3926    0.7472   -0.4437 C   0  0  0  0  0  0  0  0  0  0  0  0
   -1.7239    1.0615   -0.4064 C   0  0  0  0  0  0  0  0  0  0  0  0
   -5.4912    1.9537   -0.1226 H   0  0  0  0  0  0  0  0  0  0  0  0
   -4.4405    1.4046   -1.4344 H   0  0  0  0  0  0  0  0  0  0  0  0
   -3.8894    2.6609   -0.2959 H   0  0  0  0  0  0  0  0  0  0  0  0
   -5.8112    0.4841    1.3352 H   0  0  0  0  0  0  0  0  0  0  0  0
   -4.5359   -0.4246    2.1393 H   0  0  0  0  0  0  0  0  0  0  0  0
   -5.8910   -2.0289    0.9449 H   0  0  0  0  0  0  0  0  0  0  0  0
   -4.3634   -1.8825    0.0404 H   0  0  0  0  0  0  0  0  0  0  0  0
   -6.7870   -0.6555   -0.6813 H   0  0  0  0  0  0  0  0  0  0  0  0
   -2.7236   -1.2325    1.8923 H   0  0  0  0  0  0  0  0  0  0  0  0
   -0.3599   -1.7636    1.8210 H   0  0  0  0  0  0  0  0  0  0  0  0
    3.7788   -0.7420   -2.4131 H   0  0  0  0  0  0  0  0  0  0  0  0
    6.2588   -0.5886   -2.4119 H   0  0  0  0  0  0  0  0  0  0  0  0
    6.2074    0.4763    1.7203 H   0  0  0  0  0  0  0  0  0  0  0  0
    3.7215    0.3283    1.7326 H   0  0  0  0  0  0  0  0  0  0  0  0
    0.2793    1.2802   -1.1002 H   0  0  0  0  0  0  0  0  0  0  0  0
   -2.0801    1.8459   -1.0527 H   0  0  0  0  0  0  0  0  0  0  0  0
  1  2  1  0  0  0  0
  2  3  1  0  0  0  0
  3  4  1  0  0  0  0
  4  5  1  0  0  0  0
  2  6  1  0  0  0  0
  6  7  2  0  0  0  0
  7  8  1  0  0  0  0
  8  9  2  0  0  0  0
  9 10  1  0  0  0  0
 10 11  2  0  0  0  0
 11 12  1  0  0  0  0
 12 13  2  0  0  0  0
 13 14  1  0  0  0  0
 14 15  2  0  0  0  0
 15 16  1  0  0  0  0
 16 17  2  0  0  0  0
 16 18  1  0  0  0  0
 15 19  1  0  0  0  0
 19 20  2  0  0  0  0
  9 21  1  0  0  0  0
 21 22  2  0  0  0  0
 22  6  1  0  0  0  0
 20 12  1  0  0  0  0
  1 23  1  0  0  0  0
  1 24  1  0  0  0  0
  1 25  1  0  0  0  0
  3 26  1  0  0  0  0
  3 27  1  0  0  0  0
  4 28  1  0  0  0  0
  4 29  1  0  0  0  0
  5 30  1  0  0  0  0
  7 31  1  0  0  0  0
  8 32  1  0  0  0  0
 13 33  1  0  0  0  0
 14 34  1  0  0  0  0
 19 35  1  0  0  0  0
 20 36  1  0  0  0  0
 21 37  1  0  0  0  0
 22 38  1  0  0  0  0
M  CHG  1  16   1
M  CHG  1  18  -1
M  END
