
  xtb     03022212203D
 energy: -106.605924011470 gnorm: 0.000178278085 xtb: 6.4.1 (afa7bdf)
 67 70  0     0  0            999 V2000
    8.0463    1.0784    0.0762 C   0  0  0  0  0  0  0  0  0  0  0  0
    8.9211    0.0898    0.8438 C   0  0  0  0  0  0  0  0  0  0  0  0
    9.1357   -1.1526    0.2048 O   0  0  0  0  0  0  0  0  0  0  0  0
    8.0425   -2.0380    0.1723 C   0  0  0  0  0  0  0  0  0  0  0  0
    7.2509   -1.9541   -1.1451 C   0  0  0  0  0  0  0  0  0  0  0  0
    6.3315   -3.0312   -1.2693 O   0  0  0  0  0  0  0  0  0  0  0  0
    4.9768   -2.6759   -1.2451 C   0  0  0  0  0  0  0  0  0  0  0  0
    4.4593   -2.3194    0.1625 C   0  0  0  0  0  0  0  0  0  0  0  0
    3.2894   -1.5173    0.0919 O   0  0  0  0  0  0  0  0  0  0  0  0
    3.4916   -0.1942   -0.0758 C   0  0  0  0  0  0  0  0  0  0  0  0
    4.5960    0.2974   -0.1445 O   0  0  0  0  0  0  0  0  0  0  0  0
    2.2503    0.5768   -0.1519 C   0  0  0  0  0  0  0  0  0  0  0  0
    1.0290    0.0246   -0.1072 C   0  0  0  0  0  0  0  0  0  0  0  0
   -0.2093    0.7465   -0.1760 C   0  0  0  0  0  0  0  0  0  0  0  0
   -1.4886    0.1944   -0.1332 C   0  0  0  0  0  0  0  0  0  0  0  0
   -2.4030    1.2572   -0.2233 C   0  0  0  0  0  0  0  0  0  0  0  0
   -3.8000    1.2495   -0.2181 C   0  0  0  0  0  0  0  0  0  0  0  0
   -4.5300   -0.0290   -0.1144 C   0  0  0  0  0  0  0  0  0  0  0  0
   -4.8817   -0.5228    1.1423 C   0  0  0  0  0  0  0  0  0  0  0  0
   -4.5176    0.2420    2.3785 C   0  0  0  0  0  0  0  0  0  0  0  0
   -5.5671   -1.7255    1.2198 C   0  0  0  0  0  0  0  0  0  0  0  0
   -5.9067   -2.4410    0.0806 C   0  0  0  0  0  0  0  0  0  0  0  0
   -6.6674   -3.7273    0.1793 C   0  0  0  0  0  0  0  0  0  0  0  0
   -5.5453   -1.9294   -1.1585 C   0  0  0  0  0  0  0  0  0  0  0  0
   -4.8596   -0.7309   -1.2752 C   0  0  0  0  0  0  0  0  0  0  0  0
   -4.4722   -0.1870   -2.6167 C   0  0  0  0  0  0  0  0  0  0  0  0
   -4.4965    2.4492   -0.3073 C   0  0  0  0  0  0  0  0  0  0  0  0
   -5.8906    2.6967   -0.3141 C   0  0  0  0  0  0  0  0  0  0  0  0
   -6.0522    4.0597   -0.4158 C   0  0  0  0  0  0  0  0  0  0  0  0
   -4.7679    4.6187   -0.4701 C   0  0  0  0  0  0  0  0  0  0  0  0
   -3.8491    3.6632   -0.4055 N   0  0  0  0  0  0  0  0  0  0  0  0
   -2.3128    3.8491   -0.4426 B   0  0  0  0  0  4  0  0  0  0  0  0
   -1.9063    4.6291    0.6142 F   0  0  0  0  0  0  0  0  0  0  0  0
   -1.9371    4.4193   -1.6364 F   0  0  0  0  0  0  0  0  0  0  0  0
   -1.6856    2.4336   -0.3199 N   0  0  0  0  0  4  0  0  0  0  0  0
   -0.3955    2.1432   -0.2935 C   0  0  0  0  0  0  0  0  0  0  0  0
    8.1250    2.0573    0.5425 H   0  0  0  0  0  0  0  0  0  0  0  0
    8.3885    1.1534   -0.9529 H   0  0  0  0  0  0  0  0  0  0  0  0
    7.0001    0.7849    0.0828 H   0  0  0  0  0  0  0  0  0  0  0  0
    9.9278    0.5026    0.9562 H   0  0  0  0  0  0  0  0  0  0  0  0
    8.4994   -0.0761    1.8472 H   0  0  0  0  0  0  0  0  0  0  0  0
    7.3852   -1.8700    1.0353 H   0  0  0  0  0  0  0  0  0  0  0  0
    8.4573   -3.0491    0.2483 H   0  0  0  0  0  0  0  0  0  0  0  0
    6.7335   -0.9951   -1.2264 H   0  0  0  0  0  0  0  0  0  0  0  0
    7.9671   -2.0372   -1.9706 H   0  0  0  0  0  0  0  0  0  0  0  0
    4.4347   -3.5406   -1.6363 H   0  0  0  0  0  0  0  0  0  0  0  0
    4.7883   -1.8170   -1.9062 H   0  0  0  0  0  0  0  0  0  0  0  0
    5.2361   -1.7674    0.7006 H   0  0  0  0  0  0  0  0  0  0  0  0
    4.1845   -3.2127    0.7244 H   0  0  0  0  0  0  0  0  0  0  0  0
    2.3964    1.6414   -0.2518 H   0  0  0  0  0  0  0  0  0  0  0  0
    0.9437   -1.0496   -0.0104 H   0  0  0  0  0  0  0  0  0  0  0  0
   -1.7483   -0.8427   -0.0464 H   0  0  0  0  0  0  0  0  0  0  0  0
   -3.4390    0.3842    2.4368 H   0  0  0  0  0  0  0  0  0  0  0  0
   -4.9793    1.2287    2.3671 H   0  0  0  0  0  0  0  0  0  0  0  0
   -4.8480   -0.2862    3.2689 H   0  0  0  0  0  0  0  0  0  0  0  0
   -5.8409   -2.1122    2.1909 H   0  0  0  0  0  0  0  0  0  0  0  0
   -6.3450   -4.4276   -0.5879 H   0  0  0  0  0  0  0  0  0  0  0  0
   -7.7320   -3.5405    0.0358 H   0  0  0  0  0  0  0  0  0  0  0  0
   -6.5334   -4.1852    1.1560 H   0  0  0  0  0  0  0  0  0  0  0  0
   -5.8034   -2.4774   -2.0533 H   0  0  0  0  0  0  0  0  0  0  0  0
   -4.8160   -0.8432   -3.4117 H   0  0  0  0  0  0  0  0  0  0  0  0
   -3.3898   -0.0872   -2.6906 H   0  0  0  0  0  0  0  0  0  0  0  0
   -4.9046    0.8014   -2.7681 H   0  0  0  0  0  0  0  0  0  0  0  0
   -6.6495    1.9415   -0.2499 H   0  0  0  0  0  0  0  0  0  0  0  0
   -6.9732    4.6069   -0.4486 H   0  0  0  0  0  0  0  0  0  0  0  0
   -4.4831    5.6503   -0.5512 H   0  0  0  0  0  0  0  0  0  0  0  0
    0.3400    2.9214   -0.3567 H   0  0  0  0  0  0  0  0  0  0  0  0
  1  2  1  0  0  0  0
  2  3  1  0  0  0  0
  3  4  1  0  0  0  0
  4  5  1  0  0  0  0
  5  6  1  0  0  0  0
  6  7  1  0  0  0  0
  7  8  1  0  0  0  0
  8  9  1  0  0  0  0
  9 10  1  0  0  0  0
 10 11  2  0  0  0  0
 10 12  1  0  0  0  0
 12 13  2  0  0  0  0
 13 14  1  0  0  0  0
 14 15  2  0  0  0  0
 15 16  1  0  0  0  0
 16 17  2  0  0  0  0
 17 18  1  0  0  0  0
 18 19  2  0  0  0  0
 19 20  1  0  0  0  0
 19 21  1  0  0  0  0
 21 22  2  0  0  0  0
 22 23  1  0  0  0  0
 22 24  1  0  0  0  0
 24 25  2  0  0  0  0
 25 26  1  0  0  0  0
 17 27  1  0  0  0  0
 27 28  2  0  0  0  0
 28 29  1  0  0  0  0
 29 30  2  0  0  0  0
 30 31  1  0  0  0  0
 31 32  1  0  0  0  0
 32 33  1  0  0  0  0
 32 34  1  0  0  0  0
 32 35  1  0  0  0  0
 35 36  2  0  0  0  0
 36 14  1  0  0  0  0
 35 16  1  0  0  0  0
 25 18  1  0  0  0  0
 31 27  1  0  0  0  0
  1 37  1  0  0  0  0
  1 38  1  0  0  0  0
  1 39  1  0  0  0  0
  2 40  1  0  0  0  0
  2 41  1  0  0  0  0
  4 42  1  0  0  0  0
  4 43  1  0  0  0  0
  5 44  1  0  0  0  0
  5 45  1  0  0  0  0
  7 46  1  0  0  0  0
  7 47  1  0  0  0  0
  8 48  1  0  0  0  0
  8 49  1  0  0  0  0
 12 50  1  0  0  0  0
 13 51  1  0  0  0  0
 15 52  1  0  0  0  0
 20 53  1  0  0  0  0
 20 54  1  0  0  0  0
 20 55  1  0  0  0  0
 21 56  1  0  0  0  0
 23 57  1  0  0  0  0
 23 58  1  0  0  0  0
 23 59  1  0  0  0  0
 24 60  1  0  0  0  0
 26 61  1  0  0  0  0
 26 62  1  0  0  0  0
 26 63  1  0  0  0  0
 28 64  1  0  0  0  0
 29 65  1  0  0  0  0
 30 66  1  0  0  0  0
 36 67  1  0  0  0  0
M  CHG  1  32  -1
M  CHG  1  35   1
M  END
