
  xtb     03022213063D
 energy: -150.463378223610 gnorm: 0.000279121010 xtb: 6.4.1 (afa7bdf)
 94103  0     0  0            999 V2000
   -1.7711   10.5180    2.7415 N   0  0  0  0  0  0  0  0  0  0  0  0
   -1.2418    9.5272    2.5168 C   0  0  0  0  0  0  0  0  0  0  0  0
   -0.5518    8.3193    2.2451 C   0  0  0  0  0  0  0  0  0  0  0  0
   -1.2511    7.2466    1.9153 N   0  0  0  0  0  0  0  0  0  0  0  0
   -0.5934    6.1165    1.6611 C   0  0  0  0  0  0  0  0  0  0  0  0
   -1.3351    4.9386    1.3069 C   0  0  0  0  0  0  0  0  0  0  0  0
   -2.7333    4.9891    1.2470 C   0  0  0  0  0  0  0  0  0  0  0  0
   -3.4622    3.8740    0.9239 C   0  0  0  0  0  0  0  0  0  0  0  0
   -2.8118    2.6653    0.6416 C   0  0  0  0  0  0  0  0  0  0  0  0
   -3.5843    1.4659    0.3028 C   0  0  0  0  0  0  0  0  0  0  0  0
   -3.1550    0.5888   -0.6930 C   0  0  0  0  0  0  0  0  0  0  0  0
   -3.8822   -0.5375   -1.0112 C   0  0  0  0  0  0  0  0  0  0  0  0
   -5.0671   -0.8317   -0.3330 C   0  0  0  0  0  0  0  0  0  0  0  0
   -5.8029   -1.9726   -0.6465 N   0  0  0  0  0  0  0  0  0  0  0  0
   -5.8724   -2.4273   -1.9702 C   0  0  0  0  0  0  0  0  0  0  0  0
   -5.9526   -1.5208   -3.0267 C   0  0  0  0  0  0  0  0  0  0  0  0
   -6.0247   -1.9758   -4.3290 C   0  0  0  0  0  0  0  0  0  0  0  0
   -6.0270   -3.3345   -4.5987 C   0  0  0  0  0  0  0  0  0  0  0  0
   -5.9520   -4.2389   -3.5521 C   0  0  0  0  0  0  0  0  0  0  0  0
   -5.8710   -3.7939   -2.2469 C   0  0  0  0  0  0  0  0  0  0  0  0
   -6.4850   -2.6691    0.3607 C   0  0  0  0  0  0  0  0  0  0  0  0
   -7.7409   -3.2206    0.1111 C   0  0  0  0  0  0  0  0  0  0  0  0
   -8.4049   -3.9145    1.1040 C   0  0  0  0  0  0  0  0  0  0  0  0
   -7.8351   -4.0628    2.3580 C   0  0  0  0  0  0  0  0  0  0  0  0
   -6.5889   -3.5138    2.6116 C   0  0  0  0  0  0  0  0  0  0  0  0
   -5.9132   -2.8254    1.6228 C   0  0  0  0  0  0  0  0  0  0  0  0
   -5.4993    0.0420    0.6674 C   0  0  0  0  0  0  0  0  0  0  0  0
   -4.7715    1.1709    0.9731 C   0  0  0  0  0  0  0  0  0  0  0  0
   -1.4263    2.6181    0.6938 C   0  0  0  0  0  0  0  0  0  0  0  0
   -0.6550    3.7338    1.0253 C   0  0  0  0  0  0  0  0  0  0  0  0
    0.7982    3.6883    1.0959 C   0  0  0  0  0  0  0  0  0  0  0  0
    1.5278    2.5305    0.8196 C   0  0  0  0  0  0  0  0  0  0  0  0
    2.9118    2.4898    0.9067 C   0  0  0  0  0  0  0  0  0  0  0  0
    3.6379    1.2514    0.6130 C   0  0  0  0  0  0  0  0  0  0  0  0
    3.2604    0.4305   -0.4498 C   0  0  0  0  0  0  0  0  0  0  0  0
    3.9481   -0.7290   -0.7327 C   0  0  0  0  0  0  0  0  0  0  0  0
    5.0315   -1.1228    0.0567 C   0  0  0  0  0  0  0  0  0  0  0  0
    5.7226   -2.2993   -0.2179 N   0  0  0  0  0  0  0  0  0  0  0  0
    7.0989   -2.3863    0.0382 C   0  0  0  0  0  0  0  0  0  0  0  0
    7.6449   -3.5603    0.5548 C   0  0  0  0  0  0  0  0  0  0  0  0
    9.0017   -3.6465    0.7998 C   0  0  0  0  0  0  0  0  0  0  0  0
    9.8310   -2.5673    0.5421 C   0  0  0  0  0  0  0  0  0  0  0  0
    9.2926   -1.3982    0.0300 C   0  0  0  0  0  0  0  0  0  0  0  0
    7.9383   -1.3050   -0.2261 C   0  0  0  0  0  0  0  0  0  0  0  0
    5.0529   -3.4095   -0.7500 C   0  0  0  0  0  0  0  0  0  0  0  0
    5.6736   -4.2129   -1.7057 C   0  0  0  0  0  0  0  0  0  0  0  0
    5.0158   -5.3116   -2.2238 C   0  0  0  0  0  0  0  0  0  0  0  0
    3.7320   -5.6221   -1.8064 C   0  0  0  0  0  0  0  0  0  0  0  0
    3.1107   -4.8262   -0.8580 C   0  0  0  0  0  0  0  0  0  0  0  0
    3.7636   -3.7307   -0.3272 C   0  0  0  0  0  0  0  0  0  0  0  0
    5.4071   -0.3082    1.1279 C   0  0  0  0  0  0  0  0  0  0  0  0
    4.7283    0.8611    1.3905 C   0  0  0  0  0  0  0  0  0  0  0  0
    3.6046    3.6487    1.2821 C   0  0  0  0  0  0  0  0  0  0  0  0
    2.9181    4.8050    1.5480 C   0  0  0  0  0  0  0  0  0  0  0  0
    1.5210    4.8451    1.4606 C   0  0  0  0  0  0  0  0  0  0  0  0
    0.8237    6.0688    1.7419 C   0  0  0  0  0  0  0  0  0  0  0  0
    1.5224    7.1525    2.0767 N   0  0  0  0  0  0  0  0  0  0  0  0
    0.8636    8.2708    2.3289 C   0  0  0  0  0  0  0  0  0  0  0  0
    1.5977    9.4295    2.6862 C   0  0  0  0  0  0  0  0  0  0  0  0
    2.1637   10.3817    2.9782 N   0  0  0  0  0  0  0  0  0  0  0  0
   -3.2163    5.9295    1.4619 H   0  0  0  0  0  0  0  0  0  0  0  0
   -4.5387    3.9273    0.8656 H   0  0  0  0  0  0  0  0  0  0  0  0
   -2.2486    0.8036   -1.2399 H   0  0  0  0  0  0  0  0  0  0  0  0
   -3.5351   -1.2043   -1.7868 H   0  0  0  0  0  0  0  0  0  0  0  0
   -5.9636   -0.4609   -2.8180 H   0  0  0  0  0  0  0  0  0  0  0  0
   -6.0896   -1.2634   -5.1382 H   0  0  0  0  0  0  0  0  0  0  0  0
   -6.0880   -3.6861   -5.6173 H   0  0  0  0  0  0  0  0  0  0  0  0
   -5.9491   -5.3001   -3.7533 H   0  0  0  0  0  0  0  0  0  0  0  0
   -5.8049   -4.5005   -1.4325 H   0  0  0  0  0  0  0  0  0  0  0  0
   -8.1904   -3.0985   -0.8635 H   0  0  0  0  0  0  0  0  0  0  0  0
   -9.3782   -4.3352    0.8990 H   0  0  0  0  0  0  0  0  0  0  0  0
   -8.3584   -4.6030    3.1321 H   0  0  0  0  0  0  0  0  0  0  0  0
   -6.1344   -3.6297    3.5844 H   0  0  0  0  0  0  0  0  0  0  0  0
   -4.9366   -2.4074    1.8192 H   0  0  0  0  0  0  0  0  0  0  0  0
   -6.4155   -0.1708    1.1983 H   0  0  0  0  0  0  0  0  0  0  0  0
   -5.1183    1.8269    1.7577 H   0  0  0  0  0  0  0  0  0  0  0  0
   -0.9483    1.6726    0.4945 H   0  0  0  0  0  0  0  0  0  0  0  0
    1.0153    1.6211    0.5502 H   0  0  0  0  0  0  0  0  0  0  0  0
    2.4402    0.7268   -1.0874 H   0  0  0  0  0  0  0  0  0  0  0  0
    3.6570   -1.3376   -1.5761 H   0  0  0  0  0  0  0  0  0  0  0  0
    6.9978   -4.3997    0.7637 H   0  0  0  0  0  0  0  0  0  0  0  0
    9.4125   -4.5605    1.2026 H   0  0  0  0  0  0  0  0  0  0  0  0
   10.8900   -2.6371    0.7383 H   0  0  0  0  0  0  0  0  0  0  0  0
    9.9331   -0.5544   -0.1804 H   0  0  0  0  0  0  0  0  0  0  0  0
    7.5217   -0.3966   -0.6360 H   0  0  0  0  0  0  0  0  0  0  0  0
    6.6714   -3.9673   -2.0387 H   0  0  0  0  0  0  0  0  0  0  0  0
    5.5068   -5.9247   -2.9650 H   0  0  0  0  0  0  0  0  0  0  0  0
    3.2196   -6.4790   -2.2164 H   0  0  0  0  0  0  0  0  0  0  0  0
    2.1126   -5.0651   -0.5213 H   0  0  0  0  0  0  0  0  0  0  0  0
    3.2821   -3.1193    0.4220 H   0  0  0  0  0  0  0  0  0  0  0  0
    6.2326   -0.6062    1.7572 H   0  0  0  0  0  0  0  0  0  0  0  0
    5.0231    1.4651    2.2360 H   0  0  0  0  0  0  0  0  0  0  0  0
    4.6825    3.6317    1.3370 H   0  0  0  0  0  0  0  0  0  0  0  0
    3.4347    5.7101    1.8271 H   0  0  0  0  0  0  0  0  0  0  0  0
  1  2  3  0  0  0  0
  2  3  1  0  0  0  0
  3  4  2  0  0  0  0
  4  5  1  0  0  0  0
  5  6  2  0  0  0  0
  6  7  1  0  0  0  0
  7  8  2  0  0  0  0
  8  9  1  0  0  0  0
  9 10  1  0  0  0  0
 10 11  2  0  0  0  0
 11 12  1  0  0  0  0
 12 13  2  0  0  0  0
 13 14  1  0  0  0  0
 14 15  1  0  0  0  0
 15 16  2  0  0  0  0
 16 17  1  0  0  0  0
 17 18  2  0  0  0  0
 18 19  1  0  0  0  0
 19 20  2  0  0  0  0
 14 21  1  0  0  0  0
 21 22  2  0  0  0  0
 22 23  1  0  0  0  0
 23 24  2  0  0  0  0
 24 25  1  0  0  0  0
 25 26  2  0  0  0  0
 13 27  1  0  0  0  0
 27 28  2  0  0  0  0
  9 29  2  0  0  0  0
 29 30  1  0  0  0  0
 30 31  2  0  0  0  0
 31 32  1  0  0  0  0
 32 33  2  0  0  0  0
 33 34  1  0  0  0  0
 34 35  2  0  0  0  0
 35 36  1  0  0  0  0
 36 37  2  0  0  0  0
 37 38  1  0  0  0  0
 38 39  1  0  0  0  0
 39 40  2  0  0  0  0
 40 41  1  0  0  0  0
 41 42  2  0  0  0  0
 42 43  1  0  0  0  0
 43 44  2  0  0  0  0
 38 45  1  0  0  0  0
 45 46  2  0  0  0  0
 46 47  1  0  0  0  0
 47 48  2  0  0  0  0
 48 49  1  0  0  0  0
 49 50  2  0  0  0  0
 37 51  1  0  0  0  0
 51 52  2  0  0  0  0
 33 53  1  0  0  0  0
 53 54  2  0  0  0  0
 54 55  1  0  0  0  0
 55 56  2  0  0  0  0
 56 57  1  0  0  0  0
 57 58  2  0  0  0  0
 58 59  1  0  0  0  0
 59 60  3  0  0  0  0
 58  3  1  0  0  0  0
 56  5  1  0  0  0  0
 30  6  1  0  0  0  0
 55 31  1  0  0  0  0
 28 10  1  0  0  0  0
 52 34  1  0  0  0  0
 20 15  1  0  0  0  0
 26 21  1  0  0  0  0
 44 39  1  0  0  0  0
 50 45  1  0  0  0  0
  7 61  1  0  0  0  0
  8 62  1  0  0  0  0
 11 63  1  0  0  0  0
 12 64  1  0  0  0  0
 16 65  1  0  0  0  0
 17 66  1  0  0  0  0
 18 67  1  0  0  0  0
 19 68  1  0  0  0  0
 20 69  1  0  0  0  0
 22 70  1  0  0  0  0
 23 71  1  0  0  0  0
 24 72  1  0  0  0  0
 25 73  1  0  0  0  0
 26 74  1  0  0  0  0
 27 75  1  0  0  0  0
 28 76  1  0  0  0  0
 29 77  1  0  0  0  0
 32 78  1  0  0  0  0
 35 79  1  0  0  0  0
 36 80  1  0  0  0  0
 40 81  1  0  0  0  0
 41 82  1  0  0  0  0
 42 83  1  0  0  0  0
 43 84  1  0  0  0  0
 44 85  1  0  0  0  0
 46 86  1  0  0  0  0
 47 87  1  0  0  0  0
 48 88  1  0  0  0  0
 49 89  1  0  0  0  0
 50 90  1  0  0  0  0
 51 91  1  0  0  0  0
 52 92  1  0  0  0  0
 53 93  1  0  0  0  0
 54 94  1  0  0  0  0
M  END
