
  xtb     03022215213D
 energy: -101.041870348337 gnorm: 0.000287197017 xtb: 6.4.1 (afa7bdf)
 57 61  0     0  0            999 V2000
    2.1361    5.3909   -0.1596 C   0  0  0  0  0  0  0  0  0  0  0  0
    1.6210    3.9864   -0.1070 C   0  0  0  0  0  0  0  0  0  0  0  0
    0.6470    3.6169    0.8124 C   0  0  0  0  0  0  0  0  0  0  0  0
    0.1569    2.3252    0.8513 C   0  0  0  0  0  0  0  0  0  0  0  0
    0.6410    1.3789   -0.0424 C   0  0  0  0  0  0  0  0  0  0  0  0
    0.1317    0.0654   -0.0274 N   0  0  0  0  0  0  0  0  0  0  0  0
    0.8290   -1.1061    0.0593 C   0  0  0  0  0  0  0  0  0  0  0  0
    2.2519   -1.2489    0.2951 C   0  0  0  0  0  0  0  0  0  0  0  0
    3.0033   -0.2951    0.9846 C   0  0  0  0  0  0  0  0  0  0  0  0
    4.3537   -0.4898    1.1887 C   0  0  0  0  0  0  0  0  0  0  0  0
    4.9681   -1.6442    0.7167 C   0  0  0  0  0  0  0  0  0  0  0  0
    6.4406   -1.8108    0.9484 C   0  0  0  0  0  0  0  0  0  0  0  0
    6.9348   -2.9564    0.4621 F   0  0  0  0  0  0  0  0  0  0  0  0
    6.7583   -1.7854    2.2575 F   0  0  0  0  0  0  0  0  0  0  0  0
    7.1578   -0.8190    0.3809 F   0  0  0  0  0  0  0  0  0  0  0  0
    4.2271   -2.6152    0.0553 C   0  0  0  0  0  0  0  0  0  0  0  0
    2.8780   -2.4160   -0.1504 C   0  0  0  0  0  0  0  0  0  0  0  0
    0.0165   -2.1353   -0.0548 N   0  0  0  0  0  0  0  0  0  0  0  0
   -1.2449   -1.6481   -0.2169 C   0  0  0  0  0  0  0  0  0  0  0  0
   -2.3851   -2.5335   -0.3971 C   0  0  0  0  0  0  0  0  0  0  0  0
   -3.5694   -2.0752   -0.9713 C   0  0  0  0  0  0  0  0  0  0  0  0
   -4.6683   -2.9000   -1.1000 C   0  0  0  0  0  0  0  0  0  0  0  0
   -4.6006   -4.2115   -0.6553 C   0  0  0  0  0  0  0  0  0  0  0  0
   -3.4289   -4.6968   -0.1129 C   0  0  0  0  0  0  0  0  0  0  0  0
   -2.3068   -3.8796    0.0079 C   0  0  0  0  0  0  0  0  0  0  0  0
   -1.1847   -4.4196    0.5177 O   0  0  0  0  0  0  0  0  0  0  0  0
   -1.1932   -0.2620   -0.1906 C   0  0  0  0  0  0  0  0  0  0  0  0
   -2.2359    0.7540   -0.2841 C   0  0  0  0  0  0  0  0  0  0  0  0
   -2.1815    1.7646   -1.2363 C   0  0  0  0  0  0  0  0  0  0  0  0
   -3.1770    2.7218   -1.3127 C   0  0  0  0  0  0  0  0  0  0  0  0
   -4.2430    2.6767   -0.4322 C   0  0  0  0  0  0  0  0  0  0  0  0
   -4.3095    1.6825    0.5286 C   0  0  0  0  0  0  0  0  0  0  0  0
   -3.3112    0.7233    0.6177 C   0  0  0  0  0  0  0  0  0  0  0  0
   -3.3190   -0.2438    1.5705 O   0  0  0  0  0  0  0  0  0  0  0  0
    1.6110    1.7347   -0.9728 C   0  0  0  0  0  0  0  0  0  0  0  0
    2.0957    3.0274   -0.9957 C   0  0  0  0  0  0  0  0  0  0  0  0
    1.9885    5.8960    0.7915 H   0  0  0  0  0  0  0  0  0  0  0  0
    3.1946    5.4056   -0.4088 H   0  0  0  0  0  0  0  0  0  0  0  0
    1.6037    5.9527   -0.9277 H   0  0  0  0  0  0  0  0  0  0  0  0
    0.2675    4.3480    1.5109 H   0  0  0  0  0  0  0  0  0  0  0  0
   -0.5937    2.0438    1.5742 H   0  0  0  0  0  0  0  0  0  0  0  0
    2.5335    0.5921    1.3786 H   0  0  0  0  0  0  0  0  0  0  0  0
    4.9365    0.2477    1.7195 H   0  0  0  0  0  0  0  0  0  0  0  0
    4.7068   -3.5156   -0.2959 H   0  0  0  0  0  0  0  0  0  0  0  0
    2.2857   -3.1585   -0.6609 H   0  0  0  0  0  0  0  0  0  0  0  0
   -3.6182   -1.0601   -1.3357 H   0  0  0  0  0  0  0  0  0  0  0  0
   -5.5750   -2.5230   -1.5494 H   0  0  0  0  0  0  0  0  0  0  0  0
   -5.4595   -4.8601   -0.7450 H   0  0  0  0  0  0  0  0  0  0  0  0
   -3.3478   -5.7194    0.2210 H   0  0  0  0  0  0  0  0  0  0  0  0
   -0.4717   -3.7460    0.4631 H   0  0  0  0  0  0  0  0  0  0  0  0
   -1.3558    1.7872   -1.9326 H   0  0  0  0  0  0  0  0  0  0  0  0
   -3.1218    3.4968   -2.0613 H   0  0  0  0  0  0  0  0  0  0  0  0
   -5.0270    3.4164   -0.4884 H   0  0  0  0  0  0  0  0  0  0  0  0
   -5.1396    1.6491    1.2219 H   0  0  0  0  0  0  0  0  0  0  0  0
   -4.1394   -0.2032    2.0763 H   0  0  0  0  0  0  0  0  0  0  0  0
    1.9809    0.9957   -1.6684 H   0  0  0  0  0  0  0  0  0  0  0  0
    2.8511    3.2982   -1.7184 H   0  0  0  0  0  0  0  0  0  0  0  0
  1  2  1  0  0  0  0
  2  3  2  0  0  0  0
  3  4  1  0  0  0  0
  4  5  2  0  0  0  0
  5  6  1  0  0  0  0
  6  7  1  0  0  0  0
  7  8  1  0  0  0  0
  8  9  2  0  0  0  0
  9 10  1  0  0  0  0
 10 11  2  0  0  0  0
 11 12  1  0  0  0  0
 12 13  1  0  0  0  0
 12 14  1  0  0  0  0
 12 15  1  0  0  0  0
 11 16  1  0  0  0  0
 16 17  2  0  0  0  0
  7 18  2  0  0  0  0
 18 19  1  0  0  0  0
 19 20  1  0  0  0  0
 20 21  2  0  0  0  0
 21 22  1  0  0  0  0
 22 23  2  0  0  0  0
 23 24  1  0  0  0  0
 24 25  2  0  0  0  0
 25 26  1  0  0  0  0
 19 27  2  0  0  0  0
 27 28  1  0  0  0  0
 28 29  2  0  0  0  0
 29 30  1  0  0  0  0
 30 31  2  0  0  0  0
 31 32  1  0  0  0  0
 32 33  2  0  0  0  0
 33 34  1  0  0  0  0
  5 35  1  0  0  0  0
 35 36  2  0  0  0  0
 36  2  1  0  0  0  0
 27  6  1  0  0  0  0
 33 28  1  0  0  0  0
 17  8  1  0  0  0  0
 25 20  1  0  0  0  0
  1 37  1  0  0  0  0
  1 38  1  0  0  0  0
  1 39  1  0  0  0  0
  3 40  1  0  0  0  0
  4 41  1  0  0  0  0
  9 42  1  0  0  0  0
 10 43  1  0  0  0  0
 16 44  1  0  0  0  0
 17 45  1  0  0  0  0
 21 46  1  0  0  0  0
 22 47  1  0  0  0  0
 23 48  1  0  0  0  0
 24 49  1  0  0  0  0
 26 50  1  0  0  0  0
 29 51  1  0  0  0  0
 30 52  1  0  0  0  0
 31 53  1  0  0  0  0
 32 54  1  0  0  0  0
 34 55  1  0  0  0  0
 35 56  1  0  0  0  0
 36 57  1  0  0  0  0
M  END
