
  xtb     03022215413D
 energy: -39.684652714504 gnorm: 0.000275980273 xtb: 6.4.1 (afa7bdf)
 25 25  0     0  0            999 V2000
   -3.0244   -2.3938   -0.8834 C   0  0  0  0  0  0  0  0  0  0  0  0
   -3.2643   -1.0697   -0.4830 O   0  0  0  0  0  0  0  0  0  0  0  0
   -2.1940   -0.2619   -0.2420 C   0  0  0  0  0  0  0  0  0  0  0  0
   -0.8677   -0.6347   -0.3601 C   0  0  0  0  0  0  0  0  0  0  0  0
    0.1777    0.2589   -0.0978 C   0  0  0  0  0  0  0  0  0  0  0  0
    1.5457   -0.2123   -0.2498 C   0  0  0  0  0  0  0  0  0  0  0  0
    2.6546    0.5176   -0.1612 C   0  0  0  0  0  0  0  0  0  0  0  0
    4.0328   -0.0277   -0.3603 C   0  0  0  0  0  0  0  0  0  0  0  0
    4.9007    0.5752    0.5789 O   0  0  0  0  0  0  0  0  0  0  0  0
   -0.1433    1.5520    0.2999 C   0  0  0  0  0  0  0  0  0  0  0  0
   -1.4657    1.9368    0.4252 C   0  0  0  0  0  0  0  0  0  0  0  0
   -2.4980    1.0536    0.1589 C   0  0  0  0  0  0  0  0  0  0  0  0
   -3.8073    1.4053    0.2713 O   0  0  0  0  0  0  0  0  0  0  0  0
   -2.4762   -2.4369   -1.8310 H   0  0  0  0  0  0  0  0  0  0  0  0
   -2.4733   -2.9536   -0.1198 H   0  0  0  0  0  0  0  0  0  0  0  0
   -4.0075   -2.8425   -1.0172 H   0  0  0  0  0  0  0  0  0  0  0  0
   -0.6165   -1.6386   -0.6657 H   0  0  0  0  0  0  0  0  0  0  0  0
    1.6399   -1.2680   -0.4782 H   0  0  0  0  0  0  0  0  0  0  0  0
    2.6325    1.5726    0.0628 H   0  0  0  0  0  0  0  0  0  0  0  0
    4.3673    0.2099   -1.3855 H   0  0  0  0  0  0  0  0  0  0  0  0
    4.0334   -1.1216   -0.2480 H   0  0  0  0  0  0  0  0  0  0  0  0
    5.7939    0.2451    0.4398 H   0  0  0  0  0  0  0  0  0  0  0  0
    0.6345    2.2635    0.5221 H   0  0  0  0  0  0  0  0  0  0  0  0
   -1.7062    2.9449    0.7375 H   0  0  0  0  0  0  0  0  0  0  0  0
   -3.8680    2.3258    0.5545 H   0  0  0  0  0  0  0  0  0  0  0  0
  1  2  1  0  0  0  0
  2  3  1  0  0  0  0
  3  4  2  0  0  0  0
  4  5  1  0  0  0  0
  5  6  1  0  0  0  0
  6  7  2  0  0  0  0
  7  8  1  0  0  0  0
  8  9  1  0  0  0  0
  5 10  2  0  0  0  0
 10 11  1  0  0  0  0
 11 12  2  0  0  0  0
 12 13  1  0  0  0  0
 12  3  1  0  0  0  0
  1 14  1  0  0  0  0
  1 15  1  0  0  0  0
  1 16  1  0  0  0  0
  4 17  1  0  0  0  0
  6 18  1  0  0  0  0
  7 19  1  0  0  0  0
  8 20  1  0  0  0  0
  8 21  1  0  0  0  0
  9 22  1  0  0  0  0
 10 23  1  0  0  0  0
 11 24  1  0  0  0  0
 13 25  1  0  0  0  0
M  END
