
  xtb     03022215403D
 energy: -16.150108415638 gnorm: 0.000116710912 xtb: 6.4.1 (afa7bdf)
 11 11  0     0  0            999 V2000
   -0.1131    1.1821    0.0039 C   0  0  0  0  0  0  0  0  0  0  0  0
   -1.2324    0.3652   -0.0112 C   0  0  0  0  0  0  0  0  0  0  0  0
   -1.0419   -1.0087   -0.0152 C   0  0  0  0  0  0  0  0  0  0  0  0
    0.1509   -1.5777   -0.0053 N   0  0  0  0  0  0  0  0  0  0  0  0
    1.2142   -0.7929    0.0091 C   0  0  0  0  0  0  0  0  0  0  0  0
    1.1408    0.5921    0.0143 C   0  0  0  0  0  0  0  0  0  0  0  0
   -0.2160    2.2580    0.0076 H   0  0  0  0  0  0  0  0  0  0  0  0
   -2.2275    0.7827   -0.0196 H   0  0  0  0  0  0  0  0  0  0  0  0
   -1.8832   -1.6897   -0.0268 H   0  0  0  0  0  0  0  0  0  0  0  0
    2.1694   -1.3022    0.0167 H   0  0  0  0  0  0  0  0  0  0  0  0
    2.0387    1.1907    0.0262 H   0  0  0  0  0  0  0  0  0  0  0  0
  1  2  2  0  0  0  0
  2  3  1  0  0  0  0
  3  4  2  0  0  0  0
  4  5  1  0  0  0  0
  5  6  2  0  0  0  0
  6  1  1  0  0  0  0
  1  7  1  0  0  0  0
  2  8  1  0  0  0  0
  3  9  1  0  0  0  0
  5 10  1  0  0  0  0
  6 11  1  0  0  0  0
M  END
