
  xtb     03022212133D
 energy: -41.225316935869 gnorm: 0.000171272934 xtb: 6.4.1 (afa7bdf)
 27 27  0     0  0            999 V2000
   -3.5113    1.7554   -0.4094 C   0  0  0  0  0  0  0  0  0  0  0  0
   -2.9115    0.4442   -0.4041 N   0  0  0  0  0  0  0  0  0  0  0  0
   -3.7657   -0.7140   -0.4946 C   0  0  0  0  0  0  0  0  0  0  0  0
   -1.5565    0.3022   -0.3253 C   0  0  0  0  0  0  0  0  0  0  0  0
   -0.9479   -0.9657   -0.3651 C   0  0  0  0  0  0  0  0  0  0  0  0
    0.4155   -1.1077   -0.2833 C   0  0  0  0  0  0  0  0  0  0  0  0
    1.2632   -0.0002   -0.1575 C   0  0  0  0  0  0  0  0  0  0  0  0
    2.6952   -0.0989   -0.0681 C   0  0  0  0  0  0  0  0  0  0  0  0
    3.4325   -1.2242   -0.0764 C   0  0  0  0  0  0  0  0  0  0  0  0
    4.8841   -1.2283    0.0192 C   0  0  0  0  0  0  0  0  0  0  0  0
    5.5713   -2.2256    0.0166 O   0  0  0  0  0  0  0  0  0  0  0  0
    5.4423    0.0005    0.1142 O   0  0  0  0  0  0  0  0  0  0  0  0
    0.6560    1.2614   -0.1200 C   0  0  0  0  0  0  0  0  0  0  0  0
   -0.7067    1.4153   -0.2002 C   0  0  0  0  0  0  0  0  0  0  0  0
   -3.1279    2.3603   -1.2364 H   0  0  0  0  0  0  0  0  0  0  0  0
   -4.5877    1.6631   -0.5304 H   0  0  0  0  0  0  0  0  0  0  0  0
   -3.3181    2.2846    0.5293 H   0  0  0  0  0  0  0  0  0  0  0  0
   -3.6122   -1.3824    0.3576 H   0  0  0  0  0  0  0  0  0  0  0  0
   -3.5803   -1.2747   -1.4164 H   0  0  0  0  0  0  0  0  0  0  0  0
   -4.8065   -0.3999   -0.4926 H   0  0  0  0  0  0  0  0  0  0  0  0
   -1.5500   -1.8536   -0.4653 H   0  0  0  0  0  0  0  0  0  0  0  0
    0.8363   -2.1003   -0.3199 H   0  0  0  0  0  0  0  0  0  0  0  0
    3.2222    0.8435    0.0155 H   0  0  0  0  0  0  0  0  0  0  0  0
    2.9962   -2.2079   -0.1540 H   0  0  0  0  0  0  0  0  0  0  0  0
    6.4043   -0.0988    0.1724 H   0  0  0  0  0  0  0  0  0  0  0  0
    1.2785    2.1399   -0.0232 H   0  0  0  0  0  0  0  0  0  0  0  0
   -1.1154    2.4116   -0.1619 H   0  0  0  0  0  0  0  0  0  0  0  0
  1  2  1  0  0  0  0
  2  3  1  0  0  0  0
  2  4  1  0  0  0  0
  4  5  2  0  0  0  0
  5  6  1  0  0  0  0
  6  7  2  0  0  0  0
  7  8  1  0  0  0  0
  8  9  2  0  0  0  0
  9 10  1  0  0  0  0
 10 11  2  0  0  0  0
 10 12  1  0  0  0  0
  7 13  1  0  0  0  0
 13 14  2  0  0  0  0
 14  4  1  0  0  0  0
  1 15  1  0  0  0  0
  1 16  1  0  0  0  0
  1 17  1  0  0  0  0
  3 18  1  0  0  0  0
  3 19  1  0  0  0  0
  3 20  1  0  0  0  0
  5 21  1  0  0  0  0
  6 22  1  0  0  0  0
  8 23  1  0  0  0  0
  9 24  1  0  0  0  0
 12 25  1  0  0  0  0
 13 26  1  0  0  0  0
 14 27  1  0  0  0  0
M  END
