
  xtb     03022213013D
 energy: -34.536117241548 gnorm: 0.000114744424 xtb: 6.4.1 (afa7bdf)
 18 19  0     0  0            999 V2000
   -2.7447   -2.5512   -0.2874 O   0  0  0  0  0  0  0  0  0  0  0  0
   -1.9794   -1.6267   -0.1797 C   0  0  0  0  0  0  0  0  0  0  0  0
   -2.3607   -0.2453    0.0065 C   0  0  0  0  0  0  0  0  0  0  0  0
   -1.4478    0.7487    0.1211 C   0  0  0  0  0  0  0  0  0  0  0  0
   -1.7698    2.0424    0.2947 O   0  0  0  0  0  0  0  0  0  0  0  0
   -0.0412    0.4255    0.0561 C   0  0  0  0  0  0  0  0  0  0  0  0
    0.9720    1.3819    0.1640 C   0  0  0  0  0  0  0  0  0  0  0  0
    2.2925    1.0012    0.0930 C   0  0  0  0  0  0  0  0  0  0  0  0
    2.6236   -0.3390   -0.0869 C   0  0  0  0  0  0  0  0  0  0  0  0
    1.6392   -1.2978   -0.1956 C   0  0  0  0  0  0  0  0  0  0  0  0
    0.2978   -0.9235   -0.1251 C   0  0  0  0  0  0  0  0  0  0  0  0
   -0.6328   -1.8936   -0.2362 O   0  0  0  0  0  0  0  0  0  0  0  0
   -3.4226   -0.0547    0.0487 H   0  0  0  0  0  0  0  0  0  0  0  0
   -2.7298    2.1491    0.3242 H   0  0  0  0  0  0  0  0  0  0  0  0
    0.6923    2.4141    0.3030 H   0  0  0  0  0  0  0  0  0  0  0  0
    3.0733    1.7413    0.1766 H   0  0  0  0  0  0  0  0  0  0  0  0
    3.6608   -0.6325   -0.1420 H   0  0  0  0  0  0  0  0  0  0  0  0
    1.8769   -2.3400   -0.3352 H   0  0  0  0  0  0  0  0  0  0  0  0
  1  2  2  0  0  0  0
  2  3  1  0  0  0  0
  3  4  2  0  0  0  0
  4  5  1  0  0  0  0
  4  6  1  0  0  0  0
  6  7  2  0  0  0  0
  7  8  1  0  0  0  0
  8  9  2  0  0  0  0
  9 10  1  0  0  0  0
 10 11  2  0  0  0  0
 11 12  1  0  0  0  0
 12  2  1  0  0  0  0
 11  6  1  0  0  0  0
  3 13  1  0  0  0  0
  5 14  1  0  0  0  0
  7 15  1  0  0  0  0
  8 16  1  0  0  0  0
  9 17  1  0  0  0  0
 10 18  1  0  0  0  0
M  END
