
  xtb     03022213023D
 energy: -71.236271699345 gnorm: 0.000080308961 xtb: 6.4.1 (afa7bdf)
 46 48  0     0  0            999 V2000
   -8.5951    2.3317    0.4170 C   0  0  0  0  0  0  0  0  0  0  0  0
   -8.4462    0.9972   -0.0033 O   0  0  0  0  0  0  0  0  0  0  0  0
   -7.1936    0.4807   -0.1061 C   0  0  0  0  0  0  0  0  0  0  0  0
   -6.0173    1.1711    0.1741 C   0  0  0  0  0  0  0  0  0  0  0  0
   -4.7953    0.5438    0.0343 C   0  0  0  0  0  0  0  0  0  0  0  0
   -4.6976   -0.7837   -0.3863 C   0  0  0  0  0  0  0  0  0  0  0  0
   -3.4398   -1.4774   -0.5455 C   0  0  0  0  0  0  0  0  0  0  0  0
   -2.2106   -0.9850   -0.3252 C   0  0  0  0  0  0  0  0  0  0  0  0
   -1.0092   -1.7692   -0.5162 C   0  0  0  0  0  0  0  0  0  0  0  0
    0.2502   -1.2171   -0.2749 C   0  0  0  0  0  0  0  0  0  0  0  0
    1.3704   -2.0241   -0.4773 C   0  0  0  0  0  0  0  0  0  0  0  0
    2.7413   -1.6019   -0.2718 C   0  0  0  0  0  0  0  0  0  0  0  0
    3.1287   -0.3850    0.1393 C   0  0  0  0  0  0  0  0  0  0  0  0
    4.4868    0.0655    0.3532 C   0  0  0  0  0  0  0  0  0  0  0  0
    4.7030    1.3754    0.7855 C   0  0  0  0  0  0  0  0  0  0  0  0
    5.9722    1.8712    1.0096 C   0  0  0  0  0  0  0  0  0  0  0  0
    7.0800    1.0546    0.8033 C   0  0  0  0  0  0  0  0  0  0  0  0
    8.3727    1.4284    0.9894 O   0  0  0  0  0  0  0  0  0  0  0  0
    8.6409    2.7393    1.4247 C   0  0  0  0  0  0  0  0  0  0  0  0
    6.8794   -0.2599    0.3703 C   0  0  0  0  0  0  0  0  0  0  0  0
    5.6122   -0.7431    0.1504 C   0  0  0  0  0  0  0  0  0  0  0  0
    1.2185   -3.2913   -0.8923 N   0  0  0  0  0  0  0  0  0  0  0  0
   -0.0116   -3.7159   -1.0912 C   0  0  0  0  0  0  0  0  0  0  0  0
   -1.1286   -3.0392   -0.9305 N   0  0  0  0  0  0  0  0  0  0  0  0
   -5.8908   -1.4639   -0.6641 C   0  0  0  0  0  0  0  0  0  0  0  0
   -7.1123   -0.8492   -0.5283 C   0  0  0  0  0  0  0  0  0  0  0  0
   -9.6674    2.5207    0.4239 H   0  0  0  0  0  0  0  0  0  0  0  0
   -8.1104    3.0278   -0.2751 H   0  0  0  0  0  0  0  0  0  0  0  0
   -8.1955    2.4828    1.4250 H   0  0  0  0  0  0  0  0  0  0  0  0
   -6.0430    2.1987    0.5021 H   0  0  0  0  0  0  0  0  0  0  0  0
   -3.9011    1.1044    0.2587 H   0  0  0  0  0  0  0  0  0  0  0  0
   -3.5020   -2.5052   -0.8787 H   0  0  0  0  0  0  0  0  0  0  0  0
   -2.0532    0.0309    0.0091 H   0  0  0  0  0  0  0  0  0  0  0  0
    0.3389   -0.1955    0.0580 H   0  0  0  0  0  0  0  0  0  0  0  0
    3.4615   -2.3779   -0.4847 H   0  0  0  0  0  0  0  0  0  0  0  0
    2.3765    0.3671    0.3429 H   0  0  0  0  0  0  0  0  0  0  0  0
    3.8541    2.0242    0.9510 H   0  0  0  0  0  0  0  0  0  0  0  0
    6.0863    2.8907    1.3433 H   0  0  0  0  0  0  0  0  0  0  0  0
    9.7247    2.8084    1.5021 H   0  0  0  0  0  0  0  0  0  0  0  0
    8.1955    2.9363    2.4052 H   0  0  0  0  0  0  0  0  0  0  0  0
    8.2821    3.4830    0.7058 H   0  0  0  0  0  0  0  0  0  0  0  0
    7.7473   -0.8812    0.2146 H   0  0  0  0  0  0  0  0  0  0  0  0
    5.4899   -1.7611   -0.1833 H   0  0  0  0  0  0  0  0  0  0  0  0
   -0.1163   -4.7416   -1.4262 H   0  0  0  0  0  0  0  0  0  0  0  0
   -5.8457   -2.4923   -0.9915 H   0  0  0  0  0  0  0  0  0  0  0  0
   -8.0303   -1.3735   -0.7423 H   0  0  0  0  0  0  0  0  0  0  0  0
  1  2  1  0  0  0  0
  2  3  1  0  0  0  0
  3  4  2  0  0  0  0
  4  5  1  0  0  0  0
  5  6  2  0  0  0  0
  6  7  1  0  0  0  0
  7  8  2  0  0  0  0
  8  9  1  0  0  0  0
  9 10  2  0  0  0  0
 10 11  1  0  0  0  0
 11 12  1  0  0  0  0
 12 13  2  0  0  0  0
 13 14  1  0  0  0  0
 14 15  2  0  0  0  0
 15 16  1  0  0  0  0
 16 17  2  0  0  0  0
 17 18  1  0  0  0  0
 18 19  1  0  0  0  0
 17 20  1  0  0  0  0
 20 21  2  0  0  0  0
 11 22  2  0  0  0  0
 22 23  1  0  0  0  0
 23 24  2  0  0  0  0
  6 25  1  0  0  0  0
 25 26  2  0  0  0  0
 26  3  1  0  0  0  0
 24  9  1  0  0  0  0
 21 14  1  0  0  0  0
  1 27  1  0  0  0  0
  1 28  1  0  0  0  0
  1 29  1  0  0  0  0
  4 30  1  0  0  0  0
  5 31  1  0  0  0  0
  7 32  1  0  0  0  0
  8 33  1  0  0  0  0
 10 34  1  0  0  0  0
 12 35  1  0  0  0  0
 13 36  1  0  0  0  0
 15 37  1  0  0  0  0
 16 38  1  0  0  0  0
 19 39  1  0  0  0  0
 19 40  1  0  0  0  0
 19 41  1  0  0  0  0
 20 42  1  0  0  0  0
 21 43  1  0  0  0  0
 23 44  1  0  0  0  0
 25 45  1  0  0  0  0
 26 46  1  0  0  0  0
M  END
