
  xtb     03022214583D
 energy: -45.634760447314 gnorm: 0.000160291555 xtb: 6.4.1 (afa7bdf)
 33 34  0     0  0            999 V2000
    4.3750    0.8399    0.7088 C   0  0  0  0  0  0  0  0  0  0  0  0
    3.5814    1.7919   -0.1884 C   0  0  0  0  0  0  0  0  0  0  0  0
    2.1618    1.7551    0.0641 N   0  0  0  0  0  0  0  0  0  0  0  0
    1.3306    0.7339   -0.3095 C   0  0  0  0  0  0  0  0  0  0  0  0
    1.6845   -0.2295   -1.2635 C   0  0  0  0  0  0  0  0  0  0  0  0
    0.7757   -1.1885   -1.6374 C   0  0  0  0  0  0  0  0  0  0  0  0
   -0.5095   -1.2377   -1.0875 C   0  0  0  0  0  0  0  0  0  0  0  0
   -0.8776   -0.2787   -0.1277 C   0  0  0  0  0  0  0  0  0  0  0  0
    0.0437    0.6805    0.2407 C   0  0  0  0  0  0  0  0  0  0  0  0
   -2.2529   -0.2824    0.4920 C   0  0  0  0  0  0  0  0  0  0  0  0
   -2.1448   -0.4160    2.0206 C   0  0  0  0  0  0  0  0  0  0  0  0
   -2.9800    1.0267    0.1348 C   0  0  0  0  0  0  0  0  0  0  0  0
   -3.1770   -1.4150    0.0245 C   0  0  0  0  0  0  0  0  0  0  0  0
   -4.2973   -1.5121    0.4949 O   0  0  0  0  0  0  0  0  0  0  0  0
   -2.6820   -2.3356   -0.9780 C   0  0  0  0  0  0  0  0  0  0  0  0
   -1.4406   -2.2477   -1.4890 C   0  0  0  0  0  0  0  0  0  0  0  0
    5.4348    0.9021    0.4770 H   0  0  0  0  0  0  0  0  0  0  0  0
    4.2328    1.0981    1.7561 H   0  0  0  0  0  0  0  0  0  0  0  0
    4.0424   -0.1846    0.5591 H   0  0  0  0  0  0  0  0  0  0  0  0
    3.9167    2.8195   -0.0236 H   0  0  0  0  0  0  0  0  0  0  0  0
    3.7582    1.5502   -1.2389 H   0  0  0  0  0  0  0  0  0  0  0  0
    1.8609    2.2652    0.8811 H   0  0  0  0  0  0  0  0  0  0  0  0
    2.6660   -0.2261   -1.7096 H   0  0  0  0  0  0  0  0  0  0  0  0
    1.0556   -1.9293   -2.3731 H   0  0  0  0  0  0  0  0  0  0  0  0
   -0.2196    1.4276    0.9762 H   0  0  0  0  0  0  0  0  0  0  0  0
   -3.1431   -0.5197    2.4397 H   0  0  0  0  0  0  0  0  0  0  0  0
   -1.6680    0.4561    2.4599 H   0  0  0  0  0  0  0  0  0  0  0  0
   -1.5642   -1.3000    2.2790 H   0  0  0  0  0  0  0  0  0  0  0  0
   -3.0200    1.1498   -0.9461 H   0  0  0  0  0  0  0  0  0  0  0  0
   -3.9963    0.9877    0.5201 H   0  0  0  0  0  0  0  0  0  0  0  0
   -2.4712    1.8859    0.5642 H   0  0  0  0  0  0  0  0  0  0  0  0
   -3.3687   -3.1084   -1.2920 H   0  0  0  0  0  0  0  0  0  0  0  0
   -1.1072   -2.9585   -2.2345 H   0  0  0  0  0  0  0  0  0  0  0  0
  1  2  1  0  0  0  0
  2  3  1  0  0  0  0
  3  4  1  0  0  0  0
  4  5  2  0  0  0  0
  5  6  1  0  0  0  0
  6  7  2  0  0  0  0
  7  8  1  0  0  0  0
  8  9  2  0  0  0  0
  8 10  1  0  0  0  0
 10 11  1  0  0  0  0
 10 12  1  0  0  0  0
 10 13  1  0  0  0  0
 13 14  2  0  0  0  0
 13 15  1  0  0  0  0
 15 16  2  0  0  0  0
  9  4  1  0  0  0  0
 16  7  1  0  0  0  0
  1 17  1  0  0  0  0
  1 18  1  0  0  0  0
  1 19  1  0  0  0  0
  2 20  1  0  0  0  0
  2 21  1  0  0  0  0
  3 22  1  0  0  0  0
  5 23  1  0  0  0  0
  6 24  1  0  0  0  0
  9 25  1  0  0  0  0
 11 26  1  0  0  0  0
 11 27  1  0  0  0  0
 11 28  1  0  0  0  0
 12 29  1  0  0  0  0
 12 30  1  0  0  0  0
 12 31  1  0  0  0  0
 15 32  1  0  0  0  0
 16 33  1  0  0  0  0
M  END
