
  xtb     03022214593D
 energy: -53.538314952648 gnorm: 0.000267209277 xtb: 6.4.1 (afa7bdf)
 34 38  0     0  0            999 V2000
   -1.3202    2.6131   -1.0647 C   0  0  0  0  0  0  0  0  0  0  0  0
   -0.5725    1.4144   -0.5698 C   0  0  0  0  0  0  0  0  0  0  0  0
    0.8069    1.3937   -0.5760 C   0  0  0  0  0  0  0  0  0  0  0  0
    1.5301    0.2855   -0.1191 C   0  0  0  0  0  0  0  0  0  0  0  0
    2.9574    0.1073   -0.0599 C   0  0  0  0  0  0  0  0  0  0  0  0
    3.9697    0.9849   -0.4390 C   0  0  0  0  0  0  0  0  0  0  0  0
    5.2896    0.6101   -0.2963 C   0  0  0  0  0  0  0  0  0  0  0  0
    5.6241   -0.6368    0.2232 C   0  0  0  0  0  0  0  0  0  0  0  0
    4.6397   -1.5266    0.6073 C   0  0  0  0  0  0  0  0  0  0  0  0
    3.3161   -1.1476    0.4627 C   0  0  0  0  0  0  0  0  0  0  0  0
    1.9276   -2.1231    0.8869 S   0  0  0  0  0  0  0  0  0  0  0  0
    0.8533   -0.8420    0.3610 C   0  0  0  0  0  0  0  0  0  0  0  0
   -0.5313   -0.8414    0.3763 C   0  0  0  0  0  0  0  0  0  0  0  0
   -1.4035   -1.8090    0.7915 N   0  0  0  0  0  0  0  0  0  0  0  0
   -2.6851   -1.3591    0.6160 C   0  0  0  0  0  0  0  0  0  0  0  0
   -3.8819   -1.9998    0.8971 C   0  0  0  0  0  0  0  0  0  0  0  0
   -5.0534   -1.3223    0.6248 C   0  0  0  0  0  0  0  0  0  0  0  0
   -5.0313   -0.0377    0.0856 C   0  0  0  0  0  0  0  0  0  0  0  0
   -3.8420    0.6040   -0.1959 C   0  0  0  0  0  0  0  0  0  0  0  0
   -2.6433   -0.0528    0.0675 C   0  0  0  0  0  0  0  0  0  0  0  0
   -1.2527    0.2832   -0.0879 C   0  0  0  0  0  0  0  0  0  0  0  0
   -0.6304    3.3858   -1.3955 H   0  0  0  0  0  0  0  0  0  0  0  0
   -1.9631    2.3399   -1.9005 H   0  0  0  0  0  0  0  0  0  0  0  0
   -1.9467    3.0220   -0.2730 H   0  0  0  0  0  0  0  0  0  0  0  0
    1.3517    2.2512   -0.9415 H   0  0  0  0  0  0  0  0  0  0  0  0
    3.7150    1.9532   -0.8425 H   0  0  0  0  0  0  0  0  0  0  0  0
    6.0746    1.2907   -0.5905 H   0  0  0  0  0  0  0  0  0  0  0  0
    6.6626   -0.9129    0.3276 H   0  0  0  0  0  0  0  0  0  0  0  0
    4.8888   -2.4959    1.0112 H   0  0  0  0  0  0  0  0  0  0  0  0
   -1.1361   -2.7040    1.1640 H   0  0  0  0  0  0  0  0  0  0  0  0
   -3.8927   -2.9956    1.3150 H   0  0  0  0  0  0  0  0  0  0  0  0
   -6.0026   -1.7937    0.8323 H   0  0  0  0  0  0  0  0  0  0  0  0
   -5.9667    0.4635   -0.1152 H   0  0  0  0  0  0  0  0  0  0  0  0
   -3.8515    1.5979   -0.6129 H   0  0  0  0  0  0  0  0  0  0  0  0
  1  2  1  0  0  0  0
  2  3  2  0  0  0  0
  3  4  1  0  0  0  0
  4  5  1  0  0  0  0
  5  6  2  0  0  0  0
  6  7  1  0  0  0  0
  7  8  2  0  0  0  0
  8  9  1  0  0  0  0
  9 10  2  0  0  0  0
 10 11  1  0  0  0  0
 11 12  1  0  0  0  0
 12 13  1  0  0  0  0
 13 14  1  0  0  0  0
 14 15  1  0  0  0  0
 15 16  2  0  0  0  0
 16 17  1  0  0  0  0
 17 18  2  0  0  0  0
 18 19  1  0  0  0  0
 19 20  2  0  0  0  0
 20 21  1  0  0  0  0
 21  2  1  0  0  0  0
 12  4  2  0  0  0  0
 21 13  2  0  0  0  0
 10  5  1  0  0  0  0
 20 15  1  0  0  0  0
  1 22  1  0  0  0  0
  1 23  1  0  0  0  0
  1 24  1  0  0  0  0
  3 25  1  0  0  0  0
  6 26  1  0  0  0  0
  7 27  1  0  0  0  0
  8 28  1  0  0  0  0
  9 29  1  0  0  0  0
 14 30  1  0  0  0  0
 16 31  1  0  0  0  0
 17 32  1  0  0  0  0
 18 33  1  0  0  0  0
 19 34  1  0  0  0  0
M  END
