
  xtb     03022213483D
 energy: -109.232078261642 gnorm: 0.000748369491 xtb: 6.4.1 (afa7bdf)
 74 78  0     0  0            999 V2000
   -3.1212    3.9418    0.5455 C   0  0  0  0  0  0  0  0  0  0  0  0
   -2.6198    2.5394    0.4491 C   0  0  0  0  0  0  0  0  0  0  0  0
   -3.2958    1.5468   -0.1791 C   0  0  0  0  0  0  0  0  0  0  0  0
   -4.5551    1.7279   -0.7905 C   0  0  0  0  0  0  0  0  0  0  0  0
   -5.6342    1.8503   -1.3197 C   0  0  0  0  0  0  0  0  0  0  0  0
   -6.8951    2.0083   -1.9311 C   0  0  0  0  0  0  0  0  0  0  0  0
   -7.4493    0.9657   -2.6772 C   0  0  0  0  0  0  0  0  0  0  0  0
   -8.6839    1.1246   -3.2749 C   0  0  0  0  0  0  0  0  0  0  0  0
   -9.3787    2.3166   -3.1381 C   0  0  0  0  0  0  0  0  0  0  0  0
   -8.8334    3.3547   -2.3985 C   0  0  0  0  0  0  0  0  0  0  0  0
   -7.5993    3.2073   -1.7970 C   0  0  0  0  0  0  0  0  0  0  0  0
   -2.7123    0.2619   -0.2951 C   0  0  0  0  0  0  0  0  0  0  0  0
   -2.1408   -0.7957   -0.4079 C   0  0  0  0  0  0  0  0  0  0  0  0
   -1.4083   -1.9963   -0.5082 C   0  0  0  0  0  0  0  0  0  0  0  0
   -1.7056   -2.9436   -1.4880 C   0  0  0  0  0  0  0  0  0  0  0  0
   -0.9430   -4.0900   -1.5908 C   0  0  0  0  0  0  0  0  0  0  0  0
    0.1156   -4.3057   -0.7229 C   0  0  0  0  0  0  0  0  0  0  0  0
    0.4107   -3.3702    0.2563 C   0  0  0  0  0  0  0  0  0  0  0  0
   -0.3440   -2.2201    0.3679 C   0  0  0  0  0  0  0  0  0  0  0  0
   -1.3093    2.2257    1.0489 C   0  0  0  0  0  0  0  0  0  0  0  0
   -0.1358    2.7384    0.5061 C   0  0  0  0  0  0  0  0  0  0  0  0
    1.0930    2.3360    0.9892 C   0  0  0  0  0  0  0  0  0  0  0  0
    1.1797    1.4429    2.0535 C   0  0  0  0  0  0  0  0  0  0  0  0
    2.4938    0.9478    2.5014 C   0  0  0  0  0  0  0  0  0  0  0  0
    2.9361    1.2807    3.8877 C   0  0  0  0  0  0  0  0  0  0  0  0
    3.2306    0.1968    1.6464 C   0  0  0  0  0  0  0  0  0  0  0  0
    4.5000   -0.3295    1.9691 C   0  0  0  0  0  0  0  0  0  0  0  0
    5.5895   -0.7961    2.2039 C   0  0  0  0  0  0  0  0  0  0  0  0
    6.8597   -1.3344    2.4961 C   0  0  0  0  0  0  0  0  0  0  0  0
    7.5078   -2.1453    1.5617 C   0  0  0  0  0  0  0  0  0  0  0  0
    8.7504   -2.6739    1.8500 C   0  0  0  0  0  0  0  0  0  0  0  0
    9.3603   -2.4036    3.0652 C   0  0  0  0  0  0  0  0  0  0  0  0
    8.7221   -1.5985    3.9957 C   0  0  0  0  0  0  0  0  0  0  0  0
    7.4792   -1.0643    3.7181 C   0  0  0  0  0  0  0  0  0  0  0  0
    2.7075   -0.1504    0.3776 C   0  0  0  0  0  0  0  0  0  0  0  0
    2.1968   -0.4680   -0.6695 C   0  0  0  0  0  0  0  0  0  0  0  0
    1.5220   -0.7999   -1.8623 C   0  0  0  0  0  0  0  0  0  0  0  0
    0.4311   -0.0263   -2.2651 C   0  0  0  0  0  0  0  0  0  0  0  0
   -0.2684   -0.3624   -3.4063 C   0  0  0  0  0  0  0  0  0  0  0  0
    0.1087   -1.4655   -4.1561 C   0  0  0  0  0  0  0  0  0  0  0  0
    1.1940   -2.2322   -3.7631 C   0  0  0  0  0  0  0  0  0  0  0  0
    1.9018   -1.9054   -2.6233 C   0  0  0  0  0  0  0  0  0  0  0  0
    0.0049    0.9826    2.6391 C   0  0  0  0  0  0  0  0  0  0  0  0
   -1.2235    1.3533    2.1296 C   0  0  0  0  0  0  0  0  0  0  0  0
   -4.0537    4.0599   -0.0019 H   0  0  0  0  0  0  0  0  0  0  0  0
   -2.3802    4.6359    0.1479 H   0  0  0  0  0  0  0  0  0  0  0  0
   -3.2864    4.2070    1.5912 H   0  0  0  0  0  0  0  0  0  0  0  0
   -6.9020    0.0397   -2.7795 H   0  0  0  0  0  0  0  0  0  0  0  0
   -9.1091    0.3151   -3.8510 H   0  0  0  0  0  0  0  0  0  0  0  0
  -10.3446    2.4363   -3.6065 H   0  0  0  0  0  0  0  0  0  0  0  0
   -9.3755    4.2832   -2.2906 H   0  0  0  0  0  0  0  0  0  0  0  0
   -7.1706    4.0137   -1.2188 H   0  0  0  0  0  0  0  0  0  0  0  0
   -2.5278   -2.7659   -2.1660 H   0  0  0  0  0  0  0  0  0  0  0  0
   -1.1719   -4.8197   -2.3542 H   0  0  0  0  0  0  0  0  0  0  0  0
    0.7114   -5.2025   -0.8106 H   0  0  0  0  0  0  0  0  0  0  0  0
    1.2392   -3.5339    0.9300 H   0  0  0  0  0  0  0  0  0  0  0  0
   -0.1129   -1.4780    1.1181 H   0  0  0  0  0  0  0  0  0  0  0  0
   -0.1860    3.4225   -0.3297 H   0  0  0  0  0  0  0  0  0  0  0  0
    1.9996    2.7078    0.5337 H   0  0  0  0  0  0  0  0  0  0  0  0
    2.1924    0.9479    4.6122 H   0  0  0  0  0  0  0  0  0  0  0  0
    3.0354    2.3618    3.9976 H   0  0  0  0  0  0  0  0  0  0  0  0
    3.8908    0.8116    4.1141 H   0  0  0  0  0  0  0  0  0  0  0  0
    7.0261   -2.3513    0.6168 H   0  0  0  0  0  0  0  0  0  0  0  0
    9.2482   -3.3010    1.1244 H   0  0  0  0  0  0  0  0  0  0  0  0
   10.3321   -2.8196    3.2868 H   0  0  0  0  0  0  0  0  0  0  0  0
    9.1976   -1.3872    4.9427 H   0  0  0  0  0  0  0  0  0  0  0  0
    6.9782   -0.4358    4.4407 H   0  0  0  0  0  0  0  0  0  0  0  0
    0.1365    0.8229   -1.6659 H   0  0  0  0  0  0  0  0  0  0  0  0
   -1.1176    0.2334   -3.7082 H   0  0  0  0  0  0  0  0  0  0  0  0
   -0.4443   -1.7286   -5.0459 H   0  0  0  0  0  0  0  0  0  0  0  0
    1.4867   -3.0925   -4.3477 H   0  0  0  0  0  0  0  0  0  0  0  0
    2.7442   -2.5035   -2.3074 H   0  0  0  0  0  0  0  0  0  0  0  0
    0.0539    0.2929    3.4702 H   0  0  0  0  0  0  0  0  0  0  0  0
   -2.1295    0.9558    2.5640 H   0  0  0  0  0  0  0  0  0  0  0  0
  1  2  1  0  0  0  0
  2  3  2  0  0  0  0
  3  4  1  0  0  0  0
  4  5  3  0  0  0  0
  5  6  1  0  0  0  0
  6  7  2  0  0  0  0
  7  8  1  0  0  0  0
  8  9  2  0  0  0  0
  9 10  1  0  0  0  0
 10 11  2  0  0  0  0
  3 12  1  0  0  0  0
 12 13  3  0  0  0  0
 13 14  1  0  0  0  0
 14 15  2  0  0  0  0
 15 16  1  0  0  0  0
 16 17  2  0  0  0  0
 17 18  1  0  0  0  0
 18 19  2  0  0  0  0
  2 20  1  0  0  0  0
 20 21  2  0  0  0  0
 21 22  1  0  0  0  0
 22 23  2  0  0  0  0
 23 24  1  0  0  0  0
 24 25  1  0  0  0  0
 24 26  2  0  0  0  0
 26 27  1  0  0  0  0
 27 28  3  0  0  0  0
 28 29  1  0  0  0  0
 29 30  2  0  0  0  0
 30 31  1  0  0  0  0
 31 32  2  0  0  0  0
 32 33  1  0  0  0  0
 33 34  2  0  0  0  0
 26 35  1  0  0  0  0
 35 36  3  0  0  0  0
 36 37  1  0  0  0  0
 37 38  2  0  0  0  0
 38 39  1  0  0  0  0
 39 40  2  0  0  0  0
 40 41  1  0  0  0  0
 41 42  2  0  0  0  0
 23 43  1  0  0  0  0
 43 44  2  0  0  0  0
 11  6  1  0  0  0  0
 19 14  1  0  0  0  0
 44 20  1  0  0  0  0
 34 29  1  0  0  0  0
 42 37  1  0  0  0  0
  1 45  1  0  0  0  0
  1 46  1  0  0  0  0
  1 47  1  0  0  0  0
  7 48  1  0  0  0  0
  8 49  1  0  0  0  0
  9 50  1  0  0  0  0
 10 51  1  0  0  0  0
 11 52  1  0  0  0  0
 15 53  1  0  0  0  0
 16 54  1  0  0  0  0
 17 55  1  0  0  0  0
 18 56  1  0  0  0  0
 19 57  1  0  0  0  0
 21 58  1  0  0  0  0
 22 59  1  0  0  0  0
 25 60  1  0  0  0  0
 25 61  1  0  0  0  0
 25 62  1  0  0  0  0
 30 63  1  0  0  0  0
 31 64  1  0  0  0  0
 32 65  1  0  0  0  0
 33 66  1  0  0  0  0
 34 67  1  0  0  0  0
 38 68  1  0  0  0  0
 39 69  1  0  0  0  0
 40 70  1  0  0  0  0
 41 71  1  0  0  0  0
 42 72  1  0  0  0  0
 43 73  1  0  0  0  0
 44 74  1  0  0  0  0
M  END
