
  xtb     03022215323D
 energy: -97.979985136420 gnorm: 0.000078904105 xtb: 6.4.1 (afa7bdf)
 63 69  0     0  0            999 V2000
    7.3460    0.0042    2.0655 C   0  0  0  0  0  0  0  0  0  0  0  0
    6.3299    1.1212    1.7878 C   0  0  0  0  0  0  0  0  0  0  0  0
    5.2887    1.1058    2.9103 C   0  0  0  0  0  0  0  0  0  0  0  0
    7.0342    2.4849    1.8097 C   0  0  0  0  0  0  0  0  0  0  0  0
    5.7127    0.8990    0.4143 C   0  0  0  0  0  0  0  0  0  0  0  0
    6.5507    0.8883   -0.7083 C   0  0  0  0  0  0  0  0  0  0  0  0
    6.0854    0.6834   -1.9937 C   0  0  0  0  0  0  0  0  0  0  0  0
    4.7284    0.4815   -2.1528 C   0  0  0  0  0  0  0  0  0  0  0  0
    4.0605    0.2504   -3.3228 O   0  0  0  0  0  0  0  0  0  0  0  0
    2.7641    0.1050   -2.9941 C   0  0  0  0  0  0  0  0  0  0  0  0
    1.8383   -0.1456   -3.9000 N   0  0  0  0  0  0  0  0  0  0  0  0
    0.6267   -0.2633   -3.3907 C   0  0  0  0  0  0  0  0  0  0  0  0
   -0.4455   -0.5316   -4.1582 O   0  0  0  0  0  0  0  0  0  0  0  0
   -1.5177   -0.5926   -3.3124 C   0  0  0  0  0  0  0  0  0  0  0  0
   -2.8301   -0.8582   -3.6576 C   0  0  0  0  0  0  0  0  0  0  0  0
   -3.7675   -0.8741   -2.6435 C   0  0  0  0  0  0  0  0  0  0  0  0
   -3.4142   -0.6388   -1.3064 C   0  0  0  0  0  0  0  0  0  0  0  0
   -4.4012   -0.6662   -0.3139 N   0  0  0  0  0  0  0  0  0  0  0  0
   -5.4114   -1.6336   -0.3645 C   0  0  0  0  0  0  0  0  0  0  0  0
   -6.7116   -1.3241    0.0336 C   0  0  0  0  0  0  0  0  0  0  0  0
   -7.7010   -2.2868   -0.0134 C   0  0  0  0  0  0  0  0  0  0  0  0
   -7.4166   -3.5654   -0.4644 C   0  0  0  0  0  0  0  0  0  0  0  0
   -6.1282   -3.8759   -0.8674 C   0  0  0  0  0  0  0  0  0  0  0  0
   -5.1298   -2.9229   -0.8160 C   0  0  0  0  0  0  0  0  0  0  0  0
   -4.3662    0.2671    0.7281 C   0  0  0  0  0  0  0  0  0  0  0  0
   -3.9474    1.5759    0.4885 C   0  0  0  0  0  0  0  0  0  0  0  0
   -3.9131    2.4957    1.5183 C   0  0  0  0  0  0  0  0  0  0  0  0
   -4.3007    2.1324    2.7977 C   0  0  0  0  0  0  0  0  0  0  0  0
   -4.7191    0.8344    3.0408 C   0  0  0  0  0  0  0  0  0  0  0  0
   -4.7486   -0.0952    2.0195 C   0  0  0  0  0  0  0  0  0  0  0  0
   -2.0901   -0.3776   -0.9663 C   0  0  0  0  0  0  0  0  0  0  0  0
   -1.1418   -0.3523   -1.9761 C   0  0  0  0  0  0  0  0  0  0  0  0
    0.2786   -0.1376   -2.0178 C   0  0  0  0  0  0  0  0  0  0  0  0
    1.2698    0.1251   -1.0853 C   0  0  0  0  0  0  0  0  0  0  0  0
    2.5530    0.2460   -1.5944 C   0  0  0  0  0  0  0  0  0  0  0  0
    3.8597    0.4916   -1.0480 C   0  0  0  0  0  0  0  0  0  0  0  0
    4.3527    0.7008    0.2334 C   0  0  0  0  0  0  0  0  0  0  0  0
    7.7804    0.1318    3.0547 H   0  0  0  0  0  0  0  0  0  0  0  0
    8.1521    0.0092    1.3375 H   0  0  0  0  0  0  0  0  0  0  0  0
    6.8570   -0.9668    2.0258 H   0  0  0  0  0  0  0  0  0  0  0  0
    4.5549    1.8969    2.7752 H   0  0  0  0  0  0  0  0  0  0  0  0
    5.7844    1.2684    3.8651 H   0  0  0  0  0  0  0  0  0  0  0  0
    4.7779    0.1469    2.9577 H   0  0  0  0  0  0  0  0  0  0  0  0
    7.4621    2.6682    2.7930 H   0  0  0  0  0  0  0  0  0  0  0  0
    7.8349    2.5316    1.0773 H   0  0  0  0  0  0  0  0  0  0  0  0
    6.3235    3.2784    1.5890 H   0  0  0  0  0  0  0  0  0  0  0  0
    7.6101    1.0438   -0.5775 H   0  0  0  0  0  0  0  0  0  0  0  0
    6.7514    0.6775   -2.8412 H   0  0  0  0  0  0  0  0  0  0  0  0
   -3.1082   -1.0369   -4.6832 H   0  0  0  0  0  0  0  0  0  0  0  0
   -4.8029   -1.0693   -2.8780 H   0  0  0  0  0  0  0  0  0  0  0  0
   -6.9388   -0.3252    0.3759 H   0  0  0  0  0  0  0  0  0  0  0  0
   -8.7042   -2.0336    0.2967 H   0  0  0  0  0  0  0  0  0  0  0  0
   -8.1932   -4.3141   -0.5017 H   0  0  0  0  0  0  0  0  0  0  0  0
   -5.8955   -4.8713   -1.2164 H   0  0  0  0  0  0  0  0  0  0  0  0
   -4.1237   -3.1705   -1.1214 H   0  0  0  0  0  0  0  0  0  0  0  0
   -3.6551    1.8654   -0.5103 H   0  0  0  0  0  0  0  0  0  0  0  0
   -3.5903    3.5067    1.3174 H   0  0  0  0  0  0  0  0  0  0  0  0
   -4.2774    2.8554    3.5989 H   0  0  0  0  0  0  0  0  0  0  0  0
   -5.0176    0.5400    4.0362 H   0  0  0  0  0  0  0  0  0  0  0  0
   -5.0659   -1.1091    2.2147 H   0  0  0  0  0  0  0  0  0  0  0  0
   -1.8123   -0.2002    0.0612 H   0  0  0  0  0  0  0  0  0  0  0  0
    1.0554    0.2254   -0.0323 H   0  0  0  0  0  0  0  0  0  0  0  0
    3.6631    0.7009    1.0604 H   0  0  0  0  0  0  0  0  0  0  0  0
  1  2  1  0  0  0  0
  2  3  1  0  0  0  0
  2  4  1  0  0  0  0
  2  5  1  0  0  0  0
  5  6  2  0  0  0  0
  6  7  1  0  0  0  0
  7  8  2  0  0  0  0
  8  9  1  0  0  0  0
  9 10  1  0  0  0  0
 10 11  2  0  0  0  0
 11 12  1  0  0  0  0
 12 13  1  0  0  0  0
 13 14  1  0  0  0  0
 14 15  2  0  0  0  0
 15 16  1  0  0  0  0
 16 17  2  0  0  0  0
 17 18  1  0  0  0  0
 18 19  1  0  0  0  0
 19 20  2  0  0  0  0
 20 21  1  0  0  0  0
 21 22  2  0  0  0  0
 22 23  1  0  0  0  0
 23 24  2  0  0  0  0
 18 25  1  0  0  0  0
 25 26  2  0  0  0  0
 26 27  1  0  0  0  0
 27 28  2  0  0  0  0
 28 29  1  0  0  0  0
 29 30  2  0  0  0  0
 17 31  1  0  0  0  0
 31 32  2  0  0  0  0
 32 33  1  0  0  0  0
 33 34  1  0  0  0  0
 34 35  2  0  0  0  0
 35 36  1  0  0  0  0
 36 37  2  0  0  0  0
 37  5  1  0  0  0  0
 36  8  1  0  0  0  0
 35 10  1  0  0  0  0
 33 12  2  0  0  0  0
 32 14  1  0  0  0  0
 24 19  1  0  0  0  0
 30 25  1  0  0  0  0
  1 38  1  0  0  0  0
  1 39  1  0  0  0  0
  1 40  1  0  0  0  0
  3 41  1  0  0  0  0
  3 42  1  0  0  0  0
  3 43  1  0  0  0  0
  4 44  1  0  0  0  0
  4 45  1  0  0  0  0
  4 46  1  0  0  0  0
  6 47  1  0  0  0  0
  7 48  1  0  0  0  0
 15 49  1  0  0  0  0
 16 50  1  0  0  0  0
 20 51  1  0  0  0  0
 21 52  1  0  0  0  0
 22 53  1  0  0  0  0
 23 54  1  0  0  0  0
 24 55  1  0  0  0  0
 26 56  1  0  0  0  0
 27 57  1  0  0  0  0
 28 58  1  0  0  0  0
 29 59  1  0  0  0  0
 30 60  1  0  0  0  0
 31 61  1  0  0  0  0
 34 62  1  0  0  0  0
 37 63  1  0  0  0  0
M  END
