
  xtb     03022213553D
 energy: -60.895278479113 gnorm: 0.000124091949 xtb: 6.4.1 (afa7bdf)
 48 47  0     0  0            999 V2000
    6.6026    3.0172   -0.3101 C   0  0  0  0  0  0  0  0  0  0  0  0
    6.0002    2.1374   -1.4080 C   0  0  0  0  0  0  0  0  0  0  0  0
    4.5934    2.5464   -1.7003 C   0  0  0  0  0  0  0  0  0  0  0  0
    3.4784    1.8367   -1.4877 C   0  0  0  0  0  0  0  0  0  0  0  0
    3.3908    0.5147   -0.9388 C   0  0  0  0  0  0  0  0  0  0  0  0
    2.2236   -0.1391   -0.7673 C   0  0  0  0  0  0  0  0  0  0  0  0
    2.1206   -1.4510   -0.2152 C   0  0  0  0  0  0  0  0  0  0  0  0
    0.9533   -2.1056   -0.0478 C   0  0  0  0  0  0  0  0  0  0  0  0
    0.8547   -3.4173    0.5239 C   0  0  0  0  0  0  0  0  0  0  0  0
   -0.2825   -4.0831    0.7642 C   0  0  0  0  0  0  0  0  0  0  0  0
   -1.6585   -3.5592    0.4993 C   0  0  0  0  0  0  0  0  0  0  0  0
   -2.1286   -2.6653    1.6565 C   0  0  0  0  0  0  0  0  0  0  0  0
   -3.4798   -1.9987    1.3949 C   0  0  0  0  0  0  0  0  0  0  0  0
   -3.4841   -0.9687    0.2620 C   0  0  0  0  0  0  0  0  0  0  0  0
   -2.6462    0.2709    0.5729 C   0  0  0  0  0  0  0  0  0  0  0  0
   -2.5295    1.2361   -0.6078 C   0  0  0  0  0  0  0  0  0  0  0  0
   -3.8633    1.8669   -1.0115 C   0  0  0  0  0  0  0  0  0  0  0  0
   -4.4262    2.7322    0.0867 C   0  0  0  0  0  0  0  0  0  0  0  0
   -3.7992    3.4673    0.7995 O   0  0  0  0  0  0  0  0  0  0  0  0
   -5.7587    2.6081    0.1803 O   0  0  0  0  0  0  0  0  0  0  0  0
    7.6356    2.7343   -0.1201 H   0  0  0  0  0  0  0  0  0  0  0  0
    6.5794    4.0643   -0.6039 H   0  0  0  0  0  0  0  0  0  0  0  0
    6.0369    2.9073    0.6124 H   0  0  0  0  0  0  0  0  0  0  0  0
    6.5963    2.2529   -2.3185 H   0  0  0  0  0  0  0  0  0  0  0  0
    6.0523    1.0926   -1.1043 H   0  0  0  0  0  0  0  0  0  0  0  0
    4.4983    3.5446   -2.1096 H   0  0  0  0  0  0  0  0  0  0  0  0
    2.5281    2.2876   -1.7494 H   0  0  0  0  0  0  0  0  0  0  0  0
    4.3081    0.0239   -0.6443 H   0  0  0  0  0  0  0  0  0  0  0  0
    1.2977    0.3431   -1.0578 H   0  0  0  0  0  0  0  0  0  0  0  0
    3.0450   -1.9284    0.0869 H   0  0  0  0  0  0  0  0  0  0  0  0
    0.0376   -1.6167   -0.3497 H   0  0  0  0  0  0  0  0  0  0  0  0
    1.7969   -3.8860    0.7813 H   0  0  0  0  0  0  0  0  0  0  0  0
   -0.2273   -5.0599    1.2253 H   0  0  0  0  0  0  0  0  0  0  0  0
   -2.3570   -4.3905    0.3839 H   0  0  0  0  0  0  0  0  0  0  0  0
   -1.6623   -2.9859   -0.4279 H   0  0  0  0  0  0  0  0  0  0  0  0
   -2.2106   -3.2774    2.5578 H   0  0  0  0  0  0  0  0  0  0  0  0
   -1.3685   -1.9077    1.8509 H   0  0  0  0  0  0  0  0  0  0  0  0
   -4.2132   -2.7750    1.1620 H   0  0  0  0  0  0  0  0  0  0  0  0
   -3.8047   -1.5040    2.3136 H   0  0  0  0  0  0  0  0  0  0  0  0
   -4.5203   -0.6702    0.0902 H   0  0  0  0  0  0  0  0  0  0  0  0
   -3.1215   -1.4292   -0.6592 H   0  0  0  0  0  0  0  0  0  0  0  0
   -1.6366   -0.0335    0.8532 H   0  0  0  0  0  0  0  0  0  0  0  0
   -3.0766    0.7974    1.4272 H   0  0  0  0  0  0  0  0  0  0  0  0
   -1.8425    2.0392   -0.3344 H   0  0  0  0  0  0  0  0  0  0  0  0
   -2.1153    0.7095   -1.4705 H   0  0  0  0  0  0  0  0  0  0  0  0
   -4.6040    1.1164   -1.2829 H   0  0  0  0  0  0  0  0  0  0  0  0
   -3.7062    2.5168   -1.8768 H   0  0  0  0  0  0  0  0  0  0  0  0
   -6.1069    3.1891    0.8753 H   0  0  0  0  0  0  0  0  0  0  0  0
  1  2  1  0  0  0  0
  2  3  1  0  0  0  0
  3  4  2  0  0  0  0
  4  5  1  0  0  0  0
  5  6  2  0  0  0  0
  6  7  1  0  0  0  0
  7  8  2  0  0  0  0
  8  9  1  0  0  0  0
  9 10  2  0  0  0  0
 10 11  1  0  0  0  0
 11 12  1  0  0  0  0
 12 13  1  0  0  0  0
 13 14  1  0  0  0  0
 14 15  1  0  0  0  0
 15 16  1  0  0  0  0
 16 17  1  0  0  0  0
 17 18  1  0  0  0  0
 18 19  2  0  0  0  0
 18 20  1  0  0  0  0
  1 21  1  0  0  0  0
  1 22  1  0  0  0  0
  1 23  1  0  0  0  0
  2 24  1  0  0  0  0
  2 25  1  0  0  0  0
  3 26  1  0  0  0  0
  4 27  1  0  0  0  0
  5 28  1  0  0  0  0
  6 29  1  0  0  0  0
  7 30  1  0  0  0  0
  8 31  1  0  0  0  0
  9 32  1  0  0  0  0
 10 33  1  0  0  0  0
 11 34  1  0  0  0  0
 11 35  1  0  0  0  0
 12 36  1  0  0  0  0
 12 37  1  0  0  0  0
 13 38  1  0  0  0  0
 13 39  1  0  0  0  0
 14 40  1  0  0  0  0
 14 41  1  0  0  0  0
 15 42  1  0  0  0  0
 15 43  1  0  0  0  0
 16 44  1  0  0  0  0
 16 45  1  0  0  0  0
 17 46  1  0  0  0  0
 17 47  1  0  0  0  0
 20 48  1  0  0  0  0
M  END
