
  xtb     03022215193D
 energy: -60.349759531606 gnorm: 0.000523941453 xtb: 6.4.1 (afa7bdf)
 36 38  0     0  0            999 V2000
    6.4258   -0.0343   -0.7093 C   0  0  0  0  0  0  0  0  0  0  0  0
    5.7177   -0.4776    0.4242 O   0  0  0  0  0  0  0  0  0  0  0  0
    4.3614   -0.4800    0.3887 C   0  0  0  0  0  0  0  0  0  0  0  0
    3.7244   -0.9534    1.5413 C   0  0  0  0  0  0  0  0  0  0  0  0
    2.3527   -1.0075    1.6145 C   0  0  0  0  0  0  0  0  0  0  0  0
    1.5905   -0.5845    0.5272 C   0  0  0  0  0  0  0  0  0  0  0  0
    0.2030   -0.6482    0.5906 N   0  0  0  0  0  0  0  0  0  0  0  0
   -0.4342   -1.0904    1.6350 N   0  0  0  0  0  0  0  0  0  0  0  0
   -1.7291   -1.0176    1.3206 C   0  0  0  0  0  0  0  0  0  0  0  0
   -2.7377   -1.4060    2.2052 C   0  0  0  0  0  0  0  0  0  0  0  0
   -3.5734   -1.7127    2.9323 N   0  0  0  0  0  0  0  0  0  0  0  0
   -1.8169   -0.4912   -0.0087 C   0  0  0  0  0  0  0  0  0  0  0  0
   -2.8945   -0.3253   -0.8108 N   0  0  0  0  0  0  0  0  0  0  0  0
   -4.2294   -0.1759   -0.2689 C   0  0  0  0  0  0  0  0  0  0  0  0
   -4.5389    1.3126   -0.0615 C   0  0  0  0  0  0  0  0  0  0  0  0
   -4.3838    2.0338   -1.2631 O   0  0  0  0  0  0  0  0  0  0  0  0
   -3.0760    1.9061   -1.7776 C   0  0  0  0  0  0  0  0  0  0  0  0
   -2.7245    0.4361   -2.0342 C   0  0  0  0  0  0  0  0  0  0  0  0
   -0.5705   -0.2696   -0.4219 N   0  0  0  0  0  0  0  0  0  0  0  0
    2.2101   -0.1074   -0.6193 C   0  0  0  0  0  0  0  0  0  0  0  0
    3.5896   -0.0548   -0.6900 C   0  0  0  0  0  0  0  0  0  0  0  0
    6.2052   -0.6505   -1.5865 H   0  0  0  0  0  0  0  0  0  0  0  0
    6.2074    1.0142   -0.9352 H   0  0  0  0  0  0  0  0  0  0  0  0
    7.4795   -0.1350   -0.4550 H   0  0  0  0  0  0  0  0  0  0  0  0
    4.3378   -1.2763    2.3669 H   0  0  0  0  0  0  0  0  0  0  0  0
    1.8538   -1.3738    2.4970 H   0  0  0  0  0  0  0  0  0  0  0  0
   -4.9299   -0.5913   -1.0007 H   0  0  0  0  0  0  0  0  0  0  0  0
   -4.3265   -0.7219    0.6678 H   0  0  0  0  0  0  0  0  0  0  0  0
   -5.5745    1.4538    0.2496 H   0  0  0  0  0  0  0  0  0  0  0  0
   -3.8690    1.7201    0.7128 H   0  0  0  0  0  0  0  0  0  0  0  0
   -2.3492    2.3338   -1.0691 H   0  0  0  0  0  0  0  0  0  0  0  0
   -3.0570    2.4802   -2.7048 H   0  0  0  0  0  0  0  0  0  0  0  0
   -1.6932    0.3378   -2.3694 H   0  0  0  0  0  0  0  0  0  0  0  0
   -3.4043    0.0216   -2.7846 H   0  0  0  0  0  0  0  0  0  0  0  0
    1.6034    0.2171   -1.4492 H   0  0  0  0  0  0  0  0  0  0  0  0
    4.0503    0.3181   -1.5906 H   0  0  0  0  0  0  0  0  0  0  0  0
  1  2  1  0  0  0  0
  2  3  1  0  0  0  0
  3  4  2  0  0  0  0
  4  5  1  0  0  0  0
  5  6  2  0  0  0  0
  6  7  1  0  0  0  0
  7  8  1  0  0  0  0
  8  9  2  0  0  0  0
  9 10  1  0  0  0  0
 10 11  3  0  0  0  0
  9 12  1  0  0  0  0
 12 13  1  0  0  0  0
 13 14  1  0  0  0  0
 14 15  1  0  0  0  0
 15 16  1  0  0  0  0
 16 17  1  0  0  0  0
 17 18  1  0  0  0  0
 12 19  2  0  0  0  0
  6 20  1  0  0  0  0
 20 21  2  0  0  0  0
 21  3  1  0  0  0  0
 19  7  1  0  0  0  0
 18 13  1  0  0  0  0
  1 22  1  0  0  0  0
  1 23  1  0  0  0  0
  1 24  1  0  0  0  0
  4 25  1  0  0  0  0
  5 26  1  0  0  0  0
 14 27  1  0  0  0  0
 14 28  1  0  0  0  0
 15 29  1  0  0  0  0
 15 30  1  0  0  0  0
 17 31  1  0  0  0  0
 17 32  1  0  0  0  0
 18 33  1  0  0  0  0
 18 34  1  0  0  0  0
 20 35  1  0  0  0  0
 21 36  1  0  0  0  0
M  END
