
  xtb     03022212183D
 energy: -113.759076563021 gnorm: 0.000362982520 xtb: 6.4.1 (afa7bdf)
 64 66  0     0  0            999 V2000
   -3.9565   -0.0020   -2.7498 C   0  0  0  0  0  0  0  0  0  0  0  0
   -4.0626   -1.0195   -1.7809 O   0  0  0  0  0  0  0  0  0  0  0  0
   -3.0469   -1.2172   -0.9103 C   0  0  0  0  0  0  0  0  0  0  0  0
   -1.8698   -0.4885   -0.9218 C   0  0  0  0  0  0  0  0  0  0  0  0
   -0.8564   -0.7467    0.0032 C   0  0  0  0  0  0  0  0  0  0  0  0
    0.3178    0.0030   -0.0278 N   0  0  0  0  0  0  0  0  0  0  0  0
    0.2703    1.3583   -0.3751 C   0  0  0  0  0  0  0  0  0  0  0  0
    1.2586    1.9179   -1.1856 C   0  0  0  0  0  0  0  0  0  0  0  0
    1.1889    3.2510   -1.5171 C   0  0  0  0  0  0  0  0  0  0  0  0
    0.1646    4.0777   -1.0460 C   0  0  0  0  0  0  0  0  0  0  0  0
    0.2009    5.4751   -1.3975 C   0  0  0  0  0  0  0  0  0  0  0  0
   -0.2572    6.5340   -0.6854 C   0  0  0  0  0  0  0  0  0  0  0  0
   -0.1249    7.8427   -1.2113 C   0  0  0  0  0  0  0  0  0  0  0  0
   -0.0256    8.8974   -1.6481 N   0  0  0  0  0  0  0  0  0  0  0  0
   -0.7983    6.5064    0.6206 C   0  0  0  0  0  0  0  0  0  0  0  0
   -1.1800    6.5715    1.7000 N   0  0  0  0  0  0  0  0  0  0  0  0
   -0.8606    3.4953   -0.2620 C   0  0  0  0  0  0  0  0  0  0  0  0
   -1.8968    4.2926    0.0645 O   0  0  0  0  0  0  0  0  0  0  0  0
   -2.9026    3.8161    0.9294 C   0  0  0  0  0  0  0  0  0  0  0  0
   -0.7858    2.1505    0.0711 C   0  0  0  0  0  0  0  0  0  0  0  0
    1.5442   -0.5852    0.2829 C   0  0  0  0  0  0  0  0  0  0  0  0
    2.5412    0.1537    0.9237 C   0  0  0  0  0  0  0  0  0  0  0  0
    3.7476   -0.4342    1.2188 C   0  0  0  0  0  0  0  0  0  0  0  0
    4.0145   -1.7715    0.9043 C   0  0  0  0  0  0  0  0  0  0  0  0
    5.2508   -2.4300    1.2062 C   0  0  0  0  0  0  0  0  0  0  0  0
    6.4005   -1.9012    1.7036 C   0  0  0  0  0  0  0  0  0  0  0  0
    7.5111   -2.7493    1.9333 C   0  0  0  0  0  0  0  0  0  0  0  0
    8.4080   -3.4385    2.1179 N   0  0  0  0  0  0  0  0  0  0  0  0
    6.6634   -0.5517    2.0212 C   0  0  0  0  0  0  0  0  0  0  0  0
    6.9493    0.5274    2.2890 N   0  0  0  0  0  0  0  0  0  0  0  0
    2.9918   -2.5228    0.2624 C   0  0  0  0  0  0  0  0  0  0  0  0
    3.2820   -3.8093   -0.0279 O   0  0  0  0  0  0  0  0  0  0  0  0
    2.2997   -4.6260   -0.6242 C   0  0  0  0  0  0  0  0  0  0  0  0
    1.7840   -1.9192   -0.0473 C   0  0  0  0  0  0  0  0  0  0  0  0
   -1.0376   -1.7545    0.9538 C   0  0  0  0  0  0  0  0  0  0  0  0
   -2.1957   -2.4941    0.9581 C   0  0  0  0  0  0  0  0  0  0  0  0
   -3.2233   -2.2619    0.0369 C   0  0  0  0  0  0  0  0  0  0  0  0
   -4.4507   -3.0020    0.0155 C   0  0  0  0  0  0  0  0  0  0  0  0
   -4.7337   -4.1798    0.6327 C   0  0  0  0  0  0  0  0  0  0  0  0
   -3.8476   -4.9752    1.3902 C   0  0  0  0  0  0  0  0  0  0  0  0
   -3.1649   -5.6752    1.9914 N   0  0  0  0  0  0  0  0  0  0  0  0
   -6.0250   -4.7451    0.5018 C   0  0  0  0  0  0  0  0  0  0  0  0
   -7.0726   -5.1973    0.3947 N   0  0  0  0  0  0  0  0  0  0  0  0
   -3.1266   -0.1885   -3.4376 H   0  0  0  0  0  0  0  0  0  0  0  0
   -3.8359    0.9829   -2.2885 H   0  0  0  0  0  0  0  0  0  0  0  0
   -4.8940   -0.0280   -3.3024 H   0  0  0  0  0  0  0  0  0  0  0  0
   -1.7101    0.2863   -1.6548 H   0  0  0  0  0  0  0  0  0  0  0  0
    2.0653    1.3033   -1.5527 H   0  0  0  0  0  0  0  0  0  0  0  0
    1.9573    3.6832   -2.1403 H   0  0  0  0  0  0  0  0  0  0  0  0
    0.7094    5.7037   -2.3279 H   0  0  0  0  0  0  0  0  0  0  0  0
   -3.5645    4.6637    1.0952 H   0  0  0  0  0  0  0  0  0  0  0  0
   -3.4651    2.9936    0.4763 H   0  0  0  0  0  0  0  0  0  0  0  0
   -2.4838    3.4971    1.8871 H   0  0  0  0  0  0  0  0  0  0  0  0
   -1.5453    1.6987    0.6892 H   0  0  0  0  0  0  0  0  0  0  0  0
    2.3573    1.1802    1.1985 H   0  0  0  0  0  0  0  0  0  0  0  0
    4.5002    0.1471    1.7251 H   0  0  0  0  0  0  0  0  0  0  0  0
    5.2635   -3.4925    0.9981 H   0  0  0  0  0  0  0  0  0  0  0  0
    2.7564   -5.6100   -0.7140 H   0  0  0  0  0  0  0  0  0  0  0  0
    1.4042   -4.6981   -0.0001 H   0  0  0  0  0  0  0  0  0  0  0  0
    2.0272   -4.2628   -1.6195 H   0  0  0  0  0  0  0  0  0  0  0  0
    1.0110   -2.4723   -0.5566 H   0  0  0  0  0  0  0  0  0  0  0  0
   -0.2739   -1.9370    1.6932 H   0  0  0  0  0  0  0  0  0  0  0  0
   -2.3272   -3.2545    1.7102 H   0  0  0  0  0  0  0  0  0  0  0  0
   -5.2392   -2.5694   -0.5873 H   0  0  0  0  0  0  0  0  0  0  0  0
  1  2  1  0  0  0  0
  2  3  1  0  0  0  0
  3  4  2  0  0  0  0
  4  5  1  0  0  0  0
  5  6  1  0  0  0  0
  6  7  1  0  0  0  0
  7  8  2  0  0  0  0
  8  9  1  0  0  0  0
  9 10  2  0  0  0  0
 10 11  1  0  0  0  0
 11 12  2  0  0  0  0
 12 13  1  0  0  0  0
 13 14  3  0  0  0  0
 12 15  1  0  0  0  0
 15 16  3  0  0  0  0
 10 17  1  0  0  0  0
 17 18  1  0  0  0  0
 18 19  1  0  0  0  0
 17 20  2  0  0  0  0
  6 21  1  0  0  0  0
 21 22  2  0  0  0  0
 22 23  1  0  0  0  0
 23 24  2  0  0  0  0
 24 25  1  0  0  0  0
 25 26  2  0  0  0  0
 26 27  1  0  0  0  0
 27 28  3  0  0  0  0
 26 29  1  0  0  0  0
 29 30  3  0  0  0  0
 24 31  1  0  0  0  0
 31 32  1  0  0  0  0
 32 33  1  0  0  0  0
 31 34  2  0  0  0  0
  5 35  2  0  0  0  0
 35 36  1  0  0  0  0
 36 37  2  0  0  0  0
 37 38  1  0  0  0  0
 38 39  2  0  0  0  0
 39 40  1  0  0  0  0
 40 41  3  0  0  0  0
 39 42  1  0  0  0  0
 42 43  3  0  0  0  0
 37  3  1  0  0  0  0
 20  7  1  0  0  0  0
 34 21  1  0  0  0  0
  1 44  1  0  0  0  0
  1 45  1  0  0  0  0
  1 46  1  0  0  0  0
  4 47  1  0  0  0  0
  8 48  1  0  0  0  0
  9 49  1  0  0  0  0
 11 50  1  0  0  0  0
 19 51  1  0  0  0  0
 19 52  1  0  0  0  0
 19 53  1  0  0  0  0
 20 54  1  0  0  0  0
 22 55  1  0  0  0  0
 23 56  1  0  0  0  0
 25 57  1  0  0  0  0
 33 58  1  0  0  0  0
 33 59  1  0  0  0  0
 33 60  1  0  0  0  0
 34 61  1  0  0  0  0
 35 62  1  0  0  0  0
 36 63  1  0  0  0  0
 38 64  1  0  0  0  0
M  END
