
  xtb     03022214163D
 energy: -128.936184123400 gnorm: 0.000100505116 xtb: 6.4.1 (afa7bdf)
 79 85  0     0  0            999 V2000
   -7.0436   -6.1097    0.0348 C   0  0  0  0  0  0  0  0  0  0  0  0
   -7.4990   -4.8707    0.5181 O   0  0  0  0  0  0  0  0  0  0  0  0
   -6.6919   -3.7800    0.3745 C   0  0  0  0  0  0  0  0  0  0  0  0
   -7.1938   -2.5813    0.8854 C   0  0  0  0  0  0  0  0  0  0  0  0
   -6.4673   -1.4164    0.7872 C   0  0  0  0  0  0  0  0  0  0  0  0
   -5.2168   -1.4116    0.1677 C   0  0  0  0  0  0  0  0  0  0  0  0
   -4.4100   -0.2067    0.0536 C   0  0  0  0  0  0  0  0  0  0  0  0
   -3.0546   -0.2941    0.0279 N   0  0  0  0  0  0  0  0  0  0  0  0
   -2.5899    0.9346   -0.0276 C   0  0  0  0  0  0  0  0  0  0  0  0
   -1.2101    1.2914   -0.0713 C   0  0  0  0  0  0  0  0  0  0  0  0
   -0.6345    2.5351   -0.1850 C   0  0  0  0  0  0  0  0  0  0  0  0
    0.7636    2.4982   -0.1986 C   0  0  0  0  0  0  0  0  0  0  0  0
    1.2679    1.2249   -0.0924 C   0  0  0  0  0  0  0  0  0  0  0  0
    2.6422    0.8462   -0.0701 C   0  0  0  0  0  0  0  0  0  0  0  0
    3.6624    1.6694   -0.1945 N   0  0  0  0  0  0  0  0  0  0  0  0
    4.7890    0.9150   -0.1101 C   0  0  0  0  0  0  0  0  0  0  0  0
    6.0965    1.5521   -0.1592 C   0  0  0  0  0  0  0  0  0  0  0  0
    7.1998    1.0439    0.5277 C   0  0  0  0  0  0  0  0  0  0  0  0
    8.4164    1.6853    0.4678 C   0  0  0  0  0  0  0  0  0  0  0  0
    8.5683    2.8580   -0.2747 C   0  0  0  0  0  0  0  0  0  0  0  0
    9.8187    3.4050   -0.2725 O   0  0  0  0  0  0  0  0  0  0  0  0
   10.0321    4.5907   -0.9967 C   0  0  0  0  0  0  0  0  0  0  0  0
    7.4679    3.3821   -0.9438 C   0  0  0  0  0  0  0  0  0  0  0  0
    6.2489    2.7334   -0.8780 C   0  0  0  0  0  0  0  0  0  0  0  0
    4.4452   -0.4240    0.0629 C   0  0  0  0  0  0  0  0  0  0  0  0
    5.2219   -1.6454    0.1507 C   0  0  0  0  0  0  0  0  0  0  0  0
    6.4010   -1.8062   -0.5832 C   0  0  0  0  0  0  0  0  0  0  0  0
    7.1228   -2.9735   -0.5035 C   0  0  0  0  0  0  0  0  0  0  0  0
    6.6923   -4.0255    0.3100 C   0  0  0  0  0  0  0  0  0  0  0  0
    7.4850   -5.1323    0.3190 O   0  0  0  0  0  0  0  0  0  0  0  0
    7.1119   -6.2212    1.1272 C   0  0  0  0  0  0  0  0  0  0  0  0
    5.5153   -3.8791    1.0350 C   0  0  0  0  0  0  0  0  0  0  0  0
    4.7924   -2.7029    0.9489 C   0  0  0  0  0  0  0  0  0  0  0  0
    3.0754   -0.4358    0.0964 N   0  0  0  0  0  0  0  0  0  0  0  0
   -0.0098    0.0461    0.0227 S   0  0  0  0  0  0  0  0  0  0  0  0
   -3.6146    1.8365   -0.0344 N   0  0  0  0  0  0  0  0  0  0  0  0
   -4.7911    1.1311    0.0033 C   0  0  0  0  0  0  0  0  0  0  0  0
   -6.0774    1.7989   -0.0586 C   0  0  0  0  0  0  0  0  0  0  0  0
   -6.2730    3.0224    0.5769 C   0  0  0  0  0  0  0  0  0  0  0  0
   -7.4893    3.6789    0.5162 C   0  0  0  0  0  0  0  0  0  0  0  0
   -8.5440    3.1209   -0.1970 C   0  0  0  0  0  0  0  0  0  0  0  0
   -9.7817    3.6727   -0.3238 O   0  0  0  0  0  0  0  0  0  0  0  0
  -10.0455    4.8922    0.3253 C   0  0  0  0  0  0  0  0  0  0  0  0
   -8.3511    1.8991   -0.8483 C   0  0  0  0  0  0  0  0  0  0  0  0
   -7.1409    1.2505   -0.7817 C   0  0  0  0  0  0  0  0  0  0  0  0
   -4.7119   -2.6138   -0.3180 C   0  0  0  0  0  0  0  0  0  0  0  0
   -5.4365   -3.7872   -0.2236 C   0  0  0  0  0  0  0  0  0  0  0  0
   -6.1243   -6.4258    0.5388 H   0  0  0  0  0  0  0  0  0  0  0  0
   -6.8734   -6.0827   -1.0467 H   0  0  0  0  0  0  0  0  0  0  0  0
   -7.8371   -6.8224    0.2553 H   0  0  0  0  0  0  0  0  0  0  0  0
   -8.1613   -2.5946    1.3624 H   0  0  0  0  0  0  0  0  0  0  0  0
   -6.8646   -0.5040    1.2055 H   0  0  0  0  0  0  0  0  0  0  0  0
   -1.2020    3.4464   -0.2598 H   0  0  0  0  0  0  0  0  0  0  0  0
    1.4017    3.3580   -0.2792 H   0  0  0  0  0  0  0  0  0  0  0  0
    7.0977    0.1484    1.1218 H   0  0  0  0  0  0  0  0  0  0  0  0
    9.2746    1.3003    0.9959 H   0  0  0  0  0  0  0  0  0  0  0  0
    9.8333    4.4520   -2.0647 H   0  0  0  0  0  0  0  0  0  0  0  0
    9.4153    5.4119   -0.6167 H   0  0  0  0  0  0  0  0  0  0  0  0
   11.0836    4.8372   -0.8567 H   0  0  0  0  0  0  0  0  0  0  0  0
    7.5466    4.2928   -1.5170 H   0  0  0  0  0  0  0  0  0  0  0  0
    5.3902    3.1394   -1.3893 H   0  0  0  0  0  0  0  0  0  0  0  0
    6.7390   -1.0058   -1.2230 H   0  0  0  0  0  0  0  0  0  0  0  0
    8.0325   -3.1041   -1.0675 H   0  0  0  0  0  0  0  0  0  0  0  0
    7.0716   -5.9421    2.1852 H   0  0  0  0  0  0  0  0  0  0  0  0
    7.8858   -6.9736    0.9839 H   0  0  0  0  0  0  0  0  0  0  0  0
    6.1451   -6.6359    0.8234 H   0  0  0  0  0  0  0  0  0  0  0  0
    5.1510   -4.6695    1.6725 H   0  0  0  0  0  0  0  0  0  0  0  0
    3.8905   -2.6030    1.5365 H   0  0  0  0  0  0  0  0  0  0  0  0
    2.4915   -1.2518    0.1810 H   0  0  0  0  0  0  0  0  0  0  0  0
   -3.5384    2.8372   -0.1036 H   0  0  0  0  0  0  0  0  0  0  0  0
   -5.4725    3.4635    1.1548 H   0  0  0  0  0  0  0  0  0  0  0  0
   -7.6005    4.6200    1.0316 H   0  0  0  0  0  0  0  0  0  0  0  0
   -9.4027    5.6957   -0.0492 H   0  0  0  0  0  0  0  0  0  0  0  0
   -9.9242    4.8051    1.4100 H   0  0  0  0  0  0  0  0  0  0  0  0
  -11.0838    5.1284    0.0982 H   0  0  0  0  0  0  0  0  0  0  0  0
   -9.1752    1.4823   -1.4051 H   0  0  0  0  0  0  0  0  0  0  0  0
   -7.0019    0.3123   -1.2962 H   0  0  0  0  0  0  0  0  0  0  0  0
   -3.7342   -2.6151   -0.7740 H   0  0  0  0  0  0  0  0  0  0  0  0
   -5.0128   -4.6978   -0.6177 H   0  0  0  0  0  0  0  0  0  0  0  0
  1  2  1  0  0  0  0
  2  3  1  0  0  0  0
  3  4  2  0  0  0  0
  4  5  1  0  0  0  0
  5  6  2  0  0  0  0
  6  7  1  0  0  0  0
  7  8  1  0  0  0  0
  8  9  2  0  0  0  0
  9 10  1  0  0  0  0
 10 11  2  0  0  0  0
 11 12  1  0  0  0  0
 12 13  2  0  0  0  0
 13 14  1  0  0  0  0
 14 15  2  0  0  0  0
 15 16  1  0  0  0  0
 16 17  1  0  0  0  0
 17 18  2  0  0  0  0
 18 19  1  0  0  0  0
 19 20  2  0  0  0  0
 20 21  1  0  0  0  0
 21 22  1  0  0  0  0
 20 23  1  0  0  0  0
 23 24  2  0  0  0  0
 16 25  2  0  0  0  0
 25 26  1  0  0  0  0
 26 27  2  0  0  0  0
 27 28  1  0  0  0  0
 28 29  2  0  0  0  0
 29 30  1  0  0  0  0
 30 31  1  0  0  0  0
 29 32  1  0  0  0  0
 32 33  2  0  0  0  0
 25 34  1  0  0  0  0
 13 35  1  0  0  0  0
  9 36  1  0  0  0  0
 36 37  1  0  0  0  0
 37 38  1  0  0  0  0
 38 39  2  0  0  0  0
 39 40  1  0  0  0  0
 40 41  2  0  0  0  0
 41 42  1  0  0  0  0
 42 43  1  0  0  0  0
 41 44  1  0  0  0  0
 44 45  2  0  0  0  0
  6 46  1  0  0  0  0
 46 47  2  0  0  0  0
 47  3  1  0  0  0  0
 37  7  2  0  0  0  0
 45 38  1  0  0  0  0
 35 10  1  0  0  0  0
 34 14  1  0  0  0  0
 24 17  1  0  0  0  0
 33 26  1  0  0  0  0
  1 48  1  0  0  0  0
  1 49  1  0  0  0  0
  1 50  1  0  0  0  0
  4 51  1  0  0  0  0
  5 52  1  0  0  0  0
 11 53  1  0  0  0  0
 12 54  1  0  0  0  0
 18 55  1  0  0  0  0
 19 56  1  0  0  0  0
 22 57  1  0  0  0  0
 22 58  1  0  0  0  0
 22 59  1  0  0  0  0
 23 60  1  0  0  0  0
 24 61  1  0  0  0  0
 27 62  1  0  0  0  0
 28 63  1  0  0  0  0
 31 64  1  0  0  0  0
 31 65  1  0  0  0  0
 31 66  1  0  0  0  0
 32 67  1  0  0  0  0
 33 68  1  0  0  0  0
 34 69  1  0  0  0  0
 36 70  1  0  0  0  0
 39 71  1  0  0  0  0
 40 72  1  0  0  0  0
 43 73  1  0  0  0  0
 43 74  1  0  0  0  0
 43 75  1  0  0  0  0
 44 76  1  0  0  0  0
 45 77  1  0  0  0  0
 46 78  1  0  0  0  0
 47 79  1  0  0  0  0
M  END
