
  xtb     03022215323D
 energy: -63.849032894304 gnorm: 0.000193710239 xtb: 6.4.1 (afa7bdf)
 42 47  0     0  0            999 V2000
    3.3016   -2.3633   -0.8832 C   0  0  0  0  0  0  0  0  0  0  0  0
    2.1927   -2.5538   -1.7116 C   0  0  0  0  0  0  0  0  0  0  0  0
    0.9794   -2.0053   -1.3858 C   0  0  0  0  0  0  0  0  0  0  0  0
    0.8136   -1.2450   -0.2151 C   0  0  0  0  0  0  0  0  0  0  0  0
    1.9670   -0.9550    0.5532 C   0  0  0  0  0  0  0  0  0  0  0  0
    3.1923   -1.5556    0.2174 C   0  0  0  0  0  0  0  0  0  0  0  0
    1.8831   -0.0151    1.6157 C   0  0  0  0  0  0  0  0  0  0  0  0
    0.7431    0.6875    1.8187 C   0  0  0  0  0  0  0  0  0  0  0  0
   -0.4370    0.3987    1.0818 C   0  0  0  0  0  0  0  0  0  0  0  0
   -1.5899    1.2056    1.2344 C   0  0  0  0  0  0  0  0  0  0  0  0
   -2.6815    0.9935    0.4544 C   0  0  0  0  0  0  0  0  0  0  0  0
   -2.7686   -0.1597   -0.3613 C   0  0  0  0  0  0  0  0  0  0  0  0
   -3.9051   -0.3823   -1.1746 C   0  0  0  0  0  0  0  0  0  0  0  0
   -3.9869   -1.4894   -1.9573 C   0  0  0  0  0  0  0  0  0  0  0  0
   -3.0472   -2.5376   -1.8098 C   0  0  0  0  0  0  0  0  0  0  0  0
   -3.1941   -3.7419   -2.5495 C   0  0  0  0  0  0  0  0  0  0  0  0
   -2.3596   -4.7901   -2.3511 C   0  0  0  0  0  0  0  0  0  0  0  0
   -1.4142   -4.7636   -1.2905 C   0  0  0  0  0  0  0  0  0  0  0  0
   -0.6707   -5.9091   -0.9591 C   0  0  0  0  0  0  0  0  0  0  0  0
    0.1465   -5.9238    0.1398 C   0  0  0  0  0  0  0  0  0  0  0  0
    0.2048   -4.8020    0.9708 C   0  0  0  0  0  0  0  0  0  0  0  0
   -0.4853   -3.6622    0.6492 C   0  0  0  0  0  0  0  0  0  0  0  0
   -1.2626   -3.5857   -0.5196 C   0  0  0  0  0  0  0  0  0  0  0  0
   -1.9751   -2.3964   -0.9086 C   0  0  0  0  0  0  0  0  0  0  0  0
   -1.7106   -1.0977   -0.3639 C   0  0  0  0  0  0  0  0  0  0  0  0
   -0.4513   -0.6808    0.1784 C   0  0  0  0  0  0  0  0  0  0  0  0
    4.2463   -2.8229   -1.1342 H   0  0  0  0  0  0  0  0  0  0  0  0
    2.2952   -3.1318   -2.6182 H   0  0  0  0  0  0  0  0  0  0  0  0
    0.1455   -2.1326   -2.0583 H   0  0  0  0  0  0  0  0  0  0  0  0
    4.0557   -1.3474    0.8337 H   0  0  0  0  0  0  0  0  0  0  0  0
    2.7657    0.1711    2.2110 H   0  0  0  0  0  0  0  0  0  0  0  0
    0.7003    1.4742    2.5585 H   0  0  0  0  0  0  0  0  0  0  0  0
   -1.5540    2.0324    1.9291 H   0  0  0  0  0  0  0  0  0  0  0  0
   -3.5193    1.6756    0.4725 H   0  0  0  0  0  0  0  0  0  0  0  0
   -4.6828    0.3677   -1.1887 H   0  0  0  0  0  0  0  0  0  0  0  0
   -4.8052   -1.6224   -2.6502 H   0  0  0  0  0  0  0  0  0  0  0  0
   -3.9819   -3.7917   -3.2878 H   0  0  0  0  0  0  0  0  0  0  0  0
   -2.4400   -5.6870   -2.9486 H   0  0  0  0  0  0  0  0  0  0  0  0
   -0.7755   -6.7897   -1.5773 H   0  0  0  0  0  0  0  0  0  0  0  0
    0.7162   -6.8073    0.3876 H   0  0  0  0  0  0  0  0  0  0  0  0
    0.7930   -4.8368    1.8760 H   0  0  0  0  0  0  0  0  0  0  0  0
   -0.4571   -2.8205    1.3234 H   0  0  0  0  0  0  0  0  0  0  0  0
  1  2  2  0  0  0  0
  1 27  1  0  0  0  0
  2  3  1  0  0  0  0
  2 28  1  0  0  0  0
  3  4  2  0  0  0  0
  3 29  1  0  0  0  0
  4  5  1  0  0  0  0
  5  6  2  0  0  0  0
  5  7  1  0  0  0  0
  6  1  1  0  0  0  0
  6 30  1  0  0  0  0
  7  8  2  0  0  0  0
  7 31  1  0  0  0  0
  8  9  1  0  0  0  0
  8 32  1  0  0  0  0
  9 10  2  0  0  0  0
 10 11  1  0  0  0  0
 10 33  1  0  0  0  0
 11 12  2  0  0  0  0
 11 34  1  0  0  0  0
 12 13  1  0  0  0  0
 13 14  2  0  0  0  0
 13 35  1  0  0  0  0
 14 15  1  0  0  0  0
 14 36  1  0  0  0  0
 15 16  2  0  0  0  0
 16 17  1  0  0  0  0
 16 37  1  0  0  0  0
 17 18  2  0  0  0  0
 17 38  1  0  0  0  0
 18 19  1  0  0  0  0
 19 20  2  0  0  0  0
 19 39  1  0  0  0  0
 20 21  1  0  0  0  0
 20 40  1  0  0  0  0
 21 22  2  0  0  0  0
 21 41  1  0  0  0  0
 22 23  1  0  0  0  0
 22 42  1  0  0  0  0
 23 24  2  0  0  0  0
 23 18  1  0  0  0  0
 24 25  1  0  0  0  0
 24 15  1  0  0  0  0
 25 26  2  0  0  0  0
 25 12  1  0  0  0  0
 26  9  1  0  0  0  0
 26  4  1  0  0  0  0
M  END
