
  xtb     03022214443D
 energy: -131.466301014189 gnorm: 0.000124584197 xtb: 6.4.1 (afa7bdf)
 81 88  0     0  0            999 V2000
    0.3335    8.5445   -0.9142 C   0  0  0  0  0  0  0  0  0  0  0  0
    1.1016    7.9254    0.2552 C   0  0  0  0  0  0  0  0  0  0  0  0
    1.8230    6.7305   -0.1239 N   0  0  0  0  0  0  0  0  0  0  0  0
    3.1805    6.9358   -0.5781 C   0  0  0  0  0  0  0  0  0  0  0  0
    4.1991    6.8503    0.5605 C   0  0  0  0  0  0  0  0  0  0  0  0
    1.2541    5.4912   -0.0707 C   0  0  0  0  0  0  0  0  0  0  0  0
    2.0152    4.3219   -0.2649 C   0  0  0  0  0  0  0  0  0  0  0  0
    1.4404    3.0760   -0.2132 C   0  0  0  0  0  0  0  0  0  0  0  0
    0.0751    2.9238    0.0398 C   0  0  0  0  0  0  0  0  0  0  0  0
   -0.5332    1.6148    0.0951 C   0  0  0  0  0  0  0  0  0  0  0  0
   -1.8467    1.5319    0.2945 N   0  0  0  0  0  0  0  0  0  0  0  0
   -2.3511    0.3076    0.3239 C   0  0  0  0  0  0  0  0  0  0  0  0
   -3.6591    0.2860    0.5431 O   0  0  0  0  0  0  0  0  0  0  0  0
   -4.4561   -0.8353    0.5431 C   0  0  0  0  0  0  0  0  0  0  0  0
   -5.7203   -0.6310    1.0961 C   0  0  0  0  0  0  0  0  0  0  0  0
   -6.6454   -1.6514    1.1249 C   0  0  0  0  0  0  0  0  0  0  0  0
   -6.3294   -2.9044    0.5962 C   0  0  0  0  0  0  0  0  0  0  0  0
   -7.2639   -4.0115    0.5932 C   0  0  0  0  0  0  0  0  0  0  0  0
   -7.0101   -5.1825    0.0669 N   0  0  0  0  0  0  0  0  0  0  0  0
   -8.1286   -5.9406    0.2619 C   0  0  0  0  0  0  0  0  0  0  0  0
   -8.4027   -7.2570   -0.0974 C   0  0  0  0  0  0  0  0  0  0  0  0
   -9.6387   -7.7671    0.2366 C   0  0  0  0  0  0  0  0  0  0  0  0
  -10.5932   -7.0022    0.9120 C   0  0  0  0  0  0  0  0  0  0  0  0
  -10.3452   -5.6946    1.2785 C   0  0  0  0  0  0  0  0  0  0  0  0
   -9.1053   -5.1749    0.9460 C   0  0  0  0  0  0  0  0  0  0  0  0
   -8.5241   -3.9514    1.1415 N   0  0  0  0  0  0  0  0  0  0  0  0
   -5.0626   -3.0946    0.0424 C   0  0  0  0  0  0  0  0  0  0  0  0
   -4.1299   -2.0777    0.0108 C   0  0  0  0  0  0  0  0  0  0  0  0
   -1.6498   -0.8083    0.1803 N   0  0  0  0  0  0  0  0  0  0  0  0
   -0.3453   -0.6224   -0.0003 C   0  0  0  0  0  0  0  0  0  0  0  0
    0.3318   -1.7537   -0.1710 O   0  0  0  0  0  0  0  0  0  0  0  0
    1.7073   -1.7788   -0.2480 C   0  0  0  0  0  0  0  0  0  0  0  0
    2.2547   -2.7567   -1.0760 C   0  0  0  0  0  0  0  0  0  0  0  0
    3.6209   -2.8966   -1.1688 C   0  0  0  0  0  0  0  0  0  0  0  0
    4.4733   -2.0651   -0.4373 C   0  0  0  0  0  0  0  0  0  0  0  0
    5.9041   -2.2516   -0.5712 C   0  0  0  0  0  0  0  0  0  0  0  0
    6.4533   -3.1712   -1.3229 N   0  0  0  0  0  0  0  0  0  0  0  0
    7.8033   -3.0274   -1.1796 C   0  0  0  0  0  0  0  0  0  0  0  0
    8.8541   -3.7406   -1.7491 C   0  0  0  0  0  0  0  0  0  0  0  0
   10.1372   -3.3649   -1.4150 C   0  0  0  0  0  0  0  0  0  0  0  0
   10.3902   -2.3076   -0.5372 C   0  0  0  0  0  0  0  0  0  0  0  0
    9.3651   -1.5856    0.0404 C   0  0  0  0  0  0  0  0  0  0  0  0
    8.0727   -1.9576   -0.2901 C   0  0  0  0  0  0  0  0  0  0  0  0
    6.8426   -1.4845    0.0791 N   0  0  0  0  0  0  0  0  0  0  0  0
    3.9122   -1.0991    0.3970 C   0  0  0  0  0  0  0  0  0  0  0  0
    2.5415   -0.9568    0.4981 C   0  0  0  0  0  0  0  0  0  0  0  0
    0.2590    0.5458   -0.0540 N   0  0  0  0  0  0  0  0  0  0  0  0
   -0.6915    4.0752    0.2360 C   0  0  0  0  0  0  0  0  0  0  0  0
   -0.1214    5.3223    0.1818 C   0  0  0  0  0  0  0  0  0  0  0  0
    1.0163    8.8171   -1.7156 H   0  0  0  0  0  0  0  0  0  0  0  0
   -0.1890    9.4390   -0.5855 H   0  0  0  0  0  0  0  0  0  0  0  0
   -0.3920    7.8399   -1.3119 H   0  0  0  0  0  0  0  0  0  0  0  0
    0.4180    7.6951    1.0754 H   0  0  0  0  0  0  0  0  0  0  0  0
    1.8279    8.6504    0.6334 H   0  0  0  0  0  0  0  0  0  0  0  0
    3.4215    6.2067   -1.3550 H   0  0  0  0  0  0  0  0  0  0  0  0
    3.2361    7.9271   -1.0366 H   0  0  0  0  0  0  0  0  0  0  0  0
    5.2027    7.0133    0.1767 H   0  0  0  0  0  0  0  0  0  0  0  0
    3.9897    7.6055    1.3146 H   0  0  0  0  0  0  0  0  0  0  0  0
    4.1588    5.8747    1.0375 H   0  0  0  0  0  0  0  0  0  0  0  0
    3.0749    4.3850   -0.4504 H   0  0  0  0  0  0  0  0  0  0  0  0
    2.0402    2.1923   -0.3682 H   0  0  0  0  0  0  0  0  0  0  0  0
   -5.9549    0.3429    1.4964 H   0  0  0  0  0  0  0  0  0  0  0  0
   -7.6153   -1.4589    1.5596 H   0  0  0  0  0  0  0  0  0  0  0  0
   -7.6652   -7.8458   -0.6184 H   0  0  0  0  0  0  0  0  0  0  0  0
   -9.8828   -8.7855   -0.0279 H   0  0  0  0  0  0  0  0  0  0  0  0
  -11.5478   -7.4467    1.1521 H   0  0  0  0  0  0  0  0  0  0  0  0
  -11.0840   -5.1042    1.8004 H   0  0  0  0  0  0  0  0  0  0  0  0
   -8.9431   -3.1640    1.6048 H   0  0  0  0  0  0  0  0  0  0  0  0
   -4.8300   -4.0648   -0.3663 H   0  0  0  0  0  0  0  0  0  0  0  0
   -3.1547   -2.2451   -0.4129 H   0  0  0  0  0  0  0  0  0  0  0  0
    1.5891   -3.3954   -1.6348 H   0  0  0  0  0  0  0  0  0  0  0  0
    4.0640   -3.6453   -1.8054 H   0  0  0  0  0  0  0  0  0  0  0  0
    8.6573   -4.5564   -2.4257 H   0  0  0  0  0  0  0  0  0  0  0  0
   10.9750   -3.8983   -1.8394 H   0  0  0  0  0  0  0  0  0  0  0  0
   11.4134   -2.0507   -0.3062 H   0  0  0  0  0  0  0  0  0  0  0  0
    9.5621   -0.7687    0.7192 H   0  0  0  0  0  0  0  0  0  0  0  0
    6.6660   -0.7208    0.7081 H   0  0  0  0  0  0  0  0  0  0  0  0
    4.5385   -0.4472    0.9885 H   0  0  0  0  0  0  0  0  0  0  0  0
    2.1213   -0.2102    1.1518 H   0  0  0  0  0  0  0  0  0  0  0  0
   -1.7471    3.9615    0.4251 H   0  0  0  0  0  0  0  0  0  0  0  0
   -0.7594    6.1788    0.3244 H   0  0  0  0  0  0  0  0  0  0  0  0
  1  2  1  0  0  0  0
  2  3  1  0  0  0  0
  3  4  1  0  0  0  0
  4  5  1  0  0  0  0
  3  6  1  0  0  0  0
  6  7  2  0  0  0  0
  7  8  1  0  0  0  0
  8  9  2  0  0  0  0
  9 10  1  0  0  0  0
 10 11  2  0  0  0  0
 11 12  1  0  0  0  0
 12 13  1  0  0  0  0
 13 14  1  0  0  0  0
 14 15  2  0  0  0  0
 15 16  1  0  0  0  0
 16 17  2  0  0  0  0
 17 18  1  0  0  0  0
 18 19  2  0  0  0  0
 19 20  1  0  0  0  0
 20 21  2  0  0  0  0
 21 22  1  0  0  0  0
 22 23  2  0  0  0  0
 23 24  1  0  0  0  0
 24 25  2  0  0  0  0
 25 26  1  0  0  0  0
 17 27  1  0  0  0  0
 27 28  2  0  0  0  0
 12 29  2  0  0  0  0
 29 30  1  0  0  0  0
 30 31  1  0  0  0  0
 31 32  1  0  0  0  0
 32 33  2  0  0  0  0
 33 34  1  0  0  0  0
 34 35  2  0  0  0  0
 35 36  1  0  0  0  0
 36 37  2  0  0  0  0
 37 38  1  0  0  0  0
 38 39  2  0  0  0  0
 39 40  1  0  0  0  0
 40 41  2  0  0  0  0
 41 42  1  0  0  0  0
 42 43  2  0  0  0  0
 43 44  1  0  0  0  0
 35 45  1  0  0  0  0
 45 46  2  0  0  0  0
 30 47  2  0  0  0  0
  9 48  1  0  0  0  0
 48 49  2  0  0  0  0
 49  6  1  0  0  0  0
 47 10  1  0  0  0  0
 28 14  1  0  0  0  0
 46 32  1  0  0  0  0
 26 18  1  0  0  0  0
 44 36  1  0  0  0  0
 25 20  1  0  0  0  0
 43 38  1  0  0  0  0
  1 50  1  0  0  0  0
  1 51  1  0  0  0  0
  1 52  1  0  0  0  0
  2 53  1  0  0  0  0
  2 54  1  0  0  0  0
  4 55  1  0  0  0  0
  4 56  1  0  0  0  0
  5 57  1  0  0  0  0
  5 58  1  0  0  0  0
  5 59  1  0  0  0  0
  7 60  1  0  0  0  0
  8 61  1  0  0  0  0
 15 62  1  0  0  0  0
 16 63  1  0  0  0  0
 21 64  1  0  0  0  0
 22 65  1  0  0  0  0
 23 66  1  0  0  0  0
 24 67  1  0  0  0  0
 26 68  1  0  0  0  0
 27 69  1  0  0  0  0
 28 70  1  0  0  0  0
 33 71  1  0  0  0  0
 34 72  1  0  0  0  0
 39 73  1  0  0  0  0
 40 74  1  0  0  0  0
 41 75  1  0  0  0  0
 42 76  1  0  0  0  0
 44 77  1  0  0  0  0
 45 78  1  0  0  0  0
 46 79  1  0  0  0  0
 48 80  1  0  0  0  0
 49 81  1  0  0  0  0
M  END
