
  xtb     03022215413D
 energy: -81.343835876412 gnorm: 0.000182871439 xtb: 6.4.1 (afa7bdf)
 46 50  0     0  0            999 V2000
   -2.2784    6.1020   -2.2850 N   0  0  0  0  0  0  0  0  0  0  0  0
   -1.5014    5.2864   -2.0710 C   0  0  0  0  0  0  0  0  0  0  0  0
   -0.3245    4.1223   -1.7704 S   0  0  0  0  0  0  0  0  0  0  0  0
   -1.3850    2.8664   -1.1613 C   0  0  0  0  0  0  0  0  0  0  0  0
   -2.7704    2.8822   -0.9958 C   0  0  0  0  0  0  0  0  0  0  0  0
   -3.1170    1.6415   -0.4892 C   0  0  0  0  0  0  0  0  0  0  0  0
   -1.9320    0.9030   -0.3484 C   0  0  0  0  0  0  0  0  0  0  0  0
   -0.8830    1.6811   -0.7724 N   0  0  0  0  0  0  0  0  0  0  0  0
    0.5688    1.2056   -0.9299 B   0  0  0  0  0  4  0  0  0  0  0  0
    1.4225    2.0931   -0.2942 F   0  0  0  0  0  0  0  0  0  0  0  0
    0.8645    1.1726   -2.2902 F   0  0  0  0  0  0  0  0  0  0  0  0
    0.7094   -0.2052   -0.3087 N   0  0  0  0  0  4  0  0  0  0  0  0
    1.8075   -0.9474   -0.0407 C   0  0  0  0  0  0  0  0  0  0  0  0
    3.0863   -0.6577   -0.3262 N   0  0  0  0  0  0  0  0  0  0  0  0
    3.5913    0.3481   -1.2372 C   0  0  0  0  0  0  0  0  0  0  0  0
    4.4213    1.3803   -0.4682 C   0  0  0  0  0  0  0  0  0  0  0  0
    5.4831    0.7546    0.2229 O   0  0  0  0  0  0  0  0  0  0  0  0
    4.9929   -0.2131    1.1113 C   0  0  0  0  0  0  0  0  0  0  0  0
    4.1832   -1.2947    0.3751 C   0  0  0  0  0  0  0  0  0  0  0  0
    1.3953   -2.1540    0.6069 C   0  0  0  0  0  0  0  0  0  0  0  0
    0.0376   -2.1253    0.7116 C   0  0  0  0  0  0  0  0  0  0  0  0
   -0.4071   -0.9042    0.1473 C   0  0  0  0  0  0  0  0  0  0  0  0
   -1.6962   -0.4030    0.1176 C   0  0  0  0  0  0  0  0  0  0  0  0
   -2.8214   -1.2155    0.5990 C   0  0  0  0  0  0  0  0  0  0  0  0
   -3.6803   -0.7214    1.5779 C   0  0  0  0  0  0  0  0  0  0  0  0
   -4.7405   -1.4865    2.0276 C   0  0  0  0  0  0  0  0  0  0  0  0
   -4.9625   -2.7483    1.5011 C   0  0  0  0  0  0  0  0  0  0  0  0
   -4.1156   -3.2447    0.5239 C   0  0  0  0  0  0  0  0  0  0  0  0
   -3.0491   -2.4867    0.0769 C   0  0  0  0  0  0  0  0  0  0  0  0
   -3.4188    3.7036   -1.2258 H   0  0  0  0  0  0  0  0  0  0  0  0
   -4.1042    1.2963   -0.2558 H   0  0  0  0  0  0  0  0  0  0  0  0
    2.7941    0.8362   -1.7788 H   0  0  0  0  0  0  0  0  0  0  0  0
    4.2435   -0.1618   -1.9575 H   0  0  0  0  0  0  0  0  0  0  0  0
    4.8784    2.0893   -1.1582 H   0  0  0  0  0  0  0  0  0  0  0  0
    3.7739    1.9199    0.2343 H   0  0  0  0  0  0  0  0  0  0  0  0
    5.8628   -0.6579    1.5982 H   0  0  0  0  0  0  0  0  0  0  0  0
    4.3490    0.2576    1.8709 H   0  0  0  0  0  0  0  0  0  0  0  0
    3.8247   -2.0204    1.0998 H   0  0  0  0  0  0  0  0  0  0  0  0
    4.8322   -1.7941   -0.3535 H   0  0  0  0  0  0  0  0  0  0  0  0
    2.0346   -2.9564    0.9146 H   0  0  0  0  0  0  0  0  0  0  0  0
   -0.5976   -2.8689    1.1504 H   0  0  0  0  0  0  0  0  0  0  0  0
   -3.4968    0.2556    1.9991 H   0  0  0  0  0  0  0  0  0  0  0  0
   -5.3961   -1.0966    2.7921 H   0  0  0  0  0  0  0  0  0  0  0  0
   -5.7934   -3.3425    1.8506 H   0  0  0  0  0  0  0  0  0  0  0  0
   -4.2878   -4.2259    0.1068 H   0  0  0  0  0  0  0  0  0  0  0  0
   -2.3982   -2.8649   -0.6975 H   0  0  0  0  0  0  0  0  0  0  0  0
  1  2  3  0  0  0  0
  2  3  1  0  0  0  0
  3  4  1  0  0  0  0
  4  5  2  0  0  0  0
  5  6  1  0  0  0  0
  6  7  2  0  0  0  0
  7  8  1  0  0  0  0
  8  9  1  0  0  0  0
  9 10  1  0  0  0  0
  9 11  1  0  0  0  0
  9 12  1  0  0  0  0
 12 13  2  0  0  0  0
 13 14  1  0  0  0  0
 14 15  1  0  0  0  0
 15 16  1  0  0  0  0
 16 17  1  0  0  0  0
 17 18  1  0  0  0  0
 18 19  1  0  0  0  0
 13 20  1  0  0  0  0
 20 21  2  0  0  0  0
 21 22  1  0  0  0  0
 22 23  2  0  0  0  0
 23 24  1  0  0  0  0
 24 25  2  0  0  0  0
 25 26  1  0  0  0  0
 26 27  2  0  0  0  0
 27 28  1  0  0  0  0
 28 29  2  0  0  0  0
  8  4  1  0  0  0  0
 22 12  1  0  0  0  0
 29 24  1  0  0  0  0
 23  7  1  0  0  0  0
 19 14  1  0  0  0  0
  5 30  1  0  0  0  0
  6 31  1  0  0  0  0
 15 32  1  0  0  0  0
 15 33  1  0  0  0  0
 16 34  1  0  0  0  0
 16 35  1  0  0  0  0
 18 36  1  0  0  0  0
 18 37  1  0  0  0  0
 19 38  1  0  0  0  0
 19 39  1  0  0  0  0
 20 40  1  0  0  0  0
 21 41  1  0  0  0  0
 25 42  1  0  0  0  0
 26 43  1  0  0  0  0
 27 44  1  0  0  0  0
 28 45  1  0  0  0  0
 29 46  1  0  0  0  0
M  CHG  1   9  -1
M  CHG  1  12   1
M  END
