
  xtb     03022213413D
 energy: -97.553280597630 gnorm: 0.000158721786 xtb: 6.4.1 (afa7bdf)
 60 64  0     0  0            999 V2000
   -5.7743    3.8171   -1.2898 C   0  0  0  0  0  0  0  0  0  0  0  0
   -5.0207    2.5997   -0.8499 C   0  0  0  0  0  0  0  0  0  0  0  0
   -4.6404    1.6269   -1.7627 C   0  0  0  0  0  0  0  0  0  0  0  0
   -3.9564    0.4881   -1.3650 C   0  0  0  0  0  0  0  0  0  0  0  0
   -3.5438   -0.5535   -2.3601 C   0  0  0  0  0  0  0  0  0  0  0  0
   -3.6467    0.3270   -0.0142 C   0  0  0  0  0  0  0  0  0  0  0  0
   -2.9092   -0.8726    0.4280 C   0  0  0  0  0  0  0  0  0  0  0  0
   -1.5185   -0.8313    0.5413 C   0  0  0  0  0  0  0  0  0  0  0  0
   -0.6174    0.2194    0.2947 C   0  0  0  0  0  0  0  0  0  0  0  0
    0.6615   -0.2631    0.5618 C   0  0  0  0  0  0  0  0  0  0  0  0
    1.8891    0.4721    0.4525 C   0  0  0  0  0  0  0  0  0  0  0  0
    3.1163   -0.0052    0.7002 C   0  0  0  0  0  0  0  0  0  0  0  0
    4.2949    0.8591    0.5608 C   0  0  0  0  0  0  0  0  0  0  0  0
    4.2720    2.0246    0.2400 O   0  0  0  0  0  0  0  0  0  0  0  0
    5.4143    0.1830    0.8592 O   0  0  0  0  0  0  0  0  0  0  0  0
    6.6564    0.8883    0.7662 C   0  0  0  0  0  0  0  0  0  0  0  0
    7.2740    0.7089   -0.5960 C   0  0  0  0  0  0  0  0  0  0  0  0
    8.1977   -0.3021   -0.8246 C   0  0  0  0  0  0  0  0  0  0  0  0
    8.7402   -0.4807   -2.0851 C   0  0  0  0  0  0  0  0  0  0  0  0
    8.3583    0.3456   -3.1283 C   0  0  0  0  0  0  0  0  0  0  0  0
    7.4310    1.3499   -2.9079 C   0  0  0  0  0  0  0  0  0  0  0  0
    6.8902    1.5323   -1.6475 C   0  0  0  0  0  0  0  0  0  0  0  0
    0.4906   -1.6076    0.9648 C   0  0  0  0  0  0  0  0  0  0  0  0
   -0.7918   -1.9325    0.9506 N   0  0  0  0  0  4  0  0  0  0  0  0
   -1.4025   -3.3087    1.3279 B   0  0  0  0  0  4  0  0  0  0  0  0
   -0.9103   -4.2811    0.4882 F   0  0  0  0  0  0  0  0  0  0  0  0
   -1.1006   -3.6068    2.6368 F   0  0  0  0  0  0  0  0  0  0  0  0
   -2.9350   -3.1830    1.1532 N   0  0  0  0  0  0  0  0  0  0  0  0
   -3.8418   -4.1273    1.3749 C   0  0  0  0  0  0  0  0  0  0  0  0
   -5.1264   -3.6361    1.1083 C   0  0  0  0  0  0  0  0  0  0  0  0
   -4.9784   -2.3276    0.7060 C   0  0  0  0  0  0  0  0  0  0  0  0
   -3.5921   -2.0450    0.7352 C   0  0  0  0  0  0  0  0  0  0  0  0
   -4.0205    1.2911    0.9239 C   0  0  0  0  0  0  0  0  0  0  0  0
   -3.6836    1.1008    2.3715 C   0  0  0  0  0  0  0  0  0  0  0  0
   -4.7049    2.4148    0.4896 C   0  0  0  0  0  0  0  0  0  0  0  0
   -6.8380    3.6896   -1.0876 H   0  0  0  0  0  0  0  0  0  0  0  0
   -5.6496    3.9885   -2.3559 H   0  0  0  0  0  0  0  0  0  0  0  0
   -5.4352    4.6972   -0.7479 H   0  0  0  0  0  0  0  0  0  0  0  0
   -4.8791    1.7574   -2.8085 H   0  0  0  0  0  0  0  0  0  0  0  0
   -3.8447   -0.2668   -3.3642 H   0  0  0  0  0  0  0  0  0  0  0  0
   -2.4629   -0.6895   -2.3447 H   0  0  0  0  0  0  0  0  0  0  0  0
   -3.9996   -1.5136   -2.1205 H   0  0  0  0  0  0  0  0  0  0  0  0
   -0.8861    1.2032   -0.0378 H   0  0  0  0  0  0  0  0  0  0  0  0
    1.8018    1.5068    0.1438 H   0  0  0  0  0  0  0  0  0  0  0  0
    3.3057   -1.0204    1.0087 H   0  0  0  0  0  0  0  0  0  0  0  0
    6.4712    1.9494    0.9665 H   0  0  0  0  0  0  0  0  0  0  0  0
    7.2916    0.4606    1.5453 H   0  0  0  0  0  0  0  0  0  0  0  0
    8.4935   -0.9496   -0.0117 H   0  0  0  0  0  0  0  0  0  0  0  0
    9.4614   -1.2671   -2.2536 H   0  0  0  0  0  0  0  0  0  0  0  0
    8.7822    0.2059   -4.1119 H   0  0  0  0  0  0  0  0  0  0  0  0
    7.1289    1.9950   -3.7198 H   0  0  0  0  0  0  0  0  0  0  0  0
    6.1630    2.3115   -1.4733 H   0  0  0  0  0  0  0  0  0  0  0  0
    1.2327   -2.3253    1.2562 H   0  0  0  0  0  0  0  0  0  0  0  0
   -3.5476   -5.1031    1.7108 H   0  0  0  0  0  0  0  0  0  0  0  0
   -6.0394   -4.1892    1.2057 H   0  0  0  0  0  0  0  0  0  0  0  0
   -5.7425   -1.6311    0.4204 H   0  0  0  0  0  0  0  0  0  0  0  0
   -2.6036    1.0673    2.5114 H   0  0  0  0  0  0  0  0  0  0  0  0
   -4.0859    1.9138    2.9700 H   0  0  0  0  0  0  0  0  0  0  0  0
   -4.0923    0.1602    2.7390 H   0  0  0  0  0  0  0  0  0  0  0  0
   -4.9971    3.1647    1.2106 H   0  0  0  0  0  0  0  0  0  0  0  0
  1  2  1  0  0  0  0
  2  3  2  0  0  0  0
  3  4  1  0  0  0  0
  4  5  1  0  0  0  0
  4  6  2  0  0  0  0
  6  7  1  0  0  0  0
  7  8  2  0  0  0  0
  8  9  1  0  0  0  0
  9 10  2  0  0  0  0
 10 11  1  0  0  0  0
 11 12  2  0  0  0  0
 12 13  1  0  0  0  0
 13 14  2  0  0  0  0
 13 15  1  0  0  0  0
 15 16  1  0  0  0  0
 16 17  1  0  0  0  0
 17 18  2  0  0  0  0
 18 19  1  0  0  0  0
 19 20  2  0  0  0  0
 20 21  1  0  0  0  0
 21 22  2  0  0  0  0
 10 23  1  0  0  0  0
 23 24  2  0  0  0  0
 24 25  1  0  0  0  0
 25 26  1  0  0  0  0
 25 27  1  0  0  0  0
 25 28  1  0  0  0  0
 28 29  1  0  0  0  0
 29 30  2  0  0  0  0
 30 31  1  0  0  0  0
 31 32  2  0  0  0  0
  6 33  1  0  0  0  0
 33 34  1  0  0  0  0
 33 35  2  0  0  0  0
 35  2  1  0  0  0  0
 32  7  1  0  0  0  0
 24  8  1  0  0  0  0
 32 28  1  0  0  0  0
 22 17  1  0  0  0  0
  1 36  1  0  0  0  0
  1 37  1  0  0  0  0
  1 38  1  0  0  0  0
  3 39  1  0  0  0  0
  5 40  1  0  0  0  0
  5 41  1  0  0  0  0
  5 42  1  0  0  0  0
  9 43  1  0  0  0  0
 11 44  1  0  0  0  0
 12 45  1  0  0  0  0
 16 46  1  0  0  0  0
 16 47  1  0  0  0  0
 18 48  1  0  0  0  0
 19 49  1  0  0  0  0
 20 50  1  0  0  0  0
 21 51  1  0  0  0  0
 22 52  1  0  0  0  0
 23 53  1  0  0  0  0
 29 54  1  0  0  0  0
 30 55  1  0  0  0  0
 31 56  1  0  0  0  0
 34 57  1  0  0  0  0
 34 58  1  0  0  0  0
 34 59  1  0  0  0  0
 35 60  1  0  0  0  0
M  CHG  1  24   1
M  CHG  1  25  -1
M  END
