
  xtb     03022214053D
 energy: -60.063236702996 gnorm: 0.000115187276 xtb: 6.4.1 (afa7bdf)
 41 45  0     0  0            999 V2000
   -1.8692    3.1590   -0.7587 C   0  0  0  0  0  0  0  0  0  0  0  0
   -0.9292    2.0179   -0.5195 C   0  0  0  0  0  0  0  0  0  0  0  0
    0.4113    2.1454   -0.8047 C   0  0  0  0  0  0  0  0  0  0  0  0
    1.2733    1.0609   -0.6416 C   0  0  0  0  0  0  0  0  0  0  0  0
    2.6673    0.9134   -0.9395 C   0  0  0  0  0  0  0  0  0  0  0  0
    3.6440    1.7812   -1.4112 C   0  0  0  0  0  0  0  0  0  0  0  0
    4.9198    1.2946   -1.6114 C   0  0  0  0  0  0  0  0  0  0  0  0
    5.2281   -0.0390   -1.3503 C   0  0  0  0  0  0  0  0  0  0  0  0
    4.2732   -0.9208   -0.8818 C   0  0  0  0  0  0  0  0  0  0  0  0
    2.9891   -0.4361   -0.6755 C   0  0  0  0  0  0  0  0  0  0  0  0
    1.8751   -1.0989   -0.2111 N   0  0  0  0  0  0  0  0  0  0  0  0
    1.7730   -2.5331   -0.2677 C   0  0  0  0  0  0  0  0  0  0  0  0
    0.8254   -0.1913   -0.1635 C   0  0  0  0  0  0  0  0  0  0  0  0
   -0.4972   -0.2840    0.2724 C   0  0  0  0  0  0  0  0  0  0  0  0
   -1.3765    0.8011    0.0260 C   0  0  0  0  0  0  0  0  0  0  0  0
   -2.6703    0.3860    0.4968 C   0  0  0  0  0  0  0  0  0  0  0  0
   -3.9365    0.9631    0.5154 C   0  0  0  0  0  0  0  0  0  0  0  0
   -4.9841    0.2640    1.0811 C   0  0  0  0  0  0  0  0  0  0  0  0
   -4.7957   -1.0012    1.6305 C   0  0  0  0  0  0  0  0  0  0  0  0
   -3.5520   -1.6007    1.6235 C   0  0  0  0  0  0  0  0  0  0  0  0
   -2.4972   -0.9024    1.0533 C   0  0  0  0  0  0  0  0  0  0  0  0
   -1.1869   -1.2964    0.9190 N   0  0  0  0  0  0  0  0  0  0  0  0
   -0.6201   -2.3340    1.7385 C   0  0  0  0  0  0  0  0  0  0  0  0
   -1.3307    4.0132   -1.1625 H   0  0  0  0  0  0  0  0  0  0  0  0
   -2.6443    2.8728   -1.4686 H   0  0  0  0  0  0  0  0  0  0  0  0
   -2.3501    3.4610    0.1711 H   0  0  0  0  0  0  0  0  0  0  0  0
    0.8033    3.0773   -1.1833 H   0  0  0  0  0  0  0  0  0  0  0  0
    3.4064    2.8146   -1.6138 H   0  0  0  0  0  0  0  0  0  0  0  0
    5.6950    1.9529   -1.9749 H   0  0  0  0  0  0  0  0  0  0  0  0
    6.2363   -0.3902   -1.5153 H   0  0  0  0  0  0  0  0  0  0  0  0
    4.5292   -1.9493   -0.6746 H   0  0  0  0  0  0  0  0  0  0  0  0
    2.3964   -2.9035   -1.0843 H   0  0  0  0  0  0  0  0  0  0  0  0
    0.7444   -2.8237   -0.4694 H   0  0  0  0  0  0  0  0  0  0  0  0
    2.1115   -3.0052    0.6598 H   0  0  0  0  0  0  0  0  0  0  0  0
   -4.1120    1.9386    0.0934 H   0  0  0  0  0  0  0  0  0  0  0  0
   -5.9706    0.7038    1.0973 H   0  0  0  0  0  0  0  0  0  0  0  0
   -5.6360   -1.5233    2.0642 H   0  0  0  0  0  0  0  0  0  0  0  0
   -3.4139   -2.5879    2.0390 H   0  0  0  0  0  0  0  0  0  0  0  0
   -0.6959   -3.3176    1.2647 H   0  0  0  0  0  0  0  0  0  0  0  0
   -1.1569   -2.3722    2.6888 H   0  0  0  0  0  0  0  0  0  0  0  0
    0.4233   -2.1103    1.9485 H   0  0  0  0  0  0  0  0  0  0  0  0
  1  2  1  0  0  0  0
  2  3  2  0  0  0  0
  3  4  1  0  0  0  0
  4  5  1  0  0  0  0
  5  6  2  0  0  0  0
  6  7  1  0  0  0  0
  7  8  2  0  0  0  0
  8  9  1  0  0  0  0
  9 10  2  0  0  0  0
 10 11  1  0  0  0  0
 11 12  1  0  0  0  0
 11 13  1  0  0  0  0
 13 14  1  0  0  0  0
 14 15  2  0  0  0  0
 15 16  1  0  0  0  0
 16 17  2  0  0  0  0
 17 18  1  0  0  0  0
 18 19  2  0  0  0  0
 19 20  1  0  0  0  0
 20 21  2  0  0  0  0
 21 22  1  0  0  0  0
 22 23  1  0  0  0  0
 15  2  1  0  0  0  0
 21 16  1  0  0  0  0
 13  4  2  0  0  0  0
 22 14  1  0  0  0  0
 10  5  1  0  0  0  0
  1 24  1  0  0  0  0
  1 25  1  0  0  0  0
  1 26  1  0  0  0  0
  3 27  1  0  0  0  0
  6 28  1  0  0  0  0
  7 29  1  0  0  0  0
  8 30  1  0  0  0  0
  9 31  1  0  0  0  0
 12 32  1  0  0  0  0
 12 33  1  0  0  0  0
 12 34  1  0  0  0  0
 17 35  1  0  0  0  0
 18 36  1  0  0  0  0
 19 37  1  0  0  0  0
 20 38  1  0  0  0  0
 23 39  1  0  0  0  0
 23 40  1  0  0  0  0
 23 41  1  0  0  0  0
M  END
