
  xtb     03022216133D
 energy: -98.224571355407 gnorm: 0.000532825289 xtb: 6.4.1 (afa7bdf)
 58 61  0     0  0            999 V2000
   -4.8487    2.6009    0.2572 C   0  0  0  0  0  0  0  0  0  0  0  0
   -3.8473    2.4107    1.3868 C   0  0  0  0  0  0  0  0  0  0  0  0
   -2.7890    1.5465    0.9718 O   0  0  0  0  0  0  0  0  0  0  0  0
   -1.5686    2.0849    0.8303 C   0  0  0  0  0  0  0  0  0  0  0  0
   -1.2811    3.2141    1.1381 O   0  0  0  0  0  0  0  0  0  0  0  0
   -0.6108    1.0877    0.3371 C   0  0  0  0  0  0  0  0  0  0  0  0
   -0.8610   -0.1472   -0.3153 C   0  0  0  0  0  0  0  0  0  0  0  0
   -2.1336   -0.6366   -0.8180 C   0  0  0  0  0  0  0  0  0  0  0  0
   -2.5444   -1.9131   -0.6406 C   0  0  0  0  0  0  0  0  0  0  0  0
   -3.8210   -2.3373   -1.1232 C   0  0  0  0  0  0  0  0  0  0  0  0
   -4.3224   -3.6336   -0.9590 C   0  0  0  0  0  0  0  0  0  0  0  0
   -5.5761   -3.9595   -1.4230 C   0  0  0  0  0  0  0  0  0  0  0  0
   -6.3596   -2.9987   -2.0577 C   0  0  0  0  0  0  0  0  0  0  0  0
   -5.8887   -1.7146   -2.2338 C   0  0  0  0  0  0  0  0  0  0  0  0
   -4.6176   -1.3806   -1.7721 C   0  0  0  0  0  0  0  0  0  0  0  0
   -4.1813   -0.1167   -1.9801 O   0  0  0  0  0  0  0  0  0  0  0  0
   -2.9534    0.3181   -1.5752 C   0  0  0  0  0  0  0  0  0  0  0  0
   -2.6187    1.4318   -1.8882 O   0  0  0  0  0  0  0  0  0  0  0  0
    0.2638   -0.8263   -0.4573 N   0  0  0  0  0  0  0  0  0  0  0  0
    1.2339   -0.0811    0.0651 N   0  0  0  0  0  0  0  0  0  0  0  0
    2.5653   -0.5217    0.0358 C   0  0  0  0  0  0  0  0  0  0  0  0
    3.6143    0.3778   -0.0871 C   0  0  0  0  0  0  0  0  0  0  0  0
    4.9107   -0.1010   -0.0979 C   0  0  0  0  0  0  0  0  0  0  0  0
    5.1848   -1.4588   -0.0049 C   0  0  0  0  0  0  0  0  0  0  0  0
    6.6000   -1.9459   -0.0178 C   0  0  0  0  0  0  0  0  0  0  0  0
    4.1214   -2.3640    0.0915 C   0  0  0  0  0  0  0  0  0  0  0  0
    4.3782   -3.8362    0.1785 C   0  0  0  0  0  0  0  0  0  0  0  0
    2.8224   -1.8844    0.1115 C   0  0  0  0  0  0  0  0  0  0  0  0
    0.7621    1.0901    0.5509 C   0  0  0  0  0  0  0  0  0  0  0  0
    1.5653    2.0658    1.3369 C   0  0  0  0  0  0  0  0  0  0  0  0
    2.0699    1.7975    2.3979 O   0  0  0  0  0  0  0  0  0  0  0  0
    1.6136    3.2402    0.7313 O   0  0  0  0  0  0  0  0  0  0  0  0
    2.2430    4.3135    1.4341 C   0  0  0  0  0  0  0  0  0  0  0  0
    3.7542    4.2874    1.2510 C   0  0  0  0  0  0  0  0  0  0  0  0
   -5.3219    1.6547    0.0036 H   0  0  0  0  0  0  0  0  0  0  0  0
   -4.3395    2.9793   -0.6261 H   0  0  0  0  0  0  0  0  0  0  0  0
   -5.6129    3.3099    0.5637 H   0  0  0  0  0  0  0  0  0  0  0  0
   -4.3158    1.9330    2.2529 H   0  0  0  0  0  0  0  0  0  0  0  0
   -3.4136    3.3703    1.6865 H   0  0  0  0  0  0  0  0  0  0  0  0
   -1.9185   -2.6163   -0.1112 H   0  0  0  0  0  0  0  0  0  0  0  0
   -3.7080   -4.3692   -0.4620 H   0  0  0  0  0  0  0  0  0  0  0  0
   -5.9570   -4.9611   -1.2944 H   0  0  0  0  0  0  0  0  0  0  0  0
   -7.3431   -3.2602   -2.4167 H   0  0  0  0  0  0  0  0  0  0  0  0
   -6.4785   -0.9580   -2.7261 H   0  0  0  0  0  0  0  0  0  0  0  0
    3.4225    1.4332   -0.1941 H   0  0  0  0  0  0  0  0  0  0  0  0
    5.7289    0.5983   -0.1889 H   0  0  0  0  0  0  0  0  0  0  0  0
    6.7646   -2.6239   -0.8546 H   0  0  0  0  0  0  0  0  0  0  0  0
    7.2939   -1.1142   -0.1039 H   0  0  0  0  0  0  0  0  0  0  0  0
    6.8246   -2.4917    0.8979 H   0  0  0  0  0  0  0  0  0  0  0  0
    4.9853   -4.0680    1.0527 H   0  0  0  0  0  0  0  0  0  0  0  0
    4.9199   -4.1822   -0.7010 H   0  0  0  0  0  0  0  0  0  0  0  0
    3.4439   -4.3860    0.2486 H   0  0  0  0  0  0  0  0  0  0  0  0
    1.9863   -2.5623    0.1853 H   0  0  0  0  0  0  0  0  0  0  0  0
    1.9864    4.2366    2.4951 H   0  0  0  0  0  0  0  0  0  0  0  0
    1.8041    5.2175    1.0093 H   0  0  0  0  0  0  0  0  0  0  0  0
    4.0069    4.3171    0.1933 H   0  0  0  0  0  0  0  0  0  0  0  0
    4.1681    3.3835    1.6926 H   0  0  0  0  0  0  0  0  0  0  0  0
    4.1938    5.1503    1.7428 H   0  0  0  0  0  0  0  0  0  0  0  0
  1  2  1  0  0  0  0
  2  3  1  0  0  0  0
  3  4  1  0  0  0  0
  4  5  2  0  0  0  0
  4  6  1  0  0  0  0
  6  7  1  0  0  0  0
  7  8  1  0  0  0  0
  8  9  2  0  0  0  0
  9 10  1  0  0  0  0
 10 11  2  0  0  0  0
 11 12  1  0  0  0  0
 12 13  2  0  0  0  0
 13 14  1  0  0  0  0
 14 15  2  0  0  0  0
 15 16  1  0  0  0  0
 16 17  1  0  0  0  0
 17 18  2  0  0  0  0
  7 19  2  0  0  0  0
 19 20  1  0  0  0  0
 20 21  1  0  0  0  0
 21 22  2  0  0  0  0
 22 23  1  0  0  0  0
 23 24  2  0  0  0  0
 24 25  1  0  0  0  0
 24 26  1  0  0  0  0
 26 27  1  0  0  0  0
 26 28  2  0  0  0  0
 20 29  1  0  0  0  0
 29 30  1  0  0  0  0
 30 31  2  0  0  0  0
 30 32  1  0  0  0  0
 32 33  1  0  0  0  0
 33 34  1  0  0  0  0
 29  6  2  0  0  0  0
 17  8  1  0  0  0  0
 28 21  1  0  0  0  0
 15 10  1  0  0  0  0
  1 35  1  0  0  0  0
  1 36  1  0  0  0  0
  1 37  1  0  0  0  0
  2 38  1  0  0  0  0
  2 39  1  0  0  0  0
  9 40  1  0  0  0  0
 11 41  1  0  0  0  0
 12 42  1  0  0  0  0
 13 43  1  0  0  0  0
 14 44  1  0  0  0  0
 22 45  1  0  0  0  0
 23 46  1  0  0  0  0
 25 47  1  0  0  0  0
 25 48  1  0  0  0  0
 25 49  1  0  0  0  0
 27 50  1  0  0  0  0
 27 51  1  0  0  0  0
 27 52  1  0  0  0  0
 28 53  1  0  0  0  0
 33 54  1  0  0  0  0
 33 55  1  0  0  0  0
 34 56  1  0  0  0  0
 34 57  1  0  0  0  0
 34 58  1  0  0  0  0
M  END
