
  xtb     03022212103D
 energy: -78.199448748398 gnorm: 0.000120260054 xtb: 6.4.1 (afa7bdf)
 43 46  0     0  0            999 V2000
   -6.6962   -1.7298    0.0700 C   0  0  0  0  0  0  0  0  0  0  0  0
   -6.1336   -0.4454   -0.2713 N   0  0  0  0  0  0  0  0  0  0  0  0
   -7.0247    0.6219   -0.6574 C   0  0  0  0  0  0  0  0  0  0  0  0
   -4.7891   -0.2499   -0.2464 C   0  0  0  0  0  0  0  0  0  0  0  0
   -3.9025   -1.2948    0.0865 C   0  0  0  0  0  0  0  0  0  0  0  0
   -2.5463   -1.0962    0.1048 C   0  0  0  0  0  0  0  0  0  0  0  0
   -1.9962    0.1544   -0.2044 C   0  0  0  0  0  0  0  0  0  0  0  0
   -0.5684    0.3528   -0.1983 C   0  0  0  0  0  0  0  0  0  0  0  0
   -0.1090    1.5549   -0.5005 N   0  0  0  0  0  0  0  0  0  0  0  0
    1.1925    1.7592   -0.4418 C   0  0  0  0  0  0  0  0  0  0  0  0
    1.8464    3.3561   -0.5928 S   0  0  0  0  0  0  0  0  0  0  0  0
    3.4259    2.7102   -0.3178 C   0  0  0  0  0  0  0  0  0  0  0  0
    3.4017    1.3634   -0.1508 C   0  0  0  0  0  0  0  0  0  0  0  0
    4.5884    0.5483    0.1198 C   0  0  0  0  0  0  0  0  0  0  0  0
    5.5090    0.9986    1.0673 C   0  0  0  0  0  0  0  0  0  0  0  0
    6.6432    0.2660    1.3448 C   0  0  0  0  0  0  0  0  0  0  0  0
    6.8739   -0.9333    0.6691 C   0  0  0  0  0  0  0  0  0  0  0  0
    8.0373   -1.6862    0.9491 C   0  0  0  0  0  0  0  0  0  0  0  0
    8.9865   -2.2888    1.1734 N   0  0  0  0  0  0  0  0  0  0  0  0
    5.9608   -1.3834   -0.2844 C   0  0  0  0  0  0  0  0  0  0  0  0
    4.8280   -0.6444   -0.5585 C   0  0  0  0  0  0  0  0  0  0  0  0
    2.1351    0.8414   -0.2333 N   0  0  0  0  0  4  0  0  0  0  0  0
    1.6437   -0.6607   -0.0684 B   0  0  0  0  0  4  0  0  0  0  0  0
    1.9247   -1.3352   -1.2361 F   0  0  0  0  0  0  0  0  0  0  0  0
    2.2740   -1.2284    0.9989 F   0  0  0  0  0  0  0  0  0  0  0  0
    0.1869   -0.6503    0.1375 O   0  0  0  0  0  0  0  0  0  0  0  0
   -2.8680    1.2011   -0.5302 C   0  0  0  0  0  0  0  0  0  0  0  0
   -4.2245    1.0064   -0.5525 C   0  0  0  0  0  0  0  0  0  0  0  0
   -7.7808   -1.6755    0.0264 H   0  0  0  0  0  0  0  0  0  0  0  0
   -6.3651   -2.5052   -0.6271 H   0  0  0  0  0  0  0  0  0  0  0  0
   -6.4118   -2.0252    1.0834 H   0  0  0  0  0  0  0  0  0  0  0  0
   -6.7900    0.9853   -1.6615 H   0  0  0  0  0  0  0  0  0  0  0  0
   -8.0488    0.2578   -0.6611 H   0  0  0  0  0  0  0  0  0  0  0  0
   -6.9637    1.4606    0.0423 H   0  0  0  0  0  0  0  0  0  0  0  0
   -4.2821   -2.2734    0.3273 H   0  0  0  0  0  0  0  0  0  0  0  0
   -1.8799   -1.9067    0.3558 H   0  0  0  0  0  0  0  0  0  0  0  0
    4.2838    3.3500   -0.3226 H   0  0  0  0  0  0  0  0  0  0  0  0
    5.3186    1.9180    1.6005 H   0  0  0  0  0  0  0  0  0  0  0  0
    7.3519    0.6088    2.0842 H   0  0  0  0  0  0  0  0  0  0  0  0
    6.1445   -2.3111   -0.8051 H   0  0  0  0  0  0  0  0  0  0  0  0
    4.1303   -0.9946   -1.2997 H   0  0  0  0  0  0  0  0  0  0  0  0
   -2.4467    2.1650   -0.7652 H   0  0  0  0  0  0  0  0  0  0  0  0
   -4.8595    1.8380   -0.8078 H   0  0  0  0  0  0  0  0  0  0  0  0
  1  2  1  0  0  0  0
  2  3  1  0  0  0  0
  2  4  1  0  0  0  0
  4  5  2  0  0  0  0
  5  6  1  0  0  0  0
  6  7  2  0  0  0  0
  7  8  1  0  0  0  0
  8  9  2  0  0  0  0
  9 10  1  0  0  0  0
 10 11  1  0  0  0  0
 11 12  1  0  0  0  0
 12 13  2  0  0  0  0
 13 14  1  0  0  0  0
 14 15  2  0  0  0  0
 15 16  1  0  0  0  0
 16 17  2  0  0  0  0
 17 18  1  0  0  0  0
 18 19  3  0  0  0  0
 17 20  1  0  0  0  0
 20 21  2  0  0  0  0
 13 22  1  0  0  0  0
 22 23  1  0  0  0  0
 23 24  1  0  0  0  0
 23 25  1  0  0  0  0
 23 26  1  0  0  0  0
  7 27  1  0  0  0  0
 27 28  2  0  0  0  0
 28  4  1  0  0  0  0
 26  8  1  0  0  0  0
 22 10  2  0  0  0  0
 21 14  1  0  0  0  0
  1 29  1  0  0  0  0
  1 30  1  0  0  0  0
  1 31  1  0  0  0  0
  3 32  1  0  0  0  0
  3 33  1  0  0  0  0
  3 34  1  0  0  0  0
  5 35  1  0  0  0  0
  6 36  1  0  0  0  0
 12 37  1  0  0  0  0
 15 38  1  0  0  0  0
 16 39  1  0  0  0  0
 20 40  1  0  0  0  0
 21 41  1  0  0  0  0
 27 42  1  0  0  0  0
 28 43  1  0  0  0  0
M  CHG  1  22   1
M  CHG  1  23  -1
M  END
