
  xtb     03022212233D
 energy: -62.579725506611 gnorm: 0.000144440931 xtb: 6.4.1 (afa7bdf)
 33 37  0     0  0            999 V2000
    5.9571    1.4561    0.4184 C   0  0  0  0  0  0  0  0  0  0  0  0
    4.6474    0.7738    0.2737 C   0  0  0  0  0  0  0  0  0  0  0  0
    3.3755    1.2810    0.3376 C   0  0  0  0  0  0  0  0  0  0  0  0
    2.5248    0.1771    0.1324 C   0  0  0  0  0  0  0  0  0  0  0  0
    3.3776   -0.9518   -0.0466 C   0  0  0  0  0  0  0  0  0  0  0  0
    4.6724   -0.5734    0.0423 O   0  0  0  0  0  0  0  0  0  0  0  0
    2.5945   -2.0576   -0.2522 C   0  0  0  0  0  0  0  0  0  0  0  0
    1.2545   -1.5707   -0.1934 C   0  0  0  0  0  0  0  0  0  0  0  0
    0.0687   -2.2731   -0.3380 C   0  0  0  0  0  0  0  0  0  0  0  0
   -1.1577   -1.6338   -0.2508 C   0  0  0  0  0  0  0  0  0  0  0  0
   -2.4661   -2.1898   -0.3733 C   0  0  0  0  0  0  0  0  0  0  0  0
   -3.3148   -1.1269   -0.2047 C   0  0  0  0  0  0  0  0  0  0  0  0
   -4.6304   -0.8171   -0.1758 O   0  0  0  0  0  0  0  0  0  0  0  0
   -4.6868    0.5287    0.0585 C   0  0  0  0  0  0  0  0  0  0  0  0
   -6.0355    1.1426    0.1339 C   0  0  0  0  0  0  0  0  0  0  0  0
   -3.4476    1.1014    0.1828 C   0  0  0  0  0  0  0  0  0  0  0  0
   -2.5315    0.0444    0.0151 C   0  0  0  0  0  0  0  0  0  0  0  0
   -1.2328   -0.2708   -0.0147 N   0  0  0  0  0  0  0  0  0  0  0  0
   -0.0204    0.6714    0.1714 B   0  0  0  0  0  4  0  0  0  0  0  0
   -0.0235    1.6466   -0.8042 F   0  0  0  0  0  0  0  0  0  0  0  0
   -0.0645    1.2605    1.4179 F   0  0  0  0  0  0  0  0  0  0  0  0
    1.2471   -0.2056    0.0424 N   0  0  0  0  0  4  0  0  0  0  0  0
    6.0643    1.8646    1.4225 H   0  0  0  0  0  0  0  0  0  0  0  0
    6.0370    2.2793   -0.2891 H   0  0  0  0  0  0  0  0  0  0  0  0
    6.7580    0.7447    0.2368 H   0  0  0  0  0  0  0  0  0  0  0  0
    3.0986    2.2999    0.5075 H   0  0  0  0  0  0  0  0  0  0  0  0
    2.8804   -3.0756   -0.4226 H   0  0  0  0  0  0  0  0  0  0  0  0
    0.1009   -3.3356   -0.5217 H   0  0  0  0  0  0  0  0  0  0  0  0
   -2.6900   -3.2208   -0.5575 H   0  0  0  0  0  0  0  0  0  0  0  0
   -6.1394    1.7196    1.0506 H   0  0  0  0  0  0  0  0  0  0  0  0
   -6.1942    1.8165   -0.7074 H   0  0  0  0  0  0  0  0  0  0  0  0
   -6.7910    0.3620    0.1087 H   0  0  0  0  0  0  0  0  0  0  0  0
   -3.2327    2.1325    0.3681 H   0  0  0  0  0  0  0  0  0  0  0  0
  1  2  1  0  0  0  0
  2  3  2  0  0  0  0
  3  4  1  0  0  0  0
  4  5  1  0  0  0  0
  5  6  1  0  0  0  0
  5  7  2  0  0  0  0
  7  8  1  0  0  0  0
  8  9  2  0  0  0  0
  9 10  1  0  0  0  0
 10 11  2  0  0  0  0
 11 12  1  0  0  0  0
 12 13  1  0  0  0  0
 13 14  1  0  0  0  0
 14 15  1  0  0  0  0
 14 16  2  0  0  0  0
 16 17  1  0  0  0  0
 17 18  1  0  0  0  0
 18 19  1  0  0  0  0
 19 20  1  0  0  0  0
 19 21  1  0  0  0  0
 19 22  1  0  0  0  0
  6  2  1  0  0  0  0
 22  8  1  0  0  0  0
 22  4  2  0  0  0  0
 18 10  1  0  0  0  0
 17 12  2  0  0  0  0
  1 23  1  0  0  0  0
  1 24  1  0  0  0  0
  1 25  1  0  0  0  0
  3 26  1  0  0  0  0
  7 27  1  0  0  0  0
  9 28  1  0  0  0  0
 11 29  1  0  0  0  0
 15 30  1  0  0  0  0
 15 31  1  0  0  0  0
 15 32  1  0  0  0  0
 16 33  1  0  0  0  0
M  CHG  1  19  -1
M  CHG  1  22   1
M  END
