
  xtb     03022213473D
 energy: -94.805723535832 gnorm: 0.000078709155 xtb: 6.4.1 (afa7bdf)
 58 63  0     0  0            999 V2000
   12.6990   -0.8788   -1.1839 C   0  0  0  0  0  0  0  0  0  0  0  0
   11.5534   -1.3255   -1.8677 O   0  0  0  0  0  0  0  0  0  0  0  0
   10.3303   -0.9944   -1.3759 C   0  0  0  0  0  0  0  0  0  0  0  0
    9.2315   -1.4676   -2.0993 C   0  0  0  0  0  0  0  0  0  0  0  0
    7.9485   -1.1920   -1.6916 C   0  0  0  0  0  0  0  0  0  0  0  0
    7.7028   -0.4307   -0.5420 C   0  0  0  0  0  0  0  0  0  0  0  0
    6.3786   -0.1047   -0.0586 C   0  0  0  0  0  0  0  0  0  0  0  0
    5.2081   -0.4678   -0.6085 C   0  0  0  0  0  0  0  0  0  0  0  0
    3.8906   -0.1331   -0.1113 C   0  0  0  0  0  0  0  0  0  0  0  0
    3.6725    0.6393    1.0376 C   0  0  0  0  0  0  0  0  0  0  0  0
    2.3998    0.9291    1.4688 C   0  0  0  0  0  0  0  0  0  0  0  0
    1.2914    0.4542    0.7627 C   0  0  0  0  0  0  0  0  0  0  0  0
   -0.0301    0.7718    1.2365 C   0  0  0  0  0  0  0  0  0  0  0  0
   -0.3261    1.4803    2.2904 N   0  0  0  0  0  0  0  0  0  0  0  0
   -1.6580    1.5350    2.3743 N   0  0  0  0  0  0  0  0  0  0  0  0
   -2.1404    0.8590    1.3701 C   0  0  0  0  0  0  0  0  0  0  0  0
   -3.5335    0.6532    1.0671 C   0  0  0  0  0  0  0  0  0  0  0  0
   -3.9338   -0.0923   -0.0416 C   0  0  0  0  0  0  0  0  0  0  0  0
   -5.2740   -0.2708   -0.3039 C   0  0  0  0  0  0  0  0  0  0  0  0
   -6.2532    0.2846    0.5255 C   0  0  0  0  0  0  0  0  0  0  0  0
   -7.6587    0.0902    0.2394 C   0  0  0  0  0  0  0  0  0  0  0  0
   -8.7388    0.5541    0.9291 C   0  0  0  0  0  0  0  0  0  0  0  0
   -9.9865    0.1745    0.3676 C   0  0  0  0  0  0  0  0  0  0  0  0
  -11.2794    0.4705    0.8084 C   0  0  0  0  0  0  0  0  0  0  0  0
  -12.3596   -0.0064    0.1021 C   0  0  0  0  0  0  0  0  0  0  0  0
  -12.1811   -0.7800   -1.0458 C   0  0  0  0  0  0  0  0  0  0  0  0
  -10.9163   -1.0874   -1.5034 C   0  0  0  0  0  0  0  0  0  0  0  0
   -9.8268   -0.6076   -0.7930 C   0  0  0  0  0  0  0  0  0  0  0  0
   -8.1475   -0.8541   -1.1610 S   0  0  0  0  0  0  0  0  0  0  0  0
   -5.8381    1.0311    1.6359 C   0  0  0  0  0  0  0  0  0  0  0  0
   -4.5015    1.2134    1.9036 C   0  0  0  0  0  0  0  0  0  0  0  0
   -1.1492    0.3439    0.6023 O   0  0  0  0  0  0  0  0  0  0  0  0
    1.4893   -0.3160   -0.3837 C   0  0  0  0  0  0  0  0  0  0  0  0
    2.7681   -0.6006   -0.8073 C   0  0  0  0  0  0  0  0  0  0  0  0
    8.8111    0.0346    0.1691 C   0  0  0  0  0  0  0  0  0  0  0  0
   10.1045   -0.2363   -0.2313 C   0  0  0  0  0  0  0  0  0  0  0  0
   12.7393   -1.2762   -0.1645 H   0  0  0  0  0  0  0  0  0  0  0  0
   13.5476   -1.2579   -1.7509 H   0  0  0  0  0  0  0  0  0  0  0  0
   12.7466    0.2145   -1.1504 H   0  0  0  0  0  0  0  0  0  0  0  0
    9.4207   -2.0540   -2.9848 H   0  0  0  0  0  0  0  0  0  0  0  0
    7.1242   -1.5729   -2.2737 H   0  0  0  0  0  0  0  0  0  0  0  0
    6.3746    0.4947    0.8422 H   0  0  0  0  0  0  0  0  0  0  0  0
    5.2077   -1.0682   -1.5085 H   0  0  0  0  0  0  0  0  0  0  0  0
    4.5119    1.0174    1.5994 H   0  0  0  0  0  0  0  0  0  0  0  0
    2.2290    1.5232    2.3525 H   0  0  0  0  0  0  0  0  0  0  0  0
   -3.1890   -0.5273   -0.6910 H   0  0  0  0  0  0  0  0  0  0  0  0
   -5.5783   -0.8493   -1.1642 H   0  0  0  0  0  0  0  0  0  0  0  0
   -8.6712    1.1539    1.8187 H   0  0  0  0  0  0  0  0  0  0  0  0
  -11.4154    1.0692    1.6967 H   0  0  0  0  0  0  0  0  0  0  0  0
  -13.3614    0.2184    0.4367 H   0  0  0  0  0  0  0  0  0  0  0  0
  -13.0448   -1.1424   -1.5825 H   0  0  0  0  0  0  0  0  0  0  0  0
  -10.7711   -1.6849   -2.3900 H   0  0  0  0  0  0  0  0  0  0  0  0
   -6.5713    1.4708    2.2927 H   0  0  0  0  0  0  0  0  0  0  0  0
   -4.1752    1.7868    2.7565 H   0  0  0  0  0  0  0  0  0  0  0  0
    0.6357   -0.6852   -0.9330 H   0  0  0  0  0  0  0  0  0  0  0  0
    2.9121   -1.1981   -1.6966 H   0  0  0  0  0  0  0  0  0  0  0  0
    8.6553    0.6253    1.0610 H   0  0  0  0  0  0  0  0  0  0  0  0
   10.9260    0.1468    0.3537 H   0  0  0  0  0  0  0  0  0  0  0  0
  1  2  1  0  0  0  0
  2  3  1  0  0  0  0
  3  4  2  0  0  0  0
  4  5  1  0  0  0  0
  5  6  2  0  0  0  0
  6  7  1  0  0  0  0
  7  8  2  0  0  0  0
  8  9  1  0  0  0  0
  9 10  2  0  0  0  0
 10 11  1  0  0  0  0
 11 12  2  0  0  0  0
 12 13  1  0  0  0  0
 13 14  2  0  0  0  0
 14 15  1  0  0  0  0
 15 16  2  0  0  0  0
 16 17  1  0  0  0  0
 17 18  2  0  0  0  0
 18 19  1  0  0  0  0
 19 20  2  0  0  0  0
 20 21  1  0  0  0  0
 21 22  2  0  0  0  0
 22 23  1  0  0  0  0
 23 24  2  0  0  0  0
 24 25  1  0  0  0  0
 25 26  2  0  0  0  0
 26 27  1  0  0  0  0
 27 28  2  0  0  0  0
 28 29  1  0  0  0  0
 20 30  1  0  0  0  0
 30 31  2  0  0  0  0
 16 32  1  0  0  0  0
 12 33  1  0  0  0  0
 33 34  2  0  0  0  0
  6 35  1  0  0  0  0
 35 36  2  0  0  0  0
 36  3  1  0  0  0  0
 34  9  1  0  0  0  0
 32 13  1  0  0  0  0
 31 17  1  0  0  0  0
 29 21  1  0  0  0  0
 28 23  1  0  0  0  0
  1 37  1  0  0  0  0
  1 38  1  0  0  0  0
  1 39  1  0  0  0  0
  4 40  1  0  0  0  0
  5 41  1  0  0  0  0
  7 42  1  0  0  0  0
  8 43  1  0  0  0  0
 10 44  1  0  0  0  0
 11 45  1  0  0  0  0
 18 46  1  0  0  0  0
 19 47  1  0  0  0  0
 22 48  1  0  0  0  0
 24 49  1  0  0  0  0
 25 50  1  0  0  0  0
 26 51  1  0  0  0  0
 27 52  1  0  0  0  0
 30 53  1  0  0  0  0
 31 54  1  0  0  0  0
 33 55  1  0  0  0  0
 34 56  1  0  0  0  0
 35 57  1  0  0  0  0
 36 58  1  0  0  0  0
M  END
