
  xtb     03022212593D
 energy: -107.212109666220 gnorm: 0.000121521284 xtb: 6.4.1 (afa7bdf)
 70 77  0     0  0            999 V2000
    7.5588   -0.1210   -0.4085 C   0  0  0  0  0  0  0  0  0  0  0  0
    6.0682   -0.0972   -0.2561 C   0  0  0  0  0  0  0  0  0  0  0  0
    5.4753    0.6902    0.7218 C   0  0  0  0  0  0  0  0  0  0  0  0
    4.1007    0.7190    0.8925 C   0  0  0  0  0  0  0  0  0  0  0  0
    3.4740    1.5721    1.9537 C   0  0  0  0  0  0  0  0  0  0  0  0
    3.2995   -0.0661    0.0610 C   0  0  0  0  0  0  0  0  0  0  0  0
    1.8323   -0.0481    0.2332 C   0  0  0  0  0  0  0  0  0  0  0  0
    1.0703    0.9712   -0.3446 C   0  0  0  0  0  0  0  0  0  0  0  0
    1.4963    2.0301   -1.1772 C   0  0  0  0  0  0  0  0  0  0  0  0
    0.3734    2.7404   -1.5306 C   0  0  0  0  0  0  0  0  0  0  0  0
   -0.7238    2.1197   -0.9047 C   0  0  0  0  0  0  0  0  0  0  0  0
   -2.1353    2.4763   -1.0170 C   0  0  0  0  0  0  0  0  0  0  0  0
   -2.8979    2.8072    0.0953 C   0  0  0  0  0  0  0  0  0  0  0  0
   -4.2430    3.1029   -0.0325 C   0  0  0  0  0  0  0  0  0  0  0  0
   -4.8424    3.0622   -1.2790 C   0  0  0  0  0  0  0  0  0  0  0  0
   -4.0960    2.7375   -2.3977 C   0  0  0  0  0  0  0  0  0  0  0  0
   -2.7438    2.4490   -2.2791 C   0  0  0  0  0  0  0  0  0  0  0  0
   -1.9841    2.1141   -3.3561 O   0  0  0  0  0  0  0  0  0  0  0  0
   -0.2995    1.0774   -0.1836 N   0  0  0  0  0  4  0  0  0  0  0  0
   -1.1417   -0.0689    0.4134 B   0  0  0  0  0  4  0  0  0  0  0  0
   -1.8279   -0.8482   -0.8402 C   0  0  0  0  0  0  0  0  0  0  0  0
   -1.0806   -1.6515   -1.6958 C   0  0  0  0  0  0  0  0  0  0  0  0
   -1.6489   -2.2444   -2.8090 C   0  0  0  0  0  0  0  0  0  0  0  0
   -2.9879   -2.0399   -3.0940 C   0  0  0  0  0  0  0  0  0  0  0  0
   -3.7506   -1.2482   -2.2530 C   0  0  0  0  0  0  0  0  0  0  0  0
   -3.1739   -0.6628   -1.1402 C   0  0  0  0  0  0  0  0  0  0  0  0
   -2.1570    0.3837    1.3992 O   0  0  0  0  0  0  0  0  0  0  0  0
   -2.6155   -0.5192    2.2610 C   0  0  0  0  0  0  0  0  0  0  0  0
   -3.8514   -0.2901    2.8714 C   0  0  0  0  0  0  0  0  0  0  0  0
   -4.3836   -1.2031    3.7575 C   0  0  0  0  0  0  0  0  0  0  0  0
   -3.6936   -2.3658    4.0778 C   0  0  0  0  0  0  0  0  0  0  0  0
   -2.4514   -2.5933    3.5246 C   0  0  0  0  0  0  0  0  0  0  0  0
   -1.8930   -1.6854    2.6266 C   0  0  0  0  0  0  0  0  0  0  0  0
   -0.5404   -1.7802    2.1462 C   0  0  0  0  0  0  0  0  0  0  0  0
    0.6050   -2.4695    2.6168 C   0  0  0  0  0  0  0  0  0  0  0  0
    1.6850   -1.9926    1.9128 C   0  0  0  0  0  0  0  0  0  0  0  0
    1.1986   -1.0014    1.0233 C   0  0  0  0  0  0  0  0  0  0  0  0
   -0.1604   -0.9439    1.1792 N   0  0  0  0  0  0  0  0  0  0  0  0
    3.8746   -0.8675   -0.9248 C   0  0  0  0  0  0  0  0  0  0  0  0
    3.0058   -1.7028   -1.8154 C   0  0  0  0  0  0  0  0  0  0  0  0
    5.2538   -0.8696   -1.0702 C   0  0  0  0  0  0  0  0  0  0  0  0
    7.9723    0.8807   -0.3108 H   0  0  0  0  0  0  0  0  0  0  0  0
    7.8453   -0.5281   -1.3749 H   0  0  0  0  0  0  0  0  0  0  0  0
    8.0036   -0.7429    0.3689 H   0  0  0  0  0  0  0  0  0  0  0  0
    6.0999    1.2953    1.3639 H   0  0  0  0  0  0  0  0  0  0  0  0
    2.8385    2.3338    1.5030 H   0  0  0  0  0  0  0  0  0  0  0  0
    4.2365    2.0643    2.5521 H   0  0  0  0  0  0  0  0  0  0  0  0
    2.8491    0.9672    2.6098 H   0  0  0  0  0  0  0  0  0  0  0  0
    2.5125    2.2135   -1.4692 H   0  0  0  0  0  0  0  0  0  0  0  0
    0.3160    3.6082   -2.1572 H   0  0  0  0  0  0  0  0  0  0  0  0
   -2.4239    2.8263    1.0630 H   0  0  0  0  0  0  0  0  0  0  0  0
   -4.8248    3.3599    0.8397 H   0  0  0  0  0  0  0  0  0  0  0  0
   -5.8945    3.2815   -1.3858 H   0  0  0  0  0  0  0  0  0  0  0  0
   -4.5642    2.6974   -3.3729 H   0  0  0  0  0  0  0  0  0  0  0  0
   -2.5435    2.0534   -4.1400 H   0  0  0  0  0  0  0  0  0  0  0  0
   -0.0324   -1.8159   -1.4858 H   0  0  0  0  0  0  0  0  0  0  0  0
   -1.0463   -2.8644   -3.4587 H   0  0  0  0  0  0  0  0  0  0  0  0
   -3.4343   -2.4965   -3.9665 H   0  0  0  0  0  0  0  0  0  0  0  0
   -4.7983   -1.0837   -2.4660 H   0  0  0  0  0  0  0  0  0  0  0  0
   -3.7747   -0.0434   -0.4893 H   0  0  0  0  0  0  0  0  0  0  0  0
   -4.3862    0.6107    2.6113 H   0  0  0  0  0  0  0  0  0  0  0  0
   -5.3511   -1.0140    4.1994 H   0  0  0  0  0  0  0  0  0  0  0  0
   -4.1229   -3.0802    4.7637 H   0  0  0  0  0  0  0  0  0  0  0  0
   -1.8958   -3.4839    3.7786 H   0  0  0  0  0  0  0  0  0  0  0  0
    0.6160   -3.2060    3.3960 H   0  0  0  0  0  0  0  0  0  0  0  0
    2.7150   -2.2737    2.0209 H   0  0  0  0  0  0  0  0  0  0  0  0
    2.2713   -1.0792   -2.3243 H   0  0  0  0  0  0  0  0  0  0  0  0
    2.4651   -2.4453   -1.2286 H   0  0  0  0  0  0  0  0  0  0  0  0
    3.6028   -2.2203   -2.5620 H   0  0  0  0  0  0  0  0  0  0  0  0
    5.7008   -1.4871   -1.8365 H   0  0  0  0  0  0  0  0  0  0  0  0
  1  2  1  0  0  0  0
  2  3  2  0  0  0  0
  3  4  1  0  0  0  0
  4  5  1  0  0  0  0
  4  6  2  0  0  0  0
  6  7  1  0  0  0  0
  7  8  2  0  0  0  0
  8  9  1  0  0  0  0
  9 10  2  0  0  0  0
 10 11  1  0  0  0  0
 11 12  1  0  0  0  0
 12 13  2  0  0  0  0
 13 14  1  0  0  0  0
 14 15  2  0  0  0  0
 15 16  1  0  0  0  0
 16 17  2  0  0  0  0
 17 18  1  0  0  0  0
 11 19  2  0  0  0  0
 19 20  1  0  0  0  0
 20 21  1  0  0  0  0
 21 22  2  0  0  0  0
 22 23  1  0  0  0  0
 23 24  2  0  0  0  0
 24 25  1  0  0  0  0
 25 26  2  0  0  0  0
 20 27  1  0  0  0  0
 27 28  1  0  0  0  0
 28 29  2  0  0  0  0
 29 30  1  0  0  0  0
 30 31  2  0  0  0  0
 31 32  1  0  0  0  0
 32 33  2  0  0  0  0
 33 34  1  0  0  0  0
 34 35  2  0  0  0  0
 35 36  1  0  0  0  0
 36 37  2  0  0  0  0
 37 38  1  0  0  0  0
  6 39  1  0  0  0  0
 39 40  1  0  0  0  0
 39 41  2  0  0  0  0
 41  2  1  0  0  0  0
 37  7  1  0  0  0  0
 19  8  1  0  0  0  0
 38 20  1  0  0  0  0
 17 12  1  0  0  0  0
 26 21  1  0  0  0  0
 33 28  1  0  0  0  0
 38 34  1  0  0  0  0
  1 42  1  0  0  0  0
  1 43  1  0  0  0  0
  1 44  1  0  0  0  0
  3 45  1  0  0  0  0
  5 46  1  0  0  0  0
  5 47  1  0  0  0  0
  5 48  1  0  0  0  0
  9 49  1  0  0  0  0
 10 50  1  0  0  0  0
 13 51  1  0  0  0  0
 14 52  1  0  0  0  0
 15 53  1  0  0  0  0
 16 54  1  0  0  0  0
 18 55  1  0  0  0  0
 22 56  1  0  0  0  0
 23 57  1  0  0  0  0
 24 58  1  0  0  0  0
 25 59  1  0  0  0  0
 26 60  1  0  0  0  0
 29 61  1  0  0  0  0
 30 62  1  0  0  0  0
 31 63  1  0  0  0  0
 32 64  1  0  0  0  0
 35 65  1  0  0  0  0
 36 66  1  0  0  0  0
 40 67  1  0  0  0  0
 40 68  1  0  0  0  0
 40 69  1  0  0  0  0
 41 70  1  0  0  0  0
M  CHG  1  19   1
M  CHG  1  20  -1
M  END
