
  xtb     03022214443D
 energy: -77.352998382664 gnorm: 0.000414702070 xtb: 6.4.1 (afa7bdf)
 41 45  0     0  0            999 V2000
   -1.4178    5.5097   -0.2972 O   0  0  0  0  0  0  0  0  0  0  0  0
   -1.3593    4.4287    0.2109 C   0  0  0  0  0  0  0  0  0  0  0  0
   -1.3112    3.2712   -0.4378 O   0  0  0  0  0  0  0  0  0  0  0  0
   -1.2320    2.1582    0.5178 B   0  0  0  0  0  4  0  0  0  0  0  0
   -1.2571    2.7850    1.8446 O   0  0  0  0  0  0  0  0  0  0  0  0
   -1.3233    4.1060    1.7262 C   0  0  0  0  0  0  0  0  0  0  0  0
   -1.3483    4.8857    2.6327 O   0  0  0  0  0  0  0  0  0  0  0  0
   -2.4019    1.2721    0.3557 O   0  0  0  0  0  0  0  0  0  0  0  0
   -2.2971    0.0133    0.0646 C   0  0  0  0  0  0  0  0  0  0  0  0
   -3.5661   -0.7099   -0.0664 C   0  0  0  0  0  0  0  0  0  0  0  0
   -3.6371   -2.0719   -0.3738 C   0  0  0  0  0  0  0  0  0  0  0  0
   -4.8634   -2.6979   -0.4851 C   0  0  0  0  0  0  0  0  0  0  0  0
   -6.0368   -1.9844   -0.2933 C   0  0  0  0  0  0  0  0  0  0  0  0
   -5.9798   -0.6336    0.0124 C   0  0  0  0  0  0  0  0  0  0  0  0
   -4.7580   -0.0014    0.1250 C   0  0  0  0  0  0  0  0  0  0  0  0
   -1.0542   -0.5915   -0.1069 C   0  0  0  0  0  0  0  0  0  0  0  0
    0.1040    0.1729    0.0414 C   0  0  0  0  0  0  0  0  0  0  0  0
    1.4510   -0.3734   -0.1146 C   0  0  0  0  0  0  0  0  0  0  0  0
    1.6951   -1.7333   -0.4294 C   0  0  0  0  0  0  0  0  0  0  0  0
    2.9703   -2.1947   -0.5663 C   0  0  0  0  0  0  0  0  0  0  0  0
    4.0837   -1.3407   -0.4003 C   0  0  0  0  0  0  0  0  0  0  0  0
    5.4097   -1.7937   -0.5372 C   0  0  0  0  0  0  0  0  0  0  0  0
    6.4598   -0.9324   -0.3679 C   0  0  0  0  0  0  0  0  0  0  0  0
    6.2321    0.4176   -0.0545 C   0  0  0  0  0  0  0  0  0  0  0  0
    4.9570    0.8889    0.0851 C   0  0  0  0  0  0  0  0  0  0  0  0
    3.8515    0.0255   -0.0836 C   0  0  0  0  0  0  0  0  0  0  0  0
    2.5301    0.4774    0.0522 C   0  0  0  0  0  0  0  0  0  0  0  0
    0.0431    1.4348    0.3324 O   0  0  0  0  0  3  0  0  0  0  0  0
   -2.7416   -2.6516   -0.5279 H   0  0  0  0  0  0  0  0  0  0  0  0
   -4.9062   -3.7501   -0.7231 H   0  0  0  0  0  0  0  0  0  0  0  0
   -6.9913   -2.4809   -0.3821 H   0  0  0  0  0  0  0  0  0  0  0  0
   -6.8901   -0.0737    0.1628 H   0  0  0  0  0  0  0  0  0  0  0  0
   -4.7027    1.0492    0.3622 H   0  0  0  0  0  0  0  0  0  0  0  0
   -0.9877   -1.6333   -0.3487 H   0  0  0  0  0  0  0  0  0  0  0  0
    0.8723   -2.4160   -0.5635 H   0  0  0  0  0  0  0  0  0  0  0  0
    3.1494   -3.2327   -0.8067 H   0  0  0  0  0  0  0  0  0  0  0  0
    5.5833   -2.8324   -0.7783 H   0  0  0  0  0  0  0  0  0  0  0  0
    7.4746   -1.2857   -0.4743 H   0  0  0  0  0  0  0  0  0  0  0  0
    7.0752    1.0794    0.0748 H   0  0  0  0  0  0  0  0  0  0  0  0
    4.7729    1.9253    0.3258 H   0  0  0  0  0  0  0  0  0  0  0  0
    2.3482    1.5140    0.2922 H   0  0  0  0  0  0  0  0  0  0  0  0
  1  2  2  0  0  0  0
  2  3  1  0  0  0  0
  3  4  1  0  0  0  0
  4  5  1  0  0  0  0
  5  6  1  0  0  0  0
  6  7  2  0  0  0  0
  4  8  1  0  0  0  0
  8  9  1  0  0  0  0
  9 10  1  0  0  0  0
 10 11  2  0  0  0  0
 11 12  1  0  0  0  0
 12 13  2  0  0  0  0
 13 14  1  0  0  0  0
 14 15  2  0  0  0  0
  9 16  2  0  0  0  0
 16 17  1  0  0  0  0
 17 18  1  0  0  0  0
 18 19  2  0  0  0  0
 19 20  1  0  0  0  0
 20 21  2  0  0  0  0
 21 22  1  0  0  0  0
 22 23  2  0  0  0  0
 23 24  1  0  0  0  0
 24 25  2  0  0  0  0
 25 26  1  0  0  0  0
 26 27  2  0  0  0  0
 17 28  2  0  0  0  0
  6  2  1  0  0  0  0
 15 10  1  0  0  0  0
 27 18  1  0  0  0  0
 28  4  1  0  0  0  0
 26 21  1  0  0  0  0
 11 29  1  0  0  0  0
 12 30  1  0  0  0  0
 13 31  1  0  0  0  0
 14 32  1  0  0  0  0
 15 33  1  0  0  0  0
 16 34  1  0  0  0  0
 19 35  1  0  0  0  0
 20 36  1  0  0  0  0
 22 37  1  0  0  0  0
 23 38  1  0  0  0  0
 24 39  1  0  0  0  0
 25 40  1  0  0  0  0
 27 41  1  0  0  0  0
M  CHG  1   4  -1
M  CHG  1  28   1
M  END
