
  xtb     03022212553D
 energy: -152.432483076131 gnorm: 0.000081733182 xtb: 6.4.1 (afa7bdf)
 96103  0     0  0            999 V2000
    7.6048   -1.7638    1.2033 C   0  0  0  0  0  0  0  0  0  0  0  0
    8.0905   -0.6066    0.5667 O   0  0  0  0  0  0  0  0  0  0  0  0
    7.1881    0.2998    0.0969 C   0  0  0  0  0  0  0  0  0  0  0  0
    7.7176    1.3927   -0.5923 C   0  0  0  0  0  0  0  0  0  0  0  0
    6.8757    2.3556   -1.1094 C   0  0  0  0  0  0  0  0  0  0  0  0
    5.5035    2.2432   -0.9656 C   0  0  0  0  0  0  0  0  0  0  0  0
    4.9645    1.1560   -0.2855 C   0  0  0  0  0  0  0  0  0  0  0  0
    3.5211    1.0167   -0.1343 C   0  0  0  0  0  0  0  0  0  0  0  0
    2.5954    2.0253    0.0598 C   0  0  0  0  0  0  0  0  0  0  0  0
    1.3320    1.4132    0.1813 C   0  0  0  0  0  0  0  0  0  0  0  0
    0.0726    1.9929    0.3009 C   0  0  0  0  0  0  0  0  0  0  0  0
   -0.0590    3.4624    0.3822 C   0  0  0  0  0  0  0  0  0  0  0  0
   -0.1467    4.0758    1.6317 C   0  0  0  0  0  0  0  0  0  0  0  0
   -0.1073    3.2443    2.8775 C   0  0  0  0  0  0  0  0  0  0  0  0
   -0.2659    5.4560    1.6943 C   0  0  0  0  0  0  0  0  0  0  0  0
   -0.3009    6.2319    0.5451 C   0  0  0  0  0  0  0  0  0  0  0  0
   -0.4500    7.7209    0.6238 C   0  0  0  0  0  0  0  0  0  0  0  0
   -0.2148    5.5993   -0.6878 C   0  0  0  0  0  0  0  0  0  0  0  0
   -0.0933    4.2226   -0.7877 C   0  0  0  0  0  0  0  0  0  0  0  0
   -0.0032    3.5496   -2.1240 C   0  0  0  0  0  0  0  0  0  0  0  0
   -1.0668    1.1947    0.2826 C   0  0  0  0  0  0  0  0  0  0  0  0
   -2.4227    1.5802    0.2539 C   0  0  0  0  0  0  0  0  0  0  0  0
   -3.1717    0.4264    0.1388 C   0  0  0  0  0  0  0  0  0  0  0  0
   -4.6277    0.3258    0.0891 C   0  0  0  0  0  0  0  0  0  0  0  0
   -5.3650    1.2210   -0.6870 C   0  0  0  0  0  0  0  0  0  0  0  0
   -6.7381    1.1044   -0.7528 C   0  0  0  0  0  0  0  0  0  0  0  0
   -7.4055    0.1112   -0.0532 C   0  0  0  0  0  0  0  0  0  0  0  0
   -6.6811   -0.7738    0.7390 C   0  0  0  0  0  0  0  0  0  0  0  0
   -7.2217   -1.7820    1.4780 O   0  0  0  0  0  0  0  0  0  0  0  0
   -8.6158   -1.9625    1.4543 C   0  0  0  0  0  0  0  0  0  0  0  0
   -5.2945   -0.6570    0.8068 C   0  0  0  0  0  0  0  0  0  0  0  0
   -2.2493   -0.6585    0.1010 C   0  0  0  0  0  0  0  0  0  0  0  0
   -2.6131   -2.0558   -0.0827 C   0  0  0  0  0  0  0  0  0  0  0  0
   -2.0641   -3.0790    0.6814 C   0  0  0  0  0  0  0  0  0  0  0  0
   -2.4953   -4.3809    0.4891 C   0  0  0  0  0  0  0  0  0  0  0  0
   -3.4732   -4.6725   -0.4385 C   0  0  0  0  0  0  0  0  0  0  0  0
   -4.0341   -3.6508   -1.2080 C   0  0  0  0  0  0  0  0  0  0  0  0
   -5.0065   -4.0271   -2.0869 O   0  0  0  0  0  0  0  0  0  0  0  0
   -5.6674   -3.0248   -2.8184 C   0  0  0  0  0  0  0  0  0  0  0  0
   -3.5932   -2.3495   -1.0359 C   0  0  0  0  0  0  0  0  0  0  0  0
   -1.0013   -0.1806    0.1926 N   0  0  0  0  0  0  0  0  0  0  0  0
    0.3370   -0.9630    0.2810 B   0  0  0  0  0  4  0  0  0  0  0  0
    0.4524   -1.4855    1.5629 F   0  0  0  0  0  0  0  0  0  0  0  0
    0.3841   -1.9573   -0.6627 F   0  0  0  0  0  0  0  0  0  0  0  0
    1.4960    0.0480    0.0731 N   0  0  0  0  0  4  0  0  0  0  0  0
    2.7947   -0.2069   -0.1218 C   0  0  0  0  0  0  0  0  0  0  0  0
    3.3531   -1.5313   -0.3730 C   0  0  0  0  0  0  0  0  0  0  0  0
    4.1519   -1.7145   -1.5063 C   0  0  0  0  0  0  0  0  0  0  0  0
    4.7114   -2.9488   -1.7543 C   0  0  0  0  0  0  0  0  0  0  0  0
    4.5064   -4.0131   -0.8886 C   0  0  0  0  0  0  0  0  0  0  0  0
    3.7151   -3.8376    0.2411 C   0  0  0  0  0  0  0  0  0  0  0  0
    3.4575   -4.8009    1.1666 O   0  0  0  0  0  0  0  0  0  0  0  0
    3.9393   -6.1015    0.9373 C   0  0  0  0  0  0  0  0  0  0  0  0
    3.1395   -2.5919    0.4924 C   0  0  0  0  0  0  0  0  0  0  0  0
    5.8153    0.1955    0.2605 C   0  0  0  0  0  0  0  0  0  0  0  0
    6.9371   -2.3330    0.5477 H   0  0  0  0  0  0  0  0  0  0  0  0
    7.0784   -1.5223    2.1324 H   0  0  0  0  0  0  0  0  0  0  0  0
    8.4846   -2.3623    1.4350 H   0  0  0  0  0  0  0  0  0  0  0  0
    8.7877    1.4612   -0.7063 H   0  0  0  0  0  0  0  0  0  0  0  0
    7.2931    3.1995   -1.6387 H   0  0  0  0  0  0  0  0  0  0  0  0
    4.8479    2.9869   -1.3924 H   0  0  0  0  0  0  0  0  0  0  0  0
    2.7789    3.0800    0.1273 H   0  0  0  0  0  0  0  0  0  0  0  0
   -0.9514    2.5558    2.9018 H   0  0  0  0  0  0  0  0  0  0  0  0
    0.8034    2.6475    2.9087 H   0  0  0  0  0  0  0  0  0  0  0  0
   -0.1449    3.8734    3.7631 H   0  0  0  0  0  0  0  0  0  0  0  0
   -0.3316    5.9350    2.6609 H   0  0  0  0  0  0  0  0  0  0  0  0
   -1.4853    8.0025    0.4292 H   0  0  0  0  0  0  0  0  0  0  0  0
   -0.1781    8.0880    1.6101 H   0  0  0  0  0  0  0  0  0  0  0  0
    0.1743    8.2111   -0.1203 H   0  0  0  0  0  0  0  0  0  0  0  0
   -0.2424    6.1936   -1.5903 H   0  0  0  0  0  0  0  0  0  0  0  0
    0.9458    3.0238   -2.2230 H   0  0  0  0  0  0  0  0  0  0  0  0
   -0.0844    4.2768   -2.9279 H   0  0  0  0  0  0  0  0  0  0  0  0
   -0.7988    2.8136   -2.2343 H   0  0  0  0  0  0  0  0  0  0  0  0
   -2.7797    2.5893    0.3250 H   0  0  0  0  0  0  0  0  0  0  0  0
   -4.8539    1.9892   -1.2472 H   0  0  0  0  0  0  0  0  0  0  0  0
   -7.3077    1.7919   -1.3613 H   0  0  0  0  0  0  0  0  0  0  0  0
   -8.4791    0.0422   -0.1304 H   0  0  0  0  0  0  0  0  0  0  0  0
   -8.9757   -2.1949    0.4464 H   0  0  0  0  0  0  0  0  0  0  0  0
   -8.8139   -2.8096    2.1091 H   0  0  0  0  0  0  0  0  0  0  0  0
   -9.1433   -1.0813    1.8345 H   0  0  0  0  0  0  0  0  0  0  0  0
   -4.7532   -1.3490    1.4318 H   0  0  0  0  0  0  0  0  0  0  0  0
   -1.3207   -2.8604    1.4273 H   0  0  0  0  0  0  0  0  0  0  0  0
   -2.0664   -5.1762    1.0797 H   0  0  0  0  0  0  0  0  0  0  0  0
   -3.8252   -5.6809   -0.5886 H   0  0  0  0  0  0  0  0  0  0  0  0
   -4.9873   -2.5119   -3.5065 H   0  0  0  0  0  0  0  0  0  0  0  0
   -6.4373   -3.5381   -3.3928 H   0  0  0  0  0  0  0  0  0  0  0  0
   -6.1357   -2.2870   -2.1575 H   0  0  0  0  0  0  0  0  0  0  0  0
   -3.9866   -1.5460   -1.6373 H   0  0  0  0  0  0  0  0  0  0  0  0
    4.3148   -0.8925   -2.1861 H   0  0  0  0  0  0  0  0  0  0  0  0
    5.3224   -3.0945   -2.6331 H   0  0  0  0  0  0  0  0  0  0  0  0
    4.9632   -4.9653   -1.1084 H   0  0  0  0  0  0  0  0  0  0  0  0
    3.5525   -6.5144    0.0002 H   0  0  0  0  0  0  0  0  0  0  0  0
    5.0345   -6.1307    0.9234 H   0  0  0  0  0  0  0  0  0  0  0  0
    3.5764   -6.7012    1.7707 H   0  0  0  0  0  0  0  0  0  0  0  0
    2.5327   -2.4778    1.3742 H   0  0  0  0  0  0  0  0  0  0  0  0
    5.3846   -0.6208    0.8161 H   0  0  0  0  0  0  0  0  0  0  0  0
  1  2  1  0  0  0  0
  2  3  1  0  0  0  0
  3  4  2  0  0  0  0
  4  5  1  0  0  0  0
  5  6  2  0  0  0  0
  6  7  1  0  0  0  0
  7  8  1  0  0  0  0
  8  9  2  0  0  0  0
  9 10  1  0  0  0  0
 10 11  2  0  0  0  0
 11 12  1  0  0  0  0
 12 13  2  0  0  0  0
 13 14  1  0  0  0  0
 13 15  1  0  0  0  0
 15 16  2  0  0  0  0
 16 17  1  0  0  0  0
 16 18  1  0  0  0  0
 18 19  2  0  0  0  0
 19 20  1  0  0  0  0
 11 21  1  0  0  0  0
 21 22  2  0  0  0  0
 22 23  1  0  0  0  0
 23 24  1  0  0  0  0
 24 25  2  0  0  0  0
 25 26  1  0  0  0  0
 26 27  2  0  0  0  0
 27 28  1  0  0  0  0
 28 29  1  0  0  0  0
 29 30  1  0  0  0  0
 28 31  2  0  0  0  0
 23 32  2  0  0  0  0
 32 33  1  0  0  0  0
 33 34  2  0  0  0  0
 34 35  1  0  0  0  0
 35 36  2  0  0  0  0
 36 37  1  0  0  0  0
 37 38  1  0  0  0  0
 38 39  1  0  0  0  0
 37 40  2  0  0  0  0
 32 41  1  0  0  0  0
 41 42  1  0  0  0  0
 42 43  1  0  0  0  0
 42 44  1  0  0  0  0
 42 45  1  0  0  0  0
 45 46  2  0  0  0  0
 46 47  1  0  0  0  0
 47 48  2  0  0  0  0
 48 49  1  0  0  0  0
 49 50  2  0  0  0  0
 50 51  1  0  0  0  0
 51 52  1  0  0  0  0
 52 53  1  0  0  0  0
 51 54  2  0  0  0  0
  7 55  2  0  0  0  0
 55  3  1  0  0  0  0
 46  8  1  0  0  0  0
 54 47  1  0  0  0  0
 45 10  1  0  0  0  0
 19 12  1  0  0  0  0
 41 21  1  0  0  0  0
 31 24  1  0  0  0  0
 40 33  1  0  0  0  0
  1 56  1  0  0  0  0
  1 57  1  0  0  0  0
  1 58  1  0  0  0  0
  4 59  1  0  0  0  0
  5 60  1  0  0  0  0
  6 61  1  0  0  0  0
  9 62  1  0  0  0  0
 14 63  1  0  0  0  0
 14 64  1  0  0  0  0
 14 65  1  0  0  0  0
 15 66  1  0  0  0  0
 17 67  1  0  0  0  0
 17 68  1  0  0  0  0
 17 69  1  0  0  0  0
 18 70  1  0  0  0  0
 20 71  1  0  0  0  0
 20 72  1  0  0  0  0
 20 73  1  0  0  0  0
 22 74  1  0  0  0  0
 25 75  1  0  0  0  0
 26 76  1  0  0  0  0
 27 77  1  0  0  0  0
 30 78  1  0  0  0  0
 30 79  1  0  0  0  0
 30 80  1  0  0  0  0
 31 81  1  0  0  0  0
 34 82  1  0  0  0  0
 35 83  1  0  0  0  0
 36 84  1  0  0  0  0
 39 85  1  0  0  0  0
 39 86  1  0  0  0  0
 39 87  1  0  0  0  0
 40 88  1  0  0  0  0
 48 89  1  0  0  0  0
 49 90  1  0  0  0  0
 50 91  1  0  0  0  0
 53 92  1  0  0  0  0
 53 93  1  0  0  0  0
 53 94  1  0  0  0  0
 54 95  1  0  0  0  0
 55 96  1  0  0  0  0
M  CHG  1  42  -1
M  CHG  1  45   1
M  END
