
  xtb     03022216043D
 energy: -113.211952633626 gnorm: 0.000349251518 xtb: 6.4.1 (afa7bdf)
 63 67  0     0  0            999 V2000
    5.0900    5.6329   -2.1611 C   0  0  0  0  0  0  0  0  0  0  0  0
    4.8974    4.2934   -1.7238 O   0  0  0  0  0  0  0  0  0  0  0  0
    3.8030    4.0580   -0.9956 C   0  0  0  0  0  0  0  0  0  0  0  0
    3.0064    4.9063   -0.6909 O   0  0  0  0  0  0  0  0  0  0  0  0
    3.6930    2.5946   -0.6297 C   0  0  0  0  0  0  0  0  0  0  0  0
    3.1279    2.4253    0.7894 C   0  0  0  0  0  0  0  0  0  0  0  0
    2.5565    1.0646    0.9832 C   0  0  0  0  0  0  0  0  0  0  0  0
    3.1145   -0.0122    1.6310 C   0  0  0  0  0  0  0  0  0  0  0  0
    2.2044   -1.0894    1.5178 C   0  0  0  0  0  0  0  0  0  0  0  0
    2.3058   -2.3855    1.9997 C   0  0  0  0  0  0  0  0  0  0  0  0
    2.2640   -3.5442    2.3593 C   0  0  0  0  0  0  0  0  0  0  0  0
    2.1956   -4.8669    2.7590 C   0  0  0  0  0  0  0  0  0  0  0  0
    1.1635   -5.7395    2.5045 C   0  0  0  0  0  0  0  0  0  0  0  0
    1.3897   -7.0154    3.0441 C   0  0  0  0  0  0  0  0  0  0  0  0
    2.5800   -7.1087    3.7002 C   0  0  0  0  0  0  0  0  0  0  0  0
    3.4628   -5.6375    3.6785 S   0  0  0  0  0  0  0  0  0  0  0  0
    1.1242   -0.6883    0.8221 N   0  0  0  0  0  4  0  0  0  0  0  0
    1.2972    0.6275    0.4736 C   0  0  0  0  0  0  0  0  0  0  0  0
    0.3330    1.3136   -0.2492 C   0  0  0  0  0  0  0  0  0  0  0  0
   -0.8345    0.6774   -0.6432 C   0  0  0  0  0  0  0  0  0  0  0  0
   -1.9537    1.1650   -1.3820 C   0  0  0  0  0  0  0  0  0  0  0  0
   -2.1233    2.5584   -1.8784 C   0  0  0  0  0  0  0  0  0  0  0  0
   -2.5388    3.4979   -0.7412 C   0  0  0  0  0  0  0  0  0  0  0  0
   -2.7404    4.9110   -1.2408 C   0  0  0  0  0  0  0  0  0  0  0  0
   -2.7566    5.2504   -2.3930 O   0  0  0  0  0  0  0  0  0  0  0  0
   -2.9094    5.7543   -0.2151 O   0  0  0  0  0  0  0  0  0  0  0  0
   -3.1168    7.1198   -0.5521 C   0  0  0  0  0  0  0  0  0  0  0  0
   -2.8343    0.1147   -1.4985 C   0  0  0  0  0  0  0  0  0  0  0  0
   -2.2561   -0.9963   -0.8416 C   0  0  0  0  0  0  0  0  0  0  0  0
   -2.7551   -2.2809   -0.6851 C   0  0  0  0  0  0  0  0  0  0  0  0
   -3.1298   -3.4220   -0.5100 C   0  0  0  0  0  0  0  0  0  0  0  0
   -3.5155   -4.7322   -0.2830 C   0  0  0  0  0  0  0  0  0  0  0  0
   -4.6628   -5.3754   -0.6847 C   0  0  0  0  0  0  0  0  0  0  0  0
   -4.7091   -6.7144   -0.2663 C   0  0  0  0  0  0  0  0  0  0  0  0
   -3.6063   -7.0802    0.4458 C   0  0  0  0  0  0  0  0  0  0  0  0
   -2.4790   -5.7999    0.6256 S   0  0  0  0  0  0  0  0  0  0  0  0
   -1.0610   -0.6410   -0.3356 N   0  0  0  0  0  0  0  0  0  0  0  0
   -0.1051   -1.5536    0.4652 B   0  0  0  0  0  4  0  0  0  0  0  0
    0.2790   -2.6343   -0.3051 F   0  0  0  0  0  0  0  0  0  0  0  0
   -0.7271   -2.0000    1.6151 F   0  0  0  0  0  0  0  0  0  0  0  0
    4.2755    5.9360   -2.8218 H   0  0  0  0  0  0  0  0  0  0  0  0
    5.1185    6.3095   -1.3049 H   0  0  0  0  0  0  0  0  0  0  0  0
    6.0377    5.6462   -2.6925 H   0  0  0  0  0  0  0  0  0  0  0  0
    3.0100    2.1365   -1.3504 H   0  0  0  0  0  0  0  0  0  0  0  0
    4.6668    2.1188   -0.7369 H   0  0  0  0  0  0  0  0  0  0  0  0
    2.3512    3.1800    0.9353 H   0  0  0  0  0  0  0  0  0  0  0  0
    3.9184    2.6026    1.5199 H   0  0  0  0  0  0  0  0  0  0  0  0
    4.0581   -0.0545    2.1391 H   0  0  0  0  0  0  0  0  0  0  0  0
    0.2907   -5.4470    1.9495 H   0  0  0  0  0  0  0  0  0  0  0  0
    0.6986   -7.8340    2.9512 H   0  0  0  0  0  0  0  0  0  0  0  0
    2.9966   -7.9608    4.2003 H   0  0  0  0  0  0  0  0  0  0  0  0
    0.4938    2.3490   -0.5064 H   0  0  0  0  0  0  0  0  0  0  0  0
   -2.8884    2.5855   -2.6552 H   0  0  0  0  0  0  0  0  0  0  0  0
   -1.1909    2.9223   -2.3146 H   0  0  0  0  0  0  0  0  0  0  0  0
   -1.7915    3.5142    0.0536 H   0  0  0  0  0  0  0  0  0  0  0  0
   -3.4788    3.1616   -0.2971 H   0  0  0  0  0  0  0  0  0  0  0  0
   -3.2249    7.6517    0.3892 H   0  0  0  0  0  0  0  0  0  0  0  0
   -2.2641    7.5038   -1.1148 H   0  0  0  0  0  0  0  0  0  0  0  0
   -4.0170    7.2276   -1.1603 H   0  0  0  0  0  0  0  0  0  0  0  0
   -3.7850    0.1108   -1.9950 H   0  0  0  0  0  0  0  0  0  0  0  0
   -5.4320   -4.8900   -1.2580 H   0  0  0  0  0  0  0  0  0  0  0  0
   -5.5253   -7.3801   -0.4835 H   0  0  0  0  0  0  0  0  0  0  0  0
   -3.3909   -8.0373    0.8784 H   0  0  0  0  0  0  0  0  0  0  0  0
  1  2  1  0  0  0  0
  2  3  1  0  0  0  0
  3  4  2  0  0  0  0
  3  5  1  0  0  0  0
  5  6  1  0  0  0  0
  6  7  1  0  0  0  0
  7  8  2  0  0  0  0
  8  9  1  0  0  0  0
  9 10  1  0  0  0  0
 10 11  3  0  0  0  0
 11 12  1  0  0  0  0
 12 13  2  0  0  0  0
 13 14  1  0  0  0  0
 14 15  2  0  0  0  0
 15 16  1  0  0  0  0
  9 17  2  0  0  0  0
 17 18  1  0  0  0  0
 18 19  2  0  0  0  0
 19 20  1  0  0  0  0
 20 21  2  0  0  0  0
 21 22  1  0  0  0  0
 22 23  1  0  0  0  0
 23 24  1  0  0  0  0
 24 25  2  0  0  0  0
 24 26  1  0  0  0  0
 26 27  1  0  0  0  0
 21 28  1  0  0  0  0
 28 29  2  0  0  0  0
 29 30  1  0  0  0  0
 30 31  3  0  0  0  0
 31 32  1  0  0  0  0
 32 33  2  0  0  0  0
 33 34  1  0  0  0  0
 34 35  2  0  0  0  0
 35 36  1  0  0  0  0
 29 37  1  0  0  0  0
 37 38  1  0  0  0  0
 38 39  1  0  0  0  0
 38 40  1  0  0  0  0
 18  7  1  0  0  0  0
 37 20  1  0  0  0  0
 16 12  1  0  0  0  0
 38 17  1  0  0  0  0
 36 32  1  0  0  0  0
  1 41  1  0  0  0  0
  1 42  1  0  0  0  0
  1 43  1  0  0  0  0
  5 44  1  0  0  0  0
  5 45  1  0  0  0  0
  6 46  1  0  0  0  0
  6 47  1  0  0  0  0
  8 48  1  0  0  0  0
 13 49  1  0  0  0  0
 14 50  1  0  0  0  0
 15 51  1  0  0  0  0
 19 52  1  0  0  0  0
 22 53  1  0  0  0  0
 22 54  1  0  0  0  0
 23 55  1  0  0  0  0
 23 56  1  0  0  0  0
 27 57  1  0  0  0  0
 27 58  1  0  0  0  0
 27 59  1  0  0  0  0
 28 60  1  0  0  0  0
 33 61  1  0  0  0  0
 34 62  1  0  0  0  0
 35 63  1  0  0  0  0
M  CHG  1  17   1
M  CHG  1  38  -1
M  END
