
  xtb     03022214483D
 energy: -103.032314989485 gnorm: 0.000088494179 xtb: 6.4.1 (afa7bdf)
 70 74  0     0  0            999 V2000
   -5.8997    0.0137    0.4293 C   0  0  0  0  0  0  0  0  0  0  0  0
   -5.0398   -1.0506    1.5249 S   0  0  0  0  0  0  0  0  0  0  0  0
   -3.3835   -0.6141    1.1624 C   0  0  0  0  0  0  0  0  0  0  0  0
   -2.3647   -1.0030    1.9352 C   0  0  0  0  0  0  0  0  0  0  0  0
   -0.9645   -0.7172    1.7055 C   0  0  0  0  0  0  0  0  0  0  0  0
   -0.4650   -0.2649    0.4802 C   0  0  0  0  0  0  0  0  0  0  0  0
    0.8785   -0.0161    0.3135 C   0  0  0  0  0  0  0  0  0  0  0  0
    1.7856   -0.1862    1.3646 C   0  0  0  0  0  0  0  0  0  0  0  0
    3.1881    0.1029    1.1427 C   0  0  0  0  0  0  0  0  0  0  0  0
    4.0917    0.3074    2.1057 C   0  0  0  0  0  0  0  0  0  0  0  0
    5.7924    0.6394    1.8701 S   0  0  0  0  0  0  0  0  0  0  0  0
    6.1079   -0.1266    0.3247 C   0  0  0  0  0  0  0  0  0  0  0  0
    7.1405    0.1733   -0.4757 C   0  0  0  0  0  0  0  0  0  0  0  0
    8.0397    1.3130   -0.2197 C   0  0  0  0  0  0  0  0  0  0  0  0
    9.4191    1.1232   -0.2400 C   0  0  0  0  0  0  0  0  0  0  0  0
   10.2752    2.1827   -0.0057 C   0  0  0  0  0  0  0  0  0  0  0  0
    9.7665    3.4475    0.2386 C   0  0  0  0  0  0  0  0  0  0  0  0
    8.3962    3.6473    0.2473 C   0  0  0  0  0  0  0  0  0  0  0  0
    7.5371    2.5881    0.0219 C   0  0  0  0  0  0  0  0  0  0  0  0
    7.4216   -0.6406   -1.6661 C   0  0  0  0  0  0  0  0  0  0  0  0
    7.9338   -0.0384   -2.8156 C   0  0  0  0  0  0  0  0  0  0  0  0
    8.2023   -0.7895   -3.9436 C   0  0  0  0  0  0  0  0  0  0  0  0
    7.9710   -2.1554   -3.9443 C   0  0  0  0  0  0  0  0  0  0  0  0
    7.4692   -2.7653   -2.8067 C   0  0  0  0  0  0  0  0  0  0  0  0
    7.1968   -2.0167   -1.6772 C   0  0  0  0  0  0  0  0  0  0  0  0
    1.2885   -0.6482    2.5868 C   0  0  0  0  0  0  0  0  0  0  0  0
   -0.0518   -0.9144    2.7476 C   0  0  0  0  0  0  0  0  0  0  0  0
   -7.1965   -0.0863    0.1009 C   0  0  0  0  0  0  0  0  0  0  0  0
   -8.0856   -1.1292    0.6349 C   0  0  0  0  0  0  0  0  0  0  0  0
   -8.9503   -1.7995   -0.2298 C   0  0  0  0  0  0  0  0  0  0  0  0
   -9.7787   -2.7990    0.2420 C   0  0  0  0  0  0  0  0  0  0  0  0
   -9.7656   -3.1382    1.5854 C   0  0  0  0  0  0  0  0  0  0  0  0
   -8.9208   -2.4686    2.4538 C   0  0  0  0  0  0  0  0  0  0  0  0
   -8.0853   -1.4717    1.9839 C   0  0  0  0  0  0  0  0  0  0  0  0
   -7.7893    0.8755   -0.8419 C   0  0  0  0  0  0  0  0  0  0  0  0
   -9.0922    1.3284   -0.6355 C   0  0  0  0  0  0  0  0  0  0  0  0
   -9.6645    2.2432   -1.4982 C   0  0  0  0  0  0  0  0  0  0  0  0
   -8.9504    2.7173   -2.5864 C   0  0  0  0  0  0  0  0  0  0  0  0
   -7.6592    2.2678   -2.8064 C   0  0  0  0  0  0  0  0  0  0  0  0
   -7.0823    1.3558   -1.9425 C   0  0  0  0  0  0  0  0  0  0  0  0
   -5.2855    0.8056    0.0284 H   0  0  0  0  0  0  0  0  0  0  0  0
   -3.2568   -0.0192    0.2718 H   0  0  0  0  0  0  0  0  0  0  0  0
   -2.5891   -1.5681    2.8305 H   0  0  0  0  0  0  0  0  0  0  0  0
   -1.1344   -0.1285   -0.3558 H   0  0  0  0  0  0  0  0  0  0  0  0
    1.2427    0.3249   -0.6458 H   0  0  0  0  0  0  0  0  0  0  0  0
    3.4890    0.1757    0.1051 H   0  0  0  0  0  0  0  0  0  0  0  0
    3.8316    0.3360    3.1517 H   0  0  0  0  0  0  0  0  0  0  0  0
    5.4365   -0.9423    0.1050 H   0  0  0  0  0  0  0  0  0  0  0  0
    9.8150    0.1360   -0.4321 H   0  0  0  0  0  0  0  0  0  0  0  0
   11.3435    2.0219   -0.0164 H   0  0  0  0  0  0  0  0  0  0  0  0
   10.4361    4.2757    0.4180 H   0  0  0  0  0  0  0  0  0  0  0  0
    7.9945    4.6337    0.4279 H   0  0  0  0  0  0  0  0  0  0  0  0
    6.4694    2.7508    0.0170 H   0  0  0  0  0  0  0  0  0  0  0  0
    8.1114    1.0274   -2.8210 H   0  0  0  0  0  0  0  0  0  0  0  0
    8.5954   -0.3076   -4.8270 H   0  0  0  0  0  0  0  0  0  0  0  0
    8.1859   -2.7424   -4.8248 H   0  0  0  0  0  0  0  0  0  0  0  0
    7.2958   -3.8317   -2.7970 H   0  0  0  0  0  0  0  0  0  0  0  0
    6.8311   -2.5061   -0.7864 H   0  0  0  0  0  0  0  0  0  0  0  0
    1.9653   -0.8203    3.4100 H   0  0  0  0  0  0  0  0  0  0  0  0
   -0.4131   -1.2789    3.6988 H   0  0  0  0  0  0  0  0  0  0  0  0
   -8.9585   -1.5382   -1.2785 H   0  0  0  0  0  0  0  0  0  0  0  0
  -10.4379   -3.3162   -0.4401 H   0  0  0  0  0  0  0  0  0  0  0  0
  -10.4148   -3.9190    1.9535 H   0  0  0  0  0  0  0  0  0  0  0  0
   -8.9133   -2.7218    3.5039 H   0  0  0  0  0  0  0  0  0  0  0  0
   -7.4457   -0.9385    2.6709 H   0  0  0  0  0  0  0  0  0  0  0  0
   -9.6499    0.9649    0.2155 H   0  0  0  0  0  0  0  0  0  0  0  0
  -10.6727    2.5886   -1.3211 H   0  0  0  0  0  0  0  0  0  0  0  0
   -9.3993    3.4302   -3.2620 H   0  0  0  0  0  0  0  0  0  0  0  0
   -7.1004    2.6264   -3.6588 H   0  0  0  0  0  0  0  0  0  0  0  0
   -6.0831    0.9935   -2.1361 H   0  0  0  0  0  0  0  0  0  0  0  0
  1  2  1  0  0  0  0
  2  3  1  0  0  0  0
  3  4  2  0  0  0  0
  4  5  1  0  0  0  0
  5  6  2  0  0  0  0
  6  7  1  0  0  0  0
  7  8  2  0  0  0  0
  8  9  1  0  0  0  0
  9 10  2  0  0  0  0
 10 11  1  0  0  0  0
 11 12  1  0  0  0  0
 12 13  2  0  0  0  0
 13 14  1  0  0  0  0
 14 15  2  0  0  0  0
 15 16  1  0  0  0  0
 16 17  2  0  0  0  0
 17 18  1  0  0  0  0
 18 19  2  0  0  0  0
 13 20  1  0  0  0  0
 20 21  2  0  0  0  0
 21 22  1  0  0  0  0
 22 23  2  0  0  0  0
 23 24  1  0  0  0  0
 24 25  2  0  0  0  0
  8 26  1  0  0  0  0
 26 27  2  0  0  0  0
  1 28  2  0  0  0  0
 28 29  1  0  0  0  0
 29 30  2  0  0  0  0
 30 31  1  0  0  0  0
 31 32  2  0  0  0  0
 32 33  1  0  0  0  0
 33 34  2  0  0  0  0
 28 35  1  0  0  0  0
 35 36  2  0  0  0  0
 36 37  1  0  0  0  0
 37 38  2  0  0  0  0
 38 39  1  0  0  0  0
 39 40  2  0  0  0  0
 27  5  1  0  0  0  0
 34 29  1  0  0  0  0
 40 35  1  0  0  0  0
 19 14  1  0  0  0  0
 25 20  1  0  0  0  0
  1 41  1  0  0  0  0
  3 42  1  0  0  0  0
  4 43  1  0  0  0  0
  6 44  1  0  0  0  0
  7 45  1  0  0  0  0
  9 46  1  0  0  0  0
 10 47  1  0  0  0  0
 12 48  1  0  0  0  0
 15 49  1  0  0  0  0
 16 50  1  0  0  0  0
 17 51  1  0  0  0  0
 18 52  1  0  0  0  0
 19 53  1  0  0  0  0
 21 54  1  0  0  0  0
 22 55  1  0  0  0  0
 23 56  1  0  0  0  0
 24 57  1  0  0  0  0
 25 58  1  0  0  0  0
 26 59  1  0  0  0  0
 27 60  1  0  0  0  0
 30 61  1  0  0  0  0
 31 62  1  0  0  0  0
 32 63  1  0  0  0  0
 33 64  1  0  0  0  0
 34 65  1  0  0  0  0
 36 66  1  0  0  0  0
 37 67  1  0  0  0  0
 38 68  1  0  0  0  0
 39 69  1  0  0  0  0
 40 70  1  0  0  0  0
M  END
