
  xtb     03022215033D
 energy: -135.594968750905 gnorm: 0.000570536019 xtb: 6.4.1 (afa7bdf)
 84 93  0     0  0            999 V2000
   -3.3382    7.3213    4.9931 N   0  0  0  0  0  0  0  0  0  0  0  0
   -2.7822    6.7054    4.2034 C   0  0  0  0  0  0  0  0  0  0  0  0
   -2.1009    5.9295    3.2352 C   0  0  0  0  0  0  0  0  0  0  0  0
   -2.1910    4.5551    3.2621 C   0  0  0  0  0  0  0  0  0  0  0  0
   -1.5129    3.7894    2.3011 C   0  0  0  0  0  0  0  0  0  0  0  0
   -1.6137    2.4351    2.3448 N   0  0  0  0  0  0  0  0  0  0  0  0
   -0.9630    1.7823    1.4305 C   0  0  0  0  0  0  0  0  0  0  0  0
   -0.1785    2.4356    0.4265 C   0  0  0  0  0  0  0  0  0  0  0  0
   -0.0644    3.7268    0.3588 N   0  0  0  0  0  0  0  0  0  0  0  0
   -0.7354    4.4388    1.3020 C   0  0  0  0  0  0  0  0  0  0  0  0
   -0.6536    5.8397    1.2862 C   0  0  0  0  0  0  0  0  0  0  0  0
   -1.3236    6.5789    2.2364 C   0  0  0  0  0  0  0  0  0  0  0  0
   -1.2426    7.9920    2.2256 C   0  0  0  0  0  0  0  0  0  0  0  0
   -1.1703    9.1349    2.2055 N   0  0  0  0  0  0  0  0  0  0  0  0
    0.4845    1.4835   -0.5229 C   0  0  0  0  0  0  0  0  0  0  0  0
   -0.6528    0.6545   -1.0747 C   0  0  0  0  0  0  0  0  0  0  0  0
   -0.9709    0.4962   -2.4093 C   0  0  0  0  0  0  0  0  0  0  0  0
   -2.0583   -0.2822   -2.7636 C   0  0  0  0  0  0  0  0  0  0  0  0
   -2.8355   -0.9129   -1.7903 C   0  0  0  0  0  0  0  0  0  0  0  0
   -3.9380   -1.6844   -2.1528 N   0  0  0  0  0  0  0  0  0  0  0  0
   -3.9154   -2.4408   -3.3325 C   0  0  0  0  0  0  0  0  0  0  0  0
   -2.7512   -3.0978   -3.7289 C   0  0  0  0  0  0  0  0  0  0  0  0
   -2.7361   -3.8443   -4.8912 C   0  0  0  0  0  0  0  0  0  0  0  0
   -3.8769   -3.9552   -5.6691 C   0  0  0  0  0  0  0  0  0  0  0  0
   -5.0368   -3.3073   -5.2772 C   0  0  0  0  0  0  0  0  0  0  0  0
   -5.0596   -2.5515   -4.1212 C   0  0  0  0  0  0  0  0  0  0  0  0
   -5.0849   -1.6926   -1.3463 C   0  0  0  0  0  0  0  0  0  0  0  0
   -5.8138   -2.8678   -1.1698 C   0  0  0  0  0  0  0  0  0  0  0  0
   -6.9482   -2.8702   -0.3812 C   0  0  0  0  0  0  0  0  0  0  0  0
   -7.3679   -1.7100    0.2485 C   0  0  0  0  0  0  0  0  0  0  0  0
   -6.6451   -0.5406    0.0788 C   0  0  0  0  0  0  0  0  0  0  0  0
   -5.5148   -0.5260   -0.7152 C   0  0  0  0  0  0  0  0  0  0  0  0
   -2.5015   -0.7577   -0.4402 C   0  0  0  0  0  0  0  0  0  0  0  0
   -1.4213    0.0219   -0.0966 C   0  0  0  0  0  0  0  0  0  0  0  0
   -0.9514    0.2882    1.3157 C   0  0  0  0  0  0  0  0  0  0  0  0
    0.5155   -0.0757    1.3490 C   0  0  0  0  0  0  0  0  0  0  0  0
    1.1197   -0.9371    2.2435 C   0  0  0  0  0  0  0  0  0  0  0  0
    2.4791   -1.1757    2.1482 C   0  0  0  0  0  0  0  0  0  0  0  0
    3.2503   -0.5465    1.1690 C   0  0  0  0  0  0  0  0  0  0  0  0
    4.6202   -0.7893    1.0815 N   0  0  0  0  0  0  0  0  0  0  0  0
    5.2503   -0.8237   -0.1698 C   0  0  0  0  0  0  0  0  0  0  0  0
    6.5338   -0.3029   -0.3282 C   0  0  0  0  0  0  0  0  0  0  0  0
    7.1546   -0.3466   -1.5616 C   0  0  0  0  0  0  0  0  0  0  0  0
    6.5069   -0.8989   -2.6544 C   0  0  0  0  0  0  0  0  0  0  0  0
    5.2300   -1.4142   -2.5028 C   0  0  0  0  0  0  0  0  0  0  0  0
    4.6043   -1.3835   -1.2716 C   0  0  0  0  0  0  0  0  0  0  0  0
    5.3748   -0.9981    2.2444 C   0  0  0  0  0  0  0  0  0  0  0  0
    5.1106   -0.2640    3.4000 C   0  0  0  0  0  0  0  0  0  0  0  0
    5.8594   -0.4721    4.5420 C   0  0  0  0  0  0  0  0  0  0  0  0
    6.8843   -1.4040    4.5489 C   0  0  0  0  0  0  0  0  0  0  0  0
    7.1530   -2.1328    3.4020 C   0  0  0  0  0  0  0  0  0  0  0  0
    6.4041   -1.9381    2.2576 C   0  0  0  0  0  0  0  0  0  0  0  0
    2.6349    0.3353    0.2740 C   0  0  0  0  0  0  0  0  0  0  0  0
    1.2801    0.5567    0.3678 C   0  0  0  0  0  0  0  0  0  0  0  0
   -2.7769    4.0484    4.0136 H   0  0  0  0  0  0  0  0  0  0  0  0
   -0.0601    6.3187    0.5227 H   0  0  0  0  0  0  0  0  0  0  0  0
    1.0780    1.9869   -1.2835 H   0  0  0  0  0  0  0  0  0  0  0  0
   -0.3848    0.9861   -3.1722 H   0  0  0  0  0  0  0  0  0  0  0  0
   -2.3205   -0.3976   -3.8044 H   0  0  0  0  0  0  0  0  0  0  0  0
   -1.8637   -3.0213   -3.1177 H   0  0  0  0  0  0  0  0  0  0  0  0
   -1.8288   -4.3505   -5.1862 H   0  0  0  0  0  0  0  0  0  0  0  0
   -3.8622   -4.5430   -6.5742 H   0  0  0  0  0  0  0  0  0  0  0  0
   -5.9295   -3.3836   -5.8802 H   0  0  0  0  0  0  0  0  0  0  0  0
   -5.9624   -2.0397   -3.8215 H   0  0  0  0  0  0  0  0  0  0  0  0
   -5.4834   -3.7754   -1.6535 H   0  0  0  0  0  0  0  0  0  0  0  0
   -7.5036   -3.7874   -0.2517 H   0  0  0  0  0  0  0  0  0  0  0  0
   -8.2527   -1.7166    0.8664 H   0  0  0  0  0  0  0  0  0  0  0  0
   -6.9682    0.3704    0.5605 H   0  0  0  0  0  0  0  0  0  0  0  0
   -4.9597    0.3902   -0.8561 H   0  0  0  0  0  0  0  0  0  0  0  0
   -3.0901   -1.2481    0.3207 H   0  0  0  0  0  0  0  0  0  0  0  0
   -1.5490   -0.2009    2.0824 H   0  0  0  0  0  0  0  0  0  0  0  0
    0.5359   -1.4308    3.0058 H   0  0  0  0  0  0  0  0  0  0  0  0
    2.9546   -1.8591    2.8352 H   0  0  0  0  0  0  0  0  0  0  0  0
    7.0372    0.1363    0.5205 H   0  0  0  0  0  0  0  0  0  0  0  0
    8.1485    0.0615   -1.6712 H   0  0  0  0  0  0  0  0  0  0  0  0
    6.9940   -0.9283   -3.6171 H   0  0  0  0  0  0  0  0  0  0  0  0
    4.7196   -1.8526   -3.3477 H   0  0  0  0  0  0  0  0  0  0  0  0
    3.6131   -1.7965   -1.1532 H   0  0  0  0  0  0  0  0  0  0  0  0
    4.3193    0.4714    3.3932 H   0  0  0  0  0  0  0  0  0  0  0  0
    5.6465    0.1048    5.4298 H   0  0  0  0  0  0  0  0  0  0  0  0
    7.4700   -1.5605    5.4419 H   0  0  0  0  0  0  0  0  0  0  0  0
    7.9470   -2.8648    3.3997 H   0  0  0  0  0  0  0  0  0  0  0  0
    6.6094   -2.5128    1.3664 H   0  0  0  0  0  0  0  0  0  0  0  0
    3.2234    0.8385   -0.4785 H   0  0  0  0  0  0  0  0  0  0  0  0
  1  2  3  0  0  0  0
  2  3  1  0  0  0  0
  3  4  2  0  0  0  0
  4  5  1  0  0  0  0
  5  6  2  0  0  0  0
  6  7  1  0  0  0  0
  7  8  2  0  0  0  0
  8  9  1  0  0  0  0
  9 10  2  0  0  0  0
 10 11  1  0  0  0  0
 11 12  2  0  0  0  0
 12 13  1  0  0  0  0
 13 14  3  0  0  0  0
  8 15  1  0  0  0  0
 15 16  1  0  0  0  0
 16 17  2  0  0  0  0
 17 18  1  0  0  0  0
 18 19  2  0  0  0  0
 19 20  1  0  0  0  0
 20 21  1  0  0  0  0
 21 22  2  0  0  0  0
 22 23  1  0  0  0  0
 23 24  2  0  0  0  0
 24 25  1  0  0  0  0
 25 26  2  0  0  0  0
 20 27  1  0  0  0  0
 27 28  2  0  0  0  0
 28 29  1  0  0  0  0
 29 30  2  0  0  0  0
 30 31  1  0  0  0  0
 31 32  2  0  0  0  0
 19 33  1  0  0  0  0
 33 34  2  0  0  0  0
 34 35  1  0  0  0  0
 35 36  1  0  0  0  0
 36 37  2  0  0  0  0
 37 38  1  0  0  0  0
 38 39  2  0  0  0  0
 39 40  1  0  0  0  0
 40 41  1  0  0  0  0
 41 42  2  0  0  0  0
 42 43  1  0  0  0  0
 43 44  2  0  0  0  0
 44 45  1  0  0  0  0
 45 46  2  0  0  0  0
 40 47  1  0  0  0  0
 47 48  2  0  0  0  0
 48 49  1  0  0  0  0
 49 50  2  0  0  0  0
 50 51  1  0  0  0  0
 51 52  2  0  0  0  0
 39 53  1  0  0  0  0
 53 54  2  0  0  0  0
 12  3  1  0  0  0  0
 54 15  1  0  0  0  0
 10  5  1  0  0  0  0
 34 16  1  0  0  0  0
 54 36  1  0  0  0  0
 35  7  1  0  0  0  0
 46 41  1  0  0  0  0
 52 47  1  0  0  0  0
 26 21  1  0  0  0  0
 32 27  1  0  0  0  0
  4 55  1  0  0  0  0
 11 56  1  0  0  0  0
 15 57  1  0  0  0  0
 17 58  1  0  0  0  0
 18 59  1  0  0  0  0
 22 60  1  0  0  0  0
 23 61  1  0  0  0  0
 24 62  1  0  0  0  0
 25 63  1  0  0  0  0
 26 64  1  0  0  0  0
 28 65  1  0  0  0  0
 29 66  1  0  0  0  0
 30 67  1  0  0  0  0
 31 68  1  0  0  0  0
 32 69  1  0  0  0  0
 33 70  1  0  0  0  0
 35 71  1  0  0  0  0
 37 72  1  0  0  0  0
 38 73  1  0  0  0  0
 42 74  1  0  0  0  0
 43 75  1  0  0  0  0
 44 76  1  0  0  0  0
 45 77  1  0  0  0  0
 46 78  1  0  0  0  0
 48 79  1  0  0  0  0
 49 80  1  0  0  0  0
 50 81  1  0  0  0  0
 51 82  1  0  0  0  0
 52 83  1  0  0  0  0
 53 84  1  0  0  0  0
M  END
