
  xtb     03022213543D
 energy: -61.966352144123 gnorm: 0.000144150856 xtb: 6.4.1 (afa7bdf)
 35 37  0     0  0            999 V2000
   -6.0603    0.6416    0.5676 C   0  0  0  0  0  0  0  0  0  0  0  0
   -5.1001    0.1000   -0.4261 C   0  0  0  0  0  0  0  0  0  0  0  0
   -5.3862   -0.4816   -1.6127 C   0  0  0  0  0  0  0  0  0  0  0  0
   -3.9497   -0.9691   -2.4552 S   0  0  0  0  0  0  0  0  0  0  0  0
   -2.9993   -0.3565   -1.1462 C   0  0  0  0  0  0  0  0  0  0  0  0
   -3.7536    0.1615   -0.1812 N   0  0  0  0  0  4  0  0  0  0  0  0
   -3.0343    0.7689    1.0877 B   0  0  0  0  0  4  0  0  0  0  0  0
   -3.4565    0.0886    2.2020 F   0  0  0  0  0  0  0  0  0  0  0  0
   -3.3553    2.1000    1.1799 F   0  0  0  0  0  0  0  0  0  0  0  0
   -1.5798    0.6088    0.9176 O   0  0  0  0  0  0  0  0  0  0  0  0
   -1.0218    0.0617   -0.1205 C   0  0  0  0  0  0  0  0  0  0  0  0
    0.4201   -0.0231   -0.1412 C   0  0  0  0  0  0  0  0  0  0  0  0
    1.0918   -0.5943   -1.2284 C   0  0  0  0  0  0  0  0  0  0  0  0
    2.4604   -0.6778   -1.2463 C   0  0  0  0  0  0  0  0  0  0  0  0
    3.2371   -0.1932   -0.1737 C   0  0  0  0  0  0  0  0  0  0  0  0
    4.5946   -0.2778   -0.1883 N   0  0  0  0  0  0  0  0  0  0  0  0
    5.3773    0.2776    0.8892 C   0  0  0  0  0  0  0  0  0  0  0  0
    5.2797   -0.9209   -1.2830 C   0  0  0  0  0  0  0  0  0  0  0  0
    2.5507    0.3818    0.9148 C   0  0  0  0  0  0  0  0  0  0  0  0
    1.1817    0.4631    0.9281 C   0  0  0  0  0  0  0  0  0  0  0  0
   -1.6800   -0.4242   -1.1573 N   0  0  0  0  0  0  0  0  0  0  0  0
   -5.8498    1.6957    0.7397 H   0  0  0  0  0  0  0  0  0  0  0  0
   -7.0804    0.5190    0.2172 H   0  0  0  0  0  0  0  0  0  0  0  0
   -5.9291    0.1274    1.5182 H   0  0  0  0  0  0  0  0  0  0  0  0
   -6.3494   -0.6544   -2.0448 H   0  0  0  0  0  0  0  0  0  0  0  0
    0.5073   -0.9666   -2.0541 H   0  0  0  0  0  0  0  0  0  0  0  0
    2.9377   -1.1197   -2.1049 H   0  0  0  0  0  0  0  0  0  0  0  0
    5.1825   -0.2435    1.8315 H   0  0  0  0  0  0  0  0  0  0  0  0
    5.1579    1.3399    1.0249 H   0  0  0  0  0  0  0  0  0  0  0  0
    6.4351    0.1790    0.6591 H   0  0  0  0  0  0  0  0  0  0  0  0
    6.3457   -0.9586   -1.0733 H   0  0  0  0  0  0  0  0  0  0  0  0
    5.1346   -0.3738   -2.2197 H   0  0  0  0  0  0  0  0  0  0  0  0
    4.9249   -1.9460   -1.4178 H   0  0  0  0  0  0  0  0  0  0  0  0
    3.0966    0.7634    1.7612 H   0  0  0  0  0  0  0  0  0  0  0  0
    0.6702    0.9037    1.7696 H   0  0  0  0  0  0  0  0  0  0  0  0
  1  2  1  0  0  0  0
  2  3  2  0  0  0  0
  3  4  1  0  0  0  0
  4  5  1  0  0  0  0
  5  6  2  0  0  0  0
  6  7  1  0  0  0  0
  7  8  1  0  0  0  0
  7  9  1  0  0  0  0
  7 10  1  0  0  0  0
 10 11  1  0  0  0  0
 11 12  1  0  0  0  0
 12 13  2  0  0  0  0
 13 14  1  0  0  0  0
 14 15  2  0  0  0  0
 15 16  1  0  0  0  0
 16 17  1  0  0  0  0
 16 18  1  0  0  0  0
 15 19  1  0  0  0  0
 19 20  2  0  0  0  0
 11 21  2  0  0  0  0
  6  2  1  0  0  0  0
 20 12  1  0  0  0  0
 21  5  1  0  0  0  0
  1 22  1  0  0  0  0
  1 23  1  0  0  0  0
  1 24  1  0  0  0  0
  3 25  1  0  0  0  0
 13 26  1  0  0  0  0
 14 27  1  0  0  0  0
 17 28  1  0  0  0  0
 17 29  1  0  0  0  0
 17 30  1  0  0  0  0
 18 31  1  0  0  0  0
 18 32  1  0  0  0  0
 18 33  1  0  0  0  0
 19 34  1  0  0  0  0
 20 35  1  0  0  0  0
M  CHG  1   6   1
M  CHG  1   7  -1
M  END
