
  xtb     03022215513D
 energy: -91.803705087206 gnorm: 0.000189801715 xtb: 6.4.1 (afa7bdf)
 62 66  0     0  0            999 V2000
    0.8044    7.9701    0.3416 C   0  0  0  0  0  0  0  0  0  0  0  0
    0.6232    6.4848    0.2658 C   0  0  0  0  0  0  0  0  0  0  0  0
   -0.5124    5.8800    0.7947 C   0  0  0  0  0  0  0  0  0  0  0  0
   -0.6935    4.5159    0.7088 C   0  0  0  0  0  0  0  0  0  0  0  0
    0.2643    3.7081    0.0938 C   0  0  0  0  0  0  0  0  0  0  0  0
    0.0300    2.2611    0.0251 C   0  0  0  0  0  0  0  0  0  0  0  0
    1.0640    1.3379   -0.2148 C   0  0  0  0  0  0  0  0  0  0  0  0
    0.7885   -0.0133   -0.2812 C   0  0  0  0  0  0  0  0  0  0  0  0
    1.9278   -0.9367   -0.4261 C   0  0  0  0  0  0  0  0  0  0  0  0
    2.2210   -1.8749    0.5620 C   0  0  0  0  0  0  0  0  0  0  0  0
    3.3303   -2.6869    0.4693 C   0  0  0  0  0  0  0  0  0  0  0  0
    4.2008   -2.6086   -0.6290 C   0  0  0  0  0  0  0  0  0  0  0  0
    5.2787   -3.4522   -0.7531 N   0  0  0  0  0  0  0  0  0  0  0  0
    5.6440   -4.3137    0.3449 C   0  0  0  0  0  0  0  0  0  0  0  0
    6.2746   -3.1929   -1.7649 C   0  0  0  0  0  0  0  0  0  0  0  0
    3.9060   -1.6519   -1.6118 C   0  0  0  0  0  0  0  0  0  0  0  0
    2.8033   -0.8309   -1.5024 C   0  0  0  0  0  0  0  0  0  0  0  0
   -0.5539   -0.4337   -0.1483 C   0  0  0  0  0  0  0  0  0  0  0  0
   -1.0669   -1.7574   -0.3352 C   0  0  0  0  0  0  0  0  0  0  0  0
   -0.2859   -2.7823   -0.7563 N   0  0  0  0  0  0  0  0  0  0  0  0
   -2.3256   -2.0708   -0.1226 N   0  0  0  0  0  0  0  0  0  0  0  0
   -3.2242   -1.1476    0.2736 C   0  0  0  0  0  0  0  0  0  0  0  0
   -4.4561   -1.6419    0.4970 N   0  0  0  0  0  0  0  0  0  0  0  0
   -5.6409   -0.8835    0.8342 C   0  0  0  0  0  0  0  0  0  0  0  0
   -6.7744   -1.9037    0.7307 C   0  0  0  0  0  0  0  0  0  0  0  0
   -6.0831   -3.2183    1.0835 C   0  0  0  0  0  0  0  0  0  0  0  0
   -4.7248   -3.0635    0.4085 C   0  0  0  0  0  0  0  0  0  0  0  0
   -2.8711    0.2055    0.4006 C   0  0  0  0  0  0  0  0  0  0  0  0
   -3.7417    1.2399    0.7673 C   0  0  0  0  0  0  0  0  0  0  0  0
   -4.4202    2.1140    1.0840 N   0  0  0  0  0  0  0  0  0  0  0  0
   -1.5175    0.5683    0.1606 C   0  0  0  0  0  0  0  0  0  0  0  0
   -1.2080    1.8678    0.2386 N   0  0  0  0  0  0  0  0  0  0  0  0
    1.3968    4.3134   -0.4457 C   0  0  0  0  0  0  0  0  0  0  0  0
    1.5689    5.6816   -0.3591 C   0  0  0  0  0  0  0  0  0  0  0  0
    0.2905    8.4497   -0.4924 H   0  0  0  0  0  0  0  0  0  0  0  0
    1.8572    8.2385    0.2888 H   0  0  0  0  0  0  0  0  0  0  0  0
    0.3838    8.3642    1.2640 H   0  0  0  0  0  0  0  0  0  0  0  0
   -1.2624    6.4898    1.2782 H   0  0  0  0  0  0  0  0  0  0  0  0
   -1.5773    4.0455    1.1106 H   0  0  0  0  0  0  0  0  0  0  0  0
    2.0883    1.6676   -0.2941 H   0  0  0  0  0  0  0  0  0  0  0  0
    1.5718   -1.9565    1.4217 H   0  0  0  0  0  0  0  0  0  0  0  0
    3.5196   -3.3811    1.2707 H   0  0  0  0  0  0  0  0  0  0  0  0
    5.9160   -3.7486    1.2447 H   0  0  0  0  0  0  0  0  0  0  0  0
    6.4947   -4.9260    0.0546 H   0  0  0  0  0  0  0  0  0  0  0  0
    4.8187   -4.9853    0.5899 H   0  0  0  0  0  0  0  0  0  0  0  0
    7.0730   -3.9264   -1.6825 H   0  0  0  0  0  0  0  0  0  0  0  0
    6.7139   -2.1934   -1.6649 H   0  0  0  0  0  0  0  0  0  0  0  0
    5.8384   -3.2844   -2.7625 H   0  0  0  0  0  0  0  0  0  0  0  0
    4.5438   -1.5357   -2.4721 H   0  0  0  0  0  0  0  0  0  0  0  0
    2.6060   -0.1015   -2.2757 H   0  0  0  0  0  0  0  0  0  0  0  0
    0.6295   -2.6023   -1.1288 H   0  0  0  0  0  0  0  0  0  0  0  0
   -0.7623   -3.6342   -0.9956 H   0  0  0  0  0  0  0  0  0  0  0  0
   -5.5619   -0.4825    1.8521 H   0  0  0  0  0  0  0  0  0  0  0  0
   -5.7779   -0.0427    0.1507 H   0  0  0  0  0  0  0  0  0  0  0  0
   -7.6016   -1.6653    1.3952 H   0  0  0  0  0  0  0  0  0  0  0  0
   -7.1489   -1.9438   -0.2928 H   0  0  0  0  0  0  0  0  0  0  0  0
   -6.6261   -4.0916    0.7288 H   0  0  0  0  0  0  0  0  0  0  0  0
   -5.9585   -3.2966    2.1641 H   0  0  0  0  0  0  0  0  0  0  0  0
   -4.7644   -3.3733   -0.6431 H   0  0  0  0  0  0  0  0  0  0  0  0
   -3.9272   -3.6261    0.8965 H   0  0  0  0  0  0  0  0  0  0  0  0
    2.1443    3.7225   -0.9544 H   0  0  0  0  0  0  0  0  0  0  0  0
    2.4528    6.1353   -0.7863 H   0  0  0  0  0  0  0  0  0  0  0  0
  1  2  1  0  0  0  0
  2  3  2  0  0  0  0
  3  4  1  0  0  0  0
  4  5  2  0  0  0  0
  5  6  1  0  0  0  0
  6  7  2  0  0  0  0
  7  8  1  0  0  0  0
  8  9  1  0  0  0  0
  9 10  2  0  0  0  0
 10 11  1  0  0  0  0
 11 12  2  0  0  0  0
 12 13  1  0  0  0  0
 13 14  1  0  0  0  0
 13 15  1  0  0  0  0
 12 16  1  0  0  0  0
 16 17  2  0  0  0  0
  8 18  2  0  0  0  0
 18 19  1  0  0  0  0
 19 20  1  0  0  0  0
 19 21  2  0  0  0  0
 21 22  1  0  0  0  0
 22 23  1  0  0  0  0
 23 24  1  0  0  0  0
 24 25  1  0  0  0  0
 25 26  1  0  0  0  0
 26 27  1  0  0  0  0
 22 28  2  0  0  0  0
 28 29  1  0  0  0  0
 29 30  3  0  0  0  0
 28 31  1  0  0  0  0
 31 32  2  0  0  0  0
  5 33  1  0  0  0  0
 33 34  2  0  0  0  0
 34  2  1  0  0  0  0
 32  6  1  0  0  0  0
 17  9  1  0  0  0  0
 31 18  1  0  0  0  0
 27 23  1  0  0  0  0
  1 35  1  0  0  0  0
  1 36  1  0  0  0  0
  1 37  1  0  0  0  0
  3 38  1  0  0  0  0
  4 39  1  0  0  0  0
  7 40  1  0  0  0  0
 10 41  1  0  0  0  0
 11 42  1  0  0  0  0
 14 43  1  0  0  0  0
 14 44  1  0  0  0  0
 14 45  1  0  0  0  0
 15 46  1  0  0  0  0
 15 47  1  0  0  0  0
 15 48  1  0  0  0  0
 16 49  1  0  0  0  0
 17 50  1  0  0  0  0
 20 51  1  0  0  0  0
 20 52  1  0  0  0  0
 24 53  1  0  0  0  0
 24 54  1  0  0  0  0
 25 55  1  0  0  0  0
 25 56  1  0  0  0  0
 26 57  1  0  0  0  0
 26 58  1  0  0  0  0
 27 59  1  0  0  0  0
 27 60  1  0  0  0  0
 33 61  1  0  0  0  0
 34 62  1  0  0  0  0
M  END
