
  xtb     03022214123D
 energy: -36.449964137985 gnorm: 0.000282703078 xtb: 6.4.1 (afa7bdf)
 23 24  0     0  0            999 V2000
   -2.5316   -1.5422    0.5285 C   0  0  0  0  0  0  0  0  0  0  0  0
   -1.8027   -0.2975    0.1271 C   0  0  0  0  0  0  0  0  0  0  0  0
   -2.4846    0.8255   -0.1997 C   0  0  0  0  0  0  0  0  0  0  0  0
   -1.8386    2.0558   -0.5967 C   0  0  0  0  0  0  0  0  0  0  0  0
   -2.4017    3.0934   -0.8989 O   0  0  0  0  0  0  0  0  0  0  0  0
   -0.4572    1.9900   -0.6159 N   0  0  0  0  0  0  0  0  0  0  0  0
    0.2907    0.8920   -0.2985 C   0  0  0  0  0  0  0  0  0  0  0  0
    1.6803    0.9502   -0.3511 C   0  0  0  0  0  0  0  0  0  0  0  0
    2.4482   -0.1602   -0.0299 C   0  0  0  0  0  0  0  0  0  0  0  0
    3.8149   -0.1305   -0.1469 N   0  0  0  0  0  0  0  0  0  0  0  0
    1.7974   -1.3441    0.3559 C   0  0  0  0  0  0  0  0  0  0  0  0
    0.4294   -1.4048    0.4110 C   0  0  0  0  0  0  0  0  0  0  0  0
   -0.3659   -0.2963    0.0879 C   0  0  0  0  0  0  0  0  0  0  0  0
   -2.2490   -1.8404    1.5371 H   0  0  0  0  0  0  0  0  0  0  0  0
   -2.2886   -2.3601   -0.1485 H   0  0  0  0  0  0  0  0  0  0  0  0
   -3.6054   -1.3778    0.5031 H   0  0  0  0  0  0  0  0  0  0  0  0
   -3.5632    0.8516   -0.1787 H   0  0  0  0  0  0  0  0  0  0  0  0
    0.0217    2.8379   -0.8944 H   0  0  0  0  0  0  0  0  0  0  0  0
    2.1633    1.8703   -0.6493 H   0  0  0  0  0  0  0  0  0  0  0  0
    4.3353   -0.8482    0.3283 H   0  0  0  0  0  0  0  0  0  0  0  0
    4.2577    0.7718   -0.1909 H   0  0  0  0  0  0  0  0  0  0  0  0
    2.3922   -2.2098    0.6080 H   0  0  0  0  0  0  0  0  0  0  0  0
   -0.0424   -2.3265    0.7124 H   0  0  0  0  0  0  0  0  0  0  0  0
  1  2  1  0  0  0  0
  2  3  2  0  0  0  0
  3  4  1  0  0  0  0
  4  5  2  0  0  0  0
  4  6  1  0  0  0  0
  6  7  1  0  0  0  0
  7  8  2  0  0  0  0
  8  9  1  0  0  0  0
  9 10  1  0  0  0  0
  9 11  2  0  0  0  0
 11 12  1  0  0  0  0
 12 13  2  0  0  0  0
 13  2  1  0  0  0  0
 13  7  1  0  0  0  0
  1 14  1  0  0  0  0
  1 15  1  0  0  0  0
  1 16  1  0  0  0  0
  3 17  1  0  0  0  0
  6 18  1  0  0  0  0
  8 19  1  0  0  0  0
 10 20  1  0  0  0  0
 10 21  1  0  0  0  0
 11 22  1  0  0  0  0
 12 23  1  0  0  0  0
M  END
