
  xtb     03022212293D
 energy: -67.393836167314 gnorm: 0.000381514692 xtb: 6.4.1 (afa7bdf)
 36 37  0     0  0            999 V2000
    5.0744    0.4891    1.3946 C   0  0  0  0  0  0  0  0  0  0  0  0
    4.1611    0.5780    0.1871 C   0  0  0  0  0  0  0  0  0  0  0  0
    2.8330    0.2743    0.6137 O   0  0  0  0  0  0  0  0  0  0  0  0
    1.8964    0.2750   -0.3328 C   0  0  0  0  0  0  0  0  0  0  0  0
    2.1074    0.5162   -1.4990 O   0  0  0  0  0  0  0  0  0  0  0  0
    0.5632   -0.0458    0.1795 C   0  0  0  0  0  0  0  0  0  0  0  0
   -0.5865   -0.1604   -0.5993 C   0  0  0  0  0  0  0  0  0  0  0  0
   -0.6052   -0.0351   -2.0858 C   0  0  0  0  0  0  0  0  0  0  0  0
   -0.5322   -0.9683   -2.8364 O   0  0  0  0  0  0  0  0  0  0  0  0
   -0.7192    1.2376   -2.4514 O   0  0  0  0  0  0  0  0  0  0  0  0
   -0.6642    1.4840   -3.8502 C   0  0  0  0  0  0  0  0  0  0  0  0
   -1.6599   -0.4759    0.2441 C   0  0  0  0  0  0  0  0  0  0  0  0
   -3.0606   -0.6801   -0.1207 C   0  0  0  0  0  0  0  0  0  0  0  0
   -3.9305   -1.0110    0.6519 O   0  0  0  0  0  0  0  0  0  0  0  0
   -3.2716   -0.4460   -1.4222 O   0  0  0  0  0  0  0  0  0  0  0  0
   -4.5992   -0.6426   -1.8814 C   0  0  0  0  0  0  0  0  0  0  0  0
   -1.1410   -0.5515    1.5470 C   0  0  0  0  0  0  0  0  0  0  0  0
   -1.7028   -0.8254    2.7997 C   0  0  0  0  0  0  0  0  0  0  0  0
   -0.8713   -0.8136    3.8888 C   0  0  0  0  0  0  0  0  0  0  0  0
    0.4948   -0.5242    3.6847 C   0  0  0  0  0  0  0  0  0  0  0  0
    1.0203   -0.2684    2.5236 N   0  0  0  0  0  0  0  0  0  0  0  0
    0.2178   -0.2844    1.4789 N   0  0  0  0  0  0  0  0  0  0  0  0
    6.0942    0.7197    1.1007 H   0  0  0  0  0  0  0  0  0  0  0  0
    5.0402   -0.5124    1.8137 H   0  0  0  0  0  0  0  0  0  0  0  0
    4.7526    1.1936    2.1563 H   0  0  0  0  0  0  0  0  0  0  0  0
    4.4547   -0.1335   -0.5931 H   0  0  0  0  0  0  0  0  0  0  0  0
    4.1717    1.5827   -0.2511 H   0  0  0  0  0  0  0  0  0  0  0  0
   -0.8922    2.5384   -3.9835 H   0  0  0  0  0  0  0  0  0  0  0  0
    0.3360    1.2566   -4.2233 H   0  0  0  0  0  0  0  0  0  0  0  0
   -1.3913    0.8596   -4.3732 H   0  0  0  0  0  0  0  0  0  0  0  0
   -5.2825    0.0402   -1.3711 H   0  0  0  0  0  0  0  0  0  0  0  0
   -4.9192   -1.6688   -1.6889 H   0  0  0  0  0  0  0  0  0  0  0  0
   -4.5835   -0.4422   -2.9493 H   0  0  0  0  0  0  0  0  0  0  0  0
   -2.7588   -1.0360    2.8572 H   0  0  0  0  0  0  0  0  0  0  0  0
   -1.2369   -1.0180    4.8813 H   0  0  0  0  0  0  0  0  0  0  0  0
    1.1907   -0.5007    4.5098 H   0  0  0  0  0  0  0  0  0  0  0  0
  1  2  1  0  0  0  0
  2  3  1  0  0  0  0
  3  4  1  0  0  0  0
  4  5  2  0  0  0  0
  4  6  1  0  0  0  0
  6  7  2  0  0  0  0
  7  8  1  0  0  0  0
  8  9  2  0  0  0  0
  8 10  1  0  0  0  0
 10 11  1  0  0  0  0
  7 12  1  0  0  0  0
 12 13  1  0  0  0  0
 13 14  2  0  0  0  0
 13 15  1  0  0  0  0
 15 16  1  0  0  0  0
 12 17  2  0  0  0  0
 17 18  1  0  0  0  0
 18 19  2  0  0  0  0
 19 20  1  0  0  0  0
 20 21  2  0  0  0  0
 21 22  1  0  0  0  0
 22  6  1  0  0  0  0
 22 17  1  0  0  0  0
  1 23  1  0  0  0  0
  1 24  1  0  0  0  0
  1 25  1  0  0  0  0
  2 26  1  0  0  0  0
  2 27  1  0  0  0  0
 11 28  1  0  0  0  0
 11 29  1  0  0  0  0
 11 30  1  0  0  0  0
 16 31  1  0  0  0  0
 16 32  1  0  0  0  0
 16 33  1  0  0  0  0
 18 34  1  0  0  0  0
 19 35  1  0  0  0  0
 20 36  1  0  0  0  0
M  END
