
  xtb     03022215113D
 energy: -171.495378966608 gnorm: 0.000129463293 xtb: 6.4.1 (afa7bdf)
140143  0     0  0            999 V2000
    9.7124    1.5009    5.0577 C   0  0  0  0  0  0  0  0  0  0  0  0
    9.4345    2.6810    4.1337 C   0  0  0  0  0  0  0  0  0  0  0  0
    8.4235    2.3567    3.0334 C   0  0  0  0  0  0  0  0  0  0  0  0
    8.9404    1.3264    2.0304 C   0  0  0  0  0  0  0  0  0  0  0  0
    8.0508    1.1870    0.7942 C   0  0  0  0  0  0  0  0  0  0  0  0
    6.6818    0.5865    1.1059 C   0  0  0  0  0  0  0  0  0  0  0  0
    5.7950    0.4352   -0.1300 C   0  0  0  0  0  0  0  0  0  0  0  0
    6.2880   -0.6201   -1.1193 C   0  0  0  0  0  0  0  0  0  0  0  0
    5.2415   -0.8844   -2.1987 C   0  0  0  0  0  0  0  0  0  0  0  0
    5.6717   -1.9633   -3.1922 C   0  0  0  0  0  0  0  0  0  0  0  0
    4.5106   -2.4530   -4.0583 C   0  0  0  0  0  0  0  0  0  0  0  0
    4.1099   -1.4634   -5.1581 C   0  0  0  0  0  0  0  0  0  0  0  0
    2.8690   -1.8531   -5.7783 N   0  0  0  0  0  0  0  0  0  0  0  0
    2.8077   -2.3818   -7.0269 C   0  0  0  0  0  0  0  0  0  0  0  0
    1.5270   -2.7957   -7.2874 C   0  0  0  0  0  0  0  0  0  0  0  0
    0.7802   -2.5279   -6.1359 C   0  0  0  0  0  0  0  0  0  0  0  0
    1.6227   -1.9404   -5.2025 C   0  0  0  0  0  0  0  0  0  0  0  0
    1.2084   -1.5196   -3.8936 C   0  0  0  0  0  0  0  0  0  0  0  0
    1.8083   -0.6665   -3.0495 C   0  0  0  0  0  0  0  0  0  0  0  0
    1.2617   -0.2398   -1.7714 C   0  0  0  0  0  0  0  0  0  0  0  0
    1.3378    1.1091   -1.4897 C   0  0  0  0  0  0  0  0  0  0  0  0
    0.7222    1.6596   -0.3722 C   0  0  0  0  0  0  0  0  0  0  0  0
   -0.0465    0.8770    0.4575 C   0  0  0  0  0  0  0  0  0  0  0  0
   -0.7032    1.4293    1.5346 O   0  0  0  0  0  0  0  0  0  0  0  0
    0.0510    2.2241    2.4337 C   0  0  0  0  0  0  0  0  0  0  0  0
    0.5552    1.4141    3.6332 C   0  0  0  0  0  0  0  0  0  0  0  0
    1.5698    0.3266    3.2760 C   0  0  0  0  0  0  0  0  0  0  0  0
    2.8599    0.8688    2.6709 C   0  0  0  0  0  0  0  0  0  0  0  0
   -0.1695   -0.5204    0.2103 C   0  0  0  0  0  0  0  0  0  0  0  0
   -0.9725   -1.3564    1.0420 C   0  0  0  0  0  0  0  0  0  0  0  0
   -1.9336   -0.8035    1.9885 C   0  0  0  0  0  0  0  0  0  0  0  0
   -2.1131   -1.2989    3.2217 C   0  0  0  0  0  0  0  0  0  0  0  0
   -3.0348   -0.8979    4.2491 C   0  0  0  0  0  0  0  0  0  0  0  0
   -3.3850   -1.6767    5.3428 C   0  0  0  0  0  0  0  0  0  0  0  0
   -4.3042   -0.9543    6.1111 C   0  0  0  0  0  0  0  0  0  0  0  0
   -4.4796    0.2509    5.4815 C   0  0  0  0  0  0  0  0  0  0  0  0
   -3.7145    0.2885    4.3615 N   0  0  0  0  0  0  0  0  0  0  0  0
   -3.6374    1.4373    3.4996 C   0  0  0  0  0  0  0  0  0  0  0  0
   -4.7006    1.4022    2.3952 C   0  0  0  0  0  0  0  0  0  0  0  0
   -4.4569    2.5006    1.3632 C   0  0  0  0  0  0  0  0  0  0  0  0
   -5.3806    2.3970    0.1497 C   0  0  0  0  0  0  0  0  0  0  0  0
   -6.8510    2.6315    0.4925 C   0  0  0  0  0  0  0  0  0  0  0  0
   -7.7445    2.7636   -0.7418 C   0  0  0  0  0  0  0  0  0  0  0  0
   -7.8655    1.4636   -1.5346 C   0  0  0  0  0  0  0  0  0  0  0  0
   -8.7848    1.5828   -2.7512 C   0  0  0  0  0  0  0  0  0  0  0  0
  -10.2620    1.7246   -2.3903 C   0  0  0  0  0  0  0  0  0  0  0  0
  -11.1498    1.7357   -3.6323 C   0  0  0  0  0  0  0  0  0  0  0  0
  -12.6291    1.8782   -3.2825 C   0  0  0  0  0  0  0  0  0  0  0  0
  -13.5088    1.8827   -4.5266 C   0  0  0  0  0  0  0  0  0  0  0  0
   -0.8641   -2.7200    0.9022 C   0  0  0  0  0  0  0  0  0  0  0  0
    0.0314   -3.2961    0.0048 C   0  0  0  0  0  0  0  0  0  0  0  0
    0.7737   -2.5182   -0.8528 C   0  0  0  0  0  0  0  0  0  0  0  0
    1.7229   -2.9985   -1.7066 O   0  0  0  0  0  0  0  0  0  0  0  0
    2.1714   -4.3364   -1.6518 C   0  0  0  0  0  0  0  0  0  0  0  0
    3.4536   -4.5178   -0.8295 C   0  0  0  0  0  0  0  0  0  0  0  0
    3.3085   -4.2690    0.6766 C   0  0  0  0  0  0  0  0  0  0  0  0
    3.5139   -2.8090    1.0663 C   0  0  0  0  0  0  0  0  0  0  0  0
    0.6043   -1.0966   -0.8383 C   0  0  0  0  0  0  0  0  0  0  0  0
    8.7851    1.1295    5.4889 H   0  0  0  0  0  0  0  0  0  0  0  0
   10.3706    1.8032    5.8693 H   0  0  0  0  0  0  0  0  0  0  0  0
   10.1916    0.6882    4.5184 H   0  0  0  0  0  0  0  0  0  0  0  0
    9.0463    3.5111    4.7293 H   0  0  0  0  0  0  0  0  0  0  0  0
   10.3707    3.0124    3.6781 H   0  0  0  0  0  0  0  0  0  0  0  0
    7.5040    1.9942    3.4962 H   0  0  0  0  0  0  0  0  0  0  0  0
    8.1851    3.2787    2.4966 H   0  0  0  0  0  0  0  0  0  0  0  0
    9.0271    0.3517    2.5136 H   0  0  0  0  0  0  0  0  0  0  0  0
    9.9402    1.6274    1.7065 H   0  0  0  0  0  0  0  0  0  0  0  0
    8.5647    0.5497    0.0720 H   0  0  0  0  0  0  0  0  0  0  0  0
    7.9159    2.1688    0.3336 H   0  0  0  0  0  0  0  0  0  0  0  0
    6.8158   -0.3913    1.5754 H   0  0  0  0  0  0  0  0  0  0  0  0
    6.1629    1.2282    1.8199 H   0  0  0  0  0  0  0  0  0  0  0  0
    4.7895    0.1575    0.1964 H   0  0  0  0  0  0  0  0  0  0  0  0
    5.7184    1.3993   -0.6380 H   0  0  0  0  0  0  0  0  0  0  0  0
    7.2185   -0.2938   -1.5873 H   0  0  0  0  0  0  0  0  0  0  0  0
    6.4962   -1.5490   -0.5817 H   0  0  0  0  0  0  0  0  0  0  0  0
    4.3120   -1.1973   -1.7182 H   0  0  0  0  0  0  0  0  0  0  0  0
    5.0446    0.0512   -2.7257 H   0  0  0  0  0  0  0  0  0  0  0  0
    6.0654   -2.8152   -2.6319 H   0  0  0  0  0  0  0  0  0  0  0  0
    6.4802   -1.5898   -3.8253 H   0  0  0  0  0  0  0  0  0  0  0  0
    4.7772   -3.4014   -4.5314 H   0  0  0  0  0  0  0  0  0  0  0  0
    3.6436   -2.6257   -3.4203 H   0  0  0  0  0  0  0  0  0  0  0  0
    4.0251   -0.4528   -4.7542 H   0  0  0  0  0  0  0  0  0  0  0  0
    4.8781   -1.4430   -5.9368 H   0  0  0  0  0  0  0  0  0  0  0  0
    3.6813   -2.4246   -7.6491 H   0  0  0  0  0  0  0  0  0  0  0  0
    1.1737   -3.2398   -8.1972 H   0  0  0  0  0  0  0  0  0  0  0  0
   -0.2651   -2.7207   -5.9913 H   0  0  0  0  0  0  0  0  0  0  0  0
    0.2581   -1.9464   -3.5970 H   0  0  0  0  0  0  0  0  0  0  0  0
    2.6880   -0.1235   -3.3553 H   0  0  0  0  0  0  0  0  0  0  0  0
    1.8631    1.7633   -2.1708 H   0  0  0  0  0  0  0  0  0  0  0  0
    0.8170    2.7197   -0.1855 H   0  0  0  0  0  0  0  0  0  0  0  0
   -0.6314    3.0052    2.7875 H   0  0  0  0  0  0  0  0  0  0  0  0
    0.8925    2.7069    1.9307 H   0  0  0  0  0  0  0  0  0  0  0  0
    1.0042    2.1155    4.3405 H   0  0  0  0  0  0  0  0  0  0  0  0
   -0.3029    0.9435    4.1174 H   0  0  0  0  0  0  0  0  0  0  0  0
    1.8094   -0.2183    4.1923 H   0  0  0  0  0  0  0  0  0  0  0  0
    1.1133   -0.3830    2.5847 H   0  0  0  0  0  0  0  0  0  0  0  0
    2.6874    1.2804    1.6791 H   0  0  0  0  0  0  0  0  0  0  0  0
    3.2823    1.6477    3.3032 H   0  0  0  0  0  0  0  0  0  0  0  0
    3.5912    0.0697    2.5757 H   0  0  0  0  0  0  0  0  0  0  0  0
   -2.5190    0.0161    1.6115 H   0  0  0  0  0  0  0  0  0  0  0  0
   -1.4957   -2.1370    3.5263 H   0  0  0  0  0  0  0  0  0  0  0  0
   -3.0205   -2.6655    5.5440 H   0  0  0  0  0  0  0  0  0  0  0  0
   -4.7775   -1.2740    7.0187 H   0  0  0  0  0  0  0  0  0  0  0  0
   -5.0860    1.0912    5.7605 H   0  0  0  0  0  0  0  0  0  0  0  0
   -2.6411    1.4807    3.0573 H   0  0  0  0  0  0  0  0  0  0  0  0
   -3.7798    2.3344    4.1114 H   0  0  0  0  0  0  0  0  0  0  0  0
   -4.6735    0.4271    1.9041 H   0  0  0  0  0  0  0  0  0  0  0  0
   -5.6870    1.5160    2.8475 H   0  0  0  0  0  0  0  0  0  0  0  0
   -4.5835    3.4780    1.8357 H   0  0  0  0  0  0  0  0  0  0  0  0
   -3.4214    2.4317    1.0194 H   0  0  0  0  0  0  0  0  0  0  0  0
   -5.0696    3.1409   -0.5880 H   0  0  0  0  0  0  0  0  0  0  0  0
   -5.2575    1.4112   -0.3014 H   0  0  0  0  0  0  0  0  0  0  0  0
   -7.2221    1.8109    1.1090 H   0  0  0  0  0  0  0  0  0  0  0  0
   -6.9298    3.5510    1.0786 H   0  0  0  0  0  0  0  0  0  0  0  0
   -8.7372    3.0768   -0.4134 H   0  0  0  0  0  0  0  0  0  0  0  0
   -7.3481    3.5465   -1.3931 H   0  0  0  0  0  0  0  0  0  0  0  0
   -8.2389    0.6742   -0.8777 H   0  0  0  0  0  0  0  0  0  0  0  0
   -6.8748    1.1654   -1.8821 H   0  0  0  0  0  0  0  0  0  0  0  0
   -8.4753    2.4403   -3.3536 H   0  0  0  0  0  0  0  0  0  0  0  0
   -8.6636    0.6883   -3.3676 H   0  0  0  0  0  0  0  0  0  0  0  0
  -10.5558    0.8930   -1.7449 H   0  0  0  0  0  0  0  0  0  0  0  0
  -10.4218    2.6494   -1.8332 H   0  0  0  0  0  0  0  0  0  0  0  0
  -11.0006    0.8089   -4.1918 H   0  0  0  0  0  0  0  0  0  0  0  0
  -10.8519    2.5632   -4.2810 H   0  0  0  0  0  0  0  0  0  0  0  0
  -12.7806    2.8072   -2.7277 H   0  0  0  0  0  0  0  0  0  0  0  0
  -12.9262    1.0528   -2.6312 H   0  0  0  0  0  0  0  0  0  0  0  0
  -13.3880    0.9551   -5.0821 H   0  0  0  0  0  0  0  0  0  0  0  0
  -13.2398    2.7094   -5.1807 H   0  0  0  0  0  0  0  0  0  0  0  0
  -14.5570    1.9865   -4.2556 H   0  0  0  0  0  0  0  0  0  0  0  0
   -1.4805   -3.3657    1.5094 H   0  0  0  0  0  0  0  0  0  0  0  0
    0.1146   -4.3713    0.0014 H   0  0  0  0  0  0  0  0  0  0  0  0
    2.3869   -4.5991   -2.6946 H   0  0  0  0  0  0  0  0  0  0  0  0
    1.3950   -5.0174   -1.2949 H   0  0  0  0  0  0  0  0  0  0  0  0
    3.7818   -5.5462   -0.9973 H   0  0  0  0  0  0  0  0  0  0  0  0
    4.2204   -3.8524   -1.2285 H   0  0  0  0  0  0  0  0  0  0  0  0
    4.0540   -4.8724    1.2006 H   0  0  0  0  0  0  0  0  0  0  0  0
    2.3261   -4.6027    1.0145 H   0  0  0  0  0  0  0  0  0  0  0  0
    3.3786   -2.6851    2.1388 H   0  0  0  0  0  0  0  0  0  0  0  0
    2.8058   -2.1594    0.5602 H   0  0  0  0  0  0  0  0  0  0  0  0
    4.5206   -2.4880    0.8077 H   0  0  0  0  0  0  0  0  0  0  0  0
  1  2  1  0  0  0  0
  2  3  1  0  0  0  0
  3  4  1  0  0  0  0
  4  5  1  0  0  0  0
  5  6  1  0  0  0  0
  6  7  1  0  0  0  0
  7  8  1  0  0  0  0
  8  9  1  0  0  0  0
  9 10  1  0  0  0  0
 10 11  1  0  0  0  0
 11 12  1  0  0  0  0
 12 13  1  0  0  0  0
 13 14  1  0  0  0  0
 14 15  2  0  0  0  0
 15 16  1  0  0  0  0
 16 17  2  0  0  0  0
 17 18  1  0  0  0  0
 18 19  2  0  0  0  0
 19 20  1  0  0  0  0
 20 21  2  0  0  0  0
 21 22  1  0  0  0  0
 22 23  2  0  0  0  0
 23 24  1  0  0  0  0
 24 25  1  0  0  0  0
 25 26  1  0  0  0  0
 26 27  1  0  0  0  0
 27 28  1  0  0  0  0
 23 29  1  0  0  0  0
 29 30  2  0  0  0  0
 30 31  1  0  0  0  0
 31 32  2  0  0  0  0
 32 33  1  0  0  0  0
 33 34  2  0  0  0  0
 34 35  1  0  0  0  0
 35 36  2  0  0  0  0
 36 37  1  0  0  0  0
 37 38  1  0  0  0  0
 38 39  1  0  0  0  0
 39 40  1  0  0  0  0
 40 41  1  0  0  0  0
 41 42  1  0  0  0  0
 42 43  1  0  0  0  0
 43 44  1  0  0  0  0
 44 45  1  0  0  0  0
 45 46  1  0  0  0  0
 46 47  1  0  0  0  0
 47 48  1  0  0  0  0
 48 49  1  0  0  0  0
 30 50  1  0  0  0  0
 50 51  2  0  0  0  0
 51 52  1  0  0  0  0
 52 53  1  0  0  0  0
 53 54  1  0  0  0  0
 54 55  1  0  0  0  0
 55 56  1  0  0  0  0
 56 57  1  0  0  0  0
 52 58  2  0  0  0  0
 17 13  1  0  0  0  0
 58 20  1  0  0  0  0
 58 29  1  0  0  0  0
 37 33  1  0  0  0  0
  1 59  1  0  0  0  0
  1 60  1  0  0  0  0
  1 61  1  0  0  0  0
  2 62  1  0  0  0  0
  2 63  1  0  0  0  0
  3 64  1  0  0  0  0
  3 65  1  0  0  0  0
  4 66  1  0  0  0  0
  4 67  1  0  0  0  0
  5 68  1  0  0  0  0
  5 69  1  0  0  0  0
  6 70  1  0  0  0  0
  6 71  1  0  0  0  0
  7 72  1  0  0  0  0
  7 73  1  0  0  0  0
  8 74  1  0  0  0  0
  8 75  1  0  0  0  0
  9 76  1  0  0  0  0
  9 77  1  0  0  0  0
 10 78  1  0  0  0  0
 10 79  1  0  0  0  0
 11 80  1  0  0  0  0
 11 81  1  0  0  0  0
 12 82  1  0  0  0  0
 12 83  1  0  0  0  0
 14 84  1  0  0  0  0
 15 85  1  0  0  0  0
 16 86  1  0  0  0  0
 18 87  1  0  0  0  0
 19 88  1  0  0  0  0
 21 89  1  0  0  0  0
 22 90  1  0  0  0  0
 25 91  1  0  0  0  0
 25 92  1  0  0  0  0
 26 93  1  0  0  0  0
 26 94  1  0  0  0  0
 27 95  1  0  0  0  0
 27 96  1  0  0  0  0
 28 97  1  0  0  0  0
 28 98  1  0  0  0  0
 28 99  1  0  0  0  0
 31100  1  0  0  0  0
 32101  1  0  0  0  0
 34102  1  0  0  0  0
 35103  1  0  0  0  0
 36104  1  0  0  0  0
 38105  1  0  0  0  0
 38106  1  0  0  0  0
 39107  1  0  0  0  0
 39108  1  0  0  0  0
 40109  1  0  0  0  0
 40110  1  0  0  0  0
 41111  1  0  0  0  0
 41112  1  0  0  0  0
 42113  1  0  0  0  0
 42114  1  0  0  0  0
 43115  1  0  0  0  0
 43116  1  0  0  0  0
 44117  1  0  0  0  0
 44118  1  0  0  0  0
 45119  1  0  0  0  0
 45120  1  0  0  0  0
 46121  1  0  0  0  0
 46122  1  0  0  0  0
 47123  1  0  0  0  0
 47124  1  0  0  0  0
 48125  1  0  0  0  0
 48126  1  0  0  0  0
 49127  1  0  0  0  0
 49128  1  0  0  0  0
 49129  1  0  0  0  0
 50130  1  0  0  0  0
 51131  1  0  0  0  0
 54132  1  0  0  0  0
 54133  1  0  0  0  0
 55134  1  0  0  0  0
 55135  1  0  0  0  0
 56136  1  0  0  0  0
 56137  1  0  0  0  0
 57138  1  0  0  0  0
 57139  1  0  0  0  0
 57140  1  0  0  0  0
M  END
