
  xtb     03022214473D
 energy: -88.101123458667 gnorm: 0.000192438902 xtb: 6.4.1 (afa7bdf)
 49 52  0     0  0            999 V2000
    4.5755   -7.3320   -1.4840 O   0  0  0  0  0  0  0  0  0  0  0  0
    5.0977   -6.2527   -1.2870 N   0  0  0  0  0  4  0  0  0  0  0  0
    6.2967   -6.0625   -1.2620 O   0  0  0  0  0  1  0  0  0  0  0  0
    4.2371   -5.1246   -1.0694 C   0  0  0  0  0  0  0  0  0  0  0  0
    4.7915   -3.8668   -0.8422 C   0  0  0  0  0  0  0  0  0  0  0  0
    3.9601   -2.7919   -0.6330 C   0  0  0  0  0  0  0  0  0  0  0  0
    2.5678   -2.9534   -0.6465 C   0  0  0  0  0  0  0  0  0  0  0  0
    1.7444   -1.7933   -0.4160 C   0  0  0  0  0  0  0  0  0  0  0  0
    2.2139   -0.5814   -0.2037 N   0  0  0  0  0  0  0  0  0  0  0  0
    1.1512    0.2392   -0.0341 C   0  0  0  0  0  0  0  0  0  0  0  0
    1.3608    1.6426    0.1865 C   0  0  0  0  0  0  0  0  0  0  0  0
    0.4731    2.6160   -0.0718 C   0  0  0  0  0  0  0  0  0  0  0  0
    0.6672    4.0342    0.1533 C   0  0  0  0  0  0  0  0  0  0  0  0
    1.7806    4.5611    0.8151 C   0  0  0  0  0  0  0  0  0  0  0  0
    1.9176    5.9200    1.0090 C   0  0  0  0  0  0  0  0  0  0  0  0
    0.9362    6.7827    0.5428 C   0  0  0  0  0  0  0  0  0  0  0  0
    1.1059    8.4846    0.7857 Cl  0  0  0  0  0  0  0  0  0  0  0  0
   -0.1810    6.2893   -0.1134 C   0  0  0  0  0  0  0  0  0  0  0  0
   -0.3083    4.9283   -0.3005 C   0  0  0  0  0  0  0  0  0  0  0  0
   -0.0358   -0.5105   -0.1264 C   0  0  0  0  0  0  0  0  0  0  0  0
   -1.3934   -0.1324    0.0853 C   0  0  0  0  0  0  0  0  0  0  0  0
   -2.4667   -0.8850   -0.2270 C   0  0  0  0  0  0  0  0  0  0  0  0
   -3.8509   -0.5358    0.0035 C   0  0  0  0  0  0  0  0  0  0  0  0
   -4.2494    0.6274    0.6715 C   0  0  0  0  0  0  0  0  0  0  0  0
   -5.5837    0.9161    0.8661 C   0  0  0  0  0  0  0  0  0  0  0  0
   -6.5529    0.0418    0.3950 C   0  0  0  0  0  0  0  0  0  0  0  0
   -8.2236    0.4024    0.6394 Cl  0  0  0  0  0  0  0  0  0  0  0  0
   -6.1885   -1.1202   -0.2685 C   0  0  0  0  0  0  0  0  0  0  0  0
   -4.8512   -1.3995   -0.4577 C   0  0  0  0  0  0  0  0  0  0  0  0
    0.3791   -1.7890   -0.3820 N   0  0  0  0  0  0  0  0  0  0  0  0
    2.0286   -4.2245   -0.8783 C   0  0  0  0  0  0  0  0  0  0  0  0
    2.8574   -5.3040   -1.0885 C   0  0  0  0  0  0  0  0  0  0  0  0
    5.8654   -3.7604   -0.8346 H   0  0  0  0  0  0  0  0  0  0  0  0
    4.3531   -1.8044   -0.4545 H   0  0  0  0  0  0  0  0  0  0  0  0
    2.3544    1.8760    0.5405 H   0  0  0  0  0  0  0  0  0  0  0  0
   -0.4762    2.3572   -0.5221 H   0  0  0  0  0  0  0  0  0  0  0  0
    2.5477    3.9016    1.1884 H   0  0  0  0  0  0  0  0  0  0  0  0
    2.7807    6.3154    1.5214 H   0  0  0  0  0  0  0  0  0  0  0  0
   -0.9403    6.9671   -0.4711 H   0  0  0  0  0  0  0  0  0  0  0  0
   -1.1793    4.5458   -0.8134 H   0  0  0  0  0  0  0  0  0  0  0  0
   -1.5232    0.8351    0.5449 H   0  0  0  0  0  0  0  0  0  0  0  0
   -2.3219   -1.8379   -0.7221 H   0  0  0  0  0  0  0  0  0  0  0  0
   -3.5101    1.3154    1.0502 H   0  0  0  0  0  0  0  0  0  0  0  0
   -5.8781    1.8158    1.3834 H   0  0  0  0  0  0  0  0  0  0  0  0
   -6.9475   -1.7957   -0.6305 H   0  0  0  0  0  0  0  0  0  0  0  0
   -4.5717   -2.3055   -0.9763 H   0  0  0  0  0  0  0  0  0  0  0  0
   -0.2298   -2.5838   -0.4785 H   0  0  0  0  0  0  0  0  0  0  0  0
    0.9598   -4.3761   -0.8961 H   0  0  0  0  0  0  0  0  0  0  0  0
    2.4599   -6.2913   -1.2681 H   0  0  0  0  0  0  0  0  0  0  0  0
  1  2  2  0  0  0  0
  2  3  1  0  0  0  0
  2  4  1  0  0  0  0
  4  5  2  0  0  0  0
  5  6  1  0  0  0  0
  6  7  2  0  0  0  0
  7  8  1  0  0  0  0
  8  9  2  0  0  0  0
  9 10  1  0  0  0  0
 10 11  1  0  0  0  0
 11 12  2  0  0  0  0
 12 13  1  0  0  0  0
 13 14  2  0  0  0  0
 14 15  1  0  0  0  0
 15 16  2  0  0  0  0
 16 17  1  0  0  0  0
 16 18  1  0  0  0  0
 18 19  2  0  0  0  0
 10 20  2  0  0  0  0
 20 21  1  0  0  0  0
 21 22  2  0  0  0  0
 22 23  1  0  0  0  0
 23 24  2  0  0  0  0
 24 25  1  0  0  0  0
 25 26  2  0  0  0  0
 26 27  1  0  0  0  0
 26 28  1  0  0  0  0
 28 29  2  0  0  0  0
 20 30  1  0  0  0  0
  7 31  1  0  0  0  0
 31 32  2  0  0  0  0
 32  4  1  0  0  0  0
 30  8  1  0  0  0  0
 19 13  1  0  0  0  0
 29 23  1  0  0  0  0
  5 33  1  0  0  0  0
  6 34  1  0  0  0  0
 11 35  1  0  0  0  0
 12 36  1  0  0  0  0
 14 37  1  0  0  0  0
 15 38  1  0  0  0  0
 18 39  1  0  0  0  0
 19 40  1  0  0  0  0
 21 41  1  0  0  0  0
 22 42  1  0  0  0  0
 24 43  1  0  0  0  0
 25 44  1  0  0  0  0
 28 45  1  0  0  0  0
 29 46  1  0  0  0  0
 30 47  1  0  0  0  0
 31 48  1  0  0  0  0
 32 49  1  0  0  0  0
M  CHG  1   2   1
M  CHG  1   3  -1
M  END
