
  xtb     03022215573D
 energy: -28.138777453852 gnorm: 0.000241459623 xtb: 6.4.1 (afa7bdf)
 17 18  0     0  0            999 V2000
    4.5917   -0.6250    0.4649 N   0  0  0  0  0  0  0  0  0  0  0  0
    3.4644   -0.4309    0.3642 C   0  0  0  0  0  0  0  0  0  0  0  0
    2.0910   -0.1888    0.2416 C   0  0  0  0  0  0  0  0  0  0  0  0
    1.4009    0.9743    0.4974 C   0  0  0  0  0  0  0  0  0  0  0  0
    0.0372    0.7104    0.2218 C   0  0  0  0  0  0  0  0  0  0  0  0
   -1.1278    1.4803    0.2900 C   0  0  0  0  0  0  0  0  0  0  0  0
   -2.3205    0.8943   -0.0590 C   0  0  0  0  0  0  0  0  0  0  0  0
   -2.3846   -0.4414   -0.4755 C   0  0  0  0  0  0  0  0  0  0  0  0
   -1.2559   -1.2257   -0.5533 C   0  0  0  0  0  0  0  0  0  0  0  0
   -0.0438   -0.6413   -0.2019 C   0  0  0  0  0  0  0  0  0  0  0  0
    1.2132   -1.1626   -0.1809 N   0  0  0  0  0  0  0  0  0  0  0  0
    1.8256    1.8971    0.8395 H   0  0  0  0  0  0  0  0  0  0  0  0
   -1.0818    2.5100    0.6105 H   0  0  0  0  0  0  0  0  0  0  0  0
   -3.2335    1.4693   -0.0141 H   0  0  0  0  0  0  0  0  0  0  0  0
   -3.3431   -0.8619   -0.7406 H   0  0  0  0  0  0  0  0  0  0  0  0
   -1.3055   -2.2555   -0.8744 H   0  0  0  0  0  0  0  0  0  0  0  0
    1.4719   -2.1024   -0.4304 H   0  0  0  0  0  0  0  0  0  0  0  0
  1  2  3  0  0  0  0
  2  3  1  0  0  0  0
  3  4  2  0  0  0  0
  4  5  1  0  0  0  0
  5  6  2  0  0  0  0
  6  7  1  0  0  0  0
  7  8  2  0  0  0  0
  8  9  1  0  0  0  0
  9 10  2  0  0  0  0
 10 11  1  0  0  0  0
 11  3  1  0  0  0  0
 10  5  1  0  0  0  0
  4 12  1  0  0  0  0
  6 13  1  0  0  0  0
  7 14  1  0  0  0  0
  8 15  1  0  0  0  0
  9 16  1  0  0  0  0
 11 17  1  0  0  0  0
M  END
