
  xtb     03022212153D
 energy: -25.474386113453 gnorm: 0.000067550247 xtb: 6.4.1 (afa7bdf)
 18 19  0     0  0            999 V2000
   -2.3312    0.9200    0.2002 C   0  0  0  0  0  0  0  0  0  0  0  0
   -2.4606   -0.4779    0.1960 C   0  0  0  0  0  0  0  0  0  0  0  0
   -1.3536   -1.2730    0.0972 C   0  0  0  0  0  0  0  0  0  0  0  0
   -0.0654   -0.7069   -0.0021 C   0  0  0  0  0  0  0  0  0  0  0  0
    1.0972   -1.4991   -0.1055 C   0  0  0  0  0  0  0  0  0  0  0  0
    2.3312   -0.9201   -0.2002 C   0  0  0  0  0  0  0  0  0  0  0  0
    2.4606    0.4779   -0.1960 C   0  0  0  0  0  0  0  0  0  0  0  0
    1.3536    1.2729   -0.0972 C   0  0  0  0  0  0  0  0  0  0  0  0
    0.0654    0.7068    0.0021 C   0  0  0  0  0  0  0  0  0  0  0  0
   -1.0972    1.4991    0.1055 C   0  0  0  0  0  0  0  0  0  0  0  0
   -3.2172    1.5332    0.2791 H   0  0  0  0  0  0  0  0  0  0  0  0
   -3.4441   -0.9186    0.2717 H   0  0  0  0  0  0  0  0  0  0  0  0
   -1.4483   -2.3498    0.0935 H   0  0  0  0  0  0  0  0  0  0  0  0
    0.9926   -2.5750   -0.1083 H   0  0  0  0  0  0  0  0  0  0  0  0
    3.2173   -1.5333   -0.2791 H   0  0  0  0  0  0  0  0  0  0  0  0
    3.4441    0.9186   -0.2717 H   0  0  0  0  0  0  0  0  0  0  0  0
    1.4483    2.3498   -0.0935 H   0  0  0  0  0  0  0  0  0  0  0  0
   -0.9926    2.5750    0.1083 H   0  0  0  0  0  0  0  0  0  0  0  0
  1  2  2  0  0  0  0
  2  3  1  0  0  0  0
  3  4  2  0  0  0  0
  4  5  1  0  0  0  0
  5  6  2  0  0  0  0
  6  7  1  0  0  0  0
  7  8  2  0  0  0  0
  8  9  1  0  0  0  0
  9 10  2  0  0  0  0
 10  1  1  0  0  0  0
  9  4  1  0  0  0  0
  1 11  1  0  0  0  0
  2 12  1  0  0  0  0
  3 13  1  0  0  0  0
  5 14  1  0  0  0  0
  6 15  1  0  0  0  0
  7 16  1  0  0  0  0
  8 17  1  0  0  0  0
 10 18  1  0  0  0  0
M  END
