
  xtb     03022215403D
 energy: -38.694413215378 gnorm: 0.000123551659 xtb: 6.4.1 (afa7bdf)
 25 26  0     0  0            999 V2000
   -6.0289    1.5103   -0.7357 C   0  0  0  0  0  3  0  0  0  0  0  0
   -4.9014    1.2248   -0.6304 N   0  0  0  0  0  4  0  0  0  0  0  0
   -3.5883    0.8931   -0.5070 C   0  0  0  0  0  0  0  0  0  0  0  0
   -3.2044   -0.4458   -0.5333 C   0  0  0  0  0  0  0  0  0  0  0  0
   -1.8709   -0.7740   -0.4097 C   0  0  0  0  0  0  0  0  0  0  0  0
   -0.8973    0.2139   -0.2542 C   0  0  0  0  0  0  0  0  0  0  0  0
    0.5187   -0.1430   -0.1209 C   0  0  0  0  0  0  0  0  0  0  0  0
    1.0740   -1.1721   -0.8807 C   0  0  0  0  0  0  0  0  0  0  0  0
    2.4067   -1.5021   -0.7657 C   0  0  0  0  0  0  0  0  0  0  0  0
    3.2338   -0.8212    0.1296 C   0  0  0  0  0  0  0  0  0  0  0  0
    4.5461   -1.1986    0.3021 N   0  0  0  0  0  0  0  0  0  0  0  0
    2.6798    0.2055    0.8969 C   0  0  0  0  0  0  0  0  0  0  0  0
    1.3494    0.5391    0.7676 C   0  0  0  0  0  0  0  0  0  0  0  0
   -1.3017    1.5496   -0.2285 C   0  0  0  0  0  0  0  0  0  0  0  0
   -2.6308    1.8936   -0.3550 C   0  0  0  0  0  0  0  0  0  0  0  0
   -3.9566   -1.2127   -0.6462 H   0  0  0  0  0  0  0  0  0  0  0  0
   -1.5782   -1.8134   -0.4124 H   0  0  0  0  0  0  0  0  0  0  0  0
    0.4582   -1.7004   -1.5940 H   0  0  0  0  0  0  0  0  0  0  0  0
    2.8233   -2.2943   -1.3717 H   0  0  0  0  0  0  0  0  0  0  0  0
    4.9640   -1.7423   -0.4347 H   0  0  0  0  0  0  0  0  0  0  0  0
    5.1585   -0.5301    0.7392 H   0  0  0  0  0  0  0  0  0  0  0  0
    3.3065    0.7370    1.5991 H   0  0  0  0  0  0  0  0  0  0  0  0
    0.9396    1.3264    1.3835 H   0  0  0  0  0  0  0  0  0  0  0  0
   -0.5600    2.3280   -0.1286 H   0  0  0  0  0  0  0  0  0  0  0  0
   -2.9401    2.9284   -0.3419 H   0  0  0  0  0  0  0  0  0  0  0  0
  1  2  3  0  0  0  0
  2  3  1  0  0  0  0
  3  4  2  0  0  0  0
  4  5  1  0  0  0  0
  5  6  2  0  0  0  0
  6  7  1  0  0  0  0
  7  8  2  0  0  0  0
  8  9  1  0  0  0  0
  9 10  2  0  0  0  0
 10 11  1  0  0  0  0
 10 12  1  0  0  0  0
 12 13  2  0  0  0  0
  6 14  1  0  0  0  0
 14 15  2  0  0  0  0
 15  3  1  0  0  0  0
 13  7  1  0  0  0  0
  4 16  1  0  0  0  0
  5 17  1  0  0  0  0
  8 18  1  0  0  0  0
  9 19  1  0  0  0  0
 11 20  1  0  0  0  0
 11 21  1  0  0  0  0
 12 22  1  0  0  0  0
 13 23  1  0  0  0  0
 14 24  1  0  0  0  0
 15 25  1  0  0  0  0
M  CHG  1   1  -1
M  CHG  1   2   1
M  END
