
  xtb     03022213183D
 energy: -90.661985280475 gnorm: 0.000117674739 xtb: 6.4.1 (afa7bdf)
 50 54  0     0  0            999 V2000
    7.7419    0.4063   -0.9045 C   0  0  0  0  0  0  0  0  0  0  0  0
    7.0154   -0.7347   -0.2066 C   0  0  0  0  0  0  0  0  0  0  0  0
    5.6007   -0.5435   -0.2306 O   0  0  0  0  0  0  0  0  0  0  0  0
    5.0830    0.2549    0.7107 C   0  0  0  0  0  0  0  0  0  0  0  0
    5.7357    0.7823    1.5778 O   0  0  0  0  0  0  0  0  0  0  0  0
    3.6115    0.4110    0.5716 C   0  0  0  0  0  0  0  0  0  0  0  0
    2.9543    1.2734    1.4462 C   0  0  0  0  0  0  0  0  0  0  0  0
    1.5910    1.4574    1.3450 C   0  0  0  0  0  0  0  0  0  0  0  0
    0.8597    0.7641    0.3806 C   0  0  0  0  0  0  0  0  0  0  0  0
   -0.5934    1.0000    0.2850 C   0  0  0  0  0  0  0  0  0  0  0  0
   -1.4886   -0.0285    0.0322 C   0  0  0  0  0  0  0  0  0  0  0  0
   -1.1195   -1.4557   -0.0241 C   0  0  0  0  0  0  0  0  0  0  0  0
   -1.5530   -2.2599   -1.0734 C   0  0  0  0  0  0  0  0  0  0  0  0
   -1.2181   -3.6016   -1.1099 C   0  0  0  0  0  0  0  0  0  0  0  0
   -0.4507   -4.1560   -0.1000 C   0  0  0  0  0  0  0  0  0  0  0  0
   -0.0232   -3.3631    0.9526 C   0  0  0  0  0  0  0  0  0  0  0  0
   -0.3575   -2.0229    0.9945 C   0  0  0  0  0  0  0  0  0  0  0  0
   -2.8417    0.3410   -0.1058 C   0  0  0  0  0  0  0  0  0  0  0  0
   -3.8347   -0.5145   -0.3678 O   0  0  0  0  0  0  0  0  0  0  0  0
   -4.9767    0.2363   -0.4132 C   0  0  0  0  0  0  0  0  0  0  0  0
   -6.2789   -0.1536   -0.6532 C   0  0  0  0  0  0  0  0  0  0  0  0
   -7.2334    0.8508   -0.6362 C   0  0  0  0  0  0  0  0  0  0  0  0
   -6.8983    2.1809   -0.3904 C   0  0  0  0  0  0  0  0  0  0  0  0
   -5.5940    2.5734   -0.1506 C   0  0  0  0  0  0  0  0  0  0  0  0
   -4.6352    1.5749   -0.1670 C   0  0  0  0  0  0  0  0  0  0  0  0
   -3.2721    1.5923    0.0225 N   0  0  0  0  0  4  0  0  0  0  0  0
   -2.3161    2.7761    0.3986 B   0  0  0  0  0  4  0  0  0  0  0  0
   -2.4153    3.7503   -0.5547 F   0  0  0  0  0  0  0  0  0  0  0  0
   -2.6744    3.2541    1.6316 F   0  0  0  0  0  0  0  0  0  0  0  0
   -0.9407    2.2435    0.4411 O   0  0  0  0  0  0  0  0  0  0  0  0
    1.5216   -0.0868   -0.5047 C   0  0  0  0  0  0  0  0  0  0  0  0
    2.8872   -0.2605   -0.4108 C   0  0  0  0  0  0  0  0  0  0  0  0
    8.8077    0.1989   -0.9284 H   0  0  0  0  0  0  0  0  0  0  0  0
    7.3772    0.5179   -1.9229 H   0  0  0  0  0  0  0  0  0  0  0  0
    7.5758    1.3358   -0.3656 H   0  0  0  0  0  0  0  0  0  0  0  0
    7.3455   -0.8121    0.8346 H   0  0  0  0  0  0  0  0  0  0  0  0
    7.1815   -1.6827   -0.7226 H   0  0  0  0  0  0  0  0  0  0  0  0
    3.5343    1.7939    2.1931 H   0  0  0  0  0  0  0  0  0  0  0  0
    1.0722    2.1312    2.0091 H   0  0  0  0  0  0  0  0  0  0  0  0
   -2.1435   -1.8300   -1.8687 H   0  0  0  0  0  0  0  0  0  0  0  0
   -1.5565   -4.2155   -1.9315 H   0  0  0  0  0  0  0  0  0  0  0  0
   -0.1899   -5.2032   -0.1303 H   0  0  0  0  0  0  0  0  0  0  0  0
    0.5680   -3.7922    1.7477 H   0  0  0  0  0  0  0  0  0  0  0  0
   -0.0347   -1.4081    1.8214 H   0  0  0  0  0  0  0  0  0  0  0  0
   -6.5316   -1.1838   -0.8416 H   0  0  0  0  0  0  0  0  0  0  0  0
   -8.2653    0.5937   -0.8184 H   0  0  0  0  0  0  0  0  0  0  0  0
   -7.6801    2.9245   -0.3878 H   0  0  0  0  0  0  0  0  0  0  0  0
   -5.3161    3.5959    0.0405 H   0  0  0  0  0  0  0  0  0  0  0  0
    0.9670   -0.5934   -1.2788 H   0  0  0  0  0  0  0  0  0  0  0  0
    3.4022   -0.9129   -1.0979 H   0  0  0  0  0  0  0  0  0  0  0  0
  1  2  1  0  0  0  0
  2  3  1  0  0  0  0
  3  4  1  0  0  0  0
  4  5  2  0  0  0  0
  4  6  1  0  0  0  0
  6  7  2  0  0  0  0
  7  8  1  0  0  0  0
  8  9  2  0  0  0  0
  9 10  1  0  0  0  0
 10 11  2  0  0  0  0
 11 12  1  0  0  0  0
 12 13  2  0  0  0  0
 13 14  1  0  0  0  0
 14 15  2  0  0  0  0
 15 16  1  0  0  0  0
 16 17  2  0  0  0  0
 11 18  1  0  0  0  0
 18 19  1  0  0  0  0
 19 20  1  0  0  0  0
 20 21  2  0  0  0  0
 21 22  1  0  0  0  0
 22 23  2  0  0  0  0
 23 24  1  0  0  0  0
 24 25  2  0  0  0  0
 25 26  1  0  0  0  0
 26 27  1  0  0  0  0
 27 28  1  0  0  0  0
 27 29  1  0  0  0  0
 27 30  1  0  0  0  0
  9 31  1  0  0  0  0
 31 32  2  0  0  0  0
 32  6  1  0  0  0  0
 30 10  1  0  0  0  0
 17 12  1  0  0  0  0
 26 18  2  0  0  0  0
 25 20  1  0  0  0  0
  1 33  1  0  0  0  0
  1 34  1  0  0  0  0
  1 35  1  0  0  0  0
  2 36  1  0  0  0  0
  2 37  1  0  0  0  0
  7 38  1  0  0  0  0
  8 39  1  0  0  0  0
 13 40  1  0  0  0  0
 14 41  1  0  0  0  0
 15 42  1  0  0  0  0
 16 43  1  0  0  0  0
 17 44  1  0  0  0  0
 21 45  1  0  0  0  0
 22 46  1  0  0  0  0
 23 47  1  0  0  0  0
 24 48  1  0  0  0  0
 31 49  1  0  0  0  0
 32 50  1  0  0  0  0
M  CHG  1  26   1
M  CHG  1  27  -1
M  END
