
  xtb     03022215143D
 energy: -80.313503044775 gnorm: 0.000355986559 xtb: 6.4.1 (afa7bdf)
 47 50  0     0  0            999 V2000
   -5.6559   -0.4057   -4.6552 C   0  0  0  0  0  0  0  0  0  0  0  0
   -4.4463   -0.3110   -3.7790 C   0  0  0  0  0  0  0  0  0  0  0  0
   -3.3743    0.4978   -4.1422 C   0  0  0  0  0  0  0  0  0  0  0  0
   -2.2611    0.6048   -3.3349 C   0  0  0  0  0  0  0  0  0  0  0  0
   -2.1926   -0.0885   -2.1261 C   0  0  0  0  0  0  0  0  0  0  0  0
   -1.0144    0.0151   -1.2869 C   0  0  0  0  0  0  0  0  0  0  0  0
    0.5636    0.1081   -1.9991 S   0  0  0  0  0  0  0  0  0  0  0  0
    1.2494    0.0757   -0.3815 C   0  0  0  0  0  0  0  0  0  0  0  0
    2.6743    0.1320   -0.1578 C   0  0  0  0  0  0  0  0  0  0  0  0
    3.4491    0.2066   -1.3369 C   0  0  0  0  0  0  0  0  0  0  0  0
    4.0083    0.2677   -2.3373 N   0  0  0  0  0  0  0  0  0  0  0  0
    3.1570    0.1102    1.1138 C   0  0  0  0  0  0  0  0  0  0  0  0
    4.5141    0.1568    1.5880 C   0  0  0  0  0  0  0  0  0  0  0  0
    4.7185    0.1132    2.9771 C   0  0  0  0  0  0  0  0  0  0  0  0
    5.9840    0.1556    3.5147 C   0  0  0  0  0  0  0  0  0  0  0  0
    7.0927    0.2444    2.6688 C   0  0  0  0  0  0  0  0  0  0  0  0
    8.3953    0.2900    3.2133 C   0  0  0  0  0  0  0  0  0  0  0  0
    9.4510    0.3297    3.6588 N   0  0  0  0  0  0  0  0  0  0  0  0
    6.9082    0.2888    1.2848 C   0  0  0  0  0  0  0  0  0  0  0  0
    5.6379    0.2453    0.7544 C   0  0  0  0  0  0  0  0  0  0  0  0
    0.3646    0.0065    0.5592 N   0  0  0  0  0  0  0  0  0  0  0  0
   -0.9017   -0.0146    0.0945 C   0  0  0  0  0  0  0  0  0  0  0  0
   -1.9920   -0.0084    1.0687 C   0  0  0  0  0  0  0  0  0  0  0  0
   -1.8406   -0.7121    2.2615 C   0  0  0  0  0  0  0  0  0  0  0  0
   -2.8401   -0.7080    3.2147 C   0  0  0  0  0  0  0  0  0  0  0  0
   -3.9989    0.0154    2.9802 C   0  0  0  0  0  0  0  0  0  0  0  0
   -5.2569    0.0233    4.1654 Cl  0  0  0  0  0  0  0  0  0  0  0  0
   -4.1582    0.7402    1.8085 C   0  0  0  0  0  0  0  0  0  0  0  0
   -3.1558    0.7288    0.8589 C   0  0  0  0  0  0  0  0  0  0  0  0
   -3.2593   -0.9135   -1.7665 C   0  0  0  0  0  0  0  0  0  0  0  0
   -4.3666   -1.0165   -2.5837 C   0  0  0  0  0  0  0  0  0  0  0  0
   -6.2668    0.4907   -4.5447 H   0  0  0  0  0  0  0  0  0  0  0  0
   -6.2636   -1.2669   -4.3898 H   0  0  0  0  0  0  0  0  0  0  0  0
   -5.3680   -0.4841   -5.7016 H   0  0  0  0  0  0  0  0  0  0  0  0
   -3.4136    1.0472   -5.0717 H   0  0  0  0  0  0  0  0  0  0  0  0
   -1.4359    1.2369   -3.6308 H   0  0  0  0  0  0  0  0  0  0  0  0
    2.3957    0.0510    1.8819 H   0  0  0  0  0  0  0  0  0  0  0  0
    3.8626    0.0455    3.6327 H   0  0  0  0  0  0  0  0  0  0  0  0
    6.1303    0.1215    4.5842 H   0  0  0  0  0  0  0  0  0  0  0  0
    7.7679    0.3576    0.6350 H   0  0  0  0  0  0  0  0  0  0  0  0
    5.5139    0.2807   -0.3152 H   0  0  0  0  0  0  0  0  0  0  0  0
   -0.9307   -1.2669    2.4302 H   0  0  0  0  0  0  0  0  0  0  0  0
   -2.7246   -1.2599    4.1344 H   0  0  0  0  0  0  0  0  0  0  0  0
   -5.0582    1.3121    1.6460 H   0  0  0  0  0  0  0  0  0  0  0  0
   -3.2728    1.3039   -0.0470 H   0  0  0  0  0  0  0  0  0  0  0  0
   -3.2082   -1.4839   -0.8513 H   0  0  0  0  0  0  0  0  0  0  0  0
   -5.1812   -1.6630   -2.2909 H   0  0  0  0  0  0  0  0  0  0  0  0
  1  2  1  0  0  0  0
  2  3  2  0  0  0  0
  3  4  1  0  0  0  0
  4  5  2  0  0  0  0
  5  6  1  0  0  0  0
  6  7  1  0  0  0  0
  7  8  1  0  0  0  0
  8  9  1  0  0  0  0
  9 10  1  0  0  0  0
 10 11  3  0  0  0  0
  9 12  2  0  0  0  0
 12 13  1  0  0  0  0
 13 14  2  0  0  0  0
 14 15  1  0  0  0  0
 15 16  2  0  0  0  0
 16 17  1  0  0  0  0
 17 18  3  0  0  0  0
 16 19  1  0  0  0  0
 19 20  2  0  0  0  0
  8 21  2  0  0  0  0
 21 22  1  0  0  0  0
 22 23  1  0  0  0  0
 23 24  2  0  0  0  0
 24 25  1  0  0  0  0
 25 26  2  0  0  0  0
 26 27  1  0  0  0  0
 26 28  1  0  0  0  0
 28 29  2  0  0  0  0
  5 30  1  0  0  0  0
 30 31  2  0  0  0  0
 31  2  1  0  0  0  0
 22  6  2  0  0  0  0
 29 23  1  0  0  0  0
 20 13  1  0  0  0  0
  1 32  1  0  0  0  0
  1 33  1  0  0  0  0
  1 34  1  0  0  0  0
  3 35  1  0  0  0  0
  4 36  1  0  0  0  0
 12 37  1  0  0  0  0
 14 38  1  0  0  0  0
 15 39  1  0  0  0  0
 19 40  1  0  0  0  0
 20 41  1  0  0  0  0
 24 42  1  0  0  0  0
 25 43  1  0  0  0  0
 28 44  1  0  0  0  0
 29 45  1  0  0  0  0
 30 46  1  0  0  0  0
 31 47  1  0  0  0  0
M  END
