
  xtb     03022214503D
 energy: -19.050403652259 gnorm: 0.000096972659 xtb: 6.4.1 (afa7bdf)
 15 15  0     0  0            999 V2000
    2.2074   -0.1632    0.0083 C   0  0  0  0  0  0  0  0  0  0  0  0
    0.7131   -0.0441   -0.0032 C   0  0  0  0  0  0  0  0  0  0  0  0
   -0.0790   -1.1860   -0.0442 C   0  0  0  0  0  0  0  0  0  0  0  0
   -1.4583   -1.0907   -0.0456 C   0  0  0  0  0  0  0  0  0  0  0  0
   -2.0689    0.1517   -0.0058 C   0  0  0  0  0  0  0  0  0  0  0  0
   -1.2905    1.2947    0.0354 C   0  0  0  0  0  0  0  0  0  0  0  0
    0.0904    1.1958    0.0367 C   0  0  0  0  0  0  0  0  0  0  0  0
    2.5454   -0.8170   -0.7941 H   0  0  0  0  0  0  0  0  0  0  0  0
    2.6775    0.8097   -0.1111 H   0  0  0  0  0  0  0  0  0  0  0  0
    2.5427   -0.5942    0.9517 H   0  0  0  0  0  0  0  0  0  0  0  0
    0.3936   -2.1578   -0.0758 H   0  0  0  0  0  0  0  0  0  0  0  0
   -2.0596   -1.9879   -0.0786 H   0  0  0  0  0  0  0  0  0  0  0  0
   -3.1463    0.2276   -0.0078 H   0  0  0  0  0  0  0  0  0  0  0  0
   -1.7592    2.2677    0.0659 H   0  0  0  0  0  0  0  0  0  0  0  0
    0.6916    2.0937    0.0685 H   0  0  0  0  0  0  0  0  0  0  0  0
  1  2  1  0  0  0  0
  2  3  2  0  0  0  0
  3  4  1  0  0  0  0
  4  5  2  0  0  0  0
  5  6  1  0  0  0  0
  6  7  2  0  0  0  0
  7  2  1  0  0  0  0
  1  8  1  0  0  0  0
  1  9  1  0  0  0  0
  1 10  1  0  0  0  0
  3 11  1  0  0  0  0
  4 12  1  0  0  0  0
  5 13  1  0  0  0  0
  6 14  1  0  0  0  0
  7 15  1  0  0  0  0
M  END
