
  xtb     03022212383D
 energy: -78.606079031518 gnorm: 0.000083038754 xtb: 6.4.1 (afa7bdf)
 53 56  0     0  0            999 V2000
   10.5826   -0.0328   -0.1473 C   0  0  0  0  0  0  0  0  0  0  0  0
    9.7016   -0.2365    1.0627 C   0  0  0  0  0  0  0  0  0  0  0  0
   10.1738   -0.3899    2.1685 O   0  0  0  0  0  0  0  0  0  0  0  0
    8.2358   -0.2374    0.8413 C   0  0  0  0  0  0  0  0  0  0  0  0
    7.6468   -0.1139   -0.4188 C   0  0  0  0  0  0  0  0  0  0  0  0
    6.2754   -0.1234   -0.5533 C   0  0  0  0  0  0  0  0  0  0  0  0
    5.4531   -0.2513    0.5707 C   0  0  0  0  0  0  0  0  0  0  0  0
    4.0521   -0.2565    0.4280 C   0  0  0  0  0  0  0  0  0  0  0  0
    2.8496   -0.2607    0.3041 C   0  0  0  0  0  0  0  0  0  0  0  0
    1.4481   -0.2696    0.1577 C   0  0  0  0  0  0  0  0  0  0  0  0
    0.8692   -0.5841   -1.0744 C   0  0  0  0  0  0  0  0  0  0  0  0
   -0.5021   -0.6014   -1.2113 C   0  0  0  0  0  0  0  0  0  0  0  0
   -1.3334   -0.2948   -0.1340 C   0  0  0  0  0  0  0  0  0  0  0  0
   -2.7946   -0.3178   -0.2828 C   0  0  0  0  0  0  0  0  0  0  0  0
   -3.5661    0.7175    0.2784 C   0  0  0  0  0  0  0  0  0  0  0  0
   -4.9364    0.7495    0.1544 C   0  0  0  0  0  0  0  0  0  0  0  0
   -5.7175    1.7880    0.6751 N   0  0  0  0  0  0  0  0  0  0  0  0
   -6.4658    2.5795   -0.2817 C   0  0  0  0  0  0  0  0  0  0  0  0
   -5.1434    2.6054    1.7171 C   0  0  0  0  0  0  0  0  0  0  0  0
   -5.6021   -0.3474   -0.4761 C   0  0  0  0  0  0  0  0  0  0  0  0
   -7.0041   -0.4888   -0.4740 C   0  0  0  0  0  0  0  0  0  0  0  0
   -7.6081   -1.5474   -1.0964 C   0  0  0  0  0  0  0  0  0  0  0  0
   -6.8385   -2.5160   -1.7551 C   0  0  0  0  0  0  0  0  0  0  0  0
   -5.4750   -2.4340   -1.7328 C   0  0  0  0  0  0  0  0  0  0  0  0
   -4.8212   -1.3685   -1.0779 C   0  0  0  0  0  0  0  0  0  0  0  0
   -3.4174   -1.3222   -0.9834 C   0  0  0  0  0  0  0  0  0  0  0  0
   -0.7490    0.0275    1.0908 C   0  0  0  0  0  0  0  0  0  0  0  0
    0.6211    0.0342    1.2417 C   0  0  0  0  0  0  0  0  0  0  0  0
    6.0379   -0.3746    1.8351 C   0  0  0  0  0  0  0  0  0  0  0  0
    7.4081   -0.3698    1.9604 C   0  0  0  0  0  0  0  0  0  0  0  0
   10.3484    0.9145   -0.6282 H   0  0  0  0  0  0  0  0  0  0  0  0
   11.6234   -0.0298    0.1664 H   0  0  0  0  0  0  0  0  0  0  0  0
   10.4272   -0.8372   -0.8632 H   0  0  0  0  0  0  0  0  0  0  0  0
    8.2568   -0.0124   -1.3030 H   0  0  0  0  0  0  0  0  0  0  0  0
    5.8217   -0.0287   -1.5293 H   0  0  0  0  0  0  0  0  0  0  0  0
    1.5069   -0.8155   -1.9153 H   0  0  0  0  0  0  0  0  0  0  0  0
   -0.9423   -0.8357   -2.1697 H   0  0  0  0  0  0  0  0  0  0  0  0
   -3.0455    1.5268    0.7666 H   0  0  0  0  0  0  0  0  0  0  0  0
   -7.3731    2.9623    0.1907 H   0  0  0  0  0  0  0  0  0  0  0  0
   -5.8748    3.4364   -0.6356 H   0  0  0  0  0  0  0  0  0  0  0  0
   -6.7393    1.9771   -1.1434 H   0  0  0  0  0  0  0  0  0  0  0  0
   -4.4156    3.3407    1.3440 H   0  0  0  0  0  0  0  0  0  0  0  0
   -5.9534    3.1510    2.2037 H   0  0  0  0  0  0  0  0  0  0  0  0
   -4.6624    1.9679    2.4565 H   0  0  0  0  0  0  0  0  0  0  0  0
   -7.6009    0.2335    0.0606 H   0  0  0  0  0  0  0  0  0  0  0  0
   -8.6836   -1.6468   -1.0757 H   0  0  0  0  0  0  0  0  0  0  0  0
   -7.3296   -3.3372   -2.2568 H   0  0  0  0  0  0  0  0  0  0  0  0
   -4.8707   -3.1943   -2.2073 H   0  0  0  0  0  0  0  0  0  0  0  0
   -2.8393   -2.1183   -1.4296 H   0  0  0  0  0  0  0  0  0  0  0  0
   -1.3813    0.2511    1.9380 H   0  0  0  0  0  0  0  0  0  0  0  0
    1.0662    0.2748    2.1964 H   0  0  0  0  0  0  0  0  0  0  0  0
    5.4050   -0.4761    2.7044 H   0  0  0  0  0  0  0  0  0  0  0  0
    7.8757   -0.4670    2.9292 H   0  0  0  0  0  0  0  0  0  0  0  0
  1  2  1  0  0  0  0
  2  3  2  0  0  0  0
  2  4  1  0  0  0  0
  4  5  2  0  0  0  0
  5  6  1  0  0  0  0
  6  7  2  0  0  0  0
  7  8  1  0  0  0  0
  8  9  3  0  0  0  0
  9 10  1  0  0  0  0
 10 11  2  0  0  0  0
 11 12  1  0  0  0  0
 12 13  2  0  0  0  0
 13 14  1  0  0  0  0
 14 15  2  0  0  0  0
 15 16  1  0  0  0  0
 16 17  1  0  0  0  0
 17 18  1  0  0  0  0
 17 19  1  0  0  0  0
 16 20  2  0  0  0  0
 20 21  1  0  0  0  0
 21 22  2  0  0  0  0
 22 23  1  0  0  0  0
 23 24  2  0  0  0  0
 24 25  1  0  0  0  0
 25 26  2  0  0  0  0
 13 27  1  0  0  0  0
 27 28  2  0  0  0  0
  7 29  1  0  0  0  0
 29 30  2  0  0  0  0
 30  4  1  0  0  0  0
 28 10  1  0  0  0  0
 26 14  1  0  0  0  0
 25 20  1  0  0  0  0
  1 31  1  0  0  0  0
  1 32  1  0  0  0  0
  1 33  1  0  0  0  0
  5 34  1  0  0  0  0
  6 35  1  0  0  0  0
 11 36  1  0  0  0  0
 12 37  1  0  0  0  0
 15 38  1  0  0  0  0
 18 39  1  0  0  0  0
 18 40  1  0  0  0  0
 18 41  1  0  0  0  0
 19 42  1  0  0  0  0
 19 43  1  0  0  0  0
 19 44  1  0  0  0  0
 21 45  1  0  0  0  0
 22 46  1  0  0  0  0
 23 47  1  0  0  0  0
 24 48  1  0  0  0  0
 26 49  1  0  0  0  0
 27 50  1  0  0  0  0
 28 51  1  0  0  0  0
 29 52  1  0  0  0  0
 30 53  1  0  0  0  0
M  END
