
  xtb     03022214063D
 energy: -100.905548514906 gnorm: 0.000074190443 xtb: 6.4.1 (afa7bdf)
 67 77  0     0  0            999 V2000
   -0.0918   -1.8310   -0.1196 C   0  0  0  0  0  0  0  0  0  0  0  0
   -1.2226   -1.0629   -0.3613 C   0  0  0  0  0  0  0  0  0  0  0  0
   -2.5913   -1.3895   -0.5073 C   0  0  0  0  0  0  0  0  0  0  0  0
   -3.3241   -0.2212   -0.3915 C   0  0  0  0  0  0  0  0  0  0  0  0
   -2.4092    0.8333   -0.1844 C   0  0  0  0  0  0  0  0  0  0  0  0
   -1.1670    0.3133   -0.2505 N   0  0  0  0  0  4  0  0  0  0  0  0
    0.0568    1.1330    0.0741 B   0  0  0  0  0  4  0  0  0  0  0  0
   -0.3025    1.9719    1.2522 O   0  0  0  0  0  0  0  0  0  0  0  0
   -1.4556    2.6343    1.1330 C   0  0  0  0  0  0  0  0  0  0  0  0
   -1.6216    3.8236    1.8456 C   0  0  0  0  0  0  0  0  0  0  0  0
   -2.7832    4.5583    1.7345 C   0  0  0  0  0  0  0  0  0  0  0  0
   -3.8198    4.1248    0.9166 C   0  0  0  0  0  0  0  0  0  0  0  0
   -3.6981    2.9324    0.2368 C   0  0  0  0  0  0  0  0  0  0  0  0
   -2.5374    2.1656    0.3386 C   0  0  0  0  0  0  0  0  0  0  0  0
    0.5056    2.0777   -0.9874 O   0  0  0  0  0  0  0  0  0  0  0  0
    1.7181    2.6008   -0.7908 C   0  0  0  0  0  0  0  0  0  0  0  0
    2.0064    3.8501   -1.3440 C   0  0  0  0  0  0  0  0  0  0  0  0
    3.2346    4.4448   -1.1462 C   0  0  0  0  0  0  0  0  0  0  0  0
    4.2176    3.8076   -0.3983 C   0  0  0  0  0  0  0  0  0  0  0  0
    3.9733    2.5552    0.1217 C   0  0  0  0  0  0  0  0  0  0  0  0
    2.7427    1.9276   -0.0711 C   0  0  0  0  0  0  0  0  0  0  0  0
    2.4790    0.5581    0.2754 C   0  0  0  0  0  0  0  0  0  0  0  0
    3.2829   -0.6002    0.3379 C   0  0  0  0  0  0  0  0  0  0  0  0
    2.4367   -1.6947    0.3058 C   0  0  0  0  0  0  0  0  0  0  0  0
    1.1083   -1.2172    0.2125 C   0  0  0  0  0  0  0  0  0  0  0  0
    1.1907    0.1603    0.2816 N   0  0  0  0  0  0  0  0  0  0  0  0
    3.1234   -3.0087    0.2832 C   0  0  0  0  0  0  0  0  0  0  0  0
    4.0390   -3.0158   -0.9564 C   0  0  0  0  0  0  0  0  0  0  0  0
    4.9810   -1.7995   -0.9267 C   0  0  0  0  0  0  0  0  0  0  0  0
    4.7267   -0.9555    0.3373 C   0  0  0  0  0  0  0  0  0  0  0  0
    4.9732   -1.8565    1.5613 C   0  0  0  0  0  0  0  0  0  0  0  0
    4.0244   -3.0683    1.5310 C   0  0  0  0  0  0  0  0  0  0  0  0
   -4.7961   -0.4280   -0.4276 C   0  0  0  0  0  0  0  0  0  0  0  0
   -5.1232   -1.1334   -1.7566 C   0  0  0  0  0  0  0  0  0  0  0  0
   -4.2997   -2.4271   -1.8903 C   0  0  0  0  0  0  0  0  0  0  0  0
   -3.4057   -2.6203   -0.6511 C   0  0  0  0  0  0  0  0  0  0  0  0
   -4.3257   -2.6971    0.5828 C   0  0  0  0  0  0  0  0  0  0  0  0
   -5.1413   -1.3994    0.7178 C   0  0  0  0  0  0  0  0  0  0  0  0
   -0.1457   -2.9063   -0.1899 H   0  0  0  0  0  0  0  0  0  0  0  0
   -0.8048    4.1617    2.4645 H   0  0  0  0  0  0  0  0  0  0  0  0
   -2.8801    5.4865    2.2786 H   0  0  0  0  0  0  0  0  0  0  0  0
   -4.7178    4.7161    0.8198 H   0  0  0  0  0  0  0  0  0  0  0  0
   -4.4978    2.5845   -0.3994 H   0  0  0  0  0  0  0  0  0  0  0  0
    1.2313    4.3454   -1.9084 H   0  0  0  0  0  0  0  0  0  0  0  0
    3.4270    5.4214   -1.5658 H   0  0  0  0  0  0  0  0  0  0  0  0
    5.1694    4.2890   -0.2315 H   0  0  0  0  0  0  0  0  0  0  0  0
    4.7302    2.0498    0.7022 H   0  0  0  0  0  0  0  0  0  0  0  0
    2.4353   -3.8566    0.2612 H   0  0  0  0  0  0  0  0  0  0  0  0
    4.6117   -3.9444   -0.9652 H   0  0  0  0  0  0  0  0  0  0  0  0
    3.4208   -2.9974   -1.8551 H   0  0  0  0  0  0  0  0  0  0  0  0
    4.8237   -1.1735   -1.8063 H   0  0  0  0  0  0  0  0  0  0  0  0
    6.0230   -2.1228   -0.9308 H   0  0  0  0  0  0  0  0  0  0  0  0
    5.3914   -0.0910    0.3535 H   0  0  0  0  0  0  0  0  0  0  0  0
    4.8159   -1.2739    2.4701 H   0  0  0  0  0  0  0  0  0  0  0  0
    6.0134   -2.1856    1.5536 H   0  0  0  0  0  0  0  0  0  0  0  0
    3.3960   -3.0825    2.4225 H   0  0  0  0  0  0  0  0  0  0  0  0
    4.5928   -3.9994    1.5102 H   0  0  0  0  0  0  0  0  0  0  0  0
   -5.3712    0.4932   -0.3270 H   0  0  0  0  0  0  0  0  0  0  0  0
   -4.9031   -0.4562   -2.5830 H   0  0  0  0  0  0  0  0  0  0  0  0
   -6.1910   -1.3557   -1.7846 H   0  0  0  0  0  0  0  0  0  0  0  0
   -4.9580   -3.2918   -1.9874 H   0  0  0  0  0  0  0  0  0  0  0  0
   -3.6699   -2.3875   -2.7801 H   0  0  0  0  0  0  0  0  0  0  0  0
   -2.8056   -3.5281   -0.7440 H   0  0  0  0  0  0  0  0  0  0  0  0
   -3.7148   -2.8578    1.4723 H   0  0  0  0  0  0  0  0  0  0  0  0
   -4.9882   -3.5571    0.4743 H   0  0  0  0  0  0  0  0  0  0  0  0
   -6.2104   -1.6148    0.6870 H   0  0  0  0  0  0  0  0  0  0  0  0
   -4.9278   -0.9118    1.6701 H   0  0  0  0  0  0  0  0  0  0  0  0
  1  2  2  0  0  0  0
  2  3  1  0  0  0  0
  3  4  2  0  0  0  0
  4  5  1  0  0  0  0
  5  6  2  0  0  0  0
  6  7  1  0  0  0  0
  7  8  1  0  0  0  0
  8  9  1  0  0  0  0
  9 10  2  0  0  0  0
 10 11  1  0  0  0  0
 11 12  2  0  0  0  0
 12 13  1  0  0  0  0
 13 14  2  0  0  0  0
  7 15  1  0  0  0  0
 15 16  1  0  0  0  0
 16 17  2  0  0  0  0
 17 18  1  0  0  0  0
 18 19  2  0  0  0  0
 19 20  1  0  0  0  0
 20 21  2  0  0  0  0
 21 22  1  0  0  0  0
 22 23  2  0  0  0  0
 23 24  1  0  0  0  0
 24 25  2  0  0  0  0
 25 26  1  0  0  0  0
 24 27  1  0  0  0  0
 27 28  1  0  0  0  0
 28 29  1  0  0  0  0
 29 30  1  0  0  0  0
 30 31  1  0  0  0  0
 31 32  1  0  0  0  0
  4 33  1  0  0  0  0
 33 34  1  0  0  0  0
 34 35  1  0  0  0  0
 35 36  1  0  0  0  0
 36 37  1  0  0  0  0
 37 38  1  0  0  0  0
 25  1  1  0  0  0  0
 32 27  1  0  0  0  0
 38 33  1  0  0  0  0
  6  2  1  0  0  0  0
 26  7  1  0  0  0  0
 36  3  1  0  0  0  0
 14  5  1  0  0  0  0
 21 16  1  0  0  0  0
 26 22  1  0  0  0  0
 14  9  1  0  0  0  0
 30 23  1  0  0  0  0
  1 39  1  0  0  0  0
 10 40  1  0  0  0  0
 11 41  1  0  0  0  0
 12 42  1  0  0  0  0
 13 43  1  0  0  0  0
 17 44  1  0  0  0  0
 18 45  1  0  0  0  0
 19 46  1  0  0  0  0
 20 47  1  0  0  0  0
 27 48  1  0  0  0  0
 28 49  1  0  0  0  0
 28 50  1  0  0  0  0
 29 51  1  0  0  0  0
 29 52  1  0  0  0  0
 30 53  1  0  0  0  0
 31 54  1  0  0  0  0
 31 55  1  0  0  0  0
 32 56  1  0  0  0  0
 32 57  1  0  0  0  0
 33 58  1  0  0  0  0
 34 59  1  0  0  0  0
 34 60  1  0  0  0  0
 35 61  1  0  0  0  0
 35 62  1  0  0  0  0
 36 63  1  0  0  0  0
 37 64  1  0  0  0  0
 37 65  1  0  0  0  0
 38 66  1  0  0  0  0
 38 67  1  0  0  0  0
M  CHG  1   6   1
M  CHG  1   7  -1
M  END
