
  xtb     03022212443D
 energy: -95.210941650544 gnorm: 0.000190271452 xtb: 6.4.1 (afa7bdf)
 60 63  0     0  0            999 V2000
    9.3822   -0.2300   -0.3438 C   0  0  0  0  0  0  0  0  0  0  0  0
    8.2854    0.6078   -0.7599 N   0  0  0  0  0  0  0  0  0  0  0  0
    8.5775    1.8588   -1.4148 C   0  0  0  0  0  0  0  0  0  0  0  0
    7.0013    0.2937   -0.4096 C   0  0  0  0  0  0  0  0  0  0  0  0
    5.9170    1.0975   -0.8025 C   0  0  0  0  0  0  0  0  0  0  0  0
    4.6252    0.7723   -0.4658 C   0  0  0  0  0  0  0  0  0  0  0  0
    4.3252   -0.3702    0.2860 C   0  0  0  0  0  0  0  0  0  0  0  0
    2.9920   -0.7549    0.6633 C   0  0  0  0  0  0  0  0  0  0  0  0
    1.8371   -0.1299    0.3480 C   0  0  0  0  0  0  0  0  0  0  0  0
    0.5644   -0.6055    0.7758 C   0  0  0  0  0  0  0  0  0  0  0  0
   -0.6083   -0.0161    0.4675 C   0  0  0  0  0  0  0  0  0  0  0  0
   -1.8680   -0.5541    0.9112 C   0  0  0  0  0  0  0  0  0  0  0  0
   -1.9547   -1.6647    1.5535 N   0  0  0  0  0  0  0  0  0  0  0  0
   -3.3536   -1.8998    1.8702 C   0  0  0  0  0  0  0  0  0  0  0  0
   -3.6759   -3.3536    1.6026 C   0  0  0  0  0  0  0  0  0  0  0  0
   -3.4768   -4.2516    2.3799 O   0  0  0  0  0  0  0  0  0  0  0  0
   -4.1893   -3.5995    0.3525 N   0  0  0  0  0  0  0  0  0  0  0  0
   -4.7124   -2.6102   -0.4707 C   0  0  0  0  0  0  0  0  0  0  0  0
   -5.3118   -3.0767   -1.6073 N   0  0  0  0  0  0  0  0  0  0  0  0
   -4.7430   -1.3740   -0.1940 N   0  0  0  0  0  0  0  0  0  0  0  0
   -4.1403   -0.8731    1.0163 C   0  0  0  0  0  0  0  0  0  0  0  0
   -3.0784    0.0633    0.6737 N   0  0  0  0  0  0  0  0  0  0  0  0
   -3.3121    1.3223    0.0342 C   0  0  0  0  0  0  0  0  0  0  0  0
   -3.6765    1.2148   -1.4602 C   0  0  0  0  0  0  0  0  0  0  0  0
   -4.7231    2.3147   -1.6566 C   0  0  0  0  0  0  0  0  0  0  0  0
   -4.1643    3.5470   -2.0322 O   0  0  0  0  0  0  0  0  0  0  0  0
   -5.3900    2.3669   -0.2734 C   0  0  0  0  0  0  0  0  0  0  0  0
   -6.5890    1.4185   -0.1400 C   0  0  0  0  0  0  0  0  0  0  0  0
   -7.1356    1.4925    1.1528 O   0  0  0  0  0  0  0  0  0  0  0  0
   -4.3736    2.0183    0.6646 O   0  0  0  0  0  0  0  0  0  0  0  0
    5.4086   -1.1656    0.6808 C   0  0  0  0  0  0  0  0  0  0  0  0
    6.7042   -0.8514    0.3482 C   0  0  0  0  0  0  0  0  0  0  0  0
   10.3063    0.1356   -0.7852 H   0  0  0  0  0  0  0  0  0  0  0  0
    9.4999   -0.2343    0.7457 H   0  0  0  0  0  0  0  0  0  0  0  0
    9.2319   -1.2582   -0.6825 H   0  0  0  0  0  0  0  0  0  0  0  0
    8.1184    1.8996   -2.4074 H   0  0  0  0  0  0  0  0  0  0  0  0
    9.6527    1.9637   -1.5364 H   0  0  0  0  0  0  0  0  0  0  0  0
    8.2166    2.7097   -0.8283 H   0  0  0  0  0  0  0  0  0  0  0  0
    6.0853    1.9890   -1.3842 H   0  0  0  0  0  0  0  0  0  0  0  0
    3.8281    1.4226   -0.7923 H   0  0  0  0  0  0  0  0  0  0  0  0
    2.9262   -1.6537    1.2655 H   0  0  0  0  0  0  0  0  0  0  0  0
    1.8428    0.7685   -0.2544 H   0  0  0  0  0  0  0  0  0  0  0  0
    0.5313   -1.4985    1.3838 H   0  0  0  0  0  0  0  0  0  0  0  0
   -0.6257    0.8752   -0.1432 H   0  0  0  0  0  0  0  0  0  0  0  0
   -3.4929   -1.7290    2.9459 H   0  0  0  0  0  0  0  0  0  0  0  0
   -4.3797   -4.5693    0.1308 H   0  0  0  0  0  0  0  0  0  0  0  0
   -5.5735   -2.3710   -2.2750 H   0  0  0  0  0  0  0  0  0  0  0  0
   -4.9847   -3.9478   -1.9903 H   0  0  0  0  0  0  0  0  0  0  0  0
   -4.9209   -0.3624    1.5920 H   0  0  0  0  0  0  0  0  0  0  0  0
   -2.4014    1.9229    0.1849 H   0  0  0  0  0  0  0  0  0  0  0  0
   -2.8124    1.3557   -2.1058 H   0  0  0  0  0  0  0  0  0  0  0  0
   -4.1171    0.2348   -1.6377 H   0  0  0  0  0  0  0  0  0  0  0  0
   -5.4402    2.0730   -2.4432 H   0  0  0  0  0  0  0  0  0  0  0  0
   -3.5880    3.8561   -1.3230 H   0  0  0  0  0  0  0  0  0  0  0  0
   -5.7131    3.3844   -0.0211 H   0  0  0  0  0  0  0  0  0  0  0  0
   -7.3804    1.7170   -0.8308 H   0  0  0  0  0  0  0  0  0  0  0  0
   -6.2693    0.3925   -0.3688 H   0  0  0  0  0  0  0  0  0  0  0  0
   -6.3963    1.4718    1.7742 H   0  0  0  0  0  0  0  0  0  0  0  0
    5.2194   -2.0541    1.2671 H   0  0  0  0  0  0  0  0  0  0  0  0
    7.4937   -1.5014    0.6878 H   0  0  0  0  0  0  0  0  0  0  0  0
  1  2  1  0  0  0  0
  2  3  1  0  0  0  0
  2  4  1  0  0  0  0
  4  5  2  0  0  0  0
  5  6  1  0  0  0  0
  6  7  2  0  0  0  0
  7  8  1  0  0  0  0
  8  9  2  0  0  0  0
  9 10  1  0  0  0  0
 10 11  2  0  0  0  0
 11 12  1  0  0  0  0
 12 13  2  0  0  0  0
 13 14  1  0  0  0  0
 14 15  1  0  0  0  0
 15 16  2  0  0  0  0
 15 17  1  0  0  0  0
 17 18  1  0  0  0  0
 18 19  1  0  0  0  0
 18 20  2  0  0  0  0
 20 21  1  0  0  0  0
 21 22  1  0  0  0  0
 22 23  1  0  0  0  0
 23 24  1  0  0  0  0
 24 25  1  0  0  0  0
 25 26  1  0  0  0  0
 25 27  1  0  0  0  0
 27 28  1  0  0  0  0
 28 29  1  0  0  0  0
 27 30  1  0  0  0  0
  7 31  1  0  0  0  0
 31 32  2  0  0  0  0
 32  4  1  0  0  0  0
 22 12  1  0  0  0  0
 30 23  1  0  0  0  0
 21 14  1  0  0  0  0
  1 33  1  0  0  0  0
  1 34  1  0  0  0  0
  1 35  1  0  0  0  0
  3 36  1  0  0  0  0
  3 37  1  0  0  0  0
  3 38  1  0  0  0  0
  5 39  1  0  0  0  0
  6 40  1  0  0  0  0
  8 41  1  0  0  0  0
  9 42  1  0  0  0  0
 10 43  1  0  0  0  0
 11 44  1  0  0  0  0
 14 45  1  0  0  0  0
 17 46  1  0  0  0  0
 19 47  1  0  0  0  0
 19 48  1  0  0  0  0
 21 49  1  0  0  0  0
 23 50  1  0  0  0  0
 24 51  1  0  0  0  0
 24 52  1  0  0  0  0
 25 53  1  0  0  0  0
 26 54  1  0  0  0  0
 27 55  1  0  0  0  0
 28 56  1  0  0  0  0
 28 57  1  0  0  0  0
 29 58  1  0  0  0  0
 31 59  1  0  0  0  0
 32 60  1  0  0  0  0
M  END
