
  xtb     03022213103D
 energy: -100.547764312086 gnorm: 0.000211516377 xtb: 6.4.1 (afa7bdf)
 76 82  0     0  0            999 V2000
    5.1299    1.3733   -2.6307 C   0  0  0  0  0  0  0  0  0  0  0  0
    4.0203    0.3922   -2.2559 C   0  0  0  0  0  0  0  0  0  0  0  0
    3.7550    0.1954   -0.6282 B   0  0  0  0  0  4  0  0  0  0  0  0
    4.9648    0.6550    0.3976 C   0  0  0  0  0  0  0  0  0  0  0  0
    4.6635    0.3069    1.8565 C   0  0  0  0  0  0  0  0  0  0  0  0
    2.4657    1.0834   -0.2569 C   0  0  0  0  0  0  0  0  0  0  0  0
    2.5323    2.4585   -0.2332 C   0  0  0  0  0  0  0  0  0  0  0  0
    1.3946    3.2605   -0.0906 C   0  0  0  0  0  0  0  0  0  0  0  0
    0.1579    2.6999    0.0649 C   0  0  0  0  0  0  0  0  0  0  0  0
    0.0134    1.2972    0.0821 C   0  0  0  0  0  0  0  0  0  0  0  0
   -1.2363    0.6495    0.2318 C   0  0  0  0  0  0  0  0  0  0  0  0
   -1.3751   -0.6836   -0.1884 C   0  0  0  0  0  0  0  0  0  0  0  0
   -2.6787   -1.1976   -0.3915 C   0  0  0  0  0  0  0  0  0  0  0  0
   -2.7713   -2.4956   -0.8428 C   0  0  0  0  0  0  0  0  0  0  0  0
   -1.6423   -3.2801   -1.1007 C   0  0  0  0  0  0  0  0  0  0  0  0
   -0.3839   -2.7896   -0.8884 C   0  0  0  0  0  0  0  0  0  0  0  0
   -0.2076   -1.4783   -0.4015 C   0  0  0  0  0  0  0  0  0  0  0  0
    1.0641   -0.8989   -0.1707 C   0  0  0  0  0  0  0  0  0  0  0  0
    1.1821    0.5006   -0.1167 C   0  0  0  0  0  0  0  0  0  0  0  0
    2.2285   -1.7337    0.0439 C   0  0  0  0  0  0  0  0  0  0  0  0
    2.0350   -2.9503    0.7130 C   0  0  0  0  0  0  0  0  0  0  0  0
    3.0766   -3.8358    0.8570 C   0  0  0  0  0  0  0  0  0  0  0  0
    4.2847   -3.5039    0.2670 C   0  0  0  0  0  0  0  0  0  0  0  0
    4.4582   -2.2553   -0.3134 C   0  0  0  0  0  0  0  0  0  0  0  0
    5.8019   -2.0001   -0.9206 C   0  0  0  0  0  0  0  0  0  0  0  0
    3.4655   -1.3489   -0.3441 N   0  0  0  0  0  4  0  0  0  0  0  0
   -3.9800   -0.2537   -0.3076 B   0  0  0  0  0  4  0  0  0  0  0  0
   -5.1314   -1.0592    0.5577 C   0  0  0  0  0  0  0  0  0  0  0  0
   -4.7835   -1.2148    2.0384 C   0  0  0  0  0  0  0  0  0  0  0  0
   -4.4188    0.0668   -1.8699 C   0  0  0  0  0  0  0  0  0  0  0  0
   -3.6427    1.2287   -2.4898 C   0  0  0  0  0  0  0  0  0  0  0  0
   -3.6345    1.0948    0.4778 N   0  0  0  0  0  4  0  0  0  0  0  0
   -4.5923    1.9213    0.9350 C   0  0  0  0  0  0  0  0  0  0  0  0
   -5.9877    1.9000    0.4004 C   0  0  0  0  0  0  0  0  0  0  0  0
   -4.3304    2.8709    1.9124 C   0  0  0  0  0  0  0  0  0  0  0  0
   -3.0610    2.9821    2.4543 C   0  0  0  0  0  0  0  0  0  0  0  0
   -2.0625    2.2279    1.8854 C   0  0  0  0  0  0  0  0  0  0  0  0
   -2.3558    1.3322    0.8479 C   0  0  0  0  0  0  0  0  0  0  0  0
    5.2314    1.4497   -3.7135 H   0  0  0  0  0  0  0  0  0  0  0  0
    4.9047    2.3640   -2.2453 H   0  0  0  0  0  0  0  0  0  0  0  0
    6.0919    1.0678   -2.2234 H   0  0  0  0  0  0  0  0  0  0  0  0
    3.0962    0.7573   -2.7124 H   0  0  0  0  0  0  0  0  0  0  0  0
    4.2214   -0.5638   -2.7475 H   0  0  0  0  0  0  0  0  0  0  0  0
    5.0620    1.7388    0.3345 H   0  0  0  0  0  0  0  0  0  0  0  0
    5.9502    0.2622    0.1555 H   0  0  0  0  0  0  0  0  0  0  0  0
    3.6966    0.7109    2.1520 H   0  0  0  0  0  0  0  0  0  0  0  0
    4.6389   -0.7720    2.0122 H   0  0  0  0  0  0  0  0  0  0  0  0
    5.4214    0.7197    2.5226 H   0  0  0  0  0  0  0  0  0  0  0  0
    3.4829    2.9496   -0.3726 H   0  0  0  0  0  0  0  0  0  0  0  0
    1.4960    4.3365   -0.1269 H   0  0  0  0  0  0  0  0  0  0  0  0
   -0.7201    3.3273    0.1201 H   0  0  0  0  0  0  0  0  0  0  0  0
   -3.7414   -2.9192   -1.0552 H   0  0  0  0  0  0  0  0  0  0  0  0
   -1.7694   -4.2780   -1.4975 H   0  0  0  0  0  0  0  0  0  0  0  0
    0.4804   -3.3841   -1.1472 H   0  0  0  0  0  0  0  0  0  0  0  0
    1.0645   -3.1666    1.1287 H   0  0  0  0  0  0  0  0  0  0  0  0
    2.9507   -4.7671    1.3874 H   0  0  0  0  0  0  0  0  0  0  0  0
    5.1131   -4.1946    0.2789 H   0  0  0  0  0  0  0  0  0  0  0  0
    6.0644   -2.8511   -1.5491 H   0  0  0  0  0  0  0  0  0  0  0  0
    6.5561   -1.9279   -0.1384 H   0  0  0  0  0  0  0  0  0  0  0  0
    5.8208   -1.1009   -1.5166 H   0  0  0  0  0  0  0  0  0  0  0  0
   -5.2195   -2.0605    0.1351 H   0  0  0  0  0  0  0  0  0  0  0  0
   -6.1287   -0.6295    0.4792 H   0  0  0  0  0  0  0  0  0  0  0  0
   -4.7617   -0.2509    2.5476 H   0  0  0  0  0  0  0  0  0  0  0  0
   -5.5131   -1.8427    2.5500 H   0  0  0  0  0  0  0  0  0  0  0  0
   -3.8032   -1.6752    2.1496 H   0  0  0  0  0  0  0  0  0  0  0  0
   -5.4888    0.2536   -1.9966 H   0  0  0  0  0  0  0  0  0  0  0  0
   -4.2142   -0.8256   -2.4647 H   0  0  0  0  0  0  0  0  0  0  0  0
   -3.8686    2.1685   -1.9867 H   0  0  0  0  0  0  0  0  0  0  0  0
   -3.8892    1.3472   -3.5449 H   0  0  0  0  0  0  0  0  0  0  0  0
   -2.5713    1.0533   -2.4117 H   0  0  0  0  0  0  0  0  0  0  0  0
   -6.6584    1.4180    1.1095 H   0  0  0  0  0  0  0  0  0  0  0  0
   -6.3288    2.9266    0.2726 H   0  0  0  0  0  0  0  0  0  0  0  0
   -6.0455    1.3860   -0.5476 H   0  0  0  0  0  0  0  0  0  0  0  0
   -5.1352    3.4993    2.2598 H   0  0  0  0  0  0  0  0  0  0  0  0
   -2.8580    3.6576    3.2709 H   0  0  0  0  0  0  0  0  0  0  0  0
   -1.0473    2.2974    2.2402 H   0  0  0  0  0  0  0  0  0  0  0  0
  1  2  1  0  0  0  0
  2  3  1  0  0  0  0
  3  4  1  0  0  0  0
  4  5  1  0  0  0  0
  3  6  1  0  0  0  0
  6  7  1  0  0  0  0
  7  8  2  0  0  0  0
  8  9  1  0  0  0  0
  9 10  2  0  0  0  0
 10 11  1  0  0  0  0
 11 12  2  0  0  0  0
 12 13  1  0  0  0  0
 13 14  2  0  0  0  0
 14 15  1  0  0  0  0
 15 16  2  0  0  0  0
 16 17  1  0  0  0  0
 17 18  2  0  0  0  0
 18 19  1  0  0  0  0
 18 20  1  0  0  0  0
 20 21  2  0  0  0  0
 21 22  1  0  0  0  0
 22 23  2  0  0  0  0
 23 24  1  0  0  0  0
 24 25  1  0  0  0  0
 24 26  2  0  0  0  0
 13 27  1  0  0  0  0
 27 28  1  0  0  0  0
 28 29  1  0  0  0  0
 27 30  1  0  0  0  0
 30 31  1  0  0  0  0
 27 32  1  0  0  0  0
 32 33  2  0  0  0  0
 33 34  1  0  0  0  0
 33 35  1  0  0  0  0
 35 36  2  0  0  0  0
 36 37  1  0  0  0  0
 37 38  2  0  0  0  0
 26  3  1  0  0  0  0
 38 32  1  0  0  0  0
 19  6  2  0  0  0  0
 26 20  1  0  0  0  0
 19 10  1  0  0  0  0
 38 11  1  0  0  0  0
 17 12  1  0  0  0  0
  1 39  1  0  0  0  0
  1 40  1  0  0  0  0
  1 41  1  0  0  0  0
  2 42  1  0  0  0  0
  2 43  1  0  0  0  0
  4 44  1  0  0  0  0
  4 45  1  0  0  0  0
  5 46  1  0  0  0  0
  5 47  1  0  0  0  0
  5 48  1  0  0  0  0
  7 49  1  0  0  0  0
  8 50  1  0  0  0  0
  9 51  1  0  0  0  0
 14 52  1  0  0  0  0
 15 53  1  0  0  0  0
 16 54  1  0  0  0  0
 21 55  1  0  0  0  0
 22 56  1  0  0  0  0
 23 57  1  0  0  0  0
 25 58  1  0  0  0  0
 25 59  1  0  0  0  0
 25 60  1  0  0  0  0
 28 61  1  0  0  0  0
 28 62  1  0  0  0  0
 29 63  1  0  0  0  0
 29 64  1  0  0  0  0
 29 65  1  0  0  0  0
 30 66  1  0  0  0  0
 30 67  1  0  0  0  0
 31 68  1  0  0  0  0
 31 69  1  0  0  0  0
 31 70  1  0  0  0  0
 34 71  1  0  0  0  0
 34 72  1  0  0  0  0
 34 73  1  0  0  0  0
 35 74  1  0  0  0  0
 36 75  1  0  0  0  0
 37 76  1  0  0  0  0
M  CHG  1   3  -1
M  CHG  1  26   1
M  CHG  1  27  -1
M  CHG  1  32   1
M  END
