
  xtb     03022212013D
 energy: -101.475295059400 gnorm: 0.000272408827 xtb: 6.4.1 (afa7bdf)
 57 59  0     0  0            999 V2000
   -6.0033   -1.0464    0.9456 C   0  0  0  0  0  0  0  0  0  0  0  0
   -5.4309   -0.7009   -0.4291 C   0  0  0  0  0  0  0  0  0  0  0  0
   -4.3852    0.2994   -0.3580 N   0  0  0  0  0  0  0  0  0  0  0  0
   -4.8833    1.6630   -0.3656 C   0  0  0  0  0  0  0  0  0  0  0  0
   -5.0497    2.2299   -1.7758 C   0  0  0  0  0  0  0  0  0  0  0  0
   -3.0559    0.0380   -0.3412 C   0  0  0  0  0  0  0  0  0  0  0  0
   -2.1463    1.0813   -0.5749 C   0  0  0  0  0  0  0  0  0  0  0  0
   -0.7735    0.9251   -0.5670 C   0  0  0  0  0  0  0  0  0  0  0  0
    0.0925    1.9629   -0.8123 N   0  0  0  0  0  0  0  0  0  0  0  0
   -0.1904    3.2872   -1.0380 C   0  0  0  0  0  0  0  0  0  0  0  0
    1.0613    4.1166   -1.1372 C   0  0  0  0  0  0  0  0  0  0  0  0
   -1.3104    3.7386   -1.1430 O   0  0  0  0  0  0  0  0  0  0  0  0
   -0.2375   -0.3680   -0.3029 C   0  0  0  0  0  0  0  0  0  0  0  0
    1.0892   -0.5036   -0.2617 N   0  0  0  0  0  0  0  0  0  0  0  0
    1.6257   -1.6639   -0.0830 N   0  0  0  0  0  0  0  0  0  0  0  0
    2.9709   -1.6374    0.0848 C   0  0  0  0  0  0  0  0  0  0  0  0
    3.6837   -2.8480    0.0383 C   0  0  0  0  0  0  0  0  0  0  0  0
    5.0407   -2.8697    0.2299 C   0  0  0  0  0  0  0  0  0  0  0  0
    5.7450   -1.6918    0.4961 C   0  0  0  0  0  0  0  0  0  0  0  0
    7.1984   -1.7666    0.6954 C   0  0  0  0  0  0  0  0  0  0  0  0
    7.8679   -2.7792    0.6379 O   0  0  0  0  0  0  0  0  0  0  0  0
    7.7915   -0.5657    0.9572 N   0  0  0  0  0  0  0  0  0  0  0  0
    7.1108    0.6385    1.0486 N   0  0  0  0  0  0  0  0  0  0  0  0
    5.7661    0.7840    0.8996 C   0  0  0  0  0  0  0  0  0  0  0  0
    5.2472    1.8713    1.0426 O   0  0  0  0  0  0  0  0  0  0  0  0
    5.0568   -0.4699    0.5689 C   0  0  0  0  0  0  0  0  0  0  0  0
    3.6854   -0.4458    0.3570 C   0  0  0  0  0  0  0  0  0  0  0  0
    2.9478    0.7937    0.4277 N   0  0  0  0  0  4  0  0  0  0  0  0
    2.9347    1.4937   -0.5743 O   0  0  0  0  0  0  0  0  0  0  0  0
    2.4229    1.0743    1.4846 O   0  0  0  0  0  1  0  0  0  0  0  0
   -1.1425   -1.4291   -0.0627 C   0  0  0  0  0  0  0  0  0  0  0  0
   -2.4968   -1.2632   -0.0721 C   0  0  0  0  0  0  0  0  0  0  0  0
   -3.3623   -2.2893    0.2070 O   0  0  0  0  0  0  0  0  0  0  0  0
   -2.8307   -3.5422    0.5640 C   0  0  0  0  0  0  0  0  0  0  0  0
   -5.2290   -1.4735    1.5750 H   0  0  0  0  0  0  0  0  0  0  0  0
   -6.8048   -1.7716    0.8367 H   0  0  0  0  0  0  0  0  0  0  0  0
   -6.4018   -0.1612    1.4356 H   0  0  0  0  0  0  0  0  0  0  0  0
   -5.0491   -1.6009   -0.9054 H   0  0  0  0  0  0  0  0  0  0  0  0
   -6.2278   -0.2974   -1.0610 H   0  0  0  0  0  0  0  0  0  0  0  0
   -4.2208    2.3022    0.2198 H   0  0  0  0  0  0  0  0  0  0  0  0
   -5.8564    1.6557    0.1320 H   0  0  0  0  0  0  0  0  0  0  0  0
   -4.0943    2.2914   -2.2878 H   0  0  0  0  0  0  0  0  0  0  0  0
   -5.7167    1.6051   -2.3657 H   0  0  0  0  0  0  0  0  0  0  0  0
   -5.4727    3.2287   -1.7176 H   0  0  0  0  0  0  0  0  0  0  0  0
   -2.5066    2.0684   -0.7947 H   0  0  0  0  0  0  0  0  0  0  0  0
    1.0853    1.7305   -0.7766 H   0  0  0  0  0  0  0  0  0  0  0  0
    0.8065    5.1354   -1.4133 H   0  0  0  0  0  0  0  0  0  0  0  0
    1.7446    3.6899   -1.8668 H   0  0  0  0  0  0  0  0  0  0  0  0
    1.5680    4.1182   -0.1743 H   0  0  0  0  0  0  0  0  0  0  0  0
    3.1298   -3.7511   -0.1617 H   0  0  0  0  0  0  0  0  0  0  0  0
    5.6020   -3.7905    0.1853 H   0  0  0  0  0  0  0  0  0  0  0  0
    8.7932   -0.5402    1.0885 H   0  0  0  0  0  0  0  0  0  0  0  0
    7.6493    1.4551    1.3046 H   0  0  0  0  0  0  0  0  0  0  0  0
   -0.6887   -2.3834    0.1485 H   0  0  0  0  0  0  0  0  0  0  0  0
   -2.2038   -3.4733    1.4582 H   0  0  0  0  0  0  0  0  0  0  0  0
   -2.2520   -3.9826   -0.2536 H   0  0  0  0  0  0  0  0  0  0  0  0
   -3.6939   -4.1721    0.7746 H   0  0  0  0  0  0  0  0  0  0  0  0
  1  2  1  0  0  0  0
  2  3  1  0  0  0  0
  3  4  1  0  0  0  0
  4  5  1  0  0  0  0
  3  6  1  0  0  0  0
  6  7  2  0  0  0  0
  7  8  1  0  0  0  0
  8  9  1  0  0  0  0
  9 10  1  0  0  0  0
 10 11  1  0  0  0  0
 10 12  2  0  0  0  0
  8 13  2  0  0  0  0
 13 14  1  0  0  0  0
 14 15  2  0  0  0  0
 15 16  1  0  0  0  0
 16 17  2  0  0  0  0
 17 18  1  0  0  0  0
 18 19  2  0  0  0  0
 19 20  1  0  0  0  0
 20 21  2  0  0  0  0
 20 22  1  0  0  0  0
 22 23  1  0  0  0  0
 23 24  1  0  0  0  0
 24 25  2  0  0  0  0
 24 26  1  0  0  0  0
 26 27  2  0  0  0  0
 27 28  1  0  0  0  0
 28 29  2  0  0  0  0
 28 30  1  0  0  0  0
 13 31  1  0  0  0  0
 31 32  2  0  0  0  0
 32 33  1  0  0  0  0
 33 34  1  0  0  0  0
 32  6  1  0  0  0  0
 27 16  1  0  0  0  0
 26 19  1  0  0  0  0
  1 35  1  0  0  0  0
  1 36  1  0  0  0  0
  1 37  1  0  0  0  0
  2 38  1  0  0  0  0
  2 39  1  0  0  0  0
  4 40  1  0  0  0  0
  4 41  1  0  0  0  0
  5 42  1  0  0  0  0
  5 43  1  0  0  0  0
  5 44  1  0  0  0  0
  7 45  1  0  0  0  0
  9 46  1  0  0  0  0
 11 47  1  0  0  0  0
 11 48  1  0  0  0  0
 11 49  1  0  0  0  0
 17 50  1  0  0  0  0
 18 51  1  0  0  0  0
 22 52  1  0  0  0  0
 23 53  1  0  0  0  0
 31 54  1  0  0  0  0
 34 55  1  0  0  0  0
 34 56  1  0  0  0  0
 34 57  1  0  0  0  0
M  CHG  1  28   1
M  CHG  1  30  -1
M  END
