
  xtb     03022213233D
 energy: -119.302773780575 gnorm: 0.000169556554 xtb: 6.4.1 (afa7bdf)
 74 80  0     0  0            999 V2000
    9.9308    0.2793   -3.4120 C   0  0  0  0  0  0  0  0  0  0  0  0
    9.3649    0.4327   -2.0052 C   0  0  0  0  0  0  0  0  0  0  0  0
    7.8842    0.0621   -1.9537 C   0  0  0  0  0  0  0  0  0  0  0  0
    7.2945    0.0989   -0.5436 C   0  0  0  0  0  0  0  0  0  0  0  0
    7.1697    1.5157    0.0121 C   0  0  0  0  0  0  0  0  0  0  0  0
    6.5971    1.5382    1.4293 C   0  0  0  0  0  0  0  0  0  0  0  0
    5.2551    0.9690    1.4877 N   0  0  0  0  0  0  0  0  0  0  0  0
    5.1203   -0.3109    1.9978 C   0  0  0  0  0  0  0  0  0  0  0  0
    6.0809   -0.9270    2.4135 O   0  0  0  0  0  0  0  0  0  0  0  0
    3.7573   -0.8721    2.0161 C   0  0  0  0  0  0  0  0  0  0  0  0
    3.5662   -2.1632    2.4612 C   0  0  0  0  0  0  0  0  0  0  0  0
    2.2888   -2.7247    2.4497 C   0  0  0  0  0  0  0  0  0  0  0  0
    1.2059   -1.9870    2.0425 C   0  0  0  0  0  0  0  0  0  0  0  0
    1.3504   -0.6472    1.6301 C   0  0  0  0  0  0  0  0  0  0  0  0
    0.2567    0.1704    1.2160 C   0  0  0  0  0  0  0  0  0  0  0  0
   -1.1179   -0.2549    1.3795 C   0  0  0  0  0  0  0  0  0  0  0  0
   -1.7073   -0.8978    2.4379 C   0  0  0  0  0  0  0  0  0  0  0  0
   -3.0919   -1.0628    2.2894 C   0  0  0  0  0  0  0  0  0  0  0  0
   -3.5805   -0.5369    1.1209 C   0  0  0  0  0  0  0  0  0  0  0  0
   -4.9370   -0.6092    0.6550 C   0  0  0  0  0  0  0  0  0  0  0  0
   -5.8644   -1.6131    0.8786 C   0  0  0  0  0  0  0  0  0  0  0  0
   -6.9936   -1.2568    0.1152 C   0  0  0  0  0  0  0  0  0  0  0  0
   -8.2623   -1.9525   -0.0198 C   0  0  0  0  0  0  0  0  0  0  0  0
   -9.2555   -1.4212   -0.8436 C   0  0  0  0  0  0  0  0  0  0  0  0
  -10.4707   -2.0584   -0.9874 C   0  0  0  0  0  0  0  0  0  0  0  0
  -10.7035   -3.2415   -0.3022 C   0  0  0  0  0  0  0  0  0  0  0  0
  -12.2245   -4.0460   -0.4756 Cl  0  0  0  0  0  0  0  0  0  0  0  0
   -9.7316   -3.7870    0.5211 C   0  0  0  0  0  0  0  0  0  0  0  0
   -8.5174   -3.1426    0.6594 C   0  0  0  0  0  0  0  0  0  0  0  0
   -6.7613   -0.1147   -0.5246 N   0  0  0  0  0  0  0  0  0  0  0  0
   -5.5362    0.2738   -0.1967 N   0  0  0  0  0  0  0  0  0  0  0  0
   -5.0497    1.5046   -0.6668 C   0  0  0  0  0  0  0  0  0  0  0  0
   -4.4122    2.3906    0.1948 C   0  0  0  0  0  0  0  0  0  0  0  0
   -3.9472    3.5982   -0.2920 C   0  0  0  0  0  0  0  0  0  0  0  0
   -4.1316    3.9323   -1.6236 C   0  0  0  0  0  0  0  0  0  0  0  0
   -4.7966    3.0609   -2.4705 C   0  0  0  0  0  0  0  0  0  0  0  0
   -5.2578    1.8468   -1.9969 C   0  0  0  0  0  0  0  0  0  0  0  0
   -2.3025    0.1636    0.1742 S   0  0  0  0  0  0  0  0  0  0  0  0
    0.5117    1.4191    0.6729 C   0  0  0  0  0  0  0  0  0  0  0  0
    1.8019    1.9290    0.5974 C   0  0  0  0  0  0  0  0  0  0  0  0
    2.8717    1.1953    1.0708 C   0  0  0  0  0  0  0  0  0  0  0  0
    2.6604   -0.1031    1.5757 C   0  0  0  0  0  0  0  0  0  0  0  0
    4.2241    1.7704    1.0262 C   0  0  0  0  0  0  0  0  0  0  0  0
    4.4465    2.8920    0.6154 O   0  0  0  0  0  0  0  0  0  0  0  0
    9.3984    0.9232   -4.1088 H   0  0  0  0  0  0  0  0  0  0  0  0
   10.9844    0.5479   -3.4334 H   0  0  0  0  0  0  0  0  0  0  0  0
    9.8319   -0.7488   -3.7541 H   0  0  0  0  0  0  0  0  0  0  0  0
    9.9199   -0.2108   -1.3187 H   0  0  0  0  0  0  0  0  0  0  0  0
    9.5009    1.4650   -1.6790 H   0  0  0  0  0  0  0  0  0  0  0  0
    7.7660   -0.9480   -2.3540 H   0  0  0  0  0  0  0  0  0  0  0  0
    7.3192    0.7400   -2.5982 H   0  0  0  0  0  0  0  0  0  0  0  0
    6.3027   -0.3609   -0.5716 H   0  0  0  0  0  0  0  0  0  0  0  0
    7.9130   -0.5008    0.1276 H   0  0  0  0  0  0  0  0  0  0  0  0
    8.1508    1.9896    0.0505 H   0  0  0  0  0  0  0  0  0  0  0  0
    6.5297    2.1138   -0.6392 H   0  0  0  0  0  0  0  0  0  0  0  0
    7.2222    0.9490    2.1021 H   0  0  0  0  0  0  0  0  0  0  0  0
    6.5342    2.5702    1.7824 H   0  0  0  0  0  0  0  0  0  0  0  0
    4.4226   -2.7307    2.7924 H   0  0  0  0  0  0  0  0  0  0  0  0
    2.1568   -3.7508    2.7580 H   0  0  0  0  0  0  0  0  0  0  0  0
    0.2295   -2.4444    2.0094 H   0  0  0  0  0  0  0  0  0  0  0  0
   -1.1693   -1.1954    3.3201 H   0  0  0  0  0  0  0  0  0  0  0  0
   -3.7196   -1.5303    3.0265 H   0  0  0  0  0  0  0  0  0  0  0  0
   -5.7217   -2.4827    1.4853 H   0  0  0  0  0  0  0  0  0  0  0  0
   -9.0529   -0.4991   -1.3646 H   0  0  0  0  0  0  0  0  0  0  0  0
  -11.2369   -1.6449   -1.6246 H   0  0  0  0  0  0  0  0  0  0  0  0
   -9.9267   -4.7079    1.0484 H   0  0  0  0  0  0  0  0  0  0  0  0
   -7.7651   -3.5720    1.3023 H   0  0  0  0  0  0  0  0  0  0  0  0
   -4.2931    2.1389    1.2383 H   0  0  0  0  0  0  0  0  0  0  0  0
   -3.4481    4.2850    0.3750 H   0  0  0  0  0  0  0  0  0  0  0  0
   -3.7660    4.8764   -1.9978 H   0  0  0  0  0  0  0  0  0  0  0  0
   -4.9540    3.3263   -3.5049 H   0  0  0  0  0  0  0  0  0  0  0  0
   -5.7820    1.1561   -2.6385 H   0  0  0  0  0  0  0  0  0  0  0  0
   -0.3179    2.0213    0.3306 H   0  0  0  0  0  0  0  0  0  0  0  0
    1.9850    2.9121    0.1910 H   0  0  0  0  0  0  0  0  0  0  0  0
  1  2  1  0  0  0  0
  2  3  1  0  0  0  0
  3  4  1  0  0  0  0
  4  5  1  0  0  0  0
  5  6  1  0  0  0  0
  6  7  1  0  0  0  0
  7  8  1  0  0  0  0
  8  9  2  0  0  0  0
  8 10  1  0  0  0  0
 10 11  1  0  0  0  0
 11 12  2  0  0  0  0
 12 13  1  0  0  0  0
 13 14  2  0  0  0  0
 14 15  1  0  0  0  0
 15 16  1  0  0  0  0
 16 17  2  0  0  0  0
 17 18  1  0  0  0  0
 18 19  2  0  0  0  0
 19 20  1  0  0  0  0
 20 21  2  0  0  0  0
 21 22  1  0  0  0  0
 22 23  1  0  0  0  0
 23 24  2  0  0  0  0
 24 25  1  0  0  0  0
 25 26  2  0  0  0  0
 26 27  1  0  0  0  0
 26 28  1  0  0  0  0
 28 29  2  0  0  0  0
 22 30  2  0  0  0  0
 30 31  1  0  0  0  0
 31 32  1  0  0  0  0
 32 33  2  0  0  0  0
 33 34  1  0  0  0  0
 34 35  2  0  0  0  0
 35 36  1  0  0  0  0
 36 37  2  0  0  0  0
 19 38  1  0  0  0  0
 15 39  2  0  0  0  0
 39 40  1  0  0  0  0
 40 41  2  0  0  0  0
 41 42  1  0  0  0  0
 41 43  1  0  0  0  0
 43 44  2  0  0  0  0
 43  7  1  0  0  0  0
 42 10  2  0  0  0  0
 42 14  1  0  0  0  0
 38 16  1  0  0  0  0
 31 20  1  0  0  0  0
 37 32  1  0  0  0  0
 29 23  1  0  0  0  0
  1 45  1  0  0  0  0
  1 46  1  0  0  0  0
  1 47  1  0  0  0  0
  2 48  1  0  0  0  0
  2 49  1  0  0  0  0
  3 50  1  0  0  0  0
  3 51  1  0  0  0  0
  4 52  1  0  0  0  0
  4 53  1  0  0  0  0
  5 54  1  0  0  0  0
  5 55  1  0  0  0  0
  6 56  1  0  0  0  0
  6 57  1  0  0  0  0
 11 58  1  0  0  0  0
 12 59  1  0  0  0  0
 13 60  1  0  0  0  0
 17 61  1  0  0  0  0
 18 62  1  0  0  0  0
 21 63  1  0  0  0  0
 24 64  1  0  0  0  0
 25 65  1  0  0  0  0
 28 66  1  0  0  0  0
 29 67  1  0  0  0  0
 33 68  1  0  0  0  0
 34 69  1  0  0  0  0
 35 70  1  0  0  0  0
 36 71  1  0  0  0  0
 37 72  1  0  0  0  0
 39 73  1  0  0  0  0
 40 74  1  0  0  0  0
M  END
