
  xtb     03022212393D
 energy: -113.208873427465 gnorm: 0.000525340883 xtb: 6.4.1 (afa7bdf)
 63 67  0     0  0            999 V2000
    5.1617   -5.5565   -0.2419 C   0  0  0  0  0  0  0  0  0  0  0  0
    4.8512   -4.2191    0.1288 O   0  0  0  0  0  0  0  0  0  0  0  0
    3.8513   -3.6350   -0.5357 C   0  0  0  0  0  0  0  0  0  0  0  0
    3.2262   -4.1720   -1.4124 O   0  0  0  0  0  0  0  0  0  0  0  0
    3.6030   -2.2293   -0.0375 C   0  0  0  0  0  0  0  0  0  0  0  0
    3.4827   -1.2482   -1.2178 C   0  0  0  0  0  0  0  0  0  0  0  0
    2.7041   -0.0407   -0.8279 C   0  0  0  0  0  0  0  0  0  0  0  0
    3.1683    1.2007   -0.4589 C   0  0  0  0  0  0  0  0  0  0  0  0
    2.0422    1.9885   -0.1278 C   0  0  0  0  0  0  0  0  0  0  0  0
    1.9826    3.3015    0.3224 C   0  0  0  0  0  0  0  0  0  0  0  0
    1.8129    4.4273    0.7360 C   0  0  0  0  0  0  0  0  0  0  0  0
    1.5777    5.7173    1.2200 C   0  0  0  0  0  0  0  0  0  0  0  0
    2.5299    6.7782    1.2598 C   0  0  0  0  0  0  0  0  0  0  0  0
    2.0075    7.9153    1.7727 C   0  0  0  0  0  0  0  0  0  0  0  0
    0.3516    7.7326    2.2236 S   0  0  0  0  0  0  0  0  0  0  0  0
    0.3559    6.1017    1.7133 C   0  0  0  0  0  0  0  0  0  0  0  0
    0.9237    1.2579   -0.2882 N   0  0  0  0  0  4  0  0  0  0  0  0
    1.2834    0.0054   -0.7184 C   0  0  0  0  0  0  0  0  0  0  0  0
    0.3323   -0.9712   -0.9745 C   0  0  0  0  0  0  0  0  0  0  0  0
   -1.0150   -0.7015   -0.7969 C   0  0  0  0  0  0  0  0  0  0  0  0
   -2.1602   -1.5326   -0.9824 C   0  0  0  0  0  0  0  0  0  0  0  0
   -2.1301   -2.9634   -1.3926 C   0  0  0  0  0  0  0  0  0  0  0  0
   -1.6893   -3.8600   -0.2297 C   0  0  0  0  0  0  0  0  0  0  0  0
   -1.7412   -5.3219   -0.6138 C   0  0  0  0  0  0  0  0  0  0  0  0
   -2.3686   -5.7829   -1.5282 O   0  0  0  0  0  0  0  0  0  0  0  0
   -0.9965   -6.0569    0.2218 O   0  0  0  0  0  0  0  0  0  0  0  0
   -0.9767   -7.4572   -0.0232 C   0  0  0  0  0  0  0  0  0  0  0  0
   -3.2576   -0.7623   -0.6750 C   0  0  0  0  0  0  0  0  0  0  0  0
   -2.7855    0.5209   -0.3158 C   0  0  0  0  0  0  0  0  0  0  0  0
   -3.4926    1.6616    0.0426 C   0  0  0  0  0  0  0  0  0  0  0  0
   -3.9879    2.7246    0.3464 C   0  0  0  0  0  0  0  0  0  0  0  0
   -4.5053    3.9781    0.6842 C   0  0  0  0  0  0  0  0  0  0  0  0
   -5.8497    4.2575    1.0682 C   0  0  0  0  0  0  0  0  0  0  0  0
   -6.0417    5.5687    1.3386 C   0  0  0  0  0  0  0  0  0  0  0  0
   -4.6034    6.5002    1.1304 S   0  0  0  0  0  0  0  0  0  0  0  0
   -3.7243    5.1072    0.6772 C   0  0  0  0  0  0  0  0  0  0  0  0
   -1.4421    0.5380   -0.3875 N   0  0  0  0  0  0  0  0  0  0  0  0
   -0.5257    1.7338   -0.0426 B   0  0  0  0  0  4  0  0  0  0  0  0
   -0.8189    2.8179   -0.8470 F   0  0  0  0  0  0  0  0  0  0  0  0
   -0.6911    2.0898    1.2844 F   0  0  0  0  0  0  0  0  0  0  0  0
    5.4043   -5.6071   -1.3051 H   0  0  0  0  0  0  0  0  0  0  0  0
    6.0172   -5.8487    0.3611 H   0  0  0  0  0  0  0  0  0  0  0  0
    4.3107   -6.2109   -0.0438 H   0  0  0  0  0  0  0  0  0  0  0  0
    2.6592   -2.2456    0.5136 H   0  0  0  0  0  0  0  0  0  0  0  0
    4.3981   -1.9382    0.6470 H   0  0  0  0  0  0  0  0  0  0  0  0
    4.4786   -0.9584   -1.5552 H   0  0  0  0  0  0  0  0  0  0  0  0
    2.9766   -1.7638   -2.0375 H   0  0  0  0  0  0  0  0  0  0  0  0
    4.1869    1.5346   -0.4209 H   0  0  0  0  0  0  0  0  0  0  0  0
    3.5430    6.6748    0.9154 H   0  0  0  0  0  0  0  0  0  0  0  0
    2.4883    8.8622    1.9181 H   0  0  0  0  0  0  0  0  0  0  0  0
   -0.5202    5.4915    1.8056 H   0  0  0  0  0  0  0  0  0  0  0  0
    0.6459   -1.9439   -1.3203 H   0  0  0  0  0  0  0  0  0  0  0  0
   -3.1215   -3.2781   -1.7209 H   0  0  0  0  0  0  0  0  0  0  0  0
   -1.4397   -3.1011   -2.2275 H   0  0  0  0  0  0  0  0  0  0  0  0
   -0.6784   -3.6207    0.1015 H   0  0  0  0  0  0  0  0  0  0  0  0
   -2.3585   -3.7188    0.6232 H   0  0  0  0  0  0  0  0  0  0  0  0
   -1.9946   -7.8500   -0.0594 H   0  0  0  0  0  0  0  0  0  0  0  0
   -0.4222   -7.9027    0.7985 H   0  0  0  0  0  0  0  0  0  0  0  0
   -0.4848   -7.6657   -0.9753 H   0  0  0  0  0  0  0  0  0  0  0  0
   -4.2895   -1.0533   -0.7065 H   0  0  0  0  0  0  0  0  0  0  0  0
   -6.6134    3.5039    1.1352 H   0  0  0  0  0  0  0  0  0  0  0  0
   -6.9428    6.0591    1.6490 H   0  0  0  0  0  0  0  0  0  0  0  0
   -2.6880    5.1671    0.4103 H   0  0  0  0  0  0  0  0  0  0  0  0
  1  2  1  0  0  0  0
  2  3  1  0  0  0  0
  3  4  2  0  0  0  0
  3  5  1  0  0  0  0
  5  6  1  0  0  0  0
  6  7  1  0  0  0  0
  7  8  2  0  0  0  0
  8  9  1  0  0  0  0
  9 10  1  0  0  0  0
 10 11  3  0  0  0  0
 11 12  1  0  0  0  0
 12 13  1  0  0  0  0
 13 14  2  0  0  0  0
 14 15  1  0  0  0  0
 15 16  1  0  0  0  0
  9 17  2  0  0  0  0
 17 18  1  0  0  0  0
 18 19  2  0  0  0  0
 19 20  1  0  0  0  0
 20 21  2  0  0  0  0
 21 22  1  0  0  0  0
 22 23  1  0  0  0  0
 23 24  1  0  0  0  0
 24 25  2  0  0  0  0
 24 26  1  0  0  0  0
 26 27  1  0  0  0  0
 21 28  1  0  0  0  0
 28 29  2  0  0  0  0
 29 30  1  0  0  0  0
 30 31  3  0  0  0  0
 31 32  1  0  0  0  0
 32 33  1  0  0  0  0
 33 34  2  0  0  0  0
 34 35  1  0  0  0  0
 35 36  1  0  0  0  0
 29 37  1  0  0  0  0
 37 38  1  0  0  0  0
 38 39  1  0  0  0  0
 38 40  1  0  0  0  0
 18  7  1  0  0  0  0
 37 20  1  0  0  0  0
 16 12  2  0  0  0  0
 38 17  1  0  0  0  0
 36 32  2  0  0  0  0
  1 41  1  0  0  0  0
  1 42  1  0  0  0  0
  1 43  1  0  0  0  0
  5 44  1  0  0  0  0
  5 45  1  0  0  0  0
  6 46  1  0  0  0  0
  6 47  1  0  0  0  0
  8 48  1  0  0  0  0
 13 49  1  0  0  0  0
 14 50  1  0  0  0  0
 16 51  1  0  0  0  0
 19 52  1  0  0  0  0
 22 53  1  0  0  0  0
 22 54  1  0  0  0  0
 23 55  1  0  0  0  0
 23 56  1  0  0  0  0
 27 57  1  0  0  0  0
 27 58  1  0  0  0  0
 27 59  1  0  0  0  0
 28 60  1  0  0  0  0
 33 61  1  0  0  0  0
 34 62  1  0  0  0  0
 36 63  1  0  0  0  0
M  CHG  1  17   1
M  CHG  1  38  -1
M  END
