
  xtb     03022212163D
 energy: -129.229965446668 gnorm: 0.000080210477 xtb: 6.4.1 (afa7bdf)
 81 91  0     0  0            999 V2000
   -7.9271   -3.8796    0.8855 C   0  0  0  0  0  0  0  0  0  0  0  0
   -7.4837   -2.9103   -0.2191 C   0  0  0  0  0  0  0  0  0  0  0  0
   -6.2205   -3.4784   -0.8717 C   0  0  0  0  0  0  0  0  0  0  0  0
   -8.5735   -2.8123   -1.2962 C   0  0  0  0  0  0  0  0  0  0  0  0
   -7.2602   -1.5317    0.3857 C   0  0  0  0  0  0  0  0  0  0  0  0
   -8.3341   -0.8905    1.0170 C   0  0  0  0  0  0  0  0  0  0  0  0
   -8.2331    0.3656    1.5848 C   0  0  0  0  0  0  0  0  0  0  0  0
   -7.0070    0.9972    1.5128 C   0  0  0  0  0  0  0  0  0  0  0  0
   -6.6896    2.2376    1.9927 O   0  0  0  0  0  0  0  0  0  0  0  0
   -5.3969    2.4398    1.6880 C   0  0  0  0  0  0  0  0  0  0  0  0
   -4.7737    3.5602    1.9984 N   0  0  0  0  0  0  0  0  0  0  0  0
   -3.5133    3.5819    1.6114 C   0  0  0  0  0  0  0  0  0  0  0  0
   -2.7216    4.6505    1.8250 O   0  0  0  0  0  0  0  0  0  0  0  0
   -1.5056    4.3408    1.2927 C   0  0  0  0  0  0  0  0  0  0  0  0
   -0.3881    5.1550    1.2678 C   0  0  0  0  0  0  0  0  0  0  0  0
    0.7529    4.6528    0.6720 C   0  0  0  0  0  0  0  0  0  0  0  0
    0.7796    3.3714    0.1093 C   0  0  0  0  0  0  0  0  0  0  0  0
    1.9645    2.9139   -0.4880 N   0  0  0  0  0  0  0  0  0  0  0  0
    2.6830    3.5801   -1.4607 C   0  0  0  0  0  0  0  0  0  0  0  0
    2.3900    4.7677   -2.1157 C   0  0  0  0  0  0  0  0  0  0  0  0
    3.2750    5.2045   -3.0823 C   0  0  0  0  0  0  0  0  0  0  0  0
    4.4221    4.4798   -3.4006 C   0  0  0  0  0  0  0  0  0  0  0  0
    4.7091    3.2885   -2.7655 C   0  0  0  0  0  0  0  0  0  0  0  0
    3.8342    2.8288   -1.7896 C   0  0  0  0  0  0  0  0  0  0  0  0
    3.8060    1.6579   -0.9594 C   0  0  0  0  0  0  0  0  0  0  0  0
    4.6727    0.5876   -0.7990 C   0  0  0  0  0  0  0  0  0  0  0  0
    4.3563   -0.3872    0.1357 C   0  0  0  0  0  0  0  0  0  0  0  0
    5.2178   -1.4811    0.3225 N   0  0  0  0  0  0  0  0  0  0  0  0
    5.6985   -2.3073   -0.6714 C   0  0  0  0  0  0  0  0  0  0  0  0
    5.4177   -2.3098   -2.0305 C   0  0  0  0  0  0  0  0  0  0  0  0
    6.0246   -3.2734   -2.8124 C   0  0  0  0  0  0  0  0  0  0  0  0
    6.8865   -4.2203   -2.2624 C   0  0  0  0  0  0  0  0  0  0  0  0
    7.1544   -4.2351   -0.9084 C   0  0  0  0  0  0  0  0  0  0  0  0
    6.5563   -3.2765   -0.1010 C   0  0  0  0  0  0  0  0  0  0  0  0
    6.5945   -3.0064    1.3085 C   0  0  0  0  0  0  0  0  0  0  0  0
    7.2631   -3.5901    2.3767 C   0  0  0  0  0  0  0  0  0  0  0  0
    7.0935   -3.0528    3.6368 C   0  0  0  0  0  0  0  0  0  0  0  0
    6.2799   -1.9395    3.8376 C   0  0  0  0  0  0  0  0  0  0  0  0
    5.6039   -1.3416    2.7918 C   0  0  0  0  0  0  0  0  0  0  0  0
    5.7537   -1.8900    1.5258 C   0  0  0  0  0  0  0  0  0  0  0  0
    3.1914   -0.2885    0.9062 C   0  0  0  0  0  0  0  0  0  0  0  0
    2.3258    0.7774    0.7675 C   0  0  0  0  0  0  0  0  0  0  0  0
    2.6314    1.7478   -0.1762 C   0  0  0  0  0  0  0  0  0  0  0  0
   -0.3442    2.5562    0.1340 C   0  0  0  0  0  0  0  0  0  0  0  0
   -1.4956    3.0474    0.7314 C   0  0  0  0  0  0  0  0  0  0  0  0
   -2.8248    2.5394    0.9339 C   0  0  0  0  0  0  0  0  0  0  0  0
   -3.5020    1.3709    0.6174 C   0  0  0  0  0  0  0  0  0  0  0  0
   -4.8311    1.3261    1.0050 C   0  0  0  0  0  0  0  0  0  0  0  0
   -5.9078    0.3796    0.8920 C   0  0  0  0  0  0  0  0  0  0  0  0
   -6.0357   -0.8841    0.3298 C   0  0  0  0  0  0  0  0  0  0  0  0
   -8.8615   -3.5645    1.3408 H   0  0  0  0  0  0  0  0  0  0  0  0
   -7.1696   -3.9340    1.6644 H   0  0  0  0  0  0  0  0  0  0  0  0
   -8.0696   -4.8757    0.4723 H   0  0  0  0  0  0  0  0  0  0  0  0
   -5.8789   -2.8417   -1.6844 H   0  0  0  0  0  0  0  0  0  0  0  0
   -6.4385   -4.4607   -1.2855 H   0  0  0  0  0  0  0  0  0  0  0  0
   -5.4204   -3.5921   -0.1440 H   0  0  0  0  0  0  0  0  0  0  0  0
   -8.7297   -3.7844   -1.7585 H   0  0  0  0  0  0  0  0  0  0  0  0
   -8.2760   -2.1064   -2.0688 H   0  0  0  0  0  0  0  0  0  0  0  0
   -9.5189   -2.4797   -0.8774 H   0  0  0  0  0  0  0  0  0  0  0  0
   -9.2899   -1.3879    1.0670 H   0  0  0  0  0  0  0  0  0  0  0  0
   -9.0750    0.8392    2.0628 H   0  0  0  0  0  0  0  0  0  0  0  0
   -0.4115    6.1403    1.7032 H   0  0  0  0  0  0  0  0  0  0  0  0
    1.6516    5.2496    0.6444 H   0  0  0  0  0  0  0  0  0  0  0  0
    1.4959    5.3272   -1.8850 H   0  0  0  0  0  0  0  0  0  0  0  0
    3.0715    6.1268   -3.6058 H   0  0  0  0  0  0  0  0  0  0  0  0
    5.0891    4.8564   -4.1615 H   0  0  0  0  0  0  0  0  0  0  0  0
    5.5907    2.7204   -3.0208 H   0  0  0  0  0  0  0  0  0  0  0  0
    5.5842    0.5202   -1.3726 H   0  0  0  0  0  0  0  0  0  0  0  0
    4.7404   -1.5880   -2.4622 H   0  0  0  0  0  0  0  0  0  0  0  0
    5.8249   -3.2951   -3.8738 H   0  0  0  0  0  0  0  0  0  0  0  0
    7.3435   -4.9555   -2.9082 H   0  0  0  0  0  0  0  0  0  0  0  0
    7.8124   -4.9765   -0.4805 H   0  0  0  0  0  0  0  0  0  0  0  0
    7.9054   -4.4435    2.2188 H   0  0  0  0  0  0  0  0  0  0  0  0
    7.6037   -3.4922    4.4811 H   0  0  0  0  0  0  0  0  0  0  0  0
    6.1789   -1.5323    4.8331 H   0  0  0  0  0  0  0  0  0  0  0  0
    4.9889   -0.4689    2.9536 H   0  0  0  0  0  0  0  0  0  0  0  0
    2.9720   -1.0698    1.6182 H   0  0  0  0  0  0  0  0  0  0  0  0
    1.4411    0.8528    1.3814 H   0  0  0  0  0  0  0  0  0  0  0  0
   -0.3216    1.5746   -0.3133 H   0  0  0  0  0  0  0  0  0  0  0  0
   -3.0254    0.5531    0.0989 H   0  0  0  0  0  0  0  0  0  0  0  0
   -5.1773   -1.3317   -0.1415 H   0  0  0  0  0  0  0  0  0  0  0  0
  1  2  1  0  0  0  0
  2  3  1  0  0  0  0
  2  4  1  0  0  0  0
  2  5  1  0  0  0  0
  5  6  2  0  0  0  0
  6  7  1  0  0  0  0
  7  8  2  0  0  0  0
  8  9  1  0  0  0  0
  9 10  1  0  0  0  0
 10 11  2  0  0  0  0
 11 12  1  0  0  0  0
 12 13  1  0  0  0  0
 13 14  1  0  0  0  0
 14 15  2  0  0  0  0
 15 16  1  0  0  0  0
 16 17  2  0  0  0  0
 17 18  1  0  0  0  0
 18 19  1  0  0  0  0
 19 20  2  0  0  0  0
 20 21  1  0  0  0  0
 21 22  2  0  0  0  0
 22 23  1  0  0  0  0
 23 24  2  0  0  0  0
 24 25  1  0  0  0  0
 25 26  2  0  0  0  0
 26 27  1  0  0  0  0
 27 28  1  0  0  0  0
 28 29  1  0  0  0  0
 29 30  2  0  0  0  0
 30 31  1  0  0  0  0
 31 32  2  0  0  0  0
 32 33  1  0  0  0  0
 33 34  2  0  0  0  0
 34 35  1  0  0  0  0
 35 36  2  0  0  0  0
 36 37  1  0  0  0  0
 37 38  2  0  0  0  0
 38 39  1  0  0  0  0
 39 40  2  0  0  0  0
 27 41  2  0  0  0  0
 41 42  1  0  0  0  0
 42 43  2  0  0  0  0
 17 44  1  0  0  0  0
 44 45  2  0  0  0  0
 45 46  1  0  0  0  0
 46 47  1  0  0  0  0
 47 48  2  0  0  0  0
 48 49  1  0  0  0  0
 49 50  2  0  0  0  0
 50  5  1  0  0  0  0
 49  8  1  0  0  0  0
 48 10  1  0  0  0  0
 46 12  2  0  0  0  0
 45 14  1  0  0  0  0
 43 18  1  0  0  0  0
 24 19  1  0  0  0  0
 43 25  1  0  0  0  0
 40 28  1  0  0  0  0
 34 29  1  0  0  0  0
 40 35  1  0  0  0  0
  1 51  1  0  0  0  0
  1 52  1  0  0  0  0
  1 53  1  0  0  0  0
  3 54  1  0  0  0  0
  3 55  1  0  0  0  0
  3 56  1  0  0  0  0
  4 57  1  0  0  0  0
  4 58  1  0  0  0  0
  4 59  1  0  0  0  0
  6 60  1  0  0  0  0
  7 61  1  0  0  0  0
 15 62  1  0  0  0  0
 16 63  1  0  0  0  0
 20 64  1  0  0  0  0
 21 65  1  0  0  0  0
 22 66  1  0  0  0  0
 23 67  1  0  0  0  0
 26 68  1  0  0  0  0
 30 69  1  0  0  0  0
 31 70  1  0  0  0  0
 32 71  1  0  0  0  0
 33 72  1  0  0  0  0
 36 73  1  0  0  0  0
 37 74  1  0  0  0  0
 38 75  1  0  0  0  0
 39 76  1  0  0  0  0
 41 77  1  0  0  0  0
 42 78  1  0  0  0  0
 44 79  1  0  0  0  0
 47 80  1  0  0  0  0
 50 81  1  0  0  0  0
M  END
