
  xtb     03022215163D
 energy: -149.794529452173 gnorm: 0.000157716374 xtb: 6.4.1 (afa7bdf)
101111  0     0  0            999 V2000
   -3.9351    1.5448    1.9277 C   0  0  0  0  0  0  0  0  0  0  0  0
   -4.8633    0.3418    1.8016 C   0  0  0  0  0  0  0  0  0  0  0  0
   -6.3349    0.6999    2.0332 C   0  0  0  0  0  0  0  0  0  0  0  0
   -6.9943    1.3976    0.8408 C   0  0  0  0  0  0  0  0  0  0  0  0
   -7.3636    0.4166   -0.2703 C   0  0  0  0  0  0  0  0  0  0  0  0
   -7.8265    1.1339   -1.5431 C   0  0  0  0  0  0  0  0  0  0  0  0
   -7.9699    0.2080   -2.7165 C   0  0  0  0  0  0  0  0  0  0  0  0
   -9.1990    0.0736   -3.4096 C   0  0  0  0  0  0  0  0  0  0  0  0
   -9.1642   -0.8421   -4.4086 C   0  0  0  0  0  0  0  0  0  0  0  0
   -7.6268   -1.5907   -4.5343 S   0  0  0  0  0  0  0  0  0  0  0  0
   -7.0045   -0.6320   -3.2179 C   0  0  0  0  0  0  0  0  0  0  0  0
   -5.6322   -0.8445   -2.7827 C   0  0  0  0  0  0  0  0  0  0  0  0
   -5.1046   -2.1512   -2.7695 C   0  0  0  0  0  0  0  0  0  0  0  0
   -3.8441   -2.4195   -2.2926 C   0  0  0  0  0  0  0  0  0  0  0  0
   -3.0837   -1.3688   -1.7851 C   0  0  0  0  0  0  0  0  0  0  0  0
   -3.5901   -0.0370   -1.8236 C   0  0  0  0  0  0  0  0  0  0  0  0
   -4.8491    0.2184   -2.3540 C   0  0  0  0  0  0  0  0  0  0  0  0
   -2.5846    0.7976   -1.2416 C   0  0  0  0  0  0  0  0  0  0  0  0
   -1.5947    0.0033   -0.8151 N   0  0  0  0  0  4  0  0  0  0  0  0
   -1.7850   -1.3042   -1.1961 C   0  0  0  0  0  0  0  0  0  0  0  0
   -0.7375   -2.2113   -1.1324 C   0  0  0  0  0  0  0  0  0  0  0  0
    0.4976   -1.8197   -0.6366 C   0  0  0  0  0  0  0  0  0  0  0  0
    1.6672   -2.5562   -0.2799 C   0  0  0  0  0  0  0  0  0  0  0  0
    2.0745   -3.8673   -0.5144 C   0  0  0  0  0  0  0  0  0  0  0  0
    3.2766   -4.2867    0.0006 C   0  0  0  0  0  0  0  0  0  0  0  0
    4.0934   -3.4437    0.7838 C   0  0  0  0  0  0  0  0  0  0  0  0
    5.3511   -3.9597    1.3013 C   0  0  0  0  0  0  0  0  0  0  0  0
    5.4542   -5.6678    1.6493 S   0  0  0  0  0  0  0  0  0  0  0  0
    7.0849   -5.5158    2.1527 C   0  0  0  0  0  0  0  0  0  0  0  0
    7.5248   -4.2379    2.0499 C   0  0  0  0  0  0  0  0  0  0  0  0
    6.5461   -3.3330    1.5686 C   0  0  0  0  0  0  0  0  0  0  0  0
    6.8786   -1.8871    1.3415 C   0  0  0  0  0  0  0  0  0  0  0  0
    6.7413   -1.4871   -0.1313 C   0  0  0  0  0  0  0  0  0  0  0  0
    6.8062    0.0217   -0.3726 C   0  0  0  0  0  0  0  0  0  0  0  0
    8.1329    0.6790    0.0312 C   0  0  0  0  0  0  0  0  0  0  0  0
    8.1045    1.3170    1.4199 C   0  0  0  0  0  0  0  0  0  0  0  0
    9.4371    1.9733    1.7609 C   0  0  0  0  0  0  0  0  0  0  0  0
    3.6729   -2.1488    1.0549 C   0  0  0  0  0  0  0  0  0  0  0  0
    2.4828   -1.6893    0.5027 C   0  0  0  0  0  0  0  0  0  0  0  0
    1.7937   -0.4383    0.5745 C   0  0  0  0  0  0  0  0  0  0  0  0
    0.6834   -0.5400   -0.1668 N   0  0  0  0  0  0  0  0  0  0  0  0
   -0.3362    0.5743   -0.2076 B   0  0  0  0  0  4  0  0  0  0  0  0
    0.0327    1.7459   -1.0373 O   0  0  0  0  0  0  0  0  0  0  0  0
   -0.9675    2.6058   -1.2570 C   0  0  0  0  0  0  0  0  0  0  0  0
   -0.6540    3.9413   -1.5117 C   0  0  0  0  0  0  0  0  0  0  0  0
   -1.6492    4.8756   -1.7059 C   0  0  0  0  0  0  0  0  0  0  0  0
   -2.9871    4.5019   -1.6582 C   0  0  0  0  0  0  0  0  0  0  0  0
   -3.3202    3.1811   -1.4551 C   0  0  0  0  0  0  0  0  0  0  0  0
   -2.3336    2.2099   -1.2719 C   0  0  0  0  0  0  0  0  0  0  0  0
   -0.4737    1.0554    1.1927 O   0  0  0  0  0  0  0  0  0  0  0  0
    0.6884    1.3438    1.7894 C   0  0  0  0  0  0  0  0  0  0  0  0
    0.7002    2.2954    2.8090 C   0  0  0  0  0  0  0  0  0  0  0  0
    1.8818    2.6564    3.4223 C   0  0  0  0  0  0  0  0  0  0  0  0
    3.0843    2.0752    3.0380 C   0  0  0  0  0  0  0  0  0  0  0  0
    3.0909    1.0977    2.0674 C   0  0  0  0  0  0  0  0  0  0  0  0
    1.9072    0.6968    1.4453 C   0  0  0  0  0  0  0  0  0  0  0  0
   -4.0069    1.9732    2.9257 H   0  0  0  0  0  0  0  0  0  0  0  0
   -4.1912    2.3177    1.2071 H   0  0  0  0  0  0  0  0  0  0  0  0
   -2.9019    1.2526    1.7533 H   0  0  0  0  0  0  0  0  0  0  0  0
   -4.5646   -0.4066    2.5392 H   0  0  0  0  0  0  0  0  0  0  0  0
   -4.7424   -0.1093    0.8148 H   0  0  0  0  0  0  0  0  0  0  0  0
   -6.8973   -0.2097    2.2574 H   0  0  0  0  0  0  0  0  0  0  0  0
   -6.3984    1.3488    2.9098 H   0  0  0  0  0  0  0  0  0  0  0  0
   -6.3128    2.1537    0.4464 H   0  0  0  0  0  0  0  0  0  0  0  0
   -7.8967    1.9143    1.1768 H   0  0  0  0  0  0  0  0  0  0  0  0
   -6.4985   -0.2039   -0.5005 H   0  0  0  0  0  0  0  0  0  0  0  0
   -8.1599   -0.2467    0.0753 H   0  0  0  0  0  0  0  0  0  0  0  0
   -7.1218    1.9340   -1.7843 H   0  0  0  0  0  0  0  0  0  0  0  0
   -8.7923    1.6090   -1.3574 H   0  0  0  0  0  0  0  0  0  0  0  0
  -10.0764    0.6455   -3.1625 H   0  0  0  0  0  0  0  0  0  0  0  0
   -9.9476   -1.1298   -5.0810 H   0  0  0  0  0  0  0  0  0  0  0  0
   -5.7240   -2.9574   -3.1346 H   0  0  0  0  0  0  0  0  0  0  0  0
   -3.4598   -3.4282   -2.2874 H   0  0  0  0  0  0  0  0  0  0  0  0
   -5.2194    1.2253   -2.4324 H   0  0  0  0  0  0  0  0  0  0  0  0
   -0.8848   -3.2258   -1.4652 H   0  0  0  0  0  0  0  0  0  0  0  0
    1.4629   -4.5366   -1.1004 H   0  0  0  0  0  0  0  0  0  0  0  0
    3.6163   -5.2939   -0.1922 H   0  0  0  0  0  0  0  0  0  0  0  0
    7.6171   -6.3829    2.4895 H   0  0  0  0  0  0  0  0  0  0  0  0
    8.5244   -3.9351    2.3093 H   0  0  0  0  0  0  0  0  0  0  0  0
    6.2390   -1.2505    1.9562 H   0  0  0  0  0  0  0  0  0  0  0  0
    7.9072   -1.7234    1.6664 H   0  0  0  0  0  0  0  0  0  0  0  0
    5.7843   -1.8507   -0.5113 H   0  0  0  0  0  0  0  0  0  0  0  0
    7.5301   -1.9804   -0.7042 H   0  0  0  0  0  0  0  0  0  0  0  0
    5.9847    0.5088    0.1580 H   0  0  0  0  0  0  0  0  0  0  0  0
    6.6379    0.1856   -1.4393 H   0  0  0  0  0  0  0  0  0  0  0  0
    8.3771    1.4622   -0.6904 H   0  0  0  0  0  0  0  0  0  0  0  0
    8.9352   -0.0606   -0.0143 H   0  0  0  0  0  0  0  0  0  0  0  0
    7.3140    2.0710    1.4485 H   0  0  0  0  0  0  0  0  0  0  0  0
    7.8727    0.5660    2.1759 H   0  0  0  0  0  0  0  0  0  0  0  0
   10.2381    1.2369    1.7558 H   0  0  0  0  0  0  0  0  0  0  0  0
    9.3987    2.4308    2.7469 H   0  0  0  0  0  0  0  0  0  0  0  0
    9.6798    2.7453    1.0338 H   0  0  0  0  0  0  0  0  0  0  0  0
    4.2459   -1.5149    1.7068 H   0  0  0  0  0  0  0  0  0  0  0  0
    0.3874    4.2232   -1.5249 H   0  0  0  0  0  0  0  0  0  0  0  0
   -1.3847    5.9081   -1.8794 H   0  0  0  0  0  0  0  0  0  0  0  0
   -3.7612    5.2432   -1.7865 H   0  0  0  0  0  0  0  0  0  0  0  0
   -4.3570    2.8866   -1.4164 H   0  0  0  0  0  0  0  0  0  0  0  0
   -0.2356    2.7583    3.0818 H   0  0  0  0  0  0  0  0  0  0  0  0
    1.8718    3.4115    4.1943 H   0  0  0  0  0  0  0  0  0  0  0  0
    4.0083    2.3844    3.5028 H   0  0  0  0  0  0  0  0  0  0  0  0
    4.0213    0.6468    1.7591 H   0  0  0  0  0  0  0  0  0  0  0  0
  1  2  1  0  0  0  0
  2  3  1  0  0  0  0
  3  4  1  0  0  0  0
  4  5  1  0  0  0  0
  5  6  1  0  0  0  0
  6  7  1  0  0  0  0
  7  8  1  0  0  0  0
  8  9  2  0  0  0  0
  9 10  1  0  0  0  0
 10 11  1  0  0  0  0
 11 12  1  0  0  0  0
 12 13  2  0  0  0  0
 13 14  1  0  0  0  0
 14 15  2  0  0  0  0
 15 16  1  0  0  0  0
 16 17  2  0  0  0  0
 16 18  1  0  0  0  0
 18 19  2  0  0  0  0
 19 20  1  0  0  0  0
 20 21  2  0  0  0  0
 21 22  1  0  0  0  0
 22 23  2  0  0  0  0
 23 24  1  0  0  0  0
 24 25  2  0  0  0  0
 25 26  1  0  0  0  0
 26 27  1  0  0  0  0
 27 28  1  0  0  0  0
 28 29  1  0  0  0  0
 29 30  2  0  0  0  0
 30 31  1  0  0  0  0
 31 32  1  0  0  0  0
 32 33  1  0  0  0  0
 33 34  1  0  0  0  0
 34 35  1  0  0  0  0
 35 36  1  0  0  0  0
 36 37  1  0  0  0  0
 26 38  2  0  0  0  0
 38 39  1  0  0  0  0
 39 40  2  0  0  0  0
 40 41  1  0  0  0  0
 41 42  1  0  0  0  0
 42 43  1  0  0  0  0
 43 44  1  0  0  0  0
 44 45  2  0  0  0  0
 45 46  1  0  0  0  0
 46 47  2  0  0  0  0
 47 48  1  0  0  0  0
 48 49  2  0  0  0  0
 42 50  1  0  0  0  0
 50 51  1  0  0  0  0
 51 52  2  0  0  0  0
 52 53  1  0  0  0  0
 53 54  2  0  0  0  0
 54 55  1  0  0  0  0
 55 56  2  0  0  0  0
 11  7  2  0  0  0  0
 17 12  1  0  0  0  0
 49 18  1  0  0  0  0
 56 51  1  0  0  0  0
 20 15  1  0  0  0  0
 41 22  1  0  0  0  0
 49 44  1  0  0  0  0
 42 19  1  0  0  0  0
 39 23  1  0  0  0  0
 56 40  1  0  0  0  0
 31 27  2  0  0  0  0
  1 57  1  0  0  0  0
  1 58  1  0  0  0  0
  1 59  1  0  0  0  0
  2 60  1  0  0  0  0
  2 61  1  0  0  0  0
  3 62  1  0  0  0  0
  3 63  1  0  0  0  0
  4 64  1  0  0  0  0
  4 65  1  0  0  0  0
  5 66  1  0  0  0  0
  5 67  1  0  0  0  0
  6 68  1  0  0  0  0
  6 69  1  0  0  0  0
  8 70  1  0  0  0  0
  9 71  1  0  0  0  0
 13 72  1  0  0  0  0
 14 73  1  0  0  0  0
 17 74  1  0  0  0  0
 21 75  1  0  0  0  0
 24 76  1  0  0  0  0
 25 77  1  0  0  0  0
 29 78  1  0  0  0  0
 30 79  1  0  0  0  0
 32 80  1  0  0  0  0
 32 81  1  0  0  0  0
 33 82  1  0  0  0  0
 33 83  1  0  0  0  0
 34 84  1  0  0  0  0
 34 85  1  0  0  0  0
 35 86  1  0  0  0  0
 35 87  1  0  0  0  0
 36 88  1  0  0  0  0
 36 89  1  0  0  0  0
 37 90  1  0  0  0  0
 37 91  1  0  0  0  0
 37 92  1  0  0  0  0
 38 93  1  0  0  0  0
 45 94  1  0  0  0  0
 46 95  1  0  0  0  0
 47 96  1  0  0  0  0
 48 97  1  0  0  0  0
 52 98  1  0  0  0  0
 53 99  1  0  0  0  0
 54100  1  0  0  0  0
 55101  1  0  0  0  0
M  CHG  1  19   1
M  CHG  1  42  -1
M  END
