
  xtb     03022213253D
 energy: -41.859440738073 gnorm: 0.000212812348 xtb: 6.4.1 (afa7bdf)
 28 29  0     0  0            999 V2000
    5.8960    3.3159   -1.0672 C   0  0  0  0  0  3  0  0  0  0  0  0
    4.8893    2.7514   -0.8885 N   0  0  0  0  0  4  0  0  0  0  0  0
    3.7175    2.0941   -0.6786 C   0  0  0  0  0  0  0  0  0  0  0  0
    3.2066    1.2523   -1.6642 C   0  0  0  0  0  0  0  0  0  0  0  0
    2.0178    0.5898   -1.4443 C   0  0  0  0  0  0  0  0  0  0  0  0
    1.3160    0.7452   -0.2474 C   0  0  0  0  0  0  0  0  0  0  0  0
    0.0543    0.0351   -0.0212 C   0  0  0  0  0  0  0  0  0  0  0  0
   -0.8719   -0.1326   -1.0519 C   0  0  0  0  0  0  0  0  0  0  0  0
   -2.0600   -0.7918   -0.8375 C   0  0  0  0  0  0  0  0  0  0  0  0
   -2.3712   -1.3306    0.4169 C   0  0  0  0  0  0  0  0  0  0  0  0
   -3.5367   -2.0377    0.5735 N   0  0  0  0  0  0  0  0  0  0  0  0
   -4.0669   -2.3999    1.8633 C   0  0  0  0  0  0  0  0  0  0  0  0
   -1.4437   -1.1668    1.4495 C   0  0  0  0  0  0  0  0  0  0  0  0
   -0.2609   -0.4930    1.2293 C   0  0  0  0  0  0  0  0  0  0  0  0
    1.8447    1.5924    0.7282 C   0  0  0  0  0  0  0  0  0  0  0  0
    3.0309    2.2639    0.5217 C   0  0  0  0  0  0  0  0  0  0  0  0
    3.7504    1.1245   -2.5888 H   0  0  0  0  0  0  0  0  0  0  0  0
    1.6348   -0.0763   -2.2029 H   0  0  0  0  0  0  0  0  0  0  0  0
   -0.6689    0.2881   -2.0259 H   0  0  0  0  0  0  0  0  0  0  0  0
   -2.7706   -0.8992   -1.6456 H   0  0  0  0  0  0  0  0  0  0  0  0
   -4.2192   -1.8972   -0.1551 H   0  0  0  0  0  0  0  0  0  0  0  0
   -4.2594   -1.5276    2.5006 H   0  0  0  0  0  0  0  0  0  0  0  0
   -5.0004   -2.9396    1.7198 H   0  0  0  0  0  0  0  0  0  0  0  0
   -3.3679   -3.0598    2.3797 H   0  0  0  0  0  0  0  0  0  0  0  0
   -1.6461   -1.5689    2.4294 H   0  0  0  0  0  0  0  0  0  0  0  0
    0.4455   -0.3963    2.0410 H   0  0  0  0  0  0  0  0  0  0  0  0
    1.3062    1.7410    1.6523 H   0  0  0  0  0  0  0  0  0  0  0  0
    3.4338    2.9236    1.2762 H   0  0  0  0  0  0  0  0  0  0  0  0
  1  2  3  0  0  0  0
  2  3  1  0  0  0  0
  3  4  2  0  0  0  0
  4  5  1  0  0  0  0
  5  6  2  0  0  0  0
  6  7  1  0  0  0  0
  7  8  2  0  0  0  0
  8  9  1  0  0  0  0
  9 10  2  0  0  0  0
 10 11  1  0  0  0  0
 11 12  1  0  0  0  0
 10 13  1  0  0  0  0
 13 14  2  0  0  0  0
  6 15  1  0  0  0  0
 15 16  2  0  0  0  0
 16  3  1  0  0  0  0
 14  7  1  0  0  0  0
  4 17  1  0  0  0  0
  5 18  1  0  0  0  0
  8 19  1  0  0  0  0
  9 20  1  0  0  0  0
 11 21  1  0  0  0  0
 12 22  1  0  0  0  0
 12 23  1  0  0  0  0
 12 24  1  0  0  0  0
 13 25  1  0  0  0  0
 14 26  1  0  0  0  0
 15 27  1  0  0  0  0
 16 28  1  0  0  0  0
M  CHG  1   1  -1
M  CHG  1   2   1
M  END
