
  xtb     03022215153D
 energy: -79.995835769451 gnorm: 0.000305127518 xtb: 6.4.1 (afa7bdf)
 49 52  0     0  0            999 V2000
    7.0253   -5.0684    1.3159 O   0  0  0  0  0  0  0  0  0  0  0  0
    5.8629   -5.4218    1.3170 N   0  0  0  0  0  4  0  0  0  0  0  0
    5.4900   -6.5574    1.5394 O   0  0  0  0  0  1  0  0  0  0  0  0
    4.8628   -4.4331    1.0382 C   0  0  0  0  0  0  0  0  0  0  0  0
    5.2443   -3.1180    0.7786 C   0  0  0  0  0  0  0  0  0  0  0  0
    4.2793   -2.1767    0.5101 C   0  0  0  0  0  0  0  0  0  0  0  0
    2.9222   -2.5290    0.4955 C   0  0  0  0  0  0  0  0  0  0  0  0
    1.9543   -1.5037    0.2034 C   0  0  0  0  0  0  0  0  0  0  0  0
    2.2564   -0.2440   -0.0364 N   0  0  0  0  0  0  0  0  0  0  0  0
    1.0956    0.4139   -0.2620 C   0  0  0  0  0  0  0  0  0  0  0  0
    1.1149    1.8263   -0.5224 C   0  0  0  0  0  0  0  0  0  0  0  0
    0.0926    2.6727   -0.3238 C   0  0  0  0  0  0  0  0  0  0  0  0
    0.0966    4.0990   -0.5854 C   0  0  0  0  0  0  0  0  0  0  0  0
    1.1476    4.7569   -1.2302 C   0  0  0  0  0  0  0  0  0  0  0  0
    1.0962    6.1181   -1.4546 C   0  0  0  0  0  0  0  0  0  0  0  0
   -0.0027    6.8567   -1.0447 C   0  0  0  0  0  0  0  0  0  0  0  0
   -1.0556    6.2198   -0.4088 C   0  0  0  0  0  0  0  0  0  0  0  0
   -1.0071    4.8583   -0.1843 C   0  0  0  0  0  0  0  0  0  0  0  0
    0.0224   -0.4923   -0.1770 C   0  0  0  0  0  0  0  0  0  0  0  0
   -1.3689   -0.3176   -0.4337 C   0  0  0  0  0  0  0  0  0  0  0  0
   -2.3312   -1.2074   -0.1228 C   0  0  0  0  0  0  0  0  0  0  0  0
   -3.7460   -1.0701   -0.3944 C   0  0  0  0  0  0  0  0  0  0  0  0
   -4.2911    0.0082   -1.0987 C   0  0  0  0  0  0  0  0  0  0  0  0
   -5.6501    0.0871   -1.3266 C   0  0  0  0  0  0  0  0  0  0  0  0
   -6.5000   -0.9042   -0.8614 C   0  0  0  0  0  0  0  0  0  0  0  0
   -5.9770   -1.9809   -0.1641 C   0  0  0  0  0  0  0  0  0  0  0  0
   -4.6184   -2.0626    0.0655 C   0  0  0  0  0  0  0  0  0  0  0  0
    0.6032   -1.6917    0.1318 N   0  0  0  0  0  0  0  0  0  0  0  0
    2.5575   -3.8549    0.7609 C   0  0  0  0  0  0  0  0  0  0  0  0
    3.5205   -4.8010    1.0305 C   0  0  0  0  0  0  0  0  0  0  0  0
    6.2930   -2.8638    0.7932 H   0  0  0  0  0  0  0  0  0  0  0  0
    4.5372   -1.1505    0.3053 H   0  0  0  0  0  0  0  0  0  0  0  0
    2.0782    2.1867   -0.8529 H   0  0  0  0  0  0  0  0  0  0  0  0
   -0.8278    2.2959    0.1032 H   0  0  0  0  0  0  0  0  0  0  0  0
    2.0083    4.1981   -1.5634 H   0  0  0  0  0  0  0  0  0  0  0  0
    1.9180    6.6097   -1.9549 H   0  0  0  0  0  0  0  0  0  0  0  0
   -0.0384    7.9213   -1.2220 H   0  0  0  0  0  0  0  0  0  0  0  0
   -1.9168    6.7879   -0.0878 H   0  0  0  0  0  0  0  0  0  0  0  0
   -1.8321    4.3679    0.3140 H   0  0  0  0  0  0  0  0  0  0  0  0
   -1.6229    0.6075   -0.9275 H   0  0  0  0  0  0  0  0  0  0  0  0
   -2.0637   -2.1163    0.4043 H   0  0  0  0  0  0  0  0  0  0  0  0
   -3.6486    0.7892   -1.4752 H   0  0  0  0  0  0  0  0  0  0  0  0
   -6.0524    0.9276   -1.8732 H   0  0  0  0  0  0  0  0  0  0  0  0
   -7.5622   -0.8382   -1.0430 H   0  0  0  0  0  0  0  0  0  0  0  0
   -6.6318   -2.7586    0.2008 H   0  0  0  0  0  0  0  0  0  0  0  0
   -4.2189   -2.9057    0.6122 H   0  0  0  0  0  0  0  0  0  0  0  0
    0.1076   -2.5605    0.2380 H   0  0  0  0  0  0  0  0  0  0  0  0
    1.5197   -4.1524    0.7589 H   0  0  0  0  0  0  0  0  0  0  0  0
    3.2578   -5.8275    1.2367 H   0  0  0  0  0  0  0  0  0  0  0  0
  1  2  2  0  0  0  0
  2  3  1  0  0  0  0
  2  4  1  0  0  0  0
  4  5  2  0  0  0  0
  5  6  1  0  0  0  0
  6  7  2  0  0  0  0
  7  8  1  0  0  0  0
  8  9  2  0  0  0  0
  9 10  1  0  0  0  0
 10 11  1  0  0  0  0
 11 12  2  0  0  0  0
 12 13  1  0  0  0  0
 13 14  2  0  0  0  0
 14 15  1  0  0  0  0
 15 16  2  0  0  0  0
 16 17  1  0  0  0  0
 17 18  2  0  0  0  0
 10 19  2  0  0  0  0
 19 20  1  0  0  0  0
 20 21  2  0  0  0  0
 21 22  1  0  0  0  0
 22 23  2  0  0  0  0
 23 24  1  0  0  0  0
 24 25  2  0  0  0  0
 25 26  1  0  0  0  0
 26 27  2  0  0  0  0
 19 28  1  0  0  0  0
  7 29  1  0  0  0  0
 29 30  2  0  0  0  0
 30  4  1  0  0  0  0
 28  8  1  0  0  0  0
 18 13  1  0  0  0  0
 27 22  1  0  0  0  0
  5 31  1  0  0  0  0
  6 32  1  0  0  0  0
 11 33  1  0  0  0  0
 12 34  1  0  0  0  0
 14 35  1  0  0  0  0
 15 36  1  0  0  0  0
 16 37  1  0  0  0  0
 17 38  1  0  0  0  0
 18 39  1  0  0  0  0
 20 40  1  0  0  0  0
 21 41  1  0  0  0  0
 23 42  1  0  0  0  0
 24 43  1  0  0  0  0
 25 44  1  0  0  0  0
 26 45  1  0  0  0  0
 27 46  1  0  0  0  0
 28 47  1  0  0  0  0
 29 48  1  0  0  0  0
 30 49  1  0  0  0  0
M  CHG  1   2   1
M  CHG  1   3  -1
M  END
