
  xtb     03022214393D
 energy: -32.986764857253 gnorm: 0.000205400158 xtb: 6.4.1 (afa7bdf)
 21 22  0     0  0            999 V2000
   -3.3960    0.9652   -0.6520 N   0  0  0  0  0  0  0  0  0  0  0  0
   -2.1959    0.3527   -0.3530 C   0  0  0  0  0  0  0  0  0  0  0  0
   -2.1513   -1.0524   -0.2090 C   0  0  0  0  0  0  0  0  0  0  0  0
   -0.9681   -1.6915    0.0166 C   0  0  0  0  0  0  0  0  0  0  0  0
    0.2414   -0.9736    0.1116 C   0  0  0  0  0  0  0  0  0  0  0  0
    1.4793   -1.6054    0.3439 C   0  0  0  0  0  0  0  0  0  0  0  0
    2.6344   -0.8849    0.4312 C   0  0  0  0  0  0  0  0  0  0  0  0
    2.6014    0.5173    0.2892 C   0  0  0  0  0  0  0  0  0  0  0  0
    3.7885    1.1797    0.3866 O   0  0  0  0  0  0  0  0  0  0  0  0
    1.4126    1.1621    0.0638 C   0  0  0  0  0  0  0  0  0  0  0  0
    0.2059    0.4389   -0.0321 C   0  0  0  0  0  0  0  0  0  0  0  0
   -1.0260    1.0750   -0.2602 C   0  0  0  0  0  0  0  0  0  0  0  0
   -4.2314    0.4563   -0.4130 H   0  0  0  0  0  0  0  0  0  0  0  0
   -3.4463    1.9571   -0.4863 H   0  0  0  0  0  0  0  0  0  0  0  0
   -3.0742   -1.6108   -0.2821 H   0  0  0  0  0  0  0  0  0  0  0  0
   -0.9438   -2.7662    0.1282 H   0  0  0  0  0  0  0  0  0  0  0  0
    1.5012   -2.6804    0.4522 H   0  0  0  0  0  0  0  0  0  0  0  0
    3.5885   -1.3556    0.6073 H   0  0  0  0  0  0  0  0  0  0  0  0
    3.6421    2.1260    0.2700 H   0  0  0  0  0  0  0  0  0  0  0  0
    1.3885    2.2394   -0.0455 H   0  0  0  0  0  0  0  0  0  0  0  0
   -1.0506    2.1509   -0.3677 H   0  0  0  0  0  0  0  0  0  0  0  0
  1  2  1  0  0  0  0
  2  3  2  0  0  0  0
  3  4  1  0  0  0  0
  4  5  2  0  0  0  0
  5  6  1  0  0  0  0
  6  7  2  0  0  0  0
  7  8  1  0  0  0  0
  8  9  1  0  0  0  0
  8 10  2  0  0  0  0
 10 11  1  0  0  0  0
 11 12  2  0  0  0  0
 12  2  1  0  0  0  0
 11  5  1  0  0  0  0
  1 13  1  0  0  0  0
  1 14  1  0  0  0  0
  3 15  1  0  0  0  0
  4 16  1  0  0  0  0
  6 17  1  0  0  0  0
  7 18  1  0  0  0  0
  9 19  1  0  0  0  0
 10 20  1  0  0  0  0
 12 21  1  0  0  0  0
M  END
