
  xtb     03022214513D
 energy: -98.762795615331 gnorm: 0.000106211081 xtb: 6.4.1 (afa7bdf)
 65 68  0     0  0            999 V2000
   -3.9834    5.5838   -0.2211 C   0  0  0  0  0  0  0  0  0  0  0  0
   -4.1871    4.1376    0.1622 C   0  0  0  0  0  0  0  0  0  0  0  0
   -5.0557    3.8032    0.9409 O   0  0  0  0  0  0  0  0  0  0  0  0
   -3.2810    3.1453   -0.4529 C   0  0  0  0  0  0  0  0  0  0  0  0
   -2.3013    3.4812   -1.4281 C   0  0  0  0  0  0  0  0  0  0  0  0
   -1.4835    2.5235   -1.9328 C   0  0  0  0  0  0  0  0  0  0  0  0
   -1.6053    1.2369   -1.5203 N   0  0  0  0  0  0  0  0  0  0  0  0
   -0.8935    0.1436   -1.8558 C   0  0  0  0  0  0  0  0  0  0  0  0
   -1.3759   -0.9570   -1.1517 C   0  0  0  0  0  0  0  0  0  0  0  0
   -2.4468   -0.5505   -0.3570 C   0  0  0  0  0  0  0  0  0  0  0  0
   -3.2728   -1.3739    0.5145 C   0  0  0  0  0  0  0  0  0  0  0  0
   -2.7032   -2.4230    1.2342 C   0  0  0  0  0  0  0  0  0  0  0  0
   -3.4770   -3.2156    2.0582 C   0  0  0  0  0  0  0  0  0  0  0  0
   -4.8427   -2.9941    2.1861 C   0  0  0  0  0  0  0  0  0  0  0  0
   -5.6785   -3.8374    3.0994 C   0  0  0  0  0  0  0  0  0  0  0  0
   -5.4128   -1.9565    1.4577 C   0  0  0  0  0  0  0  0  0  0  0  0
   -4.6451   -1.1584    0.6331 C   0  0  0  0  0  0  0  0  0  0  0  0
   -2.5732    0.8426   -0.5881 C   0  0  0  0  0  0  0  0  0  0  0  0
   -3.3952    1.8282   -0.0492 C   0  0  0  0  0  0  0  0  0  0  0  0
   -0.5847   -2.1518   -1.5571 C   0  0  0  0  0  0  0  0  0  0  0  0
    0.3357   -1.5856   -2.5308 N   0  0  0  0  0  0  0  0  0  0  0  0
    1.3730   -2.3561   -3.1702 C   0  0  0  0  0  0  0  0  0  0  0  0
    2.7673   -1.9478   -2.6827 C   0  0  0  0  0  0  0  0  0  0  0  0
    2.9665   -2.2447   -1.1954 C   0  0  0  0  0  0  0  0  0  0  0  0
    4.1529   -1.6187   -0.6663 N   0  0  0  0  0  0  0  0  0  0  0  0
    4.0730   -0.5315    0.1442 C   0  0  0  0  0  0  0  0  0  0  0  0
    3.0471   -0.1419    0.6479 O   0  0  0  0  0  0  0  0  0  0  0  0
    5.3010   -0.0117    0.3115 O   0  0  0  0  0  0  0  0  0  0  0  0
    5.5031    1.1225    1.1892 C   0  0  0  0  0  0  0  0  0  0  0  0
    7.0062    1.3921    1.1068 C   0  0  0  0  0  0  0  0  0  0  0  0
    4.7142    2.3304    0.6843 C   0  0  0  0  0  0  0  0  0  0  0  0
    5.1015    0.7637    2.6197 C   0  0  0  0  0  0  0  0  0  0  0  0
    0.1983   -0.2373   -2.7388 C   0  0  0  0  0  0  0  0  0  0  0  0
    0.8580    0.4297   -3.5131 O   0  0  0  0  0  0  0  0  0  0  0  0
   -4.1597    5.7161   -1.2866 H   0  0  0  0  0  0  0  0  0  0  0  0
   -4.6834    6.2018    0.3352 H   0  0  0  0  0  0  0  0  0  0  0  0
   -2.9663    5.8945    0.0070 H   0  0  0  0  0  0  0  0  0  0  0  0
   -2.1923    4.4951   -1.7719 H   0  0  0  0  0  0  0  0  0  0  0  0
   -0.7106    2.7137   -2.6615 H   0  0  0  0  0  0  0  0  0  0  0  0
   -1.6408   -2.6006    1.1605 H   0  0  0  0  0  0  0  0  0  0  0  0
   -3.0139   -4.0189    2.6140 H   0  0  0  0  0  0  0  0  0  0  0  0
   -5.2275   -4.8159    3.2477 H   0  0  0  0  0  0  0  0  0  0  0  0
   -6.6815   -3.9664    2.6985 H   0  0  0  0  0  0  0  0  0  0  0  0
   -5.7666   -3.3547    4.0734 H   0  0  0  0  0  0  0  0  0  0  0  0
   -6.4753   -1.7747    1.5353 H   0  0  0  0  0  0  0  0  0  0  0  0
   -5.1160   -0.3780    0.0550 H   0  0  0  0  0  0  0  0  0  0  0  0
   -4.1234    1.5754    0.7056 H   0  0  0  0  0  0  0  0  0  0  0  0
   -0.0395   -2.6039   -0.7214 H   0  0  0  0  0  0  0  0  0  0  0  0
   -1.2074   -2.9286   -2.0184 H   0  0  0  0  0  0  0  0  0  0  0  0
    1.1870   -3.4141   -2.9723 H   0  0  0  0  0  0  0  0  0  0  0  0
    1.3189   -2.1809   -4.2503 H   0  0  0  0  0  0  0  0  0  0  0  0
    3.5205   -2.4722   -3.2740 H   0  0  0  0  0  0  0  0  0  0  0  0
    2.8804   -0.8762   -2.8526 H   0  0  0  0  0  0  0  0  0  0  0  0
    3.0191   -3.3263   -1.0257 H   0  0  0  0  0  0  0  0  0  0  0  0
    2.1398   -1.8280   -0.6158 H   0  0  0  0  0  0  0  0  0  0  0  0
    5.0388   -1.8002   -1.1105 H   0  0  0  0  0  0  0  0  0  0  0  0
    7.2893    1.6128    0.0810 H   0  0  0  0  0  0  0  0  0  0  0  0
    7.2664    2.2373    1.7368 H   0  0  0  0  0  0  0  0  0  0  0  0
    7.5605    0.5178    1.4376 H   0  0  0  0  0  0  0  0  0  0  0  0
    4.9869    2.5510   -0.3456 H   0  0  0  0  0  0  0  0  0  0  0  0
    4.9350    3.1964    1.3020 H   0  0  0  0  0  0  0  0  0  0  0  0
    3.6482    2.1256    0.7287 H   0  0  0  0  0  0  0  0  0  0  0  0
    5.3405    1.5885    3.2851 H   0  0  0  0  0  0  0  0  0  0  0  0
    4.0346    0.5657    2.6699 H   0  0  0  0  0  0  0  0  0  0  0  0
    5.6402   -0.1230    2.9474 H   0  0  0  0  0  0  0  0  0  0  0  0
  1  2  1  0  0  0  0
  2  3  2  0  0  0  0
  2  4  1  0  0  0  0
  4  5  1  0  0  0  0
  5  6  2  0  0  0  0
  6  7  1  0  0  0  0
  7  8  1  0  0  0  0
  8  9  2  0  0  0  0
  9 10  1  0  0  0  0
 10 11  1  0  0  0  0
 11 12  2  0  0  0  0
 12 13  1  0  0  0  0
 13 14  2  0  0  0  0
 14 15  1  0  0  0  0
 14 16  1  0  0  0  0
 16 17  2  0  0  0  0
 10 18  2  0  0  0  0
 18 19  1  0  0  0  0
  9 20  1  0  0  0  0
 20 21  1  0  0  0  0
 21 22  1  0  0  0  0
 22 23  1  0  0  0  0
 23 24  1  0  0  0  0
 24 25  1  0  0  0  0
 25 26  1  0  0  0  0
 26 27  2  0  0  0  0
 26 28  1  0  0  0  0
 28 29  1  0  0  0  0
 29 30  1  0  0  0  0
 29 31  1  0  0  0  0
 29 32  1  0  0  0  0
 21 33  1  0  0  0  0
 33 34  2  0  0  0  0
 19  4  2  0  0  0  0
 18  7  1  0  0  0  0
 33  8  1  0  0  0  0
 17 11  1  0  0  0  0
  1 35  1  0  0  0  0
  1 36  1  0  0  0  0
  1 37  1  0  0  0  0
  5 38  1  0  0  0  0
  6 39  1  0  0  0  0
 12 40  1  0  0  0  0
 13 41  1  0  0  0  0
 15 42  1  0  0  0  0
 15 43  1  0  0  0  0
 15 44  1  0  0  0  0
 16 45  1  0  0  0  0
 17 46  1  0  0  0  0
 19 47  1  0  0  0  0
 20 48  1  0  0  0  0
 20 49  1  0  0  0  0
 22 50  1  0  0  0  0
 22 51  1  0  0  0  0
 23 52  1  0  0  0  0
 23 53  1  0  0  0  0
 24 54  1  0  0  0  0
 24 55  1  0  0  0  0
 25 56  1  0  0  0  0
 30 57  1  0  0  0  0
 30 58  1  0  0  0  0
 30 59  1  0  0  0  0
 31 60  1  0  0  0  0
 31 61  1  0  0  0  0
 31 62  1  0  0  0  0
 32 63  1  0  0  0  0
 32 64  1  0  0  0  0
 32 65  1  0  0  0  0
M  END
