
  xtb     03022213273D
 energy: -108.743509899749 gnorm: 0.000159248299 xtb: 6.4.1 (afa7bdf)
 71 77  0     0  0            999 V2000
    8.4527    0.5251   -0.0325 C   0  0  0  0  0  0  0  0  0  0  0  0
    7.5926   -0.5716    0.1901 C   0  0  0  0  0  0  0  0  0  0  0  0
    6.2402   -0.3495    0.1322 C   0  0  0  0  0  0  0  0  0  0  0  0
    5.7938    0.9633   -0.1452 C   0  0  0  0  0  0  0  0  0  0  0  0
    4.3861    0.9698   -0.1477 C   0  0  0  0  0  0  0  0  0  0  0  0
    3.7641    2.1775   -0.3675 C   0  0  0  0  0  0  0  0  0  0  0  0
    4.5703    3.3092   -0.5951 C   0  0  0  0  0  0  0  0  0  0  0  0
    5.9464    3.2756   -0.5988 C   0  0  0  0  0  0  0  0  0  0  0  0
    6.6210    2.0611   -0.3592 C   0  0  0  0  0  0  0  0  0  0  0  0
    8.0114    1.7982   -0.2970 C   0  0  0  0  0  0  0  0  0  0  0  0
    4.0691   -0.4529    0.1375 C   0  0  0  0  0  0  0  0  0  0  0  0
    2.8398   -1.0009    0.2388 N   0  0  0  0  0  0  0  0  0  0  0  0
    2.7273   -2.4027    0.5728 C   0  0  0  0  0  0  0  0  0  0  0  0
    2.4382   -3.2743   -0.6719 C   0  0  0  0  0  0  0  0  0  0  0  0
    1.6211   -4.3935   -0.4054 O   0  0  0  0  0  0  0  0  0  0  0  0
    0.2548   -4.1397   -0.1743 C   0  0  0  0  0  0  0  0  0  0  0  0
   -0.5372   -3.7963   -1.4525 C   0  0  0  0  0  0  0  0  0  0  0  0
   -1.9180   -3.6542   -1.2050 O   0  0  0  0  0  0  0  0  0  0  0  0
   -2.3234   -2.4330   -0.6283 C   0  0  0  0  0  0  0  0  0  0  0  0
   -2.4462   -1.2943   -1.6619 C   0  0  0  0  0  0  0  0  0  0  0  0
   -2.6688    0.0010   -1.0601 N   0  0  0  0  0  0  0  0  0  0  0  0
   -3.9266    0.2899   -0.6564 C   0  0  0  0  0  0  0  0  0  0  0  0
   -4.8879   -0.5899   -0.8038 N   0  0  0  0  0  0  0  0  0  0  0  0
   -6.0638    0.0075   -0.3712 C   0  0  0  0  0  0  0  0  0  0  0  0
   -7.3585   -0.4394   -0.3009 C   0  0  0  0  0  0  0  0  0  0  0  0
   -8.3369    0.4461    0.2002 C   0  0  0  0  0  0  0  0  0  0  0  0
   -8.0640    1.7253    0.6178 C   0  0  0  0  0  0  0  0  0  0  0  0
   -6.7364    2.2160    0.5589 C   0  0  0  0  0  0  0  0  0  0  0  0
   -6.2296    3.4803    0.9221 C   0  0  0  0  0  0  0  0  0  0  0  0
   -4.8878    3.7501    0.7749 C   0  0  0  0  0  0  0  0  0  0  0  0
   -3.9570    2.8191    0.2762 C   0  0  0  0  0  0  0  0  0  0  0  0
   -4.4128    1.5737   -0.0901 C   0  0  0  0  0  0  0  0  0  0  0  0
   -5.7896    1.3241    0.0654 C   0  0  0  0  0  0  0  0  0  0  0  0
   -1.5396    0.8273   -0.7236 C   0  0  0  0  0  0  0  0  0  0  0  0
   -1.1658    0.7749    0.7754 C   0  0  0  0  0  0  0  0  0  0  0  0
    0.0869    1.3777    1.0266 O   0  0  0  0  0  0  0  0  0  0  0  0
    1.1596    0.4987    1.2606 C   0  0  0  0  0  0  0  0  0  0  0  0
    1.6295   -0.2613    0.0009 C   0  0  0  0  0  0  0  0  0  0  0  0
    5.1453   -1.1855    0.2980 N   0  0  0  0  0  0  0  0  0  0  0  0
    9.5177    0.3436    0.0134 H   0  0  0  0  0  0  0  0  0  0  0  0
    8.0015   -1.5474    0.4003 H   0  0  0  0  0  0  0  0  0  0  0  0
    2.6930    2.3129   -0.3634 H   0  0  0  0  0  0  0  0  0  0  0  0
    4.0712    4.2520   -0.7706 H   0  0  0  0  0  0  0  0  0  0  0  0
    6.5094    4.1805   -0.7776 H   0  0  0  0  0  0  0  0  0  0  0  0
    8.7169    2.6008   -0.4550 H   0  0  0  0  0  0  0  0  0  0  0  0
    1.9259   -2.5318    1.3060 H   0  0  0  0  0  0  0  0  0  0  0  0
    3.6709   -2.7035    1.0269 H   0  0  0  0  0  0  0  0  0  0  0  0
    3.3705   -3.6917   -1.0541 H   0  0  0  0  0  0  0  0  0  0  0  0
    2.0023   -2.6483   -1.4617 H   0  0  0  0  0  0  0  0  0  0  0  0
    0.1206   -3.3438    0.5715 H   0  0  0  0  0  0  0  0  0  0  0  0
   -0.1461   -5.0654    0.2447 H   0  0  0  0  0  0  0  0  0  0  0  0
   -0.1260   -2.8950   -1.9263 H   0  0  0  0  0  0  0  0  0  0  0  0
   -0.4453   -4.6250   -2.1582 H   0  0  0  0  0  0  0  0  0  0  0  0
   -3.3106   -2.6154   -0.2000 H   0  0  0  0  0  0  0  0  0  0  0  0
   -1.6420   -2.1347    0.1781 H   0  0  0  0  0  0  0  0  0  0  0  0
   -1.5430   -1.2403   -2.2753 H   0  0  0  0  0  0  0  0  0  0  0  0
   -3.3009   -1.5162   -2.3043 H   0  0  0  0  0  0  0  0  0  0  0  0
   -7.6366   -1.4325   -0.6171 H   0  0  0  0  0  0  0  0  0  0  0  0
   -9.3563    0.0891    0.2517 H   0  0  0  0  0  0  0  0  0  0  0  0
   -8.8549    2.3610    0.9882 H   0  0  0  0  0  0  0  0  0  0  0  0
   -6.8937    4.2365    1.3157 H   0  0  0  0  0  0  0  0  0  0  0  0
   -4.5179    4.7257    1.0579 H   0  0  0  0  0  0  0  0  0  0  0  0
   -2.9237    3.1245    0.2049 H   0  0  0  0  0  0  0  0  0  0  0  0
   -0.6852    0.4955   -1.3168 H   0  0  0  0  0  0  0  0  0  0  0  0
   -1.7433    1.8649   -1.0012 H   0  0  0  0  0  0  0  0  0  0  0  0
   -1.9110    1.3287    1.3551 H   0  0  0  0  0  0  0  0  0  0  0  0
   -1.1754   -0.2625    1.1282 H   0  0  0  0  0  0  0  0  0  0  0  0
    1.9744    1.1273    1.6273 H   0  0  0  0  0  0  0  0  0  0  0  0
    0.9006   -0.2250    2.0475 H   0  0  0  0  0  0  0  0  0  0  0  0
    1.7825    0.4525   -0.8129 H   0  0  0  0  0  0  0  0  0  0  0  0
    0.8542   -0.9694   -0.3045 H   0  0  0  0  0  0  0  0  0  0  0  0
  1  2  2  0  0  0  0
  2  3  1  0  0  0  0
  3  4  2  0  0  0  0
  4  5  1  0  0  0  0
  5  6  2  0  0  0  0
  6  7  1  0  0  0  0
  7  8  2  0  0  0  0
  8  9  1  0  0  0  0
  9 10  2  0  0  0  0
  5 11  1  0  0  0  0
 11 12  1  0  0  0  0
 12 13  1  0  0  0  0
 13 14  1  0  0  0  0
 14 15  1  0  0  0  0
 15 16  1  0  0  0  0
 16 17  1  0  0  0  0
 17 18  1  0  0  0  0
 18 19  1  0  0  0  0
 19 20  1  0  0  0  0
 20 21  1  0  0  0  0
 21 22  1  0  0  0  0
 22 23  2  0  0  0  0
 23 24  1  0  0  0  0
 24 25  1  0  0  0  0
 25 26  2  0  0  0  0
 26 27  1  0  0  0  0
 27 28  2  0  0  0  0
 28 29  1  0  0  0  0
 29 30  2  0  0  0  0
 30 31  1  0  0  0  0
 31 32  2  0  0  0  0
 32 33  1  0  0  0  0
 21 34  1  0  0  0  0
 34 35  1  0  0  0  0
 35 36  1  0  0  0  0
 36 37  1  0  0  0  0
 37 38  1  0  0  0  0
 11 39  2  0  0  0  0
 10  1  1  0  0  0  0
 38 12  1  0  0  0  0
 39  3  1  0  0  0  0
  9  4  1  0  0  0  0
 32 22  1  0  0  0  0
 33 24  2  0  0  0  0
 33 28  1  0  0  0  0
  1 40  1  0  0  0  0
  2 41  1  0  0  0  0
  6 42  1  0  0  0  0
  7 43  1  0  0  0  0
  8 44  1  0  0  0  0
 10 45  1  0  0  0  0
 13 46  1  0  0  0  0
 13 47  1  0  0  0  0
 14 48  1  0  0  0  0
 14 49  1  0  0  0  0
 16 50  1  0  0  0  0
 16 51  1  0  0  0  0
 17 52  1  0  0  0  0
 17 53  1  0  0  0  0
 19 54  1  0  0  0  0
 19 55  1  0  0  0  0
 20 56  1  0  0  0  0
 20 57  1  0  0  0  0
 25 58  1  0  0  0  0
 26 59  1  0  0  0  0
 27 60  1  0  0  0  0
 29 61  1  0  0  0  0
 30 62  1  0  0  0  0
 31 63  1  0  0  0  0
 34 64  1  0  0  0  0
 34 65  1  0  0  0  0
 35 66  1  0  0  0  0
 35 67  1  0  0  0  0
 37 68  1  0  0  0  0
 37 69  1  0  0  0  0
 38 70  1  0  0  0  0
 38 71  1  0  0  0  0
M  END
