
  xtb     03022213083D
 energy: -79.460317900491 gnorm: 0.000239540755 xtb: 6.4.1 (afa7bdf)
 62 64  0     0  0            999 V2000
   -7.6399    0.2498    3.1591 C   0  0  0  0  0  0  0  0  0  0  0  0
   -6.5309    0.1545    2.1133 C   0  0  0  0  0  0  0  0  0  0  0  0
   -6.5689   -1.2000    1.3835 C   0  0  0  0  0  0  0  0  0  0  0  0
   -7.3243   -1.1080    0.0588 C   0  0  0  0  0  0  0  0  0  0  0  0
   -6.5938   -0.1818   -0.8697 C   0  0  0  0  0  0  0  0  0  0  0  0
   -6.5067   -0.4276   -2.1722 C   0  0  0  0  0  0  0  0  0  0  0  0
   -5.6525    0.6245   -3.3202 S   0  0  0  0  0  0  0  0  0  0  0  0
   -3.9806    0.4895   -2.8355 C   0  0  0  0  0  0  0  0  0  0  0  0
   -3.4781   -0.3882   -1.9625 C   0  0  0  0  0  0  0  0  0  0  0  0
   -2.0956   -0.4912   -1.5498 C   0  0  0  0  0  0  0  0  0  0  0  0
   -1.0877    0.3719   -1.9913 C   0  0  0  0  0  0  0  0  0  0  0  0
    0.2097    0.2213   -1.5596 C   0  0  0  0  0  0  0  0  0  0  0  0
    0.5711   -0.7901   -0.6617 C   0  0  0  0  0  0  0  0  0  0  0  0
    1.9532   -0.8914   -0.2446 C   0  0  0  0  0  0  0  0  0  0  0  0
    2.4339   -1.7219    0.6859 C   0  0  0  0  0  0  0  0  0  0  0  0
    4.1006   -1.8627    1.1826 S   0  0  0  0  0  0  0  0  0  0  0  0
    4.9696   -1.1595   -0.1857 C   0  0  0  0  0  0  0  0  0  0  0  0
    6.1232   -0.5109   -0.0797 C   0  0  0  0  0  0  0  0  0  0  0  0
    6.8512   -0.0033   -1.2924 C   0  0  0  0  0  0  0  0  0  0  0  0
    7.5877    1.2879   -0.9453 C   0  0  0  0  0  0  0  0  0  0  0  0
    8.6906    1.0445    0.0960 C   0  0  0  0  0  0  0  0  0  0  0  0
    8.9751    2.3304    0.8693 C   0  0  0  0  0  0  0  0  0  0  0  0
    8.3034   -0.1033    1.0445 C   0  0  0  0  0  0  0  0  0  0  0  0
    6.7925   -0.2096    1.2291 C   0  0  0  0  0  0  0  0  0  0  0  0
   -0.4365   -1.6536   -0.2205 C   0  0  0  0  0  0  0  0  0  0  0  0
   -1.7337   -1.5038   -0.6535 C   0  0  0  0  0  0  0  0  0  0  0  0
   -5.9529    0.9974   -0.2038 C   0  0  0  0  0  0  0  0  0  0  0  0
   -6.6495    1.3152    1.1147 C   0  0  0  0  0  0  0  0  0  0  0  0
   -7.5088   -0.5070    3.9295 H   0  0  0  0  0  0  0  0  0  0  0  0
   -7.6292    1.2278    3.6354 H   0  0  0  0  0  0  0  0  0  0  0  0
   -8.6147    0.1050    2.6974 H   0  0  0  0  0  0  0  0  0  0  0  0
   -5.5689    0.2370    2.6304 H   0  0  0  0  0  0  0  0  0  0  0  0
   -7.0374   -1.9493    2.0235 H   0  0  0  0  0  0  0  0  0  0  0  0
   -5.5513   -1.5382    1.1763 H   0  0  0  0  0  0  0  0  0  0  0  0
   -8.3301   -0.7186    0.2383 H   0  0  0  0  0  0  0  0  0  0  0  0
   -7.4310   -2.0956   -0.3933 H   0  0  0  0  0  0  0  0  0  0  0  0
   -6.9924   -1.2704   -2.6392 H   0  0  0  0  0  0  0  0  0  0  0  0
   -3.3804    1.2145   -3.3605 H   0  0  0  0  0  0  0  0  0  0  0  0
   -4.1494   -1.1075   -1.5093 H   0  0  0  0  0  0  0  0  0  0  0  0
   -1.3249    1.1683   -2.6801 H   0  0  0  0  0  0  0  0  0  0  0  0
    0.9702    0.9023   -1.9168 H   0  0  0  0  0  0  0  0  0  0  0  0
    2.6321   -0.2127   -0.7449 H   0  0  0  0  0  0  0  0  0  0  0  0
    1.8084   -2.3826    1.2641 H   0  0  0  0  0  0  0  0  0  0  0  0
    4.5069   -1.3645   -1.1391 H   0  0  0  0  0  0  0  0  0  0  0  0
    6.1511    0.1610   -2.1141 H   0  0  0  0  0  0  0  0  0  0  0  0
    7.5744   -0.7550   -1.6235 H   0  0  0  0  0  0  0  0  0  0  0  0
    8.0223    1.7226   -1.8472 H   0  0  0  0  0  0  0  0  0  0  0  0
    6.8642    2.0053   -0.5520 H   0  0  0  0  0  0  0  0  0  0  0  0
    9.6083    0.7560   -0.4284 H   0  0  0  0  0  0  0  0  0  0  0  0
    8.1112    2.6176    1.4651 H   0  0  0  0  0  0  0  0  0  0  0  0
    9.8238    2.1979    1.5367 H   0  0  0  0  0  0  0  0  0  0  0  0
    9.2033    3.1436    0.1833 H   0  0  0  0  0  0  0  0  0  0  0  0
    8.6682   -1.0522    0.6458 H   0  0  0  0  0  0  0  0  0  0  0  0
    8.7817    0.0475    2.0135 H   0  0  0  0  0  0  0  0  0  0  0  0
    6.5543   -0.9853    1.9585 H   0  0  0  0  0  0  0  0  0  0  0  0
    6.4026    0.7352    1.6202 H   0  0  0  0  0  0  0  0  0  0  0  0
   -0.1988   -2.4539    0.4637 H   0  0  0  0  0  0  0  0  0  0  0  0
   -2.4938   -2.1872   -0.2995 H   0  0  0  0  0  0  0  0  0  0  0  0
   -4.8957    0.7796   -0.0152 H   0  0  0  0  0  0  0  0  0  0  0  0
   -5.9850    1.8603   -0.8737 H   0  0  0  0  0  0  0  0  0  0  0  0
   -6.2176    2.2176    1.5506 H   0  0  0  0  0  0  0  0  0  0  0  0
   -7.7034    1.5214    0.9159 H   0  0  0  0  0  0  0  0  0  0  0  0
  1  2  1  0  0  0  0
  2  3  1  0  0  0  0
  3  4  1  0  0  0  0
  4  5  1  0  0  0  0
  5  6  2  0  0  0  0
  6  7  1  0  0  0  0
  7  8  1  0  0  0  0
  8  9  2  0  0  0  0
  9 10  1  0  0  0  0
 10 11  2  0  0  0  0
 11 12  1  0  0  0  0
 12 13  2  0  0  0  0
 13 14  1  0  0  0  0
 14 15  2  0  0  0  0
 15 16  1  0  0  0  0
 16 17  1  0  0  0  0
 17 18  2  0  0  0  0
 18 19  1  0  0  0  0
 19 20  1  0  0  0  0
 20 21  1  0  0  0  0
 21 22  1  0  0  0  0
 21 23  1  0  0  0  0
 23 24  1  0  0  0  0
 13 25  1  0  0  0  0
 25 26  2  0  0  0  0
  5 27  1  0  0  0  0
 27 28  1  0  0  0  0
 28  2  1  0  0  0  0
 26 10  1  0  0  0  0
 24 18  1  0  0  0  0
  1 29  1  0  0  0  0
  1 30  1  0  0  0  0
  1 31  1  0  0  0  0
  2 32  1  0  0  0  0
  3 33  1  0  0  0  0
  3 34  1  0  0  0  0
  4 35  1  0  0  0  0
  4 36  1  0  0  0  0
  6 37  1  0  0  0  0
  8 38  1  0  0  0  0
  9 39  1  0  0  0  0
 11 40  1  0  0  0  0
 12 41  1  0  0  0  0
 14 42  1  0  0  0  0
 15 43  1  0  0  0  0
 17 44  1  0  0  0  0
 19 45  1  0  0  0  0
 19 46  1  0  0  0  0
 20 47  1  0  0  0  0
 20 48  1  0  0  0  0
 21 49  1  0  0  0  0
 22 50  1  0  0  0  0
 22 51  1  0  0  0  0
 22 52  1  0  0  0  0
 23 53  1  0  0  0  0
 23 54  1  0  0  0  0
 24 55  1  0  0  0  0
 24 56  1  0  0  0  0
 25 57  1  0  0  0  0
 26 58  1  0  0  0  0
 27 59  1  0  0  0  0
 27 60  1  0  0  0  0
 28 61  1  0  0  0  0
 28 62  1  0  0  0  0
M  END
