
  xtb     03022212013D
 energy: -65.140732178452 gnorm: 0.000078952593 xtb: 6.4.1 (afa7bdf)
 37 41  0     0  0            999 V2000
   -8.4982    0.7224    0.6142 C   0  0  0  0  0  0  0  0  0  0  0  0
   -8.0594    1.8637    0.0199 C   0  0  0  0  0  0  0  0  0  0  0  0
   -6.3544    1.8755   -0.1830 S   0  0  0  0  0  0  0  0  0  0  0  0
   -6.2178    0.3027    0.5502 C   0  0  0  0  0  0  0  0  0  0  0  0
   -4.9515   -0.3356    0.7076 C   0  0  0  0  0  0  0  0  0  0  0  0
   -4.6904   -1.5681    1.2643 C   0  0  0  0  0  0  0  0  0  0  0  0
   -3.3351   -1.9023    1.2666 C   0  0  0  0  0  0  0  0  0  0  0  0
   -2.5294   -0.9315    0.7111 C   0  0  0  0  0  0  0  0  0  0  0  0
   -1.1147   -0.9545    0.5584 C   0  0  0  0  0  0  0  0  0  0  0  0
   -0.2405   -1.9526    0.9325 C   0  0  0  0  0  0  0  0  0  0  0  0
    1.0924   -1.6619    0.6398 C   0  0  0  0  0  0  0  0  0  0  0  0
    1.2680   -0.4370    0.0362 C   0  0  0  0  0  0  0  0  0  0  0  0
    2.4831    0.1635   -0.3903 C   0  0  0  0  0  0  0  0  0  0  0  0
    2.6699    1.3855   -0.9939 C   0  0  0  0  0  0  0  0  0  0  0  0
    4.0086    1.6646   -1.2816 C   0  0  0  0  0  0  0  0  0  0  0  0
    4.8708    0.6625   -0.9043 C   0  0  0  0  0  0  0  0  0  0  0  0
    6.2876    0.6131   -1.0446 C   0  0  0  0  0  0  0  0  0  0  0  0
    7.1458   -0.3886   -0.6670 C   0  0  0  0  0  0  0  0  0  0  0  0
    8.4915   -0.1023   -0.9590 C   0  0  0  0  0  0  0  0  0  0  0  0
    8.6540    1.1084   -1.5544 C   0  0  0  0  0  0  0  0  0  0  0  0
    7.1618    1.9322   -1.7740 S   0  0  0  0  0  0  0  0  0  0  0  0
    4.0041   -0.6601   -0.1742 S   0  0  0  0  0  0  0  0  0  0  0  0
   -0.2588    0.3734   -0.1730 S   0  0  0  0  0  0  0  0  0  0  0  0
   -3.4803    0.4231    0.1761 S   0  0  0  0  0  0  0  0  0  0  0  0
   -7.4548   -0.1694    0.9181 C   0  0  0  0  0  0  0  0  0  0  0  0
   -9.5330    0.5234    0.8287 H   0  0  0  0  0  0  0  0  0  0  0  0
   -8.6337    2.7046   -0.3141 H   0  0  0  0  0  0  0  0  0  0  0  0
   -5.4587   -2.2082    1.6580 H   0  0  0  0  0  0  0  0  0  0  0  0
   -2.9532   -2.8257    1.6621 H   0  0  0  0  0  0  0  0  0  0  0  0
   -0.5594   -2.8643    1.4035 H   0  0  0  0  0  0  0  0  0  0  0  0
    1.9153   -2.3196    0.8578 H   0  0  0  0  0  0  0  0  0  0  0  0
    1.8533    2.0497   -1.2156 H   0  0  0  0  0  0  0  0  0  0  0  0
    4.3481    2.5704   -1.7523 H   0  0  0  0  0  0  0  0  0  0  0  0
    6.8082   -1.2949   -0.1964 H   0  0  0  0  0  0  0  0  0  0  0  0
    9.3051   -0.7690   -0.7357 H   0  0  0  0  0  0  0  0  0  0  0  0
    9.5616    1.5751   -1.8816 H   0  0  0  0  0  0  0  0  0  0  0  0
   -7.6062   -1.1229    1.3897 H   0  0  0  0  0  0  0  0  0  0  0  0
  1  2  2  0  0  0  0
  2  3  1  0  0  0  0
  3  4  1  0  0  0  0
  4  5  1  0  0  0  0
  5  6  2  0  0  0  0
  6  7  1  0  0  0  0
  7  8  2  0  0  0  0
  8  9  1  0  0  0  0
  9 10  2  0  0  0  0
 10 11  1  0  0  0  0
 11 12  2  0  0  0  0
 12 13  1  0  0  0  0
 13 14  2  0  0  0  0
 14 15  1  0  0  0  0
 15 16  2  0  0  0  0
 16 17  1  0  0  0  0
 17 18  2  0  0  0  0
 18 19  1  0  0  0  0
 19 20  2  0  0  0  0
 20 21  1  0  0  0  0
 16 22  1  0  0  0  0
 12 23  1  0  0  0  0
  8 24  1  0  0  0  0
  4 25  2  0  0  0  0
 25  1  1  0  0  0  0
 24  5  1  0  0  0  0
 23  9  1  0  0  0  0
 22 13  1  0  0  0  0
 21 17  1  0  0  0  0
  1 26  1  0  0  0  0
  2 27  1  0  0  0  0
  6 28  1  0  0  0  0
  7 29  1  0  0  0  0
 10 30  1  0  0  0  0
 11 31  1  0  0  0  0
 14 32  1  0  0  0  0
 15 33  1  0  0  0  0
 18 34  1  0  0  0  0
 19 35  1  0  0  0  0
 20 36  1  0  0  0  0
 25 37  1  0  0  0  0
M  END
