
  xtb     03022215253D
 energy: -133.033907280430 gnorm: 0.000125642381 xtb: 6.4.1 (afa7bdf)
 80 88  0     0  0            999 V2000
   -7.2940   -6.4381   -1.0035 C   0  0  0  0  0  0  0  0  0  0  0  0
   -6.0154   -6.0533   -1.4460 O   0  0  0  0  0  0  0  0  0  0  0  0
   -5.5726   -4.7950   -1.1763 C   0  0  0  0  0  0  0  0  0  0  0  0
   -6.3182   -3.8264   -0.4734 C   0  0  0  0  0  0  0  0  0  0  0  0
   -5.7940   -2.5839   -0.2514 C   0  0  0  0  0  0  0  0  0  0  0  0
   -4.5095   -2.2343   -0.7155 C   0  0  0  0  0  0  0  0  0  0  0  0
   -3.9604   -0.9589   -0.5107 C   0  0  0  0  0  0  0  0  0  0  0  0
   -2.6962   -0.6362   -0.9681 C   0  0  0  0  0  0  0  0  0  0  0  0
   -2.1960    0.7041   -0.7426 C   0  0  0  0  0  0  0  0  0  0  0  0
   -0.9170    1.0567   -0.5026 N   0  0  0  0  0  4  0  0  0  0  0  0
   -0.8754    2.4246   -0.3318 C   0  0  0  0  0  0  0  0  0  0  0  0
    0.1864    3.0921    0.0481 N   0  0  0  0  0  0  0  0  0  0  0  0
    1.3027    2.4655    0.3251 C   0  0  0  0  0  0  0  0  0  0  0  0
    2.4967    3.0480    0.8625 C   0  0  0  0  0  0  0  0  0  0  0  0
    2.7206    4.4535    1.1338 C   0  0  0  0  0  0  0  0  0  0  0  0
    1.6506    5.3274    1.3423 C   0  0  0  0  0  0  0  0  0  0  0  0
    1.8795    6.6660    1.5938 C   0  0  0  0  0  0  0  0  0  0  0  0
    3.1738    7.1584    1.6472 C   0  0  0  0  0  0  0  0  0  0  0  0
    4.2431    6.2999    1.4459 C   0  0  0  0  0  0  0  0  0  0  0  0
    4.0217    4.9606    1.1931 C   0  0  0  0  0  0  0  0  0  0  0  0
    3.3598    1.9882    1.0620 C   0  0  0  0  0  0  0  0  0  0  0  0
    2.7217    0.8025    0.6386 C   0  0  0  0  0  0  0  0  0  0  0  0
    3.3151   -0.5159    0.7048 C   0  0  0  0  0  0  0  0  0  0  0  0
    4.2110   -0.7948    1.7677 C   0  0  0  0  0  0  0  0  0  0  0  0
    4.8199   -2.0091    1.8734 C   0  0  0  0  0  0  0  0  0  0  0  0
    4.5899   -3.0247    0.9192 C   0  0  0  0  0  0  0  0  0  0  0  0
    5.2189   -4.2812    1.0034 C   0  0  0  0  0  0  0  0  0  0  0  0
    4.9749   -5.2460    0.0551 C   0  0  0  0  0  0  0  0  0  0  0  0
    5.5278   -6.4874    0.0329 O   0  0  0  0  0  0  0  0  0  0  0  0
    6.4304   -6.8397    1.0524 C   0  0  0  0  0  0  0  0  0  0  0  0
    4.0825   -4.9748   -1.0100 C   0  0  0  0  0  0  0  0  0  0  0  0
    3.4661   -3.7657   -1.1092 C   0  0  0  0  0  0  0  0  0  0  0  0
    3.6988   -2.7522   -0.1508 C   0  0  0  0  0  0  0  0  0  0  0  0
    3.0763   -1.4980   -0.2361 C   0  0  0  0  0  0  0  0  0  0  0  0
    1.4880    1.1054    0.1862 N   0  0  0  0  0  0  0  0  0  0  0  0
    0.3872    0.2178   -0.4536 B   0  0  0  0  0  4  0  0  0  0  0  0
    0.2029   -0.9367    0.2691 F   0  0  0  0  0  0  0  0  0  0  0  0
    0.7679   -0.0811   -1.7609 F   0  0  0  0  0  0  0  0  0  0  0  0
   -2.1934    2.9584   -0.5026 C   0  0  0  0  0  0  0  0  0  0  0  0
   -2.5631    4.3560   -0.4195 C   0  0  0  0  0  0  0  0  0  0  0  0
   -1.6166    5.3611   -0.6348 C   0  0  0  0  0  0  0  0  0  0  0  0
   -1.9763    6.6915   -0.5453 C   0  0  0  0  0  0  0  0  0  0  0  0
   -3.2827    7.0457   -0.2479 C   0  0  0  0  0  0  0  0  0  0  0  0
   -4.2315    6.0571   -0.0388 C   0  0  0  0  0  0  0  0  0  0  0  0
   -3.8782    4.7251   -0.1238 C   0  0  0  0  0  0  0  0  0  0  0  0
   -3.0025    1.8620   -0.7319 C   0  0  0  0  0  0  0  0  0  0  0  0
   -1.9525   -1.6163   -1.6685 C   0  0  0  0  0  0  0  0  0  0  0  0
   -2.4680   -2.8584   -1.8856 C   0  0  0  0  0  0  0  0  0  0  0  0
   -3.7550   -3.2117   -1.4200 C   0  0  0  0  0  0  0  0  0  0  0  0
   -4.3102   -4.4801   -1.6356 C   0  0  0  0  0  0  0  0  0  0  0  0
   -7.3730   -6.3985    0.0878 H   0  0  0  0  0  0  0  0  0  0  0  0
   -7.4202   -7.4680   -1.3338 H   0  0  0  0  0  0  0  0  0  0  0  0
   -8.0795   -5.8191   -1.4493 H   0  0  0  0  0  0  0  0  0  0  0  0
   -7.3056   -4.0589   -0.1060 H   0  0  0  0  0  0  0  0  0  0  0  0
   -6.3709   -1.8461    0.2880 H   0  0  0  0  0  0  0  0  0  0  0  0
   -4.5369   -0.2337    0.0455 H   0  0  0  0  0  0  0  0  0  0  0  0
    0.6446    4.9419    1.3091 H   0  0  0  0  0  0  0  0  0  0  0  0
    1.0420    7.3296    1.7532 H   0  0  0  0  0  0  0  0  0  0  0  0
    3.3499    8.2056    1.8446 H   0  0  0  0  0  0  0  0  0  0  0  0
    5.2541    6.6793    1.4833 H   0  0  0  0  0  0  0  0  0  0  0  0
    4.8591    4.3024    1.0169 H   0  0  0  0  0  0  0  0  0  0  0  0
    4.3551    2.0348    1.4580 H   0  0  0  0  0  0  0  0  0  0  0  0
    4.3835   -0.0385    2.5186 H   0  0  0  0  0  0  0  0  0  0  0  0
    5.4900   -2.2117    2.6972 H   0  0  0  0  0  0  0  0  0  0  0  0
    5.8913   -4.4573    1.8292 H   0  0  0  0  0  0  0  0  0  0  0  0
    6.7448   -7.8582    0.8307 H   0  0  0  0  0  0  0  0  0  0  0  0
    7.3065   -6.1830    1.0566 H   0  0  0  0  0  0  0  0  0  0  0  0
    5.9528   -6.8142    2.0372 H   0  0  0  0  0  0  0  0  0  0  0  0
    3.9153   -5.7591   -1.7315 H   0  0  0  0  0  0  0  0  0  0  0  0
    2.7836   -3.5618   -1.9204 H   0  0  0  0  0  0  0  0  0  0  0  0
    2.4266   -1.3085   -1.0720 H   0  0  0  0  0  0  0  0  0  0  0  0
   -0.6030    5.0846   -0.8761 H   0  0  0  0  0  0  0  0  0  0  0  0
   -1.2339    7.4581   -0.7133 H   0  0  0  0  0  0  0  0  0  0  0  0
   -3.5620    8.0868   -0.1801 H   0  0  0  0  0  0  0  0  0  0  0  0
   -5.2509    6.3287    0.1949 H   0  0  0  0  0  0  0  0  0  0  0  0
   -4.6181    3.9605    0.0586 H   0  0  0  0  0  0  0  0  0  0  0  0
   -4.0548    1.8691   -0.9373 H   0  0  0  0  0  0  0  0  0  0  0  0
   -0.9806   -1.3643   -2.0520 H   0  0  0  0  0  0  0  0  0  0  0  0
   -1.8958   -3.5969   -2.4274 H   0  0  0  0  0  0  0  0  0  0  0  0
   -3.7496   -5.2312   -2.1701 H   0  0  0  0  0  0  0  0  0  0  0  0
  1  2  1  0  0  0  0
  2  3  1  0  0  0  0
  3  4  2  0  0  0  0
  4  5  1  0  0  0  0
  5  6  2  0  0  0  0
  6  7  1  0  0  0  0
  7  8  2  0  0  0  0
  8  9  1  0  0  0  0
  9 10  2  0  0  0  0
 10 11  1  0  0  0  0
 11 12  2  0  0  0  0
 12 13  1  0  0  0  0
 13 14  2  0  0  0  0
 14 15  1  0  0  0  0
 15 16  2  0  0  0  0
 16 17  1  0  0  0  0
 17 18  2  0  0  0  0
 18 19  1  0  0  0  0
 19 20  2  0  0  0  0
 14 21  1  0  0  0  0
 21 22  2  0  0  0  0
 22 23  1  0  0  0  0
 23 24  2  0  0  0  0
 24 25  1  0  0  0  0
 25 26  2  0  0  0  0
 26 27  1  0  0  0  0
 27 28  2  0  0  0  0
 28 29  1  0  0  0  0
 29 30  1  0  0  0  0
 28 31  1  0  0  0  0
 31 32  2  0  0  0  0
 32 33  1  0  0  0  0
 33 34  2  0  0  0  0
 22 35  1  0  0  0  0
 35 36  1  0  0  0  0
 36 37  1  0  0  0  0
 36 38  1  0  0  0  0
 11 39  1  0  0  0  0
 39 40  1  0  0  0  0
 40 41  2  0  0  0  0
 41 42  1  0  0  0  0
 42 43  2  0  0  0  0
 43 44  1  0  0  0  0
 44 45  2  0  0  0  0
 39 46  2  0  0  0  0
  8 47  1  0  0  0  0
 47 48  2  0  0  0  0
 48 49  1  0  0  0  0
 49 50  2  0  0  0  0
 50  3  1  0  0  0  0
 49  6  1  0  0  0  0
 46  9  1  0  0  0  0
 36 10  1  0  0  0  0
 45 40  1  0  0  0  0
 35 13  1  0  0  0  0
 20 15  1  0  0  0  0
 34 23  1  0  0  0  0
 33 26  1  0  0  0  0
  1 51  1  0  0  0  0
  1 52  1  0  0  0  0
  1 53  1  0  0  0  0
  4 54  1  0  0  0  0
  5 55  1  0  0  0  0
  7 56  1  0  0  0  0
 16 57  1  0  0  0  0
 17 58  1  0  0  0  0
 18 59  1  0  0  0  0
 19 60  1  0  0  0  0
 20 61  1  0  0  0  0
 21 62  1  0  0  0  0
 24 63  1  0  0  0  0
 25 64  1  0  0  0  0
 27 65  1  0  0  0  0
 30 66  1  0  0  0  0
 30 67  1  0  0  0  0
 30 68  1  0  0  0  0
 31 69  1  0  0  0  0
 32 70  1  0  0  0  0
 34 71  1  0  0  0  0
 41 72  1  0  0  0  0
 42 73  1  0  0  0  0
 43 74  1  0  0  0  0
 44 75  1  0  0  0  0
 45 76  1  0  0  0  0
 46 77  1  0  0  0  0
 47 78  1  0  0  0  0
 48 79  1  0  0  0  0
 50 80  1  0  0  0  0
M  CHG  1  10   1
M  CHG  1  36  -1
M  END
