
  xtb     03022213373D
 energy: -98.566868492382 gnorm: 0.000172150954 xtb: 6.4.1 (afa7bdf)
 60 66  0     0  0            999 V2000
    8.2525   -1.4813    0.5510 C   0  0  0  0  0  0  0  0  0  0  0  0
    6.7724   -1.2548    0.5180 C   0  0  0  0  0  0  0  0  0  0  0  0
    5.9620   -1.6342    1.5824 C   0  0  0  0  0  0  0  0  0  0  0  0
    4.5995   -1.4232    1.5524 C   0  0  0  0  0  0  0  0  0  0  0  0
    4.0083   -0.7783    0.4622 C   0  0  0  0  0  0  0  0  0  0  0  0
    2.6420   -0.6703    0.4225 N   0  0  0  0  0  0  0  0  0  0  0  0
    1.9767    0.3724    0.0830 C   0  0  0  0  0  0  0  0  0  0  0  0
    0.5271    0.3071   -0.1064 C   0  0  0  0  0  0  0  0  0  0  0  0
   -0.3095   -0.7792   -0.0003 C   0  0  0  0  0  0  0  0  0  0  0  0
    0.0172   -2.0788    0.2915 N   0  0  0  0  0  0  0  0  0  0  0  0
   -1.1248   -2.8237    0.3154 C   0  0  0  0  0  0  0  0  0  0  0  0
   -1.2760   -4.1875    0.5278 C   0  0  0  0  0  0  0  0  0  0  0  0
   -2.5488   -4.7156    0.4580 C   0  0  0  0  0  0  0  0  0  0  0  0
   -3.6524   -3.9102    0.1729 C   0  0  0  0  0  0  0  0  0  0  0  0
   -3.5153   -2.5535   -0.0288 C   0  0  0  0  0  0  0  0  0  0  0  0
   -2.2438   -1.9859    0.0550 C   0  0  0  0  0  0  0  0  0  0  0  0
   -1.7235   -0.6590   -0.1404 C   0  0  0  0  0  0  0  0  0  0  0  0
   -2.2927    0.5068   -0.4184 N   0  0  0  0  0  4  0  0  0  0  0  0
   -3.6777    0.7028   -0.2759 C   0  0  0  0  0  0  0  0  0  0  0  0
   -4.3248    0.3140    0.8942 C   0  0  0  0  0  0  0  0  0  0  0  0
   -5.6758    0.5545    1.0518 C   0  0  0  0  0  0  0  0  0  0  0  0
   -6.4109    1.1873    0.0572 C   0  0  0  0  0  0  0  0  0  0  0  0
   -7.8787    1.4401    0.2172 C   0  0  0  0  0  0  0  0  0  0  0  0
   -5.7507    1.5855   -1.1008 C   0  0  0  0  0  0  0  0  0  0  0  0
   -4.4003    1.3559   -1.2698 C   0  0  0  0  0  0  0  0  0  0  0  0
   -1.4378    1.7672   -0.8134 B   0  0  0  0  0  4  0  0  0  0  0  0
   -1.5301    1.9753   -2.1798 F   0  0  0  0  0  0  0  0  0  0  0  0
   -1.9272    2.8638   -0.1425 F   0  0  0  0  0  0  0  0  0  0  0  0
    0.0353    1.5133   -0.4393 N   0  0  0  0  0  0  0  0  0  0  0  0
    1.0806    2.4212   -0.4554 C   0  0  0  0  0  0  0  0  0  0  0  0
    1.0284    3.7781   -0.7155 C   0  0  0  0  0  0  0  0  0  0  0  0
    2.2140    4.4925   -0.6445 C   0  0  0  0  0  0  0  0  0  0  0  0
    3.4137    3.8736   -0.3143 C   0  0  0  0  0  0  0  0  0  0  0  0
    3.4698    2.5125   -0.0615 C   0  0  0  0  0  0  0  0  0  0  0  0
    2.2983    1.7751   -0.1449 C   0  0  0  0  0  0  0  0  0  0  0  0
    4.8200   -0.3993   -0.6135 C   0  0  0  0  0  0  0  0  0  0  0  0
    6.1754   -0.6472   -0.5824 C   0  0  0  0  0  0  0  0  0  0  0  0
    8.6103   -1.8349   -0.4141 H   0  0  0  0  0  0  0  0  0  0  0  0
    8.7693   -0.5475    0.7757 H   0  0  0  0  0  0  0  0  0  0  0  0
    8.5183   -2.2088    1.3139 H   0  0  0  0  0  0  0  0  0  0  0  0
    6.4056   -2.1120    2.4445 H   0  0  0  0  0  0  0  0  0  0  0  0
    3.9770   -1.7186    2.3836 H   0  0  0  0  0  0  0  0  0  0  0  0
    0.9671   -2.3814    0.4338 H   0  0  0  0  0  0  0  0  0  0  0  0
   -0.4191   -4.8109    0.7321 H   0  0  0  0  0  0  0  0  0  0  0  0
   -2.6948   -5.7733    0.6181 H   0  0  0  0  0  0  0  0  0  0  0  0
   -4.6309   -4.3612    0.1099 H   0  0  0  0  0  0  0  0  0  0  0  0
   -4.3754   -1.9429   -0.2536 H   0  0  0  0  0  0  0  0  0  0  0  0
   -3.7589   -0.1573    1.6846 H   0  0  0  0  0  0  0  0  0  0  0  0
   -6.1630    0.2539    1.9685 H   0  0  0  0  0  0  0  0  0  0  0  0
   -8.4464    0.8031   -0.4614 H   0  0  0  0  0  0  0  0  0  0  0  0
   -8.1158    2.4748   -0.0234 H   0  0  0  0  0  0  0  0  0  0  0  0
   -8.2021    1.2333    1.2342 H   0  0  0  0  0  0  0  0  0  0  0  0
   -6.3052    2.0878   -1.8801 H   0  0  0  0  0  0  0  0  0  0  0  0
   -3.8955    1.6769   -2.1658 H   0  0  0  0  0  0  0  0  0  0  0  0
    0.0907    4.2514   -0.9541 H   0  0  0  0  0  0  0  0  0  0  0  0
    2.2038    5.5538   -0.8431 H   0  0  0  0  0  0  0  0  0  0  0  0
    4.3176    4.4613   -0.2563 H   0  0  0  0  0  0  0  0  0  0  0  0
    4.4051    2.0389    0.1971 H   0  0  0  0  0  0  0  0  0  0  0  0
    4.3632    0.0558   -1.4807 H   0  0  0  0  0  0  0  0  0  0  0  0
    6.7863   -0.3593   -1.4264 H   0  0  0  0  0  0  0  0  0  0  0  0
  1  2  1  0  0  0  0
  2  3  2  0  0  0  0
  3  4  1  0  0  0  0
  4  5  2  0  0  0  0
  5  6  1  0  0  0  0
  6  7  2  0  0  0  0
  7  8  1  0  0  0  0
  8  9  2  0  0  0  0
  9 10  1  0  0  0  0
 10 11  1  0  0  0  0
 11 12  2  0  0  0  0
 12 13  1  0  0  0  0
 13 14  2  0  0  0  0
 14 15  1  0  0  0  0
 15 16  2  0  0  0  0
 16 17  1  0  0  0  0
 17 18  2  0  0  0  0
 18 19  1  0  0  0  0
 19 20  2  0  0  0  0
 20 21  1  0  0  0  0
 21 22  2  0  0  0  0
 22 23  1  0  0  0  0
 22 24  1  0  0  0  0
 24 25  2  0  0  0  0
 18 26  1  0  0  0  0
 26 27  1  0  0  0  0
 26 28  1  0  0  0  0
 26 29  1  0  0  0  0
 29 30  1  0  0  0  0
 30 31  2  0  0  0  0
 31 32  1  0  0  0  0
 32 33  2  0  0  0  0
 33 34  1  0  0  0  0
 34 35  2  0  0  0  0
  5 36  1  0  0  0  0
 36 37  2  0  0  0  0
 37  2  1  0  0  0  0
 35  7  1  0  0  0  0
 29  8  1  0  0  0  0
 35 30  1  0  0  0  0
 17  9  1  0  0  0  0
 25 19  1  0  0  0  0
 16 11  1  0  0  0  0
  1 38  1  0  0  0  0
  1 39  1  0  0  0  0
  1 40  1  0  0  0  0
  3 41  1  0  0  0  0
  4 42  1  0  0  0  0
 10 43  1  0  0  0  0
 12 44  1  0  0  0  0
 13 45  1  0  0  0  0
 14 46  1  0  0  0  0
 15 47  1  0  0  0  0
 20 48  1  0  0  0  0
 21 49  1  0  0  0  0
 23 50  1  0  0  0  0
 23 51  1  0  0  0  0
 23 52  1  0  0  0  0
 24 53  1  0  0  0  0
 25 54  1  0  0  0  0
 31 55  1  0  0  0  0
 32 56  1  0  0  0  0
 33 57  1  0  0  0  0
 34 58  1  0  0  0  0
 36 59  1  0  0  0  0
 37 60  1  0  0  0  0
M  CHG  1  18   1
M  CHG  1  26  -1
M  END
