
  xtb     03022215253D
 energy: -156.631194607430 gnorm: 0.000200642856 xtb: 6.4.1 (afa7bdf)
 87 94  0     0  0            999 V2000
   -3.3424    4.3517    0.5186 C   0  0  0  0  0  0  0  0  0  0  0  0
   -2.5746    3.8242   -0.5422 O   0  0  0  0  0  0  0  0  0  0  0  0
   -1.2995    3.4171   -0.1921 C   0  0  0  0  0  0  0  0  0  0  0  0
   -1.0516    2.0512   -0.1728 C   0  0  0  0  0  0  0  0  0  0  0  0
    0.2067    1.5803    0.1701 C   0  0  0  0  0  0  0  0  0  0  0  0
    1.2389    2.5052    0.4123 C   0  0  0  0  0  0  0  0  0  0  0  0
    0.9940    3.8588    0.3967 C   0  0  0  0  0  0  0  0  0  0  0  0
   -0.2836    4.3380    0.1049 C   0  0  0  0  0  0  0  0  0  0  0  0
   -0.5158    5.7900    0.0557 C   0  0  0  0  0  0  0  0  0  0  0  0
   -0.0440    6.6102    1.0796 C   0  0  0  0  0  0  0  0  0  0  0  0
   -0.2475    7.9752    1.0377 C   0  0  0  0  0  0  0  0  0  0  0  0
   -0.9198    8.5348   -0.0416 C   0  0  0  0  0  0  0  0  0  0  0  0
   -1.1729   10.0137   -0.0660 C   0  0  0  0  0  0  0  0  0  0  0  0
   -0.1866   10.7209    0.5084 F   0  0  0  0  0  0  0  0  0  0  0  0
   -2.3007   10.3416    0.6009 F   0  0  0  0  0  0  0  0  0  0  0  0
   -1.3205   10.5023   -1.3061 F   0  0  0  0  0  0  0  0  0  0  0  0
   -1.3913    7.7313   -1.0717 C   0  0  0  0  0  0  0  0  0  0  0  0
   -1.1863    6.3664   -1.0221 C   0  0  0  0  0  0  0  0  0  0  0  0
    2.5450    1.7984    0.5914 C   0  0  0  0  0  0  0  0  0  0  0  0
    2.1617    0.3694    0.3897 C   0  0  0  0  0  0  0  0  0  0  0  0
    2.9703   -0.7385    0.3299 C   0  0  0  0  0  0  0  0  0  0  0  0
    2.4162   -2.0086    0.0949 C   0  0  0  0  0  0  0  0  0  0  0  0
    1.0549   -2.1668    0.0171 C   0  0  0  0  0  0  0  0  0  0  0  0
    0.1988   -1.0432    0.1602 C   0  0  0  0  0  0  0  0  0  0  0  0
    0.7578    0.2346    0.2363 C   0  0  0  0  0  0  0  0  0  0  0  0
   -1.1626   -1.5512    0.2220 C   0  0  0  0  0  0  0  0  0  0  0  0
   -2.3559   -0.9304    0.5692 C   0  0  0  0  0  0  0  0  0  0  0  0
   -3.5366   -1.6611    0.5694 C   0  0  0  0  0  0  0  0  0  0  0  0
   -4.7479   -1.1334    0.9003 O   0  0  0  0  0  0  0  0  0  0  0  0
   -4.8237    0.2231    1.2649 C   0  0  0  0  0  0  0  0  0  0  0  0
   -3.5235   -3.0347    0.2503 C   0  0  0  0  0  0  0  0  0  0  0  0
   -4.7693   -3.8161    0.2300 C   0  0  0  0  0  0  0  0  0  0  0  0
   -4.8295   -5.0498    0.8754 C   0  0  0  0  0  0  0  0  0  0  0  0
   -5.9858   -5.8050    0.8527 C   0  0  0  0  0  0  0  0  0  0  0  0
   -7.1003   -5.3285    0.1762 C   0  0  0  0  0  0  0  0  0  0  0  0
   -8.3586   -6.1426    0.1128 C   0  0  0  0  0  0  0  0  0  0  0  0
   -9.4679   -5.3911    0.2211 F   0  0  0  0  0  0  0  0  0  0  0  0
   -8.4758   -6.8042   -1.0583 F   0  0  0  0  0  0  0  0  0  0  0  0
   -8.4370   -7.0746    1.0741 F   0  0  0  0  0  0  0  0  0  0  0  0
   -7.0537   -4.1045   -0.4803 C   0  0  0  0  0  0  0  0  0  0  0  0
   -5.8954   -3.3549   -0.4488 C   0  0  0  0  0  0  0  0  0  0  0  0
   -2.3089   -3.6633   -0.0076 C   0  0  0  0  0  0  0  0  0  0  0  0
   -1.1401   -2.9348   -0.0142 C   0  0  0  0  0  0  0  0  0  0  0  0
    0.2654   -3.4171   -0.1895 C   0  0  0  0  0  0  0  0  0  0  0  0
    3.5251   -2.9840    0.0297 C   0  0  0  0  0  0  0  0  0  0  0  0
    3.4898   -4.1762   -0.1527 O   0  0  0  0  0  0  0  0  0  0  0  0
    4.6791   -2.2453    0.2478 N   0  0  0  0  0  0  0  0  0  0  0  0
    6.0076   -2.8170    0.2419 C   0  0  0  0  0  0  0  0  0  0  0  0
    6.6414   -2.7146   -1.1460 C   0  0  0  0  0  0  0  0  0  0  0  0
    7.9967   -3.4210   -1.2430 C   0  0  0  0  0  0  0  0  0  0  0  0
    8.4722   -3.4139   -2.6949 C   0  0  0  0  0  0  0  0  0  0  0  0
    9.0432   -2.7606   -0.3484 C   0  0  0  0  0  0  0  0  0  0  0  0
    4.4358   -0.8916    0.4315 C   0  0  0  0  0  0  0  0  0  0  0  0
    5.2835   -0.0569    0.6355 O   0  0  0  0  0  0  0  0  0  0  0  0
   -3.5134    3.5948    1.2935 H   0  0  0  0  0  0  0  0  0  0  0  0
   -2.8662    5.2254    0.9741 H   0  0  0  0  0  0  0  0  0  0  0  0
   -4.2955    4.6459    0.0837 H   0  0  0  0  0  0  0  0  0  0  0  0
   -1.8438    1.3927   -0.4852 H   0  0  0  0  0  0  0  0  0  0  0  0
    1.7960    4.5620    0.5665 H   0  0  0  0  0  0  0  0  0  0  0  0
    0.4690    6.1705    1.9217 H   0  0  0  0  0  0  0  0  0  0  0  0
    0.1144    8.6082    1.8334 H   0  0  0  0  0  0  0  0  0  0  0  0
   -1.9082    8.1760   -1.9081 H   0  0  0  0  0  0  0  0  0  0  0  0
   -1.5460    5.7381   -1.8215 H   0  0  0  0  0  0  0  0  0  0  0  0
    2.9767    1.9488    1.5839 H   0  0  0  0  0  0  0  0  0  0  0  0
    3.2960    2.1267   -0.1297 H   0  0  0  0  0  0  0  0  0  0  0  0
   -2.3539    0.0971    0.8843 H   0  0  0  0  0  0  0  0  0  0  0  0
   -4.2295    0.4354    2.1598 H   0  0  0  0  0  0  0  0  0  0  0  0
   -5.8748    0.4066    1.4825 H   0  0  0  0  0  0  0  0  0  0  0  0
   -4.5053    0.8803    0.4487 H   0  0  0  0  0  0  0  0  0  0  0  0
   -3.9677   -5.4117    1.4154 H   0  0  0  0  0  0  0  0  0  0  0  0
   -6.0289   -6.7558    1.3615 H   0  0  0  0  0  0  0  0  0  0  0  0
   -7.9246   -3.7462   -1.0079 H   0  0  0  0  0  0  0  0  0  0  0  0
   -5.8576   -2.4083   -0.9631 H   0  0  0  0  0  0  0  0  0  0  0  0
   -2.2953   -4.7227   -0.2154 H   0  0  0  0  0  0  0  0  0  0  0  0
    0.4495   -3.8308   -1.1840 H   0  0  0  0  0  0  0  0  0  0  0  0
    0.5336   -4.1947    0.5283 H   0  0  0  0  0  0  0  0  0  0  0  0
    5.9137   -3.8644    0.5397 H   0  0  0  0  0  0  0  0  0  0  0  0
    6.5997   -2.2696    0.9779 H   0  0  0  0  0  0  0  0  0  0  0  0
    5.9545   -3.1645   -1.8676 H   0  0  0  0  0  0  0  0  0  0  0  0
    6.7605   -1.6594   -1.4027 H   0  0  0  0  0  0  0  0  0  0  0  0
    7.8676   -4.4617   -0.9248 H   0  0  0  0  0  0  0  0  0  0  0  0
    9.4208   -3.9373   -2.7883 H   0  0  0  0  0  0  0  0  0  0  0  0
    8.6089   -2.3921   -3.0426 H   0  0  0  0  0  0  0  0  0  0  0  0
    7.7468   -3.9030   -3.3411 H   0  0  0  0  0  0  0  0  0  0  0  0
   10.0154   -3.2223   -0.5052 H   0  0  0  0  0  0  0  0  0  0  0  0
    9.1255   -1.7012   -0.5811 H   0  0  0  0  0  0  0  0  0  0  0  0
    8.7878   -2.8650    0.7025 H   0  0  0  0  0  0  0  0  0  0  0  0
  1  2  1  0  0  0  0
  2  3  1  0  0  0  0
  3  4  2  0  0  0  0
  4  5  1  0  0  0  0
  5  6  2  0  0  0  0
  6  7  1  0  0  0  0
  7  8  2  0  0  0  0
  8  9  1  0  0  0  0
  9 10  2  0  0  0  0
 10 11  1  0  0  0  0
 11 12  2  0  0  0  0
 12 13  1  0  0  0  0
 13 14  1  0  0  0  0
 13 15  1  0  0  0  0
 13 16  1  0  0  0  0
 12 17  1  0  0  0  0
 17 18  2  0  0  0  0
  6 19  1  0  0  0  0
 19 20  1  0  0  0  0
 20 21  2  0  0  0  0
 21 22  1  0  0  0  0
 22 23  2  0  0  0  0
 23 24  1  0  0  0  0
 24 25  2  0  0  0  0
 24 26  1  0  0  0  0
 26 27  2  0  0  0  0
 27 28  1  0  0  0  0
 28 29  1  0  0  0  0
 29 30  1  0  0  0  0
 28 31  2  0  0  0  0
 31 32  1  0  0  0  0
 32 33  2  0  0  0  0
 33 34  1  0  0  0  0
 34 35  2  0  0  0  0
 35 36  1  0  0  0  0
 36 37  1  0  0  0  0
 36 38  1  0  0  0  0
 36 39  1  0  0  0  0
 35 40  1  0  0  0  0
 40 41  2  0  0  0  0
 31 42  1  0  0  0  0
 42 43  2  0  0  0  0
 43 44  1  0  0  0  0
 22 45  1  0  0  0  0
 45 46  2  0  0  0  0
 45 47  1  0  0  0  0
 47 48  1  0  0  0  0
 48 49  1  0  0  0  0
 49 50  1  0  0  0  0
 50 51  1  0  0  0  0
 50 52  1  0  0  0  0
 47 53  1  0  0  0  0
 53 54  2  0  0  0  0
  8  3  1  0  0  0  0
 18  9  1  0  0  0  0
 25 20  1  0  0  0  0
 43 26  1  0  0  0  0
 25  5  1  0  0  0  0
 41 32  1  0  0  0  0
 53 21  1  0  0  0  0
 44 23  1  0  0  0  0
  1 55  1  0  0  0  0
  1 56  1  0  0  0  0
  1 57  1  0  0  0  0
  4 58  1  0  0  0  0
  7 59  1  0  0  0  0
 10 60  1  0  0  0  0
 11 61  1  0  0  0  0
 17 62  1  0  0  0  0
 18 63  1  0  0  0  0
 19 64  1  0  0  0  0
 19 65  1  0  0  0  0
 27 66  1  0  0  0  0
 30 67  1  0  0  0  0
 30 68  1  0  0  0  0
 30 69  1  0  0  0  0
 33 70  1  0  0  0  0
 34 71  1  0  0  0  0
 40 72  1  0  0  0  0
 41 73  1  0  0  0  0
 42 74  1  0  0  0  0
 44 75  1  0  0  0  0
 44 76  1  0  0  0  0
 48 77  1  0  0  0  0
 48 78  1  0  0  0  0
 49 79  1  0  0  0  0
 49 80  1  0  0  0  0
 50 81  1  0  0  0  0
 51 82  1  0  0  0  0
 51 83  1  0  0  0  0
 51 84  1  0  0  0  0
 52 85  1  0  0  0  0
 52 86  1  0  0  0  0
 52 87  1  0  0  0  0
M  END
