
  xtb     03022213413D
 energy: -69.464331962832 gnorm: 0.000183507508 xtb: 6.4.1 (afa7bdf)
 44 47  0     0  0            999 V2000
   -5.3191    0.4200    1.8131 C   0  0  0  0  0  0  0  0  0  0  0  0
   -4.9607    1.0955    0.4884 C   0  0  0  0  0  0  0  0  0  0  0  0
   -4.3241    0.1904   -0.4435 N   0  0  0  0  0  0  0  0  0  0  0  0
   -5.2100   -0.5129   -1.3442 C   0  0  0  0  0  0  0  0  0  0  0  0
   -5.4327    0.2414   -2.6567 C   0  0  0  0  0  0  0  0  0  0  0  0
   -2.9729    0.0085   -0.4595 C   0  0  0  0  0  0  0  0  0  0  0  0
   -2.3409   -0.7250   -1.4907 C   0  0  0  0  0  0  0  0  0  0  0  0
   -0.9839   -0.9048   -1.5123 C   0  0  0  0  0  0  0  0  0  0  0  0
   -0.1605   -0.3696   -0.5137 C   0  0  0  0  0  0  0  0  0  0  0  0
    1.2538   -0.4878   -0.4790 C   0  0  0  0  0  0  0  0  0  0  0  0
    1.9773    0.0661    0.5299 C   0  0  0  0  0  0  0  0  0  0  0  0
    3.4272   -0.0283    0.5699 C   0  0  0  0  0  0  0  0  0  0  0  0
    4.1997   -1.0994    0.1430 C   0  0  0  0  0  0  0  0  0  0  0  0
    5.4891   -0.7489    0.3683 N   0  0  0  0  0  0  0  0  0  0  0  0
    6.6539   -1.4034    0.1540 C   0  0  0  0  0  0  0  0  0  0  0  0
    7.8304   -0.7990    0.4750 C   0  0  0  0  0  0  0  0  0  0  0  0
    7.8384    0.4993    1.0285 C   0  0  0  0  0  0  0  0  0  0  0  0
    6.6654    1.1646    1.2484 C   0  0  0  0  0  0  0  0  0  0  0  0
    5.4543    0.5401    0.9186 C   0  0  0  0  0  0  0  0  0  0  0  0
    4.2147    0.9658    1.0349 N   0  0  0  0  0  0  0  0  0  0  0  0
    1.3035    0.7592    1.6306 C   0  0  0  0  0  0  0  0  0  0  0  0
    1.8221    1.1928    2.6249 O   0  0  0  0  0  0  0  0  0  0  0  0
   -0.0621    0.8902    1.5299 O   0  0  0  0  0  0  0  0  0  0  0  0
   -0.7817    0.3577    0.5158 C   0  0  0  0  0  0  0  0  0  0  0  0
   -2.1531    0.5424    0.5425 C   0  0  0  0  0  0  0  0  0  0  0  0
   -5.7978    1.1344    2.4773 H   0  0  0  0  0  0  0  0  0  0  0  0
   -4.4283    0.0323    2.2992 H   0  0  0  0  0  0  0  0  0  0  0  0
   -6.0029   -0.4089    1.6448 H   0  0  0  0  0  0  0  0  0  0  0  0
   -5.8724    1.4744    0.0181 H   0  0  0  0  0  0  0  0  0  0  0  0
   -4.3072    1.9521    0.6669 H   0  0  0  0  0  0  0  0  0  0  0  0
   -6.1701   -0.6430   -0.8370 H   0  0  0  0  0  0  0  0  0  0  0  0
   -4.8140   -1.5109   -1.5449 H   0  0  0  0  0  0  0  0  0  0  0  0
   -5.8686    1.2185   -2.4630 H   0  0  0  0  0  0  0  0  0  0  0  0
   -4.4914    0.3882   -3.1794 H   0  0  0  0  0  0  0  0  0  0  0  0
   -6.1081   -0.3179   -3.2988 H   0  0  0  0  0  0  0  0  0  0  0  0
   -2.9227   -1.1457   -2.2934 H   0  0  0  0  0  0  0  0  0  0  0  0
   -0.5280   -1.4636   -2.3166 H   0  0  0  0  0  0  0  0  0  0  0  0
    1.7511   -1.0083   -1.2861 H   0  0  0  0  0  0  0  0  0  0  0  0
    3.9210   -2.0540   -0.2542 H   0  0  0  0  0  0  0  0  0  0  0  0
    6.5908   -2.3949   -0.2700 H   0  0  0  0  0  0  0  0  0  0  0  0
    8.7595   -1.3185    0.3055 H   0  0  0  0  0  0  0  0  0  0  0  0
    8.7825    0.9581    1.2769 H   0  0  0  0  0  0  0  0  0  0  0  0
    6.6277    2.1536    1.6724 H   0  0  0  0  0  0  0  0  0  0  0  0
   -2.5496    1.0991    1.3733 H   0  0  0  0  0  0  0  0  0  0  0  0
  1  2  1  0  0  0  0
  2  3  1  0  0  0  0
  3  4  1  0  0  0  0
  4  5  1  0  0  0  0
  3  6  1  0  0  0  0
  6  7  2  0  0  0  0
  7  8  1  0  0  0  0
  8  9  2  0  0  0  0
  9 10  1  0  0  0  0
 10 11  2  0  0  0  0
 11 12  1  0  0  0  0
 12 13  2  0  0  0  0
 13 14  1  0  0  0  0
 14 15  1  0  0  0  0
 15 16  2  0  0  0  0
 16 17  1  0  0  0  0
 17 18  2  0  0  0  0
 18 19  1  0  0  0  0
 19 20  2  0  0  0  0
 11 21  1  0  0  0  0
 21 22  2  0  0  0  0
 21 23  1  0  0  0  0
 23 24  1  0  0  0  0
 24 25  2  0  0  0  0
 25  6  1  0  0  0  0
 24  9  1  0  0  0  0
 20 12  1  0  0  0  0
 19 14  1  0  0  0  0
  1 26  1  0  0  0  0
  1 27  1  0  0  0  0
  1 28  1  0  0  0  0
  2 29  1  0  0  0  0
  2 30  1  0  0  0  0
  4 31  1  0  0  0  0
  4 32  1  0  0  0  0
  5 33  1  0  0  0  0
  5 34  1  0  0  0  0
  5 35  1  0  0  0  0
  7 36  1  0  0  0  0
  8 37  1  0  0  0  0
 10 38  1  0  0  0  0
 13 39  1  0  0  0  0
 15 40  1  0  0  0  0
 16 41  1  0  0  0  0
 17 42  1  0  0  0  0
 18 43  1  0  0  0  0
 25 44  1  0  0  0  0
M  END
