
  xtb     03022216063D
 energy: -68.952792008470 gnorm: 0.000149629295 xtb: 6.4.1 (afa7bdf)
 41 44  0     0  0            999 V2000
   -2.2151   -0.9767   -2.3321 C   0  0  0  0  0  0  0  0  0  0  0  0
   -1.6461   -0.5261   -1.0831 N   0  0  0  0  0  0  0  0  0  0  0  0
   -1.5692   -1.4064   -0.0070 C   0  0  0  0  0  0  0  0  0  0  0  0
   -2.3503   -2.5633    0.0259 C   0  0  0  0  0  0  0  0  0  0  0  0
   -2.2417   -3.4613    1.0696 C   0  0  0  0  0  0  0  0  0  0  0  0
   -1.3529   -3.2255    2.1025 C   0  0  0  0  0  0  0  0  0  0  0  0
   -0.6013   -2.0650    2.0947 C   0  0  0  0  0  0  0  0  0  0  0  0
   -0.7075   -1.1437    1.0641 C   0  0  0  0  0  0  0  0  0  0  0  0
    0.1304    0.1195    1.1002 C   0  0  0  0  0  0  0  0  0  0  0  0
    0.0755    0.7300    2.3766 O   0  0  0  0  0  0  0  0  0  0  0  0
    1.5687   -0.1993    0.6880 C   0  0  0  0  0  0  0  0  0  0  0  0
    1.8251   -1.1054   -0.3330 C   0  0  0  0  0  0  0  0  0  0  0  0
    3.1263   -1.3676   -0.7213 C   0  0  0  0  0  0  0  0  0  0  0  0
    4.1832   -0.7262   -0.0977 C   0  0  0  0  0  0  0  0  0  0  0  0
    3.9320    0.1825    0.9149 C   0  0  0  0  0  0  0  0  0  0  0  0
    2.6310    0.4466    1.3047 C   0  0  0  0  0  0  0  0  0  0  0  0
   -0.3942    1.1466    0.1187 C   0  0  0  0  0  0  0  0  0  0  0  0
    0.0091    2.4562    0.2582 C   0  0  0  0  0  0  0  0  0  0  0  0
   -0.4127    3.4232   -0.6478 C   0  0  0  0  0  0  0  0  0  0  0  0
    0.0253    4.7724   -0.5028 N   0  0  0  0  0  4  0  0  0  0  0  0
   -0.3722    5.5892   -1.3140 O   0  0  0  0  0  0  0  0  0  0  0  0
    0.7752    5.0347    0.4185 O   0  0  0  0  0  1  0  0  0  0  0  0
   -1.2590    3.0753   -1.6968 C   0  0  0  0  0  0  0  0  0  0  0  0
   -1.6678    1.7716   -1.8368 C   0  0  0  0  0  0  0  0  0  0  0  0
   -1.2398    0.7764   -0.9418 C   0  0  0  0  0  0  0  0  0  0  0  0
   -2.0054   -2.0380   -2.4588 H   0  0  0  0  0  0  0  0  0  0  0  0
   -3.2969   -0.8190   -2.3786 H   0  0  0  0  0  0  0  0  0  0  0  0
   -1.7416   -0.4441   -3.1559 H   0  0  0  0  0  0  0  0  0  0  0  0
   -3.0675   -2.7600   -0.7542 H   0  0  0  0  0  0  0  0  0  0  0  0
   -2.8558   -4.3490    1.0722 H   0  0  0  0  0  0  0  0  0  0  0  0
   -1.2492   -3.9330    2.9100 H   0  0  0  0  0  0  0  0  0  0  0  0
    0.0937   -1.8850    2.9030 H   0  0  0  0  0  0  0  0  0  0  0  0
    0.4508    0.1297    3.0295 H   0  0  0  0  0  0  0  0  0  0  0  0
    1.0078   -1.6130   -0.8236 H   0  0  0  0  0  0  0  0  0  0  0  0
    3.3152   -2.0763   -1.5141 H   0  0  0  0  0  0  0  0  0  0  0  0
    5.1982   -0.9328   -0.4025 H   0  0  0  0  0  0  0  0  0  0  0  0
    4.7497    0.6914    1.4029 H   0  0  0  0  0  0  0  0  0  0  0  0
    2.4376    1.1632    2.0891 H   0  0  0  0  0  0  0  0  0  0  0  0
    0.6537    2.7398    1.0742 H   0  0  0  0  0  0  0  0  0  0  0  0
   -1.5904    3.8400   -2.3821 H   0  0  0  0  0  0  0  0  0  0  0  0
   -2.3515    1.5282   -2.6328 H   0  0  0  0  0  0  0  0  0  0  0  0
  1  2  1  0  0  0  0
  2  3  1  0  0  0  0
  3  4  2  0  0  0  0
  4  5  1  0  0  0  0
  5  6  2  0  0  0  0
  6  7  1  0  0  0  0
  7  8  2  0  0  0  0
  8  9  1  0  0  0  0
  9 10  1  0  0  0  0
  9 11  1  0  0  0  0
 11 12  2  0  0  0  0
 12 13  1  0  0  0  0
 13 14  2  0  0  0  0
 14 15  1  0  0  0  0
 15 16  2  0  0  0  0
  9 17  1  0  0  0  0
 17 18  2  0  0  0  0
 18 19  1  0  0  0  0
 19 20  1  0  0  0  0
 20 21  2  0  0  0  0
 20 22  1  0  0  0  0
 19 23  2  0  0  0  0
 23 24  1  0  0  0  0
 24 25  2  0  0  0  0
 25  2  1  0  0  0  0
  8  3  1  0  0  0  0
 16 11  1  0  0  0  0
 25 17  1  0  0  0  0
  1 26  1  0  0  0  0
  1 27  1  0  0  0  0
  1 28  1  0  0  0  0
  4 29  1  0  0  0  0
  5 30  1  0  0  0  0
  6 31  1  0  0  0  0
  7 32  1  0  0  0  0
 10 33  1  0  0  0  0
 12 34  1  0  0  0  0
 13 35  1  0  0  0  0
 14 36  1  0  0  0  0
 15 37  1  0  0  0  0
 16 38  1  0  0  0  0
 18 39  1  0  0  0  0
 23 40  1  0  0  0  0
 24 41  1  0  0  0  0
M  CHG  1  20   1
M  CHG  1  22  -1
M  END
