
  xtb     03022214143D
 energy: -81.041055104444 gnorm: 0.000457051099 xtb: 6.4.1 (afa7bdf)
 38 42  0     0  0            999 V2000
   -0.0648    0.9736   -1.2029 F   0  0  0  0  0  0  0  0  0  0  0  0
    0.0358    0.2890   -0.0030 B   0  0  0  0  0  4  0  0  0  0  0  0
   -0.1033    1.1636    1.0627 F   0  0  0  0  0  0  0  0  0  0  0  0
    1.4084   -0.4070    0.0775 N   0  0  0  0  0  0  0  0  0  0  0  0
    1.5487   -1.7679    0.2069 C   0  0  0  0  0  0  0  0  0  0  0  0
    2.9325   -2.0788    0.2480 C   0  0  0  0  0  0  0  0  0  0  0  0
    3.6044   -0.8949    0.1403 C   0  0  0  0  0  0  0  0  0  0  0  0
    2.6409    0.1437    0.0354 C   0  0  0  0  0  0  0  0  0  0  0  0
    2.9694    1.5219   -0.0920 C   0  0  0  0  0  0  0  0  0  0  0  0
    2.1928    2.6569   -0.1758 C   0  0  0  0  0  0  0  0  0  0  0  0
    2.9453    3.8335   -0.2919 C   0  0  0  0  0  0  0  0  0  0  0  0
    4.2902    3.6078   -0.2979 C   0  0  0  0  0  0  0  0  0  0  0  0
    4.6675    1.9475   -0.1599 S   0  0  0  0  0  0  0  0  0  0  0  0
    0.4434   -2.6166    0.2727 C   0  0  0  0  0  0  0  0  0  0  0  0
    0.7573   -4.0804    0.4168 C   0  0  0  0  0  0  0  0  0  0  0  0
    1.4918   -4.5366   -0.6153 F   0  0  0  0  0  0  0  0  0  0  0  0
    1.4812   -4.3286    1.5244 F   0  0  0  0  0  0  0  0  0  0  0  0
   -0.3020   -4.8897    0.4907 F   0  0  0  0  0  0  0  0  0  0  0  0
   -0.8577   -2.1262    0.2028 C   0  0  0  0  0  0  0  0  0  0  0  0
   -2.1157   -2.7841    0.2392 C   0  0  0  0  0  0  0  0  0  0  0  0
   -3.0734   -1.8189    0.1261 C   0  0  0  0  0  0  0  0  0  0  0  0
   -2.4171   -0.5609    0.0210 C   0  0  0  0  0  0  0  0  0  0  0  0
   -3.1015    0.6788   -0.1104 C   0  0  0  0  0  0  0  0  0  0  0  0
   -4.4819    0.8095   -0.1747 C   0  0  0  0  0  0  0  0  0  0  0  0
   -4.9095    2.1311   -0.3005 C   0  0  0  0  0  0  0  0  0  0  0  0
   -3.8627    3.0115   -0.3315 C   0  0  0  0  0  0  0  0  0  0  0  0
   -2.3486    2.2416   -0.2100 S   0  0  0  0  0  0  0  0  0  0  0  0
   -1.0848   -0.7729    0.0692 N   0  0  0  0  0  4  0  0  0  0  0  0
    3.3553   -3.0585    0.3437 H   0  0  0  0  0  0  0  0  0  0  0  0
    4.6664   -0.7471    0.1347 H   0  0  0  0  0  0  0  0  0  0  0  0
    1.1222    2.6508   -0.1531 H   0  0  0  0  0  0  0  0  0  0  0  0
    2.5084    4.8128   -0.3682 H   0  0  0  0  0  0  0  0  0  0  0  0
    5.0833    4.3253   -0.3757 H   0  0  0  0  0  0  0  0  0  0  0  0
   -2.2788   -3.8372    0.3366 H   0  0  0  0  0  0  0  0  0  0  0  0
   -4.1331   -1.9718    0.1189 H   0  0  0  0  0  0  0  0  0  0  0  0
   -5.1570   -0.0246   -0.1340 H   0  0  0  0  0  0  0  0  0  0  0  0
   -5.9417    2.4245   -0.3655 H   0  0  0  0  0  0  0  0  0  0  0  0
   -3.9115    4.0791   -0.4211 H   0  0  0  0  0  0  0  0  0  0  0  0
  1  2  1  0  0  0  0
  2  3  1  0  0  0  0
  2  4  1  0  0  0  0
  4  5  1  0  0  0  0
  5  6  2  0  0  0  0
  6  7  1  0  0  0  0
  7  8  2  0  0  0  0
  8  9  1  0  0  0  0
  9 10  2  0  0  0  0
 10 11  1  0  0  0  0
 11 12  2  0  0  0  0
 12 13  1  0  0  0  0
  5 14  1  0  0  0  0
 14 15  1  0  0  0  0
 15 16  1  0  0  0  0
 15 17  1  0  0  0  0
 15 18  1  0  0  0  0
 14 19  2  0  0  0  0
 19 20  1  0  0  0  0
 20 21  2  0  0  0  0
 21 22  1  0  0  0  0
 22 23  1  0  0  0  0
 23 24  2  0  0  0  0
 24 25  1  0  0  0  0
 25 26  2  0  0  0  0
 26 27  1  0  0  0  0
 22 28  2  0  0  0  0
 28  2  1  0  0  0  0
  8  4  1  0  0  0  0
 13  9  1  0  0  0  0
 28 19  1  0  0  0  0
 27 23  1  0  0  0  0
  6 29  1  0  0  0  0
  7 30  1  0  0  0  0
 10 31  1  0  0  0  0
 11 32  1  0  0  0  0
 12 33  1  0  0  0  0
 20 34  1  0  0  0  0
 21 35  1  0  0  0  0
 24 36  1  0  0  0  0
 25 37  1  0  0  0  0
 26 38  1  0  0  0  0
M  CHG  1   2  -1
M  CHG  1  28   1
M  END
