
  xtb     03022215053D
 energy: -65.096280222784 gnorm: 0.000058222709 xtb: 6.4.1 (afa7bdf)
 43 47  0     0  0            999 V2000
    0.5980   -0.6525    0.2573 C   0  0  0  0  0  0  0  0  0  0  0  0
   -0.3082    0.2477   -0.1413 C   0  0  0  0  0  0  0  0  0  0  0  0
   -1.7538    0.0477   -0.0609 C   0  0  0  0  0  0  0  0  0  0  0  0
   -2.3595   -1.0894   -0.6301 C   0  0  0  0  0  0  0  0  0  0  0  0
   -1.6350   -2.0537   -1.3780 C   0  0  0  0  0  0  0  0  0  0  0  0
   -2.2489   -3.1489   -1.9059 C   0  0  0  0  0  0  0  0  0  0  0  0
   -3.6325   -3.3524   -1.7305 C   0  0  0  0  0  0  0  0  0  0  0  0
   -4.3731   -2.4312   -1.0580 C   0  0  0  0  0  0  0  0  0  0  0  0
   -3.7728   -1.2715   -0.5033 C   0  0  0  0  0  0  0  0  0  0  0  0
   -4.5358   -0.3097    0.1501 C   0  0  0  0  0  0  0  0  0  0  0  0
   -3.9558    0.8358    0.6854 C   0  0  0  0  0  0  0  0  0  0  0  0
   -4.7360    1.8207    1.3433 C   0  0  0  0  0  0  0  0  0  0  0  0
   -4.1576    2.9230    1.8919 C   0  0  0  0  0  0  0  0  0  0  0  0
   -2.7605    3.0934    1.8221 C   0  0  0  0  0  0  0  0  0  0  0  0
   -1.9787    2.1688    1.1979 C   0  0  0  0  0  0  0  0  0  0  0  0
   -2.5419    1.0177    0.5889 C   0  0  0  0  0  0  0  0  0  0  0  0
    2.0388   -0.5001    0.1980 C   0  0  0  0  0  0  0  0  0  0  0  0
    2.8545   -1.5202    0.7570 C   0  0  0  0  0  0  0  0  0  0  0  0
    4.1524   -1.5145    0.7681 N   0  0  0  0  0  0  0  0  0  0  0  0
    4.8016   -0.4696    0.2125 C   0  0  0  0  0  0  0  0  0  0  0  0
    6.2100   -0.4575    0.2219 C   0  0  0  0  0  0  0  0  0  0  0  0
    6.8924    0.5886   -0.3351 C   0  0  0  0  0  0  0  0  0  0  0  0
    6.2016    1.6613   -0.9225 C   0  0  0  0  0  0  0  0  0  0  0  0
    4.8353    1.6771   -0.9476 C   0  0  0  0  0  0  0  0  0  0  0  0
    4.0991    0.6153   -0.3822 C   0  0  0  0  0  0  0  0  0  0  0  0
    2.6939    0.5708   -0.3762 C   0  0  0  0  0  0  0  0  0  0  0  0
    0.2535   -1.5826    0.6932 H   0  0  0  0  0  0  0  0  0  0  0  0
    0.0130    1.2063   -0.5283 H   0  0  0  0  0  0  0  0  0  0  0  0
   -0.5793   -1.9007   -1.5422 H   0  0  0  0  0  0  0  0  0  0  0  0
   -1.6781   -3.8695   -2.4733 H   0  0  0  0  0  0  0  0  0  0  0  0
   -4.0962   -4.2331   -2.1501 H   0  0  0  0  0  0  0  0  0  0  0  0
   -5.4397   -2.5586   -0.9381 H   0  0  0  0  0  0  0  0  0  0  0  0
   -5.6032   -0.4550    0.2430 H   0  0  0  0  0  0  0  0  0  0  0  0
   -5.8048    1.6699    1.4002 H   0  0  0  0  0  0  0  0  0  0  0  0
   -4.7578    3.6698    2.3906 H   0  0  0  0  0  0  0  0  0  0  0  0
   -2.3129    3.9656    2.2762 H   0  0  0  0  0  0  0  0  0  0  0  0
   -0.9081    2.3045    1.1720 H   0  0  0  0  0  0  0  0  0  0  0  0
    2.3840   -2.3826    1.2158 H   0  0  0  0  0  0  0  0  0  0  0  0
    6.7205   -1.2911    0.6781 H   0  0  0  0  0  0  0  0  0  0  0  0
    7.9725    0.5986   -0.3280 H   0  0  0  0  0  0  0  0  0  0  0  0
    6.7624    2.4766   -1.3559 H   0  0  0  0  0  0  0  0  0  0  0  0
    4.2987    2.5003   -1.3988 H   0  0  0  0  0  0  0  0  0  0  0  0
    2.1475    1.3852   -0.8317 H   0  0  0  0  0  0  0  0  0  0  0  0
  1  2  2  0  0  0  0
  2  3  1  0  0  0  0
  3  4  1  0  0  0  0
  4  5  2  0  0  0  0
  5  6  1  0  0  0  0
  6  7  2  0  0  0  0
  7  8  1  0  0  0  0
  8  9  2  0  0  0  0
  9 10  1  0  0  0  0
 10 11  2  0  0  0  0
 11 12  1  0  0  0  0
 12 13  2  0  0  0  0
 13 14  1  0  0  0  0
 14 15  2  0  0  0  0
 15 16  1  0  0  0  0
  1 17  1  0  0  0  0
 17 18  2  0  0  0  0
 18 19  1  0  0  0  0
 19 20  2  0  0  0  0
 20 21  1  0  0  0  0
 21 22  2  0  0  0  0
 22 23  1  0  0  0  0
 23 24  2  0  0  0  0
 24 25  1  0  0  0  0
 25 26  2  0  0  0  0
 16  3  2  0  0  0  0
 26 17  1  0  0  0  0
  9  4  1  0  0  0  0
 16 11  1  0  0  0  0
 25 20  1  0  0  0  0
  1 27  1  0  0  0  0
  2 28  1  0  0  0  0
  5 29  1  0  0  0  0
  6 30  1  0  0  0  0
  7 31  1  0  0  0  0
  8 32  1  0  0  0  0
 10 33  1  0  0  0  0
 12 34  1  0  0  0  0
 13 35  1  0  0  0  0
 14 36  1  0  0  0  0
 15 37  1  0  0  0  0
 18 38  1  0  0  0  0
 21 39  1  0  0  0  0
 22 40  1  0  0  0  0
 23 41  1  0  0  0  0
 24 42  1  0  0  0  0
 26 43  1  0  0  0  0
M  END
