
  xtb     03022213043D
 energy: -86.013788817033 gnorm: 0.000409478589 xtb: 6.4.1 (afa7bdf)
 52 57  0     0  0            999 V2000
   -6.0086   -1.0844    2.6190 O   0  0  0  0  0  0  0  0  0  0  0  0
   -4.8438   -0.7733    2.4661 N   0  0  0  0  0  4  0  0  0  0  0  0
   -4.1721   -0.2011    3.3008 O   0  0  0  0  0  1  0  0  0  0  0  0
   -4.2244   -1.1011    1.2170 C   0  0  0  0  0  0  0  0  0  0  0  0
   -4.9559   -1.7684    0.2398 C   0  0  0  0  0  0  0  0  0  0  0  0
   -4.3512   -2.0715   -0.9598 C   0  0  0  0  0  0  0  0  0  0  0  0
   -3.0233   -1.7158   -1.2025 C   0  0  0  0  0  0  0  0  0  0  0  0
   -2.4367   -1.9568   -2.3870 O   0  0  0  0  0  0  0  0  0  0  0  0
   -2.2855   -1.0463   -0.2080 C   0  0  0  0  0  0  0  0  0  0  0  0
   -0.8595   -0.7254   -0.4083 C   0  0  0  0  0  0  0  0  0  0  0  0
   -0.1054   -1.7331   -0.8311 N   0  0  0  0  0  0  0  0  0  0  0  0
    1.2023   -1.6057   -0.8478 C   0  0  0  0  0  0  0  0  0  0  0  0
    1.8653   -0.4723   -0.3408 C   0  0  0  0  0  0  0  0  0  0  0  0
    1.0820    0.6461   -0.0650 C   0  0  0  0  0  0  0  0  0  0  0  0
   -0.3176    0.5350   -0.1271 C   0  0  0  0  0  0  0  0  0  0  0  0
   -1.1327    1.7266    0.1259 C   0  0  0  0  0  0  0  0  0  0  0  0
   -2.3925    1.9071   -0.4393 C   0  0  0  0  0  0  0  0  0  0  0  0
   -3.1521    3.0178   -0.1245 C   0  0  0  0  0  0  0  0  0  0  0  0
   -2.6623    3.9678    0.7554 C   0  0  0  0  0  0  0  0  0  0  0  0
   -1.3858    3.8297    1.2728 C   0  0  0  0  0  0  0  0  0  0  0  0
   -0.6092    2.7298    0.9518 C   0  0  0  0  0  0  0  0  0  0  0  0
    0.8153    2.5985    1.4068 C   0  0  0  0  0  0  0  0  0  0  0  0
    1.6206    2.0125    0.2469 C   0  0  0  0  0  0  0  0  0  0  0  0
    3.3203   -0.5752   -0.1765 C   0  0  0  0  0  0  0  0  0  0  0  0
    4.0029   -0.0184    0.9011 C   0  0  0  0  0  0  0  0  0  0  0  0
    5.3754   -0.1531    1.0096 C   0  0  0  0  0  0  0  0  0  0  0  0
    6.0817   -0.8598    0.0523 C   0  0  0  0  0  0  0  0  0  0  0  0
    5.4017   -1.4827   -0.9811 C   0  0  0  0  0  0  0  0  0  0  0  0
    4.0275   -1.3638   -1.0936 C   0  0  0  0  0  0  0  0  0  0  0  0
    3.2397   -2.1115   -2.1295 C   0  0  0  0  0  0  0  0  0  0  0  0
    2.0137   -2.7160   -1.4431 C   0  0  0  0  0  0  0  0  0  0  0  0
   -2.8976   -0.7514    0.9971 C   0  0  0  0  0  0  0  0  0  0  0  0
   -5.9827   -2.0348    0.4353 H   0  0  0  0  0  0  0  0  0  0  0  0
   -4.9089   -2.5873   -1.7298 H   0  0  0  0  0  0  0  0  0  0  0  0
   -3.0302   -2.4535   -2.9652 H   0  0  0  0  0  0  0  0  0  0  0  0
   -2.7701    1.1850   -1.1471 H   0  0  0  0  0  0  0  0  0  0  0  0
   -4.1285    3.1429   -0.5686 H   0  0  0  0  0  0  0  0  0  0  0  0
   -3.2612    4.8274    1.0161 H   0  0  0  0  0  0  0  0  0  0  0  0
   -0.9827    4.5912    1.9254 H   0  0  0  0  0  0  0  0  0  0  0  0
    1.2102    3.5727    1.6988 H   0  0  0  0  0  0  0  0  0  0  0  0
    0.8786    1.9335    2.2749 H   0  0  0  0  0  0  0  0  0  0  0  0
    2.6858    1.9951    0.4603 H   0  0  0  0  0  0  0  0  0  0  0  0
    1.4701    2.6461   -0.6352 H   0  0  0  0  0  0  0  0  0  0  0  0
    3.4576    0.4857    1.6849 H   0  0  0  0  0  0  0  0  0  0  0  0
    5.8924    0.2880    1.8491 H   0  0  0  0  0  0  0  0  0  0  0  0
    7.1547   -0.9547    0.1285 H   0  0  0  0  0  0  0  0  0  0  0  0
    5.9441   -2.0799   -1.7005 H   0  0  0  0  0  0  0  0  0  0  0  0
    2.9108   -1.4295   -2.9202 H   0  0  0  0  0  0  0  0  0  0  0  0
    3.8519   -2.8905   -2.5856 H   0  0  0  0  0  0  0  0  0  0  0  0
    1.3912   -3.2729   -2.1427 H   0  0  0  0  0  0  0  0  0  0  0  0
    2.3365   -3.4017   -0.6538 H   0  0  0  0  0  0  0  0  0  0  0  0
   -2.3516   -0.2460    1.7788 H   0  0  0  0  0  0  0  0  0  0  0  0
  1  2  2  0  0  0  0
  2  3  1  0  0  0  0
  2  4  1  0  0  0  0
  4  5  2  0  0  0  0
  5  6  1  0  0  0  0
  6  7  2  0  0  0  0
  7  8  1  0  0  0  0
  7  9  1  0  0  0  0
  9 10  1  0  0  0  0
 10 11  2  0  0  0  0
 11 12  1  0  0  0  0
 12 13  2  0  0  0  0
 13 14  1  0  0  0  0
 14 15  2  0  0  0  0
 15 16  1  0  0  0  0
 16 17  2  0  0  0  0
 17 18  1  0  0  0  0
 18 19  2  0  0  0  0
 19 20  1  0  0  0  0
 20 21  2  0  0  0  0
 21 22  1  0  0  0  0
 22 23  1  0  0  0  0
 13 24  1  0  0  0  0
 24 25  2  0  0  0  0
 25 26  1  0  0  0  0
 26 27  2  0  0  0  0
 27 28  1  0  0  0  0
 28 29  2  0  0  0  0
 29 30  1  0  0  0  0
 30 31  1  0  0  0  0
  9 32  2  0  0  0  0
 32  4  1  0  0  0  0
 15 10  1  0  0  0  0
 21 16  1  0  0  0  0
 29 24  1  0  0  0  0
 31 12  1  0  0  0  0
 23 14  1  0  0  0  0
  5 33  1  0  0  0  0
  6 34  1  0  0  0  0
  8 35  1  0  0  0  0
 17 36  1  0  0  0  0
 18 37  1  0  0  0  0
 19 38  1  0  0  0  0
 20 39  1  0  0  0  0
 22 40  1  0  0  0  0
 22 41  1  0  0  0  0
 23 42  1  0  0  0  0
 23 43  1  0  0  0  0
 25 44  1  0  0  0  0
 26 45  1  0  0  0  0
 27 46  1  0  0  0  0
 28 47  1  0  0  0  0
 30 48  1  0  0  0  0
 30 49  1  0  0  0  0
 31 50  1  0  0  0  0
 31 51  1  0  0  0  0
 32 52  1  0  0  0  0
M  CHG  1   2   1
M  CHG  1   3  -1
M  END
