
  xtb     03022212083D
 energy: -124.630772538112 gnorm: 0.000075751737 xtb: 6.4.1 (afa7bdf)
 82 87  0     0  0            999 V2000
   -5.6749   -9.5114    0.7192 C   0  0  0  0  0  0  0  0  0  0  0  0
   -6.5526   -8.4193    0.5912 O   0  0  0  0  0  0  0  0  0  0  0  0
   -6.0289   -7.1688    0.4904 C   0  0  0  0  0  0  0  0  0  0  0  0
   -6.9523   -6.1279    0.3649 C   0  0  0  0  0  0  0  0  0  0  0  0
   -6.5236   -4.8267    0.2558 C   0  0  0  0  0  0  0  0  0  0  0  0
   -5.1607   -4.5033    0.2665 C   0  0  0  0  0  0  0  0  0  0  0  0
   -4.7679   -3.1148    0.1467 C   0  0  0  0  0  0  0  0  0  0  0  0
   -3.5157   -2.6360    0.1387 C   0  0  0  0  0  0  0  0  0  0  0  0
   -3.1396   -1.2400    0.0151 C   0  0  0  0  0  0  0  0  0  0  0  0
   -4.0422   -0.1814   -0.1125 C   0  0  0  0  0  0  0  0  0  0  0  0
   -3.5162    1.1078   -0.2231 C   0  0  0  0  0  0  0  0  0  0  0  0
   -4.3884    2.2583   -0.3558 C   0  0  0  0  0  0  0  0  0  0  0  0
   -3.9145    3.5091   -0.4587 C   0  0  0  0  0  0  0  0  0  0  0  0
   -4.6793    4.7285   -0.5909 C   0  0  0  0  0  0  0  0  0  0  0  0
   -6.0786    4.7618   -0.6370 C   0  0  0  0  0  0  0  0  0  0  0  0
   -6.7560    5.9509   -0.7615 C   0  0  0  0  0  0  0  0  0  0  0  0
   -6.0637    7.1625   -0.8456 C   0  0  0  0  0  0  0  0  0  0  0  0
   -6.8321    8.2781   -0.9654 O   0  0  0  0  0  0  0  0  0  0  0  0
   -6.1954    9.5294   -1.0533 C   0  0  0  0  0  0  0  0  0  0  0  0
   -4.6730    7.1473   -0.8022 C   0  0  0  0  0  0  0  0  0  0  0  0
   -4.0022    5.9465   -0.6771 C   0  0  0  0  0  0  0  0  0  0  0  0
   -2.1970    1.3121   -0.2079 N   0  0  0  0  0  0  0  0  0  0  0  0
   -1.4080    0.2488   -0.0817 C   0  0  0  0  0  0  0  0  0  0  0  0
    0.0184    0.5097   -0.0674 C   0  0  0  0  0  0  0  0  0  0  0  0
    0.9295   -0.4650    0.0694 C   0  0  0  0  0  0  0  0  0  0  0  0
    2.3664   -0.3175    0.0989 C   0  0  0  0  0  0  0  0  0  0  0  0
    3.0160    0.9147   -0.0354 C   0  0  0  0  0  0  0  0  0  0  0  0
    4.3885    1.0056    0.0001 C   0  0  0  0  0  0  0  0  0  0  0  0
    5.1748   -0.1369    0.1706 C   0  0  0  0  0  0  0  0  0  0  0  0
    6.5663   -0.0445    0.2051 N   0  0  0  0  0  0  0  0  0  0  0  0
    7.3060   -0.8846    1.0463 C   0  0  0  0  0  0  0  0  0  0  0  0
    8.5337   -1.3986    0.6299 C   0  0  0  0  0  0  0  0  0  0  0  0
    9.2631   -2.2210    1.4664 C   0  0  0  0  0  0  0  0  0  0  0  0
    8.7808   -2.5505    2.7225 C   0  0  0  0  0  0  0  0  0  0  0  0
    7.5600   -2.0453    3.1393 C   0  0  0  0  0  0  0  0  0  0  0  0
    6.8270   -1.2155    2.3137 C   0  0  0  0  0  0  0  0  0  0  0  0
    7.2284    0.8874   -0.6037 C   0  0  0  0  0  0  0  0  0  0  0  0
    6.7721    1.1534   -1.8945 C   0  0  0  0  0  0  0  0  0  0  0  0
    7.4282    2.0740   -2.6880 C   0  0  0  0  0  0  0  0  0  0  0  0
    8.5496    2.7359   -2.2152 C   0  0  0  0  0  0  0  0  0  0  0  0
    9.0093    2.4720   -0.9353 C   0  0  0  0  0  0  0  0  0  0  0  0
    8.3553    1.5592   -0.1309 C   0  0  0  0  0  0  0  0  0  0  0  0
    4.5379   -1.3725    0.3053 C   0  0  0  0  0  0  0  0  0  0  0  0
    3.1645   -1.4546    0.2701 C   0  0  0  0  0  0  0  0  0  0  0  0
   -1.8252   -1.0104    0.0301 N   0  0  0  0  0  0  0  0  0  0  0  0
   -4.2508   -5.5536    0.3929 C   0  0  0  0  0  0  0  0  0  0  0  0
   -4.6703   -6.8646    0.5033 C   0  0  0  0  0  0  0  0  0  0  0  0
   -6.3097  -10.3938    0.7815 H   0  0  0  0  0  0  0  0  0  0  0  0
   -5.0156   -9.6015   -0.1502 H   0  0  0  0  0  0  0  0  0  0  0  0
   -5.0700   -9.4368    1.6286 H   0  0  0  0  0  0  0  0  0  0  0  0
   -8.0024   -6.3741    0.3562 H   0  0  0  0  0  0  0  0  0  0  0  0
   -7.2540   -4.0360    0.1594 H   0  0  0  0  0  0  0  0  0  0  0  0
   -5.5982   -2.4257    0.0557 H   0  0  0  0  0  0  0  0  0  0  0  0
   -2.6647   -3.2954    0.2272 H   0  0  0  0  0  0  0  0  0  0  0  0
   -5.1082   -0.3391   -0.1263 H   0  0  0  0  0  0  0  0  0  0  0  0
   -5.4476    2.0433   -0.3646 H   0  0  0  0  0  0  0  0  0  0  0  0
   -2.8383    3.6236   -0.4395 H   0  0  0  0  0  0  0  0  0  0  0  0
   -6.6412    3.8436   -0.5746 H   0  0  0  0  0  0  0  0  0  0  0  0
   -7.8340    5.9780   -0.7970 H   0  0  0  0  0  0  0  0  0  0  0  0
   -5.6048    9.7441   -0.1567 H   0  0  0  0  0  0  0  0  0  0  0  0
   -6.9961   10.2623   -1.1399 H   0  0  0  0  0  0  0  0  0  0  0  0
   -5.5516    9.5920   -1.9366 H   0  0  0  0  0  0  0  0  0  0  0  0
   -4.1049    8.0624   -0.8647 H   0  0  0  0  0  0  0  0  0  0  0  0
   -2.9221    5.9505   -0.6445 H   0  0  0  0  0  0  0  0  0  0  0  0
    0.2824    1.5508   -0.1725 H   0  0  0  0  0  0  0  0  0  0  0  0
    0.5556   -1.4757    0.1713 H   0  0  0  0  0  0  0  0  0  0  0  0
    2.4353    1.8150   -0.1610 H   0  0  0  0  0  0  0  0  0  0  0  0
    4.8701    1.9680   -0.0963 H   0  0  0  0  0  0  0  0  0  0  0  0
    8.9073   -1.1508   -0.3529 H   0  0  0  0  0  0  0  0  0  0  0  0
   10.2115   -2.6143    1.1308 H   0  0  0  0  0  0  0  0  0  0  0  0
    9.3523   -3.1959    3.3720 H   0  0  0  0  0  0  0  0  0  0  0  0
    7.1788   -2.2919    4.1194 H   0  0  0  0  0  0  0  0  0  0  0  0
    5.8804   -0.8141    2.6449 H   0  0  0  0  0  0  0  0  0  0  0  0
    5.9042    0.6307   -2.2690 H   0  0  0  0  0  0  0  0  0  0  0  0
    7.0659    2.2691   -3.6867 H   0  0  0  0  0  0  0  0  0  0  0  0
    9.0617    3.4521   -2.8397 H   0  0  0  0  0  0  0  0  0  0  0  0
    9.8797    2.9871   -0.5563 H   0  0  0  0  0  0  0  0  0  0  0  0
    8.7101    1.3617    0.8702 H   0  0  0  0  0  0  0  0  0  0  0  0
    5.1335   -2.2653    0.4295 H   0  0  0  0  0  0  0  0  0  0  0  0
    2.6891   -2.4201    0.3684 H   0  0  0  0  0  0  0  0  0  0  0  0
   -3.1919   -5.3486    0.4059 H   0  0  0  0  0  0  0  0  0  0  0  0
   -3.9298   -7.6434    0.5989 H   0  0  0  0  0  0  0  0  0  0  0  0
  1  2  1  0  0  0  0
  2  3  1  0  0  0  0
  3  4  2  0  0  0  0
  4  5  1  0  0  0  0
  5  6  2  0  0  0  0
  6  7  1  0  0  0  0
  7  8  2  0  0  0  0
  8  9  1  0  0  0  0
  9 10  2  0  0  0  0
 10 11  1  0  0  0  0
 11 12  1  0  0  0  0
 12 13  2  0  0  0  0
 13 14  1  0  0  0  0
 14 15  2  0  0  0  0
 15 16  1  0  0  0  0
 16 17  2  0  0  0  0
 17 18  1  0  0  0  0
 18 19  1  0  0  0  0
 17 20  1  0  0  0  0
 20 21  2  0  0  0  0
 11 22  2  0  0  0  0
 22 23  1  0  0  0  0
 23 24  1  0  0  0  0
 24 25  2  0  0  0  0
 25 26  1  0  0  0  0
 26 27  2  0  0  0  0
 27 28  1  0  0  0  0
 28 29  2  0  0  0  0
 29 30  1  0  0  0  0
 30 31  1  0  0  0  0
 31 32  2  0  0  0  0
 32 33  1  0  0  0  0
 33 34  2  0  0  0  0
 34 35  1  0  0  0  0
 35 36  2  0  0  0  0
 30 37  1  0  0  0  0
 37 38  2  0  0  0  0
 38 39  1  0  0  0  0
 39 40  2  0  0  0  0
 40 41  1  0  0  0  0
 41 42  2  0  0  0  0
 29 43  1  0  0  0  0
 43 44  2  0  0  0  0
 23 45  2  0  0  0  0
  6 46  1  0  0  0  0
 46 47  2  0  0  0  0
 47  3  1  0  0  0  0
 45  9  1  0  0  0  0
 21 14  1  0  0  0  0
 44 26  1  0  0  0  0
 36 31  1  0  0  0  0
 42 37  1  0  0  0  0
  1 48  1  0  0  0  0
  1 49  1  0  0  0  0
  1 50  1  0  0  0  0
  4 51  1  0  0  0  0
  5 52  1  0  0  0  0
  7 53  1  0  0  0  0
  8 54  1  0  0  0  0
 10 55  1  0  0  0  0
 12 56  1  0  0  0  0
 13 57  1  0  0  0  0
 15 58  1  0  0  0  0
 16 59  1  0  0  0  0
 19 60  1  0  0  0  0
 19 61  1  0  0  0  0
 19 62  1  0  0  0  0
 20 63  1  0  0  0  0
 21 64  1  0  0  0  0
 24 65  1  0  0  0  0
 25 66  1  0  0  0  0
 27 67  1  0  0  0  0
 28 68  1  0  0  0  0
 32 69  1  0  0  0  0
 33 70  1  0  0  0  0
 34 71  1  0  0  0  0
 35 72  1  0  0  0  0
 36 73  1  0  0  0  0
 38 74  1  0  0  0  0
 39 75  1  0  0  0  0
 40 76  1  0  0  0  0
 41 77  1  0  0  0  0
 42 78  1  0  0  0  0
 43 79  1  0  0  0  0
 44 80  1  0  0  0  0
 46 81  1  0  0  0  0
 47 82  1  0  0  0  0
M  END
