
  xtb     03022215413D
 energy: -69.536501629507 gnorm: 0.000073452121 xtb: 6.4.1 (afa7bdf)
 47 50  0     0  0            999 V2000
    2.8483   -0.7767   -0.0469 C   0  0  0  0  0  0  0  0  0  0  0  0
    1.7254   -0.0545    0.1024 C   0  0  0  0  0  0  0  0  0  0  0  0
    0.4234   -0.6489    0.1598 C   0  0  0  0  0  0  0  0  0  0  0  0
    0.2224   -1.9888    0.0679 N   0  0  0  0  0  0  0  0  0  0  0  0
   -1.0734   -2.1913    0.1565 C   0  0  0  0  0  0  0  0  0  0  0  0
   -1.7049   -3.4921    0.1026 C   0  0  0  0  0  0  0  0  0  0  0  0
   -0.8969   -4.6209   -0.0539 C   0  0  0  0  0  0  0  0  0  0  0  0
   -1.4573   -5.8804   -0.1102 C   0  0  0  0  0  0  0  0  0  0  0  0
   -2.8315   -6.0372   -0.0116 C   0  0  0  0  0  0  0  0  0  0  0  0
   -3.6411   -4.9242    0.1438 C   0  0  0  0  0  0  0  0  0  0  0  0
   -3.0867   -3.6595    0.2010 C   0  0  0  0  0  0  0  0  0  0  0  0
   -1.7392   -1.0096    0.3058 N   0  0  0  0  0  0  0  0  0  0  0  0
   -0.8119    0.0004    0.3123 C   0  0  0  0  0  0  0  0  0  0  0  0
   -1.1053    1.3854    0.4478 C   0  0  0  0  0  0  0  0  0  0  0  0
   -2.3349    1.9186    0.5905 C   0  0  0  0  0  0  0  0  0  0  0  0
   -2.6492    3.3239    0.7294 C   0  0  0  0  0  0  0  0  0  0  0  0
   -1.6803    4.3325    0.7324 C   0  0  0  0  0  0  0  0  0  0  0  0
   -2.0391    5.6581    0.8684 C   0  0  0  0  0  0  0  0  0  0  0  0
   -3.3711    6.0159    1.0052 C   0  0  0  0  0  0  0  0  0  0  0  0
   -4.3450    5.0308    1.0045 C   0  0  0  0  0  0  0  0  0  0  0  0
   -3.9886    3.7043    0.8686 C   0  0  0  0  0  0  0  0  0  0  0  0
    4.2025   -0.2709   -0.1157 C   0  0  0  0  0  0  0  0  0  0  0  0
    4.5197    1.0884   -0.0316 C   0  0  0  0  0  0  0  0  0  0  0  0
    5.8303    1.5159   -0.1033 C   0  0  0  0  0  0  0  0  0  0  0  0
    6.8594    0.6011   -0.2605 C   0  0  0  0  0  0  0  0  0  0  0  0
    6.5644   -0.7499   -0.3457 C   0  0  0  0  0  0  0  0  0  0  0  0
    5.2544   -1.1794   -0.2743 C   0  0  0  0  0  0  0  0  0  0  0  0
    2.7362   -1.8498   -0.1245 H   0  0  0  0  0  0  0  0  0  0  0  0
    1.7550    1.0222    0.1869 H   0  0  0  0  0  0  0  0  0  0  0  0
    0.1688   -4.4756   -0.1285 H   0  0  0  0  0  0  0  0  0  0  0  0
   -0.8238   -6.7466   -0.2315 H   0  0  0  0  0  0  0  0  0  0  0  0
   -3.2709   -7.0226   -0.0556 H   0  0  0  0  0  0  0  0  0  0  0  0
   -4.7122   -5.0426    0.2210 H   0  0  0  0  0  0  0  0  0  0  0  0
   -3.7394   -2.8065    0.3228 H   0  0  0  0  0  0  0  0  0  0  0  0
   -2.7327   -0.8861    0.3963 H   0  0  0  0  0  0  0  0  0  0  0  0
   -0.2391    2.0293    0.4297 H   0  0  0  0  0  0  0  0  0  0  0  0
   -3.1985    1.2639    0.6076 H   0  0  0  0  0  0  0  0  0  0  0  0
   -0.6365    4.0797    0.6274 H   0  0  0  0  0  0  0  0  0  0  0  0
   -1.2745    6.4216    0.8682 H   0  0  0  0  0  0  0  0  0  0  0  0
   -3.6471    7.0544    1.1114 H   0  0  0  0  0  0  0  0  0  0  0  0
   -5.3861    5.2997    1.1105 H   0  0  0  0  0  0  0  0  0  0  0  0
   -4.7564    2.9426    0.8693 H   0  0  0  0  0  0  0  0  0  0  0  0
    3.7343    1.8184    0.0909 H   0  0  0  0  0  0  0  0  0  0  0  0
    6.0544    2.5711   -0.0362 H   0  0  0  0  0  0  0  0  0  0  0  0
    7.8835    0.9397   -0.3161 H   0  0  0  0  0  0  0  0  0  0  0  0
    7.3614   -1.4694   -0.4683 H   0  0  0  0  0  0  0  0  0  0  0  0
    5.0302   -2.2346   -0.3413 H   0  0  0  0  0  0  0  0  0  0  0  0
  1  2  2  0  0  0  0
  2  3  1  0  0  0  0
  3  4  1  0  0  0  0
  4  5  2  0  0  0  0
  5  6  1  0  0  0  0
  6  7  2  0  0  0  0
  7  8  1  0  0  0  0
  8  9  2  0  0  0  0
  9 10  1  0  0  0  0
 10 11  2  0  0  0  0
  5 12  1  0  0  0  0
 12 13  1  0  0  0  0
 13 14  1  0  0  0  0
 14 15  2  0  0  0  0
 15 16  1  0  0  0  0
 16 17  2  0  0  0  0
 17 18  1  0  0  0  0
 18 19  2  0  0  0  0
 19 20  1  0  0  0  0
 20 21  2  0  0  0  0
  1 22  1  0  0  0  0
 22 23  2  0  0  0  0
 23 24  1  0  0  0  0
 24 25  2  0  0  0  0
 25 26  1  0  0  0  0
 26 27  2  0  0  0  0
 13  3  2  0  0  0  0
 21 16  1  0  0  0  0
 27 22  1  0  0  0  0
 11  6  1  0  0  0  0
  1 28  1  0  0  0  0
  2 29  1  0  0  0  0
  7 30  1  0  0  0  0
  8 31  1  0  0  0  0
  9 32  1  0  0  0  0
 10 33  1  0  0  0  0
 11 34  1  0  0  0  0
 12 35  1  0  0  0  0
 14 36  1  0  0  0  0
 15 37  1  0  0  0  0
 17 38  1  0  0  0  0
 18 39  1  0  0  0  0
 19 40  1  0  0  0  0
 20 41  1  0  0  0  0
 21 42  1  0  0  0  0
 23 43  1  0  0  0  0
 24 44  1  0  0  0  0
 25 45  1  0  0  0  0
 26 46  1  0  0  0  0
 27 47  1  0  0  0  0
M  END
