
  xtb     03022214243D
 energy: -61.428030975875 gnorm: 0.000097065356 xtb: 6.4.1 (afa7bdf)
 39 43  0     0  0            999 V2000
   -3.7668    0.4225    1.4453 C   0  0  0  0  0  0  0  0  0  0  0  0
   -2.5245   -0.2988    1.0270 C   0  0  0  0  0  0  0  0  0  0  0  0
   -2.3671   -1.6348    1.2733 C   0  0  0  0  0  0  0  0  0  0  0  0
   -1.2467   -2.3674    0.8181 C   0  0  0  0  0  0  0  0  0  0  0  0
   -1.1799   -3.7629    0.9992 C   0  0  0  0  0  0  0  0  0  0  0  0
   -0.1521   -4.4948    0.4725 C   0  0  0  0  0  0  0  0  0  0  0  0
    0.8370   -3.8600   -0.2889 C   0  0  0  0  0  0  0  0  0  0  0  0
    0.8175   -2.5024   -0.4606 C   0  0  0  0  0  0  0  0  0  0  0  0
   -0.1904   -1.7127    0.1254 C   0  0  0  0  0  0  0  0  0  0  0  0
   -0.2951   -0.3058    0.0184 C   0  0  0  0  0  0  0  0  0  0  0  0
   -1.4659    0.3732    0.3751 C   0  0  0  0  0  0  0  0  0  0  0  0
   -1.3009    1.7428   -0.0413 C   0  0  0  0  0  0  0  0  0  0  0  0
   -2.1058    2.8760    0.0147 C   0  0  0  0  0  0  0  0  0  0  0  0
   -1.6242    4.0641   -0.4989 C   0  0  0  0  0  0  0  0  0  0  0  0
   -0.3547    4.1413   -1.0616 C   0  0  0  0  0  0  0  0  0  0  0  0
    0.4658    3.0306   -1.1290 C   0  0  0  0  0  0  0  0  0  0  0  0
   -0.0172    1.8368   -0.6211 C   0  0  0  0  0  0  0  0  0  0  0  0
    0.6092    0.5937   -0.5429 N   0  0  0  0  0  0  0  0  0  0  0  0
    1.9775    0.4460   -0.5969 C   0  0  0  0  0  0  0  0  0  0  0  0
    2.6414    1.1780   -1.4889 N   0  0  0  0  0  0  0  0  0  0  0  0
    3.9556    1.0528   -1.5092 C   0  0  0  0  0  0  0  0  0  0  0  0
    4.6367    0.2045   -0.6494 C   0  0  0  0  0  0  0  0  0  0  0  0
    3.8479   -0.5042    0.2484 C   0  0  0  0  0  0  0  0  0  0  0  0
    2.5368   -0.3874    0.2802 N   0  0  0  0  0  0  0  0  0  0  0  0
   -3.5227    1.2474    2.1132 H   0  0  0  0  0  0  0  0  0  0  0  0
   -4.2812    0.8265    0.5742 H   0  0  0  0  0  0  0  0  0  0  0  0
   -4.4428   -0.2546    1.9622 H   0  0  0  0  0  0  0  0  0  0  0  0
   -3.1419   -2.1764    1.7979 H   0  0  0  0  0  0  0  0  0  0  0  0
   -1.9720   -4.2494    1.5507 H   0  0  0  0  0  0  0  0  0  0  0  0
   -0.1118   -5.5647    0.6157 H   0  0  0  0  0  0  0  0  0  0  0  0
    1.6144   -4.4515   -0.7504 H   0  0  0  0  0  0  0  0  0  0  0  0
    1.5660   -2.0372   -1.0810 H   0  0  0  0  0  0  0  0  0  0  0  0
   -3.0916    2.8394    0.4476 H   0  0  0  0  0  0  0  0  0  0  0  0
   -2.2431    4.9487   -0.4643 H   0  0  0  0  0  0  0  0  0  0  0  0
   -0.0048    5.0832   -1.4570 H   0  0  0  0  0  0  0  0  0  0  0  0
    1.4469    3.0834   -1.5707 H   0  0  0  0  0  0  0  0  0  0  0  0
    4.4695    1.6560   -2.2473 H   0  0  0  0  0  0  0  0  0  0  0  0
    5.7084    0.1048   -0.6732 H   0  0  0  0  0  0  0  0  0  0  0  0
    4.2728   -1.1866    0.9735 H   0  0  0  0  0  0  0  0  0  0  0  0
  1  2  1  0  0  0  0
  2  3  2  0  0  0  0
  3  4  1  0  0  0  0
  4  5  2  0  0  0  0
  5  6  1  0  0  0  0
  6  7  2  0  0  0  0
  7  8  1  0  0  0  0
  8  9  2  0  0  0  0
  9 10  1  0  0  0  0
 10 11  2  0  0  0  0
 11 12  1  0  0  0  0
 12 13  2  0  0  0  0
 13 14  1  0  0  0  0
 14 15  2  0  0  0  0
 15 16  1  0  0  0  0
 16 17  2  0  0  0  0
 17 18  1  0  0  0  0
 18 19  1  0  0  0  0
 19 20  2  0  0  0  0
 20 21  1  0  0  0  0
 21 22  2  0  0  0  0
 22 23  1  0  0  0  0
 23 24  2  0  0  0  0
 11  2  1  0  0  0  0
 17 12  1  0  0  0  0
 24 19  1  0  0  0  0
  9  4  1  0  0  0  0
 18 10  1  0  0  0  0
  1 25  1  0  0  0  0
  1 26  1  0  0  0  0
  1 27  1  0  0  0  0
  3 28  1  0  0  0  0
  5 29  1  0  0  0  0
  6 30  1  0  0  0  0
  7 31  1  0  0  0  0
  8 32  1  0  0  0  0
 13 33  1  0  0  0  0
 14 34  1  0  0  0  0
 15 35  1  0  0  0  0
 16 36  1  0  0  0  0
 21 37  1  0  0  0  0
 22 38  1  0  0  0  0
 23 39  1  0  0  0  0
M  END
