
  xtb     03022215013D
 energy: -120.127051525048 gnorm: 0.000140210094 xtb: 6.4.1 (afa7bdf)
 78 84  0     0  0            999 V2000
   11.9562    2.3333   -1.2968 N   0  0  0  0  0  0  0  0  0  0  0  0
   12.3342    1.8145    0.0089 C   0  0  0  0  0  0  0  0  0  0  0  0
   11.5804    0.5183    0.3009 C   0  0  0  0  0  0  0  0  0  0  0  0
   10.0718    0.7429    0.3504 C   0  0  0  0  0  0  0  0  0  0  0  0
    9.3069   -0.5641    0.5429 C   0  0  0  0  0  0  0  0  0  0  0  0
    7.7958   -0.3674    0.6756 C   0  0  0  0  0  0  0  0  0  0  0  0
    7.1307    0.0406   -0.6374 C   0  0  0  0  0  0  0  0  0  0  0  0
    5.6343    0.3209   -0.4949 C   0  0  0  0  0  0  0  0  0  0  0  0
    4.8057   -0.9209   -0.1721 C   0  0  0  0  0  0  0  0  0  0  0  0
    3.3102   -0.6115   -0.1587 C   0  0  0  0  0  0  0  0  0  0  0  0
    2.4768   -1.8507    0.1618 C   0  0  0  0  0  0  0  0  0  0  0  0
    0.9930   -1.5451    0.3559 C   0  0  0  0  0  0  0  0  0  0  0  0
    0.3237   -1.0625   -0.9300 C   0  0  0  0  0  0  0  0  0  0  0  0
   -1.1052   -0.8503   -0.7268 N   0  0  0  0  0  0  0  0  0  0  0  0
   -1.9497   -1.9143   -0.9880 C   0  0  0  0  0  0  0  0  0  0  0  0
   -1.5146   -2.9788   -1.3777 O   0  0  0  0  0  0  0  0  0  0  0  0
   -3.3885   -1.6779   -0.7786 C   0  0  0  0  0  0  0  0  0  0  0  0
   -4.2896   -2.6896   -1.0445 C   0  0  0  0  0  0  0  0  0  0  0  0
   -5.6497   -2.4850   -0.8647 C   0  0  0  0  0  0  0  0  0  0  0  0
   -6.1560   -1.2719   -0.4111 C   0  0  0  0  0  0  0  0  0  0  0  0
   -7.5815   -1.0436   -0.2336 C   0  0  0  0  0  0  0  0  0  0  0  0
   -8.5278   -2.0134   -0.5458 C   0  0  0  0  0  0  0  0  0  0  0  0
   -9.8847   -1.7941   -0.3655 C   0  0  0  0  0  0  0  0  0  0  0  0
  -10.3389   -0.5916    0.1385 C   0  0  0  0  0  0  0  0  0  0  0  0
   -9.4163    0.4256    0.4644 C   0  0  0  0  0  0  0  0  0  0  0  0
   -9.8734    1.6574    0.9797 C   0  0  0  0  0  0  0  0  0  0  0  0
   -8.9652    2.6475    1.2979 C   0  0  0  0  0  0  0  0  0  0  0  0
   -7.6075    2.4445    1.1050 C   0  0  0  0  0  0  0  0  0  0  0  0
   -7.1111    1.2507    0.5933 C   0  0  0  0  0  0  0  0  0  0  0  0
   -5.6889    1.0376    0.3755 C   0  0  0  0  0  0  0  0  0  0  0  0
   -4.7438    2.0257    0.6283 C   0  0  0  0  0  0  0  0  0  0  0  0
   -3.3885    1.8116    0.4254 C   0  0  0  0  0  0  0  0  0  0  0  0
   -2.9344    0.5926   -0.0372 C   0  0  0  0  0  0  0  0  0  0  0  0
   -3.8570   -0.4355   -0.3098 C   0  0  0  0  0  0  0  0  0  0  0  0
   -5.2464   -0.2215   -0.1130 C   0  0  0  0  0  0  0  0  0  0  0  0
   -1.4909    0.3873   -0.2434 C   0  0  0  0  0  0  0  0  0  0  0  0
   -0.6701    1.2518   -0.0131 O   0  0  0  0  0  0  0  0  0  0  0  0
   -8.0249    0.2091    0.2732 C   0  0  0  0  0  0  0  0  0  0  0  0
  -11.3106    1.8989    1.1845 C   0  0  0  0  0  0  0  0  0  0  0  0
  -11.7722    2.9291    1.6234 O   0  0  0  0  0  0  0  0  0  0  0  0
  -12.1364    0.8494    0.8365 N   0  0  0  0  0  0  0  0  0  0  0  0
  -11.7835   -0.3839    0.3277 C   0  0  0  0  0  0  0  0  0  0  0  0
  -12.6300   -1.2103    0.0679 O   0  0  0  0  0  0  0  0  0  0  0  0
   12.4439    3.2013   -1.4885 H   0  0  0  0  0  0  0  0  0  0  0  0
   12.2098    1.6684   -2.0208 H   0  0  0  0  0  0  0  0  0  0  0  0
   13.4191    1.6276    0.1010 H   0  0  0  0  0  0  0  0  0  0  0  0
   12.0615    2.5698    0.7518 H   0  0  0  0  0  0  0  0  0  0  0  0
   11.9295    0.1105    1.2521 H   0  0  0  0  0  0  0  0  0  0  0  0
   11.8121   -0.2106   -0.4800 H   0  0  0  0  0  0  0  0  0  0  0  0
    9.7722    1.2282   -0.5777 H   0  0  0  0  0  0  0  0  0  0  0  0
    9.8389    1.4222    1.1732 H   0  0  0  0  0  0  0  0  0  0  0  0
    9.5093   -1.2318   -0.2980 H   0  0  0  0  0  0  0  0  0  0  0  0
    9.6773   -1.0545    1.4474 H   0  0  0  0  0  0  0  0  0  0  0  0
    7.3551   -1.3033    1.0244 H   0  0  0  0  0  0  0  0  0  0  0  0
    7.5983    0.3956    1.4322 H   0  0  0  0  0  0  0  0  0  0  0  0
    7.6129    0.9437   -1.0151 H   0  0  0  0  0  0  0  0  0  0  0  0
    7.2805   -0.7498   -1.3770 H   0  0  0  0  0  0  0  0  0  0  0  0
    5.2699    0.7474   -1.4330 H   0  0  0  0  0  0  0  0  0  0  0  0
    5.4812    1.0690    0.2863 H   0  0  0  0  0  0  0  0  0  0  0  0
    5.0076   -1.6935   -0.9180 H   0  0  0  0  0  0  0  0  0  0  0  0
    5.0957   -1.3159    0.8029 H   0  0  0  0  0  0  0  0  0  0  0  0
    3.0236   -0.2136   -1.1335 H   0  0  0  0  0  0  0  0  0  0  0  0
    3.1084    0.1606    0.5869 H   0  0  0  0  0  0  0  0  0  0  0  0
    2.5925   -2.5867   -0.6369 H   0  0  0  0  0  0  0  0  0  0  0  0
    2.8564   -2.3008    1.0821 H   0  0  0  0  0  0  0  0  0  0  0  0
    0.8740   -0.7784    1.1246 H   0  0  0  0  0  0  0  0  0  0  0  0
    0.4816   -2.4508    0.6912 H   0  0  0  0  0  0  0  0  0  0  0  0
    0.4359   -1.8101   -1.7171 H   0  0  0  0  0  0  0  0  0  0  0  0
    0.7483   -0.1096   -1.2470 H   0  0  0  0  0  0  0  0  0  0  0  0
   -3.9149   -3.6384   -1.3976 H   0  0  0  0  0  0  0  0  0  0  0  0
   -6.3122   -3.3046   -1.0879 H   0  0  0  0  0  0  0  0  0  0  0  0
   -8.2224   -2.9676   -0.9415 H   0  0  0  0  0  0  0  0  0  0  0  0
  -10.6068   -2.5573   -0.6129 H   0  0  0  0  0  0  0  0  0  0  0  0
   -9.3348    3.5804    1.6957 H   0  0  0  0  0  0  0  0  0  0  0  0
   -6.9385    3.2469    1.3672 H   0  0  0  0  0  0  0  0  0  0  0  0
   -5.0481    2.9937    0.9901 H   0  0  0  0  0  0  0  0  0  0  0  0
   -2.6690    2.5909    0.6260 H   0  0  0  0  0  0  0  0  0  0  0  0
  -13.1312    1.0045    0.9723 H   0  0  0  0  0  0  0  0  0  0  0  0
  1  2  1  0  0  0  0
  2  3  1  0  0  0  0
  3  4  1  0  0  0  0
  4  5  1  0  0  0  0
  5  6  1  0  0  0  0
  6  7  1  0  0  0  0
  7  8  1  0  0  0  0
  8  9  1  0  0  0  0
  9 10  1  0  0  0  0
 10 11  1  0  0  0  0
 11 12  1  0  0  0  0
 12 13  1  0  0  0  0
 13 14  1  0  0  0  0
 14 15  1  0  0  0  0
 15 16  2  0  0  0  0
 15 17  1  0  0  0  0
 17 18  2  0  0  0  0
 18 19  1  0  0  0  0
 19 20  2  0  0  0  0
 20 21  1  0  0  0  0
 21 22  2  0  0  0  0
 22 23  1  0  0  0  0
 23 24  2  0  0  0  0
 24 25  1  0  0  0  0
 25 26  1  0  0  0  0
 26 27  2  0  0  0  0
 27 28  1  0  0  0  0
 28 29  2  0  0  0  0
 29 30  1  0  0  0  0
 30 31  2  0  0  0  0
 31 32  1  0  0  0  0
 32 33  2  0  0  0  0
 33 34  1  0  0  0  0
 34 35  2  0  0  0  0
 33 36  1  0  0  0  0
 36 37  2  0  0  0  0
 29 38  1  0  0  0  0
 26 39  1  0  0  0  0
 39 40  2  0  0  0  0
 39 41  1  0  0  0  0
 41 42  1  0  0  0  0
 42 43  2  0  0  0  0
 36 14  1  0  0  0  0
 34 17  1  0  0  0  0
 35 20  1  0  0  0  0
 38 21  1  0  0  0  0
 42 24  1  0  0  0  0
 38 25  2  0  0  0  0
 35 30  1  0  0  0  0
  1 44  1  0  0  0  0
  1 45  1  0  0  0  0
  2 46  1  0  0  0  0
  2 47  1  0  0  0  0
  3 48  1  0  0  0  0
  3 49  1  0  0  0  0
  4 50  1  0  0  0  0
  4 51  1  0  0  0  0
  5 52  1  0  0  0  0
  5 53  1  0  0  0  0
  6 54  1  0  0  0  0
  6 55  1  0  0  0  0
  7 56  1  0  0  0  0
  7 57  1  0  0  0  0
  8 58  1  0  0  0  0
  8 59  1  0  0  0  0
  9 60  1  0  0  0  0
  9 61  1  0  0  0  0
 10 62  1  0  0  0  0
 10 63  1  0  0  0  0
 11 64  1  0  0  0  0
 11 65  1  0  0  0  0
 12 66  1  0  0  0  0
 12 67  1  0  0  0  0
 13 68  1  0  0  0  0
 13 69  1  0  0  0  0
 18 70  1  0  0  0  0
 19 71  1  0  0  0  0
 22 72  1  0  0  0  0
 23 73  1  0  0  0  0
 27 74  1  0  0  0  0
 28 75  1  0  0  0  0
 31 76  1  0  0  0  0
 32 77  1  0  0  0  0
 41 78  1  0  0  0  0
M  END
