
  xtb     03022215013D
 energy: -134.204620013998 gnorm: 0.000257603616 xtb: 6.4.1 (afa7bdf)
 90 94  0     0  0            999 V2000
   -9.4024   -0.3325    2.6304 C   0  0  0  0  0  0  0  0  0  0  0  0
   -8.9174    0.4278    1.4047 C   0  0  0  0  0  0  0  0  0  0  0  0
   -8.2632   -0.4398    0.4774 O   0  0  0  0  0  0  0  0  0  0  0  0
   -6.9765   -0.7156    0.6955 C   0  0  0  0  0  0  0  0  0  0  0  0
   -6.3380   -0.2739    1.6170 O   0  0  0  0  0  0  0  0  0  0  0  0
   -6.4265   -1.6168   -0.3856 C   0  0  0  0  0  0  0  0  0  0  0  0
   -6.0215   -0.7941   -1.6197 C   0  0  0  0  0  0  0  0  0  0  0  0
   -5.1289    0.4028   -1.2907 C   0  0  0  0  0  0  0  0  0  0  0  0
   -3.8185    0.0104   -0.6140 C   0  0  0  0  0  0  0  0  0  0  0  0
   -3.0369    1.2557   -0.1880 C   0  0  0  0  0  0  0  0  0  0  0  0
   -1.7838    0.9355    0.4662 N   0  0  0  0  0  0  0  0  0  0  0  0
   -1.7417    0.7542    1.8314 C   0  0  0  0  0  0  0  0  0  0  0  0
   -2.9098    0.6488    2.6039 C   0  0  0  0  0  0  0  0  0  0  0  0
   -2.8424    0.4896    3.9679 C   0  0  0  0  0  0  0  0  0  0  0  0
   -1.6216    0.4267    4.6458 C   0  0  0  0  0  0  0  0  0  0  0  0
   -1.5876    0.2595    6.1336 C   0  0  0  0  0  0  0  0  0  0  0  0
   -0.4725    0.5131    3.8950 C   0  0  0  0  0  0  0  0  0  0  0  0
   -0.5080    0.6692    2.5051 C   0  0  0  0  0  0  0  0  0  0  0  0
    0.7571    0.7382    1.7852 C   0  0  0  0  0  0  0  0  0  0  0  0
    1.8486    0.7796    2.3457 O   0  0  0  0  0  0  0  0  0  0  0  0
    0.6272    0.7388    0.3258 C   0  0  0  0  0  0  0  0  0  0  0  0
    1.7889    0.6547   -0.4311 C   0  0  0  0  0  0  0  0  0  0  0  0
    1.7689    0.6540   -1.8226 C   0  0  0  0  0  0  0  0  0  0  0  0
    0.4999    0.6958   -2.4378 C   0  0  0  0  0  0  0  0  0  0  0  0
   -0.6613    0.7788   -1.6812 C   0  0  0  0  0  0  0  0  0  0  0  0
   -0.6394    0.8227   -0.2901 C   0  0  0  0  0  0  0  0  0  0  0  0
    0.3622    0.6412   -3.8974 C   0  0  0  0  0  0  0  0  0  0  0  0
   -0.7225    0.7432   -4.4575 O   0  0  0  0  0  0  0  0  0  0  0  0
    1.6172    0.4358   -4.6147 C   0  0  0  0  0  0  0  0  0  0  0  0
    1.5649    0.2574   -6.0002 C   0  0  0  0  0  0  0  0  0  0  0  0
    2.6982    0.0448   -6.7512 C   0  0  0  0  0  0  0  0  0  0  0  0
    2.6441   -0.1444   -8.2356 C   0  0  0  0  0  0  0  0  0  0  0  0
    3.9201   -0.0005   -6.0754 C   0  0  0  0  0  0  0  0  0  0  0  0
    4.0016    0.1744   -4.7141 C   0  0  0  0  0  0  0  0  0  0  0  0
    2.8536    0.4108   -3.9417 C   0  0  0  0  0  0  0  0  0  0  0  0
    2.9197    0.6113   -2.5819 N   0  0  0  0  0  0  0  0  0  0  0  0
    4.1977    0.7739   -1.9170 C   0  0  0  0  0  0  0  0  0  0  0  0
    4.7800   -0.5553   -1.4195 C   0  0  0  0  0  0  0  0  0  0  0  0
    5.8117   -0.3280   -0.3179 C   0  0  0  0  0  0  0  0  0  0  0  0
    6.4761   -1.6313    0.1220 C   0  0  0  0  0  0  0  0  0  0  0  0
    7.2324   -1.4740    1.4500 C   0  0  0  0  0  0  0  0  0  0  0  0
    6.2593   -1.5474    2.6100 C   0  0  0  0  0  0  0  0  0  0  0  0
    6.0928   -2.5299    3.2862 O   0  0  0  0  0  0  0  0  0  0  0  0
    5.5869   -0.4082    2.7536 O   0  0  0  0  0  0  0  0  0  0  0  0
    4.5723   -0.3448    3.7648 C   0  0  0  0  0  0  0  0  0  0  0  0
    5.1053    0.3412    5.0133 C   0  0  0  0  0  0  0  0  0  0  0  0
   -8.5539   -0.7434    3.1719 H   0  0  0  0  0  0  0  0  0  0  0  0
  -10.0597   -1.1459    2.3328 H   0  0  0  0  0  0  0  0  0  0  0  0
   -9.9457    0.3418    3.2860 H   0  0  0  0  0  0  0  0  0  0  0  0
   -9.7541    0.8573    0.8502 H   0  0  0  0  0  0  0  0  0  0  0  0
   -8.2210    1.2191    1.7022 H   0  0  0  0  0  0  0  0  0  0  0  0
   -5.5659   -2.1518    0.0143 H   0  0  0  0  0  0  0  0  0  0  0  0
   -7.1957   -2.3337   -0.6720 H   0  0  0  0  0  0  0  0  0  0  0  0
   -5.5043   -1.4539   -2.3187 H   0  0  0  0  0  0  0  0  0  0  0  0
   -6.9274   -0.4292   -2.1075 H   0  0  0  0  0  0  0  0  0  0  0  0
   -5.6735    1.0885   -0.6374 H   0  0  0  0  0  0  0  0  0  0  0  0
   -4.9092    0.9380   -2.2174 H   0  0  0  0  0  0  0  0  0  0  0  0
   -3.2147   -0.5922   -1.2949 H   0  0  0  0  0  0  0  0  0  0  0  0
   -4.0245   -0.5866    0.2737 H   0  0  0  0  0  0  0  0  0  0  0  0
   -3.6424    1.8512    0.4994 H   0  0  0  0  0  0  0  0  0  0  0  0
   -2.8236    1.8847   -1.0552 H   0  0  0  0  0  0  0  0  0  0  0  0
   -3.8867    0.6591    2.1503 H   0  0  0  0  0  0  0  0  0  0  0  0
   -3.7627    0.4024    4.5271 H   0  0  0  0  0  0  0  0  0  0  0  0
   -0.5635    0.2226    6.4950 H   0  0  0  0  0  0  0  0  0  0  0  0
   -2.0940   -0.6604    6.4238 H   0  0  0  0  0  0  0  0  0  0  0  0
   -2.1003    1.0886    6.6202 H   0  0  0  0  0  0  0  0  0  0  0  0
    0.5035    0.4588    4.3554 H   0  0  0  0  0  0  0  0  0  0  0  0
    2.6994    0.5728    0.1400 H   0  0  0  0  0  0  0  0  0  0  0  0
   -1.5770    0.7878   -2.2500 H   0  0  0  0  0  0  0  0  0  0  0  0
    0.5873    0.2924   -6.4587 H   0  0  0  0  0  0  0  0  0  0  0  0
    1.6228   -0.0639   -8.5973 H   0  0  0  0  0  0  0  0  0  0  0  0
    3.0346   -1.1245   -8.5082 H   0  0  0  0  0  0  0  0  0  0  0  0
    3.2528    0.6072   -8.7371 H   0  0  0  0  0  0  0  0  0  0  0  0
    4.8258   -0.1842   -6.6361 H   0  0  0  0  0  0  0  0  0  0  0  0
    4.9724    0.1054   -4.2520 H   0  0  0  0  0  0  0  0  0  0  0  0
    4.0537    1.4504   -1.0719 H   0  0  0  0  0  0  0  0  0  0  0  0
    4.8914    1.2683   -2.5997 H   0  0  0  0  0  0  0  0  0  0  0  0
    3.9685   -1.1723   -1.0282 H   0  0  0  0  0  0  0  0  0  0  0  0
    5.2318   -1.1010   -2.2506 H   0  0  0  0  0  0  0  0  0  0  0  0
    6.5784    0.3667   -0.6698 H   0  0  0  0  0  0  0  0  0  0  0  0
    5.3195    0.1283    0.5419 H   0  0  0  0  0  0  0  0  0  0  0  0
    7.1745   -1.9634   -0.6489 H   0  0  0  0  0  0  0  0  0  0  0  0
    5.7193   -2.4106    0.2378 H   0  0  0  0  0  0  0  0  0  0  0  0
    7.7562   -0.5183    1.4679 H   0  0  0  0  0  0  0  0  0  0  0  0
    7.9483   -2.2871    1.5703 H   0  0  0  0  0  0  0  0  0  0  0  0
    3.7456    0.2167    3.3247 H   0  0  0  0  0  0  0  0  0  0  0  0
    4.2490   -1.3641    3.9970 H   0  0  0  0  0  0  0  0  0  0  0  0
    5.4658    1.3376    4.7700 H   0  0  0  0  0  0  0  0  0  0  0  0
    4.3100    0.4232    5.7482 H   0  0  0  0  0  0  0  0  0  0  0  0
    5.9230   -0.2355    5.4406 H   0  0  0  0  0  0  0  0  0  0  0  0
  1  2  1  0  0  0  0
  2  3  1  0  0  0  0
  3  4  1  0  0  0  0
  4  5  2  0  0  0  0
  4  6  1  0  0  0  0
  6  7  1  0  0  0  0
  7  8  1  0  0  0  0
  8  9  1  0  0  0  0
  9 10  1  0  0  0  0
 10 11  1  0  0  0  0
 11 12  1  0  0  0  0
 12 13  2  0  0  0  0
 13 14  1  0  0  0  0
 14 15  2  0  0  0  0
 15 16  1  0  0  0  0
 15 17  1  0  0  0  0
 17 18  2  0  0  0  0
 18 19  1  0  0  0  0
 19 20  2  0  0  0  0
 19 21  1  0  0  0  0
 21 22  2  0  0  0  0
 22 23  1  0  0  0  0
 23 24  2  0  0  0  0
 24 25  1  0  0  0  0
 25 26  2  0  0  0  0
 24 27  1  0  0  0  0
 27 28  2  0  0  0  0
 27 29  1  0  0  0  0
 29 30  2  0  0  0  0
 30 31  1  0  0  0  0
 31 32  1  0  0  0  0
 31 33  2  0  0  0  0
 33 34  1  0  0  0  0
 34 35  2  0  0  0  0
 35 36  1  0  0  0  0
 36 37  1  0  0  0  0
 37 38  1  0  0  0  0
 38 39  1  0  0  0  0
 39 40  1  0  0  0  0
 40 41  1  0  0  0  0
 41 42  1  0  0  0  0
 42 43  2  0  0  0  0
 42 44  1  0  0  0  0
 44 45  1  0  0  0  0
 45 46  1  0  0  0  0
 26 11  1  0  0  0  0
 35 29  1  0  0  0  0
 18 12  1  0  0  0  0
 26 21  1  0  0  0  0
 36 23  1  0  0  0  0
  1 47  1  0  0  0  0
  1 48  1  0  0  0  0
  1 49  1  0  0  0  0
  2 50  1  0  0  0  0
  2 51  1  0  0  0  0
  6 52  1  0  0  0  0
  6 53  1  0  0  0  0
  7 54  1  0  0  0  0
  7 55  1  0  0  0  0
  8 56  1  0  0  0  0
  8 57  1  0  0  0  0
  9 58  1  0  0  0  0
  9 59  1  0  0  0  0
 10 60  1  0  0  0  0
 10 61  1  0  0  0  0
 13 62  1  0  0  0  0
 14 63  1  0  0  0  0
 16 64  1  0  0  0  0
 16 65  1  0  0  0  0
 16 66  1  0  0  0  0
 17 67  1  0  0  0  0
 22 68  1  0  0  0  0
 25 69  1  0  0  0  0
 30 70  1  0  0  0  0
 32 71  1  0  0  0  0
 32 72  1  0  0  0  0
 32 73  1  0  0  0  0
 33 74  1  0  0  0  0
 34 75  1  0  0  0  0
 37 76  1  0  0  0  0
 37 77  1  0  0  0  0
 38 78  1  0  0  0  0
 38 79  1  0  0  0  0
 39 80  1  0  0  0  0
 39 81  1  0  0  0  0
 40 82  1  0  0  0  0
 40 83  1  0  0  0  0
 41 84  1  0  0  0  0
 41 85  1  0  0  0  0
 45 86  1  0  0  0  0
 45 87  1  0  0  0  0
 46 88  1  0  0  0  0
 46 89  1  0  0  0  0
 46 90  1  0  0  0  0
M  END
