
  xtb     03022215453D
 energy: -94.304407704164 gnorm: 0.000206258682 xtb: 6.4.1 (afa7bdf)
 65 68  0     0  0            999 V2000
   -8.0774    1.8312    0.0806 C   0  0  0  0  0  0  0  0  0  0  0  0
   -7.9207    0.8378    1.2252 C   0  0  0  0  0  0  0  0  0  0  0  0
   -6.8920   -0.2622    0.9567 C   0  0  0  0  0  0  0  0  0  0  0  0
   -5.4513    0.2493    0.8091 C   0  0  0  0  0  0  0  0  0  0  0  0
   -5.0123    0.3750   -0.6498 C   0  0  0  0  0  0  0  0  0  0  0  0
   -3.6659    1.0818   -0.8205 C   0  0  0  0  0  0  0  0  0  0  0  0
   -2.4872    0.4194   -0.1069 C   0  0  0  0  0  0  0  0  0  0  0  0
   -2.2506   -1.0183   -0.5799 C   0  0  0  0  0  0  0  0  0  0  0  0
   -1.0599   -1.5719    0.0339 N   0  0  0  0  0  0  0  0  0  0  0  0
    0.1676   -0.9280   -0.1528 C   0  0  0  0  0  0  0  0  0  0  0  0
    0.4280   -0.1845   -1.3054 C   0  0  0  0  0  0  0  0  0  0  0  0
    1.6375    0.4526   -1.4892 C   0  0  0  0  0  0  0  0  0  0  0  0
    2.6464    0.3530   -0.5303 C   0  0  0  0  0  0  0  0  0  0  0  0
    3.8818    1.0031   -0.7141 C   0  0  0  0  0  0  0  0  0  0  0  0
    4.9392    1.5626   -0.8850 C   0  0  0  0  0  0  0  0  0  0  0  0
    6.1736    2.2119   -1.0848 C   0  0  0  0  0  0  0  0  0  0  0  0
    6.3683    3.0404   -2.1951 C   0  0  0  0  0  0  0  0  0  0  0  0
    7.5745    3.6712   -2.3874 C   0  0  0  0  0  0  0  0  0  0  0  0
    8.6232    3.4948   -1.4800 C   0  0  0  0  0  0  0  0  0  0  0  0
    9.7718    4.1654   -1.7682 O   0  0  0  0  0  0  0  0  0  0  0  0
   10.8688    4.0308   -0.8983 C   0  0  0  0  0  0  0  0  0  0  0  0
    8.4344    2.6711   -0.3739 C   0  0  0  0  0  0  0  0  0  0  0  0
    7.2210    2.0387   -0.1816 C   0  0  0  0  0  0  0  0  0  0  0  0
    2.4074   -0.4085    0.6149 C   0  0  0  0  0  0  0  0  0  0  0  0
    1.1869   -1.0263    0.7982 C   0  0  0  0  0  0  0  0  0  0  0  0
    0.9155   -1.9203    2.3054 S   0  0  0  0  0  0  0  0  0  0  0  0
   -0.2177   -3.1338    1.6884 C   0  0  0  0  0  0  0  0  0  0  0  0
   -0.2538   -4.3665    2.3005 C   0  0  0  0  0  0  0  0  0  0  0  0
   -1.1840   -5.3317    1.9045 C   0  0  0  0  0  0  0  0  0  0  0  0
   -1.2298   -6.6275    2.5732 C   0  0  0  0  0  0  0  0  0  0  0  0
   -0.5183   -6.9764    3.4837 O   0  0  0  0  0  0  0  0  0  0  0  0
   -2.0543   -5.0279    0.8586 C   0  0  0  0  0  0  0  0  0  0  0  0
   -2.0039   -3.8008    0.2343 C   0  0  0  0  0  0  0  0  0  0  0  0
   -1.0983   -2.8126    0.6423 C   0  0  0  0  0  0  0  0  0  0  0  0
   -7.1643    2.4013   -0.0697 H   0  0  0  0  0  0  0  0  0  0  0  0
   -8.8794    2.5326    0.3007 H   0  0  0  0  0  0  0  0  0  0  0  0
   -8.3227    1.3130   -0.8443 H   0  0  0  0  0  0  0  0  0  0  0  0
   -8.8871    0.3638    1.4141 H   0  0  0  0  0  0  0  0  0  0  0  0
   -7.6376    1.3762    2.1328 H   0  0  0  0  0  0  0  0  0  0  0  0
   -6.9378   -0.9666    1.7903 H   0  0  0  0  0  0  0  0  0  0  0  0
   -7.1778   -0.8089    0.0552 H   0  0  0  0  0  0  0  0  0  0  0  0
   -5.3587    1.2203    1.2996 H   0  0  0  0  0  0  0  0  0  0  0  0
   -4.7774   -0.4389    1.3225 H   0  0  0  0  0  0  0  0  0  0  0  0
   -4.9706   -0.6191   -1.1003 H   0  0  0  0  0  0  0  0  0  0  0  0
   -5.7598    0.9447   -1.2032 H   0  0  0  0  0  0  0  0  0  0  0  0
   -3.4402    1.1448   -1.8885 H   0  0  0  0  0  0  0  0  0  0  0  0
   -3.7567    2.1037   -0.4454 H   0  0  0  0  0  0  0  0  0  0  0  0
   -2.6563    0.4110    0.9708 H   0  0  0  0  0  0  0  0  0  0  0  0
   -1.5928    1.0176   -0.2910 H   0  0  0  0  0  0  0  0  0  0  0  0
   -2.1974   -1.0554   -1.6751 H   0  0  0  0  0  0  0  0  0  0  0  0
   -3.0966   -1.6250   -0.2608 H   0  0  0  0  0  0  0  0  0  0  0  0
   -0.3230   -0.1027   -2.0744 H   0  0  0  0  0  0  0  0  0  0  0  0
    1.8105    1.0303   -2.3847 H   0  0  0  0  0  0  0  0  0  0  0  0
    5.5623    3.1807   -2.9001 H   0  0  0  0  0  0  0  0  0  0  0  0
    7.7391    4.3133   -3.2384 H   0  0  0  0  0  0  0  0  0  0  0  0
   11.2119    2.9927   -0.8406 H   0  0  0  0  0  0  0  0  0  0  0  0
   10.6317    4.3921    0.1077 H   0  0  0  0  0  0  0  0  0  0  0  0
   11.6594    4.6469   -1.3237 H   0  0  0  0  0  0  0  0  0  0  0  0
    9.2246    2.5148    0.3437 H   0  0  0  0  0  0  0  0  0  0  0  0
    7.0794    1.4004    0.6782 H   0  0  0  0  0  0  0  0  0  0  0  0
    3.1684   -0.5014    1.3743 H   0  0  0  0  0  0  0  0  0  0  0  0
    0.4210   -4.5902    3.1127 H   0  0  0  0  0  0  0  0  0  0  0  0
   -2.0047   -7.3086    2.1643 H   0  0  0  0  0  0  0  0  0  0  0  0
   -2.7688   -5.7667    0.5258 H   0  0  0  0  0  0  0  0  0  0  0  0
   -2.6665   -3.6100   -0.5953 H   0  0  0  0  0  0  0  0  0  0  0  0
  1  2  1  0  0  0  0
  2  3  1  0  0  0  0
  3  4  1  0  0  0  0
  4  5  1  0  0  0  0
  5  6  1  0  0  0  0
  6  7  1  0  0  0  0
  7  8  1  0  0  0  0
  8  9  1  0  0  0  0
  9 10  1  0  0  0  0
 10 11  2  0  0  0  0
 11 12  1  0  0  0  0
 12 13  2  0  0  0  0
 13 14  1  0  0  0  0
 14 15  3  0  0  0  0
 15 16  1  0  0  0  0
 16 17  2  0  0  0  0
 17 18  1  0  0  0  0
 18 19  2  0  0  0  0
 19 20  1  0  0  0  0
 20 21  1  0  0  0  0
 19 22  1  0  0  0  0
 22 23  2  0  0  0  0
 13 24  1  0  0  0  0
 24 25  2  0  0  0  0
 25 26  1  0  0  0  0
 26 27  1  0  0  0  0
 27 28  2  0  0  0  0
 28 29  1  0  0  0  0
 29 30  1  0  0  0  0
 30 31  2  0  0  0  0
 29 32  2  0  0  0  0
 32 33  1  0  0  0  0
 33 34  2  0  0  0  0
 34  9  1  0  0  0  0
 25 10  1  0  0  0  0
 34 27  1  0  0  0  0
 23 16  1  0  0  0  0
  1 35  1  0  0  0  0
  1 36  1  0  0  0  0
  1 37  1  0  0  0  0
  2 38  1  0  0  0  0
  2 39  1  0  0  0  0
  3 40  1  0  0  0  0
  3 41  1  0  0  0  0
  4 42  1  0  0  0  0
  4 43  1  0  0  0  0
  5 44  1  0  0  0  0
  5 45  1  0  0  0  0
  6 46  1  0  0  0  0
  6 47  1  0  0  0  0
  7 48  1  0  0  0  0
  7 49  1  0  0  0  0
  8 50  1  0  0  0  0
  8 51  1  0  0  0  0
 11 52  1  0  0  0  0
 12 53  1  0  0  0  0
 17 54  1  0  0  0  0
 18 55  1  0  0  0  0
 21 56  1  0  0  0  0
 21 57  1  0  0  0  0
 21 58  1  0  0  0  0
 22 59  1  0  0  0  0
 23 60  1  0  0  0  0
 24 61  1  0  0  0  0
 28 62  1  0  0  0  0
 30 63  1  0  0  0  0
 32 64  1  0  0  0  0
 33 65  1  0  0  0  0
M  END
