
  xtb     03022214573D
 energy: -133.965344972812 gnorm: 0.000537579451 xtb: 6.4.1 (afa7bdf)
 81 86  0     0  0            999 V2000
  -10.2622    5.3676   -1.3506 C   0  0  0  0  0  0  0  0  0  0  0  0
  -10.6675    4.0616   -0.6656 C   0  0  0  0  0  0  0  0  0  0  0  0
  -10.2748    2.8939   -1.4250 N   0  0  0  0  0  0  0  0  0  0  0  0
  -11.2572    2.3974   -2.3656 C   0  0  0  0  0  0  0  0  0  0  0  0
  -12.1780    1.3440   -1.7491 C   0  0  0  0  0  0  0  0  0  0  0  0
   -9.0667    2.2939   -1.2650 C   0  0  0  0  0  0  0  0  0  0  0  0
   -8.0453    2.8878   -0.4816 C   0  0  0  0  0  0  0  0  0  0  0  0
   -6.8263    2.2911   -0.3245 C   0  0  0  0  0  0  0  0  0  0  0  0
   -6.5279    1.0613   -0.9342 C   0  0  0  0  0  0  0  0  0  0  0  0
   -5.2922    0.3887   -0.8200 C   0  0  0  0  0  0  0  0  0  0  0  0
   -5.0819   -0.8167   -1.4364 C   0  0  0  0  0  0  0  0  0  0  0  0
   -3.8633   -1.5723   -1.3707 C   0  0  0  0  0  0  0  0  0  0  0  0
   -2.6996   -1.1666   -0.8193 C   0  0  0  0  0  0  0  0  0  0  0  0
   -1.5220   -1.9970   -0.7952 C   0  0  0  0  0  0  0  0  0  0  0  0
   -0.3122   -1.5209   -0.2870 C   0  0  0  0  0  0  0  0  0  0  0  0
    0.0476   -0.1801    0.2796 C   0  0  0  0  0  0  0  0  0  0  0  0
    1.5438   -0.3009    0.6312 C   0  0  0  0  0  0  0  0  0  0  0  0
    1.9454   -1.7072    0.2958 C   0  0  0  0  0  0  0  0  0  0  0  0
    3.1352   -2.3409    0.3739 C   0  0  0  0  0  0  0  0  0  0  0  0
    4.4189   -1.8769    0.8331 C   0  0  0  0  0  0  0  0  0  0  0  0
    5.5530   -2.4613    0.3282 C   0  0  0  0  0  0  0  0  0  0  0  0
    6.8408   -2.0035    0.6791 C   0  0  0  0  0  0  0  0  0  0  0  0
    8.0428   -2.5203    0.1690 C   0  0  0  0  0  0  0  0  0  0  0  0
    9.2518   -1.9977    0.5327 C   0  0  0  0  0  0  0  0  0  0  0  0
    9.3501   -0.9081    1.4341 C   0  0  0  0  0  0  0  0  0  0  0  0
   10.5566   -0.3920    1.7898 N   0  0  0  0  0  0  0  0  0  0  0  0
   11.7903   -0.7907    1.1469 C   0  0  0  0  0  0  0  0  0  0  0  0
   12.4369   -2.0001    1.8241 C   0  0  0  0  0  0  0  0  0  0  0  0
   10.6858    0.6012    2.8348 C   0  0  0  0  0  0  0  0  0  0  0  0
   10.5352    2.0280    2.3060 C   0  0  0  0  0  0  0  0  0  0  0  0
    8.1525   -0.3904    1.9478 C   0  0  0  0  0  0  0  0  0  0  0  0
    6.9328   -0.9298    1.5845 C   0  0  0  0  0  0  0  0  0  0  0  0
    5.8198   -0.3953    2.1370 O   0  0  0  0  0  0  0  0  0  0  0  0
    4.5573   -0.8494    1.8661 C   0  0  0  0  0  0  0  0  0  0  0  0
    3.6647   -0.3906    2.5388 O   0  0  0  0  0  0  0  0  0  0  0  0
    0.7897   -2.3783   -0.2657 C   0  0  0  0  0  0  0  0  0  0  0  0
    0.7972   -3.5919   -0.6862 O   0  0  0  0  0  3  0  0  0  0  0  0
   -0.4602   -4.1635   -1.3170 B   0  0  0  0  0  4  0  0  0  0  0  0
   -0.1784   -4.4245   -2.6300 F   0  0  0  0  0  0  0  0  0  0  0  0
   -0.7960   -5.2963   -0.6365 F   0  0  0  0  0  0  0  0  0  0  0  0
   -1.6092   -3.2072   -1.2568 O   0  0  0  0  0  0  0  0  0  0  0  0
   -6.1659   -1.4218   -2.2248 C   0  0  0  0  0  0  0  0  0  0  0  0
   -6.1001   -2.4778   -2.7985 O   0  0  0  0  0  0  0  0  0  0  0  0
   -7.3425   -0.7265   -2.3190 O   0  0  0  0  0  0  0  0  0  0  0  0
   -7.5410    0.4643   -1.7106 C   0  0  0  0  0  0  0  0  0  0  0  0
   -8.7757    1.0628   -1.8710 C   0  0  0  0  0  0  0  0  0  0  0  0
   -9.1842    5.4165   -1.4795 H   0  0  0  0  0  0  0  0  0  0  0  0
  -10.7245    5.4411   -2.3320 H   0  0  0  0  0  0  0  0  0  0  0  0
  -10.5831    6.2164   -0.7528 H   0  0  0  0  0  0  0  0  0  0  0  0
  -10.2381    4.0104    0.3372 H   0  0  0  0  0  0  0  0  0  0  0  0
  -11.7545    4.0363   -0.5528 H   0  0  0  0  0  0  0  0  0  0  0  0
  -10.7488    1.9894   -3.2415 H   0  0  0  0  0  0  0  0  0  0  0  0
  -11.8554    3.2478   -2.7035 H   0  0  0  0  0  0  0  0  0  0  0  0
  -12.8998    1.0052   -2.4871 H   0  0  0  0  0  0  0  0  0  0  0  0
  -11.6056    0.4886   -1.4013 H   0  0  0  0  0  0  0  0  0  0  0  0
  -12.7185    1.7591   -0.9016 H   0  0  0  0  0  0  0  0  0  0  0  0
   -8.2125    3.8383   -0.0041 H   0  0  0  0  0  0  0  0  0  0  0  0
   -6.0651    2.7694    0.2739 H   0  0  0  0  0  0  0  0  0  0  0  0
   -4.5143    0.8434   -0.2238 H   0  0  0  0  0  0  0  0  0  0  0  0
   -3.9009   -2.5528   -1.8283 H   0  0  0  0  0  0  0  0  0  0  0  0
   -2.5878   -0.1893   -0.3749 H   0  0  0  0  0  0  0  0  0  0  0  0
   -0.5468    0.0420    1.1683 H   0  0  0  0  0  0  0  0  0  0  0  0
   -0.1280    0.6158   -0.4470 H   0  0  0  0  0  0  0  0  0  0  0  0
    2.1466    0.4033    0.0546 H   0  0  0  0  0  0  0  0  0  0  0  0
    1.7354   -0.0921    1.6832 H   0  0  0  0  0  0  0  0  0  0  0  0
    3.1431   -3.3443   -0.0387 H   0  0  0  0  0  0  0  0  0  0  0  0
    5.4656   -3.2675   -0.3873 H   0  0  0  0  0  0  0  0  0  0  0  0
    7.9977   -3.3502   -0.5202 H   0  0  0  0  0  0  0  0  0  0  0  0
   10.1422   -2.4443    0.1241 H   0  0  0  0  0  0  0  0  0  0  0  0
   12.4787    0.0575    1.1899 H   0  0  0  0  0  0  0  0  0  0  0  0
   11.6049   -1.0015    0.0915 H   0  0  0  0  0  0  0  0  0  0  0  0
   13.3614   -2.2612    1.3161 H   0  0  0  0  0  0  0  0  0  0  0  0
   11.7692   -2.8571    1.8001 H   0  0  0  0  0  0  0  0  0  0  0  0
   12.6644   -1.7765    2.8636 H   0  0  0  0  0  0  0  0  0  0  0  0
    9.9478    0.4074    3.6159 H   0  0  0  0  0  0  0  0  0  0  0  0
   11.6746    0.4851    3.2862 H   0  0  0  0  0  0  0  0  0  0  0  0
   11.2948    2.2381    1.5566 H   0  0  0  0  0  0  0  0  0  0  0  0
    9.5593    2.1673    1.8491 H   0  0  0  0  0  0  0  0  0  0  0  0
   10.6458    2.7396    3.1197 H   0  0  0  0  0  0  0  0  0  0  0  0
    8.1319    0.4402    2.6312 H   0  0  0  0  0  0  0  0  0  0  0  0
   -9.4973    0.5315   -2.4662 H   0  0  0  0  0  0  0  0  0  0  0  0
  1  2  1  0  0  0  0
  2  3  1  0  0  0  0
  3  4  1  0  0  0  0
  4  5  1  0  0  0  0
  3  6  1  0  0  0  0
  6  7  2  0  0  0  0
  7  8  1  0  0  0  0
  8  9  2  0  0  0  0
  9 10  1  0  0  0  0
 10 11  2  0  0  0  0
 11 12  1  0  0  0  0
 12 13  2  0  0  0  0
 13 14  1  0  0  0  0
 14 15  2  0  0  0  0
 15 16  1  0  0  0  0
 16 17  1  0  0  0  0
 17 18  1  0  0  0  0
 18 19  2  0  0  0  0
 19 20  1  0  0  0  0
 20 21  2  0  0  0  0
 21 22  1  0  0  0  0
 22 23  2  0  0  0  0
 23 24  1  0  0  0  0
 24 25  2  0  0  0  0
 25 26  1  0  0  0  0
 26 27  1  0  0  0  0
 27 28  1  0  0  0  0
 26 29  1  0  0  0  0
 29 30  1  0  0  0  0
 25 31  1  0  0  0  0
 31 32  2  0  0  0  0
 32 33  1  0  0  0  0
 33 34  1  0  0  0  0
 34 35  2  0  0  0  0
 18 36  1  0  0  0  0
 36 37  2  0  0  0  0
 37 38  1  0  0  0  0
 38 39  1  0  0  0  0
 38 40  1  0  0  0  0
 38 41  1  0  0  0  0
 11 42  1  0  0  0  0
 42 43  2  0  0  0  0
 42 44  1  0  0  0  0
 44 45  1  0  0  0  0
 45 46  2  0  0  0  0
 46  6  1  0  0  0  0
 45  9  1  0  0  0  0
 41 14  1  0  0  0  0
 36 15  1  0  0  0  0
 34 20  1  0  0  0  0
 32 22  1  0  0  0  0
  1 47  1  0  0  0  0
  1 48  1  0  0  0  0
  1 49  1  0  0  0  0
  2 50  1  0  0  0  0
  2 51  1  0  0  0  0
  4 52  1  0  0  0  0
  4 53  1  0  0  0  0
  5 54  1  0  0  0  0
  5 55  1  0  0  0  0
  5 56  1  0  0  0  0
  7 57  1  0  0  0  0
  8 58  1  0  0  0  0
 10 59  1  0  0  0  0
 12 60  1  0  0  0  0
 13 61  1  0  0  0  0
 16 62  1  0  0  0  0
 16 63  1  0  0  0  0
 17 64  1  0  0  0  0
 17 65  1  0  0  0  0
 19 66  1  0  0  0  0
 21 67  1  0  0  0  0
 23 68  1  0  0  0  0
 24 69  1  0  0  0  0
 27 70  1  0  0  0  0
 27 71  1  0  0  0  0
 28 72  1  0  0  0  0
 28 73  1  0  0  0  0
 28 74  1  0  0  0  0
 29 75  1  0  0  0  0
 29 76  1  0  0  0  0
 30 77  1  0  0  0  0
 30 78  1  0  0  0  0
 30 79  1  0  0  0  0
 31 80  1  0  0  0  0
 46 81  1  0  0  0  0
M  CHG  1  37   1
M  CHG  1  38  -1
M  END
