
  xtb     03022214143D
 energy: -64.742391047359 gnorm: 0.000104123500 xtb: 6.4.1 (afa7bdf)
 48 50  0     0  0            999 V2000
    6.2170   -0.8840    0.6577 C   0  0  0  0  0  0  0  0  0  0  0  0
    5.8176    0.1167   -0.4204 C   0  0  0  0  0  0  0  0  0  0  0  0
    4.5548   -0.2880   -1.1832 C   0  0  0  0  0  0  0  0  0  0  0  0
    3.2849   -0.3865   -0.3357 C   0  0  0  0  0  0  0  0  0  0  0  0
    2.8480    0.9540    0.2516 C   0  0  0  0  0  0  0  0  0  0  0  0
    1.5685    0.8570    1.0839 C   0  0  0  0  0  0  0  0  0  0  0  0
    0.3235    0.5741    0.2463 C   0  0  0  0  0  0  0  0  0  0  0  0
   -0.9352    0.5485    1.1195 C   0  0  0  0  0  0  0  0  0  0  0  0
   -2.1301    0.1981    0.3758 N   0  0  0  0  0  0  0  0  0  0  0  0
   -2.4931   -1.1278    0.2569 C   0  0  0  0  0  0  0  0  0  0  0  0
   -1.6361   -2.1693    0.6459 C   0  0  0  0  0  0  0  0  0  0  0  0
   -2.0219   -3.4869    0.5360 C   0  0  0  0  0  0  0  0  0  0  0  0
   -3.2727   -3.8288    0.0348 C   0  0  0  0  0  0  0  0  0  0  0  0
   -4.1218   -2.8247   -0.3629 C   0  0  0  0  0  0  0  0  0  0  0  0
   -3.7513   -1.4816   -0.2643 C   0  0  0  0  0  0  0  0  0  0  0  0
   -4.7021   -0.4645   -0.7180 C   0  0  0  0  0  0  0  0  0  0  0  0
   -5.8391   -0.7336   -1.0792 O   0  0  0  0  0  0  0  0  0  0  0  0
   -4.1675    0.8988   -0.7271 C   0  0  0  0  0  0  0  0  0  0  0  0
   -4.9506    1.9130   -1.2830 C   0  0  0  0  0  0  0  0  0  0  0  0
   -4.5025    3.2106   -1.3358 C   0  0  0  0  0  0  0  0  0  0  0  0
   -3.2403    3.5030   -0.8320 C   0  0  0  0  0  0  0  0  0  0  0  0
   -2.4518    2.5200   -0.2761 C   0  0  0  0  0  0  0  0  0  0  0  0
   -2.8972    1.1913   -0.1973 C   0  0  0  0  0  0  0  0  0  0  0  0
    6.3063   -1.8827    0.2353 H   0  0  0  0  0  0  0  0  0  0  0  0
    7.1760   -0.6084    1.0906 H   0  0  0  0  0  0  0  0  0  0  0  0
    5.4826   -0.9124    1.4585 H   0  0  0  0  0  0  0  0  0  0  0  0
    5.6819    1.1019    0.0289 H   0  0  0  0  0  0  0  0  0  0  0  0
    6.6338    0.2005   -1.1422 H   0  0  0  0  0  0  0  0  0  0  0  0
    4.3847    0.4362   -1.9839 H   0  0  0  0  0  0  0  0  0  0  0  0
    4.7312   -1.2596   -1.6518 H   0  0  0  0  0  0  0  0  0  0  0  0
    3.4360   -1.1038    0.4727 H   0  0  0  0  0  0  0  0  0  0  0  0
    2.4904   -0.7762   -0.9753 H   0  0  0  0  0  0  0  0  0  0  0  0
    2.6994    1.6726   -0.5578 H   0  0  0  0  0  0  0  0  0  0  0  0
    3.6414    1.3381    0.8946 H   0  0  0  0  0  0  0  0  0  0  0  0
    1.6874    0.0712    1.8342 H   0  0  0  0  0  0  0  0  0  0  0  0
    1.4242    1.8000    1.6178 H   0  0  0  0  0  0  0  0  0  0  0  0
    0.2183    1.3402   -0.5245 H   0  0  0  0  0  0  0  0  0  0  0  0
    0.4216   -0.3859   -0.2613 H   0  0  0  0  0  0  0  0  0  0  0  0
   -0.8108   -0.1711    1.9323 H   0  0  0  0  0  0  0  0  0  0  0  0
   -1.0895    1.5226    1.5891 H   0  0  0  0  0  0  0  0  0  0  0  0
   -0.6478   -1.9646    1.0226 H   0  0  0  0  0  0  0  0  0  0  0  0
   -1.3339   -4.2622    0.8407 H   0  0  0  0  0  0  0  0  0  0  0  0
   -3.5645   -4.8644   -0.0444 H   0  0  0  0  0  0  0  0  0  0  0  0
   -5.1013   -3.0355   -0.7655 H   0  0  0  0  0  0  0  0  0  0  0  0
   -5.9188    1.6303   -1.6684 H   0  0  0  0  0  0  0  0  0  0  0  0
   -5.1124    3.9896   -1.7661 H   0  0  0  0  0  0  0  0  0  0  0  0
   -2.8630    4.5143   -0.8795 H   0  0  0  0  0  0  0  0  0  0  0  0
   -1.4738    2.7994    0.0792 H   0  0  0  0  0  0  0  0  0  0  0  0
  1  2  1  0  0  0  0
  2  3  1  0  0  0  0
  3  4  1  0  0  0  0
  4  5  1  0  0  0  0
  5  6  1  0  0  0  0
  6  7  1  0  0  0  0
  7  8  1  0  0  0  0
  8  9  1  0  0  0  0
  9 10  1  0  0  0  0
 10 11  2  0  0  0  0
 11 12  1  0  0  0  0
 12 13  2  0  0  0  0
 13 14  1  0  0  0  0
 14 15  2  0  0  0  0
 15 16  1  0  0  0  0
 16 17  2  0  0  0  0
 16 18  1  0  0  0  0
 18 19  2  0  0  0  0
 19 20  1  0  0  0  0
 20 21  2  0  0  0  0
 21 22  1  0  0  0  0
 22 23  2  0  0  0  0
 23  9  1  0  0  0  0
 15 10  1  0  0  0  0
 23 18  1  0  0  0  0
  1 24  1  0  0  0  0
  1 25  1  0  0  0  0
  1 26  1  0  0  0  0
  2 27  1  0  0  0  0
  2 28  1  0  0  0  0
  3 29  1  0  0  0  0
  3 30  1  0  0  0  0
  4 31  1  0  0  0  0
  4 32  1  0  0  0  0
  5 33  1  0  0  0  0
  5 34  1  0  0  0  0
  6 35  1  0  0  0  0
  6 36  1  0  0  0  0
  7 37  1  0  0  0  0
  7 38  1  0  0  0  0
  8 39  1  0  0  0  0
  8 40  1  0  0  0  0
 11 41  1  0  0  0  0
 12 42  1  0  0  0  0
 13 43  1  0  0  0  0
 14 44  1  0  0  0  0
 19 45  1  0  0  0  0
 20 46  1  0  0  0  0
 21 47  1  0  0  0  0
 22 48  1  0  0  0  0
M  END
