
  xtb     03022215233D
 energy: -152.388174635023 gnorm: 0.000154903207 xtb: 6.4.1 (afa7bdf)
 96106  0     0  0            999 V2000
    3.5224   -3.0960   -4.2748 N   0  0  0  0  0  0  0  0  0  0  0  0
    2.6440   -2.6909   -3.6592 C   0  0  0  0  0  0  0  0  0  0  0  0
    1.5212   -2.1904   -2.9594 C   0  0  0  0  0  0  0  0  0  0  0  0
    0.2584   -2.4459   -3.4826 C   0  0  0  0  0  0  0  0  0  0  0  0
   -0.8735   -1.9340   -2.8570 C   0  0  0  0  0  0  0  0  0  0  0  0
   -2.1363   -2.1583   -3.4486 C   0  0  0  0  0  0  0  0  0  0  0  0
   -3.1441   -2.3276   -3.9691 N   0  0  0  0  0  0  0  0  0  0  0  0
   -0.7486   -1.1500   -1.6961 C   0  0  0  0  0  0  0  0  0  0  0  0
   -1.9356   -0.6216   -1.0063 C   0  0  0  0  0  0  0  0  0  0  0  0
   -3.0023   -1.4563   -0.6930 C   0  0  0  0  0  0  0  0  0  0  0  0
   -4.1004   -0.9540   -0.0002 C   0  0  0  0  0  0  0  0  0  0  0  0
   -5.1640   -1.7939    0.3393 N   0  0  0  0  0  0  0  0  0  0  0  0
   -5.8496   -2.6363   -0.5213 C   0  0  0  0  0  0  0  0  0  0  0  0
   -5.6788   -2.8420   -1.8817 C   0  0  0  0  0  0  0  0  0  0  0  0
   -6.5307   -3.7311   -2.5097 C   0  0  0  0  0  0  0  0  0  0  0  0
   -7.5372   -4.3942   -1.8119 C   0  0  0  0  0  0  0  0  0  0  0  0
   -7.7267   -4.1745   -0.4623 C   0  0  0  0  0  0  0  0  0  0  0  0
   -6.8817   -3.2871    0.1912 C   0  0  0  0  0  0  0  0  0  0  0  0
   -6.8051   -2.8194    1.5472 C   0  0  0  0  0  0  0  0  0  0  0  0
   -7.5246   -3.1084    2.6988 C   0  0  0  0  0  0  0  0  0  0  0  0
   -7.1636   -2.4891    3.8789 C   0  0  0  0  0  0  0  0  0  0  0  0
   -6.0867   -1.6074    3.9233 C   0  0  0  0  0  0  0  0  0  0  0  0
   -5.3565   -1.3060    2.7896 C   0  0  0  0  0  0  0  0  0  0  0  0
   -5.7345   -1.8985    1.5946 C   0  0  0  0  0  0  0  0  0  0  0  0
   -4.1432    0.3917    0.3523 C   0  0  0  0  0  0  0  0  0  0  0  0
   -3.0808    1.2292    0.0323 C   0  0  0  0  0  0  0  0  0  0  0  0
   -3.1288    2.5900    0.3523 N   0  0  0  0  0  0  0  0  0  0  0  0
   -3.4518    3.1334    1.5819 C   0  0  0  0  0  0  0  0  0  0  0  0
   -3.7335    2.5011    2.7833 C   0  0  0  0  0  0  0  0  0  0  0  0
   -3.9999    3.2912    3.8850 C   0  0  0  0  0  0  0  0  0  0  0  0
   -3.9764    4.6813    3.8045 C   0  0  0  0  0  0  0  0  0  0  0  0
   -3.6684    5.3175    2.6186 C   0  0  0  0  0  0  0  0  0  0  0  0
   -3.3992    4.5432    1.4979 C   0  0  0  0  0  0  0  0  0  0  0  0
   -3.0333    4.8594    0.1454 C   0  0  0  0  0  0  0  0  0  0  0  0
   -2.8456    6.0541   -0.5369 C   0  0  0  0  0  0  0  0  0  0  0  0
   -2.5138    6.0057   -1.8760 C   0  0  0  0  0  0  0  0  0  0  0  0
   -2.3865    4.7869   -2.5381 C   0  0  0  0  0  0  0  0  0  0  0  0
   -2.5684    3.5852   -1.8801 C   0  0  0  0  0  0  0  0  0  0  0  0
   -2.8746    3.6271   -0.5277 C   0  0  0  0  0  0  0  0  0  0  0  0
   -1.9700    0.7161   -0.6296 C   0  0  0  0  0  0  0  0  0  0  0  0
    0.5218   -0.8862   -1.2056 C   0  0  0  0  0  0  0  0  0  0  0  0
    1.6686   -1.3985   -1.8048 C   0  0  0  0  0  0  0  0  0  0  0  0
    2.9904   -1.1127   -1.2437 C   0  0  0  0  0  0  0  0  0  0  0  0
    3.9426   -2.1201   -1.0892 C   0  0  0  0  0  0  0  0  0  0  0  0
    5.1838   -1.8431   -0.5612 C   0  0  0  0  0  0  0  0  0  0  0  0
    5.5217   -0.5406   -0.1839 C   0  0  0  0  0  0  0  0  0  0  0  0
    6.7795   -0.2532    0.3327 N   0  0  0  0  0  0  0  0  0  0  0  0
    7.4513   -1.1920    1.1290 C   0  0  0  0  0  0  0  0  0  0  0  0
    8.8301   -1.3586    1.0113 C   0  0  0  0  0  0  0  0  0  0  0  0
    9.4894   -2.2737    1.8091 C   0  0  0  0  0  0  0  0  0  0  0  0
    8.7881   -3.0385    2.7268 C   0  0  0  0  0  0  0  0  0  0  0  0
    7.4173   -2.8781    2.8451 C   0  0  0  0  0  0  0  0  0  0  0  0
    6.7501   -1.9599    2.0577 C   0  0  0  0  0  0  0  0  0  0  0  0
    7.3949    0.9756    0.0501 C   0  0  0  0  0  0  0  0  0  0  0  0
    8.1353    1.6340    1.0304 C   0  0  0  0  0  0  0  0  0  0  0  0
    8.7505    2.8375    0.7442 C   0  0  0  0  0  0  0  0  0  0  0  0
    8.6319    3.4041   -0.5143 C   0  0  0  0  0  0  0  0  0  0  0  0
    7.8949    2.7540   -1.4906 C   0  0  0  0  0  0  0  0  0  0  0  0
    7.2825    1.5464   -1.2168 C   0  0  0  0  0  0  0  0  0  0  0  0
    4.5671    0.4694   -0.3350 C   0  0  0  0  0  0  0  0  0  0  0  0
    3.3212    0.1830   -0.8459 C   0  0  0  0  0  0  0  0  0  0  0  0
    0.1569   -3.0346   -4.3831 H   0  0  0  0  0  0  0  0  0  0  0  0
   -2.9697   -2.5046   -0.9476 H   0  0  0  0  0  0  0  0  0  0  0  0
   -4.9147   -2.3293   -2.4445 H   0  0  0  0  0  0  0  0  0  0  0  0
   -6.4102   -3.9099   -3.5672 H   0  0  0  0  0  0  0  0  0  0  0  0
   -8.1813   -5.0823   -2.3389 H   0  0  0  0  0  0  0  0  0  0  0  0
   -8.5156   -4.6754    0.0783 H   0  0  0  0  0  0  0  0  0  0  0  0
   -8.3456   -3.8087    2.6681 H   0  0  0  0  0  0  0  0  0  0  0  0
   -7.7125   -2.6977    4.7850 H   0  0  0  0  0  0  0  0  0  0  0  0
   -5.8126   -1.1531    4.8641 H   0  0  0  0  0  0  0  0  0  0  0  0
   -4.5062   -0.6433    2.8407 H   0  0  0  0  0  0  0  0  0  0  0  0
   -5.0167    0.7910    0.8443 H   0  0  0  0  0  0  0  0  0  0  0  0
   -3.7338    1.4255    2.8641 H   0  0  0  0  0  0  0  0  0  0  0  0
   -4.2279    2.8195    4.8294 H   0  0  0  0  0  0  0  0  0  0  0  0
   -4.1930    5.2649    4.6867 H   0  0  0  0  0  0  0  0  0  0  0  0
   -3.6325    6.3948    2.5592 H   0  0  0  0  0  0  0  0  0  0  0  0
   -2.9636    6.9983   -0.0273 H   0  0  0  0  0  0  0  0  0  0  0  0
   -2.3612    6.9228   -2.4251 H   0  0  0  0  0  0  0  0  0  0  0  0
   -2.1452    4.7797   -3.5907 H   0  0  0  0  0  0  0  0  0  0  0  0
   -2.4896    2.6480   -2.4105 H   0  0  0  0  0  0  0  0  0  0  0  0
   -1.1401    1.3663   -0.8613 H   0  0  0  0  0  0  0  0  0  0  0  0
    0.6226   -0.2979   -0.3052 H   0  0  0  0  0  0  0  0  0  0  0  0
    3.7028   -3.1349   -1.3699 H   0  0  0  0  0  0  0  0  0  0  0  0
    5.9092   -2.6345   -0.4490 H   0  0  0  0  0  0  0  0  0  0  0  0
    9.3768   -0.7687    0.2904 H   0  0  0  0  0  0  0  0  0  0  0  0
   10.5576   -2.3957    1.7073 H   0  0  0  0  0  0  0  0  0  0  0  0
    9.3064   -3.7542    3.3464 H   0  0  0  0  0  0  0  0  0  0  0  0
    6.8636   -3.4655    3.5626 H   0  0  0  0  0  0  0  0  0  0  0  0
    5.6828   -1.8273    2.1596 H   0  0  0  0  0  0  0  0  0  0  0  0
    8.2228    1.1959    2.0139 H   0  0  0  0  0  0  0  0  0  0  0  0
    9.3205    3.3394    1.5119 H   0  0  0  0  0  0  0  0  0  0  0  0
    9.1123    4.3454   -0.7334 H   0  0  0  0  0  0  0  0  0  0  0  0
    7.8039    3.1848   -2.4768 H   0  0  0  0  0  0  0  0  0  0  0  0
    6.7193    1.0336   -1.9829 H   0  0  0  0  0  0  0  0  0  0  0  0
    4.8116    1.4796   -0.0421 H   0  0  0  0  0  0  0  0  0  0  0  0
    2.5998    0.9787   -0.9634 H   0  0  0  0  0  0  0  0  0  0  0  0
  1  2  3  0  0  0  0
  2  3  1  0  0  0  0
  3  4  2  0  0  0  0
  4  5  1  0  0  0  0
  5  6  1  0  0  0  0
  6  7  3  0  0  0  0
  5  8  2  0  0  0  0
  8  9  1  0  0  0  0
  9 10  2  0  0  0  0
 10 11  1  0  0  0  0
 11 12  1  0  0  0  0
 12 13  1  0  0  0  0
 13 14  2  0  0  0  0
 14 15  1  0  0  0  0
 15 16  2  0  0  0  0
 16 17  1  0  0  0  0
 17 18  2  0  0  0  0
 18 19  1  0  0  0  0
 19 20  2  0  0  0  0
 20 21  1  0  0  0  0
 21 22  2  0  0  0  0
 22 23  1  0  0  0  0
 23 24  2  0  0  0  0
 11 25  2  0  0  0  0
 25 26  1  0  0  0  0
 26 27  1  0  0  0  0
 27 28  1  0  0  0  0
 28 29  2  0  0  0  0
 29 30  1  0  0  0  0
 30 31  2  0  0  0  0
 31 32  1  0  0  0  0
 32 33  2  0  0  0  0
 33 34  1  0  0  0  0
 34 35  2  0  0  0  0
 35 36  1  0  0  0  0
 36 37  2  0  0  0  0
 37 38  1  0  0  0  0
 38 39  2  0  0  0  0
 26 40  2  0  0  0  0
  8 41  1  0  0  0  0
 41 42  2  0  0  0  0
 42 43  1  0  0  0  0
 43 44  2  0  0  0  0
 44 45  1  0  0  0  0
 45 46  2  0  0  0  0
 46 47  1  0  0  0  0
 47 48  1  0  0  0  0
 48 49  2  0  0  0  0
 49 50  1  0  0  0  0
 50 51  2  0  0  0  0
 51 52  1  0  0  0  0
 52 53  2  0  0  0  0
 47 54  1  0  0  0  0
 54 55  2  0  0  0  0
 55 56  1  0  0  0  0
 56 57  2  0  0  0  0
 57 58  1  0  0  0  0
 58 59  2  0  0  0  0
 46 60  1  0  0  0  0
 60 61  2  0  0  0  0
 42  3  1  0  0  0  0
 61 43  1  0  0  0  0
 40  9  1  0  0  0  0
 53 48  1  0  0  0  0
 59 54  1  0  0  0  0
 24 12  1  0  0  0  0
 39 27  1  0  0  0  0
 18 13  1  0  0  0  0
 24 19  1  0  0  0  0
 33 28  1  0  0  0  0
 39 34  1  0  0  0  0
  4 62  1  0  0  0  0
 10 63  1  0  0  0  0
 14 64  1  0  0  0  0
 15 65  1  0  0  0  0
 16 66  1  0  0  0  0
 17 67  1  0  0  0  0
 20 68  1  0  0  0  0
 21 69  1  0  0  0  0
 22 70  1  0  0  0  0
 23 71  1  0  0  0  0
 25 72  1  0  0  0  0
 29 73  1  0  0  0  0
 30 74  1  0  0  0  0
 31 75  1  0  0  0  0
 32 76  1  0  0  0  0
 35 77  1  0  0  0  0
 36 78  1  0  0  0  0
 37 79  1  0  0  0  0
 38 80  1  0  0  0  0
 40 81  1  0  0  0  0
 41 82  1  0  0  0  0
 44 83  1  0  0  0  0
 45 84  1  0  0  0  0
 49 85  1  0  0  0  0
 50 86  1  0  0  0  0
 51 87  1  0  0  0  0
 52 88  1  0  0  0  0
 53 89  1  0  0  0  0
 55 90  1  0  0  0  0
 56 91  1  0  0  0  0
 57 92  1  0  0  0  0
 58 93  1  0  0  0  0
 59 94  1  0  0  0  0
 60 95  1  0  0  0  0
 61 96  1  0  0  0  0
M  END
