
  xtb     03022214543D
 energy: -132.103448223465 gnorm: 0.000176509770 xtb: 6.4.1 (afa7bdf)
 84 93  0     0  0            999 V2000
    0.2710    9.3705   -0.0126 C   0  0  0  0  0  0  0  0  0  0  0  0
    0.2078    7.8734   -0.0106 C   0  0  0  0  0  0  0  0  0  0  0  0
    0.0544    7.1745   -1.2002 C   0  0  0  0  0  0  0  0  0  0  0  0
    0.0135    5.7897   -1.2250 C   0  0  0  0  0  0  0  0  0  0  0  0
   -0.1538    5.0416   -2.5124 C   0  0  0  0  0  0  0  0  0  0  0  0
    0.1300    5.0898   -0.0232 C   0  0  0  0  0  0  0  0  0  0  0  0
    0.0875    3.6128   -0.0408 C   0  0  0  0  0  0  0  0  0  0  0  0
   -1.1258    2.9502    0.1158 C   0  0  0  0  0  0  0  0  0  0  0  0
   -2.4012    3.4836    0.4069 C   0  0  0  0  0  0  0  0  0  0  0  0
   -3.2414    2.4152    0.5911 C   0  0  0  0  0  0  0  0  0  0  0  0
   -2.4876    1.2368    0.3847 C   0  0  0  0  0  0  0  0  0  0  0  0
   -3.0209   -0.1097    0.4843 C   0  0  0  0  0  0  0  0  0  0  0  0
   -4.0036   -0.3731    1.4587 C   0  0  0  0  0  0  0  0  0  0  0  0
   -4.5589   -1.6181    1.5840 C   0  0  0  0  0  0  0  0  0  0  0  0
   -4.1798   -2.6810    0.7457 C   0  0  0  0  0  0  0  0  0  0  0  0
   -3.1955   -2.4187   -0.2365 C   0  0  0  0  0  0  0  0  0  0  0  0
   -2.7685   -3.4617   -1.1082 C   0  0  0  0  0  0  0  0  0  0  0  0
   -3.2915   -4.7039   -1.0144 C   0  0  0  0  0  0  0  0  0  0  0  0
   -4.2922   -5.0090   -0.0476 C   0  0  0  0  0  0  0  0  0  0  0  0
   -4.8356   -6.3011    0.0303 C   0  0  0  0  0  0  0  0  0  0  0  0
   -5.8014   -6.6066    0.9541 C   0  0  0  0  0  0  0  0  0  0  0  0
   -6.2516   -5.6200    1.8322 C   0  0  0  0  0  0  0  0  0  0  0  0
   -5.7340   -4.3496    1.7757 C   0  0  0  0  0  0  0  0  0  0  0  0
   -4.7447   -4.0033    0.8405 C   0  0  0  0  0  0  0  0  0  0  0  0
   -2.6398   -1.1388   -0.3542 C   0  0  0  0  0  0  0  0  0  0  0  0
   -1.2185    1.5754    0.0994 N   0  0  0  0  0  4  0  0  0  0  0  0
   -0.0180    0.6724   -0.2832 B   0  0  0  0  0  4  0  0  0  0  0  0
    0.0462   -0.4235    0.5421 F   0  0  0  0  0  0  0  0  0  0  0  0
   -0.1794    0.2806   -1.6124 F   0  0  0  0  0  0  0  0  0  0  0  0
    1.2839    1.5089   -0.1854 N   0  0  0  0  0  0  0  0  0  0  0  0
    1.2684    2.8865   -0.1577 C   0  0  0  0  0  0  0  0  0  0  0  0
    2.6024    3.3518   -0.1658 C   0  0  0  0  0  0  0  0  0  0  0  0
    3.4062    2.2405   -0.1692 C   0  0  0  0  0  0  0  0  0  0  0  0
    2.5656    1.1037   -0.1919 C   0  0  0  0  0  0  0  0  0  0  0  0
    3.0375   -0.2690   -0.2044 C   0  0  0  0  0  0  0  0  0  0  0  0
    4.2037   -0.5858    0.5197 C   0  0  0  0  0  0  0  0  0  0  0  0
    4.7068   -1.8588    0.5277 C   0  0  0  0  0  0  0  0  0  0  0  0
    4.0880   -2.8995   -0.1867 C   0  0  0  0  0  0  0  0  0  0  0  0
    2.9181   -2.5840   -0.9174 C   0  0  0  0  0  0  0  0  0  0  0  0
    2.2438   -3.6027   -1.6506 C   0  0  0  0  0  0  0  0  0  0  0  0
    2.7045   -4.8728   -1.6603 C   0  0  0  0  0  0  0  0  0  0  0  0
    3.8846   -5.2320   -0.9478 C   0  0  0  0  0  0  0  0  0  0  0  0
    4.3584   -6.5532   -0.9765 C   0  0  0  0  0  0  0  0  0  0  0  0
    5.4956   -6.9106   -0.2993 C   0  0  0  0  0  0  0  0  0  0  0  0
    6.1942   -5.9480    0.4304 C   0  0  0  0  0  0  0  0  0  0  0  0
    5.7488   -4.6501    0.4750 C   0  0  0  0  0  0  0  0  0  0  0  0
    4.5873   -4.2511   -0.2069 C   0  0  0  0  0  0  0  0  0  0  0  0
    2.4194   -1.2756   -0.9202 C   0  0  0  0  0  0  0  0  0  0  0  0
    0.2850    5.7705    1.1842 C   0  0  0  0  0  0  0  0  0  0  0  0
    0.4067    5.0066    2.4680 C   0  0  0  0  0  0  0  0  0  0  0  0
    0.3217    7.1567    1.1716 C   0  0  0  0  0  0  0  0  0  0  0  0
   -0.4205    9.7854   -0.7428 H   0  0  0  0  0  0  0  0  0  0  0  0
    0.0316    9.7720    0.9689 H   0  0  0  0  0  0  0  0  0  0  0  0
    1.2758    9.7001   -0.2787 H   0  0  0  0  0  0  0  0  0  0  0  0
   -0.0358    7.7216   -2.1280 H   0  0  0  0  0  0  0  0  0  0  0  0
   -0.2312    5.7286   -3.3511 H   0  0  0  0  0  0  0  0  0  0  0  0
    0.6937    4.3778   -2.6802 H   0  0  0  0  0  0  0  0  0  0  0  0
   -1.0511    4.4245   -2.4808 H   0  0  0  0  0  0  0  0  0  0  0  0
   -2.6304    4.5293    0.4767 H   0  0  0  0  0  0  0  0  0  0  0  0
   -4.2891    2.4446    0.8177 H   0  0  0  0  0  0  0  0  0  0  0  0
   -4.3021    0.4160    2.1328 H   0  0  0  0  0  0  0  0  0  0  0  0
   -5.3008   -1.7740    2.3513 H   0  0  0  0  0  0  0  0  0  0  0  0
   -2.0096   -3.2292   -1.8406 H   0  0  0  0  0  0  0  0  0  0  0  0
   -2.9641   -5.4959   -1.6732 H   0  0  0  0  0  0  0  0  0  0  0  0
   -4.4773   -7.0555   -0.6560 H   0  0  0  0  0  0  0  0  0  0  0  0
   -6.2148   -7.6032    1.0063 H   0  0  0  0  0  0  0  0  0  0  0  0
   -7.0127   -5.8596    2.5605 H   0  0  0  0  0  0  0  0  0  0  0  0
   -6.1035   -3.6103    2.4688 H   0  0  0  0  0  0  0  0  0  0  0  0
   -1.9162   -0.9681   -1.1318 H   0  0  0  0  0  0  0  0  0  0  0  0
    2.8948    4.3840   -0.1562 H   0  0  0  0  0  0  0  0  0  0  0  0
    4.4781    2.2147   -0.1854 H   0  0  0  0  0  0  0  0  0  0  0  0
    4.6909    0.1853    1.0979 H   0  0  0  0  0  0  0  0  0  0  0  0
    5.5967   -2.0550    1.1049 H   0  0  0  0  0  0  0  0  0  0  0  0
    1.3493   -3.3289   -2.1903 H   0  0  0  0  0  0  0  0  0  0  0  0
    2.1891   -5.6466   -2.2116 H   0  0  0  0  0  0  0  0  0  0  0  0
    3.8075   -7.2882   -1.5464 H   0  0  0  0  0  0  0  0  0  0  0  0
    5.8532   -7.9294   -0.3272 H   0  0  0  0  0  0  0  0  0  0  0  0
    7.0913   -6.2282    0.9632 H   0  0  0  0  0  0  0  0  0  0  0  0
    6.3121   -3.9303    1.0478 H   0  0  0  0  0  0  0  0  0  0  0  0
    1.5461   -1.0656   -1.5122 H   0  0  0  0  0  0  0  0  0  0  0  0
   -0.4825    4.3998    2.6362 H   0  0  0  0  0  0  0  0  0  0  0  0
    0.5313    5.6838    3.3089 H   0  0  0  0  0  0  0  0  0  0  0  0
    1.2617    4.3325    2.4313 H   0  0  0  0  0  0  0  0  0  0  0  0
    0.4412    7.6881    2.1052 H   0  0  0  0  0  0  0  0  0  0  0  0
  1  2  1  0  0  0  0
  2  3  2  0  0  0  0
  3  4  1  0  0  0  0
  4  5  1  0  0  0  0
  4  6  2  0  0  0  0
  6  7  1  0  0  0  0
  7  8  2  0  0  0  0
  8  9  1  0  0  0  0
  9 10  2  0  0  0  0
 10 11  1  0  0  0  0
 11 12  1  0  0  0  0
 12 13  2  0  0  0  0
 13 14  1  0  0  0  0
 14 15  2  0  0  0  0
 15 16  1  0  0  0  0
 16 17  1  0  0  0  0
 17 18  2  0  0  0  0
 18 19  1  0  0  0  0
 19 20  2  0  0  0  0
 20 21  1  0  0  0  0
 21 22  2  0  0  0  0
 22 23  1  0  0  0  0
 23 24  2  0  0  0  0
 16 25  2  0  0  0  0
 11 26  2  0  0  0  0
 26 27  1  0  0  0  0
 27 28  1  0  0  0  0
 27 29  1  0  0  0  0
 27 30  1  0  0  0  0
 30 31  1  0  0  0  0
 31 32  2  0  0  0  0
 32 33  1  0  0  0  0
 33 34  2  0  0  0  0
 34 35  1  0  0  0  0
 35 36  2  0  0  0  0
 36 37  1  0  0  0  0
 37 38  2  0  0  0  0
 38 39  1  0  0  0  0
 39 40  1  0  0  0  0
 40 41  2  0  0  0  0
 41 42  1  0  0  0  0
 42 43  2  0  0  0  0
 43 44  1  0  0  0  0
 44 45  2  0  0  0  0
 45 46  1  0  0  0  0
 46 47  2  0  0  0  0
 39 48  2  0  0  0  0
  6 49  1  0  0  0  0
 49 50  1  0  0  0  0
 49 51  2  0  0  0  0
 51  2  1  0  0  0  0
 31  7  1  0  0  0  0
 48 35  1  0  0  0  0
 26  8  1  0  0  0  0
 34 30  1  0  0  0  0
 47 38  1  0  0  0  0
 25 12  1  0  0  0  0
 47 42  1  0  0  0  0
 24 15  1  0  0  0  0
 24 19  1  0  0  0  0
  1 52  1  0  0  0  0
  1 53  1  0  0  0  0
  1 54  1  0  0  0  0
  3 55  1  0  0  0  0
  5 56  1  0  0  0  0
  5 57  1  0  0  0  0
  5 58  1  0  0  0  0
  9 59  1  0  0  0  0
 10 60  1  0  0  0  0
 13 61  1  0  0  0  0
 14 62  1  0  0  0  0
 17 63  1  0  0  0  0
 18 64  1  0  0  0  0
 20 65  1  0  0  0  0
 21 66  1  0  0  0  0
 22 67  1  0  0  0  0
 23 68  1  0  0  0  0
 25 69  1  0  0  0  0
 32 70  1  0  0  0  0
 33 71  1  0  0  0  0
 36 72  1  0  0  0  0
 37 73  1  0  0  0  0
 40 74  1  0  0  0  0
 41 75  1  0  0  0  0
 43 76  1  0  0  0  0
 44 77  1  0  0  0  0
 45 78  1  0  0  0  0
 46 79  1  0  0  0  0
 48 80  1  0  0  0  0
 50 81  1  0  0  0  0
 50 82  1  0  0  0  0
 50 83  1  0  0  0  0
 51 84  1  0  0  0  0
M  CHG  1  26   1
M  CHG  1  27  -1
M  END
