
  xtb     03022214353D
 energy: -73.502370759978 gnorm: 0.000067468154 xtb: 6.4.1 (afa7bdf)
 46 51  0     0  0            999 V2000
    5.5965    3.0492   -2.3927 O   0  0  0  0  0  0  0  0  0  0  0  0
    5.4916    2.0292   -1.7549 C   0  0  0  0  0  0  0  0  0  0  0  0
    4.2462    1.4669   -1.2423 C   0  0  0  0  0  0  0  0  0  0  0  0
    3.0331    2.1331   -1.4949 C   0  0  0  0  0  0  0  0  0  0  0  0
    1.8323    1.6469   -1.0352 C   0  0  0  0  0  0  0  0  0  0  0  0
    1.8508    0.4650   -0.3004 C   0  0  0  0  0  0  0  0  0  0  0  0
    3.0633   -0.2269   -0.0428 C   0  0  0  0  0  0  0  0  0  0  0  0
    4.2603    0.2788   -0.5152 C   0  0  0  0  0  0  0  0  0  0  0  0
    2.7083   -1.3954    0.7161 C   0  0  0  0  0  0  0  0  0  0  0  0
    3.4380   -2.4373    1.2731 C   0  0  0  0  0  0  0  0  0  0  0  0
    2.7614   -3.4139    1.9767 C   0  0  0  0  0  0  0  0  0  0  0  0
    1.3780   -3.3594    2.1350 C   0  0  0  0  0  0  0  0  0  0  0  0
    0.6296   -2.3337    1.5901 C   0  0  0  0  0  0  0  0  0  0  0  0
    1.3046   -1.3581    0.8718 C   0  0  0  0  0  0  0  0  0  0  0  0
    0.8056   -0.2332    0.2426 N   0  0  0  0  0  0  0  0  0  0  0  0
   -0.5442    0.1736    0.2376 C   0  0  0  0  0  0  0  0  0  0  0  0
   -0.8941    1.3396    0.8377 C   0  0  0  0  0  0  0  0  0  0  0  0
   -2.2466    1.7713    0.8808 C   0  0  0  0  0  0  0  0  0  0  0  0
   -2.5843    2.9766    1.5179 C   0  0  0  0  0  0  0  0  0  0  0  0
   -3.8889    3.3898    1.5928 C   0  0  0  0  0  0  0  0  0  0  0  0
   -4.8940    2.6021    1.0302 C   0  0  0  0  0  0  0  0  0  0  0  0
   -4.5850    1.4216    0.4000 C   0  0  0  0  0  0  0  0  0  0  0  0
   -3.2590    0.9706    0.3016 C   0  0  0  0  0  0  0  0  0  0  0  0
   -2.8879   -0.2542   -0.3663 C   0  0  0  0  0  0  0  0  0  0  0  0
   -3.8267   -1.0832   -1.0019 C   0  0  0  0  0  0  0  0  0  0  0  0
   -3.4469   -2.2252   -1.6622 C   0  0  0  0  0  0  0  0  0  0  0  0
   -2.1016   -2.5854   -1.7283 C   0  0  0  0  0  0  0  0  0  0  0  0
   -1.1581   -1.8048   -1.1118 C   0  0  0  0  0  0  0  0  0  0  0  0
   -1.5273   -0.6447   -0.4112 C   0  0  0  0  0  0  0  0  0  0  0  0
    6.3879    1.4234   -1.5061 H   0  0  0  0  0  0  0  0  0  0  0  0
    3.0752    3.0465   -2.0688 H   0  0  0  0  0  0  0  0  0  0  0  0
    0.9031    2.1578   -1.2381 H   0  0  0  0  0  0  0  0  0  0  0  0
    5.1912   -0.2362   -0.3273 H   0  0  0  0  0  0  0  0  0  0  0  0
    4.5107   -2.4769    1.1592 H   0  0  0  0  0  0  0  0  0  0  0  0
    3.3099   -4.2327    2.4177 H   0  0  0  0  0  0  0  0  0  0  0  0
    0.8801   -4.1345    2.6981 H   0  0  0  0  0  0  0  0  0  0  0  0
   -0.4416   -2.2923    1.7173 H   0  0  0  0  0  0  0  0  0  0  0  0
   -0.1390    1.9514    1.3112 H   0  0  0  0  0  0  0  0  0  0  0  0
   -1.7939    3.5721    1.9517 H   0  0  0  0  0  0  0  0  0  0  0  0
   -4.1427    4.3168    2.0848 H   0  0  0  0  0  0  0  0  0  0  0  0
   -5.9228    2.9247    1.0916 H   0  0  0  0  0  0  0  0  0  0  0  0
   -5.3878    0.8386   -0.0223 H   0  0  0  0  0  0  0  0  0  0  0  0
   -4.8728   -0.8232   -0.9824 H   0  0  0  0  0  0  0  0  0  0  0  0
   -4.1915   -2.8427   -2.1423 H   0  0  0  0  0  0  0  0  0  0  0  0
   -1.8054   -3.4739   -2.2653 H   0  0  0  0  0  0  0  0  0  0  0  0
   -0.1153   -2.0782   -1.1703 H   0  0  0  0  0  0  0  0  0  0  0  0
  1  2  2  0  0  0  0
  2  3  1  0  0  0  0
  3  4  2  0  0  0  0
  4  5  1  0  0  0  0
  5  6  2  0  0  0  0
  6  7  1  0  0  0  0
  7  8  2  0  0  0  0
  7  9  1  0  0  0  0
  9 10  2  0  0  0  0
 10 11  1  0  0  0  0
 11 12  2  0  0  0  0
 12 13  1  0  0  0  0
 13 14  2  0  0  0  0
 14 15  1  0  0  0  0
 15 16  1  0  0  0  0
 16 17  2  0  0  0  0
 17 18  1  0  0  0  0
 18 19  2  0  0  0  0
 19 20  1  0  0  0  0
 20 21  2  0  0  0  0
 21 22  1  0  0  0  0
 22 23  2  0  0  0  0
 23 24  1  0  0  0  0
 24 25  2  0  0  0  0
 25 26  1  0  0  0  0
 26 27  2  0  0  0  0
 27 28  1  0  0  0  0
 28 29  2  0  0  0  0
  8  3  1  0  0  0  0
 14  9  1  0  0  0  0
 29 16  1  0  0  0  0
 15  6  1  0  0  0  0
 23 18  1  0  0  0  0
 29 24  1  0  0  0  0
  2 30  1  0  0  0  0
  4 31  1  0  0  0  0
  5 32  1  0  0  0  0
  8 33  1  0  0  0  0
 10 34  1  0  0  0  0
 11 35  1  0  0  0  0
 12 36  1  0  0  0  0
 13 37  1  0  0  0  0
 17 38  1  0  0  0  0
 19 39  1  0  0  0  0
 20 40  1  0  0  0  0
 21 41  1  0  0  0  0
 22 42  1  0  0  0  0
 25 43  1  0  0  0  0
 26 44  1  0  0  0  0
 27 45  1  0  0  0  0
 28 46  1  0  0  0  0
M  END
