
  xtb     03022212223D
 energy: -68.150047525569 gnorm: 0.000272896443 xtb: 6.4.1 (afa7bdf)
 41 43  0     0  0            999 V2000
    8.5869    0.5560    0.2022 C   0  0  0  0  0  0  0  0  0  0  0  0
    7.4444    1.0323    0.8738 O   0  0  0  0  0  0  0  0  0  0  0  0
    6.2217    0.6412    0.4458 C   0  0  0  0  0  0  0  0  0  0  0  0
    5.9828   -0.2153   -0.6279 C   0  0  0  0  0  0  0  0  0  0  0  0
    4.6881   -0.5419   -0.9699 C   0  0  0  0  0  0  0  0  0  0  0  0
    3.5865   -0.0354   -0.2679 C   0  0  0  0  0  0  0  0  0  0  0  0
    2.2754   -0.4307   -0.6987 C   0  0  0  0  0  0  0  0  0  0  0  0
    1.0520   -0.0847   -0.2191 C   0  0  0  0  0  0  0  0  0  0  0  0
    0.8077    0.7899    0.8655 C   0  0  0  0  0  0  0  0  0  0  0  0
    0.5543    1.4921    1.7368 N   0  0  0  0  0  0  0  0  0  0  0  0
   -0.1664   -0.5969   -0.7982 C   0  0  0  0  0  0  0  0  0  0  0  0
   -1.3454   -0.2970   -0.3837 N   0  0  0  0  0  0  0  0  0  0  0  0
   -2.3377   -0.9014   -1.0847 C   0  0  0  0  0  0  0  0  0  0  0  0
   -3.7227   -0.6465   -0.7190 C   0  0  0  0  0  0  0  0  0  0  0  0
   -3.9952    0.2260    0.3322 C   0  0  0  0  0  0  0  0  0  0  0  0
   -5.2932    0.5008    0.7161 C   0  0  0  0  0  0  0  0  0  0  0  0
   -6.3572   -0.0988    0.0490 C   0  0  0  0  0  0  0  0  0  0  0  0
   -7.6722    0.0956    0.3376 O   0  0  0  0  0  0  0  0  0  0  0  0
   -8.0092    0.9678    1.3891 C   0  0  0  0  0  0  0  0  0  0  0  0
   -6.0897   -0.9755   -1.0057 C   0  0  0  0  0  0  0  0  0  0  0  0
   -4.7947   -1.2451   -1.3837 C   0  0  0  0  0  0  0  0  0  0  0  0
   -1.8811   -1.7110   -2.0953 C   0  0  0  0  0  0  0  0  0  0  0  0
   -0.1698   -1.7167   -2.1704 S   0  0  0  0  0  0  0  0  0  0  0  0
    3.8433    0.8249    0.8110 C   0  0  0  0  0  0  0  0  0  0  0  0
    5.1304    1.1534    1.1576 C   0  0  0  0  0  0  0  0  0  0  0  0
    9.4371    0.9997    0.7175 H   0  0  0  0  0  0  0  0  0  0  0  0
    8.6596   -0.5346    0.2579 H   0  0  0  0  0  0  0  0  0  0  0  0
    8.5959    0.8696   -0.8463 H   0  0  0  0  0  0  0  0  0  0  0  0
    6.7980   -0.6302   -1.1998 H   0  0  0  0  0  0  0  0  0  0  0  0
    4.5203   -1.2073   -1.8050 H   0  0  0  0  0  0  0  0  0  0  0  0
    2.2674   -1.1129   -1.5426 H   0  0  0  0  0  0  0  0  0  0  0  0
   -3.1681    0.6889    0.8476 H   0  0  0  0  0  0  0  0  0  0  0  0
   -5.4624    1.1823    1.5347 H   0  0  0  0  0  0  0  0  0  0  0  0
   -9.0972    0.9663    1.4354 H   0  0  0  0  0  0  0  0  0  0  0  0
   -7.6571    1.9860    1.1954 H   0  0  0  0  0  0  0  0  0  0  0  0
   -7.6063    0.6193    2.3454 H   0  0  0  0  0  0  0  0  0  0  0  0
   -6.9245   -1.4331   -1.5128 H   0  0  0  0  0  0  0  0  0  0  0  0
   -4.6164   -1.9266   -2.2011 H   0  0  0  0  0  0  0  0  0  0  0  0
   -2.4386   -2.2986   -2.7950 H   0  0  0  0  0  0  0  0  0  0  0  0
    3.0245    1.2345    1.3780 H   0  0  0  0  0  0  0  0  0  0  0  0
    5.3292    1.8139    1.9864 H   0  0  0  0  0  0  0  0  0  0  0  0
  1  2  1  0  0  0  0
  2  3  1  0  0  0  0
  3  4  2  0  0  0  0
  4  5  1  0  0  0  0
  5  6  2  0  0  0  0
  6  7  1  0  0  0  0
  7  8  2  0  0  0  0
  8  9  1  0  0  0  0
  9 10  3  0  0  0  0
  8 11  1  0  0  0  0
 11 12  2  0  0  0  0
 12 13  1  0  0  0  0
 13 14  1  0  0  0  0
 14 15  2  0  0  0  0
 15 16  1  0  0  0  0
 16 17  2  0  0  0  0
 17 18  1  0  0  0  0
 18 19  1  0  0  0  0
 17 20  1  0  0  0  0
 20 21  2  0  0  0  0
 13 22  2  0  0  0  0
 22 23  1  0  0  0  0
  6 24  1  0  0  0  0
 24 25  2  0  0  0  0
 25  3  1  0  0  0  0
 23 11  1  0  0  0  0
 21 14  1  0  0  0  0
  1 26  1  0  0  0  0
  1 27  1  0  0  0  0
  1 28  1  0  0  0  0
  4 29  1  0  0  0  0
  5 30  1  0  0  0  0
  7 31  1  0  0  0  0
 15 32  1  0  0  0  0
 16 33  1  0  0  0  0
 19 34  1  0  0  0  0
 19 35  1  0  0  0  0
 19 36  1  0  0  0  0
 20 37  1  0  0  0  0
 21 38  1  0  0  0  0
 22 39  1  0  0  0  0
 24 40  1  0  0  0  0
 25 41  1  0  0  0  0
M  END
