
  xtb     03022214233D
 energy: -59.016930090008 gnorm: 0.000271079234 xtb: 6.4.1 (afa7bdf)
 32 36  0     0  0            999 V2000
    1.6039   -2.5410   -0.9214 F   0  0  0  0  0  0  0  0  0  0  0  0
    1.5211   -1.7410    0.1830 B   0  0  0  0  0  4  0  0  0  0  0  0
    1.6507   -2.4678    1.3326 F   0  0  0  0  0  0  0  0  0  0  0  0
    0.3603   -0.7504    0.1751 N   0  0  0  0  0  0  0  0  0  0  0  0
    0.7787    0.5419    0.1247 C   0  0  0  0  0  0  0  0  0  0  0  0
    0.0581    1.6104    0.1054 N   0  0  0  0  0  0  0  0  0  0  0  0
   -1.3085    1.4405    0.1395 C   0  0  0  0  0  0  0  0  0  0  0  0
   -2.1449    2.5405    0.1217 C   0  0  0  0  0  0  0  0  0  0  0  0
   -3.5293    2.3575    0.1565 C   0  0  0  0  0  0  0  0  0  0  0  0
   -4.0800    1.1032    0.2082 C   0  0  0  0  0  0  0  0  0  0  0  0
   -3.2625   -0.0495    0.2281 C   0  0  0  0  0  0  0  0  0  0  0  0
   -3.7692   -1.3644    0.2809 C   0  0  0  0  0  0  0  0  0  0  0  0
   -2.9186   -2.4386    0.2976 C   0  0  0  0  0  0  0  0  0  0  0  0
   -1.5309   -2.2713    0.2633 C   0  0  0  0  0  0  0  0  0  0  0  0
   -1.0068   -1.0001    0.2116 C   0  0  0  0  0  0  0  0  0  0  0  0
   -1.8621    0.1293    0.1931 C   0  0  0  0  0  0  0  0  0  0  0  0
    2.2342    0.5748    0.0933 C   0  0  0  0  0  0  0  0  0  0  0  0
    3.0737    1.6775    0.0401 C   0  0  0  0  0  0  0  0  0  0  0  0
    4.4389    1.4538    0.0188 C   0  0  0  0  0  0  0  0  0  0  0  0
    4.9243    0.1477    0.0509 C   0  0  0  0  0  0  0  0  0  0  0  0
    4.0286   -0.9023    0.1036 C   0  0  0  0  0  0  0  0  0  0  0  0
    2.7245   -0.6710    0.1233 N   0  0  0  0  0  4  0  0  0  0  0  0
   -1.7148    3.5282    0.0810 H   0  0  0  0  0  0  0  0  0  0  0  0
   -4.1719    3.2261    0.1421 H   0  0  0  0  0  0  0  0  0  0  0  0
   -5.1525    0.9764    0.2347 H   0  0  0  0  0  0  0  0  0  0  0  0
   -4.8391   -1.5092    0.3078 H   0  0  0  0  0  0  0  0  0  0  0  0
   -3.3188   -3.4411    0.3381 H   0  0  0  0  0  0  0  0  0  0  0  0
   -0.8694   -3.1218    0.2768 H   0  0  0  0  0  0  0  0  0  0  0  0
    2.6401    2.6634    0.0173 H   0  0  0  0  0  0  0  0  0  0  0  0
    5.1265    2.2848   -0.0225 H   0  0  0  0  0  0  0  0  0  0  0  0
    5.9839   -0.0486    0.0351 H   0  0  0  0  0  0  0  0  0  0  0  0
    4.3319   -1.9380    0.1307 H   0  0  0  0  0  0  0  0  0  0  0  0
  1  2  1  0  0  0  0
  2  3  1  0  0  0  0
  2  4  1  0  0  0  0
  4  5  1  0  0  0  0
  5  6  2  0  0  0  0
  6  7  1  0  0  0  0
  7  8  2  0  0  0  0
  8  9  1  0  0  0  0
  9 10  2  0  0  0  0
 10 11  1  0  0  0  0
 11 12  2  0  0  0  0
 12 13  1  0  0  0  0
 13 14  2  0  0  0  0
 14 15  1  0  0  0  0
 15 16  2  0  0  0  0
  5 17  1  0  0  0  0
 17 18  2  0  0  0  0
 18 19  1  0  0  0  0
 19 20  2  0  0  0  0
 20 21  1  0  0  0  0
 21 22  2  0  0  0  0
 22  2  1  0  0  0  0
 15  4  1  0  0  0  0
 22 17  1  0  0  0  0
 16  7  1  0  0  0  0
 16 11  1  0  0  0  0
  8 23  1  0  0  0  0
  9 24  1  0  0  0  0
 10 25  1  0  0  0  0
 12 26  1  0  0  0  0
 13 27  1  0  0  0  0
 14 28  1  0  0  0  0
 18 29  1  0  0  0  0
 19 30  1  0  0  0  0
 20 31  1  0  0  0  0
 21 32  1  0  0  0  0
M  CHG  1   2  -1
M  CHG  1  22   1
M  END
