
  xtb     03022215013D
 energy: -68.838121450395 gnorm: 0.000242494249 xtb: 6.4.1 (afa7bdf)
 40 42  0     0  0            999 V2000
   -5.4796   -0.3553    1.2619 C   0  0  0  0  0  0  0  0  0  0  0  0
   -4.1282    0.0076    1.0328 O   0  0  0  0  0  0  0  0  0  0  0  0
   -3.4017   -0.8605    0.3216 C   0  0  0  0  0  0  0  0  0  0  0  0
   -3.8195   -1.9290   -0.0540 O   0  0  0  0  0  0  0  0  0  0  0  0
   -2.0252   -0.3779    0.1105 C   0  0  0  0  0  0  0  0  0  0  0  0
   -1.5979    0.9479   -0.1613 C   0  0  0  0  0  0  0  0  0  0  0  0
   -2.3756    2.1450   -0.4610 C   0  0  0  0  0  0  0  0  0  0  0  0
   -1.9304    3.2710   -0.4316 O   0  0  0  0  0  0  0  0  0  0  0  0
   -3.6379    1.8676   -0.8252 O   0  0  0  0  0  0  0  0  0  0  0  0
   -4.4537    2.9877   -1.1206 C   0  0  0  0  0  0  0  0  0  0  0  0
   -0.2028    0.9115   -0.2008 C   0  0  0  0  0  0  0  0  0  0  0  0
    0.8092    1.8582   -0.4163 C   0  0  0  0  0  0  0  0  0  0  0  0
    2.1068    1.4341   -0.3881 C   0  0  0  0  0  0  0  0  0  0  0  0
    2.3879    0.0579   -0.1472 C   0  0  0  0  0  0  0  0  0  0  0  0
    3.7640   -0.4514   -0.0987 C   0  0  0  0  0  0  0  0  0  0  0  0
    4.0534   -1.5711    0.6804 C   0  0  0  0  0  0  0  0  0  0  0  0
    5.3416   -2.0644    0.7467 C   0  0  0  0  0  0  0  0  0  0  0  0
    6.3587   -1.4520    0.0319 C   0  0  0  0  0  0  0  0  0  0  0  0
    6.0777   -0.3484   -0.7559 C   0  0  0  0  0  0  0  0  0  0  0  0
    4.7903    0.1518   -0.8222 C   0  0  0  0  0  0  0  0  0  0  0  0
    1.4419   -0.8212    0.0619 N   0  0  0  0  0  0  0  0  0  0  0  0
    0.1874   -0.4013    0.0314 N   0  0  0  0  0  0  0  0  0  0  0  0
   -0.9016   -1.1870    0.2131 C   0  0  0  0  0  0  0  0  0  0  0  0
   -0.7756   -2.6358    0.5004 C   0  0  0  0  0  0  0  0  0  0  0  0
   -5.9018    0.4228    1.8926 H   0  0  0  0  0  0  0  0  0  0  0  0
   -5.5340   -1.3264    1.7595 H   0  0  0  0  0  0  0  0  0  0  0  0
   -6.0197   -0.4164    0.3148 H   0  0  0  0  0  0  0  0  0  0  0  0
   -4.5753    3.6136   -0.2336 H   0  0  0  0  0  0  0  0  0  0  0  0
   -4.0032    3.5891   -1.9139 H   0  0  0  0  0  0  0  0  0  0  0  0
   -5.4134    2.5897   -1.4410 H   0  0  0  0  0  0  0  0  0  0  0  0
    0.5288    2.8863   -0.5804 H   0  0  0  0  0  0  0  0  0  0  0  0
    2.9189    2.1299   -0.5164 H   0  0  0  0  0  0  0  0  0  0  0  0
    3.2529   -2.0383    1.2321 H   0  0  0  0  0  0  0  0  0  0  0  0
    5.5561   -2.9286    1.3578 H   0  0  0  0  0  0  0  0  0  0  0  0
    7.3666   -1.8360    0.0851 H   0  0  0  0  0  0  0  0  0  0  0  0
    6.8654    0.1246   -1.3237 H   0  0  0  0  0  0  0  0  0  0  0  0
    4.5820    0.9983   -1.4593 H   0  0  0  0  0  0  0  0  0  0  0  0
   -1.7390   -3.1182    0.3681 H   0  0  0  0  0  0  0  0  0  0  0  0
   -0.4292   -2.7953    1.5219 H   0  0  0  0  0  0  0  0  0  0  0  0
   -0.0446   -3.0798   -0.1726 H   0  0  0  0  0  0  0  0  0  0  0  0
  1  2  1  0  0  0  0
  2  3  1  0  0  0  0
  3  4  2  0  0  0  0
  3  5  1  0  0  0  0
  5  6  1  0  0  0  0
  6  7  1  0  0  0  0
  7  8  2  0  0  0  0
  7  9  1  0  0  0  0
  9 10  1  0  0  0  0
  6 11  2  0  0  0  0
 11 12  1  0  0  0  0
 12 13  2  0  0  0  0
 13 14  1  0  0  0  0
 14 15  1  0  0  0  0
 15 16  2  0  0  0  0
 16 17  1  0  0  0  0
 17 18  2  0  0  0  0
 18 19  1  0  0  0  0
 19 20  2  0  0  0  0
 14 21  2  0  0  0  0
 21 22  1  0  0  0  0
 22 23  1  0  0  0  0
 23 24  1  0  0  0  0
 23  5  2  0  0  0  0
 22 11  1  0  0  0  0
 20 15  1  0  0  0  0
  1 25  1  0  0  0  0
  1 26  1  0  0  0  0
  1 27  1  0  0  0  0
 10 28  1  0  0  0  0
 10 29  1  0  0  0  0
 10 30  1  0  0  0  0
 12 31  1  0  0  0  0
 13 32  1  0  0  0  0
 16 33  1  0  0  0  0
 17 34  1  0  0  0  0
 18 35  1  0  0  0  0
 19 36  1  0  0  0  0
 20 37  1  0  0  0  0
 24 38  1  0  0  0  0
 24 39  1  0  0  0  0
 24 40  1  0  0  0  0
M  END
