
  xtb     03022214243D
 energy: -37.848533329130 gnorm: 0.000205028774 xtb: 6.4.1 (afa7bdf)
 22 23  0     0  0            999 V2000
    4.7770   -0.9044   -0.6709 C   0  0  0  0  0  0  0  0  0  0  0  0
    3.6117   -0.7038   -0.4629 C   0  0  0  0  0  0  0  0  0  0  0  0
    2.2393   -0.4748   -0.2079 C   0  0  0  0  0  0  0  0  0  0  0  0
    1.5787   -1.2121    0.7851 C   0  0  0  0  0  0  0  0  0  0  0  0
    0.2471   -0.9936    1.0377 C   0  0  0  0  0  0  0  0  0  0  0  0
   -0.4789   -0.0366    0.3157 C   0  0  0  0  0  0  0  0  0  0  0  0
   -1.8788    0.2472    0.5275 C   0  0  0  0  0  0  0  0  0  0  0  0
   -2.6446   -0.4988    1.5706 C   0  0  0  0  0  0  0  0  0  0  0  0
   -2.4641    1.1947   -0.2371 C   0  0  0  0  0  0  0  0  0  0  0  0
   -1.7527    1.9388   -1.2587 C   0  0  0  0  0  0  0  0  0  0  0  0
   -2.2346    2.7901   -1.9627 O   0  0  0  0  0  0  0  0  0  0  0  0
   -0.4263    1.6378   -1.4243 O   0  0  0  0  0  0  0  0  0  0  0  0
    0.1928    0.6967   -0.6786 C   0  0  0  0  0  0  0  0  0  0  0  0
    1.5421    0.4780   -0.9370 C   0  0  0  0  0  0  0  0  0  0  0  0
    5.7949   -1.0787   -0.8563 H   0  0  0  0  0  0  0  0  0  0  0  0
    2.1296   -1.9514    1.3466 H   0  0  0  0  0  0  0  0  0  0  0  0
   -0.2491   -1.5676    1.8041 H   0  0  0  0  0  0  0  0  0  0  0  0
   -3.6752   -0.1566    1.6017 H   0  0  0  0  0  0  0  0  0  0  0  0
   -2.1953   -0.3476    2.5511 H   0  0  0  0  0  0  0  0  0  0  0  0
   -2.6363   -1.5663    1.3547 H   0  0  0  0  0  0  0  0  0  0  0  0
   -3.5060    1.4515   -0.1264 H   0  0  0  0  0  0  0  0  0  0  0  0
    2.0289    1.0568   -1.7058 H   0  0  0  0  0  0  0  0  0  0  0  0
  1  2  3  0  0  0  0
  2  3  1  0  0  0  0
  3  4  2  0  0  0  0
  4  5  1  0  0  0  0
  5  6  2  0  0  0  0
  6  7  1  0  0  0  0
  7  8  1  0  0  0  0
  7  9  2  0  0  0  0
  9 10  1  0  0  0  0
 10 11  2  0  0  0  0
 10 12  1  0  0  0  0
 12 13  1  0  0  0  0
 13 14  2  0  0  0  0
 14  3  1  0  0  0  0
 13  6  1  0  0  0  0
  1 15  1  0  0  0  0
  4 16  1  0  0  0  0
  5 17  1  0  0  0  0
  8 18  1  0  0  0  0
  8 19  1  0  0  0  0
  8 20  1  0  0  0  0
  9 21  1  0  0  0  0
 14 22  1  0  0  0  0
M  END
