
  xtb     03022212073D
 energy: -80.759088296468 gnorm: 0.000113969367 xtb: 6.4.1 (afa7bdf)
 46 50  0     0  0            999 V2000
   -6.6547    0.7484   -3.1145 C   0  0  0  0  0  0  0  0  0  0  0  0
   -5.3728    0.4496   -2.4022 C   0  0  0  0  0  0  0  0  0  0  0  0
   -4.8092   -0.8205   -2.4489 C   0  0  0  0  0  0  0  0  0  0  0  0
   -3.6428   -1.1070   -1.7673 C   0  0  0  0  0  0  0  0  0  0  0  0
   -2.9971   -0.1190   -1.0264 C   0  0  0  0  0  0  0  0  0  0  0  0
   -1.7556   -0.4146   -0.3066 C   0  0  0  0  0  0  0  0  0  0  0  0
   -0.6258    0.3827   -0.4925 C   0  0  0  0  0  0  0  0  0  0  0  0
   -0.4145    1.4875   -1.3580 C   0  0  0  0  0  0  0  0  0  0  0  0
    0.8806    1.8998   -1.1829 C   0  0  0  0  0  0  0  0  0  0  0  0
    1.4599    1.0410   -0.2183 C   0  0  0  0  0  0  0  0  0  0  0  0
    2.7542    1.0564    0.2878 C   0  0  0  0  0  0  0  0  0  0  0  0
    3.8660    1.0195    0.7667 C   0  0  0  0  0  0  0  0  0  0  0  0
    5.1443    0.9464    1.3453 C   0  0  0  0  0  0  0  0  0  0  0  0
    6.1504    1.8521    0.9990 C   0  0  0  0  0  0  0  0  0  0  0  0
    7.3951    1.7525    1.5886 C   0  0  0  0  0  0  0  0  0  0  0  0
    7.6487    0.7580    2.5214 C   0  0  0  0  0  0  0  0  0  0  0  0
    6.6524   -0.1433    2.8670 C   0  0  0  0  0  0  0  0  0  0  0  0
    5.4035   -0.0558    2.2859 C   0  0  0  0  0  0  0  0  0  0  0  0
    0.5466    0.1380    0.1785 N   0  0  0  0  0  4  0  0  0  0  0  0
    0.7936   -1.0111    1.1800 B   0  0  0  0  0  4  0  0  0  0  0  0
    1.8056   -1.8269    0.7255 F   0  0  0  0  0  0  0  0  0  0  0  0
    1.1085   -0.5039    2.4214 F   0  0  0  0  0  0  0  0  0  0  0  0
   -0.5400   -1.8123    1.2622 N   0  0  0  0  0  0  0  0  0  0  0  0
   -0.8023   -2.8729    2.0335 C   0  0  0  0  0  0  0  0  0  0  0  0
    0.3603   -3.5678    3.0348 Cl  0  0  0  0  0  0  0  0  0  0  0  0
   -2.1344   -3.2781    1.8783 C   0  0  0  0  0  0  0  0  0  0  0  0
   -2.6992   -2.4125    0.9663 C   0  0  0  0  0  0  0  0  0  0  0  0
   -1.6953   -1.5010    0.5752 C   0  0  0  0  0  0  0  0  0  0  0  0
   -3.5545    1.1578   -0.9842 C   0  0  0  0  0  0  0  0  0  0  0  0
   -4.7284    1.4315   -1.6576 C   0  0  0  0  0  0  0  0  0  0  0  0
   -7.4971    0.5939   -2.4393 H   0  0  0  0  0  0  0  0  0  0  0  0
   -6.7862    0.0928   -3.9717 H   0  0  0  0  0  0  0  0  0  0  0  0
   -6.6808    1.7824   -3.4502 H   0  0  0  0  0  0  0  0  0  0  0  0
   -5.2904   -1.5949   -3.0287 H   0  0  0  0  0  0  0  0  0  0  0  0
   -3.2056   -2.0921   -1.8303 H   0  0  0  0  0  0  0  0  0  0  0  0
   -1.1442    1.8965   -2.0291 H   0  0  0  0  0  0  0  0  0  0  0  0
    1.3885    2.7082   -1.6711 H   0  0  0  0  0  0  0  0  0  0  0  0
    5.9446    2.6239    0.2716 H   0  0  0  0  0  0  0  0  0  0  0  0
    8.1735    2.4525    1.3217 H   0  0  0  0  0  0  0  0  0  0  0  0
    8.6243    0.6858    2.9792 H   0  0  0  0  0  0  0  0  0  0  0  0
    6.8539   -0.9166    3.5936 H   0  0  0  0  0  0  0  0  0  0  0  0
    4.6158   -0.7478    2.5420 H   0  0  0  0  0  0  0  0  0  0  0  0
   -2.5955   -4.0999    2.3865 H   0  0  0  0  0  0  0  0  0  0  0  0
   -3.7134   -2.4085    0.6195 H   0  0  0  0  0  0  0  0  0  0  0  0
   -3.0765    1.9257   -0.3945 H   0  0  0  0  0  0  0  0  0  0  0  0
   -5.1538    2.4234   -1.6054 H   0  0  0  0  0  0  0  0  0  0  0  0
  1  2  1  0  0  0  0
  2  3  2  0  0  0  0
  3  4  1  0  0  0  0
  4  5  2  0  0  0  0
  5  6  1  0  0  0  0
  6  7  2  0  0  0  0
  7  8  1  0  0  0  0
  8  9  2  0  0  0  0
  9 10  1  0  0  0  0
 10 11  1  0  0  0  0
 11 12  3  0  0  0  0
 12 13  1  0  0  0  0
 13 14  2  0  0  0  0
 14 15  1  0  0  0  0
 15 16  2  0  0  0  0
 16 17  1  0  0  0  0
 17 18  2  0  0  0  0
 10 19  2  0  0  0  0
 19 20  1  0  0  0  0
 20 21  1  0  0  0  0
 20 22  1  0  0  0  0
 20 23  1  0  0  0  0
 23 24  1  0  0  0  0
 24 25  1  0  0  0  0
 24 26  2  0  0  0  0
 26 27  1  0  0  0  0
 27 28  2  0  0  0  0
  5 29  1  0  0  0  0
 29 30  2  0  0  0  0
 30  2  1  0  0  0  0
 28  6  1  0  0  0  0
 19  7  1  0  0  0  0
 28 23  1  0  0  0  0
 18 13  1  0  0  0  0
  1 31  1  0  0  0  0
  1 32  1  0  0  0  0
  1 33  1  0  0  0  0
  3 34  1  0  0  0  0
  4 35  1  0  0  0  0
  8 36  1  0  0  0  0
  9 37  1  0  0  0  0
 14 38  1  0  0  0  0
 15 39  1  0  0  0  0
 16 40  1  0  0  0  0
 17 41  1  0  0  0  0
 18 42  1  0  0  0  0
 26 43  1  0  0  0  0
 27 44  1  0  0  0  0
 29 45  1  0  0  0  0
 30 46  1  0  0  0  0
M  CHG  1  19   1
M  CHG  1  20  -1
M  END
