
  xtb     03022213193D
 energy: -120.287601600014 gnorm: 0.000125305978 xtb: 6.4.1 (afa7bdf)
 78 85  0     0  0            999 V2000
   -7.5949    4.4755   -2.7836 C   0  0  0  0  0  0  0  0  0  0  0  0
   -7.9293    3.8317   -1.5797 O   0  0  0  0  0  0  0  0  0  0  0  0
   -7.1551    2.7866   -1.1651 C   0  0  0  0  0  0  0  0  0  0  0  0
   -7.5352    2.1849    0.0359 C   0  0  0  0  0  0  0  0  0  0  0  0
   -6.8222    1.1255    0.5491 C   0  0  0  0  0  0  0  0  0  0  0  0
   -5.7104    0.6247   -0.1302 C   0  0  0  0  0  0  0  0  0  0  0  0
   -4.9832   -0.4579    0.3851 N   0  0  0  0  0  0  0  0  0  0  0  0
   -5.6511   -1.5193    1.0007 C   0  0  0  0  0  0  0  0  0  0  0  0
   -6.9013   -1.9331    0.5399 C   0  0  0  0  0  0  0  0  0  0  0  0
   -7.5603   -2.9783    1.1568 C   0  0  0  0  0  0  0  0  0  0  0  0
   -6.9861   -3.6339    2.2336 C   0  0  0  0  0  0  0  0  0  0  0  0
   -5.7435   -3.2295    2.6936 C   0  0  0  0  0  0  0  0  0  0  0  0
   -5.0803   -2.1797    2.0894 C   0  0  0  0  0  0  0  0  0  0  0  0
   -3.5888   -0.4680    0.2745 C   0  0  0  0  0  0  0  0  0  0  0  0
   -2.8685    0.7169    0.4106 C   0  0  0  0  0  0  0  0  0  0  0  0
   -1.4823    0.7304    0.2938 C   0  0  0  0  0  0  0  0  0  0  0  0
   -0.7196    1.9293    0.4312 C   0  0  0  0  0  0  0  0  0  0  0  0
    0.6289    1.9212    0.3267 C   0  0  0  0  0  0  0  0  0  0  0  0
    1.3466    0.7141    0.0705 C   0  0  0  0  0  0  0  0  0  0  0  0
    2.7320    0.6882   -0.0525 C   0  0  0  0  0  0  0  0  0  0  0  0
    3.4081   -0.5043   -0.3025 C   0  0  0  0  0  0  0  0  0  0  0  0
    4.8027   -0.5105   -0.4101 N   0  0  0  0  0  0  0  0  0  0  0  0
    5.4373   -1.3511   -1.3280 C   0  0  0  0  0  0  0  0  0  0  0  0
    4.8567   -1.6113   -2.5700 C   0  0  0  0  0  0  0  0  0  0  0  0
    5.4880   -2.4430   -3.4739 C   0  0  0  0  0  0  0  0  0  0  0  0
    6.7078   -3.0217   -3.1636 C   0  0  0  0  0  0  0  0  0  0  0  0
    7.2911   -2.7634   -1.9339 C   0  0  0  0  0  0  0  0  0  0  0  0
    6.6640   -1.9399   -1.0197 C   0  0  0  0  0  0  0  0  0  0  0  0
    5.5641    0.3330    0.4115 C   0  0  0  0  0  0  0  0  0  0  0  0
    6.6950    0.9757   -0.0810 C   0  0  0  0  0  0  0  0  0  0  0  0
    7.4532    1.8038    0.7274 C   0  0  0  0  0  0  0  0  0  0  0  0
    7.0842    2.0168    2.0504 C   0  0  0  0  0  0  0  0  0  0  0  0
    7.7524    2.8140    2.9343 O   0  0  0  0  0  0  0  0  0  0  0  0
    8.9056    3.4844    2.4914 C   0  0  0  0  0  0  0  0  0  0  0  0
    5.9455    1.3789    2.5454 C   0  0  0  0  0  0  0  0  0  0  0  0
    5.2002    0.5461    1.7424 C   0  0  0  0  0  0  0  0  0  0  0  0
    2.6882   -1.6898   -0.4365 C   0  0  0  0  0  0  0  0  0  0  0  0
    1.3009   -1.7011   -0.3322 C   0  0  0  0  0  0  0  0  0  0  0  0
    0.5387   -2.9008   -0.4648 C   0  0  0  0  0  0  0  0  0  0  0  0
   -0.8089   -2.8947   -0.3481 C   0  0  0  0  0  0  0  0  0  0  0  0
   -1.5265   -1.6878   -0.0902 C   0  0  0  0  0  0  0  0  0  0  0  0
   -2.9130   -1.6601    0.0211 C   0  0  0  0  0  0  0  0  0  0  0  0
   -0.7937   -0.4824    0.0432 C   0  0  0  0  0  0  0  0  0  0  0  0
    0.6130   -0.4897   -0.0728 C   0  0  0  0  0  0  0  0  0  0  0  0
   -5.3362    1.2239   -1.3285 C   0  0  0  0  0  0  0  0  0  0  0  0
   -6.0436    2.2966   -1.8407 C   0  0  0  0  0  0  0  0  0  0  0  0
   -8.3340    5.2649   -2.9112 H   0  0  0  0  0  0  0  0  0  0  0  0
   -6.5954    4.9210   -2.7387 H   0  0  0  0  0  0  0  0  0  0  0  0
   -7.6485    3.7901   -3.6360 H   0  0  0  0  0  0  0  0  0  0  0  0
   -8.3954    2.5763    0.5552 H   0  0  0  0  0  0  0  0  0  0  0  0
   -7.1218    0.6756    1.4839 H   0  0  0  0  0  0  0  0  0  0  0  0
   -7.3479   -1.4309   -0.3057 H   0  0  0  0  0  0  0  0  0  0  0  0
   -8.5268   -3.2890    0.7876 H   0  0  0  0  0  0  0  0  0  0  0  0
   -7.5029   -4.4526    2.7109 H   0  0  0  0  0  0  0  0  0  0  0  0
   -5.2898   -3.7297    3.5367 H   0  0  0  0  0  0  0  0  0  0  0  0
   -4.1168   -1.8603    2.4590 H   0  0  0  0  0  0  0  0  0  0  0  0
   -3.3953    1.6383    0.6139 H   0  0  0  0  0  0  0  0  0  0  0  0
   -1.2530    2.8495    0.6244 H   0  0  0  0  0  0  0  0  0  0  0  0
    1.1968    2.8346    0.4352 H   0  0  0  0  0  0  0  0  0  0  0  0
    3.2926    1.6068    0.0452 H   0  0  0  0  0  0  0  0  0  0  0  0
    3.9109   -1.1534   -2.8205 H   0  0  0  0  0  0  0  0  0  0  0  0
    5.0274   -2.6332   -4.4324 H   0  0  0  0  0  0  0  0  0  0  0  0
    7.1997   -3.6685   -3.8741 H   0  0  0  0  0  0  0  0  0  0  0  0
    8.2394   -3.2145   -1.6801 H   0  0  0  0  0  0  0  0  0  0  0  0
    7.1167   -1.7488   -0.0577 H   0  0  0  0  0  0  0  0  0  0  0  0
    6.9866    0.8248   -1.1100 H   0  0  0  0  0  0  0  0  0  0  0  0
    8.3240    2.2818    0.3071 H   0  0  0  0  0  0  0  0  0  0  0  0
    8.6801    4.1780    1.6743 H   0  0  0  0  0  0  0  0  0  0  0  0
    9.6812    2.7824    2.1676 H   0  0  0  0  0  0  0  0  0  0  0  0
    9.2676    4.0476    3.3502 H   0  0  0  0  0  0  0  0  0  0  0  0
    5.6699    1.5475    3.5743 H   0  0  0  0  0  0  0  0  0  0  0  0
    4.3268    0.0521    2.1413 H   0  0  0  0  0  0  0  0  0  0  0  0
    3.2156   -2.6151   -0.6194 H   0  0  0  0  0  0  0  0  0  0  0  0
    1.0716   -3.8205   -0.6612 H   0  0  0  0  0  0  0  0  0  0  0  0
   -1.3759   -3.8096   -0.4486 H   0  0  0  0  0  0  0  0  0  0  0  0
   -3.4748   -2.5760   -0.0944 H   0  0  0  0  0  0  0  0  0  0  0  0
   -4.4793    0.8467   -1.8671 H   0  0  0  0  0  0  0  0  0  0  0  0
   -5.7197    2.7329   -2.7725 H   0  0  0  0  0  0  0  0  0  0  0  0
  1  2  1  0  0  0  0
  2  3  1  0  0  0  0
  3  4  2  0  0  0  0
  4  5  1  0  0  0  0
  5  6  2  0  0  0  0
  6  7  1  0  0  0  0
  7  8  1  0  0  0  0
  8  9  2  0  0  0  0
  9 10  1  0  0  0  0
 10 11  2  0  0  0  0
 11 12  1  0  0  0  0
 12 13  2  0  0  0  0
  7 14  1  0  0  0  0
 14 15  2  0  0  0  0
 15 16  1  0  0  0  0
 16 17  2  0  0  0  0
 17 18  1  0  0  0  0
 18 19  2  0  0  0  0
 19 20  1  0  0  0  0
 20 21  2  0  0  0  0
 21 22  1  0  0  0  0
 22 23  1  0  0  0  0
 23 24  2  0  0  0  0
 24 25  1  0  0  0  0
 25 26  2  0  0  0  0
 26 27  1  0  0  0  0
 27 28  2  0  0  0  0
 22 29  1  0  0  0  0
 29 30  2  0  0  0  0
 30 31  1  0  0  0  0
 31 32  2  0  0  0  0
 32 33  1  0  0  0  0
 33 34  1  0  0  0  0
 32 35  1  0  0  0  0
 35 36  2  0  0  0  0
 21 37  1  0  0  0  0
 37 38  2  0  0  0  0
 38 39  1  0  0  0  0
 39 40  2  0  0  0  0
 40 41  1  0  0  0  0
 41 42  2  0  0  0  0
 41 43  1  0  0  0  0
 43 44  2  0  0  0  0
  6 45  1  0  0  0  0
 45 46  2  0  0  0  0
 46  3  1  0  0  0  0
 13  8  1  0  0  0  0
 42 14  1  0  0  0  0
 43 16  1  0  0  0  0
 44 19  1  0  0  0  0
 28 23  1  0  0  0  0
 36 29  1  0  0  0  0
 44 38  1  0  0  0  0
  1 47  1  0  0  0  0
  1 48  1  0  0  0  0
  1 49  1  0  0  0  0
  4 50  1  0  0  0  0
  5 51  1  0  0  0  0
  9 52  1  0  0  0  0
 10 53  1  0  0  0  0
 11 54  1  0  0  0  0
 12 55  1  0  0  0  0
 13 56  1  0  0  0  0
 15 57  1  0  0  0  0
 17 58  1  0  0  0  0
 18 59  1  0  0  0  0
 20 60  1  0  0  0  0
 24 61  1  0  0  0  0
 25 62  1  0  0  0  0
 26 63  1  0  0  0  0
 27 64  1  0  0  0  0
 28 65  1  0  0  0  0
 30 66  1  0  0  0  0
 31 67  1  0  0  0  0
 34 68  1  0  0  0  0
 34 69  1  0  0  0  0
 34 70  1  0  0  0  0
 35 71  1  0  0  0  0
 36 72  1  0  0  0  0
 37 73  1  0  0  0  0
 39 74  1  0  0  0  0
 40 75  1  0  0  0  0
 42 76  1  0  0  0  0
 45 77  1  0  0  0  0
 46 78  1  0  0  0  0
M  END
