
  xtb     03022214403D
 energy: -43.282367091153 gnorm: 0.000098322163 xtb: 6.4.1 (afa7bdf)
 30 31  0     0  0            999 V2000
   -5.9837    0.5787    0.2241 C   0  0  0  0  0  0  0  0  0  0  0  0
   -5.0372   -0.2800    0.8111 O   0  0  0  0  0  0  0  0  0  0  0  0
   -3.7205   -0.0952    0.5185 C   0  0  0  0  0  0  0  0  0  0  0  0
   -3.2170    0.8872   -0.3274 C   0  0  0  0  0  0  0  0  0  0  0  0
   -1.8555    0.9752   -0.5446 C   0  0  0  0  0  0  0  0  0  0  0  0
   -0.9507    0.1022    0.0618 C   0  0  0  0  0  0  0  0  0  0  0  0
    0.4636    0.2582   -0.2112 C   0  0  0  0  0  0  0  0  0  0  0  0
    1.4613   -0.4881    0.2856 C   0  0  0  0  0  0  0  0  0  0  0  0
    2.8776   -0.3279    0.0152 C   0  0  0  0  0  0  0  0  0  0  0  0
    3.3987    0.6744   -0.8077 C   0  0  0  0  0  0  0  0  0  0  0  0
    4.7582    0.7767   -1.0254 C   0  0  0  0  0  0  0  0  0  0  0  0
    5.6348   -0.1161   -0.4298 C   0  0  0  0  0  0  0  0  0  0  0  0
    5.1368   -1.1160    0.3891 C   0  0  0  0  0  0  0  0  0  0  0  0
    3.7776   -1.2193    0.6081 C   0  0  0  0  0  0  0  0  0  0  0  0
   -1.4758   -0.8811    0.9089 C   0  0  0  0  0  0  0  0  0  0  0  0
   -2.8285   -0.9782    1.1325 C   0  0  0  0  0  0  0  0  0  0  0  0
   -6.9523    0.2496    0.5973 H   0  0  0  0  0  0  0  0  0  0  0  0
   -5.8188    1.6205    0.5178 H   0  0  0  0  0  0  0  0  0  0  0  0
   -5.9730    0.5030   -0.8682 H   0  0  0  0  0  0  0  0  0  0  0  0
   -3.8731    1.5873   -0.8208 H   0  0  0  0  0  0  0  0  0  0  0  0
   -1.4830    1.7457   -1.2053 H   0  0  0  0  0  0  0  0  0  0  0  0
    0.6957    1.0705   -0.8876 H   0  0  0  0  0  0  0  0  0  0  0  0
    1.2287   -1.3021    0.9596 H   0  0  0  0  0  0  0  0  0  0  0  0
    2.7364    1.3826   -1.2815 H   0  0  0  0  0  0  0  0  0  0  0  0
    5.1402    1.5598   -1.6649 H   0  0  0  0  0  0  0  0  0  0  0  0
    6.6975   -0.0321   -0.6026 H   0  0  0  0  0  0  0  0  0  0  0  0
    5.8124   -1.8169    0.8583 H   0  0  0  0  0  0  0  0  0  0  0  0
    3.3978   -2.0030    1.2490 H   0  0  0  0  0  0  0  0  0  0  0  0
   -0.8165   -1.5794    1.3999 H   0  0  0  0  0  0  0  0  0  0  0  0
   -3.2317   -1.7360    1.7859 H   0  0  0  0  0  0  0  0  0  0  0  0
  1  2  1  0  0  0  0
  2  3  1  0  0  0  0
  3  4  2  0  0  0  0
  4  5  1  0  0  0  0
  5  6  2  0  0  0  0
  6  7  1  0  0  0  0
  7  8  2  0  0  0  0
  8  9  1  0  0  0  0
  9 10  2  0  0  0  0
 10 11  1  0  0  0  0
 11 12  2  0  0  0  0
 12 13  1  0  0  0  0
 13 14  2  0  0  0  0
  6 15  1  0  0  0  0
 15 16  2  0  0  0  0
 16  3  1  0  0  0  0
 14  9  1  0  0  0  0
  1 17  1  0  0  0  0
  1 18  1  0  0  0  0
  1 19  1  0  0  0  0
  4 20  1  0  0  0  0
  5 21  1  0  0  0  0
  7 22  1  0  0  0  0
  8 23  1  0  0  0  0
 10 24  1  0  0  0  0
 11 25  1  0  0  0  0
 12 26  1  0  0  0  0
 13 27  1  0  0  0  0
 14 28  1  0  0  0  0
 15 29  1  0  0  0  0
 16 30  1  0  0  0  0
M  END
