
  xtb     03022214103D
 energy: -59.282743309831 gnorm: 0.000202507476 xtb: 6.4.1 (afa7bdf)
 33 36  0     0  0            999 V2000
   -1.1027    2.1153   -1.7236 O   0  0  0  0  0  0  0  0  0  0  0  0
   -0.3935    1.3634   -1.0931 C   0  0  0  0  0  0  0  0  0  0  0  0
    1.0017    1.4249   -1.0915 N   0  0  0  0  0  0  0  0  0  0  0  0
    1.5978    0.4682   -0.3007 C   0  0  0  0  0  0  0  0  0  0  0  0
    3.0277    0.3425   -0.1522 C   0  0  0  0  0  0  0  0  0  0  0  0
    3.9162    1.1990   -0.8137 C   0  0  0  0  0  0  0  0  0  0  0  0
    5.2794    1.0525   -0.6534 C   0  0  0  0  0  0  0  0  0  0  0  0
    5.7842    0.0544    0.1656 C   0  0  0  0  0  0  0  0  0  0  0  0
    4.9143   -0.7994    0.8262 C   0  0  0  0  0  0  0  0  0  0  0  0
    3.5492   -0.6622    0.6732 C   0  0  0  0  0  0  0  0  0  0  0  0
    0.5757   -0.2734    0.2595 C   0  0  0  0  0  0  0  0  0  0  0  0
    0.2628   -1.3772    1.1353 C   0  0  0  0  0  0  0  0  0  0  0  0
    0.9424   -2.1380    1.7737 O   0  0  0  0  0  0  0  0  0  0  0  0
   -1.1269   -1.4638    1.1521 O   0  0  0  0  0  0  0  0  0  0  0  0
   -1.6779   -0.5020    0.3571 C   0  0  0  0  0  0  0  0  0  0  0  0
   -3.1099   -0.4312    0.2405 C   0  0  0  0  0  0  0  0  0  0  0  0
   -3.7039    0.5446   -0.5692 C   0  0  0  0  0  0  0  0  0  0  0  0
   -5.0789    0.6010   -0.6749 C   0  0  0  0  0  0  0  0  0  0  0  0
   -5.8741   -0.3024    0.0157 C   0  0  0  0  0  0  0  0  0  0  0  0
   -5.2905   -1.2706    0.8196 C   0  0  0  0  0  0  0  0  0  0  0  0
   -3.9173   -1.3393    0.9351 C   0  0  0  0  0  0  0  0  0  0  0  0
   -0.6797    0.2486   -0.2072 C   0  0  0  0  0  0  0  0  0  0  0  0
    1.5006    2.1159   -1.6292 H   0  0  0  0  0  0  0  0  0  0  0  0
    3.5499    1.9847   -1.4577 H   0  0  0  0  0  0  0  0  0  0  0  0
    5.9532    1.7200   -1.1699 H   0  0  0  0  0  0  0  0  0  0  0  0
    6.8513   -0.0557    0.2869 H   0  0  0  0  0  0  0  0  0  0  0  0
    5.3029   -1.5779    1.4649 H   0  0  0  0  0  0  0  0  0  0  0  0
    2.8773   -1.3291    1.1893 H   0  0  0  0  0  0  0  0  0  0  0  0
   -3.0838    1.2458   -1.1054 H   0  0  0  0  0  0  0  0  0  0  0  0
   -5.5364    1.3534   -1.2996 H   0  0  0  0  0  0  0  0  0  0  0  0
   -6.9494   -0.2521   -0.0724 H   0  0  0  0  0  0  0  0  0  0  0  0
   -5.9110   -1.9727    1.3563 H   0  0  0  0  0  0  0  0  0  0  0  0
   -3.4505   -2.0876    1.5566 H   0  0  0  0  0  0  0  0  0  0  0  0
  1  2  2  0  0  0  0
  2  3  1  0  0  0  0
  3  4  1  0  0  0  0
  4  5  1  0  0  0  0
  5  6  2  0  0  0  0
  6  7  1  0  0  0  0
  7  8  2  0  0  0  0
  8  9  1  0  0  0  0
  9 10  2  0  0  0  0
  4 11  2  0  0  0  0
 11 12  1  0  0  0  0
 12 13  2  0  0  0  0
 12 14  1  0  0  0  0
 14 15  1  0  0  0  0
 15 16  1  0  0  0  0
 16 17  2  0  0  0  0
 17 18  1  0  0  0  0
 18 19  2  0  0  0  0
 19 20  1  0  0  0  0
 20 21  2  0  0  0  0
 15 22  2  0  0  0  0
 22  2  1  0  0  0  0
 10  5  1  0  0  0  0
 22 11  1  0  0  0  0
 21 16  1  0  0  0  0
  3 23  1  0  0  0  0
  6 24  1  0  0  0  0
  7 25  1  0  0  0  0
  8 26  1  0  0  0  0
  9 27  1  0  0  0  0
 10 28  1  0  0  0  0
 17 29  1  0  0  0  0
 18 30  1  0  0  0  0
 19 31  1  0  0  0  0
 20 32  1  0  0  0  0
 21 33  1  0  0  0  0
M  END
