
  xtb     03022214203D
 energy: -71.947115779300 gnorm: 0.000201789241 xtb: 6.4.1 (afa7bdf)
 43 45  0     0  0            999 V2000
   -2.0581    3.9102    0.8634 C   0  0  0  0  0  0  0  0  0  0  0  0
   -3.0902    3.0739    0.4024 O   0  0  0  0  0  0  0  0  0  0  0  0
   -2.7853    1.7888    0.0442 C   0  0  0  0  0  0  0  0  0  0  0  0
   -1.5113    1.2588    0.1263 C   0  0  0  0  0  0  0  0  0  0  0  0
   -1.2593   -0.0742   -0.2141 C   0  0  0  0  0  0  0  0  0  0  0  0
    0.0931   -0.5712   -0.1085 C   0  0  0  0  0  0  0  0  0  0  0  0
    0.5269   -1.7970   -0.4520 C   0  0  0  0  0  0  0  0  0  0  0  0
    1.8884   -2.2083   -0.3175 C   0  0  0  0  0  0  0  0  0  0  0  0
    2.3651   -3.3816   -0.6562 N   0  0  0  0  0  0  0  0  0  0  0  0
    3.6814   -3.3377   -0.3616 C   0  0  0  0  0  0  0  0  0  0  0  0
    3.9878   -2.1038    0.1662 C   0  0  0  0  0  0  0  0  0  0  0  0
    5.2165   -1.5218    0.6476 C   0  0  0  0  0  0  0  0  0  0  0  0
    5.2449   -0.2203    1.1561 C   0  0  0  0  0  0  0  0  0  0  0  0
    6.4497    0.2888    1.6053 C   0  0  0  0  0  0  0  0  0  0  0  0
    7.5860   -0.3879    1.5819 N   0  0  0  0  0  0  0  0  0  0  0  0
    7.5605   -1.6205    1.1008 C   0  0  0  0  0  0  0  0  0  0  0  0
    6.4178   -2.2361    0.6237 C   0  0  0  0  0  0  0  0  0  0  0  0
    2.8324   -1.3871    0.1901 O   0  0  0  0  0  0  0  0  0  0  0  0
   -2.3259   -0.8579   -0.6319 C   0  0  0  0  0  0  0  0  0  0  0  0
   -3.6165   -0.3458   -0.7363 C   0  0  0  0  0  0  0  0  0  0  0  0
   -4.5249   -1.2661   -1.1547 O   0  0  0  0  0  0  0  0  0  0  0  0
   -5.8683   -0.9305   -1.4251 C   0  0  0  0  0  0  0  0  0  0  0  0
   -3.8628    0.9978   -0.4101 C   0  0  0  0  0  0  0  0  0  0  0  0
   -5.1473    1.4805   -0.4894 O   0  0  0  0  0  0  0  0  0  0  0  0
   -5.3596    2.7522   -1.0703 C   0  0  0  0  0  0  0  0  0  0  0  0
   -1.5994    3.5180    1.7764 H   0  0  0  0  0  0  0  0  0  0  0  0
   -2.5342    4.8648    1.0833 H   0  0  0  0  0  0  0  0  0  0  0  0
   -1.2874    4.0593    0.1004 H   0  0  0  0  0  0  0  0  0  0  0  0
   -0.6906    1.8677    0.4688 H   0  0  0  0  0  0  0  0  0  0  0  0
    0.8182    0.1318    0.2829 H   0  0  0  0  0  0  0  0  0  0  0  0
   -0.1232   -2.5543   -0.8582 H   0  0  0  0  0  0  0  0  0  0  0  0
    4.3171   -4.1795   -0.5428 H   0  0  0  0  0  0  0  0  0  0  0  0
    4.3417    0.3680    1.1948 H   0  0  0  0  0  0  0  0  0  0  0  0
    6.5134    1.2921    2.0065 H   0  0  0  0  0  0  0  0  0  0  0  0
    8.5106   -2.1386    1.0997 H   0  0  0  0  0  0  0  0  0  0  0  0
    6.4519   -3.2435    0.2418 H   0  0  0  0  0  0  0  0  0  0  0  0
   -2.1917   -1.8928   -0.8965 H   0  0  0  0  0  0  0  0  0  0  0  0
   -6.3744   -0.5374   -0.5422 H   0  0  0  0  0  0  0  0  0  0  0  0
   -5.9483   -0.2089   -2.2417 H   0  0  0  0  0  0  0  0  0  0  0  0
   -6.3337   -1.8687   -1.7283 H   0  0  0  0  0  0  0  0  0  0  0  0
   -4.7064    2.9108   -1.9324 H   0  0  0  0  0  0  0  0  0  0  0  0
   -6.3998    2.7518   -1.3982 H   0  0  0  0  0  0  0  0  0  0  0  0
   -5.2050    3.5565   -0.3492 H   0  0  0  0  0  0  0  0  0  0  0  0
  1  2  1  0  0  0  0
  2  3  1  0  0  0  0
  3  4  2  0  0  0  0
  4  5  1  0  0  0  0
  5  6  1  0  0  0  0
  6  7  2  0  0  0  0
  7  8  1  0  0  0  0
  8  9  2  0  0  0  0
  9 10  1  0  0  0  0
 10 11  2  0  0  0  0
 11 12  1  0  0  0  0
 12 13  2  0  0  0  0
 13 14  1  0  0  0  0
 14 15  2  0  0  0  0
 15 16  1  0  0  0  0
 16 17  2  0  0  0  0
 11 18  1  0  0  0  0
  5 19  2  0  0  0  0
 19 20  1  0  0  0  0
 20 21  1  0  0  0  0
 21 22  1  0  0  0  0
 20 23  2  0  0  0  0
 23 24  1  0  0  0  0
 24 25  1  0  0  0  0
 23  3  1  0  0  0  0
 18  8  1  0  0  0  0
 17 12  1  0  0  0  0
  1 26  1  0  0  0  0
  1 27  1  0  0  0  0
  1 28  1  0  0  0  0
  4 29  1  0  0  0  0
  6 30  1  0  0  0  0
  7 31  1  0  0  0  0
 10 32  1  0  0  0  0
 13 33  1  0  0  0  0
 14 34  1  0  0  0  0
 16 35  1  0  0  0  0
 17 36  1  0  0  0  0
 19 37  1  0  0  0  0
 22 38  1  0  0  0  0
 22 39  1  0  0  0  0
 22 40  1  0  0  0  0
 25 41  1  0  0  0  0
 25 42  1  0  0  0  0
 25 43  1  0  0  0  0
M  END
