
  xtb     03022212063D
 energy: -81.831309871276 gnorm: 0.000731279353 xtb: 6.4.1 (afa7bdf)
 49 53  0     0  0            999 V2000
    7.8653    1.3092   -1.2393 C   0  0  0  0  0  0  0  0  0  0  0  0
    7.3906    0.0076   -0.9920 O   0  0  0  0  0  0  0  0  0  0  0  0
    6.0581   -0.1802   -0.8083 C   0  0  0  0  0  0  0  0  0  0  0  0
    5.6617   -1.5001   -0.5644 C   0  0  0  0  0  0  0  0  0  0  0  0
    4.3380   -1.8075   -0.3618 C   0  0  0  0  0  0  0  0  0  0  0  0
    3.3686   -0.7976   -0.3987 C   0  0  0  0  0  0  0  0  0  0  0  0
    2.0102   -1.0754   -0.1933 C   0  0  0  0  0  0  0  0  0  0  0  0
    0.8257   -1.2725   -0.0250 C   0  0  0  0  0  0  0  0  0  0  0  0
   -0.5338   -1.4561    0.1676 C   0  0  0  0  0  0  0  0  0  0  0  0
   -1.2203   -2.6739    0.4707 C   0  0  0  0  0  0  0  0  0  0  0  0
   -0.7805   -3.9818    0.6568 C   0  0  0  0  0  0  0  0  0  0  0  0
   -1.7235   -4.9445    0.9429 C   0  0  0  0  0  0  0  0  0  0  0  0
   -3.0806   -4.6215    1.0445 C   0  0  0  0  0  0  0  0  0  0  0  0
   -3.5307   -3.3309    0.8631 C   0  0  0  0  0  0  0  0  0  0  0  0
   -2.5944   -2.3432    0.5726 C   0  0  0  0  0  0  0  0  0  0  0  0
   -2.6933   -0.9357    0.3266 C   0  0  0  0  0  0  0  0  0  0  0  0
   -1.4239   -0.4590    0.0905 N   0  0  0  0  0  0  0  0  0  0  0  0
   -1.0851    1.0242   -0.2217 B   0  0  0  0  0  4  0  0  0  0  0  0
   -0.4771    1.1111   -1.4613 F   0  0  0  0  0  0  0  0  0  0  0  0
   -0.2273    1.5185    0.7451 F   0  0  0  0  0  0  0  0  0  0  0  0
   -2.4108    1.8100   -0.2166 N   0  0  0  0  0  4  0  0  0  0  0  0
   -2.5692    3.1212   -0.4438 C   0  0  0  0  0  0  0  0  0  0  0  0
   -1.4284    4.0142   -0.7433 C   0  0  0  0  0  0  0  0  0  0  0  0
   -3.9295    3.4442   -0.3472 C   0  0  0  0  0  0  0  0  0  0  0  0
   -4.6223    2.2851   -0.0504 C   0  0  0  0  0  0  0  0  0  0  0  0
   -6.0862    2.1223    0.1517 C   0  0  0  0  0  0  0  0  0  0  0  0
   -3.6504    1.2550    0.0305 C   0  0  0  0  0  0  0  0  0  0  0  0
   -3.7905   -0.1004    0.2993 C   0  0  0  0  0  0  0  0  0  0  0  0
    3.7655    0.5192   -0.6442 C   0  0  0  0  0  0  0  0  0  0  0  0
    5.0954    0.8270   -0.8465 C   0  0  0  0  0  0  0  0  0  0  0  0
    7.6470    1.9822   -0.4039 H   0  0  0  0  0  0  0  0  0  0  0  0
    7.4431    1.7230   -2.1605 H   0  0  0  0  0  0  0  0  0  0  0  0
    8.9442    1.2124   -1.3501 H   0  0  0  0  0  0  0  0  0  0  0  0
    6.4235   -2.2634   -0.5402 H   0  0  0  0  0  0  0  0  0  0  0  0
    4.0379   -2.8276   -0.1736 H   0  0  0  0  0  0  0  0  0  0  0  0
    0.2686   -4.2235    0.5772 H   0  0  0  0  0  0  0  0  0  0  0  0
   -1.4165   -5.9690    1.0925 H   0  0  0  0  0  0  0  0  0  0  0  0
   -3.7882   -5.4058    1.2705 H   0  0  0  0  0  0  0  0  0  0  0  0
   -4.5806   -3.0927    0.9442 H   0  0  0  0  0  0  0  0  0  0  0  0
   -1.7679    5.0350   -0.8929 H   0  0  0  0  0  0  0  0  0  0  0  0
   -0.7101    3.9796    0.0750 H   0  0  0  0  0  0  0  0  0  0  0  0
   -0.9112    3.6627   -1.6356 H   0  0  0  0  0  0  0  0  0  0  0  0
   -4.3442    4.4242   -0.4834 H   0  0  0  0  0  0  0  0  0  0  0  0
   -6.4884    1.3769   -0.5338 H   0  0  0  0  0  0  0  0  0  0  0  0
   -6.2975    1.7909    1.1685 H   0  0  0  0  0  0  0  0  0  0  0  0
   -6.5965    3.0665   -0.0193 H   0  0  0  0  0  0  0  0  0  0  0  0
   -4.7719   -0.5057    0.4886 H   0  0  0  0  0  0  0  0  0  0  0  0
    3.0141    1.2934   -0.6721 H   0  0  0  0  0  0  0  0  0  0  0  0
    5.3737    1.8524   -1.0328 H   0  0  0  0  0  0  0  0  0  0  0  0
  1  2  1  0  0  0  0
  2  3  1  0  0  0  0
  3  4  2  0  0  0  0
  4  5  1  0  0  0  0
  5  6  2  0  0  0  0
  6  7  1  0  0  0  0
  7  8  3  0  0  0  0
  8  9  1  0  0  0  0
  9 10  2  0  0  0  0
 10 11  1  0  0  0  0
 11 12  2  0  0  0  0
 12 13  1  0  0  0  0
 13 14  2  0  0  0  0
 14 15  1  0  0  0  0
 15 16  2  0  0  0  0
 16 17  1  0  0  0  0
 17 18  1  0  0  0  0
 18 19  1  0  0  0  0
 18 20  1  0  0  0  0
 18 21  1  0  0  0  0
 21 22  2  0  0  0  0
 22 23  1  0  0  0  0
 22 24  1  0  0  0  0
 24 25  2  0  0  0  0
 25 26  1  0  0  0  0
 25 27  1  0  0  0  0
 27 28  2  0  0  0  0
  6 29  1  0  0  0  0
 29 30  2  0  0  0  0
 30  3  1  0  0  0  0
 17  9  1  0  0  0  0
 27 21  1  0  0  0  0
 15 10  1  0  0  0  0
 28 16  1  0  0  0  0
  1 31  1  0  0  0  0
  1 32  1  0  0  0  0
  1 33  1  0  0  0  0
  4 34  1  0  0  0  0
  5 35  1  0  0  0  0
 11 36  1  0  0  0  0
 12 37  1  0  0  0  0
 13 38  1  0  0  0  0
 14 39  1  0  0  0  0
 23 40  1  0  0  0  0
 23 41  1  0  0  0  0
 23 42  1  0  0  0  0
 24 43  1  0  0  0  0
 26 44  1  0  0  0  0
 26 45  1  0  0  0  0
 26 46  1  0  0  0  0
 28 47  1  0  0  0  0
 29 48  1  0  0  0  0
 30 49  1  0  0  0  0
M  CHG  1  18  -1
M  CHG  1  21   1
M  END
