
  xtb     03022213173D
 energy: -42.341086967415 gnorm: 0.000253997876 xtb: 6.4.1 (afa7bdf)
 27 29  0     0  0            999 V2000
   -3.1718   -1.7594   -0.3918 O   0  0  0  0  0  0  0  0  0  0  0  0
   -2.4683   -0.5590   -0.1993 C   0  0  0  0  0  0  0  0  0  0  0  0
   -0.9921   -0.7773   -0.2749 C   0  0  0  0  0  0  0  0  0  0  0  0
   -0.3221   -1.9653   -0.2858 C   0  0  0  0  0  0  0  0  0  0  0  0
    1.0755   -1.8174   -0.3370 C   0  0  0  0  0  0  0  0  0  0  0  0
    1.4803   -0.5095   -0.3600 C   0  0  0  0  0  0  0  0  0  0  0  0
    2.8094    0.0098   -0.4107 C   0  0  0  0  0  0  0  0  0  0  0  0
    3.2130    1.3193   -0.4102 C   0  0  0  0  0  0  0  0  0  0  0  0
    4.6117    1.4666   -0.4696 C   0  0  0  0  0  0  0  0  0  0  0  0
    5.2637    0.2761   -0.5155 C   0  0  0  0  0  0  0  0  0  0  0  0
    4.1818   -1.0599   -0.4864 S   0  0  0  0  0  0  0  0  0  0  0  0
    0.1069    0.5615   -0.3195 S   0  0  0  0  0  0  0  0  0  0  0  0
   -2.9754    0.6541   -1.0244 C   0  0  0  0  0  0  0  0  0  0  0  0
   -3.1462    1.4536    0.2749 C   0  0  0  0  0  0  0  0  0  0  0  0
   -2.9209    0.1719    1.0879 C   0  0  0  0  0  0  0  0  0  0  0  0
   -2.9596   -2.1125   -1.2632 H   0  0  0  0  0  0  0  0  0  0  0  0
   -0.8179   -2.9188   -0.2449 H   0  0  0  0  0  0  0  0  0  0  0  0
    1.7673   -2.6409   -0.3548 H   0  0  0  0  0  0  0  0  0  0  0  0
    2.5202    2.1409   -0.3672 H   0  0  0  0  0  0  0  0  0  0  0  0
    5.1110    2.4190   -0.4777 H   0  0  0  0  0  0  0  0  0  0  0  0
    6.3184    0.0928   -0.5649 H   0  0  0  0  0  0  0  0  0  0  0  0
   -2.2749    1.0574   -1.7529 H   0  0  0  0  0  0  0  0  0  0  0  0
   -3.9215    0.4263   -1.5113 H   0  0  0  0  0  0  0  0  0  0  0  0
   -4.1121    1.9338    0.4096 H   0  0  0  0  0  0  0  0  0  0  0  0
   -2.3572    2.1878    0.4211 H   0  0  0  0  0  0  0  0  0  0  0  0
   -2.1812    0.2204    1.8831 H   0  0  0  0  0  0  0  0  0  0  0  0
   -3.8378   -0.2713    1.4665 H   0  0  0  0  0  0  0  0  0  0  0  0
  1  2  1  0  0  0  0
  2  3  1  0  0  0  0
  3  4  2  0  0  0  0
  4  5  1  0  0  0  0
  5  6  2  0  0  0  0
  6  7  1  0  0  0  0
  7  8  2  0  0  0  0
  8  9  1  0  0  0  0
  9 10  2  0  0  0  0
 10 11  1  0  0  0  0
  6 12  1  0  0  0  0
  2 13  1  0  0  0  0
 13 14  1  0  0  0  0
 14 15  1  0  0  0  0
 15  2  1  0  0  0  0
 12  3  1  0  0  0  0
 11  7  1  0  0  0  0
  1 16  1  0  0  0  0
  4 17  1  0  0  0  0
  5 18  1  0  0  0  0
  8 19  1  0  0  0  0
  9 20  1  0  0  0  0
 10 21  1  0  0  0  0
 13 22  1  0  0  0  0
 13 23  1  0  0  0  0
 14 24  1  0  0  0  0
 14 25  1  0  0  0  0
 15 26  1  0  0  0  0
 15 27  1  0  0  0  0
M  END
