
  xtb     03022214093D
 energy: -105.616246941252 gnorm: 0.000121670463 xtb: 6.4.1 (afa7bdf)
 68 69  0     0  0            999 V2000
    5.4896   -1.6437    2.7363 C   0  0  0  0  0  0  0  0  0  0  0  0
    6.3371   -0.7421    1.8455 C   0  0  0  0  0  0  0  0  0  0  0  0
    5.6435    0.5765    1.4999 C   0  0  0  0  0  0  0  0  0  0  0  0
    4.4844    0.3985    0.5227 C   0  0  0  0  0  0  0  0  0  0  0  0
    3.7591    1.7226    0.2574 C   0  0  0  0  0  0  0  0  0  0  0  0
    2.5569    1.5152   -0.6177 C   0  0  0  0  0  0  0  0  0  0  0  0
    2.5706    1.9677   -1.9255 C   0  0  0  0  0  0  0  0  0  0  0  0
    1.4913    1.7391   -2.7722 C   0  0  0  0  0  0  0  0  0  0  0  0
    1.5665    2.2019   -4.0461 O   0  0  0  0  0  0  0  0  0  0  0  0
    0.3799    1.0510   -2.3104 C   0  0  0  0  0  0  0  0  0  0  0  0
    0.3478    0.5977   -0.9983 C   0  0  0  0  0  0  0  0  0  0  0  0
   -0.6999   -0.0941   -0.4821 O   0  0  0  0  0  0  0  0  0  0  0  0
   -1.9465    0.0343   -1.0563 C   0  0  0  0  0  0  0  0  0  0  0  0
   -2.5031    1.3212   -1.2012 C   0  0  0  0  0  0  0  0  0  0  0  0
   -1.7308    2.3568   -0.8007 O   0  0  0  0  0  0  0  0  0  0  0  0
   -2.2486    3.6629   -0.8901 C   0  0  0  0  0  0  0  0  0  0  0  0
   -3.7756    1.4349   -1.7249 C   0  0  0  0  0  0  0  0  0  0  0  0
   -4.5029    0.3100   -2.1044 C   0  0  0  0  0  0  0  0  0  0  0  0
   -5.7200    0.5783   -2.6081 O   0  0  0  0  0  0  0  0  0  0  0  0
   -3.9680   -0.9837   -1.9267 C   0  0  0  0  0  0  0  0  0  0  0  0
   -4.7110   -2.1892   -2.3099 C   0  0  0  0  0  0  0  0  0  0  0  0
   -4.4339   -3.3339   -2.0517 O   0  0  0  0  0  0  0  0  0  0  0  0
   -5.8354   -1.9549   -3.0596 O   0  0  0  0  0  0  0  0  0  0  0  0
   -2.6686   -1.1098   -1.3696 C   0  0  0  0  0  0  0  0  0  0  0  0
   -2.0146   -2.4284   -1.0891 C   0  0  0  0  0  0  0  0  0  0  0  0
   -2.4684   -3.0649    0.2367 C   0  0  0  0  0  0  0  0  0  0  0  0
   -2.1030   -2.2424    1.4737 C   0  0  0  0  0  0  0  0  0  0  0  0
   -3.1728   -1.2218    1.8631 C   0  0  0  0  0  0  0  0  0  0  0  0
   -2.6451   -0.2293    2.8917 C   0  0  0  0  0  0  0  0  0  0  0  0
    1.4383    0.8212   -0.1482 C   0  0  0  0  0  0  0  0  0  0  0  0
    1.3610    0.2412    1.2207 C   0  0  0  0  0  0  0  0  0  0  0  0
    1.1387   -0.9180    1.4614 O   0  0  0  0  0  0  0  0  0  0  0  0
    1.5529    1.1603    2.1799 O   0  0  0  0  0  0  0  0  0  0  0  0
    1.5170    0.6730    3.5129 C   0  0  0  0  0  0  0  0  0  0  0  0
    6.0345   -2.5527    2.9806 H   0  0  0  0  0  0  0  0  0  0  0  0
    4.5642   -1.9284    2.2423 H   0  0  0  0  0  0  0  0  0  0  0  0
    5.2427   -1.1340    3.6659 H   0  0  0  0  0  0  0  0  0  0  0  0
    6.5845   -1.2709    0.9224 H   0  0  0  0  0  0  0  0  0  0  0  0
    7.2749   -0.5211    2.3613 H   0  0  0  0  0  0  0  0  0  0  0  0
    5.2737    1.0373    2.4194 H   0  0  0  0  0  0  0  0  0  0  0  0
    6.3742    1.2600    1.0601 H   0  0  0  0  0  0  0  0  0  0  0  0
    3.7713   -0.3218    0.9235 H   0  0  0  0  0  0  0  0  0  0  0  0
    4.8589   -0.0026   -0.4219 H   0  0  0  0  0  0  0  0  0  0  0  0
    4.4451    2.4206   -0.2254 H   0  0  0  0  0  0  0  0  0  0  0  0
    3.4477    2.1557    1.2088 H   0  0  0  0  0  0  0  0  0  0  0  0
    3.4223    2.5012   -2.3156 H   0  0  0  0  0  0  0  0  0  0  0  0
    0.7678    1.9613   -4.5312 H   0  0  0  0  0  0  0  0  0  0  0  0
   -0.4594    0.8598   -2.9663 H   0  0  0  0  0  0  0  0  0  0  0  0
   -1.4636    4.3123   -0.5069 H   0  0  0  0  0  0  0  0  0  0  0  0
   -2.4721    3.9343   -1.9262 H   0  0  0  0  0  0  0  0  0  0  0  0
   -3.1493    3.7773   -0.2803 H   0  0  0  0  0  0  0  0  0  0  0  0
   -4.2564    2.3894   -1.8577 H   0  0  0  0  0  0  0  0  0  0  0  0
   -6.1538   -0.2440   -2.8872 H   0  0  0  0  0  0  0  0  0  0  0  0
   -6.2411   -2.8104   -3.2699 H   0  0  0  0  0  0  0  0  0  0  0  0
   -2.2371   -3.1312   -1.8914 H   0  0  0  0  0  0  0  0  0  0  0  0
   -0.9359   -2.2770   -1.0364 H   0  0  0  0  0  0  0  0  0  0  0  0
   -1.9783   -4.0380    0.2971 H   0  0  0  0  0  0  0  0  0  0  0  0
   -3.5439   -3.2403    0.2064 H   0  0  0  0  0  0  0  0  0  0  0  0
   -1.9540   -2.9194    2.3185 H   0  0  0  0  0  0  0  0  0  0  0  0
   -1.1554   -1.7331    1.2978 H   0  0  0  0  0  0  0  0  0  0  0  0
   -3.5054   -0.6742    0.9803 H   0  0  0  0  0  0  0  0  0  0  0  0
   -4.0418   -1.7458    2.2707 H   0  0  0  0  0  0  0  0  0  0  0  0
   -2.2943   -0.7508    3.7803 H   0  0  0  0  0  0  0  0  0  0  0  0
   -1.8144    0.3329    2.4702 H   0  0  0  0  0  0  0  0  0  0  0  0
   -3.4214    0.4733    3.1886 H   0  0  0  0  0  0  0  0  0  0  0  0
    0.5667    0.1728    3.7098 H   0  0  0  0  0  0  0  0  0  0  0  0
    2.3281   -0.0405    3.6757 H   0  0  0  0  0  0  0  0  0  0  0  0
    1.6349    1.5396    4.1584 H   0  0  0  0  0  0  0  0  0  0  0  0
  1  2  1  0  0  0  0
  2  3  1  0  0  0  0
  3  4  1  0  0  0  0
  4  5  1  0  0  0  0
  5  6  1  0  0  0  0
  6  7  2  0  0  0  0
  7  8  1  0  0  0  0
  8  9  1  0  0  0  0
  8 10  2  0  0  0  0
 10 11  1  0  0  0  0
 11 12  1  0  0  0  0
 12 13  1  0  0  0  0
 13 14  2  0  0  0  0
 14 15  1  0  0  0  0
 15 16  1  0  0  0  0
 14 17  1  0  0  0  0
 17 18  2  0  0  0  0
 18 19  1  0  0  0  0
 18 20  1  0  0  0  0
 20 21  1  0  0  0  0
 21 22  2  0  0  0  0
 21 23  1  0  0  0  0
 20 24  2  0  0  0  0
 24 25  1  0  0  0  0
 25 26  1  0  0  0  0
 26 27  1  0  0  0  0
 27 28  1  0  0  0  0
 28 29  1  0  0  0  0
 11 30  2  0  0  0  0
 30 31  1  0  0  0  0
 31 32  2  0  0  0  0
 31 33  1  0  0  0  0
 33 34  1  0  0  0  0
 30  6  1  0  0  0  0
 24 13  1  0  0  0  0
  1 35  1  0  0  0  0
  1 36  1  0  0  0  0
  1 37  1  0  0  0  0
  2 38  1  0  0  0  0
  2 39  1  0  0  0  0
  3 40  1  0  0  0  0
  3 41  1  0  0  0  0
  4 42  1  0  0  0  0
  4 43  1  0  0  0  0
  5 44  1  0  0  0  0
  5 45  1  0  0  0  0
  7 46  1  0  0  0  0
  9 47  1  0  0  0  0
 10 48  1  0  0  0  0
 16 49  1  0  0  0  0
 16 50  1  0  0  0  0
 16 51  1  0  0  0  0
 17 52  1  0  0  0  0
 19 53  1  0  0  0  0
 23 54  1  0  0  0  0
 25 55  1  0  0  0  0
 25 56  1  0  0  0  0
 26 57  1  0  0  0  0
 26 58  1  0  0  0  0
 27 59  1  0  0  0  0
 27 60  1  0  0  0  0
 28 61  1  0  0  0  0
 28 62  1  0  0  0  0
 29 63  1  0  0  0  0
 29 64  1  0  0  0  0
 29 65  1  0  0  0  0
 34 66  1  0  0  0  0
 34 67  1  0  0  0  0
 34 68  1  0  0  0  0
M  END
