
  xtb     03022213213D
 energy: -42.269338641473 gnorm: 0.000149895029 xtb: 6.4.1 (afa7bdf)
 29 29  0     0  0            999 V2000
    4.9953    1.1317   -1.2281 C   0  0  0  0  0  0  0  0  0  0  0  0
    3.6896    1.7626   -0.7822 C   0  0  0  0  0  0  0  0  0  0  0  0
    2.7091    0.7342   -0.6693 O   0  0  0  0  0  0  0  0  0  0  0  0
    1.4868    1.1226   -0.2796 C   0  0  0  0  0  0  0  0  0  0  0  0
    1.2144    2.2753   -0.0334 O   0  0  0  0  0  0  0  0  0  0  0  0
    0.5309   -0.0036   -0.1883 C   0  0  0  0  0  0  0  0  0  0  0  0
    0.9078   -1.3123   -0.4779 C   0  0  0  0  0  0  0  0  0  0  0  0
   -0.0433   -2.3096   -0.3720 C   0  0  0  0  0  0  0  0  0  0  0  0
   -1.3396   -2.0262    0.0128 C   0  0  0  0  0  0  0  0  0  0  0  0
   -1.7392   -0.7127    0.3091 C   0  0  0  0  0  0  0  0  0  0  0  0
   -3.0203   -0.4243    0.6950 N   0  0  0  0  0  0  0  0  0  0  0  0
   -3.3804    0.9182    1.0778 C   0  0  0  0  0  0  0  0  0  0  0  0
   -4.0367   -1.4455    0.6818 C   0  0  0  0  0  0  0  0  0  0  0  0
   -0.7699    0.2914    0.1970 C   0  0  0  0  0  0  0  0  0  0  0  0
    5.7592    1.8981   -1.3222 H   0  0  0  0  0  0  0  0  0  0  0  0
    4.8636    0.6400   -2.1882 H   0  0  0  0  0  0  0  0  0  0  0  0
    5.3201    0.3922   -0.5011 H   0  0  0  0  0  0  0  0  0  0  0  0
    3.3391    2.5091   -1.5046 H   0  0  0  0  0  0  0  0  0  0  0  0
    3.7967    2.2590    0.1895 H   0  0  0  0  0  0  0  0  0  0  0  0
    1.9191   -1.5326   -0.7766 H   0  0  0  0  0  0  0  0  0  0  0  0
    0.2266   -3.3329   -0.5905 H   0  0  0  0  0  0  0  0  0  0  0  0
   -2.0424   -2.8397    0.0890 H   0  0  0  0  0  0  0  0  0  0  0  0
   -2.7105    1.2918    1.8566 H   0  0  0  0  0  0  0  0  0  0  0  0
   -4.3931    0.9228    1.4740 H   0  0  0  0  0  0  0  0  0  0  0  0
   -3.3402    1.6058    0.2260 H   0  0  0  0  0  0  0  0  0  0  0  0
   -4.0890   -1.9350   -0.2953 H   0  0  0  0  0  0  0  0  0  0  0  0
   -3.8493   -2.2094    1.4448 H   0  0  0  0  0  0  0  0  0  0  0  0
   -5.0059   -0.9956    0.8835 H   0  0  0  0  0  0  0  0  0  0  0  0
   -0.9980    1.3247    0.3976 H   0  0  0  0  0  0  0  0  0  0  0  0
  1  2  1  0  0  0  0
  2  3  1  0  0  0  0
  3  4  1  0  0  0  0
  4  5  2  0  0  0  0
  4  6  1  0  0  0  0
  6  7  2  0  0  0  0
  7  8  1  0  0  0  0
  8  9  2  0  0  0  0
  9 10  1  0  0  0  0
 10 11  1  0  0  0  0
 11 12  1  0  0  0  0
 11 13  1  0  0  0  0
 10 14  2  0  0  0  0
 14  6  1  0  0  0  0
  1 15  1  0  0  0  0
  1 16  1  0  0  0  0
  1 17  1  0  0  0  0
  2 18  1  0  0  0  0
  2 19  1  0  0  0  0
  7 20  1  0  0  0  0
  8 21  1  0  0  0  0
  9 22  1  0  0  0  0
 12 23  1  0  0  0  0
 12 24  1  0  0  0  0
 12 25  1  0  0  0  0
 13 26  1  0  0  0  0
 13 27  1  0  0  0  0
 13 28  1  0  0  0  0
 14 29  1  0  0  0  0
M  END
