
  xtb     03022213013D
 energy: -45.233941036711 gnorm: 0.000060238732 xtb: 6.4.1 (afa7bdf)
 30 31  0     0  0            999 V2000
   -5.7170    0.6662    0.3398 C   0  0  0  0  0  0  0  0  0  0  0  0
   -4.8252   -0.2812    0.8722 O   0  0  0  0  0  0  0  0  0  0  0  0
   -3.4984   -0.1620    0.5807 C   0  0  0  0  0  0  0  0  0  0  0  0
   -2.9384    0.8389   -0.2045 C   0  0  0  0  0  0  0  0  0  0  0  0
   -1.5738    0.8563   -0.4327 C   0  0  0  0  0  0  0  0  0  0  0  0
   -0.7331   -0.1088    0.1109 C   0  0  0  0  0  0  0  0  0  0  0  0
    0.7145   -0.0766   -0.1351 C   0  0  0  0  0  0  0  0  0  0  0  0
    1.2244    0.2774   -1.3851 C   0  0  0  0  0  0  0  0  0  0  0  0
    2.5814    0.3068   -1.6150 C   0  0  0  0  0  0  0  0  0  0  0  0
    3.4810   -0.0137   -0.5971 C   0  0  0  0  0  0  0  0  0  0  0  0
    4.8023    0.0490   -0.9285 O   0  0  0  0  0  0  0  0  0  0  0  0
    5.7561   -0.2743    0.0523 C   0  0  0  0  0  0  0  0  0  0  0  0
    2.9853   -0.3661    0.6528 C   0  0  0  0  0  0  0  0  0  0  0  0
    1.6193   -0.3966    0.8712 C   0  0  0  0  0  0  0  0  0  0  0  0
   -1.3070   -1.1076    0.8988 C   0  0  0  0  0  0  0  0  0  0  0  0
   -2.6639   -1.1373    1.1289 C   0  0  0  0  0  0  0  0  0  0  0  0
   -5.4905    1.6771    0.6948 H   0  0  0  0  0  0  0  0  0  0  0  0
   -6.7043    0.3743    0.6946 H   0  0  0  0  0  0  0  0  0  0  0  0
   -5.7095    0.6558   -0.7552 H   0  0  0  0  0  0  0  0  0  0  0  0
   -3.5511    1.6124   -0.6410 H   0  0  0  0  0  0  0  0  0  0  0  0
   -1.1545    1.6524   -1.0303 H   0  0  0  0  0  0  0  0  0  0  0  0
    0.5452    0.5113   -2.1914 H   0  0  0  0  0  0  0  0  0  0  0  0
    2.9779    0.5738   -2.5821 H   0  0  0  0  0  0  0  0  0  0  0  0
    5.6429   -1.3067    0.3996 H   0  0  0  0  0  0  0  0  0  0  0  0
    5.6996    0.4052    0.9093 H   0  0  0  0  0  0  0  0  0  0  0  0
    6.7257   -0.1625   -0.4306 H   0  0  0  0  0  0  0  0  0  0  0  0
    3.6501   -0.6153    1.4653 H   0  0  0  0  0  0  0  0  0  0  0  0
    1.2534   -0.6550    1.8541 H   0  0  0  0  0  0  0  0  0  0  0  0
   -0.6815   -1.8821    1.3173 H   0  0  0  0  0  0  0  0  0  0  0  0
   -3.1108   -1.9120    1.7322 H   0  0  0  0  0  0  0  0  0  0  0  0
  1  2  1  0  0  0  0
  2  3  1  0  0  0  0
  3  4  2  0  0  0  0
  4  5  1  0  0  0  0
  5  6  2  0  0  0  0
  6  7  1  0  0  0  0
  7  8  2  0  0  0  0
  8  9  1  0  0  0  0
  9 10  2  0  0  0  0
 10 11  1  0  0  0  0
 11 12  1  0  0  0  0
 10 13  1  0  0  0  0
 13 14  2  0  0  0  0
  6 15  1  0  0  0  0
 15 16  2  0  0  0  0
 16  3  1  0  0  0  0
 14  7  1  0  0  0  0
  1 17  1  0  0  0  0
  1 18  1  0  0  0  0
  1 19  1  0  0  0  0
  4 20  1  0  0  0  0
  5 21  1  0  0  0  0
  8 22  1  0  0  0  0
  9 23  1  0  0  0  0
 12 24  1  0  0  0  0
 12 25  1  0  0  0  0
 12 26  1  0  0  0  0
 13 27  1  0  0  0  0
 14 28  1  0  0  0  0
 15 29  1  0  0  0  0
 16 30  1  0  0  0  0
M  END
