
  xtb     03022214263D
 energy: -165.616394214501 gnorm: 0.000212281884 xtb: 6.4.1 (afa7bdf)
124130  0     0  0            999 V2000
   13.5379   -0.2801   -1.0122 C   0  0  0  0  0  0  0  0  0  0  0  0
   12.0220   -0.1173   -0.9989 C   0  0  0  0  0  0  0  0  0  0  0  0
   11.5017    1.1996   -0.3800 C   0  0  0  0  0  0  0  0  0  0  0  0
   12.0521    2.3998   -1.1558 C   0  0  0  0  0  0  0  0  0  0  0  0
   11.9455    1.3387    1.0839 C   0  0  0  0  0  0  0  0  0  0  0  0
    9.9816    1.1347   -0.4385 C   0  0  0  0  0  0  0  0  0  0  0  0
    9.2955    0.2387    0.3786 C   0  0  0  0  0  0  0  0  0  0  0  0
    7.9200    0.1371    0.3464 C   0  0  0  0  0  0  0  0  0  0  0  0
    7.1650    0.9250   -0.5188 C   0  0  0  0  0  0  0  0  0  0  0  0
    5.7012    0.8168   -0.5559 C   0  0  0  0  0  0  0  0  0  0  0  0
    5.0201    0.8467   -1.7729 C   0  0  0  0  0  0  0  0  0  0  0  0
    3.6431    0.7333   -1.8306 C   0  0  0  0  0  0  0  0  0  0  0  0
    2.9334    0.5925   -0.6485 C   0  0  0  0  0  0  0  0  0  0  0  0
    3.6078    0.5662    0.5806 C   0  0  0  0  0  0  0  0  0  0  0  0
    4.9775    0.6761    0.6317 C   0  0  0  0  0  0  0  0  0  0  0  0
    2.6262    0.4226    1.7261 C   0  0  0  0  0  0  0  0  0  0  0  0
    2.9224   -0.8401    2.5534 C   0  0  0  0  0  0  0  0  0  0  0  0
    2.8859   -2.1123    1.7081 C   0  0  0  0  0  0  0  0  0  0  0  0
    1.5423   -2.4780    1.4848 O   0  0  0  0  0  0  0  0  0  0  0  0
    1.3709   -3.3903    0.4366 C   0  0  0  0  0  0  0  0  0  0  0  0
    2.7281    1.6997    2.5836 C   0  0  0  0  0  0  0  0  0  0  0  0
    1.6530    1.8820    3.6486 C   0  0  0  0  0  0  0  0  0  0  0  0
    2.0173    2.9993    4.4321 O   0  0  0  0  0  0  0  0  0  0  0  0
    1.0811    3.2945    5.4330 C   0  0  0  0  0  0  0  0  0  0  0  0
    1.3104    0.3123    0.9865 C   0  0  0  0  0  0  0  0  0  0  0  0
    0.0503    0.0756    1.4935 C   0  0  0  0  0  0  0  0  0  0  0  0
   -1.0008   -0.0221    0.5912 C   0  0  0  0  0  0  0  0  0  0  0  0
   -0.7991    0.1081   -0.7908 C   0  0  0  0  0  0  0  0  0  0  0  0
    0.4618    0.3252   -1.3017 C   0  0  0  0  0  0  0  0  0  0  0  0
    1.5140    0.4263   -0.3994 C   0  0  0  0  0  0  0  0  0  0  0  0
   -2.0964   -0.1098   -1.5539 C   0  0  0  0  0  0  0  0  0  0  0  0
   -2.3899    1.1417   -2.4145 C   0  0  0  0  0  0  0  0  0  0  0  0
   -3.2663    1.0024   -3.6569 C   0  0  0  0  0  0  0  0  0  0  0  0
   -4.6063    0.7213   -3.3204 O   0  0  0  0  0  0  0  0  0  0  0  0
   -5.4614    0.7115   -4.4308 C   0  0  0  0  0  0  0  0  0  0  0  0
   -1.9042   -1.4083   -2.3697 C   0  0  0  0  0  0  0  0  0  0  0  0
   -3.1809   -2.1930   -2.6898 C   0  0  0  0  0  0  0  0  0  0  0  0
   -2.9299   -3.3280   -3.4967 O   0  0  0  0  0  0  0  0  0  0  0  0
   -2.7757   -3.0528   -4.8629 C   0  0  0  0  0  0  0  0  0  0  0  0
   -3.0805   -0.2750   -0.4125 C   0  0  0  0  0  0  0  0  0  0  0  0
   -4.4506   -0.3907   -0.4544 C   0  0  0  0  0  0  0  0  0  0  0  0
   -5.1718   -0.5237    0.7353 C   0  0  0  0  0  0  0  0  0  0  0  0
   -6.6350   -0.6368    0.6902 C   0  0  0  0  0  0  0  0  0  0  0  0
   -7.3243   -1.4908    1.5443 C   0  0  0  0  0  0  0  0  0  0  0  0
   -8.7026   -1.5927    1.4950 C   0  0  0  0  0  0  0  0  0  0  0  0
   -9.4511   -0.8427    0.5959 C   0  0  0  0  0  0  0  0  0  0  0  0
  -10.9657   -0.9254    0.5050 C   0  0  0  0  0  0  0  0  0  0  0  0
  -11.3416   -1.4336   -0.8965 C   0  0  0  0  0  0  0  0  0  0  0  0
  -11.5689   -1.8953    1.5249 C   0  0  0  0  0  0  0  0  0  0  0  0
  -11.5790    0.4767    0.7078 C   0  0  0  0  0  0  0  0  0  0  0  0
  -11.1653    1.1503    2.0115 C   0  0  0  0  0  0  0  0  0  0  0  0
   -8.7551    0.0099   -0.2592 C   0  0  0  0  0  0  0  0  0  0  0  0
   -7.3802    0.1123   -0.2182 C   0  0  0  0  0  0  0  0  0  0  0  0
   -4.4933   -0.5361    1.9538 C   0  0  0  0  0  0  0  0  0  0  0  0
   -3.1197   -0.3903    2.0069 C   0  0  0  0  0  0  0  0  0  0  0  0
   -2.4135   -0.2510    0.8227 C   0  0  0  0  0  0  0  0  0  0  0  0
    7.8452    1.8128   -1.3452 C   0  0  0  0  0  0  0  0  0  0  0  0
    9.2235    1.9149   -1.3036 C   0  0  0  0  0  0  0  0  0  0  0  0
   13.7948   -1.2458   -1.4428 H   0  0  0  0  0  0  0  0  0  0  0  0
   14.0143    0.4909   -1.6116 H   0  0  0  0  0  0  0  0  0  0  0  0
   13.9451   -0.2417   -0.0053 H   0  0  0  0  0  0  0  0  0  0  0  0
   11.5876   -0.9547   -0.4488 H   0  0  0  0  0  0  0  0  0  0  0  0
   11.6499   -0.1779   -2.0253 H   0  0  0  0  0  0  0  0  0  0  0  0
   11.5895    3.3210   -0.8082 H   0  0  0  0  0  0  0  0  0  0  0  0
   13.1239    2.4864   -0.9970 H   0  0  0  0  0  0  0  0  0  0  0  0
   11.8772    2.2940   -2.2239 H   0  0  0  0  0  0  0  0  0  0  0  0
   11.7694    0.4255    1.6454 H   0  0  0  0  0  0  0  0  0  0  0  0
   11.3955    2.1470    1.5617 H   0  0  0  0  0  0  0  0  0  0  0  0
   13.0059    1.5709    1.1406 H   0  0  0  0  0  0  0  0  0  0  0  0
    9.8401   -0.4001    1.0573 H   0  0  0  0  0  0  0  0  0  0  0  0
    7.4236   -0.5802    0.9844 H   0  0  0  0  0  0  0  0  0  0  0  0
    5.5863    0.9370   -2.6886 H   0  0  0  0  0  0  0  0  0  0  0  0
    3.1335    0.7499   -2.7829 H   0  0  0  0  0  0  0  0  0  0  0  0
    5.4995    0.6728    1.5773 H   0  0  0  0  0  0  0  0  0  0  0  0
    3.9088   -0.7437    3.0095 H   0  0  0  0  0  0  0  0  0  0  0  0
    2.1803   -0.9502    3.3432 H   0  0  0  0  0  0  0  0  0  0  0  0
    3.4088   -2.9287    2.2337 H   0  0  0  0  0  0  0  0  0  0  0  0
    3.3996   -1.9458    0.7498 H   0  0  0  0  0  0  0  0  0  0  0  0
    1.8967   -4.3340    0.6325 H   0  0  0  0  0  0  0  0  0  0  0  0
    1.7343   -2.9756   -0.5129 H   0  0  0  0  0  0  0  0  0  0  0  0
    0.3018   -3.5796    0.3628 H   0  0  0  0  0  0  0  0  0  0  0  0
    3.6969    1.7103    3.0864 H   0  0  0  0  0  0  0  0  0  0  0  0
    2.6936    2.5682    1.9224 H   0  0  0  0  0  0  0  0  0  0  0  0
    0.6723    2.0589    3.1830 H   0  0  0  0  0  0  0  0  0  0  0  0
    1.5766    0.9923    4.2924 H   0  0  0  0  0  0  0  0  0  0  0  0
    1.4577    4.1644    5.9672 H   0  0  0  0  0  0  0  0  0  0  0  0
    0.9679    2.4568    6.1339 H   0  0  0  0  0  0  0  0  0  0  0  0
    0.0974    3.5260    5.0045 H   0  0  0  0  0  0  0  0  0  0  0  0
   -0.1201   -0.0657    2.5485 H   0  0  0  0  0  0  0  0  0  0  0  0
    0.6403    0.3988   -2.3650 H   0  0  0  0  0  0  0  0  0  0  0  0
   -1.4341    1.5393   -2.7638 H   0  0  0  0  0  0  0  0  0  0  0  0
   -2.8441    1.8923   -1.7646 H   0  0  0  0  0  0  0  0  0  0  0  0
   -3.2273    1.9591   -4.2052 H   0  0  0  0  0  0  0  0  0  0  0  0
   -2.8778    0.2250   -4.3322 H   0  0  0  0  0  0  0  0  0  0  0  0
   -5.1571   -0.0454   -5.1666 H   0  0  0  0  0  0  0  0  0  0  0  0
   -6.4565    0.4734   -4.0596 H   0  0  0  0  0  0  0  0  0  0  0  0
   -5.4801    1.6897   -4.9282 H   0  0  0  0  0  0  0  0  0  0  0  0
   -1.3805   -1.1572   -3.2945 H   0  0  0  0  0  0  0  0  0  0  0  0
   -1.2518   -2.0765   -1.8013 H   0  0  0  0  0  0  0  0  0  0  0  0
   -3.6045   -2.5915   -1.7649 H   0  0  0  0  0  0  0  0  0  0  0  0
   -3.9309   -1.5544   -3.1674 H   0  0  0  0  0  0  0  0  0  0  0  0
   -3.6436   -2.5080   -5.2585 H   0  0  0  0  0  0  0  0  0  0  0  0
   -2.6998   -4.0157   -5.3651 H   0  0  0  0  0  0  0  0  0  0  0  0
   -1.8696   -2.4723   -5.0741 H   0  0  0  0  0  0  0  0  0  0  0  0
   -4.9719   -0.3735   -1.3958 H   0  0  0  0  0  0  0  0  0  0  0  0
   -6.7742   -2.1027    2.2448 H   0  0  0  0  0  0  0  0  0  0  0  0
   -9.1856   -2.2753    2.1754 H   0  0  0  0  0  0  0  0  0  0  0  0
  -12.4226   -1.5173   -0.9890 H   0  0  0  0  0  0  0  0  0  0  0  0
  -10.9844   -0.7607   -1.6713 H   0  0  0  0  0  0  0  0  0  0  0  0
  -10.9030   -2.4143   -1.0696 H   0  0  0  0  0  0  0  0  0  0  0  0
  -11.2245   -2.9105    1.3408 H   0  0  0  0  0  0  0  0  0  0  0  0
  -11.3116   -1.6171    2.5430 H   0  0  0  0  0  0  0  0  0  0  0  0
  -12.6536   -1.8875    1.4353 H   0  0  0  0  0  0  0  0  0  0  0  0
  -11.2844    1.1196   -0.1234 H   0  0  0  0  0  0  0  0  0  0  0  0
  -12.6676    0.3869    0.6775 H   0  0  0  0  0  0  0  0  0  0  0  0
  -11.5339    0.6015    2.8740 H   0  0  0  0  0  0  0  0  0  0  0  0
  -11.5735    2.1579    2.0547 H   0  0  0  0  0  0  0  0  0  0  0  0
  -10.0816    1.2149    2.0804 H   0  0  0  0  0  0  0  0  0  0  0  0
   -9.2940    0.6155   -0.9731 H   0  0  0  0  0  0  0  0  0  0  0  0
   -6.8744    0.7957   -0.8847 H   0  0  0  0  0  0  0  0  0  0  0  0
   -5.0564   -0.6243    2.8717 H   0  0  0  0  0  0  0  0  0  0  0  0
   -2.6069   -0.3748    2.9574 H   0  0  0  0  0  0  0  0  0  0  0  0
    7.2870    2.4499   -2.0162 H   0  0  0  0  0  0  0  0  0  0  0  0
    9.6987    2.6226   -1.9635 H   0  0  0  0  0  0  0  0  0  0  0  0
  1  2  1  0  0  0  0
  2  3  1  0  0  0  0
  3  4  1  0  0  0  0
  3  5  1  0  0  0  0
  3  6  1  0  0  0  0
  6  7  2  0  0  0  0
  7  8  1  0  0  0  0
  8  9  2  0  0  0  0
  9 10  1  0  0  0  0
 10 11  2  0  0  0  0
 11 12  1  0  0  0  0
 12 13  2  0  0  0  0
 13 14  1  0  0  0  0
 14 15  2  0  0  0  0
 14 16  1  0  0  0  0
 16 17  1  0  0  0  0
 17 18  1  0  0  0  0
 18 19  1  0  0  0  0
 19 20  1  0  0  0  0
 16 21  1  0  0  0  0
 21 22  1  0  0  0  0
 22 23  1  0  0  0  0
 23 24  1  0  0  0  0
 16 25  1  0  0  0  0
 25 26  2  0  0  0  0
 26 27  1  0  0  0  0
 27 28  2  0  0  0  0
 28 29  1  0  0  0  0
 29 30  2  0  0  0  0
 28 31  1  0  0  0  0
 31 32  1  0  0  0  0
 32 33  1  0  0  0  0
 33 34  1  0  0  0  0
 34 35  1  0  0  0  0
 31 36  1  0  0  0  0
 36 37  1  0  0  0  0
 37 38  1  0  0  0  0
 38 39  1  0  0  0  0
 31 40  1  0  0  0  0
 40 41  2  0  0  0  0
 41 42  1  0  0  0  0
 42 43  1  0  0  0  0
 43 44  2  0  0  0  0
 44 45  1  0  0  0  0
 45 46  2  0  0  0  0
 46 47  1  0  0  0  0
 47 48  1  0  0  0  0
 47 49  1  0  0  0  0
 47 50  1  0  0  0  0
 50 51  1  0  0  0  0
 46 52  1  0  0  0  0
 52 53  2  0  0  0  0
 42 54  2  0  0  0  0
 54 55  1  0  0  0  0
 55 56  2  0  0  0  0
  9 57  1  0  0  0  0
 57 58  2  0  0  0  0
 58  6  1  0  0  0  0
 15 10  1  0  0  0  0
 30 25  1  0  0  0  0
 56 40  1  0  0  0  0
 30 13  1  0  0  0  0
 53 43  1  0  0  0  0
 56 27  1  0  0  0  0
  1 59  1  0  0  0  0
  1 60  1  0  0  0  0
  1 61  1  0  0  0  0
  2 62  1  0  0  0  0
  2 63  1  0  0  0  0
  4 64  1  0  0  0  0
  4 65  1  0  0  0  0
  4 66  1  0  0  0  0
  5 67  1  0  0  0  0
  5 68  1  0  0  0  0
  5 69  1  0  0  0  0
  7 70  1  0  0  0  0
  8 71  1  0  0  0  0
 11 72  1  0  0  0  0
 12 73  1  0  0  0  0
 15 74  1  0  0  0  0
 17 75  1  0  0  0  0
 17 76  1  0  0  0  0
 18 77  1  0  0  0  0
 18 78  1  0  0  0  0
 20 79  1  0  0  0  0
 20 80  1  0  0  0  0
 20 81  1  0  0  0  0
 21 82  1  0  0  0  0
 21 83  1  0  0  0  0
 22 84  1  0  0  0  0
 22 85  1  0  0  0  0
 24 86  1  0  0  0  0
 24 87  1  0  0  0  0
 24 88  1  0  0  0  0
 26 89  1  0  0  0  0
 29 90  1  0  0  0  0
 32 91  1  0  0  0  0
 32 92  1  0  0  0  0
 33 93  1  0  0  0  0
 33 94  1  0  0  0  0
 35 95  1  0  0  0  0
 35 96  1  0  0  0  0
 35 97  1  0  0  0  0
 36 98  1  0  0  0  0
 36 99  1  0  0  0  0
 37100  1  0  0  0  0
 37101  1  0  0  0  0
 39102  1  0  0  0  0
 39103  1  0  0  0  0
 39104  1  0  0  0  0
 41105  1  0  0  0  0
 44106  1  0  0  0  0
 45107  1  0  0  0  0
 48108  1  0  0  0  0
 48109  1  0  0  0  0
 48110  1  0  0  0  0
 49111  1  0  0  0  0
 49112  1  0  0  0  0
 49113  1  0  0  0  0
 50114  1  0  0  0  0
 50115  1  0  0  0  0
 51116  1  0  0  0  0
 51117  1  0  0  0  0
 51118  1  0  0  0  0
 52119  1  0  0  0  0
 53120  1  0  0  0  0
 54121  1  0  0  0  0
 55122  1  0  0  0  0
 57123  1  0  0  0  0
 58124  1  0  0  0  0
M  END
