
  xtb     03022212243D
 energy: -44.150959678515 gnorm: 0.000143072372 xtb: 6.4.1 (afa7bdf)
 27 29  0     0  0            999 V2000
   -4.6814    0.3057   -1.0672 C   0  0  0  0  0  0  0  0  0  0  0  0
   -4.5583    0.0050    0.2795 C   0  0  0  0  0  0  0  0  0  0  0  0
   -3.3091   -0.1536    0.8484 C   0  0  0  0  0  0  0  0  0  0  0  0
   -2.1594   -0.0124    0.0724 C   0  0  0  0  0  0  0  0  0  0  0  0
   -0.8240   -0.1718    0.6355 C   0  0  0  0  0  0  0  0  0  0  0  0
   -0.5088   -0.4681    1.9392 C   0  0  0  0  0  0  0  0  0  0  0  0
    1.1829   -0.5630    2.1668 S   0  0  0  0  0  0  0  0  0  0  0  0
    1.3782   -0.1893    0.4531 C   0  0  0  0  0  0  0  0  0  0  0  0
    2.6833   -0.0885   -0.1583 C   0  0  0  0  0  0  0  0  0  0  0  0
    2.7988    0.2090   -1.5186 C   0  0  0  0  0  0  0  0  0  0  0  0
    4.0657    0.2969   -2.0669 C   0  0  0  0  0  0  0  0  0  0  0  0
    5.1781    0.1146   -1.3741 N   0  0  0  0  0  0  0  0  0  0  0  0
    5.0689   -0.1670   -0.0868 C   0  0  0  0  0  0  0  0  0  0  0  0
    3.8568   -0.2806    0.5713 C   0  0  0  0  0  0  0  0  0  0  0  0
    0.2622   -0.0237   -0.1642 N   0  0  0  0  0  0  0  0  0  0  0  0
   -2.2931    0.2905   -1.2826 C   0  0  0  0  0  0  0  0  0  0  0  0
   -3.5444    0.4478   -1.8457 C   0  0  0  0  0  0  0  0  0  0  0  0
   -5.6601    0.4285   -1.5068 H   0  0  0  0  0  0  0  0  0  0  0  0
   -5.4422   -0.1068    0.8906 H   0  0  0  0  0  0  0  0  0  0  0  0
   -3.2301   -0.3877    1.8990 H   0  0  0  0  0  0  0  0  0  0  0  0
   -1.1627   -0.6347    2.7703 H   0  0  0  0  0  0  0  0  0  0  0  0
    1.9113    0.3630   -2.1098 H   0  0  0  0  0  0  0  0  0  0  0  0
    4.2032    0.5251   -3.1157 H   0  0  0  0  0  0  0  0  0  0  0  0
    6.0028   -0.3082    0.4413 H   0  0  0  0  0  0  0  0  0  0  0  0
    3.8176   -0.5124    1.6252 H   0  0  0  0  0  0  0  0  0  0  0  0
   -1.4010    0.3989   -1.8792 H   0  0  0  0  0  0  0  0  0  0  0  0
   -3.6350    0.6823   -2.8962 H   0  0  0  0  0  0  0  0  0  0  0  0
  1  2  2  0  0  0  0
  2  3  1  0  0  0  0
  3  4  2  0  0  0  0
  4  5  1  0  0  0  0
  5  6  2  0  0  0  0
  6  7  1  0  0  0  0
  7  8  1  0  0  0  0
  8  9  1  0  0  0  0
  9 10  2  0  0  0  0
 10 11  1  0  0  0  0
 11 12  2  0  0  0  0
 12 13  1  0  0  0  0
 13 14  2  0  0  0  0
  8 15  2  0  0  0  0
  4 16  1  0  0  0  0
 16 17  2  0  0  0  0
 17  1  1  0  0  0  0
 15  5  1  0  0  0  0
 14  9  1  0  0  0  0
  1 18  1  0  0  0  0
  2 19  1  0  0  0  0
  3 20  1  0  0  0  0
  6 21  1  0  0  0  0
 10 22  1  0  0  0  0
 11 23  1  0  0  0  0
 13 24  1  0  0  0  0
 14 25  1  0  0  0  0
 16 26  1  0  0  0  0
 17 27  1  0  0  0  0
M  END
