
  xtb     03022214393D
 energy: -29.820456480787 gnorm: 0.000096117825 xtb: 6.4.1 (afa7bdf)
 18 19  0     0  0            999 V2000
    3.3866   -0.7525   -0.4623 O   0  0  0  0  0  0  0  0  0  0  0  0
    2.1379   -0.2672   -0.2387 C   0  0  0  0  0  0  0  0  0  0  0  0
    2.0344    1.0955    0.1179 C   0  0  0  0  0  0  0  0  0  0  0  0
    0.8167    1.6578    0.3587 C   0  0  0  0  0  0  0  0  0  0  0  0
   -0.3634    0.8886    0.2561 C   0  0  0  0  0  0  0  0  0  0  0  0
   -1.5479    1.4794    0.5015 N   0  0  0  0  0  0  0  0  0  0  0  0
   -2.6339    0.7653    0.4056 C   0  0  0  0  0  0  0  0  0  0  0  0
   -2.6487   -0.5976    0.0584 C   0  0  0  0  0  0  0  0  0  0  0  0
   -1.4580   -1.2218   -0.1961 C   0  0  0  0  0  0  0  0  0  0  0  0
   -0.2596   -0.4840   -0.1030 C   0  0  0  0  0  0  0  0  0  0  0  0
    1.0096   -1.0407   -0.3465 C   0  0  0  0  0  0  0  0  0  0  0  0
    3.3419   -1.6872   -0.6977 H   0  0  0  0  0  0  0  0  0  0  0  0
    2.9471    1.6657    0.1909 H   0  0  0  0  0  0  0  0  0  0  0  0
    0.7212    2.6966    0.6318 H   0  0  0  0  0  0  0  0  0  0  0  0
   -3.5608    1.2856    0.6124 H   0  0  0  0  0  0  0  0  0  0  0  0
   -3.5863   -1.1287   -0.0026 H   0  0  0  0  0  0  0  0  0  0  0  0
   -1.4185   -2.2684   -0.4667 H   0  0  0  0  0  0  0  0  0  0  0  0
    1.0820   -2.0864   -0.6196 H   0  0  0  0  0  0  0  0  0  0  0  0
  1  2  1  0  0  0  0
  2  3  2  0  0  0  0
  3  4  1  0  0  0  0
  4  5  2  0  0  0  0
  5  6  1  0  0  0  0
  6  7  2  0  0  0  0
  7  8  1  0  0  0  0
  8  9  2  0  0  0  0
  9 10  1  0  0  0  0
 10 11  2  0  0  0  0
 11  2  1  0  0  0  0
 10  5  1  0  0  0  0
  1 12  1  0  0  0  0
  3 13  1  0  0  0  0
  4 14  1  0  0  0  0
  7 15  1  0  0  0  0
  8 16  1  0  0  0  0
  9 17  1  0  0  0  0
 11 18  1  0  0  0  0
M  END
