
  xtb     03022213193D
 energy: -77.367874577078 gnorm: 0.000152171494 xtb: 6.4.1 (afa7bdf)
 62 65  0     0  0            999 V2000
    6.7106   -0.4341    1.5735 C   0  0  0  0  0  0  0  0  0  0  0  0
    6.0201   -0.1077    0.2552 C   0  0  0  0  0  0  0  0  0  0  0  0
    5.2240   -1.2984   -0.2717 C   0  0  0  0  0  0  0  0  0  0  0  0
    4.5157   -0.9860   -1.5981 C   0  0  0  0  0  0  0  0  0  0  0  0
    3.4637    0.0753   -1.4362 C   0  0  0  0  0  0  0  0  0  0  0  0
    3.7590    1.3749   -1.8251 C   0  0  0  0  0  0  0  0  0  0  0  0
    2.8516    2.4008   -1.6666 C   0  0  0  0  0  0  0  0  0  0  0  0
    1.5997    2.1598   -1.1028 C   0  0  0  0  0  0  0  0  0  0  0  0
    0.6514    3.2038   -0.9203 C   0  0  0  0  0  0  0  0  0  0  0  0
   -0.5620    2.9609   -0.3773 C   0  0  0  0  0  0  0  0  0  0  0  0
   -0.9455    1.6504    0.0360 C   0  0  0  0  0  0  0  0  0  0  0  0
   -2.2048    1.3788    0.5952 C   0  0  0  0  0  0  0  0  0  0  0  0
   -3.2578    2.4388    0.7549 C   0  0  0  0  0  0  0  0  0  0  0  0
   -3.9925    2.6844   -0.5689 C   0  0  0  0  0  0  0  0  0  0  0  0
   -5.0550    3.7723   -0.4384 C   0  0  0  0  0  0  0  0  0  0  0  0
   -5.7793    4.0147   -1.7568 C   0  0  0  0  0  0  0  0  0  0  0  0
   -2.5082    0.0810    0.9730 C   0  0  0  0  0  0  0  0  0  0  0  0
   -1.6212   -0.9734    0.8353 C   0  0  0  0  0  0  0  0  0  0  0  0
   -2.0630   -2.3491    1.2468 C   0  0  0  0  0  0  0  0  0  0  0  0
   -2.5562   -3.1444    0.0310 C   0  0  0  0  0  0  0  0  0  0  0  0
   -3.0363   -4.5507    0.3891 C   0  0  0  0  0  0  0  0  0  0  0  0
   -1.9042   -5.4793    0.8134 C   0  0  0  0  0  0  0  0  0  0  0  0
   -0.3569   -0.7291    0.2751 C   0  0  0  0  0  0  0  0  0  0  0  0
    0.6083   -1.7594    0.0821 C   0  0  0  0  0  0  0  0  0  0  0  0
    1.8210   -1.5123   -0.4626 C   0  0  0  0  0  0  0  0  0  0  0  0
    2.2057   -0.2028   -0.8730 C   0  0  0  0  0  0  0  0  0  0  0  0
    1.2615    0.8444   -0.6991 C   0  0  0  0  0  0  0  0  0  0  0  0
   -0.0142    0.5888   -0.1262 C   0  0  0  0  0  0  0  0  0  0  0  0
    5.9769   -0.7015    2.3309 H   0  0  0  0  0  0  0  0  0  0  0  0
    7.2766    0.4224    1.9322 H   0  0  0  0  0  0  0  0  0  0  0  0
    7.3955   -1.2708    1.4504 H   0  0  0  0  0  0  0  0  0  0  0  0
    5.3470    0.7403    0.3982 H   0  0  0  0  0  0  0  0  0  0  0  0
    6.7702    0.1826   -0.4846 H   0  0  0  0  0  0  0  0  0  0  0  0
    4.4848   -1.5892    0.4774 H   0  0  0  0  0  0  0  0  0  0  0  0
    5.9003   -2.1438   -0.4230 H   0  0  0  0  0  0  0  0  0  0  0  0
    4.0735   -1.9021   -1.9950 H   0  0  0  0  0  0  0  0  0  0  0  0
    5.2610   -0.6428   -2.3192 H   0  0  0  0  0  0  0  0  0  0  0  0
    4.7251    1.5849   -2.2629 H   0  0  0  0  0  0  0  0  0  0  0  0
    3.1059    3.4042   -1.9777 H   0  0  0  0  0  0  0  0  0  0  0  0
    0.9283    4.2025   -1.2287 H   0  0  0  0  0  0  0  0  0  0  0  0
   -1.2580    3.7750   -0.2510 H   0  0  0  0  0  0  0  0  0  0  0  0
   -3.9833    2.1146    1.5045 H   0  0  0  0  0  0  0  0  0  0  0  0
   -2.8187    3.3735    1.1083 H   0  0  0  0  0  0  0  0  0  0  0  0
   -4.4624    1.7521   -0.8913 H   0  0  0  0  0  0  0  0  0  0  0  0
   -3.2713    2.9694   -1.3379 H   0  0  0  0  0  0  0  0  0  0  0  0
   -4.5829    4.7010   -0.1085 H   0  0  0  0  0  0  0  0  0  0  0  0
   -5.7794    3.4813    0.3261 H   0  0  0  0  0  0  0  0  0  0  0  0
   -5.0758    4.3250   -2.5265 H   0  0  0  0  0  0  0  0  0  0  0  0
   -6.5309    4.7928   -1.6443 H   0  0  0  0  0  0  0  0  0  0  0  0
   -6.2734    3.1057   -2.0932 H   0  0  0  0  0  0  0  0  0  0  0  0
   -3.4824   -0.1173    1.4002 H   0  0  0  0  0  0  0  0  0  0  0  0
   -1.2471   -2.8803    1.7366 H   0  0  0  0  0  0  0  0  0  0  0  0
   -2.8816   -2.2645    1.9653 H   0  0  0  0  0  0  0  0  0  0  0  0
   -3.3799   -2.5921   -0.4283 H   0  0  0  0  0  0  0  0  0  0  0  0
   -1.7562   -3.2113   -0.7094 H   0  0  0  0  0  0  0  0  0  0  0  0
   -3.7755   -4.4882    1.1913 H   0  0  0  0  0  0  0  0  0  0  0  0
   -3.5331   -4.9798   -0.4845 H   0  0  0  0  0  0  0  0  0  0  0  0
   -1.4392   -5.1372    1.7347 H   0  0  0  0  0  0  0  0  0  0  0  0
   -2.2836   -6.4847    0.9825 H   0  0  0  0  0  0  0  0  0  0  0  0
   -1.1421   -5.5279    0.0381 H   0  0  0  0  0  0  0  0  0  0  0  0
    0.3629   -2.7675    0.3772 H   0  0  0  0  0  0  0  0  0  0  0  0
    2.5134   -2.3291   -0.5942 H   0  0  0  0  0  0  0  0  0  0  0  0
  1  2  1  0  0  0  0
  2  3  1  0  0  0  0
  3  4  1  0  0  0  0
  4  5  1  0  0  0  0
  5  6  2  0  0  0  0
  6  7  1  0  0  0  0
  7  8  2  0  0  0  0
  8  9  1  0  0  0  0
  9 10  2  0  0  0  0
 10 11  1  0  0  0  0
 11 12  2  0  0  0  0
 12 13  1  0  0  0  0
 13 14  1  0  0  0  0
 14 15  1  0  0  0  0
 15 16  1  0  0  0  0
 12 17  1  0  0  0  0
 17 18  2  0  0  0  0
 18 19  1  0  0  0  0
 19 20  1  0  0  0  0
 20 21  1  0  0  0  0
 21 22  1  0  0  0  0
 18 23  1  0  0  0  0
 23 24  2  0  0  0  0
 24 25  1  0  0  0  0
 25 26  2  0  0  0  0
 26 27  1  0  0  0  0
 27 28  2  0  0  0  0
 26  5  1  0  0  0  0
 27  8  1  0  0  0  0
 28 11  1  0  0  0  0
 28 23  1  0  0  0  0
  1 29  1  0  0  0  0
  1 30  1  0  0  0  0
  1 31  1  0  0  0  0
  2 32  1  0  0  0  0
  2 33  1  0  0  0  0
  3 34  1  0  0  0  0
  3 35  1  0  0  0  0
  4 36  1  0  0  0  0
  4 37  1  0  0  0  0
  6 38  1  0  0  0  0
  7 39  1  0  0  0  0
  9 40  1  0  0  0  0
 10 41  1  0  0  0  0
 13 42  1  0  0  0  0
 13 43  1  0  0  0  0
 14 44  1  0  0  0  0
 14 45  1  0  0  0  0
 15 46  1  0  0  0  0
 15 47  1  0  0  0  0
 16 48  1  0  0  0  0
 16 49  1  0  0  0  0
 16 50  1  0  0  0  0
 17 51  1  0  0  0  0
 19 52  1  0  0  0  0
 19 53  1  0  0  0  0
 20 54  1  0  0  0  0
 20 55  1  0  0  0  0
 21 56  1  0  0  0  0
 21 57  1  0  0  0  0
 22 58  1  0  0  0  0
 22 59  1  0  0  0  0
 22 60  1  0  0  0  0
 24 61  1  0  0  0  0
 25 62  1  0  0  0  0
M  END
