
  xtb     03022212073D
 energy: -157.956150077981 gnorm: 0.000105721602 xtb: 6.4.1 (afa7bdf)
124131  0     0  0            999 V2000
    3.4150   -2.6508    3.3682 C   0  0  0  0  0  0  0  0  0  0  0  0
    3.6521   -3.0526    1.9172 C   0  0  0  0  0  0  0  0  0  0  0  0
    4.7552   -2.2763    1.1951 C   0  0  0  0  0  0  0  0  0  0  0  0
    4.4840   -0.8094    0.7616 C   0  0  0  0  0  0  0  0  0  0  0  0
    4.5232    0.1670    1.9484 C   0  0  0  0  0  0  0  0  0  0  0  0
    4.7498    1.6355    1.5787 C   0  0  0  0  0  0  0  0  0  0  0  0
    3.5775    2.2776    0.8472 C   0  0  0  0  0  0  0  0  0  0  0  0
    5.5362   -0.5031   -0.2858 C   0  0  0  0  0  0  0  0  0  0  0  0
    6.9004   -0.4106   -0.1331 C   0  0  0  0  0  0  0  0  0  0  0  0
    7.7028   -0.1680   -1.2510 C   0  0  0  0  0  0  0  0  0  0  0  0
    9.1612   -0.0699   -1.1077 C   0  0  0  0  0  0  0  0  0  0  0  0
    9.8936    0.8841   -1.8097 C   0  0  0  0  0  0  0  0  0  0  0  0
   11.2642    0.9635   -1.6749 C   0  0  0  0  0  0  0  0  0  0  0  0
   11.9683    0.0961   -0.8424 C   0  0  0  0  0  0  0  0  0  0  0  0
   13.4798    0.2195   -0.7361 C   0  0  0  0  0  0  0  0  0  0  0  0
   14.0908   -0.8080    0.2206 C   0  0  0  0  0  0  0  0  0  0  0  0
   13.8335    1.6217   -0.2205 C   0  0  0  0  0  0  0  0  0  0  0  0
   14.0971    0.0052   -2.1254 C   0  0  0  0  0  0  0  0  0  0  0  0
   11.2330   -0.8539   -0.1440 C   0  0  0  0  0  0  0  0  0  0  0  0
    9.8583   -0.9343   -0.2706 C   0  0  0  0  0  0  0  0  0  0  0  0
    7.1078   -0.0327   -2.5057 C   0  0  0  0  0  0  0  0  0  0  0  0
    5.7388   -0.1377   -2.6681 C   0  0  0  0  0  0  0  0  0  0  0  0
    4.9507   -0.3748   -1.5536 C   0  0  0  0  0  0  0  0  0  0  0  0
    3.5136   -0.5132   -1.4118 C   0  0  0  0  0  0  0  0  0  0  0  0
    2.4984   -0.4322   -2.3505 C   0  0  0  0  0  0  0  0  0  0  0  0
    1.1874   -0.5538   -1.9281 C   0  0  0  0  0  0  0  0  0  0  0  0
    0.8749   -0.7389   -0.5816 C   0  0  0  0  0  0  0  0  0  0  0  0
   -0.5245   -0.8709   -0.1563 C   0  0  0  0  0  0  0  0  0  0  0  0
   -0.8796   -1.8150    0.8086 C   0  0  0  0  0  0  0  0  0  0  0  0
   -2.1937   -1.9815    1.2029 C   0  0  0  0  0  0  0  0  0  0  0  0
   -3.1692   -1.1843    0.6256 C   0  0  0  0  0  0  0  0  0  0  0  0
   -2.8250   -0.2238   -0.3329 C   0  0  0  0  0  0  0  0  0  0  0  0
   -1.5157   -0.0679   -0.7263 C   0  0  0  0  0  0  0  0  0  0  0  0
   -4.0532    0.5193   -0.8291 C   0  0  0  0  0  0  0  0  0  0  0  0
   -3.8811    2.0011   -0.4257 C   0  0  0  0  0  0  0  0  0  0  0  0
   -4.9605    2.9750   -0.8879 C   0  0  0  0  0  0  0  0  0  0  0  0
   -4.6075    4.4015   -0.4800 C   0  0  0  0  0  0  0  0  0  0  0  0
   -4.1203    0.3295   -2.3656 C   0  0  0  0  0  0  0  0  0  0  0  0
   -5.4951    0.2837   -3.0382 C   0  0  0  0  0  0  0  0  0  0  0  0
   -6.1144   -1.1095   -3.0179 C   0  0  0  0  0  0  0  0  0  0  0  0
   -5.1484   -0.1503   -0.0206 C   0  0  0  0  0  0  0  0  0  0  0  0
   -6.5036    0.0986    0.0253 C   0  0  0  0  0  0  0  0  0  0  0  0
   -7.3258   -0.6435    0.8776 C   0  0  0  0  0  0  0  0  0  0  0  0
   -8.7718   -0.3868    0.9032 C   0  0  0  0  0  0  0  0  0  0  0  0
   -9.2742    0.9114    0.8676 C   0  0  0  0  0  0  0  0  0  0  0  0
  -10.6337    1.1450    0.8902 C   0  0  0  0  0  0  0  0  0  0  0  0
  -11.5537    0.1001    0.9421 C   0  0  0  0  0  0  0  0  0  0  0  0
  -13.0418    0.4108    0.9605 C   0  0  0  0  0  0  0  0  0  0  0  0
  -13.4074    1.1828   -0.3152 C   0  0  0  0  0  0  0  0  0  0  0  0
  -13.3593    1.2665    2.1951 C   0  0  0  0  0  0  0  0  0  0  0  0
  -13.9081   -0.8503    1.0193 C   0  0  0  0  0  0  0  0  0  0  0  0
  -11.0475   -1.1936    0.9748 C   0  0  0  0  0  0  0  0  0  0  0  0
   -9.6857   -1.4334    0.9588 C   0  0  0  0  0  0  0  0  0  0  0  0
   -6.7682   -1.6264    1.6930 C   0  0  0  0  0  0  0  0  0  0  0  0
   -5.4087   -1.8718    1.6764 C   0  0  0  0  0  0  0  0  0  0  0  0
   -4.6034   -1.1342    0.8240 C   0  0  0  0  0  0  0  0  0  0  0  0
    1.9061   -0.8152    0.3592 C   0  0  0  0  0  0  0  0  0  0  0  0
    3.2152   -0.7203   -0.0545 C   0  0  0  0  0  0  0  0  0  0  0  0
    2.9518   -1.6721    3.4462 H   0  0  0  0  0  0  0  0  0  0  0  0
    2.7560   -3.3716    3.8488 H   0  0  0  0  0  0  0  0  0  0  0  0
    4.3537   -2.6298    3.9175 H   0  0  0  0  0  0  0  0  0  0  0  0
    2.7224   -2.9777    1.3518 H   0  0  0  0  0  0  0  0  0  0  0  0
    3.9503   -4.1050    1.9045 H   0  0  0  0  0  0  0  0  0  0  0  0
    5.6561   -2.2818    1.8136 H   0  0  0  0  0  0  0  0  0  0  0  0
    4.9865   -2.8311    0.2805 H   0  0  0  0  0  0  0  0  0  0  0  0
    3.5853    0.0970    2.4996 H   0  0  0  0  0  0  0  0  0  0  0  0
    5.3284   -0.1414    2.6193 H   0  0  0  0  0  0  0  0  0  0  0  0
    5.6503    1.7286    0.9688 H   0  0  0  0  0  0  0  0  0  0  0  0
    4.9237    2.1851    2.5082 H   0  0  0  0  0  0  0  0  0  0  0  0
    3.7498    3.3460    0.7333 H   0  0  0  0  0  0  0  0  0  0  0  0
    2.6530    2.1369    1.4037 H   0  0  0  0  0  0  0  0  0  0  0  0
    3.4494    1.8474   -0.1415 H   0  0  0  0  0  0  0  0  0  0  0  0
    7.3553   -0.4978    0.8430 H   0  0  0  0  0  0  0  0  0  0  0  0
    9.3795    1.5842   -2.4527 H   0  0  0  0  0  0  0  0  0  0  0  0
   11.7914    1.7223   -2.2341 H   0  0  0  0  0  0  0  0  0  0  0  0
   13.7031   -0.6831    1.2290 H   0  0  0  0  0  0  0  0  0  0  0  0
   13.8916   -1.8230   -0.1156 H   0  0  0  0  0  0  0  0  0  0  0  0
   15.1700   -0.6724    0.2569 H   0  0  0  0  0  0  0  0  0  0  0  0
   13.4784    2.3943   -0.8968 H   0  0  0  0  0  0  0  0  0  0  0  0
   13.3810    1.7886    0.7549 H   0  0  0  0  0  0  0  0  0  0  0  0
   14.9123    1.7242   -0.1231 H   0  0  0  0  0  0  0  0  0  0  0  0
   13.8322   -0.9790   -2.5064 H   0  0  0  0  0  0  0  0  0  0  0  0
   15.1816    0.0734   -2.0686 H   0  0  0  0  0  0  0  0  0  0  0  0
   13.7462    0.7501   -2.8342 H   0  0  0  0  0  0  0  0  0  0  0  0
   11.7238   -1.5545    0.5121 H   0  0  0  0  0  0  0  0  0  0  0  0
    9.3208   -1.6986    0.2725 H   0  0  0  0  0  0  0  0  0  0  0  0
    7.7358    0.1336   -3.3690 H   0  0  0  0  0  0  0  0  0  0  0  0
    5.2950   -0.0410   -3.6481 H   0  0  0  0  0  0  0  0  0  0  0  0
    2.7246   -0.2778   -3.3954 H   0  0  0  0  0  0  0  0  0  0  0  0
    0.3882   -0.5191   -2.6543 H   0  0  0  0  0  0  0  0  0  0  0  0
   -0.1136   -2.4472    1.2342 H   0  0  0  0  0  0  0  0  0  0  0  0
   -2.4532   -2.7254    1.9416 H   0  0  0  0  0  0  0  0  0  0  0  0
   -1.2415    0.6763   -1.4600 H   0  0  0  0  0  0  0  0  0  0  0  0
   -2.9207    2.3423   -0.8217 H   0  0  0  0  0  0  0  0  0  0  0  0
   -3.8142    2.0425    0.6656 H   0  0  0  0  0  0  0  0  0  0  0  0
   -5.0630    2.9308   -1.9730 H   0  0  0  0  0  0  0  0  0  0  0  0
   -5.9179    2.7094   -0.4401 H   0  0  0  0  0  0  0  0  0  0  0  0
   -4.5116    4.4770    0.6012 H   0  0  0  0  0  0  0  0  0  0  0  0
   -3.6639    4.7066   -0.9277 H   0  0  0  0  0  0  0  0  0  0  0  0
   -5.3804    5.0944   -0.8051 H   0  0  0  0  0  0  0  0  0  0  0  0
   -3.6099   -0.6065   -2.6086 H   0  0  0  0  0  0  0  0  0  0  0  0
   -3.5334    1.1365   -2.8102 H   0  0  0  0  0  0  0  0  0  0  0  0
   -6.1759    0.9966   -2.5775 H   0  0  0  0  0  0  0  0  0  0  0  0
   -5.3696    0.5864   -4.0817 H   0  0  0  0  0  0  0  0  0  0  0  0
   -7.0953   -1.0948   -3.4883 H   0  0  0  0  0  0  0  0  0  0  0  0
   -5.4844   -1.8101   -3.5626 H   0  0  0  0  0  0  0  0  0  0  0  0
   -6.2279   -1.4724   -2.0003 H   0  0  0  0  0  0  0  0  0  0  0  0
   -6.9664    0.8350   -0.6116 H   0  0  0  0  0  0  0  0  0  0  0  0
   -8.5910    1.7486    0.8462 H   0  0  0  0  0  0  0  0  0  0  0  0
  -10.9787    2.1683    0.8686 H   0  0  0  0  0  0  0  0  0  0  0  0
  -14.4730    1.4024   -0.3283 H   0  0  0  0  0  0  0  0  0  0  0  0
  -12.8658    2.1225   -0.3790 H   0  0  0  0  0  0  0  0  0  0  0  0
  -13.1661    0.5900   -1.1952 H   0  0  0  0  0  0  0  0  0  0  0  0
  -14.4244    1.4847    2.2362 H   0  0  0  0  0  0  0  0  0  0  0  0
  -13.0803    0.7348    3.1026 H   0  0  0  0  0  0  0  0  0  0  0  0
  -12.8197    2.2092    2.1738 H   0  0  0  0  0  0  0  0  0  0  0  0
  -13.7053   -1.4228    1.9215 H   0  0  0  0  0  0  0  0  0  0  0  0
  -13.7398   -1.4819    0.1500 H   0  0  0  0  0  0  0  0  0  0  0  0
  -14.9590   -0.5678    1.0303 H   0  0  0  0  0  0  0  0  0  0  0  0
  -11.7114   -2.0421    1.0111 H   0  0  0  0  0  0  0  0  0  0  0  0
   -9.3273   -2.4529    0.9676 H   0  0  0  0  0  0  0  0  0  0  0  0
   -7.4072   -2.1837    2.3625 H   0  0  0  0  0  0  0  0  0  0  0  0
   -4.9795   -2.6245    2.3213 H   0  0  0  0  0  0  0  0  0  0  0  0
    1.6562   -0.9142    1.4050 H   0  0  0  0  0  0  0  0  0  0  0  0
  1  2  1  0  0  0  0
  2  3  1  0  0  0  0
  3  4  1  0  0  0  0
  4  5  1  0  0  0  0
  5  6  1  0  0  0  0
  6  7  1  0  0  0  0
  4  8  1  0  0  0  0
  8  9  2  0  0  0  0
  9 10  1  0  0  0  0
 10 11  1  0  0  0  0
 11 12  2  0  0  0  0
 12 13  1  0  0  0  0
 13 14  2  0  0  0  0
 14 15  1  0  0  0  0
 15 16  1  0  0  0  0
 15 17  1  0  0  0  0
 15 18  1  0  0  0  0
 14 19  1  0  0  0  0
 19 20  2  0  0  0  0
 10 21  2  0  0  0  0
 21 22  1  0  0  0  0
 22 23  2  0  0  0  0
 23 24  1  0  0  0  0
 24 25  2  0  0  0  0
 25 26  1  0  0  0  0
 26 27  2  0  0  0  0
 27 28  1  0  0  0  0
 28 29  2  0  0  0  0
 29 30  1  0  0  0  0
 30 31  2  0  0  0  0
 31 32  1  0  0  0  0
 32 33  2  0  0  0  0
 32 34  1  0  0  0  0
 34 35  1  0  0  0  0
 35 36  1  0  0  0  0
 36 37  1  0  0  0  0
 34 38  1  0  0  0  0
 38 39  1  0  0  0  0
 39 40  1  0  0  0  0
 34 41  1  0  0  0  0
 41 42  2  0  0  0  0
 42 43  1  0  0  0  0
 43 44  1  0  0  0  0
 44 45  2  0  0  0  0
 45 46  1  0  0  0  0
 46 47  2  0  0  0  0
 47 48  1  0  0  0  0
 48 49  1  0  0  0  0
 48 50  1  0  0  0  0
 48 51  1  0  0  0  0
 47 52  1  0  0  0  0
 52 53  2  0  0  0  0
 43 54  2  0  0  0  0
 54 55  1  0  0  0  0
 55 56  2  0  0  0  0
 27 57  1  0  0  0  0
 57 58  2  0  0  0  0
 58  4  1  0  0  0  0
 23  8  1  0  0  0  0
 58 24  1  0  0  0  0
 20 11  1  0  0  0  0
 33 28  1  0  0  0  0
 56 41  1  0  0  0  0
 56 31  1  0  0  0  0
 53 44  1  0  0  0  0
  1 59  1  0  0  0  0
  1 60  1  0  0  0  0
  1 61  1  0  0  0  0
  2 62  1  0  0  0  0
  2 63  1  0  0  0  0
  3 64  1  0  0  0  0
  3 65  1  0  0  0  0
  5 66  1  0  0  0  0
  5 67  1  0  0  0  0
  6 68  1  0  0  0  0
  6 69  1  0  0  0  0
  7 70  1  0  0  0  0
  7 71  1  0  0  0  0
  7 72  1  0  0  0  0
  9 73  1  0  0  0  0
 12 74  1  0  0  0  0
 13 75  1  0  0  0  0
 16 76  1  0  0  0  0
 16 77  1  0  0  0  0
 16 78  1  0  0  0  0
 17 79  1  0  0  0  0
 17 80  1  0  0  0  0
 17 81  1  0  0  0  0
 18 82  1  0  0  0  0
 18 83  1  0  0  0  0
 18 84  1  0  0  0  0
 19 85  1  0  0  0  0
 20 86  1  0  0  0  0
 21 87  1  0  0  0  0
 22 88  1  0  0  0  0
 25 89  1  0  0  0  0
 26 90  1  0  0  0  0
 29 91  1  0  0  0  0
 30 92  1  0  0  0  0
 33 93  1  0  0  0  0
 35 94  1  0  0  0  0
 35 95  1  0  0  0  0
 36 96  1  0  0  0  0
 36 97  1  0  0  0  0
 37 98  1  0  0  0  0
 37 99  1  0  0  0  0
 37100  1  0  0  0  0
 38101  1  0  0  0  0
 38102  1  0  0  0  0
 39103  1  0  0  0  0
 39104  1  0  0  0  0
 40105  1  0  0  0  0
 40106  1  0  0  0  0
 40107  1  0  0  0  0
 42108  1  0  0  0  0
 45109  1  0  0  0  0
 46110  1  0  0  0  0
 49111  1  0  0  0  0
 49112  1  0  0  0  0
 49113  1  0  0  0  0
 50114  1  0  0  0  0
 50115  1  0  0  0  0
 50116  1  0  0  0  0
 51117  1  0  0  0  0
 51118  1  0  0  0  0
 51119  1  0  0  0  0
 52120  1  0  0  0  0
 53121  1  0  0  0  0
 54122  1  0  0  0  0
 55123  1  0  0  0  0
 57124  1  0  0  0  0
M  END
