
  xtb     03022215473D
 energy: -45.732262027132 gnorm: 0.000298547462 xtb: 6.4.1 (afa7bdf)
 30 32  0     0  0            999 V2000
   -2.4515    1.5680   -1.0441 C   0  0  0  0  0  0  0  0  0  0  0  0
   -2.6098    0.5559   -0.0294 N   0  0  0  0  0  0  0  0  0  0  0  0
   -3.9485    0.3877    0.4751 C   0  0  0  0  0  0  0  0  0  0  0  0
   -1.6234   -0.3380    0.2438 C   0  0  0  0  0  0  0  0  0  0  0  0
   -1.9348   -1.6548    0.6609 C   0  0  0  0  0  0  0  0  0  0  0  0
   -0.9666   -2.6136    0.8287 C   0  0  0  0  0  0  0  0  0  0  0  0
    0.3810   -2.3347    0.5951 C   0  0  0  0  0  0  0  0  0  0  0  0
    0.7164   -1.0502    0.2413 C   0  0  0  0  0  0  0  0  0  0  0  0
   -0.2576   -0.0340    0.1018 C   0  0  0  0  0  0  0  0  0  0  0  0
    0.4347    1.2584   -0.0466 C   0  0  0  0  0  0  0  0  0  0  0  0
   -0.0170    2.3857    0.0366 O   0  0  0  0  0  0  0  0  0  0  0  0
    1.8774    0.9134   -0.1699 C   0  0  0  0  0  0  0  0  0  0  0  0
    2.9607    1.7367   -0.3920 C   0  0  0  0  0  0  0  0  0  0  0  0
    4.2250    1.1593   -0.4415 C   0  0  0  0  0  0  0  0  0  0  0  0
    4.3865   -0.2043   -0.2611 C   0  0  0  0  0  0  0  0  0  0  0  0
    3.2952   -1.0345   -0.0255 C   0  0  0  0  0  0  0  0  0  0  0  0
    2.0379   -0.4676    0.0158 C   0  0  0  0  0  0  0  0  0  0  0  0
   -1.6572    1.2812   -1.7327 H   0  0  0  0  0  0  0  0  0  0  0  0
   -2.1920    2.5397   -0.6171 H   0  0  0  0  0  0  0  0  0  0  0  0
   -3.3829    1.6570   -1.6063 H   0  0  0  0  0  0  0  0  0  0  0  0
   -4.5686   -0.2315   -0.1855 H   0  0  0  0  0  0  0  0  0  0  0  0
   -4.4122    1.3706    0.5606 H   0  0  0  0  0  0  0  0  0  0  0  0
   -3.9267   -0.0617    1.4667 H   0  0  0  0  0  0  0  0  0  0  0  0
   -2.9663   -1.9308    0.8118 H   0  0  0  0  0  0  0  0  0  0  0  0
   -1.2584   -3.6101    1.1278 H   0  0  0  0  0  0  0  0  0  0  0  0
    1.1314   -3.1006    0.7114 H   0  0  0  0  0  0  0  0  0  0  0  0
    2.8222    2.7991   -0.5243 H   0  0  0  0  0  0  0  0  0  0  0  0
    5.0908    1.7802   -0.6196 H   0  0  0  0  0  0  0  0  0  0  0  0
    5.3782   -0.6316   -0.3011 H   0  0  0  0  0  0  0  0  0  0  0  0
    3.4358   -2.0954    0.1191 H   0  0  0  0  0  0  0  0  0  0  0  0
  1  2  1  0  0  0  0
  2  3  1  0  0  0  0
  2  4  1  0  0  0  0
  4  5  2  0  0  0  0
  5  6  1  0  0  0  0
  6  7  2  0  0  0  0
  7  8  1  0  0  0  0
  8  9  2  0  0  0  0
  9 10  1  0  0  0  0
 10 11  2  0  0  0  0
 10 12  1  0  0  0  0
 12 13  2  0  0  0  0
 13 14  1  0  0  0  0
 14 15  2  0  0  0  0
 15 16  1  0  0  0  0
 16 17  2  0  0  0  0
  9  4  1  0  0  0  0
 17 12  1  0  0  0  0
 17  8  1  0  0  0  0
  1 18  1  0  0  0  0
  1 19  1  0  0  0  0
  1 20  1  0  0  0  0
  3 21  1  0  0  0  0
  3 22  1  0  0  0  0
  3 23  1  0  0  0  0
  5 24  1  0  0  0  0
  6 25  1  0  0  0  0
  7 26  1  0  0  0  0
 13 27  1  0  0  0  0
 14 28  1  0  0  0  0
 15 29  1  0  0  0  0
 16 30  1  0  0  0  0
M  END
