
  xtb     03022216033D
 energy: -73.973285715114 gnorm: 0.000228941808 xtb: 6.4.1 (afa7bdf)
 39 42  0     0  0            999 V2000
   -6.7437    0.8552   -0.3799 C   0  0  0  0  0  0  0  0  0  0  0  0
   -6.3581   -0.1985    0.6526 C   0  0  0  0  0  0  0  0  0  0  0  0
   -5.1772    0.1428    1.3607 O   0  0  0  0  0  0  0  0  0  0  0  0
   -3.9711   -0.0194    0.7880 C   0  0  0  0  0  0  0  0  0  0  0  0
   -2.8742    0.4069    1.5594 C   0  0  0  0  0  0  0  0  0  0  0  0
   -1.5922    0.2830    1.0962 C   0  0  0  0  0  0  0  0  0  0  0  0
   -1.3290   -0.2746   -0.1647 C   0  0  0  0  0  0  0  0  0  0  0  0
   -0.0279   -0.4543   -0.7552 C   0  0  0  0  0  0  0  0  0  0  0  0
    1.2108   -0.0648   -0.1035 C   0  0  0  0  0  0  0  0  0  0  0  0
    2.3957   -0.2487   -0.6128 N   0  0  0  0  0  0  0  0  0  0  0  0
    3.2371    0.2621    0.3243 C   0  0  0  0  0  0  0  0  0  0  0  0
    4.6841    0.2939    0.2294 C   0  0  0  0  0  0  0  0  0  0  0  0
    5.4002    0.8195    1.3088 C   0  0  0  0  0  0  0  0  0  0  0  0
    6.7774    0.8779    1.2871 C   0  0  0  0  0  0  0  0  0  0  0  0
    7.4694    0.4094    0.1795 C   0  0  0  0  0  0  0  0  0  0  0  0
    6.7802   -0.1124   -0.8984 C   0  0  0  0  0  0  0  0  0  0  0  0
    5.3930   -0.1730   -0.8809 C   0  0  0  0  0  0  0  0  0  0  0  0
    4.5952   -0.8295   -2.2545 Cl  0  0  0  0  0  0  0  0  0  0  0  0
    2.5872    0.7391    1.3639 N   0  0  0  0  0  0  0  0  0  0  0  0
    1.2779    0.5321    1.0962 O   0  0  0  0  0  0  0  0  0  0  0  0
    0.0802   -1.0166   -1.9890 C   0  0  0  0  0  0  0  0  0  0  0  0
   -1.0769   -1.4479   -2.7478 C   0  0  0  0  0  0  0  0  0  0  0  0
   -1.0503   -1.9511   -3.8414 O   0  0  0  0  0  0  0  0  0  0  0  0
   -2.2968   -1.2569   -2.1536 O   0  0  0  0  0  0  0  0  0  0  0  0
   -2.4298   -0.7032   -0.9291 C   0  0  0  0  0  0  0  0  0  0  0  0
   -3.7338   -0.5752   -0.4602 C   0  0  0  0  0  0  0  0  0  0  0  0
   -7.6839    0.5784   -0.8483 H   0  0  0  0  0  0  0  0  0  0  0  0
   -6.8621    1.8207    0.1052 H   0  0  0  0  0  0  0  0  0  0  0  0
   -5.9811    0.9482   -1.1490 H   0  0  0  0  0  0  0  0  0  0  0  0
   -7.1266   -0.2583    1.4279 H   0  0  0  0  0  0  0  0  0  0  0  0
   -6.2553   -1.1859    0.1888 H   0  0  0  0  0  0  0  0  0  0  0  0
   -3.0746    0.8339    2.5286 H   0  0  0  0  0  0  0  0  0  0  0  0
   -0.7745    0.6196    1.7102 H   0  0  0  0  0  0  0  0  0  0  0  0
    4.8395    1.1769    2.1580 H   0  0  0  0  0  0  0  0  0  0  0  0
    7.3135    1.2865    2.1296 H   0  0  0  0  0  0  0  0  0  0  0  0
    8.5477    0.4505    0.1545 H   0  0  0  0  0  0  0  0  0  0  0  0
    7.3084   -0.4781   -1.7647 H   0  0  0  0  0  0  0  0  0  0  0  0
    1.0441   -1.1608   -2.4486 H   0  0  0  0  0  0  0  0  0  0  0  0
   -4.5222   -0.9275   -1.1042 H   0  0  0  0  0  0  0  0  0  0  0  0
  1  2  1  0  0  0  0
  2  3  1  0  0  0  0
  3  4  1  0  0  0  0
  4  5  2  0  0  0  0
  5  6  1  0  0  0  0
  6  7  2  0  0  0  0
  7  8  1  0  0  0  0
  8  9  1  0  0  0  0
  9 10  2  0  0  0  0
 10 11  1  0  0  0  0
 11 12  1  0  0  0  0
 12 13  2  0  0  0  0
 13 14  1  0  0  0  0
 14 15  2  0  0  0  0
 15 16  1  0  0  0  0
 16 17  2  0  0  0  0
 17 18  1  0  0  0  0
 11 19  2  0  0  0  0
 19 20  1  0  0  0  0
  8 21  2  0  0  0  0
 21 22  1  0  0  0  0
 22 23  2  0  0  0  0
 22 24  1  0  0  0  0
 24 25  1  0  0  0  0
 25 26  2  0  0  0  0
 26  4  1  0  0  0  0
 25  7  1  0  0  0  0
 20  9  1  0  0  0  0
 17 12  1  0  0  0  0
  1 27  1  0  0  0  0
  1 28  1  0  0  0  0
  1 29  1  0  0  0  0
  2 30  1  0  0  0  0
  2 31  1  0  0  0  0
  5 32  1  0  0  0  0
  6 33  1  0  0  0  0
 13 34  1  0  0  0  0
 14 35  1  0  0  0  0
 15 36  1  0  0  0  0
 16 37  1  0  0  0  0
 21 38  1  0  0  0  0
 26 39  1  0  0  0  0
M  END
