
  xtb     03022215373D
 energy: -19.316691667949 gnorm: 0.000200220123 xtb: 6.4.1 (afa7bdf)
 14 14  0     0  0            999 V2000
    2.2909   -0.0933   -0.1182 N   0  0  0  0  0  0  0  0  0  0  0  0
    0.9118   -0.0307   -0.0576 C   0  0  0  0  0  0  0  0  0  0  0  0
    0.2779    1.0046    0.6299 C   0  0  0  0  0  0  0  0  0  0  0  0
   -1.0975    1.0247    0.7505 C   0  0  0  0  0  0  0  0  0  0  0  0
   -1.8670    0.0193    0.1890 C   0  0  0  0  0  0  0  0  0  0  0  0
   -1.2447   -1.0109   -0.4964 C   0  0  0  0  0  0  0  0  0  0  0  0
    0.1301   -1.0390   -0.6218 C   0  0  0  0  0  0  0  0  0  0  0  0
    2.6782   -0.6688   -0.8485 H   0  0  0  0  0  0  0  0  0  0  0  0
    2.7826    0.7724    0.0348 H   0  0  0  0  0  0  0  0  0  0  0  0
    0.8759    1.7913    1.0685 H   0  0  0  0  0  0  0  0  0  0  0  0
   -1.5731    1.8343    1.2852 H   0  0  0  0  0  0  0  0  0  0  0  0
   -2.9422    0.0392    0.2834 H   0  0  0  0  0  0  0  0  0  0  0  0
   -1.8359   -1.7989   -0.9404 H   0  0  0  0  0  0  0  0  0  0  0  0
    0.6130   -1.8439   -1.1583 H   0  0  0  0  0  0  0  0  0  0  0  0
  1  2  1  0  0  0  0
  2  3  2  0  0  0  0
  3  4  1  0  0  0  0
  4  5  2  0  0  0  0
  5  6  1  0  0  0  0
  6  7  2  0  0  0  0
  7  2  1  0  0  0  0
  1  8  1  0  0  0  0
  1  9  1  0  0  0  0
  3 10  1  0  0  0  0
  4 11  1  0  0  0  0
  5 12  1  0  0  0  0
  6 13  1  0  0  0  0
  7 14  1  0  0  0  0
M  END
