
  xtb     03022213563D
 energy: -69.019588795943 gnorm: 0.000052801675 xtb: 6.4.1 (afa7bdf)
 46 51  0     0  0            999 V2000
    3.5622   -3.1521   -0.1654 C   0  0  0  0  0  0  0  0  0  0  0  0
    2.2001   -3.4419   -0.2262 C   0  0  0  0  0  0  0  0  0  0  0  0
    1.2810   -2.4214   -0.1580 C   0  0  0  0  0  0  0  0  0  0  0  0
    1.6708   -1.0799   -0.0266 C   0  0  0  0  0  0  0  0  0  0  0  0
    3.0540   -0.8107    0.0341 C   0  0  0  0  0  0  0  0  0  0  0  0
    3.9880   -1.8517   -0.0364 C   0  0  0  0  0  0  0  0  0  0  0  0
    3.5042    0.4758    0.1620 N   0  0  0  0  0  0  0  0  0  0  0  0
    2.7196    1.5947    0.2431 C   0  0  0  0  0  0  0  0  0  0  0  0
    3.3349    2.8461    0.3713 C   0  0  0  0  0  0  0  0  0  0  0  0
    2.5701    3.9851    0.4538 C   0  0  0  0  0  0  0  0  0  0  0  0
    1.1794    3.9013    0.4105 C   0  0  0  0  0  0  0  0  0  0  0  0
    0.5728    2.6738    0.2842 C   0  0  0  0  0  0  0  0  0  0  0  0
    1.3140    1.4857    0.1962 C   0  0  0  0  0  0  0  0  0  0  0  0
    0.6816    0.0932    0.0492 B   0  0  0  0  0  0  0  0  0  0  0  0
   -0.8739   -0.1172   -0.0327 C   0  0  0  0  0  0  0  0  0  0  0  0
   -1.5375   -0.0364   -1.2669 C   0  0  0  0  0  0  0  0  0  0  0  0
   -0.8258    0.2354   -2.4643 C   0  0  0  0  0  0  0  0  0  0  0  0
   -1.4646    0.3141   -3.6635 C   0  0  0  0  0  0  0  0  0  0  0  0
   -2.8604    0.1241   -3.7423 C   0  0  0  0  0  0  0  0  0  0  0  0
   -3.5808   -0.1397   -2.6187 C   0  0  0  0  0  0  0  0  0  0  0  0
   -2.9517   -0.2292   -1.3503 C   0  0  0  0  0  0  0  0  0  0  0  0
   -3.6719   -0.4996   -0.1907 C   0  0  0  0  0  0  0  0  0  0  0  0
   -3.0382   -0.5848    1.0452 C   0  0  0  0  0  0  0  0  0  0  0  0
   -3.7567   -0.8592    2.2373 C   0  0  0  0  0  0  0  0  0  0  0  0
   -3.1207   -0.9383    3.4374 C   0  0  0  0  0  0  0  0  0  0  0  0
   -1.7251   -0.7465    3.5164 C   0  0  0  0  0  0  0  0  0  0  0  0
   -1.0020   -0.4810    2.3943 C   0  0  0  0  0  0  0  0  0  0  0  0
   -1.6237   -0.3910    1.1216 C   0  0  0  0  0  0  0  0  0  0  0  0
    4.2865   -3.9519   -0.2197 H   0  0  0  0  0  0  0  0  0  0  0  0
    1.8747   -4.4665   -0.3271 H   0  0  0  0  0  0  0  0  0  0  0  0
    0.2240   -2.6403   -0.2047 H   0  0  0  0  0  0  0  0  0  0  0  0
    5.0446   -1.6226    0.0112 H   0  0  0  0  0  0  0  0  0  0  0  0
    4.5060    0.6119    0.1988 H   0  0  0  0  0  0  0  0  0  0  0  0
    4.4149    2.9069    0.4045 H   0  0  0  0  0  0  0  0  0  0  0  0
    3.0494    4.9483    0.5523 H   0  0  0  0  0  0  0  0  0  0  0  0
    0.5866    4.8014    0.4760 H   0  0  0  0  0  0  0  0  0  0  0  0
   -0.5049    2.6030    0.2494 H   0  0  0  0  0  0  0  0  0  0  0  0
    0.2436    0.3791   -2.3968 H   0  0  0  0  0  0  0  0  0  0  0  0
   -0.9103    0.5223   -4.5675 H   0  0  0  0  0  0  0  0  0  0  0  0
   -3.3483    0.1902   -4.7043 H   0  0  0  0  0  0  0  0  0  0  0  0
   -4.6508   -0.2873   -2.6704 H   0  0  0  0  0  0  0  0  0  0  0  0
   -4.7419   -0.6461   -0.2512 H   0  0  0  0  0  0  0  0  0  0  0  0
   -4.8260   -1.0042    2.1681 H   0  0  0  0  0  0  0  0  0  0  0  0
   -3.6764   -1.1478    4.3403 H   0  0  0  0  0  0  0  0  0  0  0  0
   -1.2390   -0.8129    4.4793 H   0  0  0  0  0  0  0  0  0  0  0  0
    0.0675   -0.3321    2.4473 H   0  0  0  0  0  0  0  0  0  0  0  0
  1  2  2  0  0  0  0
  2  3  1  0  0  0  0
  3  4  2  0  0  0  0
  4  5  1  0  0  0  0
  5  6  2  0  0  0  0
  5  7  1  0  0  0  0
  7  8  1  0  0  0  0
  8  9  2  0  0  0  0
  9 10  1  0  0  0  0
 10 11  2  0  0  0  0
 11 12  1  0  0  0  0
 12 13  2  0  0  0  0
 13 14  1  0  0  0  0
 14 15  1  0  0  0  0
 15 16  1  0  0  0  0
 16 17  2  0  0  0  0
 17 18  1  0  0  0  0
 18 19  2  0  0  0  0
 19 20  1  0  0  0  0
 20 21  2  0  0  0  0
 21 22  1  0  0  0  0
 22 23  2  0  0  0  0
 23 24  1  0  0  0  0
 24 25  2  0  0  0  0
 25 26  1  0  0  0  0
 26 27  2  0  0  0  0
 27 28  1  0  0  0  0
  6  1  1  0  0  0  0
 13  8  1  0  0  0  0
 28 15  2  0  0  0  0
 14  4  1  0  0  0  0
 21 16  1  0  0  0  0
 28 23  1  0  0  0  0
  1 29  1  0  0  0  0
  2 30  1  0  0  0  0
  3 31  1  0  0  0  0
  6 32  1  0  0  0  0
  7 33  1  0  0  0  0
  9 34  1  0  0  0  0
 10 35  1  0  0  0  0
 11 36  1  0  0  0  0
 12 37  1  0  0  0  0
 17 38  1  0  0  0  0
 18 39  1  0  0  0  0
 19 40  1  0  0  0  0
 20 41  1  0  0  0  0
 22 42  1  0  0  0  0
 24 43  1  0  0  0  0
 25 44  1  0  0  0  0
 26 45  1  0  0  0  0
 27 46  1  0  0  0  0
M  END
