
  xtb     03022212203D
 energy: -77.957762202002 gnorm: 0.000563206443 xtb: 6.4.1 (afa7bdf)
 48 51  0     0  0            999 V2000
    0.4013    5.4475   -3.5639 C   0  0  0  0  0  0  0  0  0  0  0  0
   -0.4886    4.3779   -3.7644 O   0  0  0  0  0  0  0  0  0  0  0  0
   -0.5040    3.3624   -2.8550 C   0  0  0  0  0  0  0  0  0  0  0  0
    0.3040    3.2898   -1.7253 C   0  0  0  0  0  0  0  0  0  0  0  0
    0.2082    2.2045   -0.8728 C   0  0  0  0  0  0  0  0  0  0  0  0
   -0.6848    1.1694   -1.1275 C   0  0  0  0  0  0  0  0  0  0  0  0
   -0.8154    0.0261   -0.2364 C   0  0  0  0  0  0  0  0  0  0  0  0
   -2.0139   -0.5864   -0.0775 N   0  0  0  0  0  0  0  0  0  0  0  0
   -1.8523   -1.5357    0.8196 C   0  0  0  0  0  0  0  0  0  0  0  0
   -2.8988   -2.4185    1.2739 C   0  0  0  0  0  0  0  0  0  0  0  0
   -2.6842   -3.3988    2.2476 C   0  0  0  0  0  0  0  0  0  0  0  0
   -3.7136   -4.2213    2.6510 C   0  0  0  0  0  0  0  0  0  0  0  0
   -4.9829   -4.0800    2.0867 C   0  0  0  0  0  0  0  0  0  0  0  0
   -6.0348   -4.9242    2.5029 C   0  0  0  0  0  0  0  0  0  0  0  0
   -6.8852   -5.6163    2.8402 N   0  0  0  0  0  0  0  0  0  0  0  0
   -5.2071   -3.1017    1.1132 C   0  0  0  0  0  0  0  0  0  0  0  0
   -4.1754   -2.2836    0.7154 C   0  0  0  0  0  0  0  0  0  0  0  0
   -0.5598   -1.5576    1.2573 N   0  0  0  0  0  0  0  0  0  0  0  0
    0.1287   -0.5808    0.5898 C   0  0  0  0  0  0  0  0  0  0  0  0
    1.5557   -0.3937    0.7693 C   0  0  0  0  0  0  0  0  0  0  0  0
    2.3712   -0.0404   -0.3035 C   0  0  0  0  0  0  0  0  0  0  0  0
    3.7341    0.1189   -0.1441 C   0  0  0  0  0  0  0  0  0  0  0  0
    4.3199   -0.0778    1.1035 C   0  0  0  0  0  0  0  0  0  0  0  0
    5.6459    0.0538    1.3753 O   0  0  0  0  0  0  0  0  0  0  0  0
    6.5126    0.4366    0.3351 C   0  0  0  0  0  0  0  0  0  0  0  0
    3.5103   -0.4404    2.1817 C   0  0  0  0  0  0  0  0  0  0  0  0
    2.1531   -0.5983    2.0160 C   0  0  0  0  0  0  0  0  0  0  0  0
   -1.5084    1.2604   -2.2508 C   0  0  0  0  0  0  0  0  0  0  0  0
   -1.4172    2.3355   -3.1040 C   0  0  0  0  0  0  0  0  0  0  0  0
    0.2379    6.1278   -4.3984 H   0  0  0  0  0  0  0  0  0  0  0  0
    0.1960    5.9725   -2.6251 H   0  0  0  0  0  0  0  0  0  0  0  0
    1.4436    5.1115   -3.5713 H   0  0  0  0  0  0  0  0  0  0  0  0
    1.0070    4.0745   -1.4925 H   0  0  0  0  0  0  0  0  0  0  0  0
    0.8302    2.1724    0.0095 H   0  0  0  0  0  0  0  0  0  0  0  0
   -1.7102   -3.5242    2.6980 H   0  0  0  0  0  0  0  0  0  0  0  0
   -3.5473   -4.9782    3.4037 H   0  0  0  0  0  0  0  0  0  0  0  0
   -6.1917   -2.9969    0.6820 H   0  0  0  0  0  0  0  0  0  0  0  0
   -4.3226   -1.5201   -0.0314 H   0  0  0  0  0  0  0  0  0  0  0  0
   -0.1487   -2.2008    1.9130 H   0  0  0  0  0  0  0  0  0  0  0  0
    1.9291    0.1025   -1.2777 H   0  0  0  0  0  0  0  0  0  0  0  0
    4.3301    0.3904   -1.0009 H   0  0  0  0  0  0  0  0  0  0  0  0
    6.2433    1.4165   -0.0720 H   0  0  0  0  0  0  0  0  0  0  0  0
    7.5032    0.4935    0.7835 H   0  0  0  0  0  0  0  0  0  0  0  0
    6.5234   -0.3026   -0.4724 H   0  0  0  0  0  0  0  0  0  0  0  0
    3.9748   -0.5893    3.1436 H   0  0  0  0  0  0  0  0  0  0  0  0
    1.5449   -0.8573    2.8713 H   0  0  0  0  0  0  0  0  0  0  0  0
   -2.2174    0.4695   -2.4380 H   0  0  0  0  0  0  0  0  0  0  0  0
   -2.0448    2.4111   -3.9780 H   0  0  0  0  0  0  0  0  0  0  0  0
  1  2  1  0  0  0  0
  2  3  1  0  0  0  0
  3  4  2  0  0  0  0
  4  5  1  0  0  0  0
  5  6  2  0  0  0  0
  6  7  1  0  0  0  0
  7  8  1  0  0  0  0
  8  9  2  0  0  0  0
  9 10  1  0  0  0  0
 10 11  2  0  0  0  0
 11 12  1  0  0  0  0
 12 13  2  0  0  0  0
 13 14  1  0  0  0  0
 14 15  3  0  0  0  0
 13 16  1  0  0  0  0
 16 17  2  0  0  0  0
  9 18  1  0  0  0  0
 18 19  1  0  0  0  0
 19 20  1  0  0  0  0
 20 21  2  0  0  0  0
 21 22  1  0  0  0  0
 22 23  2  0  0  0  0
 23 24  1  0  0  0  0
 24 25  1  0  0  0  0
 23 26  1  0  0  0  0
 26 27  2  0  0  0  0
  6 28  1  0  0  0  0
 28 29  2  0  0  0  0
 29  3  1  0  0  0  0
 19  7  2  0  0  0  0
 27 20  1  0  0  0  0
 17 10  1  0  0  0  0
  1 30  1  0  0  0  0
  1 31  1  0  0  0  0
  1 32  1  0  0  0  0
  4 33  1  0  0  0  0
  5 34  1  0  0  0  0
 11 35  1  0  0  0  0
 12 36  1  0  0  0  0
 16 37  1  0  0  0  0
 17 38  1  0  0  0  0
 18 39  1  0  0  0  0
 21 40  1  0  0  0  0
 22 41  1  0  0  0  0
 25 42  1  0  0  0  0
 25 43  1  0  0  0  0
 25 44  1  0  0  0  0
 26 45  1  0  0  0  0
 27 46  1  0  0  0  0
 28 47  1  0  0  0  0
 29 48  1  0  0  0  0
M  END
