
  xtb     03022215003D
 energy: -127.715682740817 gnorm: 0.000138114603 xtb: 6.4.1 (afa7bdf)
 81 91  0     0  0            999 V2000
    6.6768    4.6795   -2.8340 C   0  0  0  0  0  0  0  0  0  0  0  0
    5.3591    4.5415   -2.4261 C   0  0  0  0  0  0  0  0  0  0  0  0
    4.9700    3.4301   -1.7042 C   0  0  0  0  0  0  0  0  0  0  0  0
    5.9019    2.4447   -1.3839 C   0  0  0  0  0  0  0  0  0  0  0  0
    5.4935    1.2674   -0.6168 C   0  0  0  0  0  0  0  0  0  0  0  0
    6.4215    0.3617   -0.3211 N   0  0  0  0  0  0  0  0  0  0  0  0
    6.0085   -0.6889    0.3823 C   0  0  0  0  0  0  0  0  0  0  0  0
    6.9929   -1.7132    0.7327 C   0  0  0  0  0  0  0  0  0  0  0  0
    8.3196   -1.5786    0.3287 C   0  0  0  0  0  0  0  0  0  0  0  0
    9.2456   -2.5478    0.6619 C   0  0  0  0  0  0  0  0  0  0  0  0
    8.8580   -3.6562    1.3988 C   0  0  0  0  0  0  0  0  0  0  0  0
    7.5392   -3.7949    1.8031 C   0  0  0  0  0  0  0  0  0  0  0  0
    6.6083   -2.8295    1.4730 C   0  0  0  0  0  0  0  0  0  0  0  0
    4.7545   -0.8651    0.7880 N   0  0  0  0  0  0  0  0  0  0  0  0
    3.8912    0.0868    0.4442 C   0  0  0  0  0  0  0  0  0  0  0  0
    2.5009   -0.0666    0.8648 C   0  0  0  0  0  0  0  0  0  0  0  0
    2.1085   -1.1859    1.5979 C   0  0  0  0  0  0  0  0  0  0  0  0
    0.7978   -1.3344    1.9957 C   0  0  0  0  0  0  0  0  0  0  0  0
   -0.1471   -0.3606    1.6714 C   0  0  0  0  0  0  0  0  0  0  0  0
   -1.4745   -0.5080    2.0802 N   0  0  0  0  0  0  0  0  0  0  0  0
   -1.8963   -0.8254    3.3581 C   0  0  0  0  0  0  0  0  0  0  0  0
   -1.1534   -1.0117    4.5147 C   0  0  0  0  0  0  0  0  0  0  0  0
   -1.8369   -1.2913    5.6828 C   0  0  0  0  0  0  0  0  0  0  0  0
   -3.2270   -1.3749    5.7101 C   0  0  0  0  0  0  0  0  0  0  0  0
   -3.9730   -1.1631    4.5681 C   0  0  0  0  0  0  0  0  0  0  0  0
   -3.3085   -0.8812    3.3818 C   0  0  0  0  0  0  0  0  0  0  0  0
   -3.7527   -0.5903    2.0480 C   0  0  0  0  0  0  0  0  0  0  0  0
   -5.0127   -0.5245    1.4605 C   0  0  0  0  0  0  0  0  0  0  0  0
   -5.0816   -0.2394    0.1166 C   0  0  0  0  0  0  0  0  0  0  0  0
   -3.9213   -0.0378   -0.6462 C   0  0  0  0  0  0  0  0  0  0  0  0
   -2.6644   -0.0995   -0.0858 C   0  0  0  0  0  0  0  0  0  0  0  0
   -2.5908   -0.3607    1.2778 C   0  0  0  0  0  0  0  0  0  0  0  0
   -4.2066    0.2417   -2.1025 C   0  0  0  0  0  0  0  0  0  0  0  0
   -5.1379    1.4306   -2.1052 C   0  0  0  0  0  0  0  0  0  0  0  0
   -4.9343    2.6231   -2.7679 C   0  0  0  0  0  0  0  0  0  0  0  0
   -5.8929    3.6222   -2.6711 C   0  0  0  0  0  0  0  0  0  0  0  0
   -7.0376    3.4254   -1.9193 C   0  0  0  0  0  0  0  0  0  0  0  0
   -7.2435    2.2261   -1.2518 C   0  0  0  0  0  0  0  0  0  0  0  0
   -6.2919    1.2320   -1.3475 C   0  0  0  0  0  0  0  0  0  0  0  0
   -6.3528   -0.1269   -0.6928 C   0  0  0  0  0  0  0  0  0  0  0  0
   -6.1984   -1.1192   -1.8202 C   0  0  0  0  0  0  0  0  0  0  0  0
   -7.0700   -2.1423   -2.1306 C   0  0  0  0  0  0  0  0  0  0  0  0
   -6.7836   -2.9710   -3.2065 C   0  0  0  0  0  0  0  0  0  0  0  0
   -5.6389   -2.7744   -3.9582 C   0  0  0  0  0  0  0  0  0  0  0  0
   -4.7607   -1.7458   -3.6467 C   0  0  0  0  0  0  0  0  0  0  0  0
   -5.0444   -0.9213   -2.5778 C   0  0  0  0  0  0  0  0  0  0  0  0
    0.2431    0.7607    0.9389 C   0  0  0  0  0  0  0  0  0  0  0  0
    1.5540    0.9033    0.5385 C   0  0  0  0  0  0  0  0  0  0  0  0
    4.2168    1.1690   -0.2576 N   0  0  0  0  0  0  0  0  0  0  0  0
    7.2251    2.5882   -1.7964 C   0  0  0  0  0  0  0  0  0  0  0  0
    7.6076    3.7019   -2.5184 C   0  0  0  0  0  0  0  0  0  0  0  0
    6.9786    5.5499   -3.3984 H   0  0  0  0  0  0  0  0  0  0  0  0
    4.6356    5.3047   -2.6729 H   0  0  0  0  0  0  0  0  0  0  0  0
    3.9495    3.3059   -1.3779 H   0  0  0  0  0  0  0  0  0  0  0  0
    8.6028   -0.7095   -0.2439 H   0  0  0  0  0  0  0  0  0  0  0  0
   10.2738   -2.4420    0.3479 H   0  0  0  0  0  0  0  0  0  0  0  0
    9.5842   -4.4126    1.6584 H   0  0  0  0  0  0  0  0  0  0  0  0
    7.2393   -4.6594    2.3772 H   0  0  0  0  0  0  0  0  0  0  0  0
    5.5779   -2.9205    1.7787 H   0  0  0  0  0  0  0  0  0  0  0  0
    2.8473   -1.9340    1.8377 H   0  0  0  0  0  0  0  0  0  0  0  0
    0.4878   -2.2121    2.5426 H   0  0  0  0  0  0  0  0  0  0  0  0
   -0.0771   -0.9287    4.5100 H   0  0  0  0  0  0  0  0  0  0  0  0
   -1.2803   -1.4443    6.5956 H   0  0  0  0  0  0  0  0  0  0  0  0
   -3.7239   -1.5980    6.6425 H   0  0  0  0  0  0  0  0  0  0  0  0
   -5.0513   -1.2088    4.5927 H   0  0  0  0  0  0  0  0  0  0  0  0
   -5.9042   -0.6981    2.0440 H   0  0  0  0  0  0  0  0  0  0  0  0
   -1.7777    0.0355   -0.6864 H   0  0  0  0  0  0  0  0  0  0  0  0
   -3.3054    0.3963   -2.6958 H   0  0  0  0  0  0  0  0  0  0  0  0
   -4.0408    2.7769   -3.3558 H   0  0  0  0  0  0  0  0  0  0  0  0
   -5.7428    4.5590   -3.1872 H   0  0  0  0  0  0  0  0  0  0  0  0
   -7.7773    4.2094   -1.8506 H   0  0  0  0  0  0  0  0  0  0  0  0
   -8.1377    2.0726   -0.6651 H   0  0  0  0  0  0  0  0  0  0  0  0
   -7.2545   -0.2819   -0.1007 H   0  0  0  0  0  0  0  0  0  0  0  0
   -7.9644   -2.2959   -1.5442 H   0  0  0  0  0  0  0  0  0  0  0  0
   -7.4605   -3.7744   -3.4576 H   0  0  0  0  0  0  0  0  0  0  0  0
   -5.4257   -3.4247   -4.7937 H   0  0  0  0  0  0  0  0  0  0  0  0
   -3.8668   -1.5925   -4.2340 H   0  0  0  0  0  0  0  0  0  0  0  0
   -0.4857    1.5234    0.7088 H   0  0  0  0  0  0  0  0  0  0  0  0
    1.8697    1.7688   -0.0222 H   0  0  0  0  0  0  0  0  0  0  0  0
    7.9353    1.8175   -1.5413 H   0  0  0  0  0  0  0  0  0  0  0  0
    8.6338    3.8115   -2.8375 H   0  0  0  0  0  0  0  0  0  0  0  0
  1  2  2  0  0  0  0
  2  3  1  0  0  0  0
  3  4  2  0  0  0  0
  4  5  1  0  0  0  0
  5  6  2  0  0  0  0
  6  7  1  0  0  0  0
  7  8  1  0  0  0  0
  8  9  2  0  0  0  0
  9 10  1  0  0  0  0
 10 11  2  0  0  0  0
 11 12  1  0  0  0  0
 12 13  2  0  0  0  0
  7 14  2  0  0  0  0
 14 15  1  0  0  0  0
 15 16  1  0  0  0  0
 16 17  2  0  0  0  0
 17 18  1  0  0  0  0
 18 19  2  0  0  0  0
 19 20  1  0  0  0  0
 20 21  1  0  0  0  0
 21 22  2  0  0  0  0
 22 23  1  0  0  0  0
 23 24  2  0  0  0  0
 24 25  1  0  0  0  0
 25 26  2  0  0  0  0
 26 27  1  0  0  0  0
 27 28  2  0  0  0  0
 28 29  1  0  0  0  0
 29 30  2  0  0  0  0
 30 31  1  0  0  0  0
 31 32  2  0  0  0  0
 30 33  1  0  0  0  0
 33 34  1  0  0  0  0
 34 35  2  0  0  0  0
 35 36  1  0  0  0  0
 36 37  2  0  0  0  0
 37 38  1  0  0  0  0
 38 39  2  0  0  0  0
 39 40  1  0  0  0  0
 40 41  1  0  0  0  0
 41 42  2  0  0  0  0
 42 43  1  0  0  0  0
 43 44  2  0  0  0  0
 44 45  1  0  0  0  0
 45 46  2  0  0  0  0
 19 47  1  0  0  0  0
 47 48  2  0  0  0  0
 15 49  2  0  0  0  0
  4 50  1  0  0  0  0
 50 51  2  0  0  0  0
 51  1  1  0  0  0  0
 49  5  1  0  0  0  0
 13  8  1  0  0  0  0
 48 16  1  0  0  0  0
 32 20  1  0  0  0  0
 46 33  1  0  0  0  0
 26 21  1  0  0  0  0
 32 27  1  0  0  0  0
 39 34  1  0  0  0  0
 46 41  1  0  0  0  0
 40 29  1  0  0  0  0
  1 52  1  0  0  0  0
  2 53  1  0  0  0  0
  3 54  1  0  0  0  0
  9 55  1  0  0  0  0
 10 56  1  0  0  0  0
 11 57  1  0  0  0  0
 12 58  1  0  0  0  0
 13 59  1  0  0  0  0
 17 60  1  0  0  0  0
 18 61  1  0  0  0  0
 22 62  1  0  0  0  0
 23 63  1  0  0  0  0
 24 64  1  0  0  0  0
 25 65  1  0  0  0  0
 28 66  1  0  0  0  0
 31 67  1  0  0  0  0
 33 68  1  0  0  0  0
 35 69  1  0  0  0  0
 36 70  1  0  0  0  0
 37 71  1  0  0  0  0
 38 72  1  0  0  0  0
 40 73  1  0  0  0  0
 42 74  1  0  0  0  0
 43 75  1  0  0  0  0
 44 76  1  0  0  0  0
 45 77  1  0  0  0  0
 47 78  1  0  0  0  0
 48 79  1  0  0  0  0
 50 80  1  0  0  0  0
 51 81  1  0  0  0  0
M  END
