
  xtb     03022216003D
 energy: -73.089619035328 gnorm: 0.000279228662 xtb: 6.4.1 (afa7bdf)
 44 47  0     0  0            999 V2000
    2.3267    3.3927   -1.7589 N   0  0  0  0  0  0  0  0  0  0  0  0
    2.1771    2.3494   -1.3047 C   0  0  0  0  0  0  0  0  0  0  0  0
    1.8953    1.0864   -0.7377 C   0  0  0  0  0  0  0  0  0  0  0  0
    2.8044    0.1088   -0.4764 C   0  0  0  0  0  0  0  0  0  0  0  0
    4.2265    0.0882   -0.6909 C   0  0  0  0  0  0  0  0  0  0  0  0
    4.9230   -1.0726   -0.3158 C   0  0  0  0  0  0  0  0  0  0  0  0
    6.2839   -1.1762   -0.4875 C   0  0  0  0  0  0  0  0  0  0  0  0
    6.9942   -0.1102   -1.0458 C   0  0  0  0  0  0  0  0  0  0  0  0
    8.3919   -0.2091   -1.2251 C   0  0  0  0  0  0  0  0  0  0  0  0
    9.5260   -0.2939   -1.3705 N   0  0  0  0  0  0  0  0  0  0  0  0
    6.3179    1.0518   -1.4250 C   0  0  0  0  0  0  0  0  0  0  0  0
    4.9552    1.1478   -1.2493 C   0  0  0  0  0  0  0  0  0  0  0  0
    0.5025    0.8672   -0.4284 C   0  0  0  0  0  0  0  0  0  0  0  0
    0.0317   -0.2214    0.0874 N   0  0  0  0  0  0  0  0  0  0  0  0
   -1.3042   -0.1870    0.2675 C   0  0  0  0  0  0  0  0  0  0  0  0
   -1.9675   -1.3896    0.7720 C   0  0  0  0  0  0  0  0  0  0  0  0
   -3.1937   -1.8101    0.2620 C   0  0  0  0  0  0  0  0  0  0  0  0
   -3.7839   -2.9641    0.7408 C   0  0  0  0  0  0  0  0  0  0  0  0
   -3.1594   -3.7121    1.7260 C   0  0  0  0  0  0  0  0  0  0  0  0
   -1.9318   -3.3081    2.2240 C   0  0  0  0  0  0  0  0  0  0  0  0
   -1.3347   -2.1565    1.7470 C   0  0  0  0  0  0  0  0  0  0  0  0
   -1.9097    1.0019   -0.1065 C   0  0  0  0  0  0  0  0  0  0  0  0
   -3.2924    1.4225    0.0272 C   0  0  0  0  0  0  0  0  0  0  0  0
   -3.8735    2.2429   -0.9396 C   0  0  0  0  0  0  0  0  0  0  0  0
   -5.1857    2.6551   -0.8108 C   0  0  0  0  0  0  0  0  0  0  0  0
   -5.9330    2.2643    0.2879 C   0  0  0  0  0  0  0  0  0  0  0  0
   -5.3576    1.4649    1.2630 C   0  0  0  0  0  0  0  0  0  0  0  0
   -4.0472    1.0470    1.1399 C   0  0  0  0  0  0  0  0  0  0  0  0
   -0.7187    2.0909   -0.7409 S   0  0  0  0  0  0  0  0  0  0  0  0
    2.3846   -0.7898   -0.0413 H   0  0  0  0  0  0  0  0  0  0  0  0
    4.3756   -1.8981    0.1153 H   0  0  0  0  0  0  0  0  0  0  0  0
    6.8098   -2.0732   -0.1955 H   0  0  0  0  0  0  0  0  0  0  0  0
    6.8708    1.8729   -1.8564 H   0  0  0  0  0  0  0  0  0  0  0  0
    4.4498    2.0513   -1.5475 H   0  0  0  0  0  0  0  0  0  0  0  0
   -3.6763   -1.2372   -0.5161 H   0  0  0  0  0  0  0  0  0  0  0  0
   -4.7343   -3.2842    0.3398 H   0  0  0  0  0  0  0  0  0  0  0  0
   -3.6261   -4.6115    2.0993 H   0  0  0  0  0  0  0  0  0  0  0  0
   -1.4381   -3.8932    2.9860 H   0  0  0  0  0  0  0  0  0  0  0  0
   -0.3770   -1.8339    2.1266 H   0  0  0  0  0  0  0  0  0  0  0  0
   -3.2899    2.5460   -1.7974 H   0  0  0  0  0  0  0  0  0  0  0  0
   -5.6257    3.2848   -1.5697 H   0  0  0  0  0  0  0  0  0  0  0  0
   -6.9583    2.5872    0.3881 H   0  0  0  0  0  0  0  0  0  0  0  0
   -5.9318    1.1698    2.1286 H   0  0  0  0  0  0  0  0  0  0  0  0
   -3.5969    0.4378    1.9090 H   0  0  0  0  0  0  0  0  0  0  0  0
  1  2  3  0  0  0  0
  2  3  1  0  0  0  0
  3  4  2  0  0  0  0
  4  5  1  0  0  0  0
  5  6  2  0  0  0  0
  6  7  1  0  0  0  0
  7  8  2  0  0  0  0
  8  9  1  0  0  0  0
  9 10  3  0  0  0  0
  8 11  1  0  0  0  0
 11 12  2  0  0  0  0
  3 13  1  0  0  0  0
 13 14  2  0  0  0  0
 14 15  1  0  0  0  0
 15 16  1  0  0  0  0
 16 17  2  0  0  0  0
 17 18  1  0  0  0  0
 18 19  2  0  0  0  0
 19 20  1  0  0  0  0
 20 21  2  0  0  0  0
 15 22  2  0  0  0  0
 22 23  1  0  0  0  0
 23 24  2  0  0  0  0
 24 25  1  0  0  0  0
 25 26  2  0  0  0  0
 26 27  1  0  0  0  0
 27 28  2  0  0  0  0
 22 29  1  0  0  0  0
 12  5  1  0  0  0  0
 29 13  1  0  0  0  0
 21 16  1  0  0  0  0
 28 23  1  0  0  0  0
  4 30  1  0  0  0  0
  6 31  1  0  0  0  0
  7 32  1  0  0  0  0
 11 33  1  0  0  0  0
 12 34  1  0  0  0  0
 17 35  1  0  0  0  0
 18 36  1  0  0  0  0
 19 37  1  0  0  0  0
 20 38  1  0  0  0  0
 21 39  1  0  0  0  0
 24 40  1  0  0  0  0
 25 41  1  0  0  0  0
 26 42  1  0  0  0  0
 27 43  1  0  0  0  0
 28 44  1  0  0  0  0
M  END
