
  xtb     03022215473D
 energy: -99.086040969193 gnorm: 0.000330883373 xtb: 6.4.1 (afa7bdf)
 54 57  0     0  0            999 V2000
   -2.4172   -1.1615    5.1287 C   0  0  0  0  0  0  0  0  0  0  0  0
   -2.6832   -0.7143    3.8211 O   0  0  0  0  0  0  0  0  0  0  0  0
   -1.6530   -0.6152    2.9474 C   0  0  0  0  0  0  0  0  0  0  0  0
   -0.3437   -0.9152    3.2185 C   0  0  0  0  0  0  0  0  0  0  0  0
    0.6537   -0.7776    2.2289 C   0  0  0  0  0  0  0  0  0  0  0  0
    1.9962   -1.0824    2.4845 C   0  0  0  0  0  0  0  0  0  0  0  0
    2.9828   -0.9568    1.5265 C   0  0  0  0  0  0  0  0  0  0  0  0
    4.2220   -1.3006    1.9554 O   0  0  0  0  0  0  0  0  0  0  0  0
    5.3437   -1.2315    1.1095 C   0  0  0  0  0  0  0  0  0  0  0  0
    2.6238   -0.4971    0.2259 C   0  0  0  0  0  0  0  0  0  0  0  0
    3.5288   -0.3253   -0.8398 C   0  0  0  0  0  0  0  0  0  0  0  0
    4.1890   -0.1336   -1.8365 C   0  0  0  0  0  0  0  0  0  0  0  0
    5.0370    0.0591   -2.9403 C   0  0  0  0  0  0  0  0  0  0  0  0
    4.5123    0.5035   -4.1611 C   0  0  0  0  0  0  0  0  0  0  0  0
    5.3421    0.6922   -5.2426 C   0  0  0  0  0  0  0  0  0  0  0  0
    6.7051    0.4383   -5.1125 C   0  0  0  0  0  0  0  0  0  0  0  0
    7.5715    0.6342   -6.2402 N   0  0  0  0  0  4  0  0  0  0  0  0
    7.0713    1.0209   -7.2771 O   0  0  0  0  0  0  0  0  0  0  0  0
    8.7544    0.4016   -6.0911 O   0  0  0  0  0  1  0  0  0  0  0  0
    7.2414   -0.0033   -3.9056 C   0  0  0  0  0  0  0  0  0  0  0  0
    6.4111   -0.1921   -2.8245 C   0  0  0  0  0  0  0  0  0  0  0  0
    1.2969   -0.1912   -0.0353 C   0  0  0  0  0  0  0  0  0  0  0  0
    0.2938   -0.3185    0.9320 C   0  0  0  0  0  0  0  0  0  0  0  0
   -1.0543   -0.0110    0.6683 C   0  0  0  0  0  0  0  0  0  0  0  0
   -2.0162   -0.1516    1.6403 C   0  0  0  0  0  0  0  0  0  0  0  0
   -3.3640    0.1514    1.3780 C   0  0  0  0  0  0  0  0  0  0  0  0
   -4.5255    0.4078    1.1606 C   0  0  0  0  0  0  0  0  0  0  0  0
   -5.8774    0.7042    0.9154 C   0  0  0  0  0  0  0  0  0  0  0  0
   -6.2748    1.2307   -0.3205 C   0  0  0  0  0  0  0  0  0  0  0  0
   -7.5999    1.5203   -0.5540 C   0  0  0  0  0  0  0  0  0  0  0  0
   -8.5392    1.2846    0.4468 C   0  0  0  0  0  0  0  0  0  0  0  0
   -9.9208    1.5867    0.2036 N   0  0  0  0  0  4  0  0  0  0  0  0
  -10.2172    2.0471   -0.8808 O   0  0  0  0  0  0  0  0  0  0  0  0
  -10.7144    1.3648    1.0963 O   0  0  0  0  0  1  0  0  0  0  0  0
   -8.1589    0.7607    1.6802 C   0  0  0  0  0  0  0  0  0  0  0  0
   -6.8336    0.4724    1.9131 C   0  0  0  0  0  0  0  0  0  0  0  0
   -2.0075   -2.1764    5.1290 H   0  0  0  0  0  0  0  0  0  0  0  0
   -3.3774   -1.1600    5.6413 H   0  0  0  0  0  0  0  0  0  0  0  0
   -1.7274   -0.4898    5.6491 H   0  0  0  0  0  0  0  0  0  0  0  0
   -0.0402   -1.2652    4.1926 H   0  0  0  0  0  0  0  0  0  0  0  0
    2.2912   -1.4320    3.4620 H   0  0  0  0  0  0  0  0  0  0  0  0
    5.2406   -1.8973    0.2481 H   0  0  0  0  0  0  0  0  0  0  0  0
    5.5251   -0.2104    0.7628 H   0  0  0  0  0  0  0  0  0  0  0  0
    6.1828   -1.5603    1.7225 H   0  0  0  0  0  0  0  0  0  0  0  0
    3.4533    0.6950   -4.2434 H   0  0  0  0  0  0  0  0  0  0  0  0
    4.9601    1.0334   -6.1927 H   0  0  0  0  0  0  0  0  0  0  0  0
    8.3023   -0.1903   -3.8399 H   0  0  0  0  0  0  0  0  0  0  0  0
    6.8103   -0.5343   -1.8815 H   0  0  0  0  0  0  0  0  0  0  0  0
    1.0334    0.1569   -1.0238 H   0  0  0  0  0  0  0  0  0  0  0  0
   -1.3367    0.3386   -0.3139 H   0  0  0  0  0  0  0  0  0  0  0  0
   -5.5327    1.4067   -1.0843 H   0  0  0  0  0  0  0  0  0  0  0  0
   -7.9299    1.9273   -1.4977 H   0  0  0  0  0  0  0  0  0  0  0  0
   -8.9138    0.5903    2.4326 H   0  0  0  0  0  0  0  0  0  0  0  0
   -6.5164    0.0662    2.8613 H   0  0  0  0  0  0  0  0  0  0  0  0
  1  2  1  0  0  0  0
  2  3  1  0  0  0  0
  3  4  2  0  0  0  0
  4  5  1  0  0  0  0
  5  6  2  0  0  0  0
  6  7  1  0  0  0  0
  7  8  1  0  0  0  0
  8  9  1  0  0  0  0
  7 10  2  0  0  0  0
 10 11  1  0  0  0  0
 11 12  3  0  0  0  0
 12 13  1  0  0  0  0
 13 14  2  0  0  0  0
 14 15  1  0  0  0  0
 15 16  2  0  0  0  0
 16 17  1  0  0  0  0
 17 18  2  0  0  0  0
 17 19  1  0  0  0  0
 16 20  1  0  0  0  0
 20 21  2  0  0  0  0
 10 22  1  0  0  0  0
 22 23  2  0  0  0  0
 23 24  1  0  0  0  0
 24 25  2  0  0  0  0
 25 26  1  0  0  0  0
 26 27  3  0  0  0  0
 27 28  1  0  0  0  0
 28 29  2  0  0  0  0
 29 30  1  0  0  0  0
 30 31  2  0  0  0  0
 31 32  1  0  0  0  0
 32 33  2  0  0  0  0
 32 34  1  0  0  0  0
 31 35  1  0  0  0  0
 35 36  2  0  0  0  0
 25  3  1  0  0  0  0
 36 28  1  0  0  0  0
 23  5  1  0  0  0  0
 21 13  1  0  0  0  0
  1 37  1  0  0  0  0
  1 38  1  0  0  0  0
  1 39  1  0  0  0  0
  4 40  1  0  0  0  0
  6 41  1  0  0  0  0
  9 42  1  0  0  0  0
  9 43  1  0  0  0  0
  9 44  1  0  0  0  0
 14 45  1  0  0  0  0
 15 46  1  0  0  0  0
 20 47  1  0  0  0  0
 21 48  1  0  0  0  0
 22 49  1  0  0  0  0
 24 50  1  0  0  0  0
 29 51  1  0  0  0  0
 30 52  1  0  0  0  0
 35 53  1  0  0  0  0
 36 54  1  0  0  0  0
M  CHG  1  17   1
M  CHG  1  19  -1
M  CHG  1  32   1
M  CHG  1  34  -1
M  END
