
  xtb     03022215473D
 energy: -73.187584795863 gnorm: 0.000115038523 xtb: 6.4.1 (afa7bdf)
 48 52  0     0  0            999 V2000
    4.0287   -0.3229    1.1754 C   0  0  0  0  0  0  0  0  0  0  0  0
    3.8236    0.6267   -0.0065 C   0  0  0  0  0  0  0  0  0  0  0  0
    5.1871    1.0508   -0.5553 C   0  0  0  0  0  0  0  0  0  0  0  0
    3.0368    1.8616    0.4407 C   0  0  0  0  0  0  0  0  0  0  0  0
    1.6257    1.5485    0.8969 C   0  0  0  0  0  0  0  0  0  0  0  0
    1.0863    2.1890    1.7802 O   0  0  0  0  0  0  0  0  0  0  0  0
    0.9549    0.4572    0.2025 C   0  0  0  0  0  0  0  0  0  0  0  0
    1.5993   -0.3025   -0.7024 C   0  0  0  0  0  0  0  0  0  0  0  0
    3.0195   -0.0683   -1.1120 C   0  0  0  0  0  0  0  0  0  0  0  0
    1.0502   -1.3679   -1.3121 O   0  0  0  0  0  0  0  0  0  0  0  0
   -0.1933   -1.7911   -0.9060 C   0  0  0  0  0  0  0  0  0  0  0  0
   -0.6129   -3.0147   -1.4612 C   0  0  0  0  0  0  0  0  0  0  0  0
   -1.8180   -3.5430   -1.1099 C   0  0  0  0  0  0  0  0  0  0  0  0
   -2.6558   -2.8735   -0.1933 C   0  0  0  0  0  0  0  0  0  0  0  0
   -3.9113   -3.4013    0.1697 C   0  0  0  0  0  0  0  0  0  0  0  0
   -4.7270   -2.7375    1.0420 C   0  0  0  0  0  0  0  0  0  0  0  0
   -4.3159   -1.5129    1.5869 C   0  0  0  0  0  0  0  0  0  0  0  0
   -3.1017   -0.9767    1.2588 C   0  0  0  0  0  0  0  0  0  0  0  0
   -2.2310   -1.6364    0.3640 C   0  0  0  0  0  0  0  0  0  0  0  0
   -0.9683   -1.1048   -0.0029 C   0  0  0  0  0  0  0  0  0  0  0  0
   -0.5058    0.2289    0.5259 C   0  0  0  0  0  0  0  0  0  0  0  0
   -1.3008    1.3375   -0.1369 C   0  0  0  0  0  0  0  0  0  0  0  0
   -1.7619    2.4362    0.5803 C   0  0  0  0  0  0  0  0  0  0  0  0
   -2.4598    3.4204   -0.0973 C   0  0  0  0  0  0  0  0  0  0  0  0
   -2.6758    3.2732   -1.4591 C   0  0  0  0  0  0  0  0  0  0  0  0
   -2.1666    2.1445   -2.0805 C   0  0  0  0  0  0  0  0  0  0  0  0
   -1.4955    1.2037   -1.4420 N   0  0  0  0  0  0  0  0  0  0  0  0
    4.5913   -1.2008    0.8651 H   0  0  0  0  0  0  0  0  0  0  0  0
    3.0744   -0.6496    1.5811 H   0  0  0  0  0  0  0  0  0  0  0  0
    4.5823    0.1755    1.9676 H   0  0  0  0  0  0  0  0  0  0  0  0
    5.7443    0.1832   -0.9016 H   0  0  0  0  0  0  0  0  0  0  0  0
    5.0727    1.7401   -1.3890 H   0  0  0  0  0  0  0  0  0  0  0  0
    5.7699    1.5444    0.2185 H   0  0  0  0  0  0  0  0  0  0  0  0
    2.9457    2.5593   -0.3981 H   0  0  0  0  0  0  0  0  0  0  0  0
    3.5521    2.3836    1.2490 H   0  0  0  0  0  0  0  0  0  0  0  0
    3.4702   -1.0256   -1.3819 H   0  0  0  0  0  0  0  0  0  0  0  0
    3.0168    0.5575   -2.0105 H   0  0  0  0  0  0  0  0  0  0  0  0
    0.0435   -3.5054   -2.1627 H   0  0  0  0  0  0  0  0  0  0  0  0
   -2.1500   -4.4797   -1.5326 H   0  0  0  0  0  0  0  0  0  0  0  0
   -4.2175   -4.3442   -0.2608 H   0  0  0  0  0  0  0  0  0  0  0  0
   -5.6889   -3.1465    1.3138 H   0  0  0  0  0  0  0  0  0  0  0  0
   -4.9693   -0.9915    2.2711 H   0  0  0  0  0  0  0  0  0  0  0  0
   -2.8101   -0.0298    1.6841 H   0  0  0  0  0  0  0  0  0  0  0  0
   -0.6339    0.2977    1.6118 H   0  0  0  0  0  0  0  0  0  0  0  0
   -1.5572    2.5220    1.6357 H   0  0  0  0  0  0  0  0  0  0  0  0
   -2.8304    4.2891    0.4281 H   0  0  0  0  0  0  0  0  0  0  0  0
   -3.2191    4.0156   -2.0230 H   0  0  0  0  0  0  0  0  0  0  0  0
   -2.2974    1.9799   -3.1427 H   0  0  0  0  0  0  0  0  0  0  0  0
  1  2  1  0  0  0  0
  2  3  1  0  0  0  0
  2  4  1  0  0  0  0
  4  5  1  0  0  0  0
  5  6  2  0  0  0  0
  5  7  1  0  0  0  0
  7  8  2  0  0  0  0
  8  9  1  0  0  0  0
  8 10  1  0  0  0  0
 10 11  1  0  0  0  0
 11 12  2  0  0  0  0
 12 13  1  0  0  0  0
 13 14  2  0  0  0  0
 14 15  1  0  0  0  0
 15 16  2  0  0  0  0
 16 17  1  0  0  0  0
 17 18  2  0  0  0  0
 18 19  1  0  0  0  0
 19 20  2  0  0  0  0
 20 21  1  0  0  0  0
 21 22  1  0  0  0  0
 22 23  2  0  0  0  0
 23 24  1  0  0  0  0
 24 25  2  0  0  0  0
 25 26  1  0  0  0  0
 26 27  2  0  0  0  0
  9  2  1  0  0  0  0
 20 11  1  0  0  0  0
 27 22  1  0  0  0  0
 21  7  1  0  0  0  0
 19 14  1  0  0  0  0
  1 28  1  0  0  0  0
  1 29  1  0  0  0  0
  1 30  1  0  0  0  0
  3 31  1  0  0  0  0
  3 32  1  0  0  0  0
  3 33  1  0  0  0  0
  4 34  1  0  0  0  0
  4 35  1  0  0  0  0
  9 36  1  0  0  0  0
  9 37  1  0  0  0  0
 12 38  1  0  0  0  0
 13 39  1  0  0  0  0
 15 40  1  0  0  0  0
 16 41  1  0  0  0  0
 17 42  1  0  0  0  0
 18 43  1  0  0  0  0
 21 44  1  0  0  0  0
 23 45  1  0  0  0  0
 24 46  1  0  0  0  0
 25 47  1  0  0  0  0
 26 48  1  0  0  0  0
M  END
