
  xtb     03022213453D
 energy: -78.306127936721 gnorm: 0.000179323501 xtb: 6.4.1 (afa7bdf)
 49 52  0     0  0            999 V2000
    7.2244   -0.1471   -1.2570 C   0  0  0  0  0  0  0  0  0  0  0  0
    6.5513   -0.3278   -0.0325 O   0  0  0  0  0  0  0  0  0  0  0  0
    5.2082   -0.1771    0.0082 C   0  0  0  0  0  0  0  0  0  0  0  0
    4.6097   -0.3671    1.2585 C   0  0  0  0  0  0  0  0  0  0  0  0
    3.2500   -0.2372    1.4047 C   0  0  0  0  0  0  0  0  0  0  0  0
    2.4391    0.0690    0.3093 C   0  0  0  0  0  0  0  0  0  0  0  0
    0.9827    0.1909    0.5511 C   0  0  0  0  0  0  0  0  0  0  0  0
    0.4975    0.4733    1.6244 O   0  0  0  0  0  0  0  0  0  0  0  0
    0.2003   -0.0403   -0.5563 N   0  0  0  0  0  0  0  0  0  0  0  0
   -1.1841   -0.0233   -0.5141 N   0  0  0  0  0  0  0  0  0  0  0  0
   -1.8686   -1.1996   -0.2169 C   0  0  0  0  0  0  0  0  0  0  0  0
   -3.2119   -1.2394   -0.3231 C   0  0  0  0  0  0  0  0  0  0  0  0
   -3.9841   -0.0305   -0.7781 C   0  0  0  0  0  0  0  0  0  0  0  0
   -3.1983    1.2252   -0.5132 C   0  0  0  0  0  0  0  0  0  0  0  0
   -1.8502    1.1965   -0.4650 C   0  0  0  0  0  0  0  0  0  0  0  0
   -1.0133    2.4295   -0.3252 C   0  0  0  0  0  0  0  0  0  0  0  0
   -1.8057    3.6651   -0.7343 C   0  0  0  0  0  0  0  0  0  0  0  0
   -3.1313    3.6912    0.0103 C   0  0  0  0  0  0  0  0  0  0  0  0
   -3.9552    2.4560   -0.3007 C   0  0  0  0  0  0  0  0  0  0  0  0
   -5.1690    2.4895   -0.3404 O   0  0  0  0  0  0  0  0  0  0  0  0
   -3.9806   -2.4520   -0.0487 C   0  0  0  0  0  0  0  0  0  0  0  0
   -5.1916   -2.4870   -0.1303 O   0  0  0  0  0  0  0  0  0  0  0  0
   -3.1699   -3.6902    0.2887 C   0  0  0  0  0  0  0  0  0  0  0  0
   -1.9024   -3.3323    1.0482 C   0  0  0  0  0  0  0  0  0  0  0  0
   -1.0503   -2.3784    0.2175 C   0  0  0  0  0  0  0  0  0  0  0  0
    3.0377    0.2724   -0.9294 C   0  0  0  0  0  0  0  0  0  0  0  0
    4.4070    0.1542   -1.0828 C   0  0  0  0  0  0  0  0  0  0  0  0
    8.2770   -0.3223   -1.0415 H   0  0  0  0  0  0  0  0  0  0  0  0
    7.0984    0.8711   -1.6377 H   0  0  0  0  0  0  0  0  0  0  0  0
    6.8856   -0.8646   -2.0108 H   0  0  0  0  0  0  0  0  0  0  0  0
    5.2429   -0.6105    2.0964 H   0  0  0  0  0  0  0  0  0  0  0  0
    2.7832   -0.3714    2.3684 H   0  0  0  0  0  0  0  0  0  0  0  0
    0.6099   -0.4308   -1.3941 H   0  0  0  0  0  0  0  0  0  0  0  0
   -4.9462    0.0138   -0.2622 H   0  0  0  0  0  0  0  0  0  0  0  0
   -4.2112   -0.1132   -1.8489 H   0  0  0  0  0  0  0  0  0  0  0  0
   -0.6942    2.5172    0.7189 H   0  0  0  0  0  0  0  0  0  0  0  0
   -0.1107    2.3416   -0.9356 H   0  0  0  0  0  0  0  0  0  0  0  0
   -1.2279    4.5645   -0.5148 H   0  0  0  0  0  0  0  0  0  0  0  0
   -1.9959    3.6378   -1.8100 H   0  0  0  0  0  0  0  0  0  0  0  0
   -3.7173    4.5762   -0.2405 H   0  0  0  0  0  0  0  0  0  0  0  0
   -2.9507    3.7019    1.0892 H   0  0  0  0  0  0  0  0  0  0  0  0
   -2.9153   -4.1824   -0.6554 H   0  0  0  0  0  0  0  0  0  0  0  0
   -3.7996   -4.3735    0.8596 H   0  0  0  0  0  0  0  0  0  0  0  0
   -1.3300   -4.2322    1.2811 H   0  0  0  0  0  0  0  0  0  0  0  0
   -2.1684   -2.8466    1.9891 H   0  0  0  0  0  0  0  0  0  0  0  0
   -0.6663   -2.9012   -0.6670 H   0  0  0  0  0  0  0  0  0  0  0  0
   -0.1946   -2.0480    0.8092 H   0  0  0  0  0  0  0  0  0  0  0  0
    2.4498    0.5611   -1.7891 H   0  0  0  0  0  0  0  0  0  0  0  0
    4.8399    0.3287   -2.0550 H   0  0  0  0  0  0  0  0  0  0  0  0
  1  2  1  0  0  0  0
  2  3  1  0  0  0  0
  3  4  2  0  0  0  0
  4  5  1  0  0  0  0
  5  6  2  0  0  0  0
  6  7  1  0  0  0  0
  7  8  2  0  0  0  0
  7  9  1  0  0  0  0
  9 10  1  0  0  0  0
 10 11  1  0  0  0  0
 11 12  2  0  0  0  0
 12 13  1  0  0  0  0
 13 14  1  0  0  0  0
 14 15  2  0  0  0  0
 15 16  1  0  0  0  0
 16 17  1  0  0  0  0
 17 18  1  0  0  0  0
 18 19  1  0  0  0  0
 19 20  2  0  0  0  0
 12 21  1  0  0  0  0
 21 22  2  0  0  0  0
 21 23  1  0  0  0  0
 23 24  1  0  0  0  0
 24 25  1  0  0  0  0
  6 26  1  0  0  0  0
 26 27  2  0  0  0  0
 27  3  1  0  0  0  0
 15 10  1  0  0  0  0
 25 11  1  0  0  0  0
 19 14  1  0  0  0  0
  1 28  1  0  0  0  0
  1 29  1  0  0  0  0
  1 30  1  0  0  0  0
  4 31  1  0  0  0  0
  5 32  1  0  0  0  0
  9 33  1  0  0  0  0
 13 34  1  0  0  0  0
 13 35  1  0  0  0  0
 16 36  1  0  0  0  0
 16 37  1  0  0  0  0
 17 38  1  0  0  0  0
 17 39  1  0  0  0  0
 18 40  1  0  0  0  0
 18 41  1  0  0  0  0
 23 42  1  0  0  0  0
 23 43  1  0  0  0  0
 24 44  1  0  0  0  0
 24 45  1  0  0  0  0
 25 46  1  0  0  0  0
 25 47  1  0  0  0  0
 26 48  1  0  0  0  0
 27 49  1  0  0  0  0
M  END
