
  xtb     03022214403D
 energy: -48.312392061006 gnorm: 0.000101947503 xtb: 6.4.1 (afa7bdf)
 29 31  0     0  0            999 V2000
    6.2564   -0.6931   -0.1301 F   0  0  0  0  0  0  0  0  0  0  0  0
    4.9755   -0.2617   -0.1280 C   0  0  0  0  0  0  0  0  0  0  0  0
    4.7065    1.0537    0.2060 C   0  0  0  0  0  0  0  0  0  0  0  0
    3.3958    1.4847    0.2141 C   0  0  0  0  0  0  0  0  0  0  0  0
    2.3515    0.6121   -0.1048 C   0  0  0  0  0  0  0  0  0  0  0  0
    1.0556    1.1003   -0.0905 N   0  0  0  0  0  0  0  0  0  0  0  0
   -0.1330    0.4306    0.0593 C   0  0  0  0  0  0  0  0  0  0  0  0
   -0.2169   -0.8361    0.6967 C   0  0  0  0  0  0  0  0  0  0  0  0
   -1.4436   -1.4115    0.8372 C   0  0  0  0  0  0  0  0  0  0  0  0
   -2.5956   -0.7465    0.3576 C   0  0  0  0  0  0  0  0  0  0  0  0
   -3.8937   -1.2772    0.4539 C   0  0  0  0  0  0  0  0  0  0  0  0
   -4.9685   -0.5650   -0.0054 C   0  0  0  0  0  0  0  0  0  0  0  0
   -4.7853    0.7035   -0.5756 C   0  0  0  0  0  0  0  0  0  0  0  0
   -3.5354    1.2487   -0.6826 C   0  0  0  0  0  0  0  0  0  0  0  0
   -2.4089    0.5371   -0.2229 C   0  0  0  0  0  0  0  0  0  0  0  0
   -1.1898    1.0935   -0.3541 N   0  0  0  0  0  0  0  0  0  0  0  0
    2.6570   -0.6996   -0.4727 C   0  0  0  0  0  0  0  0  0  0  0  0
    3.9665   -1.1402   -0.4767 C   0  0  0  0  0  0  0  0  0  0  0  0
    5.5161    1.7208    0.4559 H   0  0  0  0  0  0  0  0  0  0  0  0
    3.1685    2.5086    0.4713 H   0  0  0  0  0  0  0  0  0  0  0  0
    0.9360    2.0815   -0.3018 H   0  0  0  0  0  0  0  0  0  0  0  0
    0.6702   -1.2983    1.0985 H   0  0  0  0  0  0  0  0  0  0  0  0
   -1.5529   -2.3687    1.3287 H   0  0  0  0  0  0  0  0  0  0  0  0
   -4.0253   -2.2550    0.8964 H   0  0  0  0  0  0  0  0  0  0  0  0
   -5.9651   -0.9744    0.0694 H   0  0  0  0  0  0  0  0  0  0  0  0
   -5.6464    1.2500   -0.9321 H   0  0  0  0  0  0  0  0  0  0  0  0
   -3.3773    2.2217   -1.1207 H   0  0  0  0  0  0  0  0  0  0  0  0
    1.8713   -1.3679   -0.7870 H   0  0  0  0  0  0  0  0  0  0  0  0
    4.2106   -2.1517   -0.7599 H   0  0  0  0  0  0  0  0  0  0  0  0
  1  2  1  0  0  0  0
  2  3  2  0  0  0  0
  3  4  1  0  0  0  0
  4  5  2  0  0  0  0
  5  6  1  0  0  0  0
  6  7  1  0  0  0  0
  7  8  2  0  0  0  0
  8  9  1  0  0  0  0
  9 10  2  0  0  0  0
 10 11  1  0  0  0  0
 11 12  2  0  0  0  0
 12 13  1  0  0  0  0
 13 14  2  0  0  0  0
 14 15  1  0  0  0  0
 15 16  2  0  0  0  0
  5 17  1  0  0  0  0
 17 18  2  0  0  0  0
 18  2  1  0  0  0  0
 16  7  1  0  0  0  0
 15 10  1  0  0  0  0
  3 19  1  0  0  0  0
  4 20  1  0  0  0  0
  6 21  1  0  0  0  0
  8 22  1  0  0  0  0
  9 23  1  0  0  0  0
 11 24  1  0  0  0  0
 12 25  1  0  0  0  0
 13 26  1  0  0  0  0
 14 27  1  0  0  0  0
 17 28  1  0  0  0  0
 18 29  1  0  0  0  0
M  END
