
  xtb     03022214143D
 energy: -115.095333373338 gnorm: 0.000156516799 xtb: 6.4.1 (afa7bdf)
 68 76  0     0  0            999 V2000
    5.5605   -4.3895    0.4913 C   0  0  0  0  0  0  0  0  0  0  0  0
    5.0225   -3.0688    0.8717 C   0  0  0  0  0  0  0  0  0  0  0  0
    5.5256   -2.2240    1.7110 N   0  0  0  0  0  0  0  0  0  0  0  0
    4.7084   -1.1574    1.7459 N   0  0  0  0  0  0  0  0  0  0  0  0
    3.7354   -1.3885    0.9194 C   0  0  0  0  0  0  0  0  0  0  0  0
    2.5674   -0.5796    0.6432 C   0  0  0  0  0  0  0  0  0  0  0  0
    1.4140   -1.2258    0.2076 C   0  0  0  0  0  0  0  0  0  0  0  0
    0.2206   -0.5443    0.0212 C   0  0  0  0  0  0  0  0  0  0  0  0
   -0.9218   -1.2427   -0.3758 N   0  0  0  0  0  0  0  0  0  0  0  0
   -1.0559   -1.9641   -1.5509 C   0  0  0  0  0  0  0  0  0  0  0  0
   -0.0922   -2.3203   -2.4812 C   0  0  0  0  0  0  0  0  0  0  0  0
   -0.5035   -3.0233   -3.5984 C   0  0  0  0  0  0  0  0  0  0  0  0
   -1.8405   -3.3587   -3.7933 C   0  0  0  0  0  0  0  0  0  0  0  0
   -2.8061   -2.9917   -2.8764 C   0  0  0  0  0  0  0  0  0  0  0  0
   -2.4168   -2.2880   -1.7455 C   0  0  0  0  0  0  0  0  0  0  0  0
   -3.1343   -1.7435   -0.6255 C   0  0  0  0  0  0  0  0  0  0  0  0
   -4.4722   -1.7356   -0.2572 C   0  0  0  0  0  0  0  0  0  0  0  0
   -4.8267   -1.1257    0.9300 C   0  0  0  0  0  0  0  0  0  0  0  0
   -3.8640   -0.5653    1.7651 C   0  0  0  0  0  0  0  0  0  0  0  0
   -2.5257   -0.5668    1.4217 C   0  0  0  0  0  0  0  0  0  0  0  0
   -2.1755   -1.1183    0.1995 C   0  0  0  0  0  0  0  0  0  0  0  0
    0.1801    0.8478    0.2572 C   0  0  0  0  0  0  0  0  0  0  0  0
   -0.9920    1.5768    0.0613 N   0  0  0  0  0  0  0  0  0  0  0  0
   -1.6482    2.3142    1.0367 C   0  0  0  0  0  0  0  0  0  0  0  0
   -1.2262    2.6627    2.3099 C   0  0  0  0  0  0  0  0  0  0  0  0
   -2.1033    3.3795    3.1029 C   0  0  0  0  0  0  0  0  0  0  0  0
   -3.3705    3.7345    2.6486 C   0  0  0  0  0  0  0  0  0  0  0  0
   -3.7991    3.3759    1.3856 C   0  0  0  0  0  0  0  0  0  0  0  0
   -2.9352    2.6590    0.5696 C   0  0  0  0  0  0  0  0  0  0  0  0
   -3.0524    2.1193   -0.7577 C   0  0  0  0  0  0  0  0  0  0  0  0
   -4.0589    2.1340   -1.7124 C   0  0  0  0  0  0  0  0  0  0  0  0
   -3.8243    1.5251   -2.9300 C   0  0  0  0  0  0  0  0  0  0  0  0
   -2.5923    0.9445   -3.2165 C   0  0  0  0  0  0  0  0  0  0  0  0
   -1.5739    0.9232   -2.2827 C   0  0  0  0  0  0  0  0  0  0  0  0
   -1.8299    1.4719   -1.0362 C   0  0  0  0  0  0  0  0  0  0  0  0
    1.3319    1.4903    0.6899 C   0  0  0  0  0  0  0  0  0  0  0  0
    2.5263    0.8044    0.8765 C   0  0  0  0  0  0  0  0  0  0  0  0
    3.6809    1.5824    1.2765 C   0  0  0  0  0  0  0  0  0  0  0  0
    3.6442    2.6692    1.9891 N   0  0  0  0  0  0  0  0  0  0  0  0
    4.9104    3.0988    2.1198 N   0  0  0  0  0  0  0  0  0  0  0  0
    5.6656    2.2681    1.4753 C   0  0  0  0  0  0  0  0  0  0  0  0
    7.1339    2.3031    1.3358 C   0  0  0  0  0  0  0  0  0  0  0  0
    4.9425    1.2831    0.9019 O   0  0  0  0  0  0  0  0  0  0  0  0
    3.8737   -2.6058    0.3298 O   0  0  0  0  0  0  0  0  0  0  0  0
    5.7611   -4.4176   -0.5787 H   0  0  0  0  0  0  0  0  0  0  0  0
    6.4782   -4.5658    1.0425 H   0  0  0  0  0  0  0  0  0  0  0  0
    4.8355   -5.1684    0.7228 H   0  0  0  0  0  0  0  0  0  0  0  0
    1.4314   -2.2950    0.0576 H   0  0  0  0  0  0  0  0  0  0  0  0
    0.9452   -2.0503   -2.3485 H   0  0  0  0  0  0  0  0  0  0  0  0
    0.2283   -3.3150   -4.3372 H   0  0  0  0  0  0  0  0  0  0  0  0
   -2.1224   -3.9082   -4.6790 H   0  0  0  0  0  0  0  0  0  0  0  0
   -3.8444   -3.2404   -3.0338 H   0  0  0  0  0  0  0  0  0  0  0  0
   -5.2155   -2.1999   -0.8871 H   0  0  0  0  0  0  0  0  0  0  0  0
   -5.8638   -1.0980    1.2290 H   0  0  0  0  0  0  0  0  0  0  0  0
   -4.1654   -0.1216    2.7020 H   0  0  0  0  0  0  0  0  0  0  0  0
   -1.7829   -0.1557    2.0885 H   0  0  0  0  0  0  0  0  0  0  0  0
   -0.2503    2.3836    2.6778 H   0  0  0  0  0  0  0  0  0  0  0  0
   -1.7972    3.6680    4.0973 H   0  0  0  0  0  0  0  0  0  0  0  0
   -4.0262    4.2945    3.2984 H   0  0  0  0  0  0  0  0  0  0  0  0
   -4.7854    3.6411    1.0367 H   0  0  0  0  0  0  0  0  0  0  0  0
   -5.0023    2.6155   -1.5052 H   0  0  0  0  0  0  0  0  0  0  0  0
   -4.5988    1.5157   -3.6823 H   0  0  0  0  0  0  0  0  0  0  0  0
   -2.4246    0.5037   -4.1878 H   0  0  0  0  0  0  0  0  0  0  0  0
   -0.6113    0.4984   -2.5242 H   0  0  0  0  0  0  0  0  0  0  0  0
    1.3207    2.5562    0.8549 H   0  0  0  0  0  0  0  0  0  0  0  0
    7.5559    1.3818    1.7340 H   0  0  0  0  0  0  0  0  0  0  0  0
    7.5203    3.1565    1.8832 H   0  0  0  0  0  0  0  0  0  0  0  0
    7.4105    2.3806    0.2855 H   0  0  0  0  0  0  0  0  0  0  0  0
  1  2  1  0  0  0  0
  2  3  2  0  0  0  0
  3  4  1  0  0  0  0
  4  5  2  0  0  0  0
  5  6  1  0  0  0  0
  6  7  2  0  0  0  0
  7  8  1  0  0  0  0
  8  9  1  0  0  0  0
  9 10  1  0  0  0  0
 10 11  2  0  0  0  0
 11 12  1  0  0  0  0
 12 13  2  0  0  0  0
 13 14  1  0  0  0  0
 14 15  2  0  0  0  0
 15 16  1  0  0  0  0
 16 17  2  0  0  0  0
 17 18  1  0  0  0  0
 18 19  2  0  0  0  0
 19 20  1  0  0  0  0
 20 21  2  0  0  0  0
  8 22  2  0  0  0  0
 22 23  1  0  0  0  0
 23 24  1  0  0  0  0
 24 25  2  0  0  0  0
 25 26  1  0  0  0  0
 26 27  2  0  0  0  0
 27 28  1  0  0  0  0
 28 29  2  0  0  0  0
 29 30  1  0  0  0  0
 30 31  2  0  0  0  0
 31 32  1  0  0  0  0
 32 33  2  0  0  0  0
 33 34  1  0  0  0  0
 34 35  2  0  0  0  0
 22 36  1  0  0  0  0
 36 37  2  0  0  0  0
 37 38  1  0  0  0  0
 38 39  2  0  0  0  0
 39 40  1  0  0  0  0
 40 41  2  0  0  0  0
 41 42  1  0  0  0  0
 41 43  1  0  0  0  0
  5 44  1  0  0  0  0
 44  2  1  0  0  0  0
 37  6  1  0  0  0  0
 43 38  1  0  0  0  0
 21  9  1  0  0  0  0
 35 23  1  0  0  0  0
 15 10  1  0  0  0  0
 21 16  1  0  0  0  0
 29 24  1  0  0  0  0
 35 30  1  0  0  0  0
  1 45  1  0  0  0  0
  1 46  1  0  0  0  0
  1 47  1  0  0  0  0
  7 48  1  0  0  0  0
 11 49  1  0  0  0  0
 12 50  1  0  0  0  0
 13 51  1  0  0  0  0
 14 52  1  0  0  0  0
 17 53  1  0  0  0  0
 18 54  1  0  0  0  0
 19 55  1  0  0  0  0
 20 56  1  0  0  0  0
 25 57  1  0  0  0  0
 26 58  1  0  0  0  0
 27 59  1  0  0  0  0
 28 60  1  0  0  0  0
 31 61  1  0  0  0  0
 32 62  1  0  0  0  0
 33 63  1  0  0  0  0
 34 64  1  0  0  0  0
 36 65  1  0  0  0  0
 42 66  1  0  0  0  0
 42 67  1  0  0  0  0
 42 68  1  0  0  0  0
M  END
