
  xtb     03022216013D
 energy: -71.614855038314 gnorm: 0.000088178257 xtb: 6.4.1 (afa7bdf)
 46 52  0     0  0            999 V2000
    5.3712    2.1487   -0.5280 C   0  0  0  0  0  0  0  0  0  0  0  0
    5.6028    0.8434   -0.1346 C   0  0  0  0  0  0  0  0  0  0  0  0
    4.5416   -0.0421    0.0598 C   0  0  0  0  0  0  0  0  0  0  0  0
    4.7465   -1.3957    0.4583 C   0  0  0  0  0  0  0  0  0  0  0  0
    3.7037   -2.2399    0.6324 C   0  0  0  0  0  0  0  0  0  0  0  0
    2.3603   -1.8071    0.4344 C   0  0  0  0  0  0  0  0  0  0  0  0
    1.2725   -2.6650    0.6070 C   0  0  0  0  0  0  0  0  0  0  0  0
   -0.0176   -2.2099    0.4351 C   0  0  0  0  0  0  0  0  0  0  0  0
   -0.2674   -0.8889    0.0776 C   0  0  0  0  0  0  0  0  0  0  0  0
   -1.5995   -0.4643   -0.0542 N   0  0  0  0  0  0  0  0  0  0  0  0
   -2.2155    0.5231    0.6880 C   0  0  0  0  0  0  0  0  0  0  0  0
   -1.6889    1.3353    1.6822 C   0  0  0  0  0  0  0  0  0  0  0  0
   -2.5373    2.2415    2.2880 C   0  0  0  0  0  0  0  0  0  0  0  0
   -3.8790    2.3380    1.9236 C   0  0  0  0  0  0  0  0  0  0  0  0
   -4.4116    1.5201    0.9475 C   0  0  0  0  0  0  0  0  0  0  0  0
   -3.5795    0.5997    0.3233 C   0  0  0  0  0  0  0  0  0  0  0  0
   -3.7880   -0.3989   -0.6876 C   0  0  0  0  0  0  0  0  0  0  0  0
   -4.8910   -0.7935   -1.4334 C   0  0  0  0  0  0  0  0  0  0  0  0
   -4.7373   -1.8107   -2.3541 C   0  0  0  0  0  0  0  0  0  0  0  0
   -3.5020   -2.4271   -2.5442 C   0  0  0  0  0  0  0  0  0  0  0  0
   -2.3894   -2.0513   -1.8166 C   0  0  0  0  0  0  0  0  0  0  0  0
   -2.5426   -1.0401   -0.8794 C   0  0  0  0  0  0  0  0  0  0  0  0
    0.7974    0.0007   -0.1462 C   0  0  0  0  0  0  0  0  0  0  0  0
    0.6016    1.3425   -0.5898 C   0  0  0  0  0  0  0  0  0  0  0  0
    1.6490    2.1765   -0.7845 C   0  0  0  0  0  0  0  0  0  0  0  0
    2.9901    1.7513   -0.5574 C   0  0  0  0  0  0  0  0  0  0  0  0
    4.0821    2.6012   -0.7404 C   0  0  0  0  0  0  0  0  0  0  0  0
    3.2160    0.4142   -0.1479 C   0  0  0  0  0  0  0  0  0  0  0  0
    2.1225   -0.4642    0.0496 C   0  0  0  0  0  0  0  0  0  0  0  0
    6.2052    2.8200   -0.6735 H   0  0  0  0  0  0  0  0  0  0  0  0
    6.6137    0.4964    0.0248 H   0  0  0  0  0  0  0  0  0  0  0  0
    5.7617   -1.7320    0.6143 H   0  0  0  0  0  0  0  0  0  0  0  0
    3.8669   -3.2662    0.9295 H   0  0  0  0  0  0  0  0  0  0  0  0
    1.4484   -3.6917    0.8935 H   0  0  0  0  0  0  0  0  0  0  0  0
   -0.8556   -2.8733    0.5936 H   0  0  0  0  0  0  0  0  0  0  0  0
   -0.6515    1.2612    1.9727 H   0  0  0  0  0  0  0  0  0  0  0  0
   -2.1526    2.8878    3.0631 H   0  0  0  0  0  0  0  0  0  0  0  0
   -4.5092    3.0608    2.4203 H   0  0  0  0  0  0  0  0  0  0  0  0
   -5.4539    1.5873    0.6743 H   0  0  0  0  0  0  0  0  0  0  0  0
   -5.8463   -0.3100   -1.2945 H   0  0  0  0  0  0  0  0  0  0  0  0
   -5.5832   -2.1334   -2.9429 H   0  0  0  0  0  0  0  0  0  0  0  0
   -3.4120   -3.2138   -3.2788 H   0  0  0  0  0  0  0  0  0  0  0  0
   -1.4314   -2.5240   -1.9753 H   0  0  0  0  0  0  0  0  0  0  0  0
   -0.4052    1.6824   -0.7810 H   0  0  0  0  0  0  0  0  0  0  0  0
    1.4864    3.1891   -1.1253 H   0  0  0  0  0  0  0  0  0  0  0  0
    3.9088    3.6212   -1.0522 H   0  0  0  0  0  0  0  0  0  0  0  0
  1  2  2  0  0  0  0
  2  3  1  0  0  0  0
  3  4  2  0  0  0  0
  4  5  1  0  0  0  0
  5  6  2  0  0  0  0
  6  7  1  0  0  0  0
  7  8  2  0  0  0  0
  8  9  1  0  0  0  0
  9 10  1  0  0  0  0
 10 11  1  0  0  0  0
 11 12  2  0  0  0  0
 12 13  1  0  0  0  0
 13 14  2  0  0  0  0
 14 15  1  0  0  0  0
 15 16  2  0  0  0  0
 16 17  1  0  0  0  0
 17 18  2  0  0  0  0
 18 19  1  0  0  0  0
 19 20  2  0  0  0  0
 20 21  1  0  0  0  0
 21 22  2  0  0  0  0
  9 23  2  0  0  0  0
 23 24  1  0  0  0  0
 24 25  2  0  0  0  0
 25 26  1  0  0  0  0
 26 27  2  0  0  0  0
 26 28  1  0  0  0  0
 28 29  2  0  0  0  0
 27  1  1  0  0  0  0
 28  3  1  0  0  0  0
 29  6  1  0  0  0  0
 22 10  1  0  0  0  0
 29 23  1  0  0  0  0
 16 11  1  0  0  0  0
 22 17  1  0  0  0  0
  1 30  1  0  0  0  0
  2 31  1  0  0  0  0
  4 32  1  0  0  0  0
  5 33  1  0  0  0  0
  7 34  1  0  0  0  0
  8 35  1  0  0  0  0
 12 36  1  0  0  0  0
 13 37  1  0  0  0  0
 14 38  1  0  0  0  0
 15 39  1  0  0  0  0
 18 40  1  0  0  0  0
 19 41  1  0  0  0  0
 20 42  1  0  0  0  0
 21 43  1  0  0  0  0
 24 44  1  0  0  0  0
 25 45  1  0  0  0  0
 27 46  1  0  0  0  0
M  END
