
  xtb     03022215433D
 energy: -61.258475398975 gnorm: 0.000319626908 xtb: 6.4.1 (afa7bdf)
 32 34  0     0  0            999 V2000
   -7.3899    0.9286    0.0160 C   0  0  0  0  0  0  0  0  0  0  0  0
   -6.5806   -0.4631    0.8541 S   0  0  0  0  0  0  0  0  0  0  0  0
   -4.8714   -0.1784    0.6321 C   0  0  0  0  0  0  0  0  0  0  0  0
   -4.0115   -1.1273    1.2060 C   0  0  0  0  0  0  0  0  0  0  0  0
   -2.6546   -0.9960    1.0901 C   0  0  0  0  0  0  0  0  0  0  0  0
   -2.1084    0.1006    0.3907 C   0  0  0  0  0  0  0  0  0  0  0  0
   -0.7789    0.3225    0.2144 N   0  0  0  0  0  0  0  0  0  0  0  0
    0.0356   -0.5075    0.7464 N   0  0  0  0  0  0  0  0  0  0  0  0
    1.3269   -0.3587    0.4993 C   0  0  0  0  0  0  0  0  0  0  0  0
    2.2548   -1.0051    1.1183 N   0  0  0  0  0  0  0  0  0  0  0  0
    3.4860   -0.7256    0.6567 C   0  0  0  0  0  0  0  0  0  0  0  0
    4.6787   -1.2668    1.1509 C   0  0  0  0  0  0  0  0  0  0  0  0
    5.8680   -0.9041    0.5712 C   0  0  0  0  0  0  0  0  0  0  0  0
    5.8848   -0.0023   -0.5022 C   0  0  0  0  0  0  0  0  0  0  0  0
    7.1463    0.3591   -1.0893 N   0  0  0  0  0  4  0  0  0  0  0  0
    8.1498   -0.1427   -0.6266 O   0  0  0  0  0  0  0  0  0  0  0  0
    7.1346    1.1443   -2.0150 O   0  0  0  0  0  1  0  0  0  0  0  0
    4.7235    0.5560   -1.0160 C   0  0  0  0  0  0  0  0  0  0  0  0
    3.5245    0.1958   -0.4317 C   0  0  0  0  0  0  0  0  0  0  0  0
    1.9337    0.7230   -0.8414 S   0  0  0  0  0  0  0  0  0  0  0  0
   -2.9767    1.0448   -0.1808 C   0  0  0  0  0  0  0  0  0  0  0  0
   -4.3391    0.9085   -0.0634 C   0  0  0  0  0  0  0  0  0  0  0  0
   -8.4553    0.7687    0.1496 H   0  0  0  0  0  0  0  0  0  0  0  0
   -7.1466    0.9182   -1.0422 H   0  0  0  0  0  0  0  0  0  0  0  0
   -7.0972    1.8643    0.4825 H   0  0  0  0  0  0  0  0  0  0  0  0
   -4.4435   -1.9605    1.7400 H   0  0  0  0  0  0  0  0  0  0  0  0
   -1.9797   -1.7155    1.5276 H   0  0  0  0  0  0  0  0  0  0  0  0
    4.6368   -1.9560    1.9779 H   0  0  0  0  0  0  0  0  0  0  0  0
    6.8079   -1.2997    0.9236 H   0  0  0  0  0  0  0  0  0  0  0  0
    4.7734    1.2503   -1.8402 H   0  0  0  0  0  0  0  0  0  0  0  0
   -2.5477    1.8780   -0.7152 H   0  0  0  0  0  0  0  0  0  0  0  0
   -4.9837    1.6467   -0.5125 H   0  0  0  0  0  0  0  0  0  0  0  0
  1  2  1  0  0  0  0
  2  3  1  0  0  0  0
  3  4  2  0  0  0  0
  4  5  1  0  0  0  0
  5  6  2  0  0  0  0
  6  7  1  0  0  0  0
  7  8  2  0  0  0  0
  8  9  1  0  0  0  0
  9 10  2  0  0  0  0
 10 11  1  0  0  0  0
 11 12  2  0  0  0  0
 12 13  1  0  0  0  0
 13 14  2  0  0  0  0
 14 15  1  0  0  0  0
 15 16  2  0  0  0  0
 15 17  1  0  0  0  0
 14 18  1  0  0  0  0
 18 19  2  0  0  0  0
 19 20  1  0  0  0  0
  6 21  1  0  0  0  0
 21 22  2  0  0  0  0
 22  3  1  0  0  0  0
 20  9  1  0  0  0  0
 19 11  1  0  0  0  0
  1 23  1  0  0  0  0
  1 24  1  0  0  0  0
  1 25  1  0  0  0  0
  4 26  1  0  0  0  0
  5 27  1  0  0  0  0
 12 28  1  0  0  0  0
 13 29  1  0  0  0  0
 18 30  1  0  0  0  0
 21 31  1  0  0  0  0
 22 32  1  0  0  0  0
M  CHG  1  15   1
M  CHG  1  17  -1
M  END
