
  xtb     03022214273D
 energy: -87.373275056096 gnorm: 0.000074925743 xtb: 6.4.1 (afa7bdf)
 54 59  0     0  0            999 V2000
    7.2416    1.2019   -1.0484 C   0  0  0  0  0  0  0  0  0  0  0  0
    5.7822    0.9531   -0.8270 C   0  0  0  0  0  0  0  0  0  0  0  0
    5.3554    0.0677    0.1569 C   0  0  0  0  0  0  0  0  0  0  0  0
    4.0109   -0.1553    0.3775 C   0  0  0  0  0  0  0  0  0  0  0  0
    3.0502    0.5186   -0.3742 C   0  0  0  0  0  0  0  0  0  0  0  0
    1.6241    0.2809   -0.1264 C   0  0  0  0  0  0  0  0  0  0  0  0
    1.1253   -1.0217   -0.1834 C   0  0  0  0  0  0  0  0  0  0  0  0
    1.7687   -2.2061   -0.6089 C   0  0  0  0  0  0  0  0  0  0  0  0
    0.8123   -3.1898   -0.6310 C   0  0  0  0  0  0  0  0  0  0  0  0
   -0.4031   -2.6127   -0.2018 C   0  0  0  0  0  0  0  0  0  0  0  0
   -1.6620   -3.3307   -0.0854 C   0  0  0  0  0  0  0  0  0  0  0  0
   -2.5429   -3.1368    0.9775 C   0  0  0  0  0  0  0  0  0  0  0  0
   -3.7128   -3.8686    1.0535 C   0  0  0  0  0  0  0  0  0  0  0  0
   -4.0228   -4.8019    0.0787 C   0  0  0  0  0  0  0  0  0  0  0  0
   -3.1503   -5.0068   -0.9782 C   0  0  0  0  0  0  0  0  0  0  0  0
   -1.9772   -4.2833   -1.0581 C   0  0  0  0  0  0  0  0  0  0  0  0
   -0.1996   -1.3109    0.0593 N   0  0  0  0  0  4  0  0  0  0  0  0
   -1.1985   -0.2503    0.5849 B   0  0  0  0  0  4  0  0  0  0  0  0
   -2.4118   -0.3705   -0.0468 F   0  0  0  0  0  0  0  0  0  0  0  0
   -1.3391   -0.4269    1.9597 F   0  0  0  0  0  0  0  0  0  0  0  0
   -0.5885    1.1545    0.3424 N   0  0  0  0  0  0  0  0  0  0  0  0
    0.7570    1.3484    0.1099 C   0  0  0  0  0  0  0  0  0  0  0  0
    1.0103    2.7392    0.1017 C   0  0  0  0  0  0  0  0  0  0  0  0
   -0.1985    3.3625    0.2829 C   0  0  0  0  0  0  0  0  0  0  0  0
   -1.1774    2.3571    0.4416 C   0  0  0  0  0  0  0  0  0  0  0  0
   -2.5926    2.6164    0.6565 C   0  0  0  0  0  0  0  0  0  0  0  0
   -3.1910    3.6523   -0.0660 C   0  0  0  0  0  0  0  0  0  0  0  0
   -4.5259    3.9548    0.1146 C   0  0  0  0  0  0  0  0  0  0  0  0
   -5.2832    3.2392    1.0280 C   0  0  0  0  0  0  0  0  0  0  0  0
   -4.6951    2.2201    1.7580 C   0  0  0  0  0  0  0  0  0  0  0  0
   -3.3608    1.9072    1.5780 C   0  0  0  0  0  0  0  0  0  0  0  0
    3.4736    1.4054   -1.3608 C   0  0  0  0  0  0  0  0  0  0  0  0
    4.8212    1.6126   -1.5840 C   0  0  0  0  0  0  0  0  0  0  0  0
    7.8195    0.2965   -0.8771 H   0  0  0  0  0  0  0  0  0  0  0  0
    7.5974    1.9624   -0.3525 H   0  0  0  0  0  0  0  0  0  0  0  0
    7.4279    1.5560   -2.0593 H   0  0  0  0  0  0  0  0  0  0  0  0
    6.0878   -0.4544    0.7556 H   0  0  0  0  0  0  0  0  0  0  0  0
    3.6929   -0.8372    1.1521 H   0  0  0  0  0  0  0  0  0  0  0  0
    2.8025   -2.2882   -0.8820 H   0  0  0  0  0  0  0  0  0  0  0  0
    0.9451   -4.2203   -0.8961 H   0  0  0  0  0  0  0  0  0  0  0  0
   -2.3047   -2.4271    1.7502 H   0  0  0  0  0  0  0  0  0  0  0  0
   -4.3875   -3.7097    1.8816 H   0  0  0  0  0  0  0  0  0  0  0  0
   -4.9400   -5.3692    0.1409 H   0  0  0  0  0  0  0  0  0  0  0  0
   -3.3870   -5.7324   -1.7429 H   0  0  0  0  0  0  0  0  0  0  0  0
   -1.3076   -4.4328   -1.8924 H   0  0  0  0  0  0  0  0  0  0  0  0
    1.9716    3.1976   -0.0207 H   0  0  0  0  0  0  0  0  0  0  0  0
   -0.3856    4.4171    0.3356 H   0  0  0  0  0  0  0  0  0  0  0  0
   -2.6070    4.2012   -0.7903 H   0  0  0  0  0  0  0  0  0  0  0  0
   -4.9787    4.7506   -0.4591 H   0  0  0  0  0  0  0  0  0  0  0  0
   -6.3271    3.4775    1.1701 H   0  0  0  0  0  0  0  0  0  0  0  0
   -5.2801    1.6641    2.4755 H   0  0  0  0  0  0  0  0  0  0  0  0
   -2.9115    1.1253    2.1643 H   0  0  0  0  0  0  0  0  0  0  0  0
    2.7400    1.9071   -1.9741 H   0  0  0  0  0  0  0  0  0  0  0  0
    5.1327    2.2961   -2.3609 H   0  0  0  0  0  0  0  0  0  0  0  0
  1  2  1  0  0  0  0
  2  3  2  0  0  0  0
  3  4  1  0  0  0  0
  4  5  2  0  0  0  0
  5  6  1  0  0  0  0
  6  7  2  0  0  0  0
  7  8  1  0  0  0  0
  8  9  2  0  0  0  0
  9 10  1  0  0  0  0
 10 11  1  0  0  0  0
 11 12  2  0  0  0  0
 12 13  1  0  0  0  0
 13 14  2  0  0  0  0
 14 15  1  0  0  0  0
 15 16  2  0  0  0  0
 10 17  2  0  0  0  0
 17 18  1  0  0  0  0
 18 19  1  0  0  0  0
 18 20  1  0  0  0  0
 18 21  1  0  0  0  0
 21 22  1  0  0  0  0
 22 23  2  0  0  0  0
 23 24  1  0  0  0  0
 24 25  2  0  0  0  0
 25 26  1  0  0  0  0
 26 27  2  0  0  0  0
 27 28  1  0  0  0  0
 28 29  2  0  0  0  0
 29 30  1  0  0  0  0
 30 31  2  0  0  0  0
  5 32  1  0  0  0  0
 32 33  2  0  0  0  0
 33  2  1  0  0  0  0
 22  6  1  0  0  0  0
 31 26  1  0  0  0  0
 17  7  1  0  0  0  0
 25 21  1  0  0  0  0
 16 11  1  0  0  0  0
  1 34  1  0  0  0  0
  1 35  1  0  0  0  0
  1 36  1  0  0  0  0
  3 37  1  0  0  0  0
  4 38  1  0  0  0  0
  8 39  1  0  0  0  0
  9 40  1  0  0  0  0
 12 41  1  0  0  0  0
 13 42  1  0  0  0  0
 14 43  1  0  0  0  0
 15 44  1  0  0  0  0
 16 45  1  0  0  0  0
 23 46  1  0  0  0  0
 24 47  1  0  0  0  0
 27 48  1  0  0  0  0
 28 49  1  0  0  0  0
 29 50  1  0  0  0  0
 30 51  1  0  0  0  0
 31 52  1  0  0  0  0
 32 53  1  0  0  0  0
 33 54  1  0  0  0  0
M  CHG  1  17   1
M  CHG  1  18  -1
M  END
