
  xtb     03022215263D
 energy: -39.486373039296 gnorm: 0.000191857284 xtb: 6.4.1 (afa7bdf)
 28 29  0     0  0            999 V2000
   -5.6010    0.0974    0.2206 N   0  0  0  0  0  0  0  0  0  0  0  0
   -4.2322    0.0274    0.0858 C   0  0  0  0  0  0  0  0  0  0  0  0
   -3.6437   -0.9162   -0.7583 C   0  0  0  0  0  0  0  0  0  0  0  0
   -2.2741   -1.0290   -0.8323 C   0  0  0  0  0  0  0  0  0  0  0  0
   -1.4272   -0.2101   -0.0768 C   0  0  0  0  0  0  0  0  0  0  0  0
    0.0046   -0.3799   -0.2007 C   0  0  0  0  0  0  0  0  0  0  0  0
    0.9546    0.3401    0.4157 C   0  0  0  0  0  0  0  0  0  0  0  0
    2.3886    0.1641    0.2912 C   0  0  0  0  0  0  0  0  0  0  0  0
    2.9799   -0.8641   -0.4485 C   0  0  0  0  0  0  0  0  0  0  0  0
    4.3532   -0.9809   -0.5282 C   0  0  0  0  0  0  0  0  0  0  0  0
    5.1752   -0.0775    0.1263 C   0  0  0  0  0  0  0  0  0  0  0  0
    4.6077    0.9469    0.8660 C   0  0  0  0  0  0  0  0  0  0  0  0
    3.2346    1.0641    0.9477 C   0  0  0  0  0  0  0  0  0  0  0  0
   -2.0278    0.7324    0.7643 C   0  0  0  0  0  0  0  0  0  0  0  0
   -3.3965    0.8502    0.8447 C   0  0  0  0  0  0  0  0  0  0  0  0
   -5.9750    0.9446    0.6155 H   0  0  0  0  0  0  0  0  0  0  0  0
   -6.1508   -0.3062   -0.5199 H   0  0  0  0  0  0  0  0  0  0  0  0
   -4.2762   -1.5603   -1.3533 H   0  0  0  0  0  0  0  0  0  0  0  0
   -1.8412   -1.7664   -1.4941 H   0  0  0  0  0  0  0  0  0  0  0  0
    0.2981   -1.1771   -0.8717 H   0  0  0  0  0  0  0  0  0  0  0  0
    0.6631    1.1475    1.0749 H   0  0  0  0  0  0  0  0  0  0  0  0
    2.3610   -1.5832   -0.9629 H   0  0  0  0  0  0  0  0  0  0  0  0
    4.7892   -1.7845   -1.1047 H   0  0  0  0  0  0  0  0  0  0  0  0
    6.2491   -0.1727    0.0614 H   0  0  0  0  0  0  0  0  0  0  0  0
    5.2400    1.6558    1.3814 H   0  0  0  0  0  0  0  0  0  0  0  0
    2.8006    1.8670    1.5278 H   0  0  0  0  0  0  0  0  0  0  0  0
   -1.4150    1.3851    1.3667 H   0  0  0  0  0  0  0  0  0  0  0  0
   -3.8392    1.5852    1.5027 H   0  0  0  0  0  0  0  0  0  0  0  0
  1  2  1  0  0  0  0
  2  3  2  0  0  0  0
  3  4  1  0  0  0  0
  4  5  2  0  0  0  0
  5  6  1  0  0  0  0
  6  7  2  0  0  0  0
  7  8  1  0  0  0  0
  8  9  2  0  0  0  0
  9 10  1  0  0  0  0
 10 11  2  0  0  0  0
 11 12  1  0  0  0  0
 12 13  2  0  0  0  0
  5 14  1  0  0  0  0
 14 15  2  0  0  0  0
 15  2  1  0  0  0  0
 13  8  1  0  0  0  0
  1 16  1  0  0  0  0
  1 17  1  0  0  0  0
  3 18  1  0  0  0  0
  4 19  1  0  0  0  0
  6 20  1  0  0  0  0
  7 21  1  0  0  0  0
  9 22  1  0  0  0  0
 10 23  1  0  0  0  0
 11 24  1  0  0  0  0
 12 25  1  0  0  0  0
 13 26  1  0  0  0  0
 14 27  1  0  0  0  0
 15 28  1  0  0  0  0
M  END
