
  xtb     03022212403D
 energy: -97.133826973205 gnorm: 0.000162330399 xtb: 6.4.1 (afa7bdf)
 63 68  0     0  0            999 V2000
   -7.0306    1.4404    2.4126 C   0  0  0  0  0  0  0  0  0  0  0  0
   -5.7533    0.9907    3.1123 C   0  0  0  0  0  0  0  0  0  0  0  0
   -5.5710   -0.5283    3.1214 C   0  0  0  0  0  0  0  0  0  0  0  0
   -5.5205   -1.1784    1.7382 C   0  0  0  0  0  0  0  0  0  0  0  0
   -4.3705   -0.6692    0.8746 C   0  0  0  0  0  0  0  0  0  0  0  0
   -4.2964   -1.4412   -0.4413 C   0  0  0  0  0  0  0  0  0  0  0  0
   -3.2451   -0.9193   -1.3066 N   0  0  0  0  0  0  0  0  0  0  0  0
   -3.5869    0.1419   -2.1314 C   0  0  0  0  0  0  0  0  0  0  0  0
   -4.7127    0.5986   -2.1164 O   0  0  0  0  0  0  0  0  0  0  0  0
   -2.5246    0.6619   -3.0060 C   0  0  0  0  0  0  0  0  0  0  0  0
   -2.7927    1.7076   -3.8661 C   0  0  0  0  0  0  0  0  0  0  0  0
   -1.7911    2.1995   -4.7079 C   0  0  0  0  0  0  0  0  0  0  0  0
   -0.5354    1.6507   -4.6939 C   0  0  0  0  0  0  0  0  0  0  0  0
   -0.2218    0.5791   -3.8294 C   0  0  0  0  0  0  0  0  0  0  0  0
    1.0506   -0.0131   -3.7890 C   0  0  0  0  0  0  0  0  0  0  0  0
    1.3285   -1.0610   -2.9258 C   0  0  0  0  0  0  0  0  0  0  0  0
    2.5189   -1.7268   -2.9980 N   0  0  0  0  0  0  0  0  0  0  0  0
    3.5270   -1.6574   -2.2366 C   0  0  0  0  0  0  0  0  0  0  0  0
    3.7380   -0.8053   -1.0977 C   0  0  0  0  0  0  0  0  0  0  0  0
    2.8744    0.1200   -0.5418 C   0  0  0  0  0  0  0  0  0  0  0  0
    3.4651    0.7077    0.5240 N   0  0  0  0  0  0  0  0  0  0  0  0
    4.7205    0.1933    0.6985 C   0  0  0  0  0  0  0  0  0  0  0  0
    4.9319   -0.7633   -0.3031 C   0  0  0  0  0  0  0  0  0  0  0  0
    6.1564   -1.4559   -0.3631 C   0  0  0  0  0  0  0  0  0  0  0  0
    7.1147   -1.1744    0.5628 C   0  0  0  0  0  0  0  0  0  0  0  0
    6.9202   -0.2066    1.5849 C   0  0  0  0  0  0  0  0  0  0  0  0
    7.9244    0.0710    2.5304 C   0  0  0  0  0  0  0  0  0  0  0  0
    7.7307    1.0062    3.5123 C   0  0  0  0  0  0  0  0  0  0  0  0
    6.5213    1.7058    3.5927 C   0  0  0  0  0  0  0  0  0  0  0  0
    5.5206    1.4615    2.6894 C   0  0  0  0  0  0  0  0  0  0  0  0
    5.6952    0.5074    1.6720 C   0  0  0  0  0  0  0  0  0  0  0  0
    0.3049   -1.5430   -2.0789 C   0  0  0  0  0  0  0  0  0  0  0  0
   -0.9494   -0.9799   -2.0977 C   0  0  0  0  0  0  0  0  0  0  0  0
   -1.2403    0.0870   -2.9730 C   0  0  0  0  0  0  0  0  0  0  0  0
   -1.9906   -1.4958   -1.1929 C   0  0  0  0  0  0  0  0  0  0  0  0
   -1.7834   -2.3793   -0.3851 O   0  0  0  0  0  0  0  0  0  0  0  0
   -7.1759    2.5102    2.5458 H   0  0  0  0  0  0  0  0  0  0  0  0
   -7.8939    0.9234    2.8265 H   0  0  0  0  0  0  0  0  0  0  0  0
   -6.9837    1.2379    1.3461 H   0  0  0  0  0  0  0  0  0  0  0  0
   -4.8928    1.4629    2.6356 H   0  0  0  0  0  0  0  0  0  0  0  0
   -5.7775    1.3336    4.1501 H   0  0  0  0  0  0  0  0  0  0  0  0
   -6.3968   -0.9756    3.6805 H   0  0  0  0  0  0  0  0  0  0  0  0
   -4.6468   -0.7641    3.6551 H   0  0  0  0  0  0  0  0  0  0  0  0
   -5.4079   -2.2573    1.8718 H   0  0  0  0  0  0  0  0  0  0  0  0
   -6.4637   -1.0099    1.2167 H   0  0  0  0  0  0  0  0  0  0  0  0
   -4.5134    0.3878    0.6455 H   0  0  0  0  0  0  0  0  0  0  0  0
   -3.4252   -0.7855    1.4097 H   0  0  0  0  0  0  0  0  0  0  0  0
   -4.0741   -2.4931   -0.2526 H   0  0  0  0  0  0  0  0  0  0  0  0
   -5.2407   -1.3483   -0.9818 H   0  0  0  0  0  0  0  0  0  0  0  0
   -3.7851    2.1316   -3.8766 H   0  0  0  0  0  0  0  0  0  0  0  0
   -2.0171    3.0177   -5.3755 H   0  0  0  0  0  0  0  0  0  0  0  0
    0.2361    2.0290   -5.3490 H   0  0  0  0  0  0  0  0  0  0  0  0
    1.8296    0.3562   -4.4395 H   0  0  0  0  0  0  0  0  0  0  0  0
    4.3479   -2.3220   -2.4896 H   0  0  0  0  0  0  0  0  0  0  0  0
    1.8804    0.3899   -0.8418 H   0  0  0  0  0  0  0  0  0  0  0  0
    3.0389    1.4103    1.1052 H   0  0  0  0  0  0  0  0  0  0  0  0
    6.3272   -2.1952   -1.1307 H   0  0  0  0  0  0  0  0  0  0  0  0
    8.0621   -1.6929    0.5370 H   0  0  0  0  0  0  0  0  0  0  0  0
    8.8579   -0.4696    2.4685 H   0  0  0  0  0  0  0  0  0  0  0  0
    8.5102    1.2096    4.2315 H   0  0  0  0  0  0  0  0  0  0  0  0
    6.3814    2.4402    4.3720 H   0  0  0  0  0  0  0  0  0  0  0  0
    4.5886    2.0050    2.7570 H   0  0  0  0  0  0  0  0  0  0  0  0
    0.5077   -2.3640   -1.4074 H   0  0  0  0  0  0  0  0  0  0  0  0
  1  2  1  0  0  0  0
  2  3  1  0  0  0  0
  3  4  1  0  0  0  0
  4  5  1  0  0  0  0
  5  6  1  0  0  0  0
  6  7  1  0  0  0  0
  7  8  1  0  0  0  0
  8  9  2  0  0  0  0
  8 10  1  0  0  0  0
 10 11  1  0  0  0  0
 11 12  2  0  0  0  0
 12 13  1  0  0  0  0
 13 14  2  0  0  0  0
 14 15  1  0  0  0  0
 15 16  2  0  0  0  0
 16 17  1  0  0  0  0
 17 18  2  0  0  0  0
 18 19  1  0  0  0  0
 19 20  2  0  0  0  0
 20 21  1  0  0  0  0
 21 22  1  0  0  0  0
 22 23  2  0  0  0  0
 23 24  1  0  0  0  0
 24 25  2  0  0  0  0
 25 26  1  0  0  0  0
 26 27  2  0  0  0  0
 27 28  1  0  0  0  0
 28 29  2  0  0  0  0
 29 30  1  0  0  0  0
 30 31  2  0  0  0  0
 16 32  1  0  0  0  0
 32 33  2  0  0  0  0
 33 34  1  0  0  0  0
 33 35  1  0  0  0  0
 35 36  2  0  0  0  0
 35  7  1  0  0  0  0
 34 10  2  0  0  0  0
 34 14  1  0  0  0  0
 23 19  1  0  0  0  0
 31 26  1  0  0  0  0
 31 22  1  0  0  0  0
  1 37  1  0  0  0  0
  1 38  1  0  0  0  0
  1 39  1  0  0  0  0
  2 40  1  0  0  0  0
  2 41  1  0  0  0  0
  3 42  1  0  0  0  0
  3 43  1  0  0  0  0
  4 44  1  0  0  0  0
  4 45  1  0  0  0  0
  5 46  1  0  0  0  0
  5 47  1  0  0  0  0
  6 48  1  0  0  0  0
  6 49  1  0  0  0  0
 11 50  1  0  0  0  0
 12 51  1  0  0  0  0
 13 52  1  0  0  0  0
 15 53  1  0  0  0  0
 18 54  1  0  0  0  0
 20 55  1  0  0  0  0
 21 56  1  0  0  0  0
 24 57  1  0  0  0  0
 25 58  1  0  0  0  0
 27 59  1  0  0  0  0
 28 60  1  0  0  0  0
 29 61  1  0  0  0  0
 30 62  1  0  0  0  0
 32 63  1  0  0  0  0
M  END
