
  xtb     03022215143D
 energy: -100.011910809651 gnorm: 0.000140743422 xtb: 6.4.1 (afa7bdf)
 62 69  0     0  0            999 V2000
   -8.9340   -2.7337   -2.0988 C   0  0  0  0  0  0  0  0  0  0  0  0
   -9.4660   -1.8277   -1.1933 C   0  0  0  0  0  0  0  0  0  0  0  0
   -8.6198   -0.9227   -0.5798 C   0  0  0  0  0  0  0  0  0  0  0  0
   -7.2608   -0.9555   -0.8961 C   0  0  0  0  0  0  0  0  0  0  0  0
   -6.3232   -0.0112   -0.2729 C   0  0  0  0  0  0  0  0  0  0  0  0
   -4.9666   -0.0515   -0.5874 C   0  0  0  0  0  0  0  0  0  0  0  0
   -4.1008    0.8543    0.0147 C   0  0  0  0  0  0  0  0  0  0  0  0
   -2.6698    0.8646   -0.3262 C   0  0  0  0  0  0  0  0  0  0  0  0
   -2.3168    0.9496   -1.6701 C   0  0  0  0  0  0  0  0  0  0  0  0
   -0.9972    1.0338   -2.0588 C   0  0  0  0  0  0  0  0  0  0  0  0
    0.0255    1.0252   -1.1088 C   0  0  0  0  0  0  0  0  0  0  0  0
    1.3951    1.1562   -1.4739 C   0  0  0  0  0  0  0  0  0  0  0  0
    2.3782    1.1286   -0.5448 C   0  0  0  0  0  0  0  0  0  0  0  0
    2.0847    0.9508    0.8400 C   0  0  0  0  0  0  0  0  0  0  0  0
    3.0882    0.9002    1.8239 C   0  0  0  0  0  0  0  0  0  0  0  0
    4.5167    0.9149    1.4719 C   0  0  0  0  0  0  0  0  0  0  0  0
    5.3908    1.8363    2.0448 C   0  0  0  0  0  0  0  0  0  0  0  0
    6.7301    1.7836    1.6931 C   0  0  0  0  0  0  0  0  0  0  0  0
    7.2309    0.9109    0.8416 N   0  0  0  0  0  0  0  0  0  0  0  0
    6.4102    0.0219    0.2915 C   0  0  0  0  0  0  0  0  0  0  0  0
    7.0013   -0.9406   -0.6580 C   0  0  0  0  0  0  0  0  0  0  0  0
    6.3079   -1.3330   -1.8048 C   0  0  0  0  0  0  0  0  0  0  0  0
    6.9049   -2.2370   -2.6654 C   0  0  0  0  0  0  0  0  0  0  0  0
    8.1662   -2.7217   -2.3572 C   0  0  0  0  0  0  0  0  0  0  0  0
    8.7724   -2.2652   -1.1952 C   0  0  0  0  0  0  0  0  0  0  0  0
    8.2127   -1.4029   -0.3712 N   0  0  0  0  0  0  0  0  0  0  0  0
    5.0485   -0.0162    0.5841 C   0  0  0  0  0  0  0  0  0  0  0  0
    2.7361    0.8122    3.1673 C   0  0  0  0  0  0  0  0  0  0  0  0
    1.4163    0.7264    3.5560 C   0  0  0  0  0  0  0  0  0  0  0  0
    0.3933    0.7361    2.6064 C   0  0  0  0  0  0  0  0  0  0  0  0
   -0.9764    0.6051    2.9714 C   0  0  0  0  0  0  0  0  0  0  0  0
   -1.9598    0.6349    2.0426 C   0  0  0  0  0  0  0  0  0  0  0  0
   -1.6667    0.8131    0.6579 C   0  0  0  0  0  0  0  0  0  0  0  0
   -0.3066    0.8991    0.2624 C   0  0  0  0  0  0  0  0  0  0  0  0
    0.7248    0.8635    1.2352 C   0  0  0  0  0  0  0  0  0  0  0  0
   -4.6480    1.7794    0.9048 C   0  0  0  0  0  0  0  0  0  0  0  0
   -6.0107    1.7360    1.1502 C   0  0  0  0  0  0  0  0  0  0  0  0
   -6.8314    0.8704    0.5875 N   0  0  0  0  0  0  0  0  0  0  0  0
   -6.7534   -1.8268   -1.7666 N   0  0  0  0  0  0  0  0  0  0  0  0
   -7.5692   -2.6853   -2.3451 C   0  0  0  0  0  0  0  0  0  0  0  0
   -9.5581   -3.4570   -2.6003 H   0  0  0  0  0  0  0  0  0  0  0  0
  -10.5238   -1.8291   -0.9713 H   0  0  0  0  0  0  0  0  0  0  0  0
   -8.9739   -0.1948    0.1316 H   0  0  0  0  0  0  0  0  0  0  0  0
   -4.6113   -0.7945   -1.2831 H   0  0  0  0  0  0  0  0  0  0  0  0
   -3.1003    0.9768   -2.4137 H   0  0  0  0  0  0  0  0  0  0  0  0
   -0.7448    1.1173   -3.1060 H   0  0  0  0  0  0  0  0  0  0  0  0
    1.6313    1.2899   -2.5202 H   0  0  0  0  0  0  0  0  0  0  0  0
    3.4085    1.2584   -0.8416 H   0  0  0  0  0  0  0  0  0  0  0  0
    5.0265    2.5810    2.7361 H   0  0  0  0  0  0  0  0  0  0  0  0
    7.4421    2.4828    2.1127 H   0  0  0  0  0  0  0  0  0  0  0  0
    5.3336   -0.9237   -2.0256 H   0  0  0  0  0  0  0  0  0  0  0  0
    6.3952   -2.5564   -3.5636 H   0  0  0  0  0  0  0  0  0  0  0  0
    8.6654   -3.4295   -3.0006 H   0  0  0  0  0  0  0  0  0  0  0  0
    9.7574   -2.6098   -0.9069 H   0  0  0  0  0  0  0  0  0  0  0  0
    4.4147   -0.7798    0.1581 H   0  0  0  0  0  0  0  0  0  0  0  0
    3.5198    0.7819    3.9110 H   0  0  0  0  0  0  0  0  0  0  0  0
    1.1643    0.6403    4.6031 H   0  0  0  0  0  0  0  0  0  0  0  0
   -1.2129    0.4709    4.0175 H   0  0  0  0  0  0  0  0  0  0  0  0
   -2.9899    0.5077    2.3405 H   0  0  0  0  0  0  0  0  0  0  0  0
   -4.0258    2.5254    1.3757 H   0  0  0  0  0  0  0  0  0  0  0  0
   -6.4731    2.4359    1.8352 H   0  0  0  0  0  0  0  0  0  0  0  0
   -7.1031   -3.3699   -3.0429 H   0  0  0  0  0  0  0  0  0  0  0  0
  1  2  2  0  0  0  0
  2  3  1  0  0  0  0
  3  4  2  0  0  0  0
  4  5  1  0  0  0  0
  5  6  2  0  0  0  0
  6  7  1  0  0  0  0
  7  8  1  0  0  0  0
  8  9  2  0  0  0  0
  9 10  1  0  0  0  0
 10 11  2  0  0  0  0
 11 12  1  0  0  0  0
 12 13  2  0  0  0  0
 13 14  1  0  0  0  0
 14 15  2  0  0  0  0
 15 16  1  0  0  0  0
 16 17  2  0  0  0  0
 17 18  1  0  0  0  0
 18 19  2  0  0  0  0
 19 20  1  0  0  0  0
 20 21  1  0  0  0  0
 21 22  2  0  0  0  0
 22 23  1  0  0  0  0
 23 24  2  0  0  0  0
 24 25  1  0  0  0  0
 25 26  2  0  0  0  0
 20 27  2  0  0  0  0
 15 28  1  0  0  0  0
 28 29  2  0  0  0  0
 29 30  1  0  0  0  0
 30 31  2  0  0  0  0
 31 32  1  0  0  0  0
 32 33  2  0  0  0  0
 33 34  1  0  0  0  0
 34 35  2  0  0  0  0
  7 36  2  0  0  0  0
 36 37  1  0  0  0  0
 37 38  2  0  0  0  0
  4 39  1  0  0  0  0
 39 40  2  0  0  0  0
 40  1  1  0  0  0  0
 38  5  1  0  0  0  0
 33  8  1  0  0  0  0
 34 11  1  0  0  0  0
 35 14  1  0  0  0  0
 27 16  1  0  0  0  0
 35 30  1  0  0  0  0
 26 21  1  0  0  0  0
  1 41  1  0  0  0  0
  2 42  1  0  0  0  0
  3 43  1  0  0  0  0
  6 44  1  0  0  0  0
  9 45  1  0  0  0  0
 10 46  1  0  0  0  0
 12 47  1  0  0  0  0
 13 48  1  0  0  0  0
 17 49  1  0  0  0  0
 18 50  1  0  0  0  0
 22 51  1  0  0  0  0
 23 52  1  0  0  0  0
 24 53  1  0  0  0  0
 25 54  1  0  0  0  0
 27 55  1  0  0  0  0
 28 56  1  0  0  0  0
 29 57  1  0  0  0  0
 31 58  1  0  0  0  0
 32 59  1  0  0  0  0
 36 60  1  0  0  0  0
 37 61  1  0  0  0  0
 40 62  1  0  0  0  0
M  END
