
  xtb     03022212123D
 energy: -78.747072207973 gnorm: 0.000069241692 xtb: 6.4.1 (afa7bdf)
 53 56  0     0  0            999 V2000
   -8.0876   -1.0965    1.7277 C   0  0  0  0  0  0  0  0  0  0  0  0
   -7.5286   -0.0473    0.7735 C   0  0  0  0  0  0  0  0  0  0  0  0
   -6.4182    0.7999    1.3965 C   0  0  0  0  0  0  0  0  0  0  0  0
   -5.1226    0.0375    1.6835 C   0  0  0  0  0  0  0  0  0  0  0  0
   -4.3960   -0.4364    0.4116 C   0  0  0  0  0  0  0  0  0  0  0  0
   -4.4669   -1.9587    0.2124 C   0  0  0  0  0  0  0  0  0  0  0  0
   -3.6632   -2.7745    1.2198 C   0  0  0  0  0  0  0  0  0  0  0  0
   -2.9440    0.0523    0.4190 C   0  0  0  0  0  0  0  0  0  0  0  0
   -2.3271   -0.3648   -0.7825 O   0  0  0  0  0  0  0  0  0  0  0  0
   -0.9927   -0.1924   -0.9325 C   0  0  0  0  0  0  0  0  0  0  0  0
   -0.4491   -0.7270   -2.1155 C   0  0  0  0  0  0  0  0  0  0  0  0
    0.8910   -0.6420   -2.3944 C   0  0  0  0  0  0  0  0  0  0  0  0
    1.7368   -0.0115   -1.4811 C   0  0  0  0  0  0  0  0  0  0  0  0
    3.0788    0.1391   -1.6001 N   0  0  0  0  0  0  0  0  0  0  0  0
    3.5988    0.7584   -0.6032 C   0  0  0  0  0  0  0  0  0  0  0  0
    4.9796    1.0432   -0.4438 C   0  0  0  0  0  0  0  0  0  0  0  0
    5.6037    1.7049    0.5894 C   0  0  0  0  0  0  0  0  0  0  0  0
    6.9868    1.7913    0.4286 C   0  0  0  0  0  0  0  0  0  0  0  0
    7.4384    1.1950   -0.7303 C   0  0  0  0  0  0  0  0  0  0  0  0
    8.7873    1.0975   -1.1887 C   0  0  0  0  0  0  0  0  0  0  0  0
    9.9260    1.5661   -0.5784 C   0  0  0  0  0  0  0  0  0  0  0  0
   11.0958    1.2904   -1.3070 C   0  0  0  0  0  0  0  0  0  0  0  0
   10.8489    0.6175   -2.4628 C   0  0  0  0  0  0  0  0  0  0  0  0
    9.1764    0.3045   -2.6878 S   0  0  0  0  0  0  0  0  0  0  0  0
    6.1212    0.5183   -1.6401 S   0  0  0  0  0  0  0  0  0  0  0  0
    2.4333    1.2574    0.6580 S   0  0  0  0  0  0  0  0  0  0  0  0
    1.1813    0.5329   -0.3012 C   0  0  0  0  0  0  0  0  0  0  0  0
   -0.1712    0.4526   -0.0173 C   0  0  0  0  0  0  0  0  0  0  0  0
   -8.4491   -0.6268    2.6401 H   0  0  0  0  0  0  0  0  0  0  0  0
   -7.3307   -1.8288    1.9964 H   0  0  0  0  0  0  0  0  0  0  0  0
   -8.9172   -1.6246    1.2630 H   0  0  0  0  0  0  0  0  0  0  0  0
   -8.3405    0.6198    0.4739 H   0  0  0  0  0  0  0  0  0  0  0  0
   -7.1575   -0.5350   -0.1293 H   0  0  0  0  0  0  0  0  0  0  0  0
   -6.1927    1.6339    0.7273 H   0  0  0  0  0  0  0  0  0  0  0  0
   -6.7881    1.2229    2.3339 H   0  0  0  0  0  0  0  0  0  0  0  0
   -4.4642    0.6984    2.2523 H   0  0  0  0  0  0  0  0  0  0  0  0
   -5.3450   -0.8153    2.3235 H   0  0  0  0  0  0  0  0  0  0  0  0
   -4.8737    0.0224   -0.4603 H   0  0  0  0  0  0  0  0  0  0  0  0
   -5.5147   -2.2598    0.2619 H   0  0  0  0  0  0  0  0  0  0  0  0
   -4.1021   -2.1884   -0.7901 H   0  0  0  0  0  0  0  0  0  0  0  0
   -3.9018   -2.4929    2.2432 H   0  0  0  0  0  0  0  0  0  0  0  0
   -2.5955   -2.6430    1.0646 H   0  0  0  0  0  0  0  0  0  0  0  0
   -3.8883   -3.8319    1.0986 H   0  0  0  0  0  0  0  0  0  0  0  0
   -2.4119   -0.3595    1.2855 H   0  0  0  0  0  0  0  0  0  0  0  0
   -2.9241    1.1496    0.4876 H   0  0  0  0  0  0  0  0  0  0  0  0
   -1.1276   -1.2127   -2.7986 H   0  0  0  0  0  0  0  0  0  0  0  0
    1.3063   -1.0549   -3.2992 H   0  0  0  0  0  0  0  0  0  0  0  0
    5.0658    2.1078    1.4294 H   0  0  0  0  0  0  0  0  0  0  0  0
    7.6376    2.2720    1.1356 H   0  0  0  0  0  0  0  0  0  0  0  0
    9.9203    2.0885    0.3605 H   0  0  0  0  0  0  0  0  0  0  0  0
   12.0803    1.5797   -0.9855 H   0  0  0  0  0  0  0  0  0  0  0  0
   11.5504    0.2837   -3.2011 H   0  0  0  0  0  0  0  0  0  0  0  0
   -0.5528    0.8865    0.8922 H   0  0  0  0  0  0  0  0  0  0  0  0
  1  2  1  0  0  0  0
  2  3  1  0  0  0  0
  3  4  1  0  0  0  0
  4  5  1  0  0  0  0
  5  6  1  0  0  0  0
  6  7  1  0  0  0  0
  5  8  1  0  0  0  0
  8  9  1  0  0  0  0
  9 10  1  0  0  0  0
 10 11  2  0  0  0  0
 11 12  1  0  0  0  0
 12 13  2  0  0  0  0
 13 14  1  0  0  0  0
 14 15  2  0  0  0  0
 15 16  1  0  0  0  0
 16 17  2  0  0  0  0
 17 18  1  0  0  0  0
 18 19  2  0  0  0  0
 19 20  1  0  0  0  0
 20 21  2  0  0  0  0
 21 22  1  0  0  0  0
 22 23  2  0  0  0  0
 23 24  1  0  0  0  0
 19 25  1  0  0  0  0
 15 26  1  0  0  0  0
 26 27  1  0  0  0  0
 27 28  2  0  0  0  0
 28 10  1  0  0  0  0
 27 13  1  0  0  0  0
 25 16  1  0  0  0  0
 24 20  1  0  0  0  0
  1 29  1  0  0  0  0
  1 30  1  0  0  0  0
  1 31  1  0  0  0  0
  2 32  1  0  0  0  0
  2 33  1  0  0  0  0
  3 34  1  0  0  0  0
  3 35  1  0  0  0  0
  4 36  1  0  0  0  0
  4 37  1  0  0  0  0
  5 38  1  0  0  0  0
  6 39  1  0  0  0  0
  6 40  1  0  0  0  0
  7 41  1  0  0  0  0
  7 42  1  0  0  0  0
  7 43  1  0  0  0  0
  8 44  1  0  0  0  0
  8 45  1  0  0  0  0
 11 46  1  0  0  0  0
 12 47  1  0  0  0  0
 17 48  1  0  0  0  0
 18 49  1  0  0  0  0
 21 50  1  0  0  0  0
 22 51  1  0  0  0  0
 23 52  1  0  0  0  0
 28 53  1  0  0  0  0
M  END
