
  xtb     03022214563D
 energy: -68.897794570918 gnorm: 0.000253522813 xtb: 6.4.1 (afa7bdf)
 39 42  0     0  0            999 V2000
   -2.9584   -3.6509   -0.7204 C   0  0  0  0  0  0  0  0  0  0  0  0
   -1.5744   -3.9146   -0.8972 O   0  0  0  0  0  0  0  0  0  0  0  0
   -0.6244   -3.0171   -0.7219 C   0  0  0  0  0  0  0  0  0  0  0  0
   -0.6915   -1.7199   -0.3848 N   0  0  0  0  0  4  0  0  0  0  0  0
    0.6165   -1.2402   -0.3213 C   0  0  0  0  0  0  0  0  0  0  0  0
    0.9286    0.0791   -0.0149 C   0  0  0  0  0  0  0  0  0  0  0  0
    2.3340    0.5059    0.0586 C   0  0  0  0  0  0  0  0  0  0  0  0
    3.2295   -0.1482    0.9008 C   0  0  0  0  0  0  0  0  0  0  0  0
    4.5481    0.2622    0.9727 C   0  0  0  0  0  0  0  0  0  0  0  0
    4.9908    1.3237    0.2010 C   0  0  0  0  0  0  0  0  0  0  0  0
    4.1064    1.9780   -0.6405 C   0  0  0  0  0  0  0  0  0  0  0  0
    2.7849    1.5766   -0.7091 C   0  0  0  0  0  0  0  0  0  0  0  0
   -0.0889    1.0045    0.2237 C   0  0  0  0  0  0  0  0  0  0  0  0
   -0.0428    2.3638    0.5848 C   0  0  0  0  0  0  0  0  0  0  0  0
   -1.3459    2.7989    0.7157 C   0  0  0  0  0  0  0  0  0  0  0  0
   -2.1695    1.6922    0.4404 C   0  0  0  0  0  0  0  0  0  0  0  0
   -3.4948    1.5809    0.4328 O   0  0  0  0  0  0  0  0  0  0  0  0
   -4.2388    2.7378    0.7472 C   0  0  0  0  0  0  0  0  0  0  0  0
   -1.4144    0.6249    0.1516 N   0  0  0  0  0  0  0  0  0  0  0  0
   -1.9284   -0.7951   -0.1526 B   0  0  0  0  0  4  0  0  0  0  0  0
   -2.7087   -0.7665   -1.2927 F   0  0  0  0  0  0  0  0  0  0  0  0
   -2.6636   -1.2504    0.9254 F   0  0  0  0  0  0  0  0  0  0  0  0
    1.4958   -2.2966   -0.6517 C   0  0  0  0  0  0  0  0  0  0  0  0
    0.7292   -3.4027   -0.8968 C   0  0  0  0  0  0  0  0  0  0  0  0
   -3.4508   -4.6005   -0.9236 H   0  0  0  0  0  0  0  0  0  0  0  0
   -3.3114   -2.8932   -1.4187 H   0  0  0  0  0  0  0  0  0  0  0  0
   -3.1734   -3.3309    0.2986 H   0  0  0  0  0  0  0  0  0  0  0  0
    2.8787   -0.9655    1.5131 H   0  0  0  0  0  0  0  0  0  0  0  0
    5.2330   -0.2480    1.6338 H   0  0  0  0  0  0  0  0  0  0  0  0
    6.0217    1.6402    0.2555 H   0  0  0  0  0  0  0  0  0  0  0  0
    4.4480    2.8042   -1.2465 H   0  0  0  0  0  0  0  0  0  0  0  0
    2.0970    2.0755   -1.3752 H   0  0  0  0  0  0  0  0  0  0  0  0
    0.8485    2.9399    0.7369 H   0  0  0  0  0  0  0  0  0  0  0  0
   -1.6723    3.7847    0.9803 H   0  0  0  0  0  0  0  0  0  0  0  0
   -4.0199    3.0855    1.7611 H   0  0  0  0  0  0  0  0  0  0  0  0
   -4.0379    3.5437    0.0351 H   0  0  0  0  0  0  0  0  0  0  0  0
   -5.2843    2.4441    0.6801 H   0  0  0  0  0  0  0  0  0  0  0  0
    2.5633   -2.2170   -0.7070 H   0  0  0  0  0  0  0  0  0  0  0  0
    1.0407   -4.3888   -1.1740 H   0  0  0  0  0  0  0  0  0  0  0  0
  1  2  1  0  0  0  0
  2  3  1  0  0  0  0
  3  4  2  0  0  0  0
  4  5  1  0  0  0  0
  5  6  2  0  0  0  0
  6  7  1  0  0  0  0
  7  8  2  0  0  0  0
  8  9  1  0  0  0  0
  9 10  2  0  0  0  0
 10 11  1  0  0  0  0
 11 12  2  0  0  0  0
  6 13  1  0  0  0  0
 13 14  2  0  0  0  0
 14 15  1  0  0  0  0
 15 16  2  0  0  0  0
 16 17  1  0  0  0  0
 17 18  1  0  0  0  0
 16 19  1  0  0  0  0
 19 20  1  0  0  0  0
 20 21  1  0  0  0  0
 20 22  1  0  0  0  0
  5 23  1  0  0  0  0
 23 24  2  0  0  0  0
 24  3  1  0  0  0  0
 20  4  1  0  0  0  0
 12  7  1  0  0  0  0
 19 13  1  0  0  0  0
  1 25  1  0  0  0  0
  1 26  1  0  0  0  0
  1 27  1  0  0  0  0
  8 28  1  0  0  0  0
  9 29  1  0  0  0  0
 10 30  1  0  0  0  0
 11 31  1  0  0  0  0
 12 32  1  0  0  0  0
 14 33  1  0  0  0  0
 15 34  1  0  0  0  0
 18 35  1  0  0  0  0
 18 36  1  0  0  0  0
 18 37  1  0  0  0  0
 23 38  1  0  0  0  0
 24 39  1  0  0  0  0
M  CHG  1   4   1
M  CHG  1  20  -1
M  END
