
  xtb     03022212113D
 energy: -30.344703231702 gnorm: 0.000106434538 xtb: 6.4.1 (afa7bdf)
 20 20  0     0  0            999 V2000
   -3.5615    0.2073    0.2599 C   0  0  0  0  0  0  0  0  0  0  0  0
   -2.7010   -0.6655   -0.4272 O   0  0  0  0  0  0  0  0  0  0  0  0
   -1.3525   -0.4865   -0.2924 C   0  0  0  0  0  0  0  0  0  0  0  0
   -0.5445   -1.3882   -0.9895 C   0  0  0  0  0  0  0  0  0  0  0  0
    0.8251   -1.2983   -0.9211 C   0  0  0  0  0  0  0  0  0  0  0  0
    1.4354   -0.3034   -0.1533 C   0  0  0  0  0  0  0  0  0  0  0  0
    2.8024   -0.3041   -0.1526 O   0  0  0  0  0  0  0  0  0  0  0  0
    3.4693    0.6710    0.6084 C   0  0  0  0  0  0  0  0  0  0  0  0
    0.6354    0.5931    0.5376 C   0  0  0  0  0  0  0  0  0  0  0  0
   -0.7488    0.5021    0.4686 C   0  0  0  0  0  0  0  0  0  0  0  0
   -4.5710   -0.1211    0.0168 H   0  0  0  0  0  0  0  0  0  0  0  0
   -3.4146    0.1486    1.3437 H   0  0  0  0  0  0  0  0  0  0  0  0
   -3.4311    1.2442   -0.0681 H   0  0  0  0  0  0  0  0  0  0  0  0
   -1.0215   -2.1540   -1.5799 H   0  0  0  0  0  0  0  0  0  0  0  0
    1.4541   -1.9914   -1.4563 H   0  0  0  0  0  0  0  0  0  0  0  0
    3.2260    0.5881    1.6731 H   0  0  0  0  0  0  0  0  0  0  0  0
    3.2364    1.6832    0.2609 H   0  0  0  0  0  0  0  0  0  0  0  0
    4.5321    0.4794    0.4677 H   0  0  0  0  0  0  0  0  0  0  0  0
    1.0667    1.3766    1.1407 H   0  0  0  0  0  0  0  0  0  0  0  0
   -1.3363    1.2188    1.0207 H   0  0  0  0  0  0  0  0  0  0  0  0
  1  2  1  0  0  0  0
  2  3  1  0  0  0  0
  3  4  2  0  0  0  0
  4  5  1  0  0  0  0
  5  6  2  0  0  0  0
  6  7  1  0  0  0  0
  7  8  1  0  0  0  0
  6  9  1  0  0  0  0
  9 10  2  0  0  0  0
 10  3  1  0  0  0  0
  1 11  1  0  0  0  0
  1 12  1  0  0  0  0
  1 13  1  0  0  0  0
  4 14  1  0  0  0  0
  5 15  1  0  0  0  0
  8 16  1  0  0  0  0
  8 17  1  0  0  0  0
  8 18  1  0  0  0  0
  9 19  1  0  0  0  0
 10 20  1  0  0  0  0
M  END
