
  xtb     03022212263D
 energy: -59.350309116474 gnorm: 0.000103952182 xtb: 6.4.1 (afa7bdf)
 37 39  0     0  0            999 V2000
   -2.6781   -1.2458   -2.1348 O   0  0  0  0  0  0  0  0  0  0  0  0
   -2.9608   -1.4061   -0.8153 C   0  0  0  0  0  0  0  0  0  0  0  0
   -3.8296   -2.3854   -0.3619 C   0  0  0  0  0  0  0  0  0  0  0  0
   -4.0829   -2.5358    0.9919 C   0  0  0  0  0  0  0  0  0  0  0  0
   -3.4577   -1.7088    1.9074 C   0  0  0  0  0  0  0  0  0  0  0  0
   -2.5751   -0.7393    1.4698 C   0  0  0  0  0  0  0  0  0  0  0  0
   -2.3125   -0.5668    0.1112 C   0  0  0  0  0  0  0  0  0  0  0  0
   -1.5262    0.4512   -0.3745 N   0  0  0  0  0  0  0  0  0  0  0  0
   -0.4229    0.7892    0.1494 C   0  0  0  0  0  0  0  0  0  0  0  0
    0.3122    1.9394   -0.3475 C   0  0  0  0  0  0  0  0  0  0  0  0
   -0.3105    2.8313   -1.2239 C   0  0  0  0  0  0  0  0  0  0  0  0
    0.3355    3.9653   -1.6689 C   0  0  0  0  0  0  0  0  0  0  0  0
    1.6263    4.2370   -1.2391 C   0  0  0  0  0  0  0  0  0  0  0  0
    2.2725    3.3574   -0.3910 C   0  0  0  0  0  0  0  0  0  0  0  0
    1.6335    2.2045    0.0488 C   0  0  0  0  0  0  0  0  0  0  0  0
    2.3269    1.4002    0.9205 O   0  0  0  0  0  0  0  0  0  0  0  0
    2.4677    0.0622    0.6568 C   0  0  0  0  0  0  0  0  0  0  0  0
    2.8334   -0.7486    1.7276 C   0  0  0  0  0  0  0  0  0  0  0  0
    3.0284   -2.1016    1.5307 C   0  0  0  0  0  0  0  0  0  0  0  0
    2.8618   -2.6567    0.2725 C   0  0  0  0  0  0  0  0  0  0  0  0
    2.5112   -1.8455   -0.7927 C   0  0  0  0  0  0  0  0  0  0  0  0
    2.3181   -0.4882   -0.6113 C   0  0  0  0  0  0  0  0  0  0  0  0
   -3.1922   -1.8767   -2.6536 H   0  0  0  0  0  0  0  0  0  0  0  0
   -4.3196   -3.0303   -1.0804 H   0  0  0  0  0  0  0  0  0  0  0  0
   -4.7724   -3.2966    1.3249 H   0  0  0  0  0  0  0  0  0  0  0  0
   -3.6571   -1.8175    2.9628 H   0  0  0  0  0  0  0  0  0  0  0  0
   -2.1008   -0.0732    2.1760 H   0  0  0  0  0  0  0  0  0  0  0  0
    0.0234    0.2351    0.9844 H   0  0  0  0  0  0  0  0  0  0  0  0
   -1.3186    2.6010   -1.5305 H   0  0  0  0  0  0  0  0  0  0  0  0
   -0.1643    4.6438   -2.3435 H   0  0  0  0  0  0  0  0  0  0  0  0
    2.1354    5.1286   -1.5731 H   0  0  0  0  0  0  0  0  0  0  0  0
    3.2817    3.5443   -0.0569 H   0  0  0  0  0  0  0  0  0  0  0  0
    2.9571   -0.2994    2.7009 H   0  0  0  0  0  0  0  0  0  0  0  0
    3.3081   -2.7261    2.3662 H   0  0  0  0  0  0  0  0  0  0  0  0
    3.0085   -3.7155    0.1228 H   0  0  0  0  0  0  0  0  0  0  0  0
    2.3883   -2.2680   -1.7788 H   0  0  0  0  0  0  0  0  0  0  0  0
    2.0510    0.1417   -1.4472 H   0  0  0  0  0  0  0  0  0  0  0  0
  1  2  1  0  0  0  0
  2  3  2  0  0  0  0
  3  4  1  0  0  0  0
  4  5  2  0  0  0  0
  5  6  1  0  0  0  0
  6  7  2  0  0  0  0
  7  8  1  0  0  0  0
  8  9  2  0  0  0  0
  9 10  1  0  0  0  0
 10 11  2  0  0  0  0
 11 12  1  0  0  0  0
 12 13  2  0  0  0  0
 13 14  1  0  0  0  0
 14 15  2  0  0  0  0
 15 16  1  0  0  0  0
 16 17  1  0  0  0  0
 17 18  2  0  0  0  0
 18 19  1  0  0  0  0
 19 20  2  0  0  0  0
 20 21  1  0  0  0  0
 21 22  2  0  0  0  0
  7  2  1  0  0  0  0
 15 10  1  0  0  0  0
 22 17  1  0  0  0  0
  1 23  1  0  0  0  0
  3 24  1  0  0  0  0
  4 25  1  0  0  0  0
  5 26  1  0  0  0  0
  6 27  1  0  0  0  0
  9 28  1  0  0  0  0
 11 29  1  0  0  0  0
 12 30  1  0  0  0  0
 13 31  1  0  0  0  0
 14 32  1  0  0  0  0
 18 33  1  0  0  0  0
 19 34  1  0  0  0  0
 20 35  1  0  0  0  0
 21 36  1  0  0  0  0
 22 37  1  0  0  0  0
M  END
