
  xtb     03022213303D
 energy: -112.906701222777 gnorm: 0.000098624063 xtb: 6.4.1 (afa7bdf)
 72 79  0     0  0            999 V2000
   -1.4657    7.8177    1.8120 C   0  0  0  0  0  0  0  0  0  0  0  0
   -1.1919    6.3992    1.4141 C   0  0  0  0  0  0  0  0  0  0  0  0
   -0.9404    5.4254    2.3691 C   0  0  0  0  0  0  0  0  0  0  0  0
   -0.7047    4.1058    2.0130 C   0  0  0  0  0  0  0  0  0  0  0  0
   -0.4304    3.0631    3.0542 C   0  0  0  0  0  0  0  0  0  0  0  0
   -0.7230    3.7592    0.6623 C   0  0  0  0  0  0  0  0  0  0  0  0
   -0.4758    2.3615    0.2516 C   0  0  0  0  0  0  0  0  0  0  0  0
   -1.5263    1.4498    0.2203 C   0  0  0  0  0  0  0  0  0  0  0  0
   -2.8641    1.6155    0.6437 C   0  0  0  0  0  0  0  0  0  0  0  0
   -3.4633    0.3855    0.5430 C   0  0  0  0  0  0  0  0  0  0  0  0
   -2.5033   -0.5170    0.0309 C   0  0  0  0  0  0  0  0  0  0  0  0
   -2.7495   -1.9275   -0.2186 C   0  0  0  0  0  0  0  0  0  0  0  0
   -2.2570   -2.5855   -1.3679 C   0  0  0  0  0  0  0  0  0  0  0  0
   -2.5259   -3.9060   -1.5778 C   0  0  0  0  0  0  0  0  0  0  0  0
   -3.2970   -4.6518   -0.6613 C   0  0  0  0  0  0  0  0  0  0  0  0
   -3.5862   -6.0179   -0.8523 C   0  0  0  0  0  0  0  0  0  0  0  0
   -4.3403   -6.7063    0.0569 C   0  0  0  0  0  0  0  0  0  0  0  0
   -4.8403   -6.0598    1.1988 C   0  0  0  0  0  0  0  0  0  0  0  0
   -4.5782   -4.7362    1.4127 C   0  0  0  0  0  0  0  0  0  0  0  0
   -3.8034   -3.9971    0.4925 C   0  0  0  0  0  0  0  0  0  0  0  0
   -3.5197   -2.6334    0.6825 C   0  0  0  0  0  0  0  0  0  0  0  0
   -1.3460    0.1372   -0.1592 N   0  0  0  0  0  4  0  0  0  0  0  0
   -0.0172   -0.3676   -0.7802 B   0  0  0  0  0  4  0  0  0  0  0  0
    0.3022   -1.6130   -0.2990 F   0  0  0  0  0  0  0  0  0  0  0  0
   -0.1729   -0.3959   -2.1646 F   0  0  0  0  0  0  0  0  0  0  0  0
    1.0998    0.6542   -0.4420 N   0  0  0  0  0  0  0  0  0  0  0  0
    0.8179    1.9431   -0.0436 C   0  0  0  0  0  0  0  0  0  0  0  0
    2.0352    2.6461    0.0987 C   0  0  0  0  0  0  0  0  0  0  0  0
    3.0387    1.7564   -0.1896 C   0  0  0  0  0  0  0  0  0  0  0  0
    2.4336    0.5261   -0.5344 C   0  0  0  0  0  0  0  0  0  0  0  0
    3.1639   -0.6733   -0.9086 C   0  0  0  0  0  0  0  0  0  0  0  0
    2.7332   -1.5212   -1.9537 C   0  0  0  0  0  0  0  0  0  0  0  0
    3.4583   -2.6254   -2.2928 C   0  0  0  0  0  0  0  0  0  0  0  0
    4.6522   -2.9546   -1.6168 C   0  0  0  0  0  0  0  0  0  0  0  0
    5.4195   -4.0898   -1.9465 C   0  0  0  0  0  0  0  0  0  0  0  0
    6.5744   -4.3727   -1.2716 C   0  0  0  0  0  0  0  0  0  0  0  0
    7.0148   -3.5330   -0.2358 C   0  0  0  0  0  0  0  0  0  0  0  0
    6.2935   -2.4249    0.1081 C   0  0  0  0  0  0  0  0  0  0  0  0
    5.0974   -2.1044   -0.5702 C   0  0  0  0  0  0  0  0  0  0  0  0
    4.3365   -0.9685   -0.2437 C   0  0  0  0  0  0  0  0  0  0  0  0
   -0.9717    4.7226   -0.3166 C   0  0  0  0  0  0  0  0  0  0  0  0
   -0.9826    4.3327   -1.7633 C   0  0  0  0  0  0  0  0  0  0  0  0
   -1.2038    6.0311    0.0753 C   0  0  0  0  0  0  0  0  0  0  0  0
   -0.9784    8.5106    1.1293 H   0  0  0  0  0  0  0  0  0  0  0  0
   -1.1167    8.0135    2.8227 H   0  0  0  0  0  0  0  0  0  0  0  0
   -2.5377    8.0138    1.7776 H   0  0  0  0  0  0  0  0  0  0  0  0
   -0.9259    5.6983    3.4148 H   0  0  0  0  0  0  0  0  0  0  0  0
   -1.2026    2.2947    3.0369 H   0  0  0  0  0  0  0  0  0  0  0  0
    0.5238    2.5738    2.8624 H   0  0  0  0  0  0  0  0  0  0  0  0
   -0.4033    3.5070    4.0460 H   0  0  0  0  0  0  0  0  0  0  0  0
   -3.2924    2.5376    0.9860 H   0  0  0  0  0  0  0  0  0  0  0  0
   -4.4802    0.1348    0.7732 H   0  0  0  0  0  0  0  0  0  0  0  0
   -1.6809   -2.0309   -2.0872 H   0  0  0  0  0  0  0  0  0  0  0  0
   -2.1490   -4.4024   -2.4605 H   0  0  0  0  0  0  0  0  0  0  0  0
   -3.1988   -6.5120   -1.7320 H   0  0  0  0  0  0  0  0  0  0  0  0
   -4.5572   -7.7536   -0.0951 H   0  0  0  0  0  0  0  0  0  0  0  0
   -5.4335   -6.6201    1.9068 H   0  0  0  0  0  0  0  0  0  0  0  0
   -4.9603   -4.2340    2.2903 H   0  0  0  0  0  0  0  0  0  0  0  0
   -3.8937   -2.1468    1.5723 H   0  0  0  0  0  0  0  0  0  0  0  0
    2.1220    3.6741    0.3932 H   0  0  0  0  0  0  0  0  0  0  0  0
    4.0946    1.9435   -0.1917 H   0  0  0  0  0  0  0  0  0  0  0  0
    1.8353   -1.2789   -2.4938 H   0  0  0  0  0  0  0  0  0  0  0  0
    3.1247   -3.2676   -3.0952 H   0  0  0  0  0  0  0  0  0  0  0  0
    5.0767   -4.7337   -2.7440 H   0  0  0  0  0  0  0  0  0  0  0  0
    7.1574   -5.2449   -1.5291 H   0  0  0  0  0  0  0  0  0  0  0  0
    7.9294   -3.7729    0.2868 H   0  0  0  0  0  0  0  0  0  0  0  0
    6.6280   -1.7757    0.9050 H   0  0  0  0  0  0  0  0  0  0  0  0
    4.6728   -0.3369    0.5665 H   0  0  0  0  0  0  0  0  0  0  0  0
   -0.0065    3.9510   -2.0614 H   0  0  0  0  0  0  0  0  0  0  0  0
   -1.7106    3.5420   -1.9404 H   0  0  0  0  0  0  0  0  0  0  0  0
   -1.2304    5.1846   -2.3911 H   0  0  0  0  0  0  0  0  0  0  0  0
   -1.3974    6.7813   -0.6782 H   0  0  0  0  0  0  0  0  0  0  0  0
  1  2  1  0  0  0  0
  2  3  2  0  0  0  0
  3  4  1  0  0  0  0
  4  5  1  0  0  0  0
  4  6  2  0  0  0  0
  6  7  1  0  0  0  0
  7  8  2  0  0  0  0
  8  9  1  0  0  0  0
  9 10  2  0  0  0  0
 10 11  1  0  0  0  0
 11 12  1  0  0  0  0
 12 13  2  0  0  0  0
 13 14  1  0  0  0  0
 14 15  2  0  0  0  0
 15 16  1  0  0  0  0
 16 17  2  0  0  0  0
 17 18  1  0  0  0  0
 18 19  2  0  0  0  0
 19 20  1  0  0  0  0
 20 21  2  0  0  0  0
 11 22  2  0  0  0  0
 22 23  1  0  0  0  0
 23 24  1  0  0  0  0
 23 25  1  0  0  0  0
 23 26  1  0  0  0  0
 26 27  1  0  0  0  0
 27 28  2  0  0  0  0
 28 29  1  0  0  0  0
 29 30  2  0  0  0  0
 30 31  1  0  0  0  0
 31 32  2  0  0  0  0
 32 33  1  0  0  0  0
 33 34  2  0  0  0  0
 34 35  1  0  0  0  0
 35 36  2  0  0  0  0
 36 37  1  0  0  0  0
 37 38  2  0  0  0  0
 38 39  1  0  0  0  0
 39 40  2  0  0  0  0
  6 41  1  0  0  0  0
 41 42  1  0  0  0  0
 41 43  2  0  0  0  0
 43  2  1  0  0  0  0
 27  7  1  0  0  0  0
 40 31  1  0  0  0  0
 22  8  1  0  0  0  0
 30 26  1  0  0  0  0
 39 34  1  0  0  0  0
 21 12  1  0  0  0  0
 20 15  1  0  0  0  0
  1 44  1  0  0  0  0
  1 45  1  0  0  0  0
  1 46  1  0  0  0  0
  3 47  1  0  0  0  0
  5 48  1  0  0  0  0
  5 49  1  0  0  0  0
  5 50  1  0  0  0  0
  9 51  1  0  0  0  0
 10 52  1  0  0  0  0
 13 53  1  0  0  0  0
 14 54  1  0  0  0  0
 16 55  1  0  0  0  0
 17 56  1  0  0  0  0
 18 57  1  0  0  0  0
 19 58  1  0  0  0  0
 21 59  1  0  0  0  0
 28 60  1  0  0  0  0
 29 61  1  0  0  0  0
 32 62  1  0  0  0  0
 33 63  1  0  0  0  0
 35 64  1  0  0  0  0
 36 65  1  0  0  0  0
 37 66  1  0  0  0  0
 38 67  1  0  0  0  0
 40 68  1  0  0  0  0
 42 69  1  0  0  0  0
 42 70  1  0  0  0  0
 42 71  1  0  0  0  0
 43 72  1  0  0  0  0
M  CHG  1  22   1
M  CHG  1  23  -1
M  END
