
  xtb     03022214213D
 energy: -84.328429707522 gnorm: 0.000063711151 xtb: 6.4.1 (afa7bdf)
 49 56  0     0  0            999 V2000
    7.9874    1.7283    0.1908 C   0  0  0  0  0  0  0  0  0  0  0  0
    6.9314    2.5141    0.6441 C   0  0  0  0  0  0  0  0  0  0  0  0
    5.6235    2.0789    0.5523 C   0  0  0  0  0  0  0  0  0  0  0  0
    5.3852    0.8302   -0.0064 C   0  0  0  0  0  0  0  0  0  0  0  0
    6.4638    0.0455   -0.4602 C   0  0  0  0  0  0  0  0  0  0  0  0
    7.7726    0.4804   -0.3693 C   0  0  0  0  0  0  0  0  0  0  0  0
    6.0384   -1.1462   -0.9754 O   0  0  0  0  0  0  0  0  0  0  0  0
    4.6980   -1.1518   -0.8650 C   0  0  0  0  0  0  0  0  0  0  0  0
    3.9674   -2.1713   -1.2739 N   0  0  0  0  0  0  0  0  0  0  0  0
    2.6737   -1.9965   -1.0847 C   0  0  0  0  0  0  0  0  0  0  0  0
    1.7684   -2.9278   -1.4388 O   0  0  0  0  0  0  0  0  0  0  0  0
    0.5451   -2.4226   -1.1054 C   0  0  0  0  0  0  0  0  0  0  0  0
   -0.6801   -3.0370   -1.2892 C   0  0  0  0  0  0  0  0  0  0  0  0
   -1.8077   -2.3454   -0.8884 C   0  0  0  0  0  0  0  0  0  0  0  0
   -1.7191   -1.0761   -0.3038 C   0  0  0  0  0  0  0  0  0  0  0  0
   -2.8895   -0.4115    0.0856 N   0  0  0  0  0  0  0  0  0  0  0  0
   -3.8980   -0.9352    0.8711 C   0  0  0  0  0  0  0  0  0  0  0  0
   -3.9857   -2.1755    1.4865 C   0  0  0  0  0  0  0  0  0  0  0  0
   -5.1067   -2.4383    2.2505 C   0  0  0  0  0  0  0  0  0  0  0  0
   -6.1168   -1.4923    2.4104 C   0  0  0  0  0  0  0  0  0  0  0  0
   -6.0238   -0.2480    1.8198 C   0  0  0  0  0  0  0  0  0  0  0  0
   -4.9064    0.0398    1.0472 C   0  0  0  0  0  0  0  0  0  0  0  0
   -4.4793    1.2050    0.3241 C   0  0  0  0  0  0  0  0  0  0  0  0
   -5.0417    2.4568    0.1114 C   0  0  0  0  0  0  0  0  0  0  0  0
   -4.3590    3.3641   -0.6736 C   0  0  0  0  0  0  0  0  0  0  0  0
   -3.1378    3.0314   -1.2555 C   0  0  0  0  0  0  0  0  0  0  0  0
   -2.5581    1.7927   -1.0582 C   0  0  0  0  0  0  0  0  0  0  0  0
   -3.2284    0.8849   -0.2511 C   0  0  0  0  0  0  0  0  0  0  0  0
   -0.4858   -0.4657   -0.1126 C   0  0  0  0  0  0  0  0  0  0  0  0
    0.6513   -1.1429   -0.5248 C   0  0  0  0  0  0  0  0  0  0  0  0
    2.0583   -0.8529   -0.5061 C   0  0  0  0  0  0  0  0  0  0  0  0
    2.8473    0.2055   -0.0830 C   0  0  0  0  0  0  0  0  0  0  0  0
    4.2107    0.0454   -0.2708 C   0  0  0  0  0  0  0  0  0  0  0  0
    8.9970    2.0999    0.2779 H   0  0  0  0  0  0  0  0  0  0  0  0
    7.1417    3.4813    1.0751 H   0  0  0  0  0  0  0  0  0  0  0  0
    4.8055    2.6886    0.9040 H   0  0  0  0  0  0  0  0  0  0  0  0
    8.5851   -0.1333   -0.7222 H   0  0  0  0  0  0  0  0  0  0  0  0
   -0.7477   -4.0139   -1.7388 H   0  0  0  0  0  0  0  0  0  0  0  0
   -2.7839   -2.7801   -1.0387 H   0  0  0  0  0  0  0  0  0  0  0  0
   -3.1999   -2.9087    1.3834 H   0  0  0  0  0  0  0  0  0  0  0  0
   -5.1999   -3.3977    2.7376 H   0  0  0  0  0  0  0  0  0  0  0  0
   -6.9783   -1.7374    3.0134 H   0  0  0  0  0  0  0  0  0  0  0  0
   -6.7986    0.4911    1.9565 H   0  0  0  0  0  0  0  0  0  0  0  0
   -5.9957    2.7086    0.5494 H   0  0  0  0  0  0  0  0  0  0  0  0
   -4.7776    4.3437   -0.8498 H   0  0  0  0  0  0  0  0  0  0  0  0
   -2.6344    3.7563   -1.8781 H   0  0  0  0  0  0  0  0  0  0  0  0
   -1.6204    1.5380   -1.5292 H   0  0  0  0  0  0  0  0  0  0  0  0
   -0.4186    0.5040    0.3550 H   0  0  0  0  0  0  0  0  0  0  0  0
    2.4274    1.0941    0.3626 H   0  0  0  0  0  0  0  0  0  0  0  0
  1  2  2  0  0  0  0
  2  3  1  0  0  0  0
  3  4  2  0  0  0  0
  4  5  1  0  0  0  0
  5  6  2  0  0  0  0
  5  7  1  0  0  0  0
  7  8  1  0  0  0  0
  8  9  2  0  0  0  0
  9 10  1  0  0  0  0
 10 11  1  0  0  0  0
 11 12  1  0  0  0  0
 12 13  2  0  0  0  0
 13 14  1  0  0  0  0
 14 15  2  0  0  0  0
 15 16  1  0  0  0  0
 16 17  1  0  0  0  0
 17 18  2  0  0  0  0
 18 19  1  0  0  0  0
 19 20  2  0  0  0  0
 20 21  1  0  0  0  0
 21 22  2  0  0  0  0
 22 23  1  0  0  0  0
 23 24  2  0  0  0  0
 24 25  1  0  0  0  0
 25 26  2  0  0  0  0
 26 27  1  0  0  0  0
 27 28  2  0  0  0  0
 15 29  1  0  0  0  0
 29 30  2  0  0  0  0
 30 31  1  0  0  0  0
 31 32  1  0  0  0  0
 32 33  2  0  0  0  0
  6  1  1  0  0  0  0
 33  8  1  0  0  0  0
 33  4  1  0  0  0  0
 31 10  2  0  0  0  0
 30 12  1  0  0  0  0
 28 16  1  0  0  0  0
 22 17  1  0  0  0  0
 28 23  1  0  0  0  0
  1 34  1  0  0  0  0
  2 35  1  0  0  0  0
  3 36  1  0  0  0  0
  6 37  1  0  0  0  0
 13 38  1  0  0  0  0
 14 39  1  0  0  0  0
 18 40  1  0  0  0  0
 19 41  1  0  0  0  0
 20 42  1  0  0  0  0
 21 43  1  0  0  0  0
 24 44  1  0  0  0  0
 25 45  1  0  0  0  0
 26 46  1  0  0  0  0
 27 47  1  0  0  0  0
 29 48  1  0  0  0  0
 32 49  1  0  0  0  0
M  END
