
  xtb     03022214203D
 energy: -90.757810165532 gnorm: 0.000274184998 xtb: 6.4.1 (afa7bdf)
 54 59  0     0  0            999 V2000
   -1.4599    5.0313    1.0718 C   0  0  0  0  0  0  0  0  0  0  0  0
   -1.5051    3.5529    0.8650 C   0  0  0  0  0  0  0  0  0  0  0  0
   -1.0493    2.6699    1.7796 C   0  0  0  0  0  0  0  0  0  0  0  0
   -1.0748    1.2643    1.5230 C   0  0  0  0  0  0  0  0  0  0  0  0
   -0.5438    0.3091    2.3958 C   0  0  0  0  0  0  0  0  0  0  0  0
   -0.5363   -1.0180    2.0466 C   0  0  0  0  0  0  0  0  0  0  0  0
   -1.0915   -1.4439    0.8326 C   0  0  0  0  0  0  0  0  0  0  0  0
   -1.0330   -2.8934    0.5434 C   0  0  0  0  0  0  0  0  0  0  0  0
   -2.1537   -3.6605    0.7455 C   0  0  0  0  0  0  0  0  0  0  0  0
   -2.0863   -5.0600    0.7230 C   0  0  0  0  0  0  0  0  0  0  0  0
   -0.8805   -5.6824    0.5679 C   0  0  0  0  0  0  0  0  0  0  0  0
    0.2922   -4.9336    0.3335 C   0  0  0  0  0  0  0  0  0  0  0  0
    1.5467   -5.5634    0.1900 C   0  0  0  0  0  0  0  0  0  0  0  0
    2.6720   -4.8292   -0.0545 C   0  0  0  0  0  0  0  0  0  0  0  0
    2.5745   -3.4465   -0.2603 C   0  0  0  0  0  0  0  0  0  0  0  0
    1.3699   -2.7967   -0.1515 C   0  0  0  0  0  0  0  0  0  0  0  0
    1.2597   -1.4008   -0.6283 C   0  0  0  0  0  0  0  0  0  0  0  0
    0.6677   -1.2057   -1.8833 C   0  0  0  0  0  0  0  0  0  0  0  0
    0.5220    0.0558   -2.4032 C   0  0  0  0  0  0  0  0  0  0  0  0
    0.9303    1.1728   -1.6672 C   0  0  0  0  0  0  0  0  0  0  0  0
    0.7420    2.5199   -2.1054 C   0  0  0  0  0  0  0  0  0  0  0  0
    1.0838    3.5625   -1.3179 C   0  0  0  0  0  0  0  0  0  0  0  0
    0.8669    4.9854   -1.7161 C   0  0  0  0  0  0  0  0  0  0  0  0
    1.6584    3.3162    0.0050 C   0  0  0  0  0  0  0  0  0  0  0  0
    1.9301    4.1760    0.8103 O   0  0  0  0  0  0  0  0  0  0  0  0
    1.8991    2.0190    0.3607 O   0  0  0  0  0  0  0  0  0  0  0  0
    1.5310    0.9719   -0.4158 C   0  0  0  0  0  0  0  0  0  0  0  0
    1.7318   -0.3130    0.0822 C   0  0  0  0  0  0  0  0  0  0  0  0
    0.2083   -3.5183    0.2403 C   0  0  0  0  0  0  0  0  0  0  0  0
   -1.6826   -0.5215   -0.0106 C   0  0  0  0  0  0  0  0  0  0  0  0
   -1.6380    0.8321    0.3135 C   0  0  0  0  0  0  0  0  0  0  0  0
   -2.1204    1.7180   -0.5907 O   0  0  0  0  0  0  0  0  0  0  0  0
   -2.0359    3.0699   -0.4100 C   0  0  0  0  0  0  0  0  0  0  0  0
   -2.4011    3.7789   -1.3186 O   0  0  0  0  0  0  0  0  0  0  0  0
   -1.9472    5.3017    2.0065 H   0  0  0  0  0  0  0  0  0  0  0  0
   -0.4233    5.3621    1.1245 H   0  0  0  0  0  0  0  0  0  0  0  0
   -1.9563    5.5344    0.2465 H   0  0  0  0  0  0  0  0  0  0  0  0
   -0.6323    3.0167    2.7143 H   0  0  0  0  0  0  0  0  0  0  0  0
   -0.1176    0.6378    3.3314 H   0  0  0  0  0  0  0  0  0  0  0  0
   -0.0963   -1.7529    2.7044 H   0  0  0  0  0  0  0  0  0  0  0  0
   -3.0931   -3.1747    0.9662 H   0  0  0  0  0  0  0  0  0  0  0  0
   -2.9862   -5.6359    0.8789 H   0  0  0  0  0  0  0  0  0  0  0  0
   -0.8038   -6.7585    0.6230 H   0  0  0  0  0  0  0  0  0  0  0  0
    1.5975   -6.6390    0.2766 H   0  0  0  0  0  0  0  0  0  0  0  0
    3.6346   -5.3107   -0.1409 H   0  0  0  0  0  0  0  0  0  0  0  0
    3.4519   -2.8867   -0.5499 H   0  0  0  0  0  0  0  0  0  0  0  0
    0.3221   -2.0669   -2.4357 H   0  0  0  0  0  0  0  0  0  0  0  0
    0.0672    0.2069   -3.3704 H   0  0  0  0  0  0  0  0  0  0  0  0
    0.2945    2.6899   -3.0743 H   0  0  0  0  0  0  0  0  0  0  0  0
    1.3263    5.1864   -2.6819 H   0  0  0  0  0  0  0  0  0  0  0  0
    1.2943    5.6471   -0.9678 H   0  0  0  0  0  0  0  0  0  0  0  0
   -0.2010    5.1823   -1.8037 H   0  0  0  0  0  0  0  0  0  0  0  0
    2.2069   -0.4352    1.0425 H   0  0  0  0  0  0  0  0  0  0  0  0
   -2.1325   -0.8234   -0.9429 H   0  0  0  0  0  0  0  0  0  0  0  0
  1  2  1  0  0  0  0
  2  3  2  0  0  0  0
  3  4  1  0  0  0  0
  4  5  2  0  0  0  0
  5  6  1  0  0  0  0
  6  7  2  0  0  0  0
  7  8  1  0  0  0  0
  8  9  2  0  0  0  0
  9 10  1  0  0  0  0
 10 11  2  0  0  0  0
 11 12  1  0  0  0  0
 12 13  2  0  0  0  0
 13 14  1  0  0  0  0
 14 15  2  0  0  0  0
 15 16  1  0  0  0  0
 16 17  1  0  0  0  0
 17 18  2  0  0  0  0
 18 19  1  0  0  0  0
 19 20  2  0  0  0  0
 20 21  1  0  0  0  0
 21 22  2  0  0  0  0
 22 23  1  0  0  0  0
 22 24  1  0  0  0  0
 24 25  2  0  0  0  0
 24 26  1  0  0  0  0
 26 27  1  0  0  0  0
 27 28  2  0  0  0  0
 16 29  2  0  0  0  0
  7 30  1  0  0  0  0
 30 31  2  0  0  0  0
 31 32  1  0  0  0  0
 32 33  1  0  0  0  0
 33 34  2  0  0  0  0
 33  2  1  0  0  0  0
 31  4  1  0  0  0  0
 29  8  1  0  0  0  0
 29 12  1  0  0  0  0
 28 17  1  0  0  0  0
 27 20  1  0  0  0  0
  1 35  1  0  0  0  0
  1 36  1  0  0  0  0
  1 37  1  0  0  0  0
  3 38  1  0  0  0  0
  5 39  1  0  0  0  0
  6 40  1  0  0  0  0
  9 41  1  0  0  0  0
 10 42  1  0  0  0  0
 11 43  1  0  0  0  0
 13 44  1  0  0  0  0
 14 45  1  0  0  0  0
 15 46  1  0  0  0  0
 18 47  1  0  0  0  0
 19 48  1  0  0  0  0
 21 49  1  0  0  0  0
 23 50  1  0  0  0  0
 23 51  1  0  0  0  0
 23 52  1  0  0  0  0
 28 53  1  0  0  0  0
 30 54  1  0  0  0  0
M  END
