
  xtb     03022212223D
 energy: -103.968531240008 gnorm: 0.000387017950 xtb: 6.4.1 (afa7bdf)
 64 68  0     0  0            999 V2000
    4.1736   -0.1515   -0.1071 C   0  0  0  0  0  0  0  0  0  0  0  0
    4.8140    0.8752   -0.0951 C   0  0  0  0  0  0  0  0  0  0  0  0
    5.4637    2.1251   -0.0789 C   0  0  0  0  0  0  0  0  0  0  0  0
    6.8104    2.2386   -0.4356 C   0  0  0  0  0  0  0  0  0  0  0  0
    7.3928    3.4928   -0.4032 C   0  0  0  0  0  0  0  0  0  0  0  0
    6.7468    4.5931   -0.0526 N   0  0  0  0  0  0  0  0  0  0  0  0
    5.4724    4.4842    0.2862 C   0  0  0  0  0  0  0  0  0  0  0  0
    4.7801    3.2869    0.2929 C   0  0  0  0  0  0  0  0  0  0  0  0
    3.5809   -1.4296   -0.1133 C   0  0  0  0  0  0  0  0  0  0  0  0
    4.5203   -2.4816   -0.1913 C   0  0  0  0  0  0  0  0  0  0  0  0
    5.3547   -3.3537   -0.2571 C   0  0  0  0  0  0  0  0  0  0  0  0
    6.3172   -4.3797   -0.3317 C   0  0  0  0  0  0  0  0  0  0  0  0
    7.6816   -4.0770   -0.3710 C   0  0  0  0  0  0  0  0  0  0  0  0
    8.5831   -5.1234   -0.4421 C   0  0  0  0  0  0  0  0  0  0  0  0
    8.2275   -6.3976   -0.4752 N   0  0  0  0  0  0  0  0  0  0  0  0
    6.9359   -6.6828   -0.4378 C   0  0  0  0  0  0  0  0  0  0  0  0
    5.9402   -5.7254   -0.3664 C   0  0  0  0  0  0  0  0  0  0  0  0
    2.2518   -1.7137   -0.0322 C   0  0  0  0  0  0  0  0  0  0  0  0
    1.1356   -0.8141    0.0501 C   0  0  0  0  0  0  0  0  0  0  0  0
    1.2315    0.5768   -0.1009 C   0  0  0  0  0  0  0  0  0  0  0  0
    0.1179    1.3742    0.0011 C   0  0  0  0  0  0  0  0  0  0  0  0
   -1.1552    0.8341    0.2442 C   0  0  0  0  0  0  0  0  0  0  0  0
   -2.2720    1.7327    0.3386 C   0  0  0  0  0  0  0  0  0  0  0  0
   -3.6020    1.4434    0.3576 C   0  0  0  0  0  0  0  0  0  0  0  0
   -4.1841    0.1660    0.2352 C   0  0  0  0  0  0  0  0  0  0  0  0
   -4.8065   -0.8641    0.1102 C   0  0  0  0  0  0  0  0  0  0  0  0
   -5.4319   -2.1179   -0.0362 C   0  0  0  0  0  0  0  0  0  0  0  0
   -4.7226   -3.2201   -0.5238 C   0  0  0  0  0  0  0  0  0  0  0  0
   -5.3895   -4.4256   -0.6450 C   0  0  0  0  0  0  0  0  0  0  0  0
   -6.6618   -4.5961   -0.3240 N   0  0  0  0  0  0  0  0  0  0  0  0
   -7.3316   -3.5522    0.1371 C   0  0  0  0  0  0  0  0  0  0  0  0
   -6.7764   -2.2960    0.3016 C   0  0  0  0  0  0  0  0  0  0  0  0
   -4.5477    2.4853    0.4788 C   0  0  0  0  0  0  0  0  0  0  0  0
   -5.3860    3.3495    0.5851 C   0  0  0  0  0  0  0  0  0  0  0  0
   -6.3516    4.3676    0.7117 C   0  0  0  0  0  0  0  0  0  0  0  0
   -7.7164    4.0653    0.6810 C   0  0  0  0  0  0  0  0  0  0  0  0
   -8.6204    5.1040    0.8103 C   0  0  0  0  0  0  0  0  0  0  0  0
   -8.2669    6.3702    0.9617 N   0  0  0  0  0  0  0  0  0  0  0  0
   -6.9750    6.6550    0.9899 C   0  0  0  0  0  0  0  0  0  0  0  0
   -5.9769    5.7049    0.8709 C   0  0  0  0  0  0  0  0  0  0  0  0
   -1.2516   -0.5567    0.3945 C   0  0  0  0  0  0  0  0  0  0  0  0
   -0.1374   -1.3538    0.2958 C   0  0  0  0  0  0  0  0  0  0  0  0
    7.3734    1.3659   -0.7296 H   0  0  0  0  0  0  0  0  0  0  0  0
    8.4324    3.6289   -0.6724 H   0  0  0  0  0  0  0  0  0  0  0  0
    4.9846    5.4088    0.5671 H   0  0  0  0  0  0  0  0  0  0  0  0
    3.7404    3.2433    0.5805 H   0  0  0  0  0  0  0  0  0  0  0  0
    8.0141   -3.0505   -0.3452 H   0  0  0  0  0  0  0  0  0  0  0  0
    9.6488   -4.9364   -0.4745 H   0  0  0  0  0  0  0  0  0  0  0  0
    6.6910   -7.7368   -0.4670 H   0  0  0  0  0  0  0  0  0  0  0  0
    4.8976   -6.0031   -0.3379 H   0  0  0  0  0  0  0  0  0  0  0  0
    1.9957   -2.7669   -0.0147 H   0  0  0  0  0  0  0  0  0  0  0  0
    2.1906    1.0231   -0.3085 H   0  0  0  0  0  0  0  0  0  0  0  0
    0.2180    2.4439   -0.1217 H   0  0  0  0  0  0  0  0  0  0  0  0
   -2.0154    2.7846    0.3883 H   0  0  0  0  0  0  0  0  0  0  0  0
   -3.6835   -3.1240   -0.8003 H   0  0  0  0  0  0  0  0  0  0  0  0
   -4.8814   -5.3057   -1.0180 H   0  0  0  0  0  0  0  0  0  0  0  0
   -8.3687   -3.7372    0.3857 H   0  0  0  0  0  0  0  0  0  0  0  0
   -7.3586   -1.4707    0.6820 H   0  0  0  0  0  0  0  0  0  0  0  0
   -8.0472    3.0453    0.5587 H   0  0  0  0  0  0  0  0  0  0  0  0
   -9.6865    4.9172    0.7925 H   0  0  0  0  0  0  0  0  0  0  0  0
   -6.7319    7.7024    1.1151 H   0  0  0  0  0  0  0  0  0  0  0  0
   -4.9341    5.9818    0.8996 H   0  0  0  0  0  0  0  0  0  0  0  0
   -2.2099   -1.0031    0.6062 H   0  0  0  0  0  0  0  0  0  0  0  0
   -0.2377   -2.4230    0.4224 H   0  0  0  0  0  0  0  0  0  0  0  0
  1  2  3  0  0  0  0
  2  3  1  0  0  0  0
  3  4  2  0  0  0  0
  4  5  1  0  0  0  0
  5  6  2  0  0  0  0
  6  7  1  0  0  0  0
  7  8  2  0  0  0  0
  1  9  1  0  0  0  0
  9 10  1  0  0  0  0
 10 11  3  0  0  0  0
 11 12  1  0  0  0  0
 12 13  2  0  0  0  0
 13 14  1  0  0  0  0
 14 15  2  0  0  0  0
 15 16  1  0  0  0  0
 16 17  2  0  0  0  0
  9 18  2  0  0  0  0
 18 19  1  0  0  0  0
 19 20  2  0  0  0  0
 20 21  1  0  0  0  0
 21 22  2  0  0  0  0
 22 23  1  0  0  0  0
 23 24  2  0  0  0  0
 24 25  1  0  0  0  0
 25 26  3  0  0  0  0
 26 27  1  0  0  0  0
 27 28  2  0  0  0  0
 28 29  1  0  0  0  0
 29 30  2  0  0  0  0
 30 31  1  0  0  0  0
 31 32  2  0  0  0  0
 24 33  1  0  0  0  0
 33 34  3  0  0  0  0
 34 35  1  0  0  0  0
 35 36  2  0  0  0  0
 36 37  1  0  0  0  0
 37 38  2  0  0  0  0
 38 39  1  0  0  0  0
 39 40  2  0  0  0  0
 22 41  1  0  0  0  0
 41 42  2  0  0  0  0
  8  3  1  0  0  0  0
 17 12  1  0  0  0  0
 42 19  1  0  0  0  0
 32 27  1  0  0  0  0
 40 35  1  0  0  0  0
  4 43  1  0  0  0  0
  5 44  1  0  0  0  0
  7 45  1  0  0  0  0
  8 46  1  0  0  0  0
 13 47  1  0  0  0  0
 14 48  1  0  0  0  0
 16 49  1  0  0  0  0
 17 50  1  0  0  0  0
 18 51  1  0  0  0  0
 20 52  1  0  0  0  0
 21 53  1  0  0  0  0
 23 54  1  0  0  0  0
 28 55  1  0  0  0  0
 29 56  1  0  0  0  0
 31 57  1  0  0  0  0
 32 58  1  0  0  0  0
 36 59  1  0  0  0  0
 37 60  1  0  0  0  0
 39 61  1  0  0  0  0
 40 62  1  0  0  0  0
 41 63  1  0  0  0  0
 42 64  1  0  0  0  0
M  END
