
  xtb     03022216083D
 energy: -128.274110498601 gnorm: 0.000067767054 xtb: 6.4.1 (afa7bdf)
 79 89  0     0  0            999 V2000
   -7.0577   -3.0967    0.8795 C   0  0  0  0  0  0  0  0  0  0  0  0
   -5.6739   -3.2390    0.8968 C   0  0  0  0  0  0  0  0  0  0  0  0
   -4.8363   -2.2242    0.4694 C   0  0  0  0  0  0  0  0  0  0  0  0
   -5.4192   -1.0530    0.0096 C   0  0  0  0  0  0  0  0  0  0  0  0
   -6.8212   -0.8835    0.0332 C   0  0  0  0  0  0  0  0  0  0  0  0
   -7.6423   -1.9169    0.4613 C   0  0  0  0  0  0  0  0  0  0  0  0
   -7.0823    0.4640   -0.3985 C   0  0  0  0  0  0  0  0  0  0  0  0
   -8.2493    1.1923   -0.5843 C   0  0  0  0  0  0  0  0  0  0  0  0
   -8.1479    2.5013   -1.0131 C   0  0  0  0  0  0  0  0  0  0  0  0
   -6.9055    3.0809   -1.2559 C   0  0  0  0  0  0  0  0  0  0  0  0
   -5.7299    2.3742   -1.0786 C   0  0  0  0  0  0  0  0  0  0  0  0
   -5.8292    1.0622   -0.6465 C   0  0  0  0  0  0  0  0  0  0  0  0
   -4.8260    0.1233   -0.4319 N   0  0  0  0  0  0  0  0  0  0  0  0
   -3.4790    0.3144   -0.6492 C   0  0  0  0  0  0  0  0  0  0  0  0
   -2.6670   -0.7169   -1.1611 C   0  0  0  0  0  0  0  0  0  0  0  0
   -1.3211   -0.4744   -1.2439 C   0  0  0  0  0  0  0  0  0  0  0  0
   -0.8595    0.7769   -0.7910 C   0  0  0  0  0  0  0  0  0  0  0  0
    0.5613    1.0899   -0.6419 C   0  0  0  0  0  0  0  0  0  0  0  0
    1.0738    2.3320   -1.0156 C   0  0  0  0  0  0  0  0  0  0  0  0
    2.4138    2.6052   -0.8529 C   0  0  0  0  0  0  0  0  0  0  0  0
    3.2329    1.6251   -0.2744 C   0  0  0  0  0  0  0  0  0  0  0  0
    4.5791    1.8492   -0.0545 N   0  0  0  0  0  0  0  0  0  0  0  0
    5.5869    0.8904   -0.1412 C   0  0  0  0  0  0  0  0  0  0  0  0
    5.4964   -0.4850   -0.2733 C   0  0  0  0  0  0  0  0  0  0  0  0
    6.6728   -1.2052   -0.3774 C   0  0  0  0  0  0  0  0  0  0  0  0
    7.9153   -0.5795   -0.3465 C   0  0  0  0  0  0  0  0  0  0  0  0
    8.0123    0.7898   -0.1952 C   0  0  0  0  0  0  0  0  0  0  0  0
    6.8432    1.5297   -0.0869 C   0  0  0  0  0  0  0  0  0  0  0  0
    6.5876    2.9307    0.1109 C   0  0  0  0  0  0  0  0  0  0  0  0
    7.4244    4.0208    0.3008 C   0  0  0  0  0  0  0  0  0  0  0  0
    6.8575    5.2536    0.5576 C   0  0  0  0  0  0  0  0  0  0  0  0
    5.4771    5.3904    0.6589 C   0  0  0  0  0  0  0  0  0  0  0  0
    4.6258    4.3167    0.4664 C   0  0  0  0  0  0  0  0  0  0  0  0
    5.1841    3.0863    0.1505 C   0  0  0  0  0  0  0  0  0  0  0  0
    2.7535    0.4339    0.0692 N   0  0  0  0  0  0  0  0  0  0  0  0
    1.4704    0.1701   -0.0977 C   0  0  0  0  0  0  0  0  0  0  0  0
    1.0375   -1.0922    0.3255 N   0  0  0  0  0  0  0  0  0  0  0  0
   -0.0159   -1.3324    1.1888 C   0  0  0  0  0  0  0  0  0  0  0  0
   -0.7610   -0.4367    1.9425 C   0  0  0  0  0  0  0  0  0  0  0  0
   -1.7901   -0.9442    2.7120 C   0  0  0  0  0  0  0  0  0  0  0  0
   -2.0607   -2.3105    2.7552 C   0  0  0  0  0  0  0  0  0  0  0  0
   -1.2933   -3.2097    2.0415 C   0  0  0  0  0  0  0  0  0  0  0  0
   -0.2597   -2.7225    1.2516 C   0  0  0  0  0  0  0  0  0  0  0  0
    0.7018   -3.3462    0.3845 C   0  0  0  0  0  0  0  0  0  0  0  0
    0.9471   -4.6629    0.0174 C   0  0  0  0  0  0  0  0  0  0  0  0
    1.9471   -4.9184   -0.9001 C   0  0  0  0  0  0  0  0  0  0  0  0
    2.6817   -3.8803   -1.4683 C   0  0  0  0  0  0  0  0  0  0  0  0
    2.4526   -2.5620   -1.1220 C   0  0  0  0  0  0  0  0  0  0  0  0
    1.4785   -2.3044   -0.1706 C   0  0  0  0  0  0  0  0  0  0  0  0
   -1.7122    1.7430   -0.4801 N   0  0  0  0  0  0  0  0  0  0  0  0
   -2.9845    1.5275   -0.4202 N   0  0  0  0  0  0  0  0  0  0  0  0
   -7.6781   -3.9138    1.2162 H   0  0  0  0  0  0  0  0  0  0  0  0
   -5.2396   -4.1591    1.2584 H   0  0  0  0  0  0  0  0  0  0  0  0
   -3.7651   -2.3420    0.5299 H   0  0  0  0  0  0  0  0  0  0  0  0
   -8.7142   -1.7920    0.4768 H   0  0  0  0  0  0  0  0  0  0  0  0
   -9.2119    0.7408   -0.3975 H   0  0  0  0  0  0  0  0  0  0  0  0
   -9.0431    3.0868   -1.1619 H   0  0  0  0  0  0  0  0  0  0  0  0
   -6.8581    4.1072   -1.5882 H   0  0  0  0  0  0  0  0  0  0  0  0
   -4.7673    2.8255   -1.2538 H   0  0  0  0  0  0  0  0  0  0  0  0
   -3.1042   -1.6345   -1.5215 H   0  0  0  0  0  0  0  0  0  0  0  0
   -0.6455   -1.1965   -1.6778 H   0  0  0  0  0  0  0  0  0  0  0  0
    0.4075    3.0575   -1.4560 H   0  0  0  0  0  0  0  0  0  0  0  0
    2.8312    3.5339   -1.2025 H   0  0  0  0  0  0  0  0  0  0  0  0
    4.5407   -0.9785   -0.2667 H   0  0  0  0  0  0  0  0  0  0  0  0
    6.6226   -2.2793   -0.4774 H   0  0  0  0  0  0  0  0  0  0  0  0
    8.8121   -1.1752   -0.4312 H   0  0  0  0  0  0  0  0  0  0  0  0
    8.9739    1.2790   -0.1575 H   0  0  0  0  0  0  0  0  0  0  0  0
    8.4961    3.8987    0.2623 H   0  0  0  0  0  0  0  0  0  0  0  0
    7.4886    6.1166    0.7074 H   0  0  0  0  0  0  0  0  0  0  0  0
    5.0569    6.3546    0.9035 H   0  0  0  0  0  0  0  0  0  0  0  0
    3.5629    4.4435    0.5988 H   0  0  0  0  0  0  0  0  0  0  0  0
   -0.5526    0.6224    1.9261 H   0  0  0  0  0  0  0  0  0  0  0  0
   -2.3981   -0.2663    3.2921 H   0  0  0  0  0  0  0  0  0  0  0  0
   -2.8795   -2.6659    3.3629 H   0  0  0  0  0  0  0  0  0  0  0  0
   -1.4913   -4.2700    2.0894 H   0  0  0  0  0  0  0  0  0  0  0  0
    0.3621   -5.4661    0.4393 H   0  0  0  0  0  0  0  0  0  0  0  0
    2.1570   -5.9359   -1.1946 H   0  0  0  0  0  0  0  0  0  0  0  0
    3.4420   -4.1089   -2.2005 H   0  0  0  0  0  0  0  0  0  0  0  0
    3.0048   -1.7596   -1.5863 H   0  0  0  0  0  0  0  0  0  0  0  0
  1  2  2  0  0  0  0
  2  3  1  0  0  0  0
  3  4  2  0  0  0  0
  4  5  1  0  0  0  0
  5  6  2  0  0  0  0
  5  7  1  0  0  0  0
  7  8  2  0  0  0  0
  8  9  1  0  0  0  0
  9 10  2  0  0  0  0
 10 11  1  0  0  0  0
 11 12  2  0  0  0  0
 12 13  1  0  0  0  0
 13 14  1  0  0  0  0
 14 15  2  0  0  0  0
 15 16  1  0  0  0  0
 16 17  2  0  0  0  0
 17 18  1  0  0  0  0
 18 19  2  0  0  0  0
 19 20  1  0  0  0  0
 20 21  2  0  0  0  0
 21 22  1  0  0  0  0
 22 23  1  0  0  0  0
 23 24  2  0  0  0  0
 24 25  1  0  0  0  0
 25 26  2  0  0  0  0
 26 27  1  0  0  0  0
 27 28  2  0  0  0  0
 28 29  1  0  0  0  0
 29 30  2  0  0  0  0
 30 31  1  0  0  0  0
 31 32  2  0  0  0  0
 32 33  1  0  0  0  0
 33 34  2  0  0  0  0
 21 35  1  0  0  0  0
 35 36  2  0  0  0  0
 36 37  1  0  0  0  0
 37 38  1  0  0  0  0
 38 39  2  0  0  0  0
 39 40  1  0  0  0  0
 40 41  2  0  0  0  0
 41 42  1  0  0  0  0
 42 43  2  0  0  0  0
 43 44  1  0  0  0  0
 44 45  2  0  0  0  0
 45 46  1  0  0  0  0
 46 47  2  0  0  0  0
 47 48  1  0  0  0  0
 48 49  2  0  0  0  0
 17 50  1  0  0  0  0
 50 51  2  0  0  0  0
  6  1  1  0  0  0  0
 12  7  1  0  0  0  0
 51 14  1  0  0  0  0
 13  4  1  0  0  0  0
 36 18  1  0  0  0  0
 49 37  1  0  0  0  0
 34 22  1  0  0  0  0
 43 38  1  0  0  0  0
 49 44  1  0  0  0  0
 28 23  1  0  0  0  0
 34 29  1  0  0  0  0
  1 52  1  0  0  0  0
  2 53  1  0  0  0  0
  3 54  1  0  0  0  0
  6 55  1  0  0  0  0
  8 56  1  0  0  0  0
  9 57  1  0  0  0  0
 10 58  1  0  0  0  0
 11 59  1  0  0  0  0
 15 60  1  0  0  0  0
 16 61  1  0  0  0  0
 19 62  1  0  0  0  0
 20 63  1  0  0  0  0
 24 64  1  0  0  0  0
 25 65  1  0  0  0  0
 26 66  1  0  0  0  0
 27 67  1  0  0  0  0
 30 68  1  0  0  0  0
 31 69  1  0  0  0  0
 32 70  1  0  0  0  0
 33 71  1  0  0  0  0
 39 72  1  0  0  0  0
 40 73  1  0  0  0  0
 41 74  1  0  0  0  0
 42 75  1  0  0  0  0
 45 76  1  0  0  0  0
 46 77  1  0  0  0  0
 47 78  1  0  0  0  0
 48 79  1  0  0  0  0
M  END
