
  xtb     03022212563D
 energy: -57.710110919706 gnorm: 0.000098930596 xtb: 6.4.1 (afa7bdf)
 38 42  0     0  0            999 V2000
    5.5370    0.4064   -0.4520 C   0  0  0  0  0  0  0  0  0  0  0  0
    5.0285   -0.5145   -1.3814 C   0  0  0  0  0  0  0  0  0  0  0  0
    3.6878   -0.7735   -1.4358 C   0  0  0  0  0  0  0  0  0  0  0  0
    2.7924   -0.1209   -0.5622 C   0  0  0  0  0  0  0  0  0  0  0  0
    1.4054   -0.3607   -0.6023 C   0  0  0  0  0  0  0  0  0  0  0  0
    0.5555    0.2857    0.2617 C   0  0  0  0  0  0  0  0  0  0  0  0
   -0.8231    0.0358    0.2308 N   0  0  0  0  0  0  0  0  0  0  0  0
   -1.8158    0.9938    0.1754 C   0  0  0  0  0  0  0  0  0  0  0  0
   -1.7084    2.3743    0.0843 C   0  0  0  0  0  0  0  0  0  0  0  0
   -2.8765    3.1091    0.0167 C   0  0  0  0  0  0  0  0  0  0  0  0
   -4.1259    2.4929    0.0286 C   0  0  0  0  0  0  0  0  0  0  0  0
   -4.2387    1.1185    0.0926 C   0  0  0  0  0  0  0  0  0  0  0  0
   -3.0788    0.3582    0.1619 C   0  0  0  0  0  0  0  0  0  0  0  0
   -2.8252   -1.0542    0.2152 C   0  0  0  0  0  0  0  0  0  0  0  0
   -3.6487   -2.1720    0.2445 C   0  0  0  0  0  0  0  0  0  0  0  0
   -3.0660   -3.4211    0.3194 C   0  0  0  0  0  0  0  0  0  0  0  0
   -1.6814   -3.5628    0.3804 C   0  0  0  0  0  0  0  0  0  0  0  0
   -0.8413   -2.4662    0.3518 C   0  0  0  0  0  0  0  0  0  0  0  0
   -1.4202   -1.2092    0.2522 C   0  0  0  0  0  0  0  0  0  0  0  0
    1.0701    1.2052    1.2010 C   0  0  0  0  0  0  0  0  0  0  0  0
    2.4090    1.4620    1.2498 C   0  0  0  0  0  0  0  0  0  0  0  0
    3.3069    0.8121    0.3762 C   0  0  0  0  0  0  0  0  0  0  0  0
    4.6949    1.0552    0.4075 C   0  0  0  0  0  0  0  0  0  0  0  0
    6.5996    0.5975   -0.4230 H   0  0  0  0  0  0  0  0  0  0  0  0
    5.7080   -1.0175   -2.0538 H   0  0  0  0  0  0  0  0  0  0  0  0
    3.2921   -1.4818   -2.1498 H   0  0  0  0  0  0  0  0  0  0  0  0
    1.0119   -1.0528   -1.3327 H   0  0  0  0  0  0  0  0  0  0  0  0
   -0.7451    2.8611    0.0549 H   0  0  0  0  0  0  0  0  0  0  0  0
   -2.8193    4.1856   -0.0512 H   0  0  0  0  0  0  0  0  0  0  0  0
   -5.0155    3.1030   -0.0235 H   0  0  0  0  0  0  0  0  0  0  0  0
   -5.2062    0.6394    0.0845 H   0  0  0  0  0  0  0  0  0  0  0  0
   -4.7221   -2.0604    0.2137 H   0  0  0  0  0  0  0  0  0  0  0  0
   -3.6881   -4.3036    0.3406 H   0  0  0  0  0  0  0  0  0  0  0  0
   -1.2546   -4.5523    0.4546 H   0  0  0  0  0  0  0  0  0  0  0  0
    0.2297   -2.5861    0.4172 H   0  0  0  0  0  0  0  0  0  0  0  0
    0.3886    1.6844    1.8880 H   0  0  0  0  0  0  0  0  0  0  0  0
    2.8028    2.1641    1.9708 H   0  0  0  0  0  0  0  0  0  0  0  0
    5.0809    1.7655    1.1249 H   0  0  0  0  0  0  0  0  0  0  0  0
  1  2  2  0  0  0  0
  2  3  1  0  0  0  0
  3  4  2  0  0  0  0
  4  5  1  0  0  0  0
  5  6  2  0  0  0  0
  6  7  1  0  0  0  0
  7  8  1  0  0  0  0
  8  9  2  0  0  0  0
  9 10  1  0  0  0  0
 10 11  2  0  0  0  0
 11 12  1  0  0  0  0
 12 13  2  0  0  0  0
 13 14  1  0  0  0  0
 14 15  2  0  0  0  0
 15 16  1  0  0  0  0
 16 17  2  0  0  0  0
 17 18  1  0  0  0  0
 18 19  2  0  0  0  0
  6 20  1  0  0  0  0
 20 21  2  0  0  0  0
 21 22  1  0  0  0  0
 22 23  2  0  0  0  0
 23  1  1  0  0  0  0
 22  4  1  0  0  0  0
 19  7  1  0  0  0  0
 13  8  1  0  0  0  0
 19 14  1  0  0  0  0
  1 24  1  0  0  0  0
  2 25  1  0  0  0  0
  3 26  1  0  0  0  0
  5 27  1  0  0  0  0
  9 28  1  0  0  0  0
 10 29  1  0  0  0  0
 11 30  1  0  0  0  0
 12 31  1  0  0  0  0
 15 32  1  0  0  0  0
 16 33  1  0  0  0  0
 17 34  1  0  0  0  0
 18 35  1  0  0  0  0
 20 36  1  0  0  0  0
 21 37  1  0  0  0  0
 23 38  1  0  0  0  0
M  END
