
  xtb     03022214033D
 energy: -134.801162854708 gnorm: 0.000222846272 xtb: 6.4.1 (afa7bdf)
 82 88  0     0  0            999 V2000
   -1.4825    3.3983   -0.2848 O   0  0  0  0  0  0  0  0  0  0  0  0
   -1.7338    2.4739    0.7893 S   0  0  0  0  0  6  0  0  0  0  0  0
   -1.5332    2.9230    2.1416 O   0  0  0  0  0  0  0  0  0  0  0  0
   -3.3811    1.8078    0.6149 C   0  0  0  0  0  0  0  0  0  0  0  0
   -3.9077    1.0433    1.6410 C   0  0  0  0  0  0  0  0  0  0  0  0
   -5.1589    0.4822    1.5025 C   0  0  0  0  0  0  0  0  0  0  0  0
   -5.8958    0.6761    0.3261 C   0  0  0  0  0  0  0  0  0  0  0  0
   -7.1534    0.1131    0.1827 N   0  0  0  0  0  0  0  0  0  0  0  0
   -8.1394    0.7520   -0.5893 C   0  0  0  0  0  0  0  0  0  0  0  0
   -8.9796    0.0034   -1.4107 C   0  0  0  0  0  0  0  0  0  0  0  0
   -9.9594    0.6306   -2.1565 C   0  0  0  0  0  0  0  0  0  0  0  0
  -10.1107    2.0063   -2.0993 C   0  0  0  0  0  0  0  0  0  0  0  0
   -9.2769    2.7537   -1.2836 C   0  0  0  0  0  0  0  0  0  0  0  0
   -8.2994    2.1350   -0.5281 C   0  0  0  0  0  0  0  0  0  0  0  0
   -7.4688   -1.1076    0.8037 C   0  0  0  0  0  0  0  0  0  0  0  0
   -6.5385   -2.1445    0.8404 C   0  0  0  0  0  0  0  0  0  0  0  0
   -6.8618   -3.3453    1.4427 C   0  0  0  0  0  0  0  0  0  0  0  0
   -8.1137   -3.5328    2.0053 C   0  0  0  0  0  0  0  0  0  0  0  0
   -9.0433   -2.5067    1.9646 C   0  0  0  0  0  0  0  0  0  0  0  0
   -8.7264   -1.2993    1.3720 C   0  0  0  0  0  0  0  0  0  0  0  0
   -5.3426    1.4517   -0.7010 C   0  0  0  0  0  0  0  0  0  0  0  0
   -4.0911    2.0116   -0.5541 C   0  0  0  0  0  0  0  0  0  0  0  0
   -0.7089    1.0123    0.5286 C   0  0  0  0  0  0  0  0  0  0  0  0
   -0.0849    0.4140    1.6072 C   0  0  0  0  0  0  0  0  0  0  0  0
    0.6711   -0.7288    1.4008 C   0  0  0  0  0  0  0  0  0  0  0  0
    0.7729   -1.2450    0.1224 C   0  0  0  0  0  0  0  0  0  0  0  0
    1.8150   -2.6912   -0.1550 S   0  0  0  0  0  6  0  0  0  0  0  0
    1.4654   -3.2537   -1.4326 O   0  0  0  0  0  0  0  0  0  0  0  0
    1.7431   -3.5324    1.0102 O   0  0  0  0  0  0  0  0  0  0  0  0
    3.4380   -1.9537   -0.2494 C   0  0  0  0  0  0  0  0  0  0  0  0
    3.8367   -1.3459   -1.4267 C   0  0  0  0  0  0  0  0  0  0  0  0
    5.0644   -0.7229   -1.4928 C   0  0  0  0  0  0  0  0  0  0  0  0
    5.9061   -0.6953   -0.3726 C   0  0  0  0  0  0  0  0  0  0  0  0
    7.1390   -0.0670   -0.4346 N   0  0  0  0  0  0  0  0  0  0  0  0
    7.3349    1.0475   -1.2684 C   0  0  0  0  0  0  0  0  0  0  0  0
    8.5267    1.1916   -1.9756 C   0  0  0  0  0  0  0  0  0  0  0  0
    8.7267    2.2972   -2.7800 C   0  0  0  0  0  0  0  0  0  0  0  0
    7.7442    3.2666   -2.8958 C   0  0  0  0  0  0  0  0  0  0  0  0
    6.5574    3.1262   -2.1951 C   0  0  0  0  0  0  0  0  0  0  0  0
    6.3514    2.0283   -1.3818 C   0  0  0  0  0  0  0  0  0  0  0  0
    8.2195   -0.5311    0.3356 C   0  0  0  0  0  0  0  0  0  0  0  0
    8.4482   -1.8979    0.4824 C   0  0  0  0  0  0  0  0  0  0  0  0
    9.5183   -2.3447    1.2337 C   0  0  0  0  0  0  0  0  0  0  0  0
   10.3768   -1.4410    1.8381 C   0  0  0  0  0  0  0  0  0  0  0  0
   10.1568   -0.0817    1.6878 C   0  0  0  0  0  0  0  0  0  0  0  0
    9.0847    0.3750    0.9450 C   0  0  0  0  0  0  0  0  0  0  0  0
    5.4825   -1.3167    0.8096 C   0  0  0  0  0  0  0  0  0  0  0  0
    4.2538   -1.9395    0.8673 C   0  0  0  0  0  0  0  0  0  0  0  0
    0.1465   -0.6479   -0.9562 C   0  0  0  0  0  0  0  0  0  0  0  0
   -0.6083    0.4951   -0.7500 C   0  0  0  0  0  0  0  0  0  0  0  0
   -3.3379    0.9193    2.5483 H   0  0  0  0  0  0  0  0  0  0  0  0
   -5.5846   -0.1008    2.3048 H   0  0  0  0  0  0  0  0  0  0  0  0
   -8.8577   -1.0686   -1.4595 H   0  0  0  0  0  0  0  0  0  0  0  0
  -10.6039    0.0412   -2.7915 H   0  0  0  0  0  0  0  0  0  0  0  0
  -10.8750    2.4931   -2.6855 H   0  0  0  0  0  0  0  0  0  0  0  0
   -9.3933    3.8257   -1.2277 H   0  0  0  0  0  0  0  0  0  0  0  0
   -7.6572    2.7168    0.1166 H   0  0  0  0  0  0  0  0  0  0  0  0
   -5.5665   -2.0043    0.3904 H   0  0  0  0  0  0  0  0  0  0  0  0
   -6.1338   -4.1425    1.4634 H   0  0  0  0  0  0  0  0  0  0  0  0
   -8.3638   -4.4736    2.4710 H   0  0  0  0  0  0  0  0  0  0  0  0
  -10.0204   -2.6439    2.4033 H   0  0  0  0  0  0  0  0  0  0  0  0
   -9.4493   -0.4973    1.3455 H   0  0  0  0  0  0  0  0  0  0  0  0
   -5.9008    1.6017   -1.6127 H   0  0  0  0  0  0  0  0  0  0  0  0
   -3.6505    2.6162   -1.3311 H   0  0  0  0  0  0  0  0  0  0  0  0
   -0.1929    0.8621    2.5828 H   0  0  0  0  0  0  0  0  0  0  0  0
    1.1683   -1.2357    2.2127 H   0  0  0  0  0  0  0  0  0  0  0  0
    3.1880   -1.3936   -2.2868 H   0  0  0  0  0  0  0  0  0  0  0  0
    5.3906   -0.2620   -2.4127 H   0  0  0  0  0  0  0  0  0  0  0  0
    9.2905    0.4329   -1.8897 H   0  0  0  0  0  0  0  0  0  0  0  0
    9.6535    2.3981   -3.3249 H   0  0  0  0  0  0  0  0  0  0  0  0
    7.9029    4.1276   -3.5268 H   0  0  0  0  0  0  0  0  0  0  0  0
    5.7894    3.8810   -2.2736 H   0  0  0  0  0  0  0  0  0  0  0  0
    5.4309    1.9264   -0.8257 H   0  0  0  0  0  0  0  0  0  0  0  0
    7.7861   -2.6028    0.0015 H   0  0  0  0  0  0  0  0  0  0  0  0
    9.6873   -3.4059    1.3399 H   0  0  0  0  0  0  0  0  0  0  0  0
   11.2133   -1.7941    2.4214 H   0  0  0  0  0  0  0  0  0  0  0  0
   10.8201    0.6291    2.1576 H   0  0  0  0  0  0  0  0  0  0  0  0
    8.9096    1.4348    0.8325 H   0  0  0  0  0  0  0  0  0  0  0  0
    6.1223   -1.2968    1.6786 H   0  0  0  0  0  0  0  0  0  0  0  0
    3.9136   -2.4282    1.7664 H   0  0  0  0  0  0  0  0  0  0  0  0
    0.2481   -1.0984   -1.9311 H   0  0  0  0  0  0  0  0  0  0  0  0
   -1.1071    0.9992   -1.5628 H   0  0  0  0  0  0  0  0  0  0  0  0
  1  2  2  0  0  0  0
  2  3  2  0  0  0  0
  2  4  1  0  0  0  0
  4  5  2  0  0  0  0
  5  6  1  0  0  0  0
  6  7  2  0  0  0  0
  7  8  1  0  0  0  0
  8  9  1  0  0  0  0
  9 10  2  0  0  0  0
 10 11  1  0  0  0  0
 11 12  2  0  0  0  0
 12 13  1  0  0  0  0
 13 14  2  0  0  0  0
  8 15  1  0  0  0  0
 15 16  2  0  0  0  0
 16 17  1  0  0  0  0
 17 18  2  0  0  0  0
 18 19  1  0  0  0  0
 19 20  2  0  0  0  0
  7 21  1  0  0  0  0
 21 22  2  0  0  0  0
  2 23  1  0  0  0  0
 23 24  2  0  0  0  0
 24 25  1  0  0  0  0
 25 26  2  0  0  0  0
 26 27  1  0  0  0  0
 27 28  2  0  0  0  0
 27 29  2  0  0  0  0
 27 30  1  0  0  0  0
 30 31  2  0  0  0  0
 31 32  1  0  0  0  0
 32 33  2  0  0  0  0
 33 34  1  0  0  0  0
 34 35  1  0  0  0  0
 35 36  2  0  0  0  0
 36 37  1  0  0  0  0
 37 38  2  0  0  0  0
 38 39  1  0  0  0  0
 39 40  2  0  0  0  0
 34 41  1  0  0  0  0
 41 42  2  0  0  0  0
 42 43  1  0  0  0  0
 43 44  2  0  0  0  0
 44 45  1  0  0  0  0
 45 46  2  0  0  0  0
 33 47  1  0  0  0  0
 47 48  2  0  0  0  0
 26 49  1  0  0  0  0
 49 50  2  0  0  0  0
 22  4  1  0  0  0  0
 50 23  1  0  0  0  0
 14  9  1  0  0  0  0
 20 15  1  0  0  0  0
 48 30  1  0  0  0  0
 40 35  1  0  0  0  0
 46 41  1  0  0  0  0
  5 51  1  0  0  0  0
  6 52  1  0  0  0  0
 10 53  1  0  0  0  0
 11 54  1  0  0  0  0
 12 55  1  0  0  0  0
 13 56  1  0  0  0  0
 14 57  1  0  0  0  0
 16 58  1  0  0  0  0
 17 59  1  0  0  0  0
 18 60  1  0  0  0  0
 19 61  1  0  0  0  0
 20 62  1  0  0  0  0
 21 63  1  0  0  0  0
 22 64  1  0  0  0  0
 24 65  1  0  0  0  0
 25 66  1  0  0  0  0
 31 67  1  0  0  0  0
 32 68  1  0  0  0  0
 36 69  1  0  0  0  0
 37 70  1  0  0  0  0
 38 71  1  0  0  0  0
 39 72  1  0  0  0  0
 40 73  1  0  0  0  0
 42 74  1  0  0  0  0
 43 75  1  0  0  0  0
 44 76  1  0  0  0  0
 45 77  1  0  0  0  0
 46 78  1  0  0  0  0
 47 79  1  0  0  0  0
 48 80  1  0  0  0  0
 49 81  1  0  0  0  0
 50 82  1  0  0  0  0
M  END
