
  xtb     03022213263D
 energy: -97.817245780113 gnorm: 0.000717614582 xtb: 6.4.1 (afa7bdf)
 64 70  0     0  0            999 V2000
   12.8608    0.4148    0.4818 C   0  0  0  0  0  0  0  0  0  0  0  0
   11.5297    0.1625   -0.1633 C   0  0  0  0  0  0  0  0  0  0  0  0
   11.4974   -0.2927   -1.4907 C   0  0  0  0  0  0  0  0  0  0  0  0
   10.3171   -0.5466   -2.1563 C   0  0  0  0  0  0  0  0  0  0  0  0
    9.1419   -0.3322   -1.4554 C   0  0  0  0  0  0  0  0  0  0  0  0
    7.8189   -0.4728   -1.7775 N   0  0  0  0  0  0  0  0  0  0  0  0
    7.0943   -0.1072   -0.6676 C   0  0  0  0  0  0  0  0  0  0  0  0
    5.6475   -0.1196   -0.6069 C   0  0  0  0  0  0  0  0  0  0  0  0
    5.0236    0.2989    0.5711 C   0  0  0  0  0  0  0  0  0  0  0  0
    3.6504    0.3069    0.6745 C   0  0  0  0  0  0  0  0  0  0  0  0
    2.8505   -0.1096   -0.3906 C   0  0  0  0  0  0  0  0  0  0  0  0
    1.3870   -0.1046   -0.2799 C   0  0  0  0  0  0  0  0  0  0  0  0
    0.6259   -1.1484   -0.8033 C   0  0  0  0  0  0  0  0  0  0  0  0
   -0.7497   -1.1431   -0.6972 C   0  0  0  0  0  0  0  0  0  0  0  0
   -1.4139   -0.0934   -0.0648 C   0  0  0  0  0  0  0  0  0  0  0  0
   -2.8772   -0.0855    0.0483 C   0  0  0  0  0  0  0  0  0  0  0  0
   -3.6764   -0.5102   -1.0118 C   0  0  0  0  0  0  0  0  0  0  0  0
   -5.0525   -0.4990   -0.9136 C   0  0  0  0  0  0  0  0  0  0  0  0
   -5.6750   -0.0657    0.2575 C   0  0  0  0  0  0  0  0  0  0  0  0
   -7.1142   -0.0343    0.4151 C   0  0  0  0  0  0  0  0  0  0  0  0
   -7.7220    0.3917    1.4938 N   0  0  0  0  0  0  0  0  0  0  0  0
   -9.0597    0.2638    1.2546 C   0  0  0  0  0  0  0  0  0  0  0  0
  -10.1529    0.5686    2.0607 C   0  0  0  0  0  0  0  0  0  0  0  0
  -11.4202    0.3365    1.5641 C   0  0  0  0  0  0  0  0  0  0  0  0
  -12.6364    0.6410    2.3887 C   0  0  0  0  0  0  0  0  0  0  0  0
  -11.5924   -0.1945    0.2762 C   0  0  0  0  0  0  0  0  0  0  0  0
  -10.5281   -0.5047   -0.5435 C   0  0  0  0  0  0  0  0  0  0  0  0
   -9.2589   -0.2699   -0.0413 C   0  0  0  0  0  0  0  0  0  0  0  0
   -8.0010   -0.4483   -0.5507 N   0  0  0  0  0  0  0  0  0  0  0  0
   -4.8758    0.3570    1.3228 C   0  0  0  0  0  0  0  0  0  0  0  0
   -3.5029    0.3494    1.2177 C   0  0  0  0  0  0  0  0  0  0  0  0
   -0.6525    0.9507    0.4582 C   0  0  0  0  0  0  0  0  0  0  0  0
    0.7230    0.9451    0.3530 C   0  0  0  0  0  0  0  0  0  0  0  0
    3.4751   -0.5307   -1.5634 C   0  0  0  0  0  0  0  0  0  0  0  0
    4.8503   -0.5335   -1.6747 C   0  0  0  0  0  0  0  0  0  0  0  0
    7.8643    0.2522    0.3286 N   0  0  0  0  0  0  0  0  0  0  0  0
    9.1486    0.1275   -0.1166 C   0  0  0  0  0  0  0  0  0  0  0  0
   10.3555    0.3754    0.5313 C   0  0  0  0  0  0  0  0  0  0  0  0
   12.7377    0.7258    1.5160 H   0  0  0  0  0  0  0  0  0  0  0  0
   13.4724   -0.4869    0.4593 H   0  0  0  0  0  0  0  0  0  0  0  0
   13.4003    1.1959   -0.0539 H   0  0  0  0  0  0  0  0  0  0  0  0
   12.4356   -0.4482   -2.0038 H   0  0  0  0  0  0  0  0  0  0  0  0
   10.3108   -0.8972   -3.1780 H   0  0  0  0  0  0  0  0  0  0  0  0
    7.4540   -0.7809   -2.6619 H   0  0  0  0  0  0  0  0  0  0  0  0
    5.6490    0.6117    1.3918 H   0  0  0  0  0  0  0  0  0  0  0  0
    3.1845    0.6178    1.5980 H   0  0  0  0  0  0  0  0  0  0  0  0
    1.1220   -1.9844   -1.2749 H   0  0  0  0  0  0  0  0  0  0  0  0
   -1.3181   -1.9755   -1.0865 H   0  0  0  0  0  0  0  0  0  0  0  0
   -3.2115   -0.8315   -1.9327 H   0  0  0  0  0  0  0  0  0  0  0  0
   -5.6372   -0.8269   -1.7616 H   0  0  0  0  0  0  0  0  0  0  0  0
  -10.0002    0.9760    3.0476 H   0  0  0  0  0  0  0  0  0  0  0  0
  -13.2986    1.3224    1.8549 H   0  0  0  0  0  0  0  0  0  0  0  0
  -13.1943   -0.2730    2.5932 H   0  0  0  0  0  0  0  0  0  0  0  0
  -12.3584    1.0960    3.3360 H   0  0  0  0  0  0  0  0  0  0  0  0
  -12.5985   -0.3636   -0.0799 H   0  0  0  0  0  0  0  0  0  0  0  0
  -10.6791   -0.9121   -1.5325 H   0  0  0  0  0  0  0  0  0  0  0  0
   -7.7762   -0.8165   -1.4585 H   0  0  0  0  0  0  0  0  0  0  0  0
   -5.3668    0.6859    2.2247 H   0  0  0  0  0  0  0  0  0  0  0  0
   -2.8999    0.6629    2.0571 H   0  0  0  0  0  0  0  0  0  0  0  0
   -1.1489    1.7860    0.9302 H   0  0  0  0  0  0  0  0  0  0  0  0
    1.2926    1.7756    0.7439 H   0  0  0  0  0  0  0  0  0  0  0  0
    2.8723   -0.8387   -2.4055 H   0  0  0  0  0  0  0  0  0  0  0  0
    5.2963   -0.8611   -2.6031 H   0  0  0  0  0  0  0  0  0  0  0  0
   10.3597    0.7248    1.5517 H   0  0  0  0  0  0  0  0  0  0  0  0
  1  2  1  0  0  0  0
  2  3  2  0  0  0  0
  3  4  1  0  0  0  0
  4  5  2  0  0  0  0
  5  6  1  0  0  0  0
  6  7  1  0  0  0  0
  7  8  1  0  0  0  0
  8  9  2  0  0  0  0
  9 10  1  0  0  0  0
 10 11  2  0  0  0  0
 11 12  1  0  0  0  0
 12 13  2  0  0  0  0
 13 14  1  0  0  0  0
 14 15  2  0  0  0  0
 15 16  1  0  0  0  0
 16 17  2  0  0  0  0
 17 18  1  0  0  0  0
 18 19  2  0  0  0  0
 19 20  1  0  0  0  0
 20 21  2  0  0  0  0
 21 22  1  0  0  0  0
 22 23  2  0  0  0  0
 23 24  1  0  0  0  0
 24 25  1  0  0  0  0
 24 26  2  0  0  0  0
 26 27  1  0  0  0  0
 27 28  2  0  0  0  0
 28 29  1  0  0  0  0
 19 30  1  0  0  0  0
 30 31  2  0  0  0  0
 15 32  1  0  0  0  0
 32 33  2  0  0  0  0
 11 34  1  0  0  0  0
 34 35  2  0  0  0  0
  7 36  2  0  0  0  0
 36 37  1  0  0  0  0
 37 38  2  0  0  0  0
 38  2  1  0  0  0  0
 37  5  1  0  0  0  0
 35  8  1  0  0  0  0
 33 12  1  0  0  0  0
 31 16  1  0  0  0  0
 29 20  1  0  0  0  0
 28 22  1  0  0  0  0
  1 39  1  0  0  0  0
  1 40  1  0  0  0  0
  1 41  1  0  0  0  0
  3 42  1  0  0  0  0
  4 43  1  0  0  0  0
  6 44  1  0  0  0  0
  9 45  1  0  0  0  0
 10 46  1  0  0  0  0
 13 47  1  0  0  0  0
 14 48  1  0  0  0  0
 17 49  1  0  0  0  0
 18 50  1  0  0  0  0
 23 51  1  0  0  0  0
 25 52  1  0  0  0  0
 25 53  1  0  0  0  0
 25 54  1  0  0  0  0
 26 55  1  0  0  0  0
 27 56  1  0  0  0  0
 29 57  1  0  0  0  0
 30 58  1  0  0  0  0
 31 59  1  0  0  0  0
 32 60  1  0  0  0  0
 33 61  1  0  0  0  0
 34 62  1  0  0  0  0
 35 63  1  0  0  0  0
 38 64  1  0  0  0  0
M  END
