
  xtb     03022213003D
 energy: -49.625289349400 gnorm: 0.000161636325 xtb: 6.4.1 (afa7bdf)
 27 30  0     0  0            999 V2000
   -4.9186    1.5545    0.1560 C   0  0  0  0  0  0  0  0  0  0  0  0
   -5.2840    0.2649   -0.0798 C   0  0  0  0  0  0  0  0  0  0  0  0
   -3.9334   -0.7691   -0.3031 S   0  0  0  0  0  0  0  0  0  0  0  0
   -2.8345    0.5590   -0.0754 C   0  0  0  0  0  0  0  0  0  0  0  0
   -1.4125    0.3598   -0.1426 C   0  0  0  0  0  0  0  0  0  0  0  0
   -0.4888    1.3780    0.0302 C   0  0  0  0  0  0  0  0  0  0  0  0
    0.8875    1.1660   -0.0385 C   0  0  0  0  0  0  0  0  0  0  0  0
    1.4591   -0.0719   -0.2840 C   0  0  0  0  0  0  0  0  0  0  0  0
    2.8827   -0.2597   -0.3491 C   0  0  0  0  0  0  0  0  0  0  0  0
    3.5863   -1.4140   -0.5816 C   0  0  0  0  0  0  0  0  0  0  0  0
    4.9801   -1.2267   -0.5753 C   0  0  0  0  0  0  0  0  0  0  0  0
    5.3366    0.0638   -0.3392 C   0  0  0  0  0  0  0  0  0  0  0  0
    3.9745    1.0828   -0.1185 S   0  0  0  0  0  0  0  0  0  0  0  0
    0.5509   -1.1482   -0.4682 C   0  0  0  0  0  0  0  0  0  0  0  0
    0.8340   -2.4268   -0.7154 N   0  0  0  0  0  0  0  0  0  0  0  0
   -0.5373   -3.2565   -0.8434 S   0  0  0  0  0  0  0  0  0  0  0  0
   -1.5611   -2.0447   -0.5933 N   0  0  0  0  0  0  0  0  0  0  0  0
   -0.8696   -0.9255   -0.3965 C   0  0  0  0  0  0  0  0  0  0  0  0
   -3.5250    1.7249    0.1591 C   0  0  0  0  0  0  0  0  0  0  0  0
   -5.6177    2.3549    0.3216 H   0  0  0  0  0  0  0  0  0  0  0  0
   -6.2747   -0.1408   -0.1357 H   0  0  0  0  0  0  0  0  0  0  0  0
   -0.8385    2.3791    0.2265 H   0  0  0  0  0  0  0  0  0  0  0  0
    1.5434    2.0123    0.1076 H   0  0  0  0  0  0  0  0  0  0  0  0
    3.1017   -2.3576   -0.7496 H   0  0  0  0  0  0  0  0  0  0  0  0
    5.6893   -2.0183   -0.7395 H   0  0  0  0  0  0  0  0  0  0  0  0
    6.3205    0.4855   -0.2801 H   0  0  0  0  0  0  0  0  0  0  0  0
   -3.0506    2.6744    0.3283 H   0  0  0  0  0  0  0  0  0  0  0  0
  1  2  2  0  0  0  0
  2  3  1  0  0  0  0
  3  4  1  0  0  0  0
  4  5  1  0  0  0  0
  5  6  2  0  0  0  0
  6  7  1  0  0  0  0
  7  8  2  0  0  0  0
  8  9  1  0  0  0  0
  9 10  2  0  0  0  0
 10 11  1  0  0  0  0
 11 12  2  0  0  0  0
 12 13  1  0  0  0  0
  8 14  1  0  0  0  0
 14 15  2  0  0  0  0
 15 16  1  0  0  0  0
 16 17  1  0  0  0  0
 17 18  2  0  0  0  0
  4 19  2  0  0  0  0
 19  1  1  0  0  0  0
 18  5  1  0  0  0  0
 13  9  1  0  0  0  0
 18 14  1  0  0  0  0
  1 20  1  0  0  0  0
  2 21  1  0  0  0  0
  6 22  1  0  0  0  0
  7 23  1  0  0  0  0
 10 24  1  0  0  0  0
 11 25  1  0  0  0  0
 12 26  1  0  0  0  0
 19 27  1  0  0  0  0
M  END
