
  xtb     03022214133D
 energy: -57.663280392006 gnorm: 0.000137630347 xtb: 6.4.1 (afa7bdf)
 34 36  0     0  0            999 V2000
    5.6895    1.2150    0.2479 C   0  0  0  0  0  0  0  0  0  0  0  0
    5.0652    0.0716   -0.2856 O   0  0  0  0  0  0  0  0  0  0  0  0
    3.7074   -0.0089   -0.2357 C   0  0  0  0  0  0  0  0  0  0  0  0
    3.1494   -1.1654   -0.7857 C   0  0  0  0  0  0  0  0  0  0  0  0
    1.7799   -1.3777   -0.8041 C   0  0  0  0  0  0  0  0  0  0  0  0
    0.9530   -0.4129   -0.2610 C   0  0  0  0  0  0  0  0  0  0  0  0
    1.5132    0.7496    0.2935 C   0  0  0  0  0  0  0  0  0  0  0  0
    2.8758    0.9687    0.3159 C   0  0  0  0  0  0  0  0  0  0  0  0
    0.4286    1.6222    0.8065 C   0  0  0  0  0  0  0  0  0  0  0  0
    0.5311    2.6989    1.3486 O   0  0  0  0  0  0  0  0  0  0  0  0
   -0.8237    0.8744    0.5040 C   0  0  0  0  0  0  0  0  0  0  0  0
   -2.1237    1.2514    0.7739 C   0  0  0  0  0  0  0  0  0  0  0  0
   -3.1396    0.3760    0.3896 C   0  0  0  0  0  0  0  0  0  0  0  0
   -4.4675    0.5991    0.5810 O   0  0  0  0  0  0  0  0  0  0  0  0
   -4.8610    1.7982    1.2066 C   0  0  0  0  0  0  0  0  0  0  0  0
   -2.8297   -0.8301   -0.2411 C   0  0  0  0  0  0  0  0  0  0  0  0
   -1.5156   -1.2061   -0.5111 C   0  0  0  0  0  0  0  0  0  0  0  0
   -1.1574   -2.3641   -1.1212 O   0  0  0  0  0  0  0  0  0  0  0  0
   -2.1687   -3.2600   -1.5176 C   0  0  0  0  0  0  0  0  0  0  0  0
   -0.4984   -0.3314   -0.1286 C   0  0  0  0  0  0  0  0  0  0  0  0
    6.7572    1.0645    0.0965 H   0  0  0  0  0  0  0  0  0  0  0  0
    5.3750    2.1248   -0.2733 H   0  0  0  0  0  0  0  0  0  0  0  0
    5.4874    1.3209    1.3185 H   0  0  0  0  0  0  0  0  0  0  0  0
    3.8248   -1.8970   -1.2014 H   0  0  0  0  0  0  0  0  0  0  0  0
    1.3677   -2.2765   -1.2336 H   0  0  0  0  0  0  0  0  0  0  0  0
    3.2586    1.8773    0.7527 H   0  0  0  0  0  0  0  0  0  0  0  0
   -2.3152    2.1919    1.2634 H   0  0  0  0  0  0  0  0  0  0  0  0
   -5.9484    1.7640    1.2491 H   0  0  0  0  0  0  0  0  0  0  0  0
   -4.4608    1.8707    2.2225 H   0  0  0  0  0  0  0  0  0  0  0  0
   -4.5482    2.6733    0.6287 H   0  0  0  0  0  0  0  0  0  0  0  0
   -3.6619   -1.4594   -0.5110 H   0  0  0  0  0  0  0  0  0  0  0  0
   -2.7483   -3.6161   -0.6603 H   0  0  0  0  0  0  0  0  0  0  0  0
   -1.6521   -4.1013   -1.9771 H   0  0  0  0  0  0  0  0  0  0  0  0
   -2.8428   -2.8057   -2.2503 H   0  0  0  0  0  0  0  0  0  0  0  0
  1  2  1  0  0  0  0
  2  3  1  0  0  0  0
  3  4  2  0  0  0  0
  4  5  1  0  0  0  0
  5  6  2  0  0  0  0
  6  7  1  0  0  0  0
  7  8  2  0  0  0  0
  7  9  1  0  0  0  0
  9 10  2  0  0  0  0
  9 11  1  0  0  0  0
 11 12  2  0  0  0  0
 12 13  1  0  0  0  0
 13 14  1  0  0  0  0
 14 15  1  0  0  0  0
 13 16  2  0  0  0  0
 16 17  1  0  0  0  0
 17 18  1  0  0  0  0
 18 19  1  0  0  0  0
 17 20  2  0  0  0  0
  8  3  1  0  0  0  0
 20 11  1  0  0  0  0
 20  6  1  0  0  0  0
  1 21  1  0  0  0  0
  1 22  1  0  0  0  0
  1 23  1  0  0  0  0
  4 24  1  0  0  0  0
  5 25  1  0  0  0  0
  8 26  1  0  0  0  0
 12 27  1  0  0  0  0
 15 28  1  0  0  0  0
 15 29  1  0  0  0  0
 15 30  1  0  0  0  0
 16 31  1  0  0  0  0
 19 32  1  0  0  0  0
 19 33  1  0  0  0  0
 19 34  1  0  0  0  0
M  END
