
  xtb     03022213513D
 energy: -56.291359422555 gnorm: 0.000408250393 xtb: 6.4.1 (afa7bdf)
 35 37  0     0  0            999 V2000
    6.6780    0.7340   -0.4390 C   0  0  0  0  0  0  0  0  0  0  0  0
    5.5224    1.5282   -0.5638 O   0  0  0  0  0  0  0  0  0  0  0  0
    4.3065    0.9401   -0.4170 C   0  0  0  0  0  0  0  0  0  0  0  0
    4.0995   -0.4138   -0.1631 C   0  0  0  0  0  0  0  0  0  0  0  0
    2.8154   -0.9058   -0.0270 C   0  0  0  0  0  0  0  0  0  0  0  0
    1.7272   -0.0509   -0.1428 C   0  0  0  0  0  0  0  0  0  0  0  0
    0.4381   -0.5481    0.0021 N   0  0  0  0  0  0  0  0  0  0  0  0
    0.1918   -1.8040    0.2452 N   0  0  0  0  0  0  0  0  0  0  0  0
   -1.1365   -1.8970    0.3268 C   0  0  0  0  0  0  0  0  0  0  0  0
   -1.8169   -3.0895    0.5736 C   0  0  0  0  0  0  0  0  0  0  0  0
   -2.3980   -4.0618    0.7693 N   0  0  0  0  0  0  0  0  0  0  0  0
   -1.6687   -0.5836    0.1112 C   0  0  0  0  0  0  0  0  0  0  0  0
   -2.9422   -0.1744    0.1153 N   0  0  0  0  0  0  0  0  0  0  0  0
   -3.3126    1.1844   -0.2223 C   0  0  0  0  0  0  0  0  0  0  0  0
   -4.7848    1.0691   -0.6084 C   0  0  0  0  0  0  0  0  0  0  0  0
   -5.2697   -0.0895    0.2630 C   0  0  0  0  0  0  0  0  0  0  0  0
   -4.0843   -1.0528    0.2437 C   0  0  0  0  0  0  0  0  0  0  0  0
   -0.6368    0.2337   -0.0901 N   0  0  0  0  0  0  0  0  0  0  0  0
    1.9233    1.3040   -0.4001 C   0  0  0  0  0  0  0  0  0  0  0  0
    3.2026    1.7905   -0.5357 C   0  0  0  0  0  0  0  0  0  0  0  0
    6.7458    0.2765    0.5531 H   0  0  0  0  0  0  0  0  0  0  0  0
    6.7134   -0.0478   -1.2043 H   0  0  0  0  0  0  0  0  0  0  0  0
    7.5175    1.4129   -0.5798 H   0  0  0  0  0  0  0  0  0  0  0  0
    4.9298   -1.0950   -0.0686 H   0  0  0  0  0  0  0  0  0  0  0  0
    2.6438   -1.9517    0.1708 H   0  0  0  0  0  0  0  0  0  0  0  0
   -2.6762    1.5598   -1.0269 H   0  0  0  0  0  0  0  0  0  0  0  0
   -3.1781    1.8347    0.6510 H   0  0  0  0  0  0  0  0  0  0  0  0
   -5.3337    1.9904   -0.4278 H   0  0  0  0  0  0  0  0  0  0  0  0
   -4.8769    0.8068   -1.6630 H   0  0  0  0  0  0  0  0  0  0  0  0
   -5.4490    0.2599    1.2803 H   0  0  0  0  0  0  0  0  0  0  0  0
   -6.1793   -0.5512   -0.1136 H   0  0  0  0  0  0  0  0  0  0  0  0
   -4.1437   -1.7392   -0.6119 H   0  0  0  0  0  0  0  0  0  0  0  0
   -4.0152   -1.6548    1.1539 H   0  0  0  0  0  0  0  0  0  0  0  0
    1.0656    1.9509   -0.4866 H   0  0  0  0  0  0  0  0  0  0  0  0
    3.3821    2.8349   -0.7340 H   0  0  0  0  0  0  0  0  0  0  0  0
  1  2  1  0  0  0  0
  2  3  1  0  0  0  0
  3  4  2  0  0  0  0
  4  5  1  0  0  0  0
  5  6  2  0  0  0  0
  6  7  1  0  0  0  0
  7  8  1  0  0  0  0
  8  9  2  0  0  0  0
  9 10  1  0  0  0  0
 10 11  3  0  0  0  0
  9 12  1  0  0  0  0
 12 13  1  0  0  0  0
 13 14  1  0  0  0  0
 14 15  1  0  0  0  0
 15 16  1  0  0  0  0
 16 17  1  0  0  0  0
 12 18  2  0  0  0  0
  6 19  1  0  0  0  0
 19 20  2  0  0  0  0
 20  3  1  0  0  0  0
 18  7  1  0  0  0  0
 17 13  1  0  0  0  0
  1 21  1  0  0  0  0
  1 22  1  0  0  0  0
  1 23  1  0  0  0  0
  4 24  1  0  0  0  0
  5 25  1  0  0  0  0
 14 26  1  0  0  0  0
 14 27  1  0  0  0  0
 15 28  1  0  0  0  0
 15 29  1  0  0  0  0
 16 30  1  0  0  0  0
 16 31  1  0  0  0  0
 17 32  1  0  0  0  0
 17 33  1  0  0  0  0
 19 34  1  0  0  0  0
 20 35  1  0  0  0  0
M  END
