
  xtb     03022215433D
 energy: -96.974473191876 gnorm: 0.000100440381 xtb: 6.4.1 (afa7bdf)
 59 65  0     0  0            999 V2000
    5.2279   -3.3130    0.0126 O   0  0  0  0  0  0  0  0  0  0  0  0
    5.1328   -2.2292   -0.9294 S   0  0  0  0  0  6  0  0  0  0  0  0
    5.4171   -2.4926   -2.3153 O   0  0  0  0  0  0  0  0  0  0  0  0
    6.1857   -0.8821   -0.3740 C   0  0  0  0  0  0  0  0  0  0  0  0
    6.3564   -0.6804    0.9817 C   0  0  0  0  0  0  0  0  0  0  0  0
    7.1306    0.3836    1.4136 C   0  0  0  0  0  0  0  0  0  0  0  0
    7.7172    1.2314    0.4865 C   0  0  0  0  0  0  0  0  0  0  0  0
    7.5395    1.0181   -0.8716 C   0  0  0  0  0  0  0  0  0  0  0  0
    6.7662   -0.0455   -1.3066 C   0  0  0  0  0  0  0  0  0  0  0  0
    3.4976   -1.5024   -0.8018 C   0  0  0  0  0  0  0  0  0  0  0  0
    3.0523   -0.6654   -1.8080 C   0  0  0  0  0  0  0  0  0  0  0  0
    1.8082   -0.0744   -1.7051 C   0  0  0  0  0  0  0  0  0  0  0  0
    1.0150   -0.3155   -0.5816 C   0  0  0  0  0  0  0  0  0  0  0  0
   -0.2470    0.2590   -0.4647 N   0  0  0  0  0  0  0  0  0  0  0  0
   -0.5944    1.5764   -0.7137 C   0  0  0  0  0  0  0  0  0  0  0  0
    0.2112    2.6397   -1.0955 C   0  0  0  0  0  0  0  0  0  0  0  0
   -0.3791    3.8750   -1.2750 C   0  0  0  0  0  0  0  0  0  0  0  0
   -1.7460    4.0634   -1.0746 C   0  0  0  0  0  0  0  0  0  0  0  0
   -2.5536    3.0283   -0.6558 C   0  0  0  0  0  0  0  0  0  0  0  0
   -1.9827    1.7741   -0.4531 C   0  0  0  0  0  0  0  0  0  0  0  0
   -2.4555    0.5091   -0.0131 C   0  0  0  0  0  0  0  0  0  0  0  0
   -1.3919   -0.3862   -0.0362 C   0  0  0  0  0  0  0  0  0  0  0  0
   -1.8904   -1.6743    0.2899 C   0  0  0  0  0  0  0  0  0  0  0  0
   -1.3491   -2.9546    0.4002 C   0  0  0  0  0  0  0  0  0  0  0  0
   -2.1730   -3.9914    0.7779 C   0  0  0  0  0  0  0  0  0  0  0  0
   -3.5221   -3.7765    1.0629 C   0  0  0  0  0  0  0  0  0  0  0  0
   -4.0906   -2.5252    0.9445 C   0  0  0  0  0  0  0  0  0  0  0  0
   -3.2832   -1.4742    0.5301 C   0  0  0  0  0  0  0  0  0  0  0  0
   -3.6139   -0.1477    0.3342 N   0  0  0  0  0  0  0  0  0  0  0  0
   -4.8773    0.4363    0.4872 C   0  0  0  0  0  0  0  0  0  0  0  0
   -6.0015   -0.1431   -0.0933 C   0  0  0  0  0  0  0  0  0  0  0  0
   -7.2410    0.4485    0.0670 C   0  0  0  0  0  0  0  0  0  0  0  0
   -7.3684    1.6211    0.7930 C   0  0  0  0  0  0  0  0  0  0  0  0
   -6.2483    2.2031    1.3636 C   0  0  0  0  0  0  0  0  0  0  0  0
   -5.0065    1.6141    1.2179 C   0  0  0  0  0  0  0  0  0  0  0  0
    1.4804   -1.1600    0.4286 C   0  0  0  0  0  0  0  0  0  0  0  0
    2.7217   -1.7539    0.3143 C   0  0  0  0  0  0  0  0  0  0  0  0
    5.8987   -1.3681    1.6752 H   0  0  0  0  0  0  0  0  0  0  0  0
    7.2790    0.5504    2.4698 H   0  0  0  0  0  0  0  0  0  0  0  0
    8.3215    2.0600    0.8249 H   0  0  0  0  0  0  0  0  0  0  0  0
    8.0048    1.6772   -1.5890 H   0  0  0  0  0  0  0  0  0  0  0  0
    6.6193   -0.2529   -2.3550 H   0  0  0  0  0  0  0  0  0  0  0  0
    3.6744   -0.5134   -2.6757 H   0  0  0  0  0  0  0  0  0  0  0  0
    1.4311    0.5495   -2.5005 H   0  0  0  0  0  0  0  0  0  0  0  0
    1.2735    2.5121   -1.2385 H   0  0  0  0  0  0  0  0  0  0  0  0
    0.2308    4.7129   -1.5779 H   0  0  0  0  0  0  0  0  0  0  0  0
   -2.1732    5.0411   -1.2401 H   0  0  0  0  0  0  0  0  0  0  0  0
   -3.6092    3.1813   -0.4894 H   0  0  0  0  0  0  0  0  0  0  0  0
   -0.3057   -3.1298    0.1858 H   0  0  0  0  0  0  0  0  0  0  0  0
   -1.7689   -4.9888    0.8648 H   0  0  0  0  0  0  0  0  0  0  0  0
   -4.1337   -4.6081    1.3794 H   0  0  0  0  0  0  0  0  0  0  0  0
   -5.1330   -2.3668    1.1755 H   0  0  0  0  0  0  0  0  0  0  0  0
   -5.8950   -1.0423   -0.6810 H   0  0  0  0  0  0  0  0  0  0  0  0
   -8.1106   -0.0040   -0.3859 H   0  0  0  0  0  0  0  0  0  0  0  0
   -8.3376    2.0812    0.9121 H   0  0  0  0  0  0  0  0  0  0  0  0
   -6.3431    3.1168    1.9317 H   0  0  0  0  0  0  0  0  0  0  0  0
   -4.1315    2.0526    1.6741 H   0  0  0  0  0  0  0  0  0  0  0  0
    0.8645   -1.3330    1.2977 H   0  0  0  0  0  0  0  0  0  0  0  0
    3.1005   -2.4220    1.0716 H   0  0  0  0  0  0  0  0  0  0  0  0
  1  2  2  0  0  0  0
  2  3  2  0  0  0  0
  2  4  1  0  0  0  0
  4  5  2  0  0  0  0
  5  6  1  0  0  0  0
  6  7  2  0  0  0  0
  7  8  1  0  0  0  0
  8  9  2  0  0  0  0
  2 10  1  0  0  0  0
 10 11  2  0  0  0  0
 11 12  1  0  0  0  0
 12 13  2  0  0  0  0
 13 14  1  0  0  0  0
 14 15  1  0  0  0  0
 15 16  2  0  0  0  0
 16 17  1  0  0  0  0
 17 18  2  0  0  0  0
 18 19  1  0  0  0  0
 19 20  2  0  0  0  0
 20 21  1  0  0  0  0
 21 22  2  0  0  0  0
 22 23  1  0  0  0  0
 23 24  2  0  0  0  0
 24 25  1  0  0  0  0
 25 26  2  0  0  0  0
 26 27  1  0  0  0  0
 27 28  2  0  0  0  0
 28 29  1  0  0  0  0
 29 30  1  0  0  0  0
 30 31  2  0  0  0  0
 31 32  1  0  0  0  0
 32 33  2  0  0  0  0
 33 34  1  0  0  0  0
 34 35  2  0  0  0  0
 13 36  1  0  0  0  0
 36 37  2  0  0  0  0
  9  4  1  0  0  0  0
 37 10  1  0  0  0  0
 22 14  1  0  0  0  0
 28 23  1  0  0  0  0
 35 30  1  0  0  0  0
 20 15  1  0  0  0  0
 29 21  1  0  0  0  0
  5 38  1  0  0  0  0
  6 39  1  0  0  0  0
  7 40  1  0  0  0  0
  8 41  1  0  0  0  0
  9 42  1  0  0  0  0
 11 43  1  0  0  0  0
 12 44  1  0  0  0  0
 16 45  1  0  0  0  0
 17 46  1  0  0  0  0
 18 47  1  0  0  0  0
 19 48  1  0  0  0  0
 24 49  1  0  0  0  0
 25 50  1  0  0  0  0
 26 51  1  0  0  0  0
 27 52  1  0  0  0  0
 31 53  1  0  0  0  0
 32 54  1  0  0  0  0
 33 55  1  0  0  0  0
 34 56  1  0  0  0  0
 35 57  1  0  0  0  0
 36 58  1  0  0  0  0
 37 59  1  0  0  0  0
M  END
