
  xtb     03022214493D
 energy: -110.781630380325 gnorm: 0.000134672964 xtb: 6.4.1 (afa7bdf)
 66 70  0     0  0            999 V2000
    0.6278   -2.6501   -2.0259 C   0  0  0  0  0  0  0  0  0  0  0  0
   -0.7986   -2.7838   -1.5224 C   0  0  0  0  0  0  0  0  0  0  0  0
   -1.2785   -1.4898   -1.1625 O   0  0  0  0  0  0  0  0  0  0  0  0
   -2.2126   -1.4200   -0.2073 C   0  0  0  0  0  0  0  0  0  0  0  0
   -2.6843   -2.3813    0.3493 O   0  0  0  0  0  0  0  0  0  0  0  0
   -2.5518   -0.0194    0.0814 C   0  0  0  0  0  0  0  0  0  0  0  0
   -1.6705    1.0879    0.1564 C   0  0  0  0  0  0  0  0  0  0  0  0
   -0.2269    1.0758   -0.0161 C   0  0  0  0  0  0  0  0  0  0  0  0
    0.5555    0.1198    0.5402 C   0  0  0  0  0  0  0  0  0  0  0  0
    1.9615    0.1119    0.3138 C   0  0  0  0  0  0  0  0  0  0  0  0
    2.8308   -0.8536    0.8303 C   0  0  0  0  0  0  0  0  0  0  0  0
    4.1843   -0.8223    0.5789 C   0  0  0  0  0  0  0  0  0  0  0  0
    4.7072    0.2188   -0.2120 C   0  0  0  0  0  0  0  0  0  0  0  0
    3.8567    1.1813   -0.7476 C   0  0  0  0  0  0  0  0  0  0  0  0
    2.4960    1.1321   -0.4928 C   0  0  0  0  0  0  0  0  0  0  0  0
    1.7106    2.0889   -1.0352 O   0  0  0  0  0  0  0  0  0  0  0  0
    0.3544    2.1301   -0.8542 C   0  0  0  0  0  0  0  0  0  0  0  0
   -0.2591    3.0059   -1.4055 O   0  0  0  0  0  0  0  0  0  0  0  0
    6.0126    0.3451   -0.5182 O   0  0  0  0  0  0  0  0  0  0  0  0
    6.9607   -0.4763    0.1738 C   0  0  0  0  0  0  0  0  0  0  0  0
    7.2750    0.1665    1.5288 C   0  0  0  0  0  0  0  0  0  0  0  0
    8.2101   -0.4840   -0.7066 C   0  0  0  0  0  0  0  0  0  0  0  0
    6.4049   -1.8963    0.3294 C   0  0  0  0  0  0  0  0  0  0  0  0
    5.1004   -1.8849    1.1193 C   0  0  0  0  0  0  0  0  0  0  0  0
   -2.3519    2.1838    0.4260 N   0  0  0  0  0  0  0  0  0  0  0  0
   -3.6293    1.8477    0.5432 N   0  0  0  0  0  0  0  0  0  0  0  0
   -4.5571    2.8924    0.7272 C   0  0  0  0  0  0  0  0  0  0  0  0
   -4.2571    4.1158    0.1329 C   0  0  0  0  0  0  0  0  0  0  0  0
   -5.1183    5.1833    0.2958 C   0  0  0  0  0  0  0  0  0  0  0  0
   -6.2738    5.0378    1.0474 C   0  0  0  0  0  0  0  0  0  0  0  0
   -6.5588    3.8228    1.6466 C   0  0  0  0  0  0  0  0  0  0  0  0
   -5.7016    2.7456    1.4992 C   0  0  0  0  0  0  0  0  0  0  0  0
   -3.8120    0.5151    0.3424 C   0  0  0  0  0  0  0  0  0  0  0  0
   -5.0773   -0.2516    0.3161 C   0  0  0  0  0  0  0  0  0  0  0  0
   -5.9814   -0.1584    1.1077 O   0  0  0  0  0  0  0  0  0  0  0  0
   -5.0584   -1.0886   -0.7173 O   0  0  0  0  0  0  0  0  0  0  0  0
   -6.1278   -2.0337   -0.8101 C   0  0  0  0  0  0  0  0  0  0  0  0
   -5.9472   -3.1661    0.1900 C   0  0  0  0  0  0  0  0  0  0  0  0
    0.9927   -3.6209   -2.3490 H   0  0  0  0  0  0  0  0  0  0  0  0
    1.2757   -2.2681   -1.2408 H   0  0  0  0  0  0  0  0  0  0  0  0
    0.6606   -1.9598   -2.8644 H   0  0  0  0  0  0  0  0  0  0  0  0
   -1.4520   -3.1885   -2.3037 H   0  0  0  0  0  0  0  0  0  0  0  0
   -0.8588   -3.4405   -0.6471 H   0  0  0  0  0  0  0  0  0  0  0  0
    0.1244   -0.6460    1.1706 H   0  0  0  0  0  0  0  0  0  0  0  0
    2.4224   -1.6476    1.4397 H   0  0  0  0  0  0  0  0  0  0  0  0
    4.2640    1.9670   -1.3616 H   0  0  0  0  0  0  0  0  0  0  0  0
    7.9333   -0.4758    2.1073 H   0  0  0  0  0  0  0  0  0  0  0  0
    6.3626    0.3436    2.0925 H   0  0  0  0  0  0  0  0  0  0  0  0
    7.7650    1.1243    1.3727 H   0  0  0  0  0  0  0  0  0  0  0  0
    8.5331    0.5367   -0.8913 H   0  0  0  0  0  0  0  0  0  0  0  0
    7.9935   -0.9533   -1.6627 H   0  0  0  0  0  0  0  0  0  0  0  0
    9.0114   -1.0286   -0.2159 H   0  0  0  0  0  0  0  0  0  0  0  0
    6.2174   -2.2996   -0.6688 H   0  0  0  0  0  0  0  0  0  0  0  0
    7.1466   -2.5273    0.8190 H   0  0  0  0  0  0  0  0  0  0  0  0
    5.3010   -1.6988    2.1783 H   0  0  0  0  0  0  0  0  0  0  0  0
    4.6129   -2.8598    1.0517 H   0  0  0  0  0  0  0  0  0  0  0  0
   -3.3491    4.2062   -0.4426 H   0  0  0  0  0  0  0  0  0  0  0  0
   -4.8882    6.1305   -0.1679 H   0  0  0  0  0  0  0  0  0  0  0  0
   -6.9480    5.8723    1.1703 H   0  0  0  0  0  0  0  0  0  0  0  0
   -7.4515    3.7095    2.2430 H   0  0  0  0  0  0  0  0  0  0  0  0
   -5.9231    1.8052    1.9756 H   0  0  0  0  0  0  0  0  0  0  0  0
   -7.0775   -1.5145   -0.6416 H   0  0  0  0  0  0  0  0  0  0  0  0
   -6.0800   -2.3989   -1.8377 H   0  0  0  0  0  0  0  0  0  0  0  0
   -4.9312   -3.5482    0.1293 H   0  0  0  0  0  0  0  0  0  0  0  0
   -6.1193   -2.8030    1.1998 H   0  0  0  0  0  0  0  0  0  0  0  0
   -6.6519   -3.9638   -0.0265 H   0  0  0  0  0  0  0  0  0  0  0  0
  1  2  1  0  0  0  0
  2  3  1  0  0  0  0
  3  4  1  0  0  0  0
  4  5  2  0  0  0  0
  4  6  1  0  0  0  0
  6  7  1  0  0  0  0
  7  8  1  0  0  0  0
  8  9  2  0  0  0  0
  9 10  1  0  0  0  0
 10 11  2  0  0  0  0
 11 12  1  0  0  0  0
 12 13  2  0  0  0  0
 13 14  1  0  0  0  0
 14 15  2  0  0  0  0
 15 16  1  0  0  0  0
 16 17  1  0  0  0  0
 17 18  2  0  0  0  0
 13 19  1  0  0  0  0
 19 20  1  0  0  0  0
 20 21  1  0  0  0  0
 20 22  1  0  0  0  0
 20 23  1  0  0  0  0
 23 24  1  0  0  0  0
  7 25  2  0  0  0  0
 25 26  1  0  0  0  0
 26 27  1  0  0  0  0
 27 28  2  0  0  0  0
 28 29  1  0  0  0  0
 29 30  2  0  0  0  0
 30 31  1  0  0  0  0
 31 32  2  0  0  0  0
 26 33  1  0  0  0  0
 33 34  1  0  0  0  0
 34 35  2  0  0  0  0
 34 36  1  0  0  0  0
 36 37  1  0  0  0  0
 37 38  1  0  0  0  0
 33  6  2  0  0  0  0
 17  8  1  0  0  0  0
 32 27  1  0  0  0  0
 15 10  1  0  0  0  0
 24 12  1  0  0  0  0
  1 39  1  0  0  0  0
  1 40  1  0  0  0  0
  1 41  1  0  0  0  0
  2 42  1  0  0  0  0
  2 43  1  0  0  0  0
  9 44  1  0  0  0  0
 11 45  1  0  0  0  0
 14 46  1  0  0  0  0
 21 47  1  0  0  0  0
 21 48  1  0  0  0  0
 21 49  1  0  0  0  0
 22 50  1  0  0  0  0
 22 51  1  0  0  0  0
 22 52  1  0  0  0  0
 23 53  1  0  0  0  0
 23 54  1  0  0  0  0
 24 55  1  0  0  0  0
 24 56  1  0  0  0  0
 28 57  1  0  0  0  0
 29 58  1  0  0  0  0
 30 59  1  0  0  0  0
 31 60  1  0  0  0  0
 32 61  1  0  0  0  0
 37 62  1  0  0  0  0
 37 63  1  0  0  0  0
 38 64  1  0  0  0  0
 38 65  1  0  0  0  0
 38 66  1  0  0  0  0
M  END
