
  xtb     03022212073D
 energy: -72.652780858180 gnorm: 0.000178520132 xtb: 6.4.1 (afa7bdf)
 46 51  0     0  0            999 V2000
   -2.1762   -2.8674   -1.5546 O   0  0  0  0  0  0  0  0  0  0  0  0
   -2.5589   -2.3387   -0.3852 C   0  0  0  0  0  0  0  0  0  0  0  0
   -3.6232   -2.9314    0.2957 C   0  0  0  0  0  0  0  0  0  0  0  0
   -4.0279   -2.4513    1.5227 C   0  0  0  0  0  0  0  0  0  0  0  0
   -3.3737   -1.3733    2.1046 C   0  0  0  0  0  0  0  0  0  0  0  0
   -2.3403   -0.7572    1.4326 C   0  0  0  0  0  0  0  0  0  0  0  0
   -1.9367   -1.2049    0.1735 C   0  0  0  0  0  0  0  0  0  0  0  0
   -0.8514   -0.5547   -0.5477 C   0  0  0  0  0  0  0  0  0  0  0  0
   -0.1954   -1.1636   -1.4712 N   0  0  0  0  0  0  0  0  0  0  0  0
    0.9069   -0.3354   -1.9057 C   0  0  0  0  0  0  0  0  0  0  0  0
    2.2153   -1.0307   -1.6414 C   0  0  0  0  0  0  0  0  0  0  0  0
    2.8143   -2.1063   -2.2308 C   0  0  0  0  0  0  0  0  0  0  0  0
    4.0353   -2.5670   -1.6981 C   0  0  0  0  0  0  0  0  0  0  0  0
    4.6261   -1.9891   -0.6038 C   0  0  0  0  0  0  0  0  0  0  0  0
    4.0204   -0.8846    0.0332 C   0  0  0  0  0  0  0  0  0  0  0  0
    4.4781   -0.1917    1.1740 C   0  0  0  0  0  0  0  0  0  0  0  0
    3.7515    0.8548    1.6788 C   0  0  0  0  0  0  0  0  0  0  0  0
    2.5496    1.2999    1.0909 C   0  0  0  0  0  0  0  0  0  0  0  0
    2.0870    0.6641   -0.0270 C   0  0  0  0  0  0  0  0  0  0  0  0
    2.8180   -0.4285   -0.5265 C   0  0  0  0  0  0  0  0  0  0  0  0
    0.8824    0.8856   -0.9219 C   0  0  0  0  0  0  0  0  0  0  0  0
   -0.4022    0.7224   -0.2493 N   0  0  0  0  0  0  0  0  0  0  0  0
   -1.2189    1.8226    0.0181 C   0  0  0  0  0  0  0  0  0  0  0  0
   -0.6508    3.0096    0.4771 C   0  0  0  0  0  0  0  0  0  0  0  0
   -1.4417    4.1129    0.7374 C   0  0  0  0  0  0  0  0  0  0  0  0
   -2.8105    4.0566    0.5440 C   0  0  0  0  0  0  0  0  0  0  0  0
   -3.3783    2.8892    0.0613 C   0  0  0  0  0  0  0  0  0  0  0  0
   -2.5950    1.7857   -0.2136 C   0  0  0  0  0  0  0  0  0  0  0  0
   -1.3508   -2.4079   -1.8425 H   0  0  0  0  0  0  0  0  0  0  0  0
   -4.1030   -3.7833   -0.1598 H   0  0  0  0  0  0  0  0  0  0  0  0
   -4.8479   -2.9277    2.0390 H   0  0  0  0  0  0  0  0  0  0  0  0
   -3.6726   -1.0164    3.0780 H   0  0  0  0  0  0  0  0  0  0  0  0
   -1.8269    0.0787    1.8836 H   0  0  0  0  0  0  0  0  0  0  0  0
    0.7782   -0.0773   -2.9635 H   0  0  0  0  0  0  0  0  0  0  0  0
    2.3730   -2.6053   -3.0798 H   0  0  0  0  0  0  0  0  0  0  0  0
    4.5116   -3.4138   -2.1710 H   0  0  0  0  0  0  0  0  0  0  0  0
    5.5571   -2.3776   -0.2169 H   0  0  0  0  0  0  0  0  0  0  0  0
    5.3994   -0.4970    1.6486 H   0  0  0  0  0  0  0  0  0  0  0  0
    4.1063    1.3706    2.5597 H   0  0  0  0  0  0  0  0  0  0  0  0
    2.0287    2.1289    1.5452 H   0  0  0  0  0  0  0  0  0  0  0  0
    0.9307    1.8553   -1.4271 H   0  0  0  0  0  0  0  0  0  0  0  0
    0.4150    3.0718    0.6258 H   0  0  0  0  0  0  0  0  0  0  0  0
   -0.9813    5.0220    1.0959 H   0  0  0  0  0  0  0  0  0  0  0  0
   -3.4272    4.9170    0.7545 H   0  0  0  0  0  0  0  0  0  0  0  0
   -4.4417    2.8388   -0.1197 H   0  0  0  0  0  0  0  0  0  0  0  0
   -3.0518    0.8955   -0.6170 H   0  0  0  0  0  0  0  0  0  0  0  0
  1  2  1  0  0  0  0
  2  3  2  0  0  0  0
  3  4  1  0  0  0  0
  4  5  2  0  0  0  0
  5  6  1  0  0  0  0
  6  7  2  0  0  0  0
  7  8  1  0  0  0  0
  8  9  2  0  0  0  0
  9 10  1  0  0  0  0
 10 11  1  0  0  0  0
 11 12  2  0  0  0  0
 12 13  1  0  0  0  0
 13 14  2  0  0  0  0
 14 15  1  0  0  0  0
 15 16  2  0  0  0  0
 16 17  1  0  0  0  0
 17 18  2  0  0  0  0
 18 19  1  0  0  0  0
 19 20  2  0  0  0  0
 19 21  1  0  0  0  0
 21 22  1  0  0  0  0
 22 23  1  0  0  0  0
 23 24  2  0  0  0  0
 24 25  1  0  0  0  0
 25 26  2  0  0  0  0
 26 27  1  0  0  0  0
 27 28  2  0  0  0  0
  7  2  1  0  0  0  0
 22  8  1  0  0  0  0
 28 23  1  0  0  0  0
 21 10  1  0  0  0  0
 20 11  1  0  0  0  0
 20 15  1  0  0  0  0
  1 29  1  0  0  0  0
  3 30  1  0  0  0  0
  4 31  1  0  0  0  0
  5 32  1  0  0  0  0
  6 33  1  0  0  0  0
 10 34  1  0  0  0  0
 12 35  1  0  0  0  0
 13 36  1  0  0  0  0
 14 37  1  0  0  0  0
 16 38  1  0  0  0  0
 17 39  1  0  0  0  0
 18 40  1  0  0  0  0
 21 41  1  0  0  0  0
 24 42  1  0  0  0  0
 25 43  1  0  0  0  0
 26 44  1  0  0  0  0
 27 45  1  0  0  0  0
 28 46  1  0  0  0  0
M  END
