
  xtb     03022215303D
 energy: -100.218701741799 gnorm: 0.000197855902 xtb: 6.4.1 (afa7bdf)
 62 69  0     0  0            999 V2000
    5.2236    0.2735    2.9000 C   0  0  0  0  0  0  0  0  0  0  0  0
    6.2561    0.3441    1.7716 C   0  0  0  0  0  0  0  0  0  0  0  0
    7.1946   -0.8632    1.9080 C   0  0  0  0  0  0  0  0  0  0  0  0
    7.0526    1.6462    1.9350 C   0  0  0  0  0  0  0  0  0  0  0  0
    5.6159    0.3218    0.3910 C   0  0  0  0  0  0  0  0  0  0  0  0
    6.4430    0.3831   -0.7382 C   0  0  0  0  0  0  0  0  0  0  0  0
    5.9555    0.3658   -2.0316 C   0  0  0  0  0  0  0  0  0  0  0  0
    4.5861    0.2836   -2.1920 C   0  0  0  0  0  0  0  0  0  0  0  0
    3.8935    0.2498   -3.3708 O   0  0  0  0  0  0  0  0  0  0  0  0
    2.5937    0.1667   -3.0421 C   0  0  0  0  0  0  0  0  0  0  0  0
    1.6435    0.1116   -3.9559 N   0  0  0  0  0  0  0  0  0  0  0  0
    0.4306    0.0330   -3.4444 C   0  0  0  0  0  0  0  0  0  0  0  0
   -0.6684   -0.0346   -4.2220 O   0  0  0  0  0  0  0  0  0  0  0  0
   -1.7349   -0.1040   -3.3772 C   0  0  0  0  0  0  0  0  0  0  0  0
   -3.0666   -0.1884   -3.7399 C   0  0  0  0  0  0  0  0  0  0  0  0
   -4.0006   -0.2501   -2.7214 C   0  0  0  0  0  0  0  0  0  0  0  0
   -3.6149   -0.2239   -1.3798 C   0  0  0  0  0  0  0  0  0  0  0  0
   -4.6282   -0.2825   -0.3784 N   0  0  0  0  0  0  0  0  0  0  0  0
   -5.1941    0.9243    0.0258 C   0  0  0  0  0  0  0  0  0  0  0  0
   -4.6849    2.1277   -0.4658 C   0  0  0  0  0  0  0  0  0  0  0  0
   -5.2220    3.3472   -0.0933 C   0  0  0  0  0  0  0  0  0  0  0  0
   -6.2784    3.4033    0.7955 C   0  0  0  0  0  0  0  0  0  0  0  0
   -6.7927    2.2221    1.3002 C   0  0  0  0  0  0  0  0  0  0  0  0
   -6.2674    0.9991    0.9174 C   0  0  0  0  0  0  0  0  0  0  0  0
   -7.0547   -0.4382    1.5878 S   0  0  0  0  0  0  0  0  0  0  0  0
   -5.8990   -1.7085    1.1553 C   0  0  0  0  0  0  0  0  0  0  0  0
   -6.0928   -2.9416    1.7551 C   0  0  0  0  0  0  0  0  0  0  0  0
   -5.2903   -4.0213    1.4313 C   0  0  0  0  0  0  0  0  0  0  0  0
   -4.2910   -3.8532    0.4923 C   0  0  0  0  0  0  0  0  0  0  0  0
   -4.0841   -2.6184   -0.0969 C   0  0  0  0  0  0  0  0  0  0  0  0
   -4.8729   -1.5128    0.2266 C   0  0  0  0  0  0  0  0  0  0  0  0
   -2.2793   -0.1371   -1.0157 C   0  0  0  0  0  0  0  0  0  0  0  0
   -1.3305   -0.0805   -2.0258 C   0  0  0  0  0  0  0  0  0  0  0  0
    0.1028    0.0081   -2.0623 C   0  0  0  0  0  0  0  0  0  0  0  0
    1.1187    0.0651   -1.1197 C   0  0  0  0  0  0  0  0  0  0  0  0
    2.4031    0.1459   -1.6313 C   0  0  0  0  0  0  0  0  0  0  0  0
    3.7287    0.2224   -1.0804 C   0  0  0  0  0  0  0  0  0  0  0  0
    4.2440    0.2415    0.2092 C   0  0  0  0  0  0  0  0  0  0  0  0
    4.6477   -0.6474    2.8476 H   0  0  0  0  0  0  0  0  0  0  0  0
    4.5460    1.1234    2.8650 H   0  0  0  0  0  0  0  0  0  0  0  0
    5.7357    0.2934    3.8597 H   0  0  0  0  0  0  0  0  0  0  0  0
    6.6395   -1.7884    1.7686 H   0  0  0  0  0  0  0  0  0  0  0  0
    7.9937   -0.8317    1.1731 H   0  0  0  0  0  0  0  0  0  0  0  0
    7.6440   -0.8762    2.8985 H   0  0  0  0  0  0  0  0  0  0  0  0
    7.4975    1.6892    2.9267 H   0  0  0  0  0  0  0  0  0  0  0  0
    7.8504    1.7202    1.2018 H   0  0  0  0  0  0  0  0  0  0  0  0
    6.3968    2.5057    1.8133 H   0  0  0  0  0  0  0  0  0  0  0  0
    7.5117    0.4463   -0.6063 H   0  0  0  0  0  0  0  0  0  0  0  0
    6.6133    0.4138   -2.8839 H   0  0  0  0  0  0  0  0  0  0  0  0
   -3.3579   -0.2062   -4.7770 H   0  0  0  0  0  0  0  0  0  0  0  0
   -5.0519   -0.3162   -2.9553 H   0  0  0  0  0  0  0  0  0  0  0  0
   -3.8572    2.1086   -1.1573 H   0  0  0  0  0  0  0  0  0  0  0  0
   -4.8034    4.2537   -0.5034 H   0  0  0  0  0  0  0  0  0  0  0  0
   -6.7018    4.3494    1.0936 H   0  0  0  0  0  0  0  0  0  0  0  0
   -7.6212    2.2316    1.9920 H   0  0  0  0  0  0  0  0  0  0  0  0
   -6.8943   -3.0445    2.4707 H   0  0  0  0  0  0  0  0  0  0  0  0
   -5.4543   -4.9783    1.9009 H   0  0  0  0  0  0  0  0  0  0  0  0
   -3.6606   -4.6827    0.2097 H   0  0  0  0  0  0  0  0  0  0  0  0
   -3.3003   -2.5135   -0.8303 H   0  0  0  0  0  0  0  0  0  0  0  0
   -1.9942   -0.1171    0.0250 H   0  0  0  0  0  0  0  0  0  0  0  0
    0.9206    0.0470   -0.0591 H   0  0  0  0  0  0  0  0  0  0  0  0
    3.5622    0.1924    1.0411 H   0  0  0  0  0  0  0  0  0  0  0  0
  1  2  1  0  0  0  0
  2  3  1  0  0  0  0
  2  4  1  0  0  0  0
  2  5  1  0  0  0  0
  5  6  2  0  0  0  0
  6  7  1  0  0  0  0
  7  8  2  0  0  0  0
  8  9  1  0  0  0  0
  9 10  1  0  0  0  0
 10 11  2  0  0  0  0
 11 12  1  0  0  0  0
 12 13  1  0  0  0  0
 13 14  1  0  0  0  0
 14 15  2  0  0  0  0
 15 16  1  0  0  0  0
 16 17  2  0  0  0  0
 17 18  1  0  0  0  0
 18 19  1  0  0  0  0
 19 20  2  0  0  0  0
 20 21  1  0  0  0  0
 21 22  2  0  0  0  0
 22 23  1  0  0  0  0
 23 24  2  0  0  0  0
 24 25  1  0  0  0  0
 25 26  1  0  0  0  0
 26 27  2  0  0  0  0
 27 28  1  0  0  0  0
 28 29  2  0  0  0  0
 29 30  1  0  0  0  0
 30 31  2  0  0  0  0
 17 32  1  0  0  0  0
 32 33  2  0  0  0  0
 33 34  1  0  0  0  0
 34 35  1  0  0  0  0
 35 36  2  0  0  0  0
 36 37  1  0  0  0  0
 37 38  2  0  0  0  0
 38  5  1  0  0  0  0
 37  8  1  0  0  0  0
 36 10  1  0  0  0  0
 34 12  2  0  0  0  0
 33 14  1  0  0  0  0
 31 18  1  0  0  0  0
 24 19  1  0  0  0  0
 31 26  1  0  0  0  0
  1 39  1  0  0  0  0
  1 40  1  0  0  0  0
  1 41  1  0  0  0  0
  3 42  1  0  0  0  0
  3 43  1  0  0  0  0
  3 44  1  0  0  0  0
  4 45  1  0  0  0  0
  4 46  1  0  0  0  0
  4 47  1  0  0  0  0
  6 48  1  0  0  0  0
  7 49  1  0  0  0  0
 15 50  1  0  0  0  0
 16 51  1  0  0  0  0
 20 52  1  0  0  0  0
 21 53  1  0  0  0  0
 22 54  1  0  0  0  0
 23 55  1  0  0  0  0
 27 56  1  0  0  0  0
 28 57  1  0  0  0  0
 29 58  1  0  0  0  0
 30 59  1  0  0  0  0
 32 60  1  0  0  0  0
 35 61  1  0  0  0  0
 38 62  1  0  0  0  0
M  END
