
  xtb     03022214073D
 energy: -118.413148586610 gnorm: 0.000060755480 xtb: 6.4.1 (afa7bdf)
 74 83  0     0  0            999 V2000
   -9.3871   -2.6094   -2.9150 C   0  0  0  0  0  0  0  0  0  0  0  0
   -8.0036   -2.4681   -2.9937 C   0  0  0  0  0  0  0  0  0  0  0  0
   -7.2935   -1.7701   -2.0354 C   0  0  0  0  0  0  0  0  0  0  0  0
   -8.0026   -1.2170   -0.9791 C   0  0  0  0  0  0  0  0  0  0  0  0
   -9.4092   -1.3336   -0.9044 C   0  0  0  0  0  0  0  0  0  0  0  0
  -10.1008   -2.0401   -1.8795 C   0  0  0  0  0  0  0  0  0  0  0  0
   -9.8180   -0.6113    0.2680 C   0  0  0  0  0  0  0  0  0  0  0  0
  -11.0491   -0.3854    0.8692 C   0  0  0  0  0  0  0  0  0  0  0  0
  -11.0902    0.3519    2.0357 C   0  0  0  0  0  0  0  0  0  0  0  0
   -9.9224    0.8475    2.6110 C   0  0  0  0  0  0  0  0  0  0  0  0
   -8.6860    0.6361    2.0312 C   0  0  0  0  0  0  0  0  0  0  0  0
   -8.6412   -0.0823    0.8452 C   0  0  0  0  0  0  0  0  0  0  0  0
   -7.5506   -0.4566    0.0830 N   0  0  0  0  0  0  0  0  0  0  0  0
   -6.2188   -0.1196    0.3422 C   0  0  0  0  0  0  0  0  0  0  0  0
   -5.8652    1.2031    0.5983 C   0  0  0  0  0  0  0  0  0  0  0  0
   -4.5524    1.5319    0.8660 C   0  0  0  0  0  0  0  0  0  0  0  0
   -3.5573    0.5558    0.8733 C   0  0  0  0  0  0  0  0  0  0  0  0
   -2.1613    0.9120    1.1577 C   0  0  0  0  0  0  0  0  0  0  0  0
   -1.8521    1.8866    2.1389 C   0  0  0  0  0  0  0  0  0  0  0  0
   -0.5604    2.2327    2.4172 C   0  0  0  0  0  0  0  0  0  0  0  0
    0.4698    1.6051    1.7085 C   0  0  0  0  0  0  0  0  0  0  0  0
    1.7865    1.7211    1.7419 N   0  0  0  0  0  0  0  0  0  0  0  0
    2.2194    0.8411    0.8185 C   0  0  0  0  0  0  0  0  0  0  0  0
    3.6214    0.6391    0.5215 C   0  0  0  0  0  0  0  0  0  0  0  0
    4.5867    1.3943    1.1860 C   0  0  0  0  0  0  0  0  0  0  0  0
    5.9246    1.2103    0.9095 C   0  0  0  0  0  0  0  0  0  0  0  0
    6.3197    0.2704   -0.0412 C   0  0  0  0  0  0  0  0  0  0  0  0
    7.6779    0.0888   -0.3273 N   0  0  0  0  0  0  0  0  0  0  0  0
    8.5808    1.0912   -0.6249 C   0  0  0  0  0  0  0  0  0  0  0  0
    8.3722    2.4558   -0.7643 C   0  0  0  0  0  0  0  0  0  0  0  0
    9.4566    3.2428   -1.1018 C   0  0  0  0  0  0  0  0  0  0  0  0
   10.7200    2.6924   -1.3062 C   0  0  0  0  0  0  0  0  0  0  0  0
   10.9283    1.3325   -1.1935 C   0  0  0  0  0  0  0  0  0  0  0  0
    9.8536    0.5206   -0.8555 C   0  0  0  0  0  0  0  0  0  0  0  0
    9.7035   -0.8968   -0.6793 C   0  0  0  0  0  0  0  0  0  0  0  0
   10.5859   -1.9666   -0.7513 C   0  0  0  0  0  0  0  0  0  0  0  0
   10.1083   -3.2362   -0.4955 C   0  0  0  0  0  0  0  0  0  0  0  0
    8.7732   -3.4441   -0.1562 C   0  0  0  0  0  0  0  0  0  0  0  0
    7.8762   -2.3960   -0.0784 C   0  0  0  0  0  0  0  0  0  0  0  0
    8.3448   -1.1204   -0.3588 C   0  0  0  0  0  0  0  0  0  0  0  0
    5.3555   -0.4854   -0.7066 C   0  0  0  0  0  0  0  0  0  0  0  0
    4.0180   -0.3040   -0.4255 C   0  0  0  0  0  0  0  0  0  0  0  0
    1.2402    0.1749    0.2020 N   0  0  0  0  0  0  0  0  0  0  0  0
    0.1334    0.6493    0.7563 N   0  0  0  0  0  0  0  0  0  0  0  0
   -1.1341    0.3044    0.4782 C   0  0  0  0  0  0  0  0  0  0  0  0
   -3.9181   -0.7642    0.6071 C   0  0  0  0  0  0  0  0  0  0  0  0
   -5.2308   -1.1018    0.3503 C   0  0  0  0  0  0  0  0  0  0  0  0
   -9.9052   -3.1647   -3.6825 H   0  0  0  0  0  0  0  0  0  0  0  0
   -7.4739   -2.9105   -3.8245 H   0  0  0  0  0  0  0  0  0  0  0  0
   -6.2236   -1.6503   -2.1167 H   0  0  0  0  0  0  0  0  0  0  0  0
  -11.1749   -2.1346   -1.8270 H   0  0  0  0  0  0  0  0  0  0  0  0
  -11.9519   -0.7845    0.4322 H   0  0  0  0  0  0  0  0  0  0  0  0
  -12.0374    0.5411    2.5182 H   0  0  0  0  0  0  0  0  0  0  0  0
   -9.9838    1.4063    3.5333 H   0  0  0  0  0  0  0  0  0  0  0  0
   -7.7853    1.0080    2.4960 H   0  0  0  0  0  0  0  0  0  0  0  0
   -6.6231    1.9713    0.5676 H   0  0  0  0  0  0  0  0  0  0  0  0
   -4.2905    2.5648    1.0404 H   0  0  0  0  0  0  0  0  0  0  0  0
   -2.6605    2.3442    2.6874 H   0  0  0  0  0  0  0  0  0  0  0  0
   -0.3053    2.9667    3.1628 H   0  0  0  0  0  0  0  0  0  0  0  0
    4.2646    2.1147    1.9213 H   0  0  0  0  0  0  0  0  0  0  0  0
    6.6757    1.7791    1.4372 H   0  0  0  0  0  0  0  0  0  0  0  0
    7.3934    2.8898   -0.6263 H   0  0  0  0  0  0  0  0  0  0  0  0
    9.3205    4.3084   -1.2135 H   0  0  0  0  0  0  0  0  0  0  0  0
   11.5427    3.3420   -1.5660 H   0  0  0  0  0  0  0  0  0  0  0  0
   11.9034    0.9034   -1.3685 H   0  0  0  0  0  0  0  0  0  0  0  0
   11.6242   -1.8027   -0.9978 H   0  0  0  0  0  0  0  0  0  0  0  0
   10.7773   -4.0824   -0.5483 H   0  0  0  0  0  0  0  0  0  0  0  0
    8.4321   -4.4471    0.0548 H   0  0  0  0  0  0  0  0  0  0  0  0
    6.8481   -2.5655    0.2038 H   0  0  0  0  0  0  0  0  0  0  0  0
    5.6651   -1.1995   -1.4552 H   0  0  0  0  0  0  0  0  0  0  0  0
    3.2618   -0.8784   -0.9371 H   0  0  0  0  0  0  0  0  0  0  0  0
   -1.2753   -0.4318   -0.2969 H   0  0  0  0  0  0  0  0  0  0  0  0
   -3.1663   -1.5388    0.6337 H   0  0  0  0  0  0  0  0  0  0  0  0
   -5.5036   -2.1315    0.1747 H   0  0  0  0  0  0  0  0  0  0  0  0
  1  2  2  0  0  0  0
  2  3  1  0  0  0  0
  3  4  2  0  0  0  0
  4  5  1  0  0  0  0
  5  6  2  0  0  0  0
  5  7  1  0  0  0  0
  7  8  2  0  0  0  0
  8  9  1  0  0  0  0
  9 10  2  0  0  0  0
 10 11  1  0  0  0  0
 11 12  2  0  0  0  0
 12 13  1  0  0  0  0
 13 14  1  0  0  0  0
 14 15  2  0  0  0  0
 15 16  1  0  0  0  0
 16 17  2  0  0  0  0
 17 18  1  0  0  0  0
 18 19  1  0  0  0  0
 19 20  2  0  0  0  0
 20 21  1  0  0  0  0
 21 22  2  0  0  0  0
 22 23  1  0  0  0  0
 23 24  1  0  0  0  0
 24 25  2  0  0  0  0
 25 26  1  0  0  0  0
 26 27  2  0  0  0  0
 27 28  1  0  0  0  0
 28 29  1  0  0  0  0
 29 30  2  0  0  0  0
 30 31  1  0  0  0  0
 31 32  2  0  0  0  0
 32 33  1  0  0  0  0
 33 34  2  0  0  0  0
 34 35  1  0  0  0  0
 35 36  2  0  0  0  0
 36 37  1  0  0  0  0
 37 38  2  0  0  0  0
 38 39  1  0  0  0  0
 39 40  2  0  0  0  0
 27 41  1  0  0  0  0
 41 42  2  0  0  0  0
 23 43  2  0  0  0  0
 43 44  1  0  0  0  0
 44 45  1  0  0  0  0
 17 46  1  0  0  0  0
 46 47  2  0  0  0  0
  6  1  1  0  0  0  0
 12  7  1  0  0  0  0
 47 14  1  0  0  0  0
 13  4  1  0  0  0  0
 45 18  2  0  0  0  0
 44 21  1  0  0  0  0
 42 24  1  0  0  0  0
 40 28  1  0  0  0  0
 34 29  1  0  0  0  0
 40 35  1  0  0  0  0
  1 48  1  0  0  0  0
  2 49  1  0  0  0  0
  3 50  1  0  0  0  0
  6 51  1  0  0  0  0
  8 52  1  0  0  0  0
  9 53  1  0  0  0  0
 10 54  1  0  0  0  0
 11 55  1  0  0  0  0
 15 56  1  0  0  0  0
 16 57  1  0  0  0  0
 19 58  1  0  0  0  0
 20 59  1  0  0  0  0
 25 60  1  0  0  0  0
 26 61  1  0  0  0  0
 30 62  1  0  0  0  0
 31 63  1  0  0  0  0
 32 64  1  0  0  0  0
 33 65  1  0  0  0  0
 36 66  1  0  0  0  0
 37 67  1  0  0  0  0
 38 68  1  0  0  0  0
 39 69  1  0  0  0  0
 41 70  1  0  0  0  0
 42 71  1  0  0  0  0
 45 72  1  0  0  0  0
 46 73  1  0  0  0  0
 47 74  1  0  0  0  0
M  END
