
  xtb     03022213263D
 energy: -75.026341882610 gnorm: 0.000229363985 xtb: 6.4.1 (afa7bdf)
 42 44  0     0  0            999 V2000
   -2.9690    2.8212   -3.1433 C   0  0  0  0  0  0  0  0  0  0  0  0
   -2.5726    2.1632   -1.9477 O   0  0  0  0  0  0  0  0  0  0  0  0
   -1.7921    1.1034   -2.1072 C   0  0  0  0  0  0  0  0  0  0  0  0
   -1.3875    0.6852   -3.1583 O   0  0  0  0  0  0  0  0  0  0  0  0
   -1.4601    0.4773   -0.7953 C   0  0  0  0  0  0  0  0  0  0  0  0
   -2.2950   -0.3645   -0.0418 C   0  0  0  0  0  0  0  0  0  0  0  0
   -3.6587   -0.7155   -0.4296 C   0  0  0  0  0  0  0  0  0  0  0  0
   -4.1963   -0.3445   -1.4431 O   0  0  0  0  0  0  0  0  0  0  0  0
   -4.2645   -1.5126    0.4749 O   0  0  0  0  0  0  0  0  0  0  0  0
   -5.5956   -1.8907    0.1547 C   0  0  0  0  0  0  0  0  0  0  0  0
   -1.5523   -0.7736    1.0763 C   0  0  0  0  0  0  0  0  0  0  0  0
   -1.8095   -1.5770    2.1944 C   0  0  0  0  0  0  0  0  0  0  0  0
   -0.8153   -1.7293    3.1249 C   0  0  0  0  0  0  0  0  0  0  0  0
    0.4100   -1.0624    2.9133 C   0  0  0  0  0  0  0  0  0  0  0  0
    0.6617   -0.3220    1.8759 N   0  0  0  0  0  0  0  0  0  0  0  0
   -0.2914   -0.1966    0.9715 N   0  0  0  0  0  0  0  0  0  0  0  0
   -0.2230    0.5562   -0.1644 C   0  0  0  0  0  0  0  0  0  0  0  0
    0.9252    1.3647   -0.6086 C   0  0  0  0  0  0  0  0  0  0  0  0
    0.7475    2.3889   -1.2370 O   0  0  0  0  0  0  0  0  0  0  0  0
    2.2703    0.8529   -0.2707 C   0  0  0  0  0  0  0  0  0  0  0  0
    3.2981    1.7580   -0.0191 C   0  0  0  0  0  0  0  0  0  0  0  0
    4.5693    1.3062    0.2715 C   0  0  0  0  0  0  0  0  0  0  0  0
    4.8523   -0.0552    0.2918 C   0  0  0  0  0  0  0  0  0  0  0  0
    6.2388   -0.5433    0.5752 C   0  0  0  0  0  0  0  0  0  0  0  0
    3.8284   -0.9538    0.0090 C   0  0  0  0  0  0  0  0  0  0  0  0
    2.5501   -0.5114   -0.2642 C   0  0  0  0  0  0  0  0  0  0  0  0
   -3.5989    2.1581   -3.7393 H   0  0  0  0  0  0  0  0  0  0  0  0
   -2.0891    3.1006   -3.7262 H   0  0  0  0  0  0  0  0  0  0  0  0
   -3.5238    3.7034   -2.8349 H   0  0  0  0  0  0  0  0  0  0  0  0
   -5.9329   -2.5329    0.9643 H   0  0  0  0  0  0  0  0  0  0  0  0
   -5.6194   -2.4261   -0.7966 H   0  0  0  0  0  0  0  0  0  0  0  0
   -6.2318   -1.0070    0.0749 H   0  0  0  0  0  0  0  0  0  0  0  0
   -2.7765   -2.0427    2.2906 H   0  0  0  0  0  0  0  0  0  0  0  0
   -0.9544   -2.3338    4.0056 H   0  0  0  0  0  0  0  0  0  0  0  0
    1.2201   -1.1358    3.6227 H   0  0  0  0  0  0  0  0  0  0  0  0
    3.0782    2.8147   -0.0454 H   0  0  0  0  0  0  0  0  0  0  0  0
    5.3570    2.0163    0.4788 H   0  0  0  0  0  0  0  0  0  0  0  0
    6.8046   -0.6064   -0.3550 H   0  0  0  0  0  0  0  0  0  0  0  0
    6.7631    0.1387    1.2404 H   0  0  0  0  0  0  0  0  0  0  0  0
    6.2194   -1.5337    1.0238 H   0  0  0  0  0  0  0  0  0  0  0  0
    4.0403   -2.0136    0.0018 H   0  0  0  0  0  0  0  0  0  0  0  0
    1.7757   -1.2238   -0.5086 H   0  0  0  0  0  0  0  0  0  0  0  0
  1  2  1  0  0  0  0
  2  3  1  0  0  0  0
  3  4  2  0  0  0  0
  3  5  1  0  0  0  0
  5  6  1  0  0  0  0
  6  7  1  0  0  0  0
  7  8  2  0  0  0  0
  7  9  1  0  0  0  0
  9 10  1  0  0  0  0
  6 11  2  0  0  0  0
 11 12  1  0  0  0  0
 12 13  2  0  0  0  0
 13 14  1  0  0  0  0
 14 15  2  0  0  0  0
 15 16  1  0  0  0  0
 16 17  1  0  0  0  0
 17 18  1  0  0  0  0
 18 19  2  0  0  0  0
 18 20  1  0  0  0  0
 20 21  2  0  0  0  0
 21 22  1  0  0  0  0
 22 23  2  0  0  0  0
 23 24  1  0  0  0  0
 23 25  1  0  0  0  0
 25 26  2  0  0  0  0
 17  5  2  0  0  0  0
 26 20  1  0  0  0  0
 16 11  1  0  0  0  0
  1 27  1  0  0  0  0
  1 28  1  0  0  0  0
  1 29  1  0  0  0  0
 10 30  1  0  0  0  0
 10 31  1  0  0  0  0
 10 32  1  0  0  0  0
 12 33  1  0  0  0  0
 13 34  1  0  0  0  0
 14 35  1  0  0  0  0
 21 36  1  0  0  0  0
 22 37  1  0  0  0  0
 24 38  1  0  0  0  0
 24 39  1  0  0  0  0
 24 40  1  0  0  0  0
 25 41  1  0  0  0  0
 26 42  1  0  0  0  0
M  END
