
  xtb     03022215253D
 energy: -94.320963464331 gnorm: 0.000106387125 xtb: 6.4.1 (afa7bdf)
 53 59  0     0  0            999 V2000
    1.5226    2.1027   -2.2850 O   0  0  0  0  0  0  0  0  0  0  0  0
    1.0154    1.4225   -1.3984 C   0  0  0  0  0  0  0  0  0  0  0  0
    1.7700    0.5765   -0.4742 C   0  0  0  0  0  0  0  0  0  0  0  0
    1.0901   -0.2790    0.3960 C   0  0  0  0  0  0  0  0  0  0  0  0
    1.7050   -1.0832    1.2144 O   0  0  0  0  0  0  0  0  0  0  0  0
    3.1224   -1.3900    1.1437 B   0  0  0  0  0  4  0  0  0  0  0  0
    3.6351   -1.3384    2.4189 F   0  0  0  0  0  0  0  0  0  0  0  0
    3.2907   -2.6471    0.6006 F   0  0  0  0  0  0  0  0  0  0  0  0
    3.8918   -0.3370    0.2386 N   0  0  0  0  0  4  0  0  0  0  0  0
    3.2121    0.6059   -0.4347 C   0  0  0  0  0  0  0  0  0  0  0  0
    3.9298    1.6558   -1.0667 C   0  0  0  0  0  0  0  0  0  0  0  0
    5.2865    1.6860   -1.0419 C   0  0  0  0  0  0  0  0  0  0  0  0
    6.0046    0.6448   -0.4124 C   0  0  0  0  0  0  0  0  0  0  0  0
    7.4095    0.6003   -0.4099 C   0  0  0  0  0  0  0  0  0  0  0  0
    8.0714   -0.4301    0.2009 C   0  0  0  0  0  0  0  0  0  0  0  0
    7.3399   -1.4484    0.8212 C   0  0  0  0  0  0  0  0  0  0  0  0
    5.9685   -1.4278    0.8421 C   0  0  0  0  0  0  0  0  0  0  0  0
    5.2625   -0.3756    0.2324 C   0  0  0  0  0  0  0  0  0  0  0  0
   -0.3496   -0.2957    0.4780 C   0  0  0  0  0  0  0  0  0  0  0  0
   -1.0088   -1.0992    1.3989 C   0  0  0  0  0  0  0  0  0  0  0  0
   -2.3897   -1.1561    1.4407 C   0  0  0  0  0  0  0  0  0  0  0  0
   -3.1750   -0.4210    0.5545 C   0  0  0  0  0  0  0  0  0  0  0  0
   -4.5355   -0.5824    0.5146 N   0  0  0  0  0  0  0  0  0  0  0  0
   -5.2719   -0.7200   -0.7230 C   0  0  0  0  0  0  0  0  0  0  0  0
   -6.5713    0.1029   -0.6277 C   0  0  0  0  0  0  0  0  0  0  0  0
   -6.9533    0.2815    0.7181 O   0  0  0  0  0  0  0  0  0  0  0  0
   -6.7459   -0.8834    1.4746 C   0  0  0  0  0  0  0  0  0  0  0  0
   -5.2381   -1.1858    1.6275 C   0  0  0  0  0  0  0  0  0  0  0  0
   -2.5273    0.5356   -0.2961 C   0  0  0  0  0  0  0  0  0  0  0  0
   -3.2294    1.5269   -1.0063 C   0  0  0  0  0  0  0  0  0  0  0  0
   -2.5754    2.4036   -1.8378 C   0  0  0  0  0  0  0  0  0  0  0  0
   -1.1953    2.3234   -1.9973 C   0  0  0  0  0  0  0  0  0  0  0  0
   -0.4568    1.4247   -1.2507 C   0  0  0  0  0  0  0  0  0  0  0  0
   -1.1100    0.5473   -0.3625 C   0  0  0  0  0  0  0  0  0  0  0  0
    3.3679    2.4235   -1.5694 H   0  0  0  0  0  0  0  0  0  0  0  0
    5.8301    2.4956   -1.5070 H   0  0  0  0  0  0  0  0  0  0  0  0
    7.9495    1.3941   -0.9051 H   0  0  0  0  0  0  0  0  0  0  0  0
    9.1503   -0.4649    0.2018 H   0  0  0  0  0  0  0  0  0  0  0  0
    7.8636   -2.2676    1.2898 H   0  0  0  0  0  0  0  0  0  0  0  0
    5.4335   -2.2285    1.3192 H   0  0  0  0  0  0  0  0  0  0  0  0
   -0.4208   -1.7140    2.0622 H   0  0  0  0  0  0  0  0  0  0  0  0
   -2.8539   -1.8328    2.1395 H   0  0  0  0  0  0  0  0  0  0  0  0
   -4.6657   -0.4089   -1.5711 H   0  0  0  0  0  0  0  0  0  0  0  0
   -5.5225   -1.7835   -0.8602 H   0  0  0  0  0  0  0  0  0  0  0  0
   -6.4483    1.1101   -1.0314 H   0  0  0  0  0  0  0  0  0  0  0  0
   -7.3728   -0.4035   -1.1876 H   0  0  0  0  0  0  0  0  0  0  0  0
   -7.2637   -1.7336    1.0060 H   0  0  0  0  0  0  0  0  0  0  0  0
   -7.1974   -0.6975    2.4497 H   0  0  0  0  0  0  0  0  0  0  0  0
   -4.8594   -0.7383    2.5483 H   0  0  0  0  0  0  0  0  0  0  0  0
   -5.0898   -2.2757    1.6712 H   0  0  0  0  0  0  0  0  0  0  0  0
   -4.2901    1.6382   -0.8507 H   0  0  0  0  0  0  0  0  0  0  0  0
   -3.1324    3.1637   -2.3649 H   0  0  0  0  0  0  0  0  0  0  0  0
   -0.6728    2.9837   -2.6730 H   0  0  0  0  0  0  0  0  0  0  0  0
  1  2  2  0  0  0  0
  2  3  1  0  0  0  0
  3  4  2  0  0  0  0
  4  5  1  0  0  0  0
  5  6  1  0  0  0  0
  6  7  1  0  0  0  0
  6  8  1  0  0  0  0
  6  9  1  0  0  0  0
  9 10  2  0  0  0  0
 10 11  1  0  0  0  0
 11 12  2  0  0  0  0
 12 13  1  0  0  0  0
 13 14  2  0  0  0  0
 14 15  1  0  0  0  0
 15 16  2  0  0  0  0
 16 17  1  0  0  0  0
 17 18  2  0  0  0  0
  4 19  1  0  0  0  0
 19 20  1  0  0  0  0
 20 21  2  0  0  0  0
 21 22  1  0  0  0  0
 22 23  1  0  0  0  0
 23 24  1  0  0  0  0
 24 25  1  0  0  0  0
 25 26  1  0  0  0  0
 26 27  1  0  0  0  0
 27 28  1  0  0  0  0
 22 29  2  0  0  0  0
 29 30  1  0  0  0  0
 30 31  2  0  0  0  0
 31 32  1  0  0  0  0
 32 33  2  0  0  0  0
 33 34  1  0  0  0  0
 33  2  1  0  0  0  0
 10  3  1  0  0  0  0
 18 13  1  0  0  0  0
 34 19  2  0  0  0  0
 18  9  1  0  0  0  0
 28 23  1  0  0  0  0
 34 29  1  0  0  0  0
 11 35  1  0  0  0  0
 12 36  1  0  0  0  0
 14 37  1  0  0  0  0
 15 38  1  0  0  0  0
 16 39  1  0  0  0  0
 17 40  1  0  0  0  0
 20 41  1  0  0  0  0
 21 42  1  0  0  0  0
 24 43  1  0  0  0  0
 24 44  1  0  0  0  0
 25 45  1  0  0  0  0
 25 46  1  0  0  0  0
 27 47  1  0  0  0  0
 27 48  1  0  0  0  0
 28 49  1  0  0  0  0
 28 50  1  0  0  0  0
 30 51  1  0  0  0  0
 31 52  1  0  0  0  0
 32 53  1  0  0  0  0
M  CHG  1   6  -1
M  CHG  1   9   1
M  END
