
  xtb     03022213273D
 energy: -88.257404022046 gnorm: 0.000188416232 xtb: 6.4.1 (afa7bdf)
 57 61  0     0  0            999 V2000
    6.9489    0.8052    2.3524 C   0  0  0  0  0  0  0  0  0  0  0  0
    6.8263    0.5946    0.9318 N   0  0  0  0  0  0  0  0  0  0  0  0
    8.0071    0.7419    0.1171 C   0  0  0  0  0  0  0  0  0  0  0  0
    5.6210    0.2887    0.3679 C   0  0  0  0  0  0  0  0  0  0  0  0
    4.4278    0.3562    1.1095 C   0  0  0  0  0  0  0  0  0  0  0  0
    3.2171    0.0395    0.5439 C   0  0  0  0  0  0  0  0  0  0  0  0
    3.1217   -0.3625   -0.7965 C   0  0  0  0  0  0  0  0  0  0  0  0
    1.8891   -0.6945   -1.4258 C   0  0  0  0  0  0  0  0  0  0  0  0
    0.5562   -0.9138   -1.0093 C   0  0  0  0  0  0  0  0  0  0  0  0
   -0.0238   -1.1294    0.2462 C   0  0  0  0  0  0  0  0  0  0  0  0
   -1.3591   -1.3013    0.5756 C   0  0  0  0  0  0  0  0  0  0  0  0
   -1.6781   -1.9993    1.7857 C   0  0  0  0  0  0  0  0  0  0  0  0
   -2.9433   -2.3553    2.0854 C   0  0  0  0  0  0  0  0  0  0  0  0
   -4.0003   -2.0559    1.1717 C   0  0  0  0  0  0  0  0  0  0  0  0
   -5.3086   -2.4993    1.3823 C   0  0  0  0  0  0  0  0  0  0  0  0
   -6.3084   -2.1892    0.4898 C   0  0  0  0  0  0  0  0  0  0  0  0
   -6.0066   -1.4342   -0.6388 C   0  0  0  0  0  0  0  0  0  0  0  0
   -4.7262   -0.9786   -0.8657 C   0  0  0  0  0  0  0  0  0  0  0  0
   -3.6973   -1.2733    0.0356 C   0  0  0  0  0  0  0  0  0  0  0  0
   -2.4123   -0.8161   -0.1633 N   0  0  0  0  0  0  0  0  0  0  0  0
   -2.2258    0.3355   -1.0280 C   0  0  0  0  0  0  0  0  0  0  0  0
   -3.1389    1.4763   -0.6482 C   0  0  0  0  0  0  0  0  0  0  0  0
   -3.6979    2.2796   -1.6332 C   0  0  0  0  0  0  0  0  0  0  0  0
   -4.5128    3.3444   -1.2929 C   0  0  0  0  0  0  0  0  0  0  0  0
   -4.7815    3.6152    0.0378 C   0  0  0  0  0  0  0  0  0  0  0  0
   -4.2223    2.8231    1.0258 C   0  0  0  0  0  0  0  0  0  0  0  0
   -3.4012    1.7634    0.6853 C   0  0  0  0  0  0  0  0  0  0  0  0
    0.1152   -1.1443   -2.4093 C   0  0  0  0  0  0  0  0  0  0  0  0
   -0.9312   -1.4124   -2.9517 O   0  0  0  0  0  0  0  0  0  0  0  0
    1.5626   -0.9361   -2.8357 C   0  0  0  0  0  0  0  0  0  0  0  0
    2.1763   -0.9908   -3.8770 O   0  0  0  0  0  0  0  0  0  0  0  0
    4.3102   -0.4093   -1.5440 C   0  0  0  0  0  0  0  0  0  0  0  0
    5.5218   -0.0995   -0.9810 C   0  0  0  0  0  0  0  0  0  0  0  0
    6.5458    1.7782    2.6570 H   0  0  0  0  0  0  0  0  0  0  0  0
    6.4244    0.0218    2.9033 H   0  0  0  0  0  0  0  0  0  0  0  0
    7.9990    0.7660    2.6341 H   0  0  0  0  0  0  0  0  0  0  0  0
    8.3917   -0.2278   -0.2181 H   0  0  0  0  0  0  0  0  0  0  0  0
    8.7845    1.2383    0.6939 H   0  0  0  0  0  0  0  0  0  0  0  0
    7.7955    1.3559   -0.7607 H   0  0  0  0  0  0  0  0  0  0  0  0
    4.4465    0.6827    2.1370 H   0  0  0  0  0  0  0  0  0  0  0  0
    2.3203    0.1339    1.1369 H   0  0  0  0  0  0  0  0  0  0  0  0
    0.6768   -1.3269    1.0480 H   0  0  0  0  0  0  0  0  0  0  0  0
   -0.8570   -2.2622    2.4350 H   0  0  0  0  0  0  0  0  0  0  0  0
   -3.1773   -2.8920    2.9926 H   0  0  0  0  0  0  0  0  0  0  0  0
   -5.5187   -3.0930    2.2600 H   0  0  0  0  0  0  0  0  0  0  0  0
   -7.3171   -2.5339    0.6578 H   0  0  0  0  0  0  0  0  0  0  0  0
   -6.7831   -1.2034   -1.3524 H   0  0  0  0  0  0  0  0  0  0  0  0
   -4.5244   -0.4143   -1.7593 H   0  0  0  0  0  0  0  0  0  0  0  0
   -2.3643    0.0589   -2.0760 H   0  0  0  0  0  0  0  0  0  0  0  0
   -1.1902    0.6696   -0.9137 H   0  0  0  0  0  0  0  0  0  0  0  0
   -3.4911    2.0693   -2.6730 H   0  0  0  0  0  0  0  0  0  0  0  0
   -4.9424    3.9609   -2.0685 H   0  0  0  0  0  0  0  0  0  0  0  0
   -5.4228    4.4420    0.3043 H   0  0  0  0  0  0  0  0  0  0  0  0
   -4.4234    3.0326    2.0661 H   0  0  0  0  0  0  0  0  0  0  0  0
   -2.9641    1.1540    1.4640 H   0  0  0  0  0  0  0  0  0  0  0  0
    4.2580   -0.7069   -2.5797 H   0  0  0  0  0  0  0  0  0  0  0  0
    6.4074   -0.1724   -1.5906 H   0  0  0  0  0  0  0  0  0  0  0  0
  1  2  1  0  0  0  0
  2  3  1  0  0  0  0
  2  4  1  0  0  0  0
  4  5  2  0  0  0  0
  5  6  1  0  0  0  0
  6  7  2  0  0  0  0
  7  8  1  0  0  0  0
  8  9  2  0  0  0  0
  9 10  1  0  0  0  0
 10 11  2  0  0  0  0
 11 12  1  0  0  0  0
 12 13  2  0  0  0  0
 13 14  1  0  0  0  0
 14 15  2  0  0  0  0
 15 16  1  0  0  0  0
 16 17  2  0  0  0  0
 17 18  1  0  0  0  0
 18 19  2  0  0  0  0
 19 20  1  0  0  0  0
 20 21  1  0  0  0  0
 21 22  1  0  0  0  0
 22 23  2  0  0  0  0
 23 24  1  0  0  0  0
 24 25  2  0  0  0  0
 25 26  1  0  0  0  0
 26 27  2  0  0  0  0
  9 28  1  0  0  0  0
 28 29  2  0  0  0  0
 28 30  1  0  0  0  0
 30 31  2  0  0  0  0
  7 32  1  0  0  0  0
 32 33  2  0  0  0  0
 33  4  1  0  0  0  0
 30  8  1  0  0  0  0
 20 11  1  0  0  0  0
 27 22  1  0  0  0  0
 19 14  1  0  0  0  0
  1 34  1  0  0  0  0
  1 35  1  0  0  0  0
  1 36  1  0  0  0  0
  3 37  1  0  0  0  0
  3 38  1  0  0  0  0
  3 39  1  0  0  0  0
  5 40  1  0  0  0  0
  6 41  1  0  0  0  0
 10 42  1  0  0  0  0
 12 43  1  0  0  0  0
 13 44  1  0  0  0  0
 15 45  1  0  0  0  0
 16 46  1  0  0  0  0
 17 47  1  0  0  0  0
 18 48  1  0  0  0  0
 21 49  1  0  0  0  0
 21 50  1  0  0  0  0
 23 51  1  0  0  0  0
 24 52  1  0  0  0  0
 25 53  1  0  0  0  0
 26 54  1  0  0  0  0
 27 55  1  0  0  0  0
 32 56  1  0  0  0  0
 33 57  1  0  0  0  0
M  END
