
  xtb     03022213133D
 energy: -53.292752641523 gnorm: 0.000259096474 xtb: 6.4.1 (afa7bdf)
 31 33  0     0  0            999 V2000
   -6.1499    0.6030   -1.2407 C   0  0  0  0  0  0  0  0  0  0  0  0
   -5.6045   -0.0972   -0.1480 O   0  0  0  0  0  0  0  0  0  0  0  0
   -4.2554   -0.1307   -0.0025 C   0  0  0  0  0  0  0  0  0  0  0  0
   -3.7768   -0.8450    1.0998 C   0  0  0  0  0  0  0  0  0  0  0  0
   -2.4282   -0.9452    1.3429 C   0  0  0  0  0  0  0  0  0  0  0  0
   -1.4975   -0.3342    0.4927 C   0  0  0  0  0  0  0  0  0  0  0  0
   -0.0771   -0.4319    0.7353 C   0  0  0  0  0  0  0  0  0  0  0  0
    0.5864   -1.0995    1.7381 C   0  0  0  0  0  0  0  0  0  0  0  0
    1.9777   -0.9830    1.6726 C   0  0  0  0  0  0  0  0  0  0  0  0
    2.4111   -0.2194    0.6127 C   0  0  0  0  0  0  0  0  0  0  0  0
    3.7512    0.1036    0.2512 C   0  0  0  0  0  0  0  0  0  0  0  0
    4.9132   -0.2779    0.8906 C   0  0  0  0  0  0  0  0  0  0  0  0
    6.0680    0.2114    0.2782 C   0  0  0  0  0  0  0  0  0  0  0  0
    5.8017    0.9728   -0.8366 C   0  0  0  0  0  0  0  0  0  0  0  0
    6.7248    1.6025   -1.6692 C   0  0  0  0  0  0  0  0  0  0  0  0
    7.4926    2.1178   -2.3510 N   0  0  0  0  0  0  0  0  0  0  0  0
    4.0926    1.0877   -1.1376 S   0  0  0  0  0  0  0  0  0  0  0  0
    1.0600    0.3601   -0.3156 S   0  0  0  0  0  0  0  0  0  0  0  0
   -1.9874    0.3771   -0.6031 C   0  0  0  0  0  0  0  0  0  0  0  0
   -3.3405    0.4821   -0.8542 C   0  0  0  0  0  0  0  0  0  0  0  0
   -5.8188    0.1799   -2.1944 H   0  0  0  0  0  0  0  0  0  0  0  0
   -7.2293    0.4906   -1.1529 H   0  0  0  0  0  0  0  0  0  0  0  0
   -5.8933    1.6664   -1.2049 H   0  0  0  0  0  0  0  0  0  0  0  0
   -4.4948   -1.3146    1.7534 H   0  0  0  0  0  0  0  0  0  0  0  0
   -2.0901   -1.5023    2.2019 H   0  0  0  0  0  0  0  0  0  0  0  0
    0.0878   -1.6630    2.5053 H   0  0  0  0  0  0  0  0  0  0  0  0
    2.6450   -1.4434    2.3784 H   0  0  0  0  0  0  0  0  0  0  0  0
    4.9238   -0.8911    1.7727 H   0  0  0  0  0  0  0  0  0  0  0  0
    7.0674    0.0224    0.6284 H   0  0  0  0  0  0  0  0  0  0  0  0
   -1.2902    0.8584   -1.2742 H   0  0  0  0  0  0  0  0  0  0  0  0
   -3.6697    1.0427   -1.7146 H   0  0  0  0  0  0  0  0  0  0  0  0
  1  2  1  0  0  0  0
  2  3  1  0  0  0  0
  3  4  2  0  0  0  0
  4  5  1  0  0  0  0
  5  6  2  0  0  0  0
  6  7  1  0  0  0  0
  7  8  2  0  0  0  0
  8  9  1  0  0  0  0
  9 10  2  0  0  0  0
 10 11  1  0  0  0  0
 11 12  2  0  0  0  0
 12 13  1  0  0  0  0
 13 14  2  0  0  0  0
 14 15  1  0  0  0  0
 15 16  3  0  0  0  0
 14 17  1  0  0  0  0
 10 18  1  0  0  0  0
  6 19  1  0  0  0  0
 19 20  2  0  0  0  0
 20  3  1  0  0  0  0
 18  7  1  0  0  0  0
 17 11  1  0  0  0  0
  1 21  1  0  0  0  0
  1 22  1  0  0  0  0
  1 23  1  0  0  0  0
  4 24  1  0  0  0  0
  5 25  1  0  0  0  0
  8 26  1  0  0  0  0
  9 27  1  0  0  0  0
 12 28  1  0  0  0  0
 13 29  1  0  0  0  0
 19 30  1  0  0  0  0
 20 31  1  0  0  0  0
M  END
