
  xtb     03022213213D
 energy: -50.895931971142 gnorm: 0.000124257967 xtb: 6.4.1 (afa7bdf)
 30 32  0     0  0            999 V2000
    1.8459    2.5243    1.3287 O   0  0  0  0  0  0  0  0  0  0  0  0
    1.6028    1.4173    0.8671 C   0  0  0  0  0  0  0  0  0  0  0  0
    0.2596    0.9772    0.5786 C   0  0  0  0  0  0  0  0  0  0  0  0
   -0.0337   -0.2581    0.0944 C   0  0  0  0  0  0  0  0  0  0  0  0
   -1.2582   -0.7599   -0.1973 N   0  0  0  0  0  0  0  0  0  0  0  0
   -2.5061   -0.1550   -0.2642 C   0  0  0  0  0  0  0  0  0  0  0  0
   -2.6805    1.1786   -0.6301 C   0  0  0  0  0  0  0  0  0  0  0  0
   -3.9533    1.7144   -0.6975 C   0  0  0  0  0  0  0  0  0  0  0  0
   -5.0632    0.9369   -0.4130 C   0  0  0  0  0  0  0  0  0  0  0  0
   -4.8960   -0.3975   -0.0785 C   0  0  0  0  0  0  0  0  0  0  0  0
   -3.6299   -0.9431   -0.0092 C   0  0  0  0  0  0  0  0  0  0  0  0
    1.0370   -1.2800   -0.1148 C   0  0  0  0  0  0  0  0  0  0  0  0
    0.7370   -2.4125   -0.4552 O   0  0  0  0  0  0  0  0  0  0  0  0
    2.4172   -0.8417    0.1113 C   0  0  0  0  0  0  0  0  0  0  0  0
    3.4646   -1.7283   -0.1346 C   0  0  0  0  0  0  0  0  0  0  0  0
    4.7745   -1.3371    0.0716 C   0  0  0  0  0  0  0  0  0  0  0  0
    5.0499   -0.0578    0.5310 C   0  0  0  0  0  0  0  0  0  0  0  0
    4.0156    0.8281    0.7824 C   0  0  0  0  0  0  0  0  0  0  0  0
    2.6956    0.4498    0.5746 C   0  0  0  0  0  0  0  0  0  0  0  0
   -0.5220    1.6868    0.8028 H   0  0  0  0  0  0  0  0  0  0  0  0
   -1.2316   -1.7648   -0.3646 H   0  0  0  0  0  0  0  0  0  0  0  0
   -1.8288    1.7829   -0.8962 H   0  0  0  0  0  0  0  0  0  0  0  0
   -4.0772    2.7481   -0.9836 H   0  0  0  0  0  0  0  0  0  0  0  0
   -6.0529    1.3640   -0.4636 H   0  0  0  0  0  0  0  0  0  0  0  0
   -5.7565   -1.0157    0.1292 H   0  0  0  0  0  0  0  0  0  0  0  0
   -3.4981   -1.9840    0.2497 H   0  0  0  0  0  0  0  0  0  0  0  0
    3.2262   -2.7200   -0.4897 H   0  0  0  0  0  0  0  0  0  0  0  0
    5.5809   -2.0280   -0.1240 H   0  0  0  0  0  0  0  0  0  0  0  0
    6.0725    0.2484    0.6950 H   0  0  0  0  0  0  0  0  0  0  0  0
    4.2085    1.8268    1.1455 H   0  0  0  0  0  0  0  0  0  0  0  0
  1  2  2  0  0  0  0
  2  3  1  0  0  0  0
  3  4  2  0  0  0  0
  4  5  1  0  0  0  0
  5  6  1  0  0  0  0
  6  7  2  0  0  0  0
  7  8  1  0  0  0  0
  8  9  2  0  0  0  0
  9 10  1  0  0  0  0
 10 11  2  0  0  0  0
  4 12  1  0  0  0  0
 12 13  2  0  0  0  0
 12 14  1  0  0  0  0
 14 15  2  0  0  0  0
 15 16  1  0  0  0  0
 16 17  2  0  0  0  0
 17 18  1  0  0  0  0
 18 19  2  0  0  0  0
 19  2  1  0  0  0  0
 11  6  1  0  0  0  0
 19 14  1  0  0  0  0
  3 20  1  0  0  0  0
  5 21  1  0  0  0  0
  7 22  1  0  0  0  0
  8 23  1  0  0  0  0
  9 24  1  0  0  0  0
 10 25  1  0  0  0  0
 11 26  1  0  0  0  0
 15 27  1  0  0  0  0
 16 28  1  0  0  0  0
 17 29  1  0  0  0  0
 18 30  1  0  0  0  0
M  END
