
  xtb     03022214153D
 energy: -58.129003207348 gnorm: 0.000094464561 xtb: 6.4.1 (afa7bdf)
 34 36  0     0  0            999 V2000
    6.5417    0.1849   -0.7885 C   0  0  0  0  0  0  0  0  0  0  0  0
    5.5448    0.5677    0.1277 O   0  0  0  0  0  0  0  0  0  0  0  0
    4.2615    0.1866   -0.1077 C   0  0  0  0  0  0  0  0  0  0  0  0
    3.3170    0.6071    0.8316 C   0  0  0  0  0  0  0  0  0  0  0  0
    1.9852    0.2907    0.6890 C   0  0  0  0  0  0  0  0  0  0  0  0
    1.5533   -0.4548   -0.4097 C   0  0  0  0  0  0  0  0  0  0  0  0
    0.2264   -0.8197   -0.5992 N   0  0  0  0  0  0  0  0  0  0  0  0
   -0.9249   -0.1983   -0.2492 C   0  0  0  0  0  0  0  0  0  0  0  0
   -1.0651    1.0618    0.2430 C   0  0  0  0  0  0  0  0  0  0  0  0
   -2.3393    1.6413    0.5841 C   0  0  0  0  0  0  0  0  0  0  0  0
   -2.4521    2.7896    0.9941 O   0  0  0  0  0  0  0  0  0  0  0  0
   -3.5325    0.7680    0.4108 C   0  0  0  0  0  0  0  0  0  0  0  0
   -4.7846    1.2434    0.7784 C   0  0  0  0  0  0  0  0  0  0  0  0
   -5.9125    0.4573    0.6145 C   0  0  0  0  0  0  0  0  0  0  0  0
   -5.8013   -0.8151    0.0739 C   0  0  0  0  0  0  0  0  0  0  0  0
   -4.5617   -1.2990   -0.3007 C   0  0  0  0  0  0  0  0  0  0  0  0
   -3.4197   -0.5171   -0.1333 C   0  0  0  0  0  0  0  0  0  0  0  0
   -2.1154   -1.0546   -0.5316 C   0  0  0  0  0  0  0  0  0  0  0  0
   -1.9696   -2.1416   -1.0671 O   0  0  0  0  0  0  0  0  0  0  0  0
    2.5017   -0.9040   -1.3258 C   0  0  0  0  0  0  0  0  0  0  0  0
    3.8393   -0.5869   -1.1850 C   0  0  0  0  0  0  0  0  0  0  0  0
    6.6416   -0.9040   -0.8430 H   0  0  0  0  0  0  0  0  0  0  0  0
    6.3428    0.5833   -1.7886 H   0  0  0  0  0  0  0  0  0  0  0  0
    7.4688    0.6117   -0.4096 H   0  0  0  0  0  0  0  0  0  0  0  0
    3.6589    1.1811    1.6777 H   0  0  0  0  0  0  0  0  0  0  0  0
    1.2835    0.5918    1.4491 H   0  0  0  0  0  0  0  0  0  0  0  0
    0.0592   -1.6844   -1.1112 H   0  0  0  0  0  0  0  0  0  0  0  0
   -0.2086    1.7059    0.3699 H   0  0  0  0  0  0  0  0  0  0  0  0
   -4.8498    2.2391    1.1918 H   0  0  0  0  0  0  0  0  0  0  0  0
   -6.8804    0.8370    0.9068 H   0  0  0  0  0  0  0  0  0  0  0  0
   -6.6810   -1.4278   -0.0551 H   0  0  0  0  0  0  0  0  0  0  0  0
   -4.4516   -2.2860   -0.7250 H   0  0  0  0  0  0  0  0  0  0  0  0
    2.1844   -1.5060   -2.1651 H   0  0  0  0  0  0  0  0  0  0  0  0
    4.5404   -0.9489   -1.9199 H   0  0  0  0  0  0  0  0  0  0  0  0
  1  2  1  0  0  0  0
  2  3  1  0  0  0  0
  3  4  2  0  0  0  0
  4  5  1  0  0  0  0
  5  6  2  0  0  0  0
  6  7  1  0  0  0  0
  7  8  1  0  0  0  0
  8  9  2  0  0  0  0
  9 10  1  0  0  0  0
 10 11  2  0  0  0  0
 10 12  1  0  0  0  0
 12 13  2  0  0  0  0
 13 14  1  0  0  0  0
 14 15  2  0  0  0  0
 15 16  1  0  0  0  0
 16 17  2  0  0  0  0
 17 18  1  0  0  0  0
 18 19  2  0  0  0  0
  6 20  1  0  0  0  0
 20 21  2  0  0  0  0
 21  3  1  0  0  0  0
 18  8  1  0  0  0  0
 17 12  1  0  0  0  0
  1 22  1  0  0  0  0
  1 23  1  0  0  0  0
  1 24  1  0  0  0  0
  4 25  1  0  0  0  0
  5 26  1  0  0  0  0
  7 27  1  0  0  0  0
  9 28  1  0  0  0  0
 13 29  1  0  0  0  0
 14 30  1  0  0  0  0
 15 31  1  0  0  0  0
 16 32  1  0  0  0  0
 20 33  1  0  0  0  0
 21 34  1  0  0  0  0
M  END
