
  xtb     03022215433D
 energy: -104.063598883658 gnorm: 0.000775041701 xtb: 6.4.1 (afa7bdf)
 64 70  0     0  0            999 V2000
   -8.6165   -1.3278    0.3765 C   0  0  0  0  0  0  0  0  0  0  0  0
   -7.6050   -0.2553    0.7595 C   0  0  0  0  0  0  0  0  0  0  0  0
   -7.7130    0.9632   -0.1546 C   0  0  0  0  0  0  0  0  0  0  0  0
   -6.7869    2.1028    0.2683 C   0  0  0  0  0  0  0  0  0  0  0  0
   -5.3843    1.7029    0.2284 N   0  0  0  0  0  0  0  0  0  0  0  0
   -4.7666    1.3966    1.4285 C   0  0  0  0  0  0  0  0  0  0  0  0
   -5.3562    1.4963    2.4853 O   0  0  0  0  0  0  0  0  0  0  0  0
   -3.3653    0.9501    1.3497 C   0  0  0  0  0  0  0  0  0  0  0  0
   -2.6966    0.6069    2.5080 C   0  0  0  0  0  0  0  0  0  0  0  0
   -1.3776    0.1813    2.4586 C   0  0  0  0  0  0  0  0  0  0  0  0
   -0.6824    0.0831    1.2584 C   0  0  0  0  0  0  0  0  0  0  0  0
    0.7004   -0.3630    1.1972 C   0  0  0  0  0  0  0  0  0  0  0  0
    1.4125   -0.7281    2.3343 C   0  0  0  0  0  0  0  0  0  0  0  0
    2.7323   -1.1492    2.2675 C   0  0  0  0  0  0  0  0  0  0  0  0
    3.3831   -1.2205    1.0520 C   0  0  0  0  0  0  0  0  0  0  0  0
    2.6982   -0.8657   -0.1260 C   0  0  0  0  0  0  0  0  0  0  0  0
    3.3642   -0.9498   -1.3638 C   0  0  0  0  0  0  0  0  0  0  0  0
    2.6952   -0.6076   -2.5221 C   0  0  0  0  0  0  0  0  0  0  0  0
    1.3765   -0.1809   -2.4726 C   0  0  0  0  0  0  0  0  0  0  0  0
    0.6820   -0.0810   -1.2722 C   0  0  0  0  0  0  0  0  0  0  0  0
   -0.7004    0.3663   -1.2109 C   0  0  0  0  0  0  0  0  0  0  0  0
   -1.4120    0.7332   -2.3478 C   0  0  0  0  0  0  0  0  0  0  0  0
   -2.7317    1.1544   -2.2810 C   0  0  0  0  0  0  0  0  0  0  0  0
   -3.3831    1.2238   -1.0657 C   0  0  0  0  0  0  0  0  0  0  0  0
   -2.6987    0.8677    0.1122 C   0  0  0  0  0  0  0  0  0  0  0  0
   -1.3483    0.4340    0.0526 C   0  0  0  0  0  0  0  0  0  0  0  0
   -4.7870    1.6644   -1.0189 C   0  0  0  0  0  0  0  0  0  0  0  0
   -5.4038    1.9833   -2.0154 O   0  0  0  0  0  0  0  0  0  0  0  0
    1.3480   -0.4315   -0.0664 C   0  0  0  0  0  0  0  0  0  0  0  0
    4.7651   -1.3975   -1.4427 C   0  0  0  0  0  0  0  0  0  0  0  0
    5.3540   -1.4994   -2.4997 O   0  0  0  0  0  0  0  0  0  0  0  0
    5.3832   -1.7027   -0.2425 N   0  0  0  0  0  0  0  0  0  0  0  0
    6.7854   -2.1042   -0.2828 C   0  0  0  0  0  0  0  0  0  0  0  0
    7.7131   -0.9646    0.1368 C   0  0  0  0  0  0  0  0  0  0  0  0
    7.6063    0.2515   -0.7804 C   0  0  0  0  0  0  0  0  0  0  0  0
    8.6193    1.3238   -0.4006 C   0  0  0  0  0  0  0  0  0  0  0  0
    4.7867   -1.6617    1.0050 C   0  0  0  0  0  0  0  0  0  0  0  0
    5.4039   -1.9793    2.0017 O   0  0  0  0  0  0  0  0  0  0  0  0
   -8.4587   -1.6517   -0.6502 H   0  0  0  0  0  0  0  0  0  0  0  0
   -9.6303   -0.9429    0.4611 H   0  0  0  0  0  0  0  0  0  0  0  0
   -8.5224   -2.1930    1.0283 H   0  0  0  0  0  0  0  0  0  0  0  0
   -7.7686    0.0532    1.7941 H   0  0  0  0  0  0  0  0  0  0  0  0
   -6.5970   -0.6740    0.6976 H   0  0  0  0  0  0  0  0  0  0  0  0
   -8.7368    1.3415   -0.1362 H   0  0  0  0  0  0  0  0  0  0  0  0
   -7.4797    0.6778   -1.1823 H   0  0  0  0  0  0  0  0  0  0  0  0
   -7.0022    2.4108    1.2927 H   0  0  0  0  0  0  0  0  0  0  0  0
   -6.9096    2.9485   -0.4122 H   0  0  0  0  0  0  0  0  0  0  0  0
   -3.2206    0.6773    3.4492 H   0  0  0  0  0  0  0  0  0  0  0  0
   -0.8990   -0.0741    3.3893 H   0  0  0  0  0  0  0  0  0  0  0  0
    0.9475   -0.6908    3.3052 H   0  0  0  0  0  0  0  0  0  0  0  0
    3.2706   -1.4268    3.1611 H   0  0  0  0  0  0  0  0  0  0  0  0
    3.2187   -0.6793   -3.4635 H   0  0  0  0  0  0  0  0  0  0  0  0
    0.8977    0.0738   -3.4034 H   0  0  0  0  0  0  0  0  0  0  0  0
   -0.9464    0.6973   -3.3186 H   0  0  0  0  0  0  0  0  0  0  0  0
   -3.2696    1.4334   -3.1745 H   0  0  0  0  0  0  0  0  0  0  0  0
    6.9076   -2.9484    0.3996 H   0  0  0  0  0  0  0  0  0  0  0  0
    6.9994   -2.4148   -1.3066 H   0  0  0  0  0  0  0  0  0  0  0  0
    7.4806   -0.6764    1.1639 H   0  0  0  0  0  0  0  0  0  0  0  0
    8.7364   -1.3443    0.1189 H   0  0  0  0  0  0  0  0  0  0  0  0
    7.7691   -0.0598   -1.8143 H   0  0  0  0  0  0  0  0  0  0  0  0
    6.5988    0.6716   -0.7192 H   0  0  0  0  0  0  0  0  0  0  0  0
    9.6325    0.9374   -0.4843 H   0  0  0  0  0  0  0  0  0  0  0  0
    8.5261    2.1873   -1.0548 H   0  0  0  0  0  0  0  0  0  0  0  0
    8.4620    1.6508    0.6252 H   0  0  0  0  0  0  0  0  0  0  0  0
  1  2  1  0  0  0  0
  2  3  1  0  0  0  0
  3  4  1  0  0  0  0
  4  5  1  0  0  0  0
  5  6  1  0  0  0  0
  6  7  2  0  0  0  0
  6  8  1  0  0  0  0
  8  9  2  0  0  0  0
  9 10  1  0  0  0  0
 10 11  2  0  0  0  0
 11 12  1  0  0  0  0
 12 13  2  0  0  0  0
 13 14  1  0  0  0  0
 14 15  2  0  0  0  0
 15 16  1  0  0  0  0
 16 17  1  0  0  0  0
 17 18  2  0  0  0  0
 18 19  1  0  0  0  0
 19 20  2  0  0  0  0
 20 21  1  0  0  0  0
 21 22  2  0  0  0  0
 22 23  1  0  0  0  0
 23 24  2  0  0  0  0
 24 25  1  0  0  0  0
 25 26  2  0  0  0  0
 24 27  1  0  0  0  0
 27 28  2  0  0  0  0
 20 29  1  0  0  0  0
 17 30  1  0  0  0  0
 30 31  2  0  0  0  0
 30 32  1  0  0  0  0
 32 33  1  0  0  0  0
 33 34  1  0  0  0  0
 34 35  1  0  0  0  0
 35 36  1  0  0  0  0
 32 37  1  0  0  0  0
 37 38  2  0  0  0  0
 27  5  1  0  0  0  0
 25  8  1  0  0  0  0
 26 11  1  0  0  0  0
 29 12  1  0  0  0  0
 37 15  1  0  0  0  0
 29 16  2  0  0  0  0
 26 21  1  0  0  0  0
  1 39  1  0  0  0  0
  1 40  1  0  0  0  0
  1 41  1  0  0  0  0
  2 42  1  0  0  0  0
  2 43  1  0  0  0  0
  3 44  1  0  0  0  0
  3 45  1  0  0  0  0
  4 46  1  0  0  0  0
  4 47  1  0  0  0  0
  9 48  1  0  0  0  0
 10 49  1  0  0  0  0
 13 50  1  0  0  0  0
 14 51  1  0  0  0  0
 18 52  1  0  0  0  0
 19 53  1  0  0  0  0
 22 54  1  0  0  0  0
 23 55  1  0  0  0  0
 33 56  1  0  0  0  0
 33 57  1  0  0  0  0
 34 58  1  0  0  0  0
 34 59  1  0  0  0  0
 35 60  1  0  0  0  0
 35 61  1  0  0  0  0
 36 62  1  0  0  0  0
 36 63  1  0  0  0  0
 36 64  1  0  0  0  0
M  END
