
  xtb     03022213173D
 energy: -66.162253161977 gnorm: 0.000128882065 xtb: 6.4.1 (afa7bdf)
 39 42  0     0  0            999 V2000
   -0.1512   -3.0585    1.7944 N   0  0  0  0  0  0  0  0  0  0  0  0
    0.4706   -2.1064    1.6287 C   0  0  0  0  0  0  0  0  0  0  0  0
    1.2732   -0.9649    1.4771 C   0  0  0  0  0  0  0  0  0  0  0  0
    2.4695   -0.8387    2.2320 C   0  0  0  0  0  0  0  0  0  0  0  0
    2.8640   -1.8189    3.0677 N   0  0  0  0  0  0  0  0  0  0  0  0
    3.2560    0.2273    2.1430 N   0  0  0  0  0  0  0  0  0  0  0  0
    2.9282    1.2163    1.3200 C   0  0  0  0  0  0  0  0  0  0  0  0
    3.7537    2.2803    1.2871 N   0  0  0  0  0  0  0  0  0  0  0  0
    1.7579    1.1792    0.5162 C   0  0  0  0  0  0  0  0  0  0  0  0
    1.4737    2.2461   -0.3505 C   0  0  0  0  0  0  0  0  0  0  0  0
    1.2912    3.1432   -1.0450 N   0  0  0  0  0  0  0  0  0  0  0  0
    0.9190    0.0659    0.6037 C   0  0  0  0  0  0  0  0  0  0  0  0
   -0.3111   -0.0202   -0.2061 C   0  0  0  0  0  0  0  0  0  0  0  0
   -1.3881    0.8306    0.0827 C   0  0  0  0  0  0  0  0  0  0  0  0
   -1.3637    1.7609    1.1542 C   0  0  0  0  0  0  0  0  0  0  0  0
   -2.4223    2.5813    1.3968 C   0  0  0  0  0  0  0  0  0  0  0  0
   -3.5789    2.5186    0.5932 C   0  0  0  0  0  0  0  0  0  0  0  0
   -3.6532    1.6217   -0.4266 C   0  0  0  0  0  0  0  0  0  0  0  0
   -2.5731    0.7482   -0.7123 C   0  0  0  0  0  0  0  0  0  0  0  0
   -2.6449   -0.1876   -1.7387 C   0  0  0  0  0  0  0  0  0  0  0  0
   -1.5846   -1.0417   -2.0222 C   0  0  0  0  0  0  0  0  0  0  0  0
   -1.6599   -1.9983   -3.0665 C   0  0  0  0  0  0  0  0  0  0  0  0
   -0.6085   -2.8141   -3.3474 C   0  0  0  0  0  0  0  0  0  0  0  0
    0.5866   -2.7075   -2.6073 C   0  0  0  0  0  0  0  0  0  0  0  0
    0.6980   -1.8033   -1.5961 C   0  0  0  0  0  0  0  0  0  0  0  0
   -0.3845   -0.9530   -1.2510 C   0  0  0  0  0  0  0  0  0  0  0  0
    2.2848   -2.6258    3.2168 H   0  0  0  0  0  0  0  0  0  0  0  0
    3.6921   -1.6781    3.6170 H   0  0  0  0  0  0  0  0  0  0  0  0
    4.5926    2.2553    1.8376 H   0  0  0  0  0  0  0  0  0  0  0  0
    3.5858    3.0368    0.6482 H   0  0  0  0  0  0  0  0  0  0  0  0
   -0.4902    1.8122    1.7882 H   0  0  0  0  0  0  0  0  0  0  0  0
   -2.3853    3.2876    2.2131 H   0  0  0  0  0  0  0  0  0  0  0  0
   -4.4038    3.1833    0.8029 H   0  0  0  0  0  0  0  0  0  0  0  0
   -4.5393    1.5541   -1.0413 H   0  0  0  0  0  0  0  0  0  0  0  0
   -3.5472   -0.2526   -2.3308 H   0  0  0  0  0  0  0  0  0  0  0  0
   -2.5766   -2.0604   -3.6353 H   0  0  0  0  0  0  0  0  0  0  0  0
   -0.6741   -3.5428   -4.1418 H   0  0  0  0  0  0  0  0  0  0  0  0
    1.4184   -3.3510   -2.8538 H   0  0  0  0  0  0  0  0  0  0  0  0
    1.6258   -1.7249   -1.0479 H   0  0  0  0  0  0  0  0  0  0  0  0
  1  2  3  0  0  0  0
  2  3  1  0  0  0  0
  3  4  2  0  0  0  0
  4  5  1  0  0  0  0
  4  6  1  0  0  0  0
  6  7  2  0  0  0  0
  7  8  1  0  0  0  0
  7  9  1  0  0  0  0
  9 10  1  0  0  0  0
 10 11  3  0  0  0  0
  9 12  2  0  0  0  0
 12 13  1  0  0  0  0
 13 14  1  0  0  0  0
 14 15  2  0  0  0  0
 15 16  1  0  0  0  0
 16 17  2  0  0  0  0
 17 18  1  0  0  0  0
 18 19  2  0  0  0  0
 19 20  1  0  0  0  0
 20 21  2  0  0  0  0
 21 22  1  0  0  0  0
 22 23  2  0  0  0  0
 23 24  1  0  0  0  0
 24 25  2  0  0  0  0
 25 26  1  0  0  0  0
 12  3  1  0  0  0  0
 26 13  2  0  0  0  0
 19 14  1  0  0  0  0
 26 21  1  0  0  0  0
  5 27  1  0  0  0  0
  5 28  1  0  0  0  0
  8 29  1  0  0  0  0
  8 30  1  0  0  0  0
 15 31  1  0  0  0  0
 16 32  1  0  0  0  0
 17 33  1  0  0  0  0
 18 34  1  0  0  0  0
 20 35  1  0  0  0  0
 22 36  1  0  0  0  0
 23 37  1  0  0  0  0
 24 38  1  0  0  0  0
 25 39  1  0  0  0  0
M  END
