
  xtb     03022212203D
 energy: -60.256944677279 gnorm: 0.000093465825 xtb: 6.4.1 (afa7bdf)
 38 40  0     0  0            999 V2000
   -4.9180    1.1707   -0.5062 C   0  0  0  0  0  0  0  0  0  0  0  0
   -3.8425    0.3582    0.2037 C   0  0  0  0  0  0  0  0  0  0  0  0
   -3.6383   -1.0002   -0.4630 C   0  0  0  0  0  0  0  0  0  0  0  0
   -2.6538   -1.8883    0.2975 C   0  0  0  0  0  0  0  0  0  0  0  0
   -1.3287   -1.2843    0.3839 N   0  0  0  0  0  0  0  0  0  0  0  0
   -0.9732   -0.6875    1.5813 C   0  0  0  0  0  0  0  0  0  0  0  0
   -1.7259   -0.6944    2.5354 O   0  0  0  0  0  0  0  0  0  0  0  0
    0.3580   -0.0579    1.6316 C   0  0  0  0  0  0  0  0  0  0  0  0
    0.7702    0.5753    2.7866 C   0  0  0  0  0  0  0  0  0  0  0  0
    2.0293    1.1735    2.8517 C   0  0  0  0  0  0  0  0  0  0  0  0
    2.8730    1.1377    1.7696 C   0  0  0  0  0  0  0  0  0  0  0  0
    2.4843    0.5005    0.5768 C   0  0  0  0  0  0  0  0  0  0  0  0
    3.3364    0.4397   -0.5683 C   0  0  0  0  0  0  0  0  0  0  0  0
    4.5394    1.0374   -0.4281 O   0  0  0  0  0  0  0  0  0  0  0  0
    5.4411    1.0225   -1.5110 C   0  0  0  0  0  0  0  0  0  0  0  0
    2.9015   -0.2024   -1.7114 C   0  0  0  0  0  0  0  0  0  0  0  0
    1.6389   -0.7898   -1.7597 C   0  0  0  0  0  0  0  0  0  0  0  0
    0.7898   -0.7499   -0.6735 C   0  0  0  0  0  0  0  0  0  0  0  0
    1.2068   -0.1040    0.5080 C   0  0  0  0  0  0  0  0  0  0  0  0
   -0.5360   -1.3730   -0.7512 C   0  0  0  0  0  0  0  0  0  0  0  0
   -0.9398   -1.9464   -1.7440 O   0  0  0  0  0  0  0  0  0  0  0  0
   -5.8718    0.6484   -0.4767 H   0  0  0  0  0  0  0  0  0  0  0  0
   -5.0427    2.1400   -0.0293 H   0  0  0  0  0  0  0  0  0  0  0  0
   -4.6489    1.3318   -1.5481 H   0  0  0  0  0  0  0  0  0  0  0  0
   -4.1226    0.2094    1.2484 H   0  0  0  0  0  0  0  0  0  0  0  0
   -2.9034    0.9173    0.1924 H   0  0  0  0  0  0  0  0  0  0  0  0
   -4.5927   -1.5281   -0.5126 H   0  0  0  0  0  0  0  0  0  0  0  0
   -3.2772   -0.8625   -1.4840 H   0  0  0  0  0  0  0  0  0  0  0  0
   -2.5482   -2.8449   -0.2195 H   0  0  0  0  0  0  0  0  0  0  0  0
   -2.9983   -2.0499    1.3202 H   0  0  0  0  0  0  0  0  0  0  0  0
    0.0997    0.5957    3.6326 H   0  0  0  0  0  0  0  0  0  0  0  0
    2.3374    1.6654    3.7619 H   0  0  0  0  0  0  0  0  0  0  0  0
    3.8487    1.5959    1.8126 H   0  0  0  0  0  0  0  0  0  0  0  0
    6.3243    1.5565   -1.1642 H   0  0  0  0  0  0  0  0  0  0  0  0
    5.0265    1.5358   -2.3835 H   0  0  0  0  0  0  0  0  0  0  0  0
    5.7198    0.0008   -1.7854 H   0  0  0  0  0  0  0  0  0  0  0  0
    3.5300   -0.2604   -2.5856 H   0  0  0  0  0  0  0  0  0  0  0  0
    1.3068   -1.2887   -2.6577 H   0  0  0  0  0  0  0  0  0  0  0  0
  1  2  1  0  0  0  0
  2  3  1  0  0  0  0
  3  4  1  0  0  0  0
  4  5  1  0  0  0  0
  5  6  1  0  0  0  0
  6  7  2  0  0  0  0
  6  8  1  0  0  0  0
  8  9  1  0  0  0  0
  9 10  2  0  0  0  0
 10 11  1  0  0  0  0
 11 12  2  0  0  0  0
 12 13  1  0  0  0  0
 13 14  1  0  0  0  0
 14 15  1  0  0  0  0
 13 16  2  0  0  0  0
 16 17  1  0  0  0  0
 17 18  2  0  0  0  0
 18 19  1  0  0  0  0
 18 20  1  0  0  0  0
 20 21  2  0  0  0  0
 20  5  1  0  0  0  0
 19  8  2  0  0  0  0
 19 12  1  0  0  0  0
  1 22  1  0  0  0  0
  1 23  1  0  0  0  0
  1 24  1  0  0  0  0
  2 25  1  0  0  0  0
  2 26  1  0  0  0  0
  3 27  1  0  0  0  0
  3 28  1  0  0  0  0
  4 29  1  0  0  0  0
  4 30  1  0  0  0  0
  9 31  1  0  0  0  0
 10 32  1  0  0  0  0
 11 33  1  0  0  0  0
 15 34  1  0  0  0  0
 15 35  1  0  0  0  0
 15 36  1  0  0  0  0
 16 37  1  0  0  0  0
 17 38  1  0  0  0  0
M  END
