
  xtb     03022213053D
 energy: -74.410501256120 gnorm: 0.000290210407 xtb: 6.4.1 (afa7bdf)
 44 49  0     0  0            999 V2000
   -5.5099    0.3258    1.2246 O   0  0  0  0  0  0  0  0  0  0  0  0
   -4.4237    0.2344    0.6804 C   0  0  0  0  0  0  0  0  0  0  0  0
   -3.7180    1.3794    0.0872 C   0  0  0  0  0  0  0  0  0  0  0  0
   -4.4192    2.5640   -0.1448 C   0  0  0  0  0  0  0  0  0  0  0  0
   -3.8278    3.6161   -0.8059 C   0  0  0  0  0  0  0  0  0  0  0  0
   -2.5290    3.4759   -1.2821 C   0  0  0  0  0  0  0  0  0  0  0  0
   -1.8126    2.3217   -1.0461 C   0  0  0  0  0  0  0  0  0  0  0  0
   -2.3794    1.2720   -0.3181 C   0  0  0  0  0  0  0  0  0  0  0  0
   -1.6675    0.1035   -0.0555 N   0  0  0  0  0  0  0  0  0  0  0  0
   -0.2772    0.0733    0.0278 C   0  0  0  0  0  0  0  0  0  0  0  0
    0.4577    1.1968    0.4168 C   0  0  0  0  0  0  0  0  0  0  0  0
    1.8321    1.1506    0.4755 C   0  0  0  0  0  0  0  0  0  0  0  0
    2.5372   -0.0155    0.1574 C   0  0  0  0  0  0  0  0  0  0  0  0
    4.0056   -0.0403    0.1895 C   0  0  0  0  0  0  0  0  0  0  0  0
    4.7409    1.0466   -0.2788 C   0  0  0  0  0  0  0  0  0  0  0  0
    6.1228    1.0236   -0.2548 C   0  0  0  0  0  0  0  0  0  0  0  0
    6.7920   -0.0821    0.2423 C   0  0  0  0  0  0  0  0  0  0  0  0
    6.0707   -1.1669    0.7126 C   0  0  0  0  0  0  0  0  0  0  0  0
    4.6888   -1.1488    0.6847 C   0  0  0  0  0  0  0  0  0  0  0  0
    1.8048   -1.1476   -0.1579 C   0  0  0  0  0  0  0  0  0  0  0  0
    0.4124   -1.1253   -0.2060 C   0  0  0  0  0  0  0  0  0  0  0  0
   -0.3131   -2.3852   -0.4243 C   0  0  0  0  0  0  0  0  0  0  0  0
    0.2218   -3.4069   -0.8173 O   0  0  0  0  0  0  0  0  0  0  0  0
   -1.7327   -2.3127   -0.0481 C   0  0  0  0  0  0  0  0  0  0  0  0
   -2.4573   -3.4891    0.1251 C   0  0  0  0  0  0  0  0  0  0  0  0
   -3.7891   -3.4588    0.4931 C   0  0  0  0  0  0  0  0  0  0  0  0
   -4.4124   -2.2394    0.6793 C   0  0  0  0  0  0  0  0  0  0  0  0
   -3.7237   -1.0443    0.4883 C   0  0  0  0  0  0  0  0  0  0  0  0
   -2.3658   -1.0696    0.1261 C   0  0  0  0  0  0  0  0  0  0  0  0
   -5.4420    2.6119    0.1975 H   0  0  0  0  0  0  0  0  0  0  0  0
   -4.3736    4.5302   -0.9800 H   0  0  0  0  0  0  0  0  0  0  0  0
   -2.0744    4.2723   -1.8520 H   0  0  0  0  0  0  0  0  0  0  0  0
   -0.8196    2.2154   -1.4551 H   0  0  0  0  0  0  0  0  0  0  0  0
   -0.0574    2.0992    0.7088 H   0  0  0  0  0  0  0  0  0  0  0  0
    2.3737    2.0256    0.8027 H   0  0  0  0  0  0  0  0  0  0  0  0
    4.2253    1.9047   -0.6854 H   0  0  0  0  0  0  0  0  0  0  0  0
    6.6802    1.8706   -0.6274 H   0  0  0  0  0  0  0  0  0  0  0  0
    7.8716   -0.0986    0.2624 H   0  0  0  0  0  0  0  0  0  0  0  0
    6.5878   -2.0306    1.1040 H   0  0  0  0  0  0  0  0  0  0  0  0
    4.1322   -1.9911    1.0680 H   0  0  0  0  0  0  0  0  0  0  0  0
    2.2912   -2.0857   -0.3797 H   0  0  0  0  0  0  0  0  0  0  0  0
   -1.9378   -4.4220   -0.0366 H   0  0  0  0  0  0  0  0  0  0  0  0
   -4.3365   -4.3777    0.6339 H   0  0  0  0  0  0  0  0  0  0  0  0
   -5.4491   -2.1750    0.9747 H   0  0  0  0  0  0  0  0  0  0  0  0
  1  2  2  0  0  0  0
  2  3  1  0  0  0  0
  3  4  2  0  0  0  0
  4  5  1  0  0  0  0
  5  6  2  0  0  0  0
  6  7  1  0  0  0  0
  7  8  2  0  0  0  0
  8  9  1  0  0  0  0
  9 10  1  0  0  0  0
 10 11  2  0  0  0  0
 11 12  1  0  0  0  0
 12 13  2  0  0  0  0
 13 14  1  0  0  0  0
 14 15  2  0  0  0  0
 15 16  1  0  0  0  0
 16 17  2  0  0  0  0
 17 18  1  0  0  0  0
 18 19  2  0  0  0  0
 13 20  1  0  0  0  0
 20 21  2  0  0  0  0
 21 22  1  0  0  0  0
 22 23  2  0  0  0  0
 22 24  1  0  0  0  0
 24 25  1  0  0  0  0
 25 26  2  0  0  0  0
 26 27  1  0  0  0  0
 27 28  2  0  0  0  0
 28 29  1  0  0  0  0
 28  2  1  0  0  0  0
  8  3  1  0  0  0  0
 29  9  1  0  0  0  0
 21 10  1  0  0  0  0
 29 24  2  0  0  0  0
 19 14  1  0  0  0  0
  4 30  1  0  0  0  0
  5 31  1  0  0  0  0
  6 32  1  0  0  0  0
  7 33  1  0  0  0  0
 11 34  1  0  0  0  0
 12 35  1  0  0  0  0
 15 36  1  0  0  0  0
 16 37  1  0  0  0  0
 17 38  1  0  0  0  0
 18 39  1  0  0  0  0
 19 40  1  0  0  0  0
 20 41  1  0  0  0  0
 25 42  1  0  0  0  0
 26 43  1  0  0  0  0
 27 44  1  0  0  0  0
M  END
