
  xtb     03022213263D
 energy: -70.935676512217 gnorm: 0.000235521044 xtb: 6.4.1 (afa7bdf)
 43 47  0     0  0            999 V2000
   -3.2911    0.4894    1.9156 O   0  0  0  0  0  0  0  0  0  0  0  0
   -2.6116    1.2371    1.2426 C   0  0  0  0  0  0  0  0  0  0  0  0
   -3.1200    2.6005    0.8073 C   0  0  0  0  0  0  0  0  0  0  0  0
   -1.9946    3.6214    0.7176 C   0  0  0  0  0  0  0  0  0  0  0  0
   -0.9393    3.1318   -0.2682 C   0  0  0  0  0  0  0  0  0  0  0  0
   -0.5005    1.7443    0.0889 C   0  0  0  0  0  0  0  0  0  0  0  0
   -1.2746    0.8801    0.7763 C   0  0  0  0  0  0  0  0  0  0  0  0
   -0.8200   -0.5364    1.0526 C   0  0  0  0  0  0  0  0  0  0  0  0
   -1.5481   -1.4953    0.1301 C   0  0  0  0  0  0  0  0  0  0  0  0
   -2.3215   -2.5247    0.6442 C   0  0  0  0  0  0  0  0  0  0  0  0
   -2.9839   -3.3914   -0.2067 C   0  0  0  0  0  0  0  0  0  0  0  0
   -2.8785   -3.2384   -1.5785 C   0  0  0  0  0  0  0  0  0  0  0  0
   -2.1057   -2.2140   -2.0978 C   0  0  0  0  0  0  0  0  0  0  0  0
   -1.4437   -1.3474   -1.2471 C   0  0  0  0  0  0  0  0  0  0  0  0
    0.6656   -0.6729    0.8384 C   0  0  0  0  0  0  0  0  0  0  0  0
    1.3770    0.2433    0.1243 C   0  0  0  0  0  0  0  0  0  0  0  0
    2.7817    0.0201   -0.1396 C   0  0  0  0  0  0  0  0  0  0  0  0
    3.6040    0.8711   -0.8871 C   0  0  0  0  0  0  0  0  0  0  0  0
    4.9319    0.5709   -1.0917 C   0  0  0  0  0  0  0  0  0  0  0  0
    5.4780   -0.5904   -0.5554 C   0  0  0  0  0  0  0  0  0  0  0  0
    4.6918   -1.4480    0.1812 C   0  0  0  0  0  0  0  0  0  0  0  0
    3.3454   -1.1511    0.3931 C   0  0  0  0  0  0  0  0  0  0  0  0
    2.6335   -2.0267    1.1274 O   0  0  0  0  0  0  0  0  0  0  0  0
    1.2931   -1.8545    1.3896 C   0  0  0  0  0  0  0  0  0  0  0  0
    0.7437   -2.6895    2.0637 O   0  0  0  0  0  0  0  0  0  0  0  0
    0.7626    1.3884   -0.3280 N   0  0  0  0  0  0  0  0  0  0  0  0
   -3.5860    2.4722   -0.1745 H   0  0  0  0  0  0  0  0  0  0  0  0
   -3.8950    2.9215    1.5041 H   0  0  0  0  0  0  0  0  0  0  0  0
   -1.5403    3.7476    1.7029 H   0  0  0  0  0  0  0  0  0  0  0  0
   -2.3850    4.5894    0.3983 H   0  0  0  0  0  0  0  0  0  0  0  0
   -1.3618    3.1194   -1.2792 H   0  0  0  0  0  0  0  0  0  0  0  0
   -0.0802    3.8084   -0.2753 H   0  0  0  0  0  0  0  0  0  0  0  0
   -1.0693   -0.8093    2.0834 H   0  0  0  0  0  0  0  0  0  0  0  0
   -2.4021   -2.6447    1.7129 H   0  0  0  0  0  0  0  0  0  0  0  0
   -3.5850   -4.1900    0.2024 H   0  0  0  0  0  0  0  0  0  0  0  0
   -3.3960   -3.9153   -2.2429 H   0  0  0  0  0  0  0  0  0  0  0  0
   -2.0179   -2.0898   -3.1680 H   0  0  0  0  0  0  0  0  0  0  0  0
   -0.8412   -0.5491   -1.6594 H   0  0  0  0  0  0  0  0  0  0  0  0
    3.2041    1.7761   -1.3209 H   0  0  0  0  0  0  0  0  0  0  0  0
    5.5501    1.2394   -1.6709 H   0  0  0  0  0  0  0  0  0  0  0  0
    6.5195   -0.8207   -0.7175 H   0  0  0  0  0  0  0  0  0  0  0  0
    5.0878   -2.3556    0.6071 H   0  0  0  0  0  0  0  0  0  0  0  0
    1.3226    2.0837   -0.7957 H   0  0  0  0  0  0  0  0  0  0  0  0
  1  2  2  0  0  0  0
  2  3  1  0  0  0  0
  3  4  1  0  0  0  0
  4  5  1  0  0  0  0
  5  6  1  0  0  0  0
  6  7  2  0  0  0  0
  7  8  1  0  0  0  0
  8  9  1  0  0  0  0
  9 10  2  0  0  0  0
 10 11  1  0  0  0  0
 11 12  2  0  0  0  0
 12 13  1  0  0  0  0
 13 14  2  0  0  0  0
  8 15  1  0  0  0  0
 15 16  2  0  0  0  0
 16 17  1  0  0  0  0
 17 18  2  0  0  0  0
 18 19  1  0  0  0  0
 19 20  2  0  0  0  0
 20 21  1  0  0  0  0
 21 22  2  0  0  0  0
 22 23  1  0  0  0  0
 23 24  1  0  0  0  0
 24 25  2  0  0  0  0
 16 26  1  0  0  0  0
  7  2  1  0  0  0  0
 14  9  1  0  0  0  0
 24 15  1  0  0  0  0
 26  6  1  0  0  0  0
 22 17  1  0  0  0  0
  3 27  1  0  0  0  0
  3 28  1  0  0  0  0
  4 29  1  0  0  0  0
  4 30  1  0  0  0  0
  5 31  1  0  0  0  0
  5 32  1  0  0  0  0
  8 33  1  0  0  0  0
 10 34  1  0  0  0  0
 11 35  1  0  0  0  0
 12 36  1  0  0  0  0
 13 37  1  0  0  0  0
 14 38  1  0  0  0  0
 18 39  1  0  0  0  0
 19 40  1  0  0  0  0
 20 41  1  0  0  0  0
 21 42  1  0  0  0  0
 26 43  1  0  0  0  0
M  END
