
  xtb     03022215463D
 energy: -61.183074078839 gnorm: 0.000324663662 xtb: 6.4.1 (afa7bdf)
 36 38  0     0  0            999 V2000
   -2.7102   -3.9146   -5.5925 C   0  0  0  0  0  0  0  0  0  0  0  0
   -2.2710   -4.0491   -4.2625 O   0  0  0  0  0  0  0  0  0  0  0  0
   -1.8529   -2.9419   -3.5960 C   0  0  0  0  0  0  0  0  0  0  0  0
   -1.8175   -1.6556   -4.1267 C   0  0  0  0  0  0  0  0  0  0  0  0
   -1.3730   -0.5988   -3.3543 C   0  0  0  0  0  0  0  0  0  0  0  0
   -0.9546   -0.7952   -2.0417 C   0  0  0  0  0  0  0  0  0  0  0  0
   -0.4819    0.2957   -1.2038 C   0  0  0  0  0  0  0  0  0  0  0  0
   -0.4178    1.6297   -1.5325 C   0  0  0  0  0  0  0  0  0  0  0  0
    0.2038    2.5662   -0.2440 S   0  0  0  0  0  0  0  0  0  0  0  0
    0.3475    1.0715    0.6918 C   0  0  0  0  0  0  0  0  0  0  0  0
    0.8593    1.0471    2.0414 C   0  0  0  0  0  0  0  0  0  0  0  0
    0.8708   -0.2592    2.5909 C   0  0  0  0  0  0  0  0  0  0  0  0
    0.8560   -1.3343    2.9881 N   0  0  0  0  0  0  0  0  0  0  0  0
    1.2730    2.1720    2.6744 C   0  0  0  0  0  0  0  0  0  0  0  0
    1.8103    2.3393    4.0033 C   0  0  0  0  0  0  0  0  0  0  0  0
    2.1655    3.6324    4.4139 C   0  0  0  0  0  0  0  0  0  0  0  0
    2.6843    3.8199    5.6813 C   0  0  0  0  0  0  0  0  0  0  0  0
    2.8692    2.8356    6.5456 N   0  0  0  0  0  0  0  0  0  0  0  0
    2.5368    1.6129    6.1673 C   0  0  0  0  0  0  0  0  0  0  0  0
    2.0092    1.3049    4.9246 C   0  0  0  0  0  0  0  0  0  0  0  0
   -0.0448    0.0283    0.0506 N   0  0  0  0  0  0  0  0  0  0  0  0
   -0.9904   -2.0902   -1.5156 C   0  0  0  0  0  0  0  0  0  0  0  0
   -1.4320   -3.1444   -2.2785 C   0  0  0  0  0  0  0  0  0  0  0  0
   -2.9948   -4.9161   -5.9111 H   0  0  0  0  0  0  0  0  0  0  0  0
   -1.9131   -3.5416   -6.2436 H   0  0  0  0  0  0  0  0  0  0  0  0
   -3.5791   -3.2525   -5.6643 H   0  0  0  0  0  0  0  0  0  0  0  0
   -2.1327   -1.4640   -5.1404 H   0  0  0  0  0  0  0  0  0  0  0  0
   -1.3533    0.3886   -3.7900 H   0  0  0  0  0  0  0  0  0  0  0  0
   -0.6988    2.1136   -2.4451 H   0  0  0  0  0  0  0  0  0  0  0  0
    1.1942    3.0923    2.1049 H   0  0  0  0  0  0  0  0  0  0  0  0
    2.0351    4.4715    3.7467 H   0  0  0  0  0  0  0  0  0  0  0  0
    2.9681    4.8053    6.0270 H   0  0  0  0  0  0  0  0  0  0  0  0
    2.7031    0.8364    6.9021 H   0  0  0  0  0  0  0  0  0  0  0  0
    1.7603    0.2863    4.6813 H   0  0  0  0  0  0  0  0  0  0  0  0
   -0.6647   -2.2460   -0.4992 H   0  0  0  0  0  0  0  0  0  0  0  0
   -1.4635   -4.1460   -1.8803 H   0  0  0  0  0  0  0  0  0  0  0  0
  1  2  1  0  0  0  0
  2  3  1  0  0  0  0
  3  4  2  0  0  0  0
  4  5  1  0  0  0  0
  5  6  2  0  0  0  0
  6  7  1  0  0  0  0
  7  8  2  0  0  0  0
  8  9  1  0  0  0  0
  9 10  1  0  0  0  0
 10 11  1  0  0  0  0
 11 12  1  0  0  0  0
 12 13  3  0  0  0  0
 11 14  2  0  0  0  0
 14 15  1  0  0  0  0
 15 16  2  0  0  0  0
 16 17  1  0  0  0  0
 17 18  2  0  0  0  0
 18 19  1  0  0  0  0
 19 20  2  0  0  0  0
 10 21  2  0  0  0  0
  6 22  1  0  0  0  0
 22 23  2  0  0  0  0
 23  3  1  0  0  0  0
 21  7  1  0  0  0  0
 20 15  1  0  0  0  0
  1 24  1  0  0  0  0
  1 25  1  0  0  0  0
  1 26  1  0  0  0  0
  4 27  1  0  0  0  0
  5 28  1  0  0  0  0
  8 29  1  0  0  0  0
 14 30  1  0  0  0  0
 16 31  1  0  0  0  0
 17 32  1  0  0  0  0
 19 33  1  0  0  0  0
 20 34  1  0  0  0  0
 22 35  1  0  0  0  0
 23 36  1  0  0  0  0
M  END
