
  xtb     03022212013D
 energy: -22.220810297225 gnorm: 0.000127406513 xtb: 6.4.1 (afa7bdf)
 18 18  0     0  0            999 V2000
   -1.4094    1.5593    0.1120 C   0  0  0  0  0  0  0  0  0  0  0  0
   -0.1757    0.7120    0.0375 C   0  0  0  0  0  0  0  0  0  0  0  0
    1.0794    1.3039    0.0259 C   0  0  0  0  0  0  0  0  0  0  0  0
    2.2312    0.5403   -0.0438 C   0  0  0  0  0  0  0  0  0  0  0  0
    2.1353   -0.8377   -0.1034 C   0  0  0  0  0  0  0  0  0  0  0  0
    0.8887   -1.4379   -0.0921 C   0  0  0  0  0  0  0  0  0  0  0  0
   -0.2726   -0.6815   -0.0221 C   0  0  0  0  0  0  0  0  0  0  0  0
   -1.6119   -1.3535   -0.0102 C   0  0  0  0  0  0  0  0  0  0  0  0
   -1.9943    1.3102    0.9971 H   0  0  0  0  0  0  0  0  0  0  0  0
   -2.0426    1.3933   -0.7594 H   0  0  0  0  0  0  0  0  0  0  0  0
   -1.1503    2.6142    0.1547 H   0  0  0  0  0  0  0  0  0  0  0  0
    1.1557    2.3814    0.0721 H   0  0  0  0  0  0  0  0  0  0  0  0
    3.1986    1.0208   -0.0516 H   0  0  0  0  0  0  0  0  0  0  0  0
    3.0271   -1.4448   -0.1584 H   0  0  0  0  0  0  0  0  0  0  0  0
    0.8151   -2.5156   -0.1383 H   0  0  0  0  0  0  0  0  0  0  0  0
   -2.1589   -1.1042    0.8989 H   0  0  0  0  0  0  0  0  0  0  0  0
   -1.5014   -2.4338   -0.0613 H   0  0  0  0  0  0  0  0  0  0  0  0
   -2.2138   -1.0264   -0.8577 H   0  0  0  0  0  0  0  0  0  0  0  0
  1  2  1  0  0  0  0
  2  3  2  0  0  0  0
  3  4  1  0  0  0  0
  4  5  2  0  0  0  0
  5  6  1  0  0  0  0
  6  7  2  0  0  0  0
  7  8  1  0  0  0  0
  7  2  1  0  0  0  0
  1  9  1  0  0  0  0
  1 10  1  0  0  0  0
  1 11  1  0  0  0  0
  3 12  1  0  0  0  0
  4 13  1  0  0  0  0
  5 14  1  0  0  0  0
  6 15  1  0  0  0  0
  8 16  1  0  0  0  0
  8 17  1  0  0  0  0
  8 18  1  0  0  0  0
M  END
