
  xtb     03022215413D
 energy: -51.302402631750 gnorm: 0.000142716343 xtb: 6.4.1 (afa7bdf)
 26 28  0     0  0            999 V2000
   -5.3246   -0.6884   -2.5473 N   0  0  0  0  0  0  0  0  0  0  0  0
   -4.2494   -0.3970   -2.2729 C   0  0  0  0  0  0  0  0  0  0  0  0
   -2.9390   -0.0982   -1.8839 C   0  0  0  0  0  0  0  0  0  0  0  0
   -2.2554    1.0265   -2.2162 N   0  0  0  0  0  0  0  0  0  0  0  0
   -1.1117    1.0077   -1.6924 N   0  0  0  0  0  0  0  0  0  0  0  0
   -0.9594   -0.1430   -0.9819 N   0  0  0  0  0  0  0  0  0  0  0  0
    0.2313   -0.4829   -0.3252 C   0  0  0  0  0  0  0  0  0  0  0  0
    0.7080   -1.7732   -0.3932 C   0  0  0  0  0  0  0  0  0  0  0  0
    1.8914   -2.0881    0.2940 C   0  0  0  0  0  0  0  0  0  0  0  0
    2.5733   -1.2312    0.9964 N   0  0  0  0  0  0  0  0  0  0  0  0
    2.1404    0.0420    1.0648 C   0  0  0  0  0  0  0  0  0  0  0  0
    2.9019    0.9560    1.8200 C   0  0  0  0  0  0  0  0  0  0  0  0
    2.4983    2.2597    1.9167 C   0  0  0  0  0  0  0  0  0  0  0  0
    3.4238    3.3860    2.8370 Cl  0  0  0  0  0  0  0  0  0  0  0  0
    1.3312    2.7102    1.2756 C   0  0  0  0  0  0  0  0  0  0  0  0
    0.5759    1.8425    0.5385 C   0  0  0  0  0  0  0  0  0  0  0  0
    0.9553    0.4910    0.4104 C   0  0  0  0  0  0  0  0  0  0  0  0
   -2.1019   -0.8785   -1.0776 C   0  0  0  0  0  0  0  0  0  0  0  0
   -2.3039   -2.1015   -0.5226 N   0  0  0  0  0  0  0  0  0  0  0  0
    0.2066   -2.5250   -0.9822 H   0  0  0  0  0  0  0  0  0  0  0  0
    2.2858   -3.0947    0.2558 H   0  0  0  0  0  0  0  0  0  0  0  0
    3.7953    0.5965    2.3034 H   0  0  0  0  0  0  0  0  0  0  0  0
    1.0424    3.7448    1.3707 H   0  0  0  0  0  0  0  0  0  0  0  0
   -0.3070    2.1941    0.0276 H   0  0  0  0  0  0  0  0  0  0  0  0
   -3.2635   -2.4089   -0.4954 H   0  0  0  0  0  0  0  0  0  0  0  0
   -1.7451   -2.3468    0.2803 H   0  0  0  0  0  0  0  0  0  0  0  0
  1  2  3  0  0  0  0
  2  3  1  0  0  0  0
  3  4  1  0  0  0  0
  4  5  2  0  0  0  0
  5  6  1  0  0  0  0
  6  7  1  0  0  0  0
  7  8  2  0  0  0  0
  8  9  1  0  0  0  0
  9 10  2  0  0  0  0
 10 11  1  0  0  0  0
 11 12  2  0  0  0  0
 12 13  1  0  0  0  0
 13 14  1  0  0  0  0
 13 15  2  0  0  0  0
 15 16  1  0  0  0  0
 16 17  2  0  0  0  0
  6 18  1  0  0  0  0
 18 19  1  0  0  0  0
 18  3  2  0  0  0  0
 17  7  1  0  0  0  0
 17 11  1  0  0  0  0
  8 20  1  0  0  0  0
  9 21  1  0  0  0  0
 12 22  1  0  0  0  0
 15 23  1  0  0  0  0
 16 24  1  0  0  0  0
 19 25  1  0  0  0  0
 19 26  1  0  0  0  0
M  END
