
  xtb     03022213483D
 energy: -125.509044404441 gnorm: 0.000101420044 xtb: 6.4.1 (afa7bdf)
 76 83  0     0  0            999 V2000
   -5.2864    3.5926    0.5077 C   0  0  0  0  0  0  0  0  0  0  0  0
   -3.9193    3.8381   -0.1368 C   0  0  0  0  0  0  0  0  0  0  0  0
   -3.1272    4.7842    0.7765 C   0  0  0  0  0  0  0  0  0  0  0  0
   -4.1487    4.5029   -1.5015 C   0  0  0  0  0  0  0  0  0  0  0  0
   -3.1280    2.5535   -0.3358 C   0  0  0  0  0  0  0  0  0  0  0  0
   -1.8493    2.6274   -0.9038 C   0  0  0  0  0  0  0  0  0  0  0  0
   -1.0597    1.5164   -1.1228 C   0  0  0  0  0  0  0  0  0  0  0  0
   -1.5618    0.2784   -0.7547 C   0  0  0  0  0  0  0  0  0  0  0  0
   -2.8546    0.1735   -0.2018 C   0  0  0  0  0  0  0  0  0  0  0  0
   -3.6270    1.3079    0.0083 C   0  0  0  0  0  0  0  0  0  0  0  0
   -3.0925   -1.2271    0.0187 C   0  0  0  0  0  0  0  0  0  0  0  0
   -4.1560   -1.9362    0.5536 C   0  0  0  0  0  0  0  0  0  0  0  0
   -4.0847   -3.3185    0.6656 C   0  0  0  0  0  0  0  0  0  0  0  0
   -5.2682   -4.0746    1.2530 C   0  0  0  0  0  0  0  0  0  0  0  0
   -5.0428   -5.5881    1.3055 C   0  0  0  0  0  0  0  0  0  0  0  0
   -5.5162   -3.5809    2.6855 C   0  0  0  0  0  0  0  0  0  0  0  0
   -6.5098   -3.8092    0.3897 C   0  0  0  0  0  0  0  0  0  0  0  0
   -2.9182   -3.9621    0.2437 C   0  0  0  0  0  0  0  0  0  0  0  0
   -1.8420   -3.2796   -0.2941 C   0  0  0  0  0  0  0  0  0  0  0  0
   -1.9363   -1.9048   -0.4234 C   0  0  0  0  0  0  0  0  0  0  0  0
   -1.0137   -0.9846   -0.8887 N   0  0  0  0  0  0  0  0  0  0  0  0
    0.2475   -1.2838   -1.4101 C   0  0  0  0  0  0  0  0  0  0  0  0
    0.3660   -2.2722   -2.3967 C   0  0  0  0  0  0  0  0  0  0  0  0
    1.5909   -2.6146   -2.9361 C   0  0  0  0  0  0  0  0  0  0  0  0
    2.7029   -1.9353   -2.4736 C   0  0  0  0  0  0  0  0  0  0  0  0
    3.9967   -2.1238   -2.8727 O   0  0  0  0  0  0  0  0  0  0  0  0
    4.7427   -1.2651   -2.1619 C   0  0  0  0  0  0  0  0  0  0  0  0
    6.0526   -1.1954   -2.3012 N   0  0  0  0  0  0  0  0  0  0  0  0
    6.6156   -0.2998   -1.5148 C   0  0  0  0  0  0  0  0  0  0  0  0
    7.9467   -0.0889   -1.5114 O   0  0  0  0  0  0  0  0  0  0  0  0
    8.1803    0.8827   -0.5909 C   0  0  0  0  0  0  0  0  0  0  0  0
    9.4138    1.4079   -0.2556 C   0  0  0  0  0  0  0  0  0  0  0  0
    9.4247    2.3970    0.7175 C   0  0  0  0  0  0  0  0  0  0  0  0
   10.7250    3.0102    1.1541 C   0  0  0  0  0  0  0  0  0  0  0  0
   11.7683    2.6406    0.4021 F   0  0  0  0  0  0  0  0  0  0  0  0
   11.0368    2.6809    2.4231 F   0  0  0  0  0  0  0  0  0  0  0  0
   10.6894    4.3547    1.1231 F   0  0  0  0  0  0  0  0  0  0  0  0
    8.2550    2.8451    1.3361 C   0  0  0  0  0  0  0  0  0  0  0  0
    7.0286    2.3137    0.9935 C   0  0  0  0  0  0  0  0  0  0  0  0
    6.9865    1.3224    0.0213 C   0  0  0  0  0  0  0  0  0  0  0  0
    5.9451    0.5427   -0.5868 C   0  0  0  0  0  0  0  0  0  0  0  0
    4.5659    0.4538   -0.4586 C   0  0  0  0  0  0  0  0  0  0  0  0
    3.9508   -0.4812   -1.2738 C   0  0  0  0  0  0  0  0  0  0  0  0
    2.6028   -0.9322   -1.4895 C   0  0  0  0  0  0  0  0  0  0  0  0
    1.3692   -0.6047   -0.9480 C   0  0  0  0  0  0  0  0  0  0  0  0
   -5.9063    2.9561   -0.1194 H   0  0  0  0  0  0  0  0  0  0  0  0
   -5.8027    4.5421    0.6349 H   0  0  0  0  0  0  0  0  0  0  0  0
   -5.1798    3.1344    1.4884 H   0  0  0  0  0  0  0  0  0  0  0  0
   -2.9401    4.3091    1.7375 H   0  0  0  0  0  0  0  0  0  0  0  0
   -3.6909    5.6989    0.9476 H   0  0  0  0  0  0  0  0  0  0  0  0
   -2.1705    5.0529    0.3374 H   0  0  0  0  0  0  0  0  0  0  0  0
   -4.6927    3.8290   -2.1603 H   0  0  0  0  0  0  0  0  0  0  0  0
   -3.2085    4.7610   -1.9808 H   0  0  0  0  0  0  0  0  0  0  0  0
   -4.7312    5.4140   -1.3818 H   0  0  0  0  0  0  0  0  0  0  0  0
   -1.4537    3.5892   -1.1925 H   0  0  0  0  0  0  0  0  0  0  0  0
   -0.0875    1.6160   -1.5823 H   0  0  0  0  0  0  0  0  0  0  0  0
   -4.6100    1.1903    0.4325 H   0  0  0  0  0  0  0  0  0  0  0  0
   -5.0297   -1.3956    0.8836 H   0  0  0  0  0  0  0  0  0  0  0  0
   -5.9241   -6.0702    1.7240 H   0  0  0  0  0  0  0  0  0  0  0  0
   -4.8794   -5.9951    0.3103 H   0  0  0  0  0  0  0  0  0  0  0  0
   -4.1937   -5.8367    1.9379 H   0  0  0  0  0  0  0  0  0  0  0  0
   -4.6311   -3.7438    3.2972 H   0  0  0  0  0  0  0  0  0  0  0  0
   -5.7518   -2.5206    2.7043 H   0  0  0  0  0  0  0  0  0  0  0  0
   -6.3482   -4.1226    3.1306 H   0  0  0  0  0  0  0  0  0  0  0  0
   -6.7578   -2.7518    0.3659 H   0  0  0  0  0  0  0  0  0  0  0  0
   -7.3659   -4.3508    0.7865 H   0  0  0  0  0  0  0  0  0  0  0  0
   -6.3346   -4.1407   -0.6318 H   0  0  0  0  0  0  0  0  0  0  0  0
   -2.8307   -5.0319    0.3362 H   0  0  0  0  0  0  0  0  0  0  0  0
   -0.9507   -3.8128   -0.5900 H   0  0  0  0  0  0  0  0  0  0  0  0
   -0.5288   -2.7625   -2.7472 H   0  0  0  0  0  0  0  0  0  0  0  0
    1.6821   -3.3748   -3.6941 H   0  0  0  0  0  0  0  0  0  0  0  0
   10.3183    1.0643   -0.7296 H   0  0  0  0  0  0  0  0  0  0  0  0
    8.3234    3.6167    2.0873 H   0  0  0  0  0  0  0  0  0  0  0  0
    6.1247    2.6585    1.4694 H   0  0  0  0  0  0  0  0  0  0  0  0
    4.0113    1.0701    0.2317 H   0  0  0  0  0  0  0  0  0  0  0  0
    1.2792    0.1436   -0.1766 H   0  0  0  0  0  0  0  0  0  0  0  0
  1  2  1  0  0  0  0
  2  3  1  0  0  0  0
  2  4  1  0  0  0  0
  2  5  1  0  0  0  0
  5  6  2  0  0  0  0
  6  7  1  0  0  0  0
  7  8  2  0  0  0  0
  8  9  1  0  0  0  0
  9 10  2  0  0  0  0
  9 11  1  0  0  0  0
 11 12  2  0  0  0  0
 12 13  1  0  0  0  0
 13 14  1  0  0  0  0
 14 15  1  0  0  0  0
 14 16  1  0  0  0  0
 14 17  1  0  0  0  0
 13 18  2  0  0  0  0
 18 19  1  0  0  0  0
 19 20  2  0  0  0  0
 20 21  1  0  0  0  0
 21 22  1  0  0  0  0
 22 23  2  0  0  0  0
 23 24  1  0  0  0  0
 24 25  2  0  0  0  0
 25 26  1  0  0  0  0
 26 27  1  0  0  0  0
 27 28  2  0  0  0  0
 28 29  1  0  0  0  0
 29 30  1  0  0  0  0
 30 31  1  0  0  0  0
 31 32  2  0  0  0  0
 32 33  1  0  0  0  0
 33 34  1  0  0  0  0
 34 35  1  0  0  0  0
 34 36  1  0  0  0  0
 34 37  1  0  0  0  0
 33 38  2  0  0  0  0
 38 39  1  0  0  0  0
 39 40  2  0  0  0  0
 40 41  1  0  0  0  0
 41 42  1  0  0  0  0
 42 43  2  0  0  0  0
 43 44  1  0  0  0  0
 44 45  2  0  0  0  0
 10  5  1  0  0  0  0
 20 11  1  0  0  0  0
 45 22  1  0  0  0  0
 21  8  1  0  0  0  0
 44 25  1  0  0  0  0
 43 27  1  0  0  0  0
 41 29  2  0  0  0  0
 40 31  1  0  0  0  0
  1 46  1  0  0  0  0
  1 47  1  0  0  0  0
  1 48  1  0  0  0  0
  3 49  1  0  0  0  0
  3 50  1  0  0  0  0
  3 51  1  0  0  0  0
  4 52  1  0  0  0  0
  4 53  1  0  0  0  0
  4 54  1  0  0  0  0
  6 55  1  0  0  0  0
  7 56  1  0  0  0  0
 10 57  1  0  0  0  0
 12 58  1  0  0  0  0
 15 59  1  0  0  0  0
 15 60  1  0  0  0  0
 15 61  1  0  0  0  0
 16 62  1  0  0  0  0
 16 63  1  0  0  0  0
 16 64  1  0  0  0  0
 17 65  1  0  0  0  0
 17 66  1  0  0  0  0
 17 67  1  0  0  0  0
 18 68  1  0  0  0  0
 19 69  1  0  0  0  0
 23 70  1  0  0  0  0
 24 71  1  0  0  0  0
 32 72  1  0  0  0  0
 38 73  1  0  0  0  0
 39 74  1  0  0  0  0
 42 75  1  0  0  0  0
 45 76  1  0  0  0  0
M  END
