
  xtb     03022214003D
 energy: -143.986985191997 gnorm: 0.000088333886 xtb: 6.4.1 (afa7bdf)
 91 98  0     0  0            999 V2000
   -6.1391   -1.5432    2.5033 C   0  0  0  0  0  0  0  0  0  0  0  0
   -7.6167   -1.3146    2.2072 C   0  0  0  0  0  0  0  0  0  0  0  0
   -8.0177   -1.9342    0.8706 C   0  0  0  0  0  0  0  0  0  0  0  0
   -9.4871   -1.7278    0.4922 C   0  0  0  0  0  0  0  0  0  0  0  0
   -9.9808   -0.2801    0.4327 C   0  0  0  0  0  0  0  0  0  0  0  0
   -9.3930    0.5679   -0.6968 C   0  0  0  0  0  0  0  0  0  0  0  0
   -7.9778    0.8694   -0.5086 N   0  0  0  0  0  0  0  0  0  0  0  0
   -7.6600    1.7274    0.5285 C   0  0  0  0  0  0  0  0  0  0  0  0
   -8.5327    2.2757    1.1725 O   0  0  0  0  0  0  0  0  0  0  0  0
   -6.2269    1.9260    0.8089 C   0  0  0  0  0  0  0  0  0  0  0  0
   -5.8457    2.6476    1.9196 C   0  0  0  0  0  0  0  0  0  0  0  0
   -4.4920    2.7914    2.2287 C   0  0  0  0  0  0  0  0  0  0  0  0
   -3.5291    2.2688    1.4038 C   0  0  0  0  0  0  0  0  0  0  0  0
   -3.8770    1.5809    0.2250 C   0  0  0  0  0  0  0  0  0  0  0  0
   -2.9187    1.0505   -0.6862 C   0  0  0  0  0  0  0  0  0  0  0  0
   -1.5118    1.3890   -0.5886 C   0  0  0  0  0  0  0  0  0  0  0  0
   -0.2838    0.1988   -0.8914 S   0  0  0  0  0  0  0  0  0  0  0  0
    1.0067    1.3577   -0.7503 C   0  0  0  0  0  0  0  0  0  0  0  0
    2.4160    1.0244   -0.8130 C   0  0  0  0  0  0  0  0  0  0  0  0
    3.2714    1.7059    0.0401 C   0  0  0  0  0  0  0  0  0  0  0  0
    4.6367    1.4530    0.0607 C   0  0  0  0  0  0  0  0  0  0  0  0
    5.1838    0.4958   -0.7698 C   0  0  0  0  0  0  0  0  0  0  0  0
    4.3518   -0.2129   -1.6592 C   0  0  0  0  0  0  0  0  0  0  0  0
    4.9162   -1.1779   -2.5193 C   0  0  0  0  0  0  0  0  0  0  0  0
    4.1248   -1.8552   -3.4225 C   0  0  0  0  0  0  0  0  0  0  0  0
    2.7629   -1.5673   -3.5056 C   0  0  0  0  0  0  0  0  0  0  0  0
    2.1939   -0.6358   -2.6744 C   0  0  0  0  0  0  0  0  0  0  0  0
    2.9558    0.0505   -1.7079 C   0  0  0  0  0  0  0  0  0  0  0  0
    6.3608   -1.4663   -2.4748 C   0  0  0  0  0  0  0  0  0  0  0  0
    6.8836   -2.2941   -3.1937 O   0  0  0  0  0  0  0  0  0  0  0  0
    7.1155   -0.7349   -1.5753 N   0  0  0  0  0  0  0  0  0  0  0  0
    8.5466   -1.0156   -1.5444 C   0  0  0  0  0  0  0  0  0  0  0  0
    8.8704   -2.2864   -0.7596 C   0  0  0  0  0  0  0  0  0  0  0  0
    8.4518   -2.1872    0.7051 C   0  0  0  0  0  0  0  0  0  0  0  0
    8.8084   -3.4335    1.5165 C   0  0  0  0  0  0  0  0  0  0  0  0
   10.3070   -3.7091    1.6543 C   0  0  0  0  0  0  0  0  0  0  0  0
   11.0617   -2.5935    2.3677 C   0  0  0  0  0  0  0  0  0  0  0  0
    6.6328    0.2462   -0.7254 C   0  0  0  0  0  0  0  0  0  0  0  0
    7.3787    0.8686    0.0044 O   0  0  0  0  0  0  0  0  0  0  0  0
    0.4799    2.6037   -0.4804 C   0  0  0  0  0  0  0  0  0  0  0  0
   -0.9359    2.6243   -0.4020 C   0  0  0  0  0  0  0  0  0  0  0  0
   -1.6464    3.7725   -0.2083 O   0  0  0  0  0  0  0  0  0  0  0  0
   -0.8381    4.8447    0.2361 C   0  0  0  0  0  0  0  0  0  0  0  0
    0.4606    4.9099   -0.5657 C   0  0  0  0  0  0  0  0  0  0  0  0
    1.2280    3.7387   -0.3587 O   0  0  0  0  0  0  0  0  0  0  0  0
   -3.3416    0.2283   -1.7162 C   0  0  0  0  0  0  0  0  0  0  0  0
   -4.6920   -0.0183   -1.9376 C   0  0  0  0  0  0  0  0  0  0  0  0
   -5.6497    0.5683   -1.1346 C   0  0  0  0  0  0  0  0  0  0  0  0
   -5.2532    1.3608   -0.0391 C   0  0  0  0  0  0  0  0  0  0  0  0
   -7.0752    0.3205   -1.4060 C   0  0  0  0  0  0  0  0  0  0  0  0
   -7.4506   -0.3353   -2.3575 O   0  0  0  0  0  0  0  0  0  0  0  0
   -5.8650   -1.0956    3.4561 H   0  0  0  0  0  0  0  0  0  0  0  0
   -5.9163   -2.6072    2.5459 H   0  0  0  0  0  0  0  0  0  0  0  0
   -5.5201   -1.0963    1.7264 H   0  0  0  0  0  0  0  0  0  0  0  0
   -8.2221   -1.7521    3.0043 H   0  0  0  0  0  0  0  0  0  0  0  0
   -7.8079   -0.2408    2.1996 H   0  0  0  0  0  0  0  0  0  0  0  0
   -7.3706   -1.5456    0.0840 H   0  0  0  0  0  0  0  0  0  0  0  0
   -7.8360   -3.0116    0.9204 H   0  0  0  0  0  0  0  0  0  0  0  0
  -10.1065   -2.2558    1.2223 H   0  0  0  0  0  0  0  0  0  0  0  0
   -9.6548   -2.1943   -0.4817 H   0  0  0  0  0  0  0  0  0  0  0  0
   -9.8066    0.2214    1.3841 H   0  0  0  0  0  0  0  0  0  0  0  0
  -11.0613   -0.3029    0.2733 H   0  0  0  0  0  0  0  0  0  0  0  0
   -9.9325    1.5181   -0.7412 H   0  0  0  0  0  0  0  0  0  0  0  0
   -9.4811    0.0492   -1.6527 H   0  0  0  0  0  0  0  0  0  0  0  0
   -6.6104    3.0705    2.5535 H   0  0  0  0  0  0  0  0  0  0  0  0
   -4.2068    3.3138    3.1295 H   0  0  0  0  0  0  0  0  0  0  0  0
   -2.4886    2.3593    1.6708 H   0  0  0  0  0  0  0  0  0  0  0  0
    2.8641    2.4424    0.7133 H   0  0  0  0  0  0  0  0  0  0  0  0
    5.2879    1.9905    0.7332 H   0  0  0  0  0  0  0  0  0  0  0  0
    4.5825   -2.5898   -4.0674 H   0  0  0  0  0  0  0  0  0  0  0  0
    2.1544   -2.0781   -4.2362 H   0  0  0  0  0  0  0  0  0  0  0  0
    1.1437   -0.4172   -2.7767 H   0  0  0  0  0  0  0  0  0  0  0  0
    8.8822   -1.1278   -2.5781 H   0  0  0  0  0  0  0  0  0  0  0  0
    9.0299   -0.1518   -1.0848 H   0  0  0  0  0  0  0  0  0  0  0  0
    9.9469   -2.4435   -0.8308 H   0  0  0  0  0  0  0  0  0  0  0  0
    8.3726   -3.1352   -1.2326 H   0  0  0  0  0  0  0  0  0  0  0  0
    8.9089   -1.3049    1.1545 H   0  0  0  0  0  0  0  0  0  0  0  0
    7.3681   -2.0492    0.7581 H   0  0  0  0  0  0  0  0  0  0  0  0
    8.3364   -4.3024    1.0504 H   0  0  0  0  0  0  0  0  0  0  0  0
    8.3829   -3.3248    2.5174 H   0  0  0  0  0  0  0  0  0  0  0  0
   10.7466   -3.8746    0.6694 H   0  0  0  0  0  0  0  0  0  0  0  0
   10.4281   -4.6357    2.2214 H   0  0  0  0  0  0  0  0  0  0  0  0
   12.0966   -2.8851    2.5334 H   0  0  0  0  0  0  0  0  0  0  0  0
   10.6061   -2.3830    3.3330 H   0  0  0  0  0  0  0  0  0  0  0  0
   11.0589   -1.6800    1.7794 H   0  0  0  0  0  0  0  0  0  0  0  0
   -1.4326    5.7485    0.1005 H   0  0  0  0  0  0  0  0  0  0  0  0
   -0.6014    4.7161    1.3015 H   0  0  0  0  0  0  0  0  0  0  0  0
    0.2260    5.0184   -1.6329 H   0  0  0  0  0  0  0  0  0  0  0  0
    1.0839    5.7426   -0.2392 H   0  0  0  0  0  0  0  0  0  0  0  0
   -2.6064   -0.2019   -2.3803 H   0  0  0  0  0  0  0  0  0  0  0  0
   -5.0122   -0.6484   -2.7536 H   0  0  0  0  0  0  0  0  0  0  0  0
  1  2  1  0  0  0  0
  2  3  1  0  0  0  0
  3  4  1  0  0  0  0
  4  5  1  0  0  0  0
  5  6  1  0  0  0  0
  6  7  1  0  0  0  0
  7  8  1  0  0  0  0
  8  9  2  0  0  0  0
  8 10  1  0  0  0  0
 10 11  1  0  0  0  0
 11 12  2  0  0  0  0
 12 13  1  0  0  0  0
 13 14  2  0  0  0  0
 14 15  1  0  0  0  0
 15 16  1  0  0  0  0
 16 17  1  0  0  0  0
 17 18  1  0  0  0  0
 18 19  1  0  0  0  0
 19 20  2  0  0  0  0
 20 21  1  0  0  0  0
 21 22  2  0  0  0  0
 22 23  1  0  0  0  0
 23 24  2  0  0  0  0
 24 25  1  0  0  0  0
 25 26  2  0  0  0  0
 26 27  1  0  0  0  0
 27 28  2  0  0  0  0
 24 29  1  0  0  0  0
 29 30  2  0  0  0  0
 29 31  1  0  0  0  0
 31 32  1  0  0  0  0
 32 33  1  0  0  0  0
 33 34  1  0  0  0  0
 34 35  1  0  0  0  0
 35 36  1  0  0  0  0
 36 37  1  0  0  0  0
 31 38  1  0  0  0  0
 38 39  2  0  0  0  0
 18 40  2  0  0  0  0
 40 41  1  0  0  0  0
 41 42  1  0  0  0  0
 42 43  1  0  0  0  0
 43 44  1  0  0  0  0
 44 45  1  0  0  0  0
 15 46  2  0  0  0  0
 46 47  1  0  0  0  0
 47 48  2  0  0  0  0
 48 49  1  0  0  0  0
 48 50  1  0  0  0  0
 50 51  2  0  0  0  0
 50  7  1  0  0  0  0
 49 10  2  0  0  0  0
 49 14  1  0  0  0  0
 41 16  2  0  0  0  0
 28 19  1  0  0  0  0
 45 40  1  0  0  0  0
 38 22  1  0  0  0  0
 28 23  1  0  0  0  0
  1 52  1  0  0  0  0
  1 53  1  0  0  0  0
  1 54  1  0  0  0  0
  2 55  1  0  0  0  0
  2 56  1  0  0  0  0
  3 57  1  0  0  0  0
  3 58  1  0  0  0  0
  4 59  1  0  0  0  0
  4 60  1  0  0  0  0
  5 61  1  0  0  0  0
  5 62  1  0  0  0  0
  6 63  1  0  0  0  0
  6 64  1  0  0  0  0
 11 65  1  0  0  0  0
 12 66  1  0  0  0  0
 13 67  1  0  0  0  0
 20 68  1  0  0  0  0
 21 69  1  0  0  0  0
 25 70  1  0  0  0  0
 26 71  1  0  0  0  0
 27 72  1  0  0  0  0
 32 73  1  0  0  0  0
 32 74  1  0  0  0  0
 33 75  1  0  0  0  0
 33 76  1  0  0  0  0
 34 77  1  0  0  0  0
 34 78  1  0  0  0  0
 35 79  1  0  0  0  0
 35 80  1  0  0  0  0
 36 81  1  0  0  0  0
 36 82  1  0  0  0  0
 37 83  1  0  0  0  0
 37 84  1  0  0  0  0
 37 85  1  0  0  0  0
 43 86  1  0  0  0  0
 43 87  1  0  0  0  0
 44 88  1  0  0  0  0
 44 89  1  0  0  0  0
 46 90  1  0  0  0  0
 47 91  1  0  0  0  0
M  END
