
  xtb     03022214473D
 energy: -63.239404528058 gnorm: 0.000080636475 xtb: 6.4.1 (afa7bdf)
 44 48  0     0  0            999 V2000
    3.9328   -2.1457    0.6080 C   0  0  0  0  0  0  0  0  0  0  0  0
    3.5178   -1.4027   -0.6621 C   0  0  0  0  0  0  0  0  0  0  0  0
    2.7042   -0.2556   -0.3671 N   0  0  0  0  0  0  0  0  0  0  0  0
    3.1679    1.0060   -0.0909 C   0  0  0  0  0  0  0  0  0  0  0  0
    4.4671    1.4955   -0.0939 C   0  0  0  0  0  0  0  0  0  0  0  0
    4.6587    2.8294    0.2109 C   0  0  0  0  0  0  0  0  0  0  0  0
    3.5886    3.6673    0.5162 C   0  0  0  0  0  0  0  0  0  0  0  0
    2.2940    3.1878    0.5255 C   0  0  0  0  0  0  0  0  0  0  0  0
    2.0753    1.8507    0.2227 C   0  0  0  0  0  0  0  0  0  0  0  0
    0.8959    1.0371    0.1496 C   0  0  0  0  0  0  0  0  0  0  0  0
   -0.4470    1.3183    0.3589 C   0  0  0  0  0  0  0  0  0  0  0  0
   -1.3332    0.2673    0.2076 C   0  0  0  0  0  0  0  0  0  0  0  0
   -0.8955   -1.0379   -0.1504 C   0  0  0  0  0  0  0  0  0  0  0  0
    0.4475   -1.3191   -0.3593 C   0  0  0  0  0  0  0  0  0  0  0  0
    1.3337   -0.2682   -0.2077 C   0  0  0  0  0  0  0  0  0  0  0  0
   -2.0750   -1.8511   -0.2245 C   0  0  0  0  0  0  0  0  0  0  0  0
   -2.2941   -3.1877   -0.5293 C   0  0  0  0  0  0  0  0  0  0  0  0
   -3.5889   -3.6668   -0.5213 C   0  0  0  0  0  0  0  0  0  0  0  0
   -4.6588   -2.8290   -0.2155 C   0  0  0  0  0  0  0  0  0  0  0  0
   -4.4669   -1.4955    0.0912 C   0  0  0  0  0  0  0  0  0  0  0  0
   -3.1675   -1.0065    0.0895 C   0  0  0  0  0  0  0  0  0  0  0  0
   -2.7037    0.2548    0.3670 N   0  0  0  0  0  0  0  0  0  0  0  0
   -3.5168    1.4012    0.6659 C   0  0  0  0  0  0  0  0  0  0  0  0
   -3.9340    2.1474   -0.6015 C   0  0  0  0  0  0  0  0  0  0  0  0
    4.5447   -3.0083    0.3572 H   0  0  0  0  0  0  0  0  0  0  0  0
    3.0522   -2.4843    1.1489 H   0  0  0  0  0  0  0  0  0  0  0  0
    4.5036   -1.4868    1.2583 H   0  0  0  0  0  0  0  0  0  0  0  0
    4.4052   -1.0677   -1.2064 H   0  0  0  0  0  0  0  0  0  0  0  0
    2.9515   -2.0701   -1.3179 H   0  0  0  0  0  0  0  0  0  0  0  0
    5.3097    0.8602   -0.3235 H   0  0  0  0  0  0  0  0  0  0  0  0
    5.6615    3.2314    0.2149 H   0  0  0  0  0  0  0  0  0  0  0  0
    3.7800    4.7042    0.7500 H   0  0  0  0  0  0  0  0  0  0  0  0
    1.4649    3.8372    0.7646 H   0  0  0  0  0  0  0  0  0  0  0  0
   -0.7666    2.3139    0.6245 H   0  0  0  0  0  0  0  0  0  0  0  0
    0.7671   -2.3147   -0.6250 H   0  0  0  0  0  0  0  0  0  0  0  0
   -1.4651   -3.8371   -0.7688 H   0  0  0  0  0  0  0  0  0  0  0  0
   -3.7805   -4.7033   -0.7567 H   0  0  0  0  0  0  0  0  0  0  0  0
   -5.6618   -3.2306   -0.2207 H   0  0  0  0  0  0  0  0  0  0  0  0
   -5.3094   -0.8602    0.3211 H   0  0  0  0  0  0  0  0  0  0  0  0
   -4.4033    1.0648    1.2109 H   0  0  0  0  0  0  0  0  0  0  0  0
   -2.9494    2.0669    1.3225 H   0  0  0  0  0  0  0  0  0  0  0  0
   -4.5451    3.0096   -0.3474 H   0  0  0  0  0  0  0  0  0  0  0  0
   -3.0543    2.4870   -1.1433 H   0  0  0  0  0  0  0  0  0  0  0  0
   -4.5063    1.4904   -1.2523 H   0  0  0  0  0  0  0  0  0  0  0  0
  1  2  1  0  0  0  0
  2  3  1  0  0  0  0
  3  4  1  0  0  0  0
  4  5  2  0  0  0  0
  5  6  1  0  0  0  0
  6  7  2  0  0  0  0
  7  8  1  0  0  0  0
  8  9  2  0  0  0  0
  9 10  1  0  0  0  0
 10 11  2  0  0  0  0
 11 12  1  0  0  0  0
 12 13  2  0  0  0  0
 13 14  1  0  0  0  0
 14 15  2  0  0  0  0
 13 16  1  0  0  0  0
 16 17  2  0  0  0  0
 17 18  1  0  0  0  0
 18 19  2  0  0  0  0
 19 20  1  0  0  0  0
 20 21  2  0  0  0  0
 21 22  1  0  0  0  0
 22 23  1  0  0  0  0
 23 24  1  0  0  0  0
 15  3  1  0  0  0  0
 21 16  1  0  0  0  0
  9  4  1  0  0  0  0
 15 10  1  0  0  0  0
 22 12  1  0  0  0  0
  1 25  1  0  0  0  0
  1 26  1  0  0  0  0
  1 27  1  0  0  0  0
  2 28  1  0  0  0  0
  2 29  1  0  0  0  0
  5 30  1  0  0  0  0
  6 31  1  0  0  0  0
  7 32  1  0  0  0  0
  8 33  1  0  0  0  0
 11 34  1  0  0  0  0
 14 35  1  0  0  0  0
 17 36  1  0  0  0  0
 18 37  1  0  0  0  0
 19 38  1  0  0  0  0
 20 39  1  0  0  0  0
 23 40  1  0  0  0  0
 23 41  1  0  0  0  0
 24 42  1  0  0  0  0
 24 43  1  0  0  0  0
 24 44  1  0  0  0  0
M  END
