
  xtb     03022213263D
 energy: -62.615292432023 gnorm: 0.000269884247 xtb: 6.4.1 (afa7bdf)
 41 43  0     0  0            999 V2000
    6.0530    1.2239    2.8432 C   0  0  0  0  0  0  0  0  0  0  0  0
    5.8744   -0.0564    2.2860 O   0  0  0  0  0  0  0  0  0  0  0  0
    4.7039   -0.3389    1.6585 C   0  0  0  0  0  0  0  0  0  0  0  0
    3.6398    0.5480    1.5158 C   0  0  0  0  0  0  0  0  0  0  0  0
    2.4913    0.1525    0.8559 C   0  0  0  0  0  0  0  0  0  0  0  0
    2.3954   -1.1298    0.3336 C   0  0  0  0  0  0  0  0  0  0  0  0
    1.2385   -1.5227   -0.3285 N   0  0  0  0  0  0  0  0  0  0  0  0
    1.0892   -2.7121   -0.8409 N   0  0  0  0  0  0  0  0  0  0  0  0
   -0.1281   -2.7101   -1.3814 C   0  0  0  0  0  0  0  0  0  0  0  0
   -0.7393   -3.7812   -2.0331 C   0  0  0  0  0  0  0  0  0  0  0  0
   -1.3177   -4.6156   -2.5709 N   0  0  0  0  0  0  0  0  0  0  0  0
   -0.6983   -1.4174   -1.1510 C   0  0  0  0  0  0  0  0  0  0  0  0
   -1.8874   -0.9550   -1.5888 N   0  0  0  0  0  0  0  0  0  0  0  0
   -2.4497    0.2727   -1.0658 C   0  0  0  0  0  0  0  0  0  0  0  0
   -3.4114    0.8804   -2.0823 C   0  0  0  0  0  0  0  0  0  0  0  0
   -3.8195    2.2930   -1.6466 C   0  0  0  0  0  0  0  0  0  0  0  0
   -3.8750    2.4175   -0.1188 C   0  0  0  0  0  0  0  0  0  0  0  0
   -4.2710    1.0858    0.5087 C   0  0  0  0  0  0  0  0  0  0  0  0
   -3.1744    0.0413    0.2738 C   0  0  0  0  0  0  0  0  0  0  0  0
    0.1979   -0.7042   -0.4806 N   0  0  0  0  0  0  0  0  0  0  0  0
    3.4545   -2.0250    0.4706 C   0  0  0  0  0  0  0  0  0  0  0  0
    4.5954   -1.6288    1.1276 C   0  0  0  0  0  0  0  0  0  0  0  0
    5.3135    1.4295    3.6235 H   0  0  0  0  0  0  0  0  0  0  0  0
    6.0034    2.0055    2.0784 H   0  0  0  0  0  0  0  0  0  0  0  0
    7.0482    1.2159    3.2846 H   0  0  0  0  0  0  0  0  0  0  0  0
    3.6929    1.5488    1.9133 H   0  0  0  0  0  0  0  0  0  0  0  0
    1.6611    0.8302    0.7390 H   0  0  0  0  0  0  0  0  0  0  0  0
   -2.5431   -1.6532   -1.9092 H   0  0  0  0  0  0  0  0  0  0  0  0
   -1.6012    0.9467   -0.9187 H   0  0  0  0  0  0  0  0  0  0  0  0
   -4.2909    0.2380   -2.1597 H   0  0  0  0  0  0  0  0  0  0  0  0
   -2.9378    0.9119   -3.0643 H   0  0  0  0  0  0  0  0  0  0  0  0
   -4.7961    2.5264   -2.0735 H   0  0  0  0  0  0  0  0  0  0  0  0
   -3.1082    3.0204   -2.0407 H   0  0  0  0  0  0  0  0  0  0  0  0
   -2.8987    2.7120    0.2697 H   0  0  0  0  0  0  0  0  0  0  0  0
   -4.5882    3.1935    0.1627 H   0  0  0  0  0  0  0  0  0  0  0  0
   -5.2114    0.7523    0.0666 H   0  0  0  0  0  0  0  0  0  0  0  0
   -4.4382    1.2072    1.5799 H   0  0  0  0  0  0  0  0  0  0  0  0
   -2.4415    0.0736    1.0813 H   0  0  0  0  0  0  0  0  0  0  0  0
   -3.6168   -0.9584    0.2720 H   0  0  0  0  0  0  0  0  0  0  0  0
    3.3625   -3.0168    0.0586 H   0  0  0  0  0  0  0  0  0  0  0  0
    5.4292   -2.3014    1.2475 H   0  0  0  0  0  0  0  0  0  0  0  0
  1  2  1  0  0  0  0
  2  3  1  0  0  0  0
  3  4  2  0  0  0  0
  4  5  1  0  0  0  0
  5  6  2  0  0  0  0
  6  7  1  0  0  0  0
  7  8  1  0  0  0  0
  8  9  2  0  0  0  0
  9 10  1  0  0  0  0
 10 11  3  0  0  0  0
  9 12  1  0  0  0  0
 12 13  1  0  0  0  0
 13 14  1  0  0  0  0
 14 15  1  0  0  0  0
 15 16  1  0  0  0  0
 16 17  1  0  0  0  0
 17 18  1  0  0  0  0
 18 19  1  0  0  0  0
 12 20  2  0  0  0  0
  6 21  1  0  0  0  0
 21 22  2  0  0  0  0
 22  3  1  0  0  0  0
 20  7  1  0  0  0  0
 19 14  1  0  0  0  0
  1 23  1  0  0  0  0
  1 24  1  0  0  0  0
  1 25  1  0  0  0  0
  4 26  1  0  0  0  0
  5 27  1  0  0  0  0
 13 28  1  0  0  0  0
 14 29  1  0  0  0  0
 15 30  1  0  0  0  0
 15 31  1  0  0  0  0
 16 32  1  0  0  0  0
 16 33  1  0  0  0  0
 17 34  1  0  0  0  0
 17 35  1  0  0  0  0
 18 36  1  0  0  0  0
 18 37  1  0  0  0  0
 19 38  1  0  0  0  0
 19 39  1  0  0  0  0
 21 40  1  0  0  0  0
 22 41  1  0  0  0  0
M  END
