
  xtb     03022215093D
 energy: -58.320600127466 gnorm: 0.000137885470 xtb: 6.4.1 (afa7bdf)
 32 35  0     0  0            999 V2000
   -5.9585   -1.0413    0.2085 O   0  0  0  0  0  0  0  0  0  0  0  0
   -4.6375   -0.9316    0.3954 C   0  0  0  0  0  0  0  0  0  0  0  0
   -3.8905   -1.8990    1.0416 C   0  0  0  0  0  0  0  0  0  0  0  0
   -2.5225   -1.7489    1.2012 C   0  0  0  0  0  0  0  0  0  0  0  0
   -1.8377   -0.6447    0.6992 C   0  0  0  0  0  0  0  0  0  0  0  0
   -0.4978   -0.6898    0.9333 N   0  0  0  0  0  0  0  0  0  0  0  0
    0.2723    0.1624    0.3918 N   0  0  0  0  0  0  0  0  0  0  0  0
    1.6001    0.0679    0.4798 C   0  0  0  0  0  0  0  0  0  0  0  0
    2.3431   -0.9832    0.4063 N   0  0  0  0  0  0  0  0  0  0  0  0
    3.6577   -0.6790    0.3030 C   0  0  0  0  0  0  0  0  0  0  0  0
    4.7005   -1.6010    0.2127 C   0  0  0  0  0  0  0  0  0  0  0  0
    5.9961   -1.1382    0.1506 C   0  0  0  0  0  0  0  0  0  0  0  0
    6.2760    0.2278    0.1691 C   0  0  0  0  0  0  0  0  0  0  0  0
    5.2615    1.1621    0.2527 C   0  0  0  0  0  0  0  0  0  0  0  0
    3.9562    0.7076    0.3144 C   0  0  0  0  0  0  0  0  0  0  0  0
    2.4881    1.6274    0.4102 S   0  0  0  0  0  0  0  0  0  0  0  0
   -2.5845    0.3905    0.0411 C   0  0  0  0  0  0  0  0  0  0  0  0
   -2.0234    1.5849   -0.4510 C   0  0  0  0  0  0  0  0  0  0  0  0
   -2.8303    2.5124   -1.0602 C   0  0  0  0  0  0  0  0  0  0  0  0
   -4.2025    2.2452   -1.1688 C   0  0  0  0  0  0  0  0  0  0  0  0
   -4.7607    1.1640   -0.7015 N   0  0  0  0  0  0  0  0  0  0  0  0
   -3.9906    0.2412   -0.1039 C   0  0  0  0  0  0  0  0  0  0  0  0
   -6.2892   -1.8695    0.5826 H   0  0  0  0  0  0  0  0  0  0  0  0
   -4.3817   -2.7833    1.4257 H   0  0  0  0  0  0  0  0  0  0  0  0
   -1.9445   -2.5116    1.6992 H   0  0  0  0  0  0  0  0  0  0  0  0
    4.4700   -2.6540    0.2018 H   0  0  0  0  0  0  0  0  0  0  0  0
    6.8117   -1.8430    0.0867 H   0  0  0  0  0  0  0  0  0  0  0  0
    7.3012    0.5620    0.1153 H   0  0  0  0  0  0  0  0  0  0  0  0
    5.4743    2.2197    0.2652 H   0  0  0  0  0  0  0  0  0  0  0  0
   -0.9639    1.7564   -0.3420 H   0  0  0  0  0  0  0  0  0  0  0  0
   -2.4234    3.4349   -1.4443 H   0  0  0  0  0  0  0  0  0  0  0  0
   -4.8697    2.9517   -1.6455 H   0  0  0  0  0  0  0  0  0  0  0  0
  1  2  1  0  0  0  0
  2  3  2  0  0  0  0
  3  4  1  0  0  0  0
  4  5  2  0  0  0  0
  5  6  1  0  0  0  0
  6  7  2  0  0  0  0
  7  8  1  0  0  0  0
  8  9  2  0  0  0  0
  9 10  1  0  0  0  0
 10 11  2  0  0  0  0
 11 12  1  0  0  0  0
 12 13  2  0  0  0  0
 13 14  1  0  0  0  0
 14 15  2  0  0  0  0
 15 16  1  0  0  0  0
  5 17  1  0  0  0  0
 17 18  2  0  0  0  0
 18 19  1  0  0  0  0
 19 20  2  0  0  0  0
 20 21  1  0  0  0  0
 21 22  2  0  0  0  0
 22  2  1  0  0  0  0
 16  8  1  0  0  0  0
 22 17  1  0  0  0  0
 15 10  1  0  0  0  0
  1 23  1  0  0  0  0
  3 24  1  0  0  0  0
  4 25  1  0  0  0  0
 11 26  1  0  0  0  0
 12 27  1  0  0  0  0
 13 28  1  0  0  0  0
 14 29  1  0  0  0  0
 18 30  1  0  0  0  0
 19 31  1  0  0  0  0
 20 32  1  0  0  0  0
M  END
