
  xtb     03022215073D
 energy: -72.849218063836 gnorm: 0.000100558846 xtb: 6.4.1 (afa7bdf)
 37 41  0     0  0            999 V2000
   -4.1893   -2.1559    0.4042 O   0  0  0  0  0  0  0  0  0  0  0  0
   -3.2987   -1.3395    0.2318 C   0  0  0  0  0  0  0  0  0  0  0  0
   -3.5770    0.0733   -0.0637 C   0  0  0  0  0  0  0  0  0  0  0  0
   -4.9131    0.4667   -0.1444 C   0  0  0  0  0  0  0  0  0  0  0  0
   -5.2499    1.7740   -0.4180 C   0  0  0  0  0  0  0  0  0  0  0  0
   -4.2380    2.7039   -0.6141 C   0  0  0  0  0  0  0  0  0  0  0  0
   -2.9127    2.3267   -0.5368 C   0  0  0  0  0  0  0  0  0  0  0  0
   -2.5442    1.0059   -0.2604 C   0  0  0  0  0  0  0  0  0  0  0  0
   -1.1506    0.5847   -0.1739 C   0  0  0  0  0  0  0  0  0  0  0  0
   -0.0983    1.4627   -0.3592 C   0  0  0  0  0  0  0  0  0  0  0  0
    1.2282    1.0560   -0.2757 C   0  0  0  0  0  0  0  0  0  0  0  0
    1.5523   -0.2546   -0.0014 C   0  0  0  0  0  0  0  0  0  0  0  0
    2.8752   -0.6764    0.0853 N   0  0  0  0  0  0  0  0  0  0  0  0
    4.0276   -0.0113   -0.0555 C   0  0  0  0  0  0  0  0  0  0  0  0
    5.1288   -0.7737    0.1028 N   0  0  0  0  0  0  0  0  0  0  0  0
    6.2690   -0.1451   -0.0303 C   0  0  0  0  0  0  0  0  0  0  0  0
    7.6851   -1.0525    0.1581 Cl  0  0  0  0  0  0  0  0  0  0  0  0
    6.4233    1.1439   -0.3006 N   0  0  0  0  0  0  0  0  0  0  0  0
    5.2848    1.8002   -0.4367 C   0  0  0  0  0  0  0  0  0  0  0  0
    5.3957    3.4530   -0.7833 Cl  0  0  0  0  0  0  0  0  0  0  0  0
    4.0761    1.2975   -0.3298 N   0  0  0  0  0  0  0  0  0  0  0  0
    0.5106   -1.2111    0.2003 C   0  0  0  0  0  0  0  0  0  0  0  0
    0.7624   -2.5699    0.4848 C   0  0  0  0  0  0  0  0  0  0  0  0
   -0.2570   -3.4668    0.6741 C   0  0  0  0  0  0  0  0  0  0  0  0
   -1.5792   -3.0422    0.5868 C   0  0  0  0  0  0  0  0  0  0  0  0
   -1.8749   -1.7229    0.3106 C   0  0  0  0  0  0  0  0  0  0  0  0
   -0.8431   -0.7742    0.1105 C   0  0  0  0  0  0  0  0  0  0  0  0
   -5.6691   -0.2879    0.0146 H   0  0  0  0  0  0  0  0  0  0  0  0
   -6.2852    2.0728   -0.4793 H   0  0  0  0  0  0  0  0  0  0  0  0
   -4.4861    3.7330   -0.8294 H   0  0  0  0  0  0  0  0  0  0  0  0
   -2.1594    3.0812   -0.6958 H   0  0  0  0  0  0  0  0  0  0  0  0
   -0.2809    2.5019   -0.5768 H   0  0  0  0  0  0  0  0  0  0  0  0
    2.0157    1.7734   -0.4270 H   0  0  0  0  0  0  0  0  0  0  0  0
    3.0298   -1.6561    0.2905 H   0  0  0  0  0  0  0  0  0  0  0  0
    1.7756   -2.9384    0.5608 H   0  0  0  0  0  0  0  0  0  0  0  0
   -0.0359   -4.5009    0.8905 H   0  0  0  0  0  0  0  0  0  0  0  0
   -2.3977   -3.7313    0.7321 H   0  0  0  0  0  0  0  0  0  0  0  0
  1  2  2  0  0  0  0
  2  3  1  0  0  0  0
  3  4  2  0  0  0  0
  4  5  1  0  0  0  0
  5  6  2  0  0  0  0
  6  7  1  0  0  0  0
  7  8  2  0  0  0  0
  8  9  1  0  0  0  0
  9 10  1  0  0  0  0
 10 11  2  0  0  0  0
 11 12  1  0  0  0  0
 12 13  1  0  0  0  0
 13 14  1  0  0  0  0
 14 15  2  0  0  0  0
 15 16  1  0  0  0  0
 16 17  1  0  0  0  0
 16 18  2  0  0  0  0
 18 19  1  0  0  0  0
 19 20  1  0  0  0  0
 19 21  2  0  0  0  0
 12 22  2  0  0  0  0
 22 23  1  0  0  0  0
 23 24  2  0  0  0  0
 24 25  1  0  0  0  0
 25 26  2  0  0  0  0
 26 27  1  0  0  0  0
 26  2  1  0  0  0  0
  8  3  1  0  0  0  0
 27  9  2  0  0  0  0
 21 14  1  0  0  0  0
 27 22  1  0  0  0  0
  4 28  1  0  0  0  0
  5 29  1  0  0  0  0
  6 30  1  0  0  0  0
  7 31  1  0  0  0  0
 10 32  1  0  0  0  0
 11 33  1  0  0  0  0
 13 34  1  0  0  0  0
 23 35  1  0  0  0  0
 24 36  1  0  0  0  0
 25 37  1  0  0  0  0
M  END
