
  xtb     03022215043D
 energy: -65.741616762050 gnorm: 0.000220561350 xtb: 6.4.1 (afa7bdf)
 46 48  0     0  0            999 V2000
   -7.4968   -0.5037    0.2717 C   0  0  0  0  0  0  0  0  0  0  0  0
   -6.3649    0.2034    0.8195 N   0  0  0  0  0  0  0  0  0  0  0  0
   -6.6142    1.3802    1.6142 C   0  0  0  0  0  0  0  0  0  0  0  0
   -5.1023   -0.0625    0.3561 C   0  0  0  0  0  0  0  0  0  0  0  0
   -4.8484   -1.1552   -0.4892 C   0  0  0  0  0  0  0  0  0  0  0  0
   -3.5755   -1.4370   -0.9243 C   0  0  0  0  0  0  0  0  0  0  0  0
   -2.4817   -0.6570   -0.5424 C   0  0  0  0  0  0  0  0  0  0  0  0
   -1.1491   -1.0045   -1.0255 C   0  0  0  0  0  0  0  0  0  0  0  0
    0.0245   -0.4961   -0.4684 C   0  0  0  0  0  0  0  0  0  0  0  0
    1.2430   -0.8925   -1.0197 C   0  0  0  0  0  0  0  0  0  0  0  0
    2.5347   -0.4188   -0.5323 C   0  0  0  0  0  0  0  0  0  0  0  0
    2.6758    0.7054    0.2806 C   0  0  0  0  0  0  0  0  0  0  0  0
    3.9129    1.1241    0.7159 C   0  0  0  0  0  0  0  0  0  0  0  0
    5.0833    0.4319    0.3672 C   0  0  0  0  0  0  0  0  0  0  0  0
    6.3121    0.8259    0.8310 N   0  0  0  0  0  0  0  0  0  0  0  0
    6.4489    2.0670    1.5527 C   0  0  0  0  0  0  0  0  0  0  0  0
    7.5080    0.1848    0.3421 C   0  0  0  0  0  0  0  0  0  0  0  0
    4.9372   -0.6924   -0.4619 C   0  0  0  0  0  0  0  0  0  0  0  0
    3.6986   -1.0983   -0.8979 C   0  0  0  0  0  0  0  0  0  0  0  0
    1.2693   -1.7633   -2.0401 N   0  0  0  0  0  0  0  0  0  0  0  0
    0.1094   -2.1996   -2.4805 C   0  0  0  0  0  0  0  0  0  0  0  0
   -1.0884   -1.8723   -2.0470 N   0  0  0  0  0  0  0  0  0  0  0  0
   -2.7311    0.4377    0.2845 C   0  0  0  0  0  0  0  0  0  0  0  0
   -4.0037    0.7320    0.7198 C   0  0  0  0  0  0  0  0  0  0  0  0
   -7.4341   -1.5703    0.5030 H   0  0  0  0  0  0  0  0  0  0  0  0
   -8.4133   -0.1188    0.7124 H   0  0  0  0  0  0  0  0  0  0  0  0
   -7.5625   -0.3853   -0.8155 H   0  0  0  0  0  0  0  0  0  0  0  0
   -7.6532    1.3865    1.9356 H   0  0  0  0  0  0  0  0  0  0  0  0
   -5.9878    1.3753    2.5090 H   0  0  0  0  0  0  0  0  0  0  0  0
   -6.4205    2.3040    1.0559 H   0  0  0  0  0  0  0  0  0  0  0  0
   -5.6535   -1.7954   -0.8101 H   0  0  0  0  0  0  0  0  0  0  0  0
   -3.3975   -2.2789   -1.5748 H   0  0  0  0  0  0  0  0  0  0  0  0
   -0.0080    0.1609    0.3842 H   0  0  0  0  0  0  0  0  0  0  0  0
    1.8100    1.2855    0.5644 H   0  0  0  0  0  0  0  0  0  0  0  0
    3.9640    2.0069    1.3322 H   0  0  0  0  0  0  0  0  0  0  0  0
    5.8558    2.0446    2.4703 H   0  0  0  0  0  0  0  0  0  0  0  0
    6.1319    2.9274    0.9521 H   0  0  0  0  0  0  0  0  0  0  0  0
    7.4899    2.2113    1.8320 H   0  0  0  0  0  0  0  0  0  0  0  0
    7.6233    0.3033   -0.7415 H   0  0  0  0  0  0  0  0  0  0  0  0
    7.4931   -0.8821    0.5767 H   0  0  0  0  0  0  0  0  0  0  0  0
    8.3776    0.6211    0.8282 H   0  0  0  0  0  0  0  0  0  0  0  0
    5.8003   -1.2568   -0.7741 H   0  0  0  0  0  0  0  0  0  0  0  0
    3.6040   -1.9616   -1.5380 H   0  0  0  0  0  0  0  0  0  0  0  0
    0.1446   -2.9094   -3.3002 H   0  0  0  0  0  0  0  0  0  0  0  0
   -1.9253    1.0934    0.5797 H   0  0  0  0  0  0  0  0  0  0  0  0
   -4.1404    1.5994    1.3448 H   0  0  0  0  0  0  0  0  0  0  0  0
  1  2  1  0  0  0  0
  2  3  1  0  0  0  0
  2  4  1  0  0  0  0
  4  5  2  0  0  0  0
  5  6  1  0  0  0  0
  6  7  2  0  0  0  0
  7  8  1  0  0  0  0
  8  9  2  0  0  0  0
  9 10  1  0  0  0  0
 10 11  1  0  0  0  0
 11 12  2  0  0  0  0
 12 13  1  0  0  0  0
 13 14  2  0  0  0  0
 14 15  1  0  0  0  0
 15 16  1  0  0  0  0
 15 17  1  0  0  0  0
 14 18  1  0  0  0  0
 18 19  2  0  0  0  0
 10 20  2  0  0  0  0
 20 21  1  0  0  0  0
 21 22  2  0  0  0  0
  7 23  1  0  0  0  0
 23 24  2  0  0  0  0
 24  4  1  0  0  0  0
 22  8  1  0  0  0  0
 19 11  1  0  0  0  0
  1 25  1  0  0  0  0
  1 26  1  0  0  0  0
  1 27  1  0  0  0  0
  3 28  1  0  0  0  0
  3 29  1  0  0  0  0
  3 30  1  0  0  0  0
  5 31  1  0  0  0  0
  6 32  1  0  0  0  0
  9 33  1  0  0  0  0
 12 34  1  0  0  0  0
 13 35  1  0  0  0  0
 16 36  1  0  0  0  0
 16 37  1  0  0  0  0
 16 38  1  0  0  0  0
 17 39  1  0  0  0  0
 17 40  1  0  0  0  0
 17 41  1  0  0  0  0
 18 42  1  0  0  0  0
 19 43  1  0  0  0  0
 21 44  1  0  0  0  0
 23 45  1  0  0  0  0
 24 46  1  0  0  0  0
M  END
