
  xtb     03022212123D
 energy: -75.026092221192 gnorm: 0.000213289594 xtb: 6.4.1 (afa7bdf)
 40 42  0     0  0            999 V2000
   -4.9370    4.7986   -0.2436 O   0  0  0  0  0  0  0  0  0  0  0  0
   -3.9817    4.4517    0.4196 N   0  0  0  0  0  4  0  0  0  0  0  0
   -3.4156    5.1511    1.2336 O   0  0  0  0  0  1  0  0  0  0  0  0
   -3.4854    3.1153    0.2273 C   0  0  0  0  0  0  0  0  0  0  0  0
   -2.3879    2.6806    0.9650 C   0  0  0  0  0  0  0  0  0  0  0  0
   -1.9151    1.4004    0.7813 C   0  0  0  0  0  0  0  0  0  0  0  0
   -2.5361    0.5474   -0.1400 C   0  0  0  0  0  0  0  0  0  0  0  0
   -2.0394   -0.7565   -0.3259 C   0  0  0  0  0  0  0  0  0  0  0  0
   -1.6018   -1.8725   -0.4829 C   0  0  0  0  0  0  0  0  0  0  0  0
   -1.0527   -3.1596   -0.6396 C   0  0  0  0  0  0  0  0  0  0  0  0
   -1.8573   -4.2584   -0.9339 C   0  0  0  0  0  0  0  0  0  0  0  0
   -1.2964   -5.5148   -1.0642 C   0  0  0  0  0  0  0  0  0  0  0  0
    0.0718   -5.6919   -0.9049 C   0  0  0  0  0  0  0  0  0  0  0  0
    0.8858   -4.6128   -0.6181 C   0  0  0  0  0  0  0  0  0  0  0  0
    0.3382   -3.3381   -0.4841 C   0  0  0  0  0  0  0  0  0  0  0  0
    1.1488   -2.2196   -0.2144 C   0  0  0  0  0  0  0  0  0  0  0  0
    1.8154   -1.2333   -0.0030 C   0  0  0  0  0  0  0  0  0  0  0  0
    2.5825   -0.0797    0.2412 C   0  0  0  0  0  0  0  0  0  0  0  0
    3.9270   -0.1865    0.6168 C   0  0  0  0  0  0  0  0  0  0  0  0
    4.6691    0.9489    0.8546 C   0  0  0  0  0  0  0  0  0  0  0  0
    4.0704    2.1981    0.7195 C   0  0  0  0  0  0  0  0  0  0  0  0
    4.8459    3.3834    0.9679 N   0  0  0  0  0  4  0  0  0  0  0  0
    6.0095    3.2398    1.2821 O   0  0  0  0  0  0  0  0  0  0  0  0
    4.2906    4.4557    0.8481 O   0  0  0  0  0  1  0  0  0  0  0  0
    2.7351    2.3201    0.3446 C   0  0  0  0  0  0  0  0  0  0  0  0
    1.9945    1.1846    0.1049 C   0  0  0  0  0  0  0  0  0  0  0  0
   -3.6408    0.9975   -0.8722 C   0  0  0  0  0  0  0  0  0  0  0  0
   -4.1137    2.2782   -0.6901 C   0  0  0  0  0  0  0  0  0  0  0  0
   -1.9272    3.3556    1.6700 H   0  0  0  0  0  0  0  0  0  0  0  0
   -1.0711    1.0398    1.3502 H   0  0  0  0  0  0  0  0  0  0  0  0
   -2.9213   -4.1152   -1.0521 H   0  0  0  0  0  0  0  0  0  0  0  0
   -1.9262   -6.3619   -1.2904 H   0  0  0  0  0  0  0  0  0  0  0  0
    0.5027   -6.6765   -1.0069 H   0  0  0  0  0  0  0  0  0  0  0  0
    1.9512   -4.7427   -0.4979 H   0  0  0  0  0  0  0  0  0  0  0  0
    4.3736   -1.1639    0.7174 H   0  0  0  0  0  0  0  0  0  0  0  0
    5.7073    0.8927    1.1442 H   0  0  0  0  0  0  0  0  0  0  0  0
    2.3044    3.3050    0.2470 H   0  0  0  0  0  0  0  0  0  0  0  0
    0.9603    1.2563   -0.1962 H   0  0  0  0  0  0  0  0  0  0  0  0
   -4.1141    0.3342   -1.5798 H   0  0  0  0  0  0  0  0  0  0  0  0
   -4.9630    2.6488   -1.2434 H   0  0  0  0  0  0  0  0  0  0  0  0
  1  2  2  0  0  0  0
  2  3  1  0  0  0  0
  2  4  1  0  0  0  0
  4  5  2  0  0  0  0
  5  6  1  0  0  0  0
  6  7  2  0  0  0  0
  7  8  1  0  0  0  0
  8  9  3  0  0  0  0
  9 10  1  0  0  0  0
 10 11  2  0  0  0  0
 11 12  1  0  0  0  0
 12 13  2  0  0  0  0
 13 14  1  0  0  0  0
 14 15  2  0  0  0  0
 15 16  1  0  0  0  0
 16 17  3  0  0  0  0
 17 18  1  0  0  0  0
 18 19  2  0  0  0  0
 19 20  1  0  0  0  0
 20 21  2  0  0  0  0
 21 22  1  0  0  0  0
 22 23  2  0  0  0  0
 22 24  1  0  0  0  0
 21 25  1  0  0  0  0
 25 26  2  0  0  0  0
  7 27  1  0  0  0  0
 27 28  2  0  0  0  0
 28  4  1  0  0  0  0
 15 10  1  0  0  0  0
 26 18  1  0  0  0  0
  5 29  1  0  0  0  0
  6 30  1  0  0  0  0
 11 31  1  0  0  0  0
 12 32  1  0  0  0  0
 13 33  1  0  0  0  0
 14 34  1  0  0  0  0
 19 35  1  0  0  0  0
 20 36  1  0  0  0  0
 25 37  1  0  0  0  0
 26 38  1  0  0  0  0
 27 39  1  0  0  0  0
 28 40  1  0  0  0  0
M  CHG  1   2   1
M  CHG  1   3  -1
M  CHG  1  22   1
M  CHG  1  24  -1
M  END
