
  xtb     03022215213D
 energy: -38.507551795469 gnorm: 0.000047445679 xtb: 6.4.1 (afa7bdf)
 26 28  0     0  0            999 V2000
    4.6213    0.4469   -0.0430 C   0  0  0  0  0  0  0  0  0  0  0  0
    3.1905    0.0322    0.1132 C   0  0  0  0  0  0  0  0  0  0  0  0
    2.1535    0.8056   -0.3327 C   0  0  0  0  0  0  0  0  0  0  0  0
    0.8173    0.3704   -0.1603 C   0  0  0  0  0  0  0  0  0  0  0  0
   -0.2909    1.0988   -0.5855 C   0  0  0  0  0  0  0  0  0  0  0  0
   -1.5841    0.6227   -0.3899 C   0  0  0  0  0  0  0  0  0  0  0  0
   -2.7246    1.3516   -0.8164 C   0  0  0  0  0  0  0  0  0  0  0  0
   -3.9802    0.8676   -0.6152 C   0  0  0  0  0  0  0  0  0  0  0  0
   -4.1749   -0.3756    0.0249 C   0  0  0  0  0  0  0  0  0  0  0  0
   -3.1083   -1.1060    0.4492 C   0  0  0  0  0  0  0  0  0  0  0  0
   -1.7822   -0.6385    0.2596 C   0  0  0  0  0  0  0  0  0  0  0  0
   -0.6749   -1.3670    0.6848 C   0  0  0  0  0  0  0  0  0  0  0  0
    0.6160   -0.8880    0.4879 C   0  0  0  0  0  0  0  0  0  0  0  0
    1.7805   -1.5880    0.9006 C   0  0  0  0  0  0  0  0  0  0  0  0
    2.9915   -1.1596    0.7268 N   0  0  0  0  0  0  0  0  0  0  0  0
    4.8071    1.3795    0.4875 H   0  0  0  0  0  0  0  0  0  0  0  0
    5.2666   -0.3273    0.3609 H   0  0  0  0  0  0  0  0  0  0  0  0
    4.8611    0.6025   -1.0935 H   0  0  0  0  0  0  0  0  0  0  0  0
    2.3422    1.7520   -0.8188 H   0  0  0  0  0  0  0  0  0  0  0  0
   -0.1431    2.0510   -1.0760 H   0  0  0  0  0  0  0  0  0  0  0  0
   -2.5707    2.3027   -1.3060 H   0  0  0  0  0  0  0  0  0  0  0  0
   -4.8424    1.4297   -0.9433 H   0  0  0  0  0  0  0  0  0  0  0  0
   -5.1814   -0.7383    0.1730 H   0  0  0  0  0  0  0  0  0  0  0  0
   -3.2500   -2.0585    0.9400 H   0  0  0  0  0  0  0  0  0  0  0  0
   -0.8181   -2.3198    1.1758 H   0  0  0  0  0  0  0  0  0  0  0  0
    1.6783   -2.5466    1.3963 H   0  0  0  0  0  0  0  0  0  0  0  0
  1  2  1  0  0  0  0
  2  3  2  0  0  0  0
  3  4  1  0  0  0  0
  4  5  2  0  0  0  0
  5  6  1  0  0  0  0
  6  7  2  0  0  0  0
  7  8  1  0  0  0  0
  8  9  2  0  0  0  0
  9 10  1  0  0  0  0
 10 11  2  0  0  0  0
 11 12  1  0  0  0  0
 12 13  2  0  0  0  0
 13 14  1  0  0  0  0
 14 15  2  0  0  0  0
 15  2  1  0  0  0  0
 13  4  1  0  0  0  0
 11  6  1  0  0  0  0
  1 16  1  0  0  0  0
  1 17  1  0  0  0  0
  1 18  1  0  0  0  0
  3 19  1  0  0  0  0
  5 20  1  0  0  0  0
  7 21  1  0  0  0  0
  8 22  1  0  0  0  0
  9 23  1  0  0  0  0
 10 24  1  0  0  0  0
 12 25  1  0  0  0  0
 14 26  1  0  0  0  0
M  END
