
  xtb     03022213073D
 energy: -116.102850658987 gnorm: 0.000114244420 xtb: 6.4.1 (afa7bdf)
 90 95  0     0  0            999 V2000
   -3.9697   -1.5620    4.5009 C   0  0  0  0  0  0  0  0  0  0  0  0
   -4.1891   -0.8852    3.1530 C   0  0  0  0  0  0  0  0  0  0  0  0
   -3.6686   -1.7453    2.0033 C   0  0  0  0  0  0  0  0  0  0  0  0
   -3.7091   -1.0405    0.6469 C   0  0  0  0  0  0  0  0  0  0  0  0
   -5.1081   -0.6465    0.1598 C   0  0  0  0  0  0  0  0  0  0  0  0
   -6.0690   -1.8315   -0.0042 C   0  0  0  0  0  0  0  0  0  0  0  0
   -5.6120   -2.8996   -0.9917 C   0  0  0  0  0  0  0  0  0  0  0  0
   -4.9959    0.1525   -1.1535 C   0  0  0  0  0  0  0  0  0  0  0  0
   -4.4029    1.4449   -0.9479 N   0  0  0  0  0  0  0  0  0  0  0  0
   -5.0446    2.5170   -0.3748 C   0  0  0  0  0  0  0  0  0  0  0  0
   -6.3661    2.6445    0.0314 C   0  0  0  0  0  0  0  0  0  0  0  0
   -6.7636    3.8520    0.5722 C   0  0  0  0  0  0  0  0  0  0  0  0
   -5.8741    4.9155    0.7113 C   0  0  0  0  0  0  0  0  0  0  0  0
   -4.5595    4.7983    0.3073 C   0  0  0  0  0  0  0  0  0  0  0  0
   -4.1361    3.5945   -0.2406 C   0  0  0  0  0  0  0  0  0  0  0  0
   -2.8823    3.1289   -0.7562 C   0  0  0  0  0  0  0  0  0  0  0  0
   -1.6271    3.7079   -0.8936 C   0  0  0  0  0  0  0  0  0  0  0  0
   -0.6065    2.9611   -1.4398 C   0  0  0  0  0  0  0  0  0  0  0  0
   -0.8114    1.6415   -1.8670 C   0  0  0  0  0  0  0  0  0  0  0  0
    0.3031    0.8784   -2.4492 C   0  0  0  0  0  0  0  0  0  0  0  0
    0.1016    0.1063   -3.6017 C   0  0  0  0  0  0  0  0  0  0  0  0
    1.1290   -0.6096   -4.1763 C   0  0  0  0  0  0  0  0  0  0  0  0
    2.3856   -0.5732   -3.5852 C   0  0  0  0  0  0  0  0  0  0  0  0
    3.6456   -1.1806   -3.8989 C   0  0  0  0  0  0  0  0  0  0  0  0
    4.0767   -2.0232   -4.9152 C   0  0  0  0  0  0  0  0  0  0  0  0
    5.3961   -2.4282   -4.9242 C   0  0  0  0  0  0  0  0  0  0  0  0
    6.2828   -2.0017   -3.9377 C   0  0  0  0  0  0  0  0  0  0  0  0
    5.8776   -1.1652   -2.9156 C   0  0  0  0  0  0  0  0  0  0  0  0
    4.5513   -0.7551   -2.8975 C   0  0  0  0  0  0  0  0  0  0  0  0
    3.9024    0.0756   -2.0145 N   0  0  0  0  0  0  0  0  0  0  0  0
    4.4948    0.6174   -0.8229 C   0  0  0  0  0  0  0  0  0  0  0  0
    4.6207   -0.4363    0.2956 C   0  0  0  0  0  0  0  0  0  0  0  0
    3.2391   -0.8662    0.8117 C   0  0  0  0  0  0  0  0  0  0  0  0
    2.5388    0.1463    1.7123 C   0  0  0  0  0  0  0  0  0  0  0  0
    5.5558    0.0814    1.3928 C   0  0  0  0  0  0  0  0  0  0  0  0
    5.8696   -0.9651    2.4597 C   0  0  0  0  0  0  0  0  0  0  0  0
    6.8796   -0.4477    3.4815 C   0  0  0  0  0  0  0  0  0  0  0  0
    7.1848   -1.4891    4.5511 C   0  0  0  0  0  0  0  0  0  0  0  0
    2.5910    0.1942   -2.4127 C   0  0  0  0  0  0  0  0  0  0  0  0
    1.5563    0.9267   -1.8527 C   0  0  0  0  0  0  0  0  0  0  0  0
   -2.0630    1.0532   -1.7389 C   0  0  0  0  0  0  0  0  0  0  0  0
   -3.0927    1.7938   -1.1792 C   0  0  0  0  0  0  0  0  0  0  0  0
   -2.9097   -1.7361    4.6736 H   0  0  0  0  0  0  0  0  0  0  0  0
   -4.3512   -0.9413    5.3082 H   0  0  0  0  0  0  0  0  0  0  0  0
   -4.4825   -2.5211    4.5341 H   0  0  0  0  0  0  0  0  0  0  0  0
   -5.2558   -0.6950    3.0226 H   0  0  0  0  0  0  0  0  0  0  0  0
   -3.6754    0.0791    3.1420 H   0  0  0  0  0  0  0  0  0  0  0  0
   -4.2360   -2.6767    1.9611 H   0  0  0  0  0  0  0  0  0  0  0  0
   -2.6285   -2.0102    2.2117 H   0  0  0  0  0  0  0  0  0  0  0  0
   -3.2374   -1.6860   -0.0972 H   0  0  0  0  0  0  0  0  0  0  0  0
   -3.1057   -0.1319    0.7163 H   0  0  0  0  0  0  0  0  0  0  0  0
   -5.5477    0.0281    0.9024 H   0  0  0  0  0  0  0  0  0  0  0  0
   -7.0376   -1.4427   -0.3307 H   0  0  0  0  0  0  0  0  0  0  0  0
   -6.2240   -2.2947    0.9716 H   0  0  0  0  0  0  0  0  0  0  0  0
   -5.4852   -2.4852   -1.9885 H   0  0  0  0  0  0  0  0  0  0  0  0
   -6.3577   -3.6897   -1.0483 H   0  0  0  0  0  0  0  0  0  0  0  0
   -4.6726   -3.3468   -0.6783 H   0  0  0  0  0  0  0  0  0  0  0  0
   -4.3872   -0.3924   -1.8769 H   0  0  0  0  0  0  0  0  0  0  0  0
   -5.9942    0.2926   -1.5823 H   0  0  0  0  0  0  0  0  0  0  0  0
   -7.0691    1.8313   -0.0709 H   0  0  0  0  0  0  0  0  0  0  0  0
   -7.7871    3.9749    0.8952 H   0  0  0  0  0  0  0  0  0  0  0  0
   -6.2240    5.8428    1.1404 H   0  0  0  0  0  0  0  0  0  0  0  0
   -3.8711    5.6236    0.4119 H   0  0  0  0  0  0  0  0  0  0  0  0
   -1.4587    4.7271   -0.5788 H   0  0  0  0  0  0  0  0  0  0  0  0
    0.3703    3.4035   -1.5696 H   0  0  0  0  0  0  0  0  0  0  0  0
   -0.8771    0.1002   -4.0588 H   0  0  0  0  0  0  0  0  0  0  0  0
    0.9645   -1.1890   -5.0726 H   0  0  0  0  0  0  0  0  0  0  0  0
    3.3904   -2.3507   -5.6819 H   0  0  0  0  0  0  0  0  0  0  0  0
    5.7520   -3.0833   -5.7056 H   0  0  0  0  0  0  0  0  0  0  0  0
    7.3103   -2.3334   -3.9730 H   0  0  0  0  0  0  0  0  0  0  0  0
    6.5787   -0.8427   -2.1604 H   0  0  0  0  0  0  0  0  0  0  0  0
    3.8922    1.4613   -0.4840 H   0  0  0  0  0  0  0  0  0  0  0  0
    5.4907    0.9977   -1.0750 H   0  0  0  0  0  0  0  0  0  0  0  0
    5.0848   -1.3228   -0.1535 H   0  0  0  0  0  0  0  0  0  0  0  0
    3.3452   -1.8054    1.3582 H   0  0  0  0  0  0  0  0  0  0  0  0
    2.6042   -1.0713   -0.0533 H   0  0  0  0  0  0  0  0  0  0  0  0
    2.4936    1.1292    1.2507 H   0  0  0  0  0  0  0  0  0  0  0  0
    1.5186   -0.1789    1.9034 H   0  0  0  0  0  0  0  0  0  0  0  0
    3.0467    0.2422    2.6683 H   0  0  0  0  0  0  0  0  0  0  0  0
    5.1210    0.9655    1.8619 H   0  0  0  0  0  0  0  0  0  0  0  0
    6.4961    0.3916    0.9282 H   0  0  0  0  0  0  0  0  0  0  0  0
    4.9557   -1.2515    2.9819 H   0  0  0  0  0  0  0  0  0  0  0  0
    6.2707   -1.8604    1.9786 H   0  0  0  0  0  0  0  0  0  0  0  0
    7.8044   -0.1717    2.9697 H   0  0  0  0  0  0  0  0  0  0  0  0
    6.4834    0.4536    3.9553 H   0  0  0  0  0  0  0  0  0  0  0  0
    7.9043   -1.1027    5.2691 H   0  0  0  0  0  0  0  0  0  0  0  0
    7.5989   -2.3883    4.1002 H   0  0  0  0  0  0  0  0  0  0  0  0
    6.2784   -1.7626    5.0870 H   0  0  0  0  0  0  0  0  0  0  0  0
    1.6965    1.5101   -0.9561 H   0  0  0  0  0  0  0  0  0  0  0  0
   -2.2076    0.0297   -2.0506 H   0  0  0  0  0  0  0  0  0  0  0  0
  1  2  1  0  0  0  0
  2  3  1  0  0  0  0
  3  4  1  0  0  0  0
  4  5  1  0  0  0  0
  5  6  1  0  0  0  0
  6  7  1  0  0  0  0
  5  8  1  0  0  0  0
  8  9  1  0  0  0  0
  9 10  1  0  0  0  0
 10 11  2  0  0  0  0
 11 12  1  0  0  0  0
 12 13  2  0  0  0  0
 13 14  1  0  0  0  0
 14 15  2  0  0  0  0
 15 16  1  0  0  0  0
 16 17  2  0  0  0  0
 17 18  1  0  0  0  0
 18 19  2  0  0  0  0
 19 20  1  0  0  0  0
 20 21  2  0  0  0  0
 21 22  1  0  0  0  0
 22 23  2  0  0  0  0
 23 24  1  0  0  0  0
 24 25  2  0  0  0  0
 25 26  1  0  0  0  0
 26 27  2  0  0  0  0
 27 28  1  0  0  0  0
 28 29  2  0  0  0  0
 29 30  1  0  0  0  0
 30 31  1  0  0  0  0
 31 32  1  0  0  0  0
 32 33  1  0  0  0  0
 33 34  1  0  0  0  0
 32 35  1  0  0  0  0
 35 36  1  0  0  0  0
 36 37  1  0  0  0  0
 37 38  1  0  0  0  0
 30 39  1  0  0  0  0
 39 40  2  0  0  0  0
 19 41  1  0  0  0  0
 41 42  2  0  0  0  0
 42  9  1  0  0  0  0
 15 10  1  0  0  0  0
 42 16  1  0  0  0  0
 40 20  1  0  0  0  0
 39 23  1  0  0  0  0
 29 24  1  0  0  0  0
  1 43  1  0  0  0  0
  1 44  1  0  0  0  0
  1 45  1  0  0  0  0
  2 46  1  0  0  0  0
  2 47  1  0  0  0  0
  3 48  1  0  0  0  0
  3 49  1  0  0  0  0
  4 50  1  0  0  0  0
  4 51  1  0  0  0  0
  5 52  1  0  0  0  0
  6 53  1  0  0  0  0
  6 54  1  0  0  0  0
  7 55  1  0  0  0  0
  7 56  1  0  0  0  0
  7 57  1  0  0  0  0
  8 58  1  0  0  0  0
  8 59  1  0  0  0  0
 11 60  1  0  0  0  0
 12 61  1  0  0  0  0
 13 62  1  0  0  0  0
 14 63  1  0  0  0  0
 17 64  1  0  0  0  0
 18 65  1  0  0  0  0
 21 66  1  0  0  0  0
 22 67  1  0  0  0  0
 25 68  1  0  0  0  0
 26 69  1  0  0  0  0
 27 70  1  0  0  0  0
 28 71  1  0  0  0  0
 31 72  1  0  0  0  0
 31 73  1  0  0  0  0
 32 74  1  0  0  0  0
 33 75  1  0  0  0  0
 33 76  1  0  0  0  0
 34 77  1  0  0  0  0
 34 78  1  0  0  0  0
 34 79  1  0  0  0  0
 35 80  1  0  0  0  0
 35 81  1  0  0  0  0
 36 82  1  0  0  0  0
 36 83  1  0  0  0  0
 37 84  1  0  0  0  0
 37 85  1  0  0  0  0
 38 86  1  0  0  0  0
 38 87  1  0  0  0  0
 38 88  1  0  0  0  0
 40 89  1  0  0  0  0
 41 90  1  0  0  0  0
M  END
