
  xtb     03022213203D
 energy: -164.116125244418 gnorm: 0.000556518038 xtb: 6.4.1 (afa7bdf)
 97102  0     0  0            999 V2000
    0.7115    2.0322    4.6010 C   0  0  0  0  0  0  0  0  0  0  0  0
    0.8049    2.2133    3.2056 O   0  0  0  0  0  0  0  0  0  0  0  0
    0.4148    1.1890    2.3941 C   0  0  0  0  0  0  0  0  0  0  0  0
   -0.3191    0.0864    2.8171 C   0  0  0  0  0  0  0  0  0  0  0  0
   -0.5933   -0.9386    1.9311 C   0  0  0  0  0  0  0  0  0  0  0  0
   -0.1427   -0.8914    0.6175 C   0  0  0  0  0  0  0  0  0  0  0  0
   -0.3539   -2.0288   -0.2857 C   0  0  0  0  0  0  0  0  0  0  0  0
   -0.9541   -1.8537   -1.5401 C   0  0  0  0  0  0  0  0  0  0  0  0
   -1.4948   -0.7053   -2.1944 C   0  0  0  0  0  0  0  0  0  0  0  0
   -1.8381    0.6038   -1.7189 C   0  0  0  0  0  0  0  0  0  0  0  0
   -2.3198    0.9494   -0.5129 C   0  0  0  0  0  0  0  0  0  0  0  0
   -2.7736    2.2838   -0.1821 C   0  0  0  0  0  0  0  0  0  0  0  0
   -3.2697    3.1514   -1.1525 C   0  0  0  0  0  0  0  0  0  0  0  0
   -3.7260    4.4226   -0.8354 C   0  0  0  0  0  0  0  0  0  0  0  0
   -4.2456    5.2785   -1.7742 O   0  0  0  0  0  0  0  0  0  0  0  0
   -4.3158    4.8560   -3.1141 C   0  0  0  0  0  0  0  0  0  0  0  0
   -3.6617    4.8672    0.4954 C   0  0  0  0  0  0  0  0  0  0  0  0
   -4.0440    6.0683    0.9951 O   0  0  0  0  0  0  0  0  0  0  0  0
   -4.5596    7.0879    0.1705 C   0  0  0  0  0  0  0  0  0  0  0  0
   -3.1490    3.9889    1.4783 C   0  0  0  0  0  0  0  0  0  0  0  0
   -3.1159    4.5134    2.7343 O   0  0  0  0  0  0  0  0  0  0  0  0
   -2.4629    3.7773    3.7372 C   0  0  0  0  0  0  0  0  0  0  0  0
   -2.7365    2.7139    1.1457 C   0  0  0  0  0  0  0  0  0  0  0  0
   -1.7550   -1.1030   -3.5291 C   0  0  0  0  0  0  0  0  0  0  0  0
   -2.3123   -0.2940   -4.5875 C   0  0  0  0  0  0  0  0  0  0  0  0
   -2.5560   -0.6541   -5.7171 O   0  0  0  0  0  0  0  0  0  0  0  0
   -1.4328   -2.4744   -3.6289 C   0  0  0  0  0  0  0  0  0  0  0  0
   -1.5601   -3.3608   -4.7994 C   0  0  0  0  0  0  0  0  0  0  0  0
   -0.9769   -2.9002   -2.4521 N   0  0  0  0  0  4  0  0  0  0  0  0
   -0.6247   -4.3659   -2.1405 B   0  0  0  0  0  4  0  0  0  0  0  0
    0.3901   -4.7971   -2.9804 F   0  0  0  0  0  0  0  0  0  0  0  0
   -1.7370   -5.1648   -2.2996 F   0  0  0  0  0  0  0  0  0  0  0  0
   -0.1273   -4.4122   -0.6854 N   0  0  0  0  0  0  0  0  0  0  0  0
    0.2988   -5.5130   -0.0681 C   0  0  0  0  0  0  0  0  0  0  0  0
    0.1904   -6.8575   -0.6619 C   0  0  0  0  0  0  0  0  0  0  0  0
    0.8551   -5.1502    1.1790 C   0  0  0  0  0  0  0  0  0  0  0  0
    1.4803   -6.0357    2.1345 C   0  0  0  0  0  0  0  0  0  0  0  0
    1.5581   -7.2401    2.0541 O   0  0  0  0  0  0  0  0  0  0  0  0
    0.7676   -3.7456    1.2864 C   0  0  0  0  0  0  0  0  0  0  0  0
    1.2889   -3.0407    2.4426 C   0  0  0  0  0  0  0  0  0  0  0  0
    2.2093   -2.0681    2.5036 C   0  0  0  0  0  0  0  0  0  0  0  0
    2.9054   -1.4080    1.4204 C   0  0  0  0  0  0  0  0  0  0  0  0
    3.4767   -0.1631    1.6735 C   0  0  0  0  0  0  0  0  0  0  0  0
    4.0724    0.5844    0.6689 C   0  0  0  0  0  0  0  0  0  0  0  0
    4.5660    1.8480    0.8765 O   0  0  0  0  0  0  0  0  0  0  0  0
    4.4464    2.4174    2.1577 C   0  0  0  0  0  0  0  0  0  0  0  0
    4.1564    0.0525   -0.6276 C   0  0  0  0  0  0  0  0  0  0  0  0
    4.6866    0.6503   -1.7267 O   0  0  0  0  0  0  0  0  0  0  0  0
    5.6104    1.7079   -1.6018 C   0  0  0  0  0  0  0  0  0  0  0  0
    3.6208   -1.2329   -0.8724 C   0  0  0  0  0  0  0  0  0  0  0  0
    3.7524   -1.6690   -2.1518 O   0  0  0  0  0  0  0  0  0  0  0  0
    3.2091   -2.9228   -2.4947 C   0  0  0  0  0  0  0  0  0  0  0  0
    3.0096   -1.9477    0.1398 C   0  0  0  0  0  0  0  0  0  0  0  0
    0.1005   -3.2989    0.1111 C   0  0  0  0  0  0  0  0  0  0  0  0
    0.5398    0.2450    0.1844 C   0  0  0  0  0  0  0  0  0  0  0  0
    0.8046    1.2755    1.0561 C   0  0  0  0  0  0  0  0  0  0  0  0
    1.2285    1.1205    4.9161 H   0  0  0  0  0  0  0  0  0  0  0  0
   -0.3272    1.9948    4.9428 H   0  0  0  0  0  0  0  0  0  0  0  0
    1.1997    2.8987    5.0442 H   0  0  0  0  0  0  0  0  0  0  0  0
   -0.6722    0.0092    3.8335 H   0  0  0  0  0  0  0  0  0  0  0  0
   -1.1719   -1.7866    2.2655 H   0  0  0  0  0  0  0  0  0  0  0  0
   -1.7809    1.3748   -2.4755 H   0  0  0  0  0  0  0  0  0  0  0  0
   -2.3913    0.2144    0.2756 H   0  0  0  0  0  0  0  0  0  0  0  0
   -3.3412    2.8032   -2.1682 H   0  0  0  0  0  0  0  0  0  0  0  0
   -3.3236    4.6416   -3.5235 H   0  0  0  0  0  0  0  0  0  0  0  0
   -4.9589    3.9779   -3.2295 H   0  0  0  0  0  0  0  0  0  0  0  0
   -4.7532    5.6933   -3.6561 H   0  0  0  0  0  0  0  0  0  0  0  0
   -3.8407    7.3965   -0.5912 H   0  0  0  0  0  0  0  0  0  0  0  0
   -4.7542    7.9213    0.8455 H   0  0  0  0  0  0  0  0  0  0  0  0
   -5.4905    6.7867   -0.3137 H   0  0  0  0  0  0  0  0  0  0  0  0
   -1.4282    3.5634    3.4530 H   0  0  0  0  0  0  0  0  0  0  0  0
   -2.9873    2.8408    3.9587 H   0  0  0  0  0  0  0  0  0  0  0  0
   -2.4750    4.4123    4.6219 H   0  0  0  0  0  0  0  0  0  0  0  0
   -2.3513    2.0404    1.8935 H   0  0  0  0  0  0  0  0  0  0  0  0
   -2.5194    0.7537   -4.2922 H   0  0  0  0  0  0  0  0  0  0  0  0
   -1.9961   -2.8229   -5.6348 H   0  0  0  0  0  0  0  0  0  0  0  0
   -0.5785   -3.7456   -5.0749 H   0  0  0  0  0  0  0  0  0  0  0  0
   -2.1747   -4.2218   -4.5399 H   0  0  0  0  0  0  0  0  0  0  0  0
    0.6654   -7.5917   -0.0192 H   0  0  0  0  0  0  0  0  0  0  0  0
    0.6492   -6.8614   -1.6498 H   0  0  0  0  0  0  0  0  0  0  0  0
   -0.8605   -7.1108   -0.8012 H   0  0  0  0  0  0  0  0  0  0  0  0
    1.9224   -5.5030    3.0004 H   0  0  0  0  0  0  0  0  0  0  0  0
    0.9259   -3.4381    3.3843 H   0  0  0  0  0  0  0  0  0  0  0  0
    2.4611   -1.6959    3.4894 H   0  0  0  0  0  0  0  0  0  0  0  0
    3.4031    0.2406    2.6698 H   0  0  0  0  0  0  0  0  0  0  0  0
    5.0044    1.8470    2.9073 H   0  0  0  0  0  0  0  0  0  0  0  0
    4.8810    3.4124    2.0712 H   0  0  0  0  0  0  0  0  0  0  0  0
    3.3996    2.5055    2.4651 H   0  0  0  0  0  0  0  0  0  0  0  0
    5.1270    2.6366   -1.2915 H   0  0  0  0  0  0  0  0  0  0  0  0
    6.0340    1.8330   -2.5982 H   0  0  0  0  0  0  0  0  0  0  0  0
    6.4077    1.4648   -0.8959 H   0  0  0  0  0  0  0  0  0  0  0  0
    3.6826   -3.7366   -1.9371 H   0  0  0  0  0  0  0  0  0  0  0  0
    2.1278   -2.9562   -2.3344 H   0  0  0  0  0  0  0  0  0  0  0  0
    3.4151   -3.0506   -3.5554 H   0  0  0  0  0  0  0  0  0  0  0  0
    2.6354   -2.9383   -0.0462 H   0  0  0  0  0  0  0  0  0  0  0  0
    0.8943    0.3001   -0.8325 H   0  0  0  0  0  0  0  0  0  0  0  0
    1.3437    2.1500    0.7301 H   0  0  0  0  0  0  0  0  0  0  0  0
  1  2  1  0  0  0  0
  2  3  1  0  0  0  0
  3  4  2  0  0  0  0
  4  5  1  0  0  0  0
  5  6  2  0  0  0  0
  6  7  1  0  0  0  0
  7  8  2  0  0  0  0
  8  9  1  0  0  0  0
  9 10  1  0  0  0  0
 10 11  2  0  0  0  0
 11 12  1  0  0  0  0
 12 13  2  0  0  0  0
 13 14  1  0  0  0  0
 14 15  1  0  0  0  0
 15 16  1  0  0  0  0
 14 17  2  0  0  0  0
 17 18  1  0  0  0  0
 18 19  1  0  0  0  0
 17 20  1  0  0  0  0
 20 21  1  0  0  0  0
 21 22  1  0  0  0  0
 20 23  2  0  0  0  0
  9 24  2  0  0  0  0
 24 25  1  0  0  0  0
 25 26  2  0  0  0  0
 24 27  1  0  0  0  0
 27 28  1  0  0  0  0
 27 29  2  0  0  0  0
 29 30  1  0  0  0  0
 30 31  1  0  0  0  0
 30 32  1  0  0  0  0
 30 33  1  0  0  0  0
 33 34  1  0  0  0  0
 34 35  1  0  0  0  0
 34 36  2  0  0  0  0
 36 37  1  0  0  0  0
 37 38  2  0  0  0  0
 36 39  1  0  0  0  0
 39 40  1  0  0  0  0
 40 41  2  0  0  0  0
 41 42  1  0  0  0  0
 42 43  2  0  0  0  0
 43 44  1  0  0  0  0
 44 45  1  0  0  0  0
 45 46  1  0  0  0  0
 44 47  2  0  0  0  0
 47 48  1  0  0  0  0
 48 49  1  0  0  0  0
 47 50  1  0  0  0  0
 50 51  1  0  0  0  0
 51 52  1  0  0  0  0
 50 53  2  0  0  0  0
 39 54  2  0  0  0  0
  6 55  1  0  0  0  0
 55 56  2  0  0  0  0
 56  3  1  0  0  0  0
 54  7  1  0  0  0  0
 29  8  1  0  0  0  0
 54 33  1  0  0  0  0
 23 12  1  0  0  0  0
 53 42  1  0  0  0  0
  1 57  1  0  0  0  0
  1 58  1  0  0  0  0
  1 59  1  0  0  0  0
  4 60  1  0  0  0  0
  5 61  1  0  0  0  0
 10 62  1  0  0  0  0
 11 63  1  0  0  0  0
 13 64  1  0  0  0  0
 16 65  1  0  0  0  0
 16 66  1  0  0  0  0
 16 67  1  0  0  0  0
 19 68  1  0  0  0  0
 19 69  1  0  0  0  0
 19 70  1  0  0  0  0
 22 71  1  0  0  0  0
 22 72  1  0  0  0  0
 22 73  1  0  0  0  0
 23 74  1  0  0  0  0
 25 75  1  0  0  0  0
 28 76  1  0  0  0  0
 28 77  1  0  0  0  0
 28 78  1  0  0  0  0
 35 79  1  0  0  0  0
 35 80  1  0  0  0  0
 35 81  1  0  0  0  0
 37 82  1  0  0  0  0
 40 83  1  0  0  0  0
 41 84  1  0  0  0  0
 43 85  1  0  0  0  0
 46 86  1  0  0  0  0
 46 87  1  0  0  0  0
 46 88  1  0  0  0  0
 49 89  1  0  0  0  0
 49 90  1  0  0  0  0
 49 91  1  0  0  0  0
 52 92  1  0  0  0  0
 52 93  1  0  0  0  0
 52 94  1  0  0  0  0
 53 95  1  0  0  0  0
 55 96  1  0  0  0  0
 56 97  1  0  0  0  0
M  CHG  1  29   1
M  CHG  1  30  -1
M  END
