
  xtb     03022212003D
 energy: -32.664757252762 gnorm: 0.000258554344 xtb: 6.4.1 (afa7bdf)
 16 17  0     0  0            999 V2000
   -3.4066    1.3846    1.9778 N   0  0  0  0  0  0  0  0  0  0  0  0
   -2.4778    0.9652    1.4513 C   0  0  0  0  0  0  0  0  0  0  0  0
   -1.3453    0.4216    0.8179 C   0  0  0  0  0  0  0  0  0  0  0  0
   -0.9880   -0.9045    0.9701 C   0  0  0  0  0  0  0  0  0  0  0  0
    0.1331   -1.4735    0.3534 C   0  0  0  0  0  0  0  0  0  0  0  0
    0.9812   -0.7485   -0.4654 C   0  0  0  0  0  0  0  0  0  0  0  0
    2.0680   -1.2588   -1.0830 N   0  0  0  0  0  0  0  0  0  0  0  0
    0.6443    0.6216   -0.6449 C   0  0  0  0  0  0  0  0  0  0  0  0
    1.2334    1.5695   -1.3472 N   0  0  0  0  0  0  0  0  0  0  0  0
    0.5057    2.6673   -1.1681 O   0  0  0  0  0  0  0  0  0  0  0  0
   -0.5440    2.4770   -0.3714 N   0  0  0  0  0  0  0  0  0  0  0  0
   -0.5097    1.2090   -0.0105 C   0  0  0  0  0  0  0  0  0  0  0  0
   -1.6032   -1.5345    1.5957 H   0  0  0  0  0  0  0  0  0  0  0  0
    0.3424   -2.5187    0.5244 H   0  0  0  0  0  0  0  0  0  0  0  0
    2.3271   -2.2192   -0.9515 H   0  0  0  0  0  0  0  0  0  0  0  0
    2.6392   -0.6577   -1.6486 H   0  0  0  0  0  0  0  0  0  0  0  0
  1  2  3  0  0  0  0
  2  3  1  0  0  0  0
  3  4  2  0  0  0  0
  4  5  1  0  0  0  0
  5  6  2  0  0  0  0
  6  7  1  0  0  0  0
  6  8  1  0  0  0  0
  8  9  2  0  0  0  0
  9 10  1  0  0  0  0
 10 11  1  0  0  0  0
 11 12  2  0  0  0  0
 12  3  1  0  0  0  0
 12  8  1  0  0  0  0
  4 13  1  0  0  0  0
  5 14  1  0  0  0  0
  7 15  1  0  0  0  0
  7 16  1  0  0  0  0
M  END
