
  xtb     03022214163D
 energy: -96.264870041588 gnorm: 0.000662055242 xtb: 6.4.1 (afa7bdf)
 59 61  0     0  0            999 V2000
    0.3128    3.4784    3.8799 C   0  0  0  0  0  0  0  0  0  0  0  0
   -0.2673    2.9271    2.5939 C   0  0  0  0  0  0  0  0  0  0  0  0
   -1.3777    3.1806    2.2050 O   0  0  0  0  0  0  0  0  0  0  0  0
    0.5994    2.1318    1.9832 O   0  0  0  0  0  0  0  0  0  0  0  0
    0.3191    1.5495    0.6809 B   0  0  0  0  0  4  0  0  0  0  0  0
    0.2602    2.6293   -0.3292 O   0  0  0  0  0  0  0  0  0  0  0  0
   -0.0202    2.3741   -1.5894 C   0  0  0  0  0  0  0  0  0  0  0  0
   -0.1078    3.6382   -2.4133 C   0  0  0  0  0  0  0  0  0  0  0  0
   -0.1868    1.2669   -2.0493 O   0  0  0  0  0  0  0  0  0  0  0  0
    1.4578    0.6440    0.3659 O   0  0  0  0  0  0  0  0  0  0  0  0
    1.2621   -0.5481   -0.1144 C   0  0  0  0  0  0  0  0  0  0  0  0
    2.4230   -1.2943   -0.5321 C   0  0  0  0  0  0  0  0  0  0  0  0
    3.6745   -0.7867   -0.4787 C   0  0  0  0  0  0  0  0  0  0  0  0
    4.8407   -1.4906   -0.8948 C   0  0  0  0  0  0  0  0  0  0  0  0
    6.0759   -0.9514   -0.8298 C   0  0  0  0  0  0  0  0  0  0  0  0
    7.3215   -1.5705   -1.2215 C   0  0  0  0  0  0  0  0  0  0  0  0
    8.5099   -0.8459   -1.0690 C   0  0  0  0  0  0  0  0  0  0  0  0
    9.7270   -1.3902   -1.4261 C   0  0  0  0  0  0  0  0  0  0  0  0
    9.7882   -2.6735   -1.9455 C   0  0  0  0  0  0  0  0  0  0  0  0
    8.6214   -3.4056   -2.1042 C   0  0  0  0  0  0  0  0  0  0  0  0
    7.4028   -2.8645   -1.7481 C   0  0  0  0  0  0  0  0  0  0  0  0
   -0.0089   -1.1103   -0.2144 C   0  0  0  0  0  0  0  0  0  0  0  0
   -1.1124   -0.3645    0.2072 C   0  0  0  0  0  0  0  0  0  0  0  0
   -2.4469   -0.8997    0.1345 C   0  0  0  0  0  0  0  0  0  0  0  0
   -3.5230   -0.1795    0.5268 C   0  0  0  0  0  0  0  0  0  0  0  0
   -4.8665   -0.6454    0.4669 C   0  0  0  0  0  0  0  0  0  0  0  0
   -5.9088    0.1118    0.8700 C   0  0  0  0  0  0  0  0  0  0  0  0
   -7.3078   -0.2486    0.8569 C   0  0  0  0  0  0  0  0  0  0  0  0
   -7.7780   -1.4830    0.3943 C   0  0  0  0  0  0  0  0  0  0  0  0
   -9.1273   -1.7725    0.4053 C   0  0  0  0  0  0  0  0  0  0  0  0
  -10.0412   -0.8422    0.8763 C   0  0  0  0  0  0  0  0  0  0  0  0
   -9.5939    0.3856    1.3381 C   0  0  0  0  0  0  0  0  0  0  0  0
   -8.2452    0.6787    1.3285 C   0  0  0  0  0  0  0  0  0  0  0  0
   -0.9779    0.8237    0.7032 O   0  0  0  0  0  3  0  0  0  0  0  0
   -0.4290    4.0907    4.3841 H   0  0  0  0  0  0  0  0  0  0  0  0
    1.1911    4.0741    3.6439 H   0  0  0  0  0  0  0  0  0  0  0  0
    0.6206    2.6549    4.5192 H   0  0  0  0  0  0  0  0  0  0  0  0
   -0.3023    3.3888   -3.4519 H   0  0  0  0  0  0  0  0  0  0  0  0
   -0.9091    4.2573   -2.0181 H   0  0  0  0  0  0  0  0  0  0  0  0
    0.8237    4.1907   -2.3238 H   0  0  0  0  0  0  0  0  0  0  0  0
    2.2429   -2.2902   -0.9098 H   0  0  0  0  0  0  0  0  0  0  0  0
    3.7986    0.2179   -0.0964 H   0  0  0  0  0  0  0  0  0  0  0  0
    4.6913   -2.4924   -1.2726 H   0  0  0  0  0  0  0  0  0  0  0  0
    6.1671    0.0569   -0.4430 H   0  0  0  0  0  0  0  0  0  0  0  0
    8.4679    0.1554   -0.6646 H   0  0  0  0  0  0  0  0  0  0  0  0
   10.6321   -0.8145   -1.3003 H   0  0  0  0  0  0  0  0  0  0  0  0
   10.7392   -3.1014   -2.2254 H   0  0  0  0  0  0  0  0  0  0  0  0
    8.6657   -4.4060   -2.5094 H   0  0  0  0  0  0  0  0  0  0  0  0
    6.5063   -3.4498   -1.8802 H   0  0  0  0  0  0  0  0  0  0  0  0
   -0.1409   -2.0924   -0.6310 H   0  0  0  0  0  0  0  0  0  0  0  0
   -2.5508   -1.8987   -0.2630 H   0  0  0  0  0  0  0  0  0  0  0  0
   -3.3486    0.8175    0.9115 H   0  0  0  0  0  0  0  0  0  0  0  0
   -5.0191   -1.6432    0.0791 H   0  0  0  0  0  0  0  0  0  0  0  0
   -5.6923    1.1032    1.2498 H   0  0  0  0  0  0  0  0  0  0  0  0
   -7.0828   -2.2195    0.0229 H   0  0  0  0  0  0  0  0  0  0  0  0
   -9.4730   -2.7302    0.0442 H   0  0  0  0  0  0  0  0  0  0  0  0
  -11.0959   -1.0735    0.8827 H   0  0  0  0  0  0  0  0  0  0  0  0
  -10.3010    1.1144    1.7059 H   0  0  0  0  0  0  0  0  0  0  0  0
   -7.9010    1.6373    1.6893 H   0  0  0  0  0  0  0  0  0  0  0  0
  1  2  1  0  0  0  0
  2  3  2  0  0  0  0
  2  4  1  0  0  0  0
  4  5  1  0  0  0  0
  5  6  1  0  0  0  0
  6  7  1  0  0  0  0
  7  8  1  0  0  0  0
  7  9  2  0  0  0  0
  5 10  1  0  0  0  0
 10 11  1  0  0  0  0
 11 12  1  0  0  0  0
 12 13  2  0  0  0  0
 13 14  1  0  0  0  0
 14 15  2  0  0  0  0
 15 16  1  0  0  0  0
 16 17  2  0  0  0  0
 17 18  1  0  0  0  0
 18 19  2  0  0  0  0
 19 20  1  0  0  0  0
 20 21  2  0  0  0  0
 11 22  2  0  0  0  0
 22 23  1  0  0  0  0
 23 24  1  0  0  0  0
 24 25  2  0  0  0  0
 25 26  1  0  0  0  0
 26 27  2  0  0  0  0
 27 28  1  0  0  0  0
 28 29  2  0  0  0  0
 29 30  1  0  0  0  0
 30 31  2  0  0  0  0
 31 32  1  0  0  0  0
 32 33  2  0  0  0  0
 23 34  2  0  0  0  0
 34  5  1  0  0  0  0
 21 16  1  0  0  0  0
 33 28  1  0  0  0  0
  1 35  1  0  0  0  0
  1 36  1  0  0  0  0
  1 37  1  0  0  0  0
  8 38  1  0  0  0  0
  8 39  1  0  0  0  0
  8 40  1  0  0  0  0
 12 41  1  0  0  0  0
 13 42  1  0  0  0  0
 14 43  1  0  0  0  0
 15 44  1  0  0  0  0
 17 45  1  0  0  0  0
 18 46  1  0  0  0  0
 19 47  1  0  0  0  0
 20 48  1  0  0  0  0
 21 49  1  0  0  0  0
 22 50  1  0  0  0  0
 24 51  1  0  0  0  0
 25 52  1  0  0  0  0
 26 53  1  0  0  0  0
 27 54  1  0  0  0  0
 29 55  1  0  0  0  0
 30 56  1  0  0  0  0
 31 57  1  0  0  0  0
 32 58  1  0  0  0  0
 33 59  1  0  0  0  0
M  CHG  1   5  -1
M  CHG  1  34   1
M  END
