
  xtb     03022212473D
 energy: -57.220631205219 gnorm: 0.000210219136 xtb: 6.4.1 (afa7bdf)
 33 35  0     0  0            999 V2000
   -2.8782   -2.6195   -0.3588 C   0  0  0  0  0  0  0  0  0  0  0  0
   -3.5040   -1.2454   -0.2946 C   0  0  0  0  0  0  0  0  0  0  0  0
   -4.6954   -1.0472   -0.3117 O   0  0  0  0  0  0  0  0  0  0  0  0
   -2.5472   -0.2639   -0.2116 N   0  0  0  0  0  0  0  0  0  0  0  0
   -2.6980    1.1019   -0.1556 C   0  0  0  0  0  0  0  0  0  0  0  0
   -3.9441    1.7315   -0.1500 C   0  0  0  0  0  0  0  0  0  0  0  0
   -4.0374    3.1063   -0.1010 C   0  0  0  0  0  0  0  0  0  0  0  0
   -2.8935    3.9035   -0.0622 C   0  0  0  0  0  0  0  0  0  0  0  0
   -1.6567    3.3116   -0.0722 C   0  0  0  0  0  0  0  0  0  0  0  0
   -1.5200    1.9096   -0.1147 C   0  0  0  0  0  0  0  0  0  0  0  0
   -0.2323    1.4852   -0.1211 N   0  0  0  0  0  0  0  0  0  0  0  0
    0.0124    0.2226   -0.1458 N   0  0  0  0  0  0  0  0  0  0  0  0
    1.2884   -0.1894   -0.0643 C   0  0  0  0  0  0  0  0  0  0  0  0
    2.3362    0.4199    0.3636 N   0  0  0  0  0  0  0  0  0  0  0  0
    3.4260   -0.3786    0.3826 C   0  0  0  0  0  0  0  0  0  0  0  0
    4.7065    0.0007    0.7883 C   0  0  0  0  0  0  0  0  0  0  0  0
    5.7233   -0.9252    0.7340 C   0  0  0  0  0  0  0  0  0  0  0  0
    5.4916   -2.2271    0.2872 C   0  0  0  0  0  0  0  0  0  0  0  0
    4.2345   -2.6301   -0.1171 C   0  0  0  0  0  0  0  0  0  0  0  0
    3.2037   -1.7069   -0.0673 C   0  0  0  0  0  0  0  0  0  0  0  0
    1.5391   -1.9125   -0.4976 S   0  0  0  0  0  0  0  0  0  0  0  0
   -2.2808   -2.7995    0.5326 H   0  0  0  0  0  0  0  0  0  0  0  0
   -3.6606   -3.3696   -0.4262 H   0  0  0  0  0  0  0  0  0  0  0  0
   -2.2287   -2.6944   -1.2283 H   0  0  0  0  0  0  0  0  0  0  0  0
   -1.5571   -0.5442   -0.2108 H   0  0  0  0  0  0  0  0  0  0  0  0
   -4.8328    1.1230   -0.1823 H   0  0  0  0  0  0  0  0  0  0  0  0
   -5.0129    3.5690   -0.0933 H   0  0  0  0  0  0  0  0  0  0  0  0
   -2.9844    4.9781   -0.0254 H   0  0  0  0  0  0  0  0  0  0  0  0
   -0.7480    3.8919   -0.0417 H   0  0  0  0  0  0  0  0  0  0  0  0
    4.8700    1.0101    1.1292 H   0  0  0  0  0  0  0  0  0  0  0  0
    6.7191   -0.6433    1.0412 H   0  0  0  0  0  0  0  0  0  0  0  0
    6.3086   -2.9320    0.2574 H   0  0  0  0  0  0  0  0  0  0  0  0
    4.0526   -3.6359   -0.4623 H   0  0  0  0  0  0  0  0  0  0  0  0
  1  2  1  0  0  0  0
  2  3  2  0  0  0  0
  2  4  1  0  0  0  0
  4  5  1  0  0  0  0
  5  6  2  0  0  0  0
  6  7  1  0  0  0  0
  7  8  2  0  0  0  0
  8  9  1  0  0  0  0
  9 10  2  0  0  0  0
 10 11  1  0  0  0  0
 11 12  2  0  0  0  0
 12 13  1  0  0  0  0
 13 14  2  0  0  0  0
 14 15  1  0  0  0  0
 15 16  2  0  0  0  0
 16 17  1  0  0  0  0
 17 18  2  0  0  0  0
 18 19  1  0  0  0  0
 19 20  2  0  0  0  0
 20 21  1  0  0  0  0
 10  5  1  0  0  0  0
 21 13  1  0  0  0  0
 20 15  1  0  0  0  0
  1 22  1  0  0  0  0
  1 23  1  0  0  0  0
  1 24  1  0  0  0  0
  4 25  1  0  0  0  0
  6 26  1  0  0  0  0
  7 27  1  0  0  0  0
  8 28  1  0  0  0  0
  9 29  1  0  0  0  0
 16 30  1  0  0  0  0
 17 31  1  0  0  0  0
 18 32  1  0  0  0  0
 19 33  1  0  0  0  0
M  END
