
  xtb     03022214213D
 energy: -48.394190044092 gnorm: 0.000239857167 xtb: 6.4.1 (afa7bdf)
 29 31  0     0  0            999 V2000
   -0.2488   -3.4384    0.6710 N   0  0  0  0  0  0  0  0  0  0  0  0
   -0.2725   -2.3154    0.4340 C   0  0  0  0  0  0  0  0  0  0  0  0
   -0.2015   -0.9358    0.1401 C   0  0  0  0  0  0  0  0  0  0  0  0
   -1.2616   -0.1029   -0.0342 C   0  0  0  0  0  0  0  0  0  0  0  0
   -2.6738   -0.3745    0.0290 C   0  0  0  0  0  0  0  0  0  0  0  0
   -3.5524    0.6944   -0.2023 C   0  0  0  0  0  0  0  0  0  0  0  0
   -4.9189    0.5126   -0.1586 C   0  0  0  0  0  0  0  0  0  0  0  0
   -5.4442   -0.7407    0.1174 C   0  0  0  0  0  0  0  0  0  0  0  0
   -4.5903   -1.8081    0.3489 C   0  0  0  0  0  0  0  0  0  0  0  0
   -3.2215   -1.6329    0.3065 C   0  0  0  0  0  0  0  0  0  0  0  0
    1.1433   -0.4133    0.0248 C   0  0  0  0  0  0  0  0  0  0  0  0
    1.4242    0.8133   -0.2399 N   0  0  0  0  0  0  0  0  0  0  0  0
    2.7618    1.0375   -0.2895 C   0  0  0  0  0  0  0  0  0  0  0  0
    3.3766    2.2606   -0.5534 C   0  0  0  0  0  0  0  0  0  0  0  0
    4.7522    2.3226   -0.5672 C   0  0  0  0  0  0  0  0  0  0  0  0
    5.5285    1.1895   -0.3233 C   0  0  0  0  0  0  0  0  0  0  0  0
    4.9434   -0.0328   -0.0599 C   0  0  0  0  0  0  0  0  0  0  0  0
    3.5607   -0.1051   -0.0438 C   0  0  0  0  0  0  0  0  0  0  0  0
    2.5437   -1.4799    0.2532 S   0  0  0  0  0  0  0  0  0  0  0  0
   -0.9940    0.9235   -0.2550 H   0  0  0  0  0  0  0  0  0  0  0  0
   -3.1463    1.6723   -0.4175 H   0  0  0  0  0  0  0  0  0  0  0  0
   -5.5794    1.3477   -0.3395 H   0  0  0  0  0  0  0  0  0  0  0  0
   -6.5137   -0.8846    0.1521 H   0  0  0  0  0  0  0  0  0  0  0  0
   -4.9953   -2.7855    0.5644 H   0  0  0  0  0  0  0  0  0  0  0  0
   -2.5734   -2.4740    0.4893 H   0  0  0  0  0  0  0  0  0  0  0  0
    2.7658    3.1291   -0.7403 H   0  0  0  0  0  0  0  0  0  0  0  0
    5.2418    3.2632   -0.7699 H   0  0  0  0  0  0  0  0  0  0  0  0
    6.6049    1.2691   -0.3406 H   0  0  0  0  0  0  0  0  0  0  0  0
    5.5405   -0.9112    0.1291 H   0  0  0  0  0  0  0  0  0  0  0  0
  1  2  3  0  0  0  0
  2  3  1  0  0  0  0
  3  4  2  0  0  0  0
  4  5  1  0  0  0  0
  5  6  2  0  0  0  0
  6  7  1  0  0  0  0
  7  8  2  0  0  0  0
  8  9  1  0  0  0  0
  9 10  2  0  0  0  0
  3 11  1  0  0  0  0
 11 12  2  0  0  0  0
 12 13  1  0  0  0  0
 13 14  2  0  0  0  0
 14 15  1  0  0  0  0
 15 16  2  0  0  0  0
 16 17  1  0  0  0  0
 17 18  2  0  0  0  0
 18 19  1  0  0  0  0
 10  5  1  0  0  0  0
 19 11  1  0  0  0  0
 18 13  1  0  0  0  0
  4 20  1  0  0  0  0
  6 21  1  0  0  0  0
  7 22  1  0  0  0  0
  8 23  1  0  0  0  0
  9 24  1  0  0  0  0
 10 25  1  0  0  0  0
 14 26  1  0  0  0  0
 15 27  1  0  0  0  0
 16 28  1  0  0  0  0
 17 29  1  0  0  0  0
M  END
