
  xtb     03022214383D
 energy: -130.995130101156 gnorm: 0.000073469847 xtb: 6.4.1 (afa7bdf)
 82 88  0     0  0            999 V2000
  -10.2587    2.5620   -2.8268 C   0  0  0  0  0  0  0  0  0  0  0  0
   -9.0688    3.1536   -2.3695 O   0  0  0  0  0  0  0  0  0  0  0  0
   -8.0757    2.3425   -1.9013 C   0  0  0  0  0  0  0  0  0  0  0  0
   -6.9142    2.9875   -1.4721 C   0  0  0  0  0  0  0  0  0  0  0  0
   -5.8555    2.2622   -0.9764 C   0  0  0  0  0  0  0  0  0  0  0  0
   -5.9245    0.8711   -0.8832 C   0  0  0  0  0  0  0  0  0  0  0  0
   -4.7810    0.1313   -0.3703 C   0  0  0  0  0  0  0  0  0  0  0  0
   -3.5217    0.6069   -0.5467 N   0  0  0  0  0  0  0  0  0  0  0  0
   -2.6944   -0.2868   -0.0490 C   0  0  0  0  0  0  0  0  0  0  0  0
   -1.2560   -0.1640   -0.0407 C   0  0  0  0  0  0  0  0  0  0  0  0
   -0.6802    1.0112   -0.5317 C   0  0  0  0  0  0  0  0  0  0  0  0
    0.6859    1.1767   -0.5424 C   0  0  0  0  0  0  0  0  0  0  0  0
    1.5268    0.1681   -0.0630 C   0  0  0  0  0  0  0  0  0  0  0  0
    2.9650    0.2924   -0.0524 C   0  0  0  0  0  0  0  0  0  0  0  0
    3.7978   -0.6441    0.3482 N   0  0  0  0  0  0  0  0  0  0  0  0
    5.0551   -0.1501    0.2110 C   0  0  0  0  0  0  0  0  0  0  0  0
    6.2049   -0.9387    0.6276 C   0  0  0  0  0  0  0  0  0  0  0  0
    6.1337   -2.3270    0.5784 C   0  0  0  0  0  0  0  0  0  0  0  0
    7.1985   -3.1154    0.9737 C   0  0  0  0  0  0  0  0  0  0  0  0
    8.3654   -2.5204    1.4398 C   0  0  0  0  0  0  0  0  0  0  0  0
    9.4803   -3.1930    1.8495 O   0  0  0  0  0  0  0  0  0  0  0  0
    9.4691   -4.5978    1.8055 C   0  0  0  0  0  0  0  0  0  0  0  0
    8.4348   -1.1278    1.5140 C   0  0  0  0  0  0  0  0  0  0  0  0
    7.3712   -0.3493    1.1176 C   0  0  0  0  0  0  0  0  0  0  0  0
    4.9928    1.1411   -0.3043 C   0  0  0  0  0  0  0  0  0  0  0  0
    6.0034    2.1004   -0.7081 C   0  0  0  0  0  0  0  0  0  0  0  0
    7.1965    1.6815   -1.3045 C   0  0  0  0  0  0  0  0  0  0  0  0
    8.1412    2.5978   -1.7018 C   0  0  0  0  0  0  0  0  0  0  0  0
    7.9285    3.9673   -1.5209 C   0  0  0  0  0  0  0  0  0  0  0  0
    8.9300    4.7854   -1.9472 O   0  0  0  0  0  0  0  0  0  0  0  0
    8.7799    6.1742   -1.7851 C   0  0  0  0  0  0  0  0  0  0  0  0
    6.7419    4.3941   -0.9362 C   0  0  0  0  0  0  0  0  0  0  0  0
    5.7944    3.4668   -0.5405 C   0  0  0  0  0  0  0  0  0  0  0  0
    3.6549    1.4000   -0.4496 N   0  0  0  0  0  0  0  0  0  0  0  0
    0.9511   -1.0091    0.4234 C   0  0  0  0  0  0  0  0  0  0  0  0
   -0.4151   -1.1739    0.4362 C   0  0  0  0  0  0  0  0  0  0  0  0
   -3.3897   -1.3474    0.4530 N   0  0  0  0  0  0  0  0  0  0  0  0
   -4.7260   -1.1002    0.2755 C   0  0  0  0  0  0  0  0  0  0  0  0
   -5.7424   -2.0039    0.7794 C   0  0  0  0  0  0  0  0  0  0  0  0
   -5.5360   -3.3861    0.7748 C   0  0  0  0  0  0  0  0  0  0  0  0
   -6.4905   -4.2434    1.2732 C   0  0  0  0  0  0  0  0  0  0  0  0
   -7.6842   -3.7476    1.8004 C   0  0  0  0  0  0  0  0  0  0  0  0
   -8.5600   -4.6806    2.2666 O   0  0  0  0  0  0  0  0  0  0  0  0
   -9.7846   -4.2448    2.8034 C   0  0  0  0  0  0  0  0  0  0  0  0
   -7.8952   -2.3721    1.8162 C   0  0  0  0  0  0  0  0  0  0  0  0
   -6.9333   -1.5170    1.3136 C   0  0  0  0  0  0  0  0  0  0  0  0
   -7.0758    0.2328   -1.3312 C   0  0  0  0  0  0  0  0  0  0  0  0
   -8.1438    0.9555   -1.8324 C   0  0  0  0  0  0  0  0  0  0  0  0
  -10.0775    1.8958   -3.6768 H   0  0  0  0  0  0  0  0  0  0  0  0
  -10.8947    3.3863   -3.1465 H   0  0  0  0  0  0  0  0  0  0  0  0
  -10.7641    2.0046   -2.0308 H   0  0  0  0  0  0  0  0  0  0  0  0
   -6.8718    4.0632   -1.5423 H   0  0  0  0  0  0  0  0  0  0  0  0
   -4.9539    2.7571   -0.6516 H   0  0  0  0  0  0  0  0  0  0  0  0
   -1.3387    1.7805   -0.9022 H   0  0  0  0  0  0  0  0  0  0  0  0
    1.0979    2.0973   -0.9307 H   0  0  0  0  0  0  0  0  0  0  0  0
    5.2242   -2.7844    0.2213 H   0  0  0  0  0  0  0  0  0  0  0  0
    7.1063   -4.1888    0.9144 H   0  0  0  0  0  0  0  0  0  0  0  0
    8.6912   -5.0154    2.4533 H   0  0  0  0  0  0  0  0  0  0  0  0
   10.4462   -4.9125    2.1693 H   0  0  0  0  0  0  0  0  0  0  0  0
    9.3281   -4.9681    0.7845 H   0  0  0  0  0  0  0  0  0  0  0  0
    9.3401   -0.6809    1.8941 H   0  0  0  0  0  0  0  0  0  0  0  0
    7.4375    0.7252    1.1988 H   0  0  0  0  0  0  0  0  0  0  0  0
    7.3684    0.6275   -1.4584 H   0  0  0  0  0  0  0  0  0  0  0  0
    9.0628    2.2812   -2.1636 H   0  0  0  0  0  0  0  0  0  0  0  0
    8.6786    6.4478   -0.7297 H   0  0  0  0  0  0  0  0  0  0  0  0
    9.6904    6.6178   -2.1849 H   0  0  0  0  0  0  0  0  0  0  0  0
    7.9182    6.5544   -2.3437 H   0  0  0  0  0  0  0  0  0  0  0  0
    6.5429    5.4428   -0.7793 H   0  0  0  0  0  0  0  0  0  0  0  0
    4.8878    3.8199   -0.0684 H   0  0  0  0  0  0  0  0  0  0  0  0
    3.2708    2.2491   -0.8289 H   0  0  0  0  0  0  0  0  0  0  0  0
    1.6100   -1.7806    0.7888 H   0  0  0  0  0  0  0  0  0  0  0  0
   -0.8271   -2.0976    0.8169 H   0  0  0  0  0  0  0  0  0  0  0  0
   -3.0112   -2.1500    0.9272 H   0  0  0  0  0  0  0  0  0  0  0  0
   -4.6287   -3.7949    0.3529 H   0  0  0  0  0  0  0  0  0  0  0  0
   -6.3390   -5.3113    1.2648 H   0  0  0  0  0  0  0  0  0  0  0  0
   -9.6357   -3.6092    3.6825 H   0  0  0  0  0  0  0  0  0  0  0  0
  -10.3800   -3.7039    2.0606 H   0  0  0  0  0  0  0  0  0  0  0  0
  -10.3147   -5.1487    3.0996 H   0  0  0  0  0  0  0  0  0  0  0  0
   -8.8022   -1.9536    2.2232 H   0  0  0  0  0  0  0  0  0  0  0  0
   -7.1017   -0.4512    1.3417 H   0  0  0  0  0  0  0  0  0  0  0  0
   -7.1380   -0.8450   -1.3018 H   0  0  0  0  0  0  0  0  0  0  0  0
   -9.0188    0.4235   -2.1726 H   0  0  0  0  0  0  0  0  0  0  0  0
  1  2  1  0  0  0  0
  2  3  1  0  0  0  0
  3  4  2  0  0  0  0
  4  5  1  0  0  0  0
  5  6  2  0  0  0  0
  6  7  1  0  0  0  0
  7  8  1  0  0  0  0
  8  9  2  0  0  0  0
  9 10  1  0  0  0  0
 10 11  2  0  0  0  0
 11 12  1  0  0  0  0
 12 13  2  0  0  0  0
 13 14  1  0  0  0  0
 14 15  2  0  0  0  0
 15 16  1  0  0  0  0
 16 17  1  0  0  0  0
 17 18  2  0  0  0  0
 18 19  1  0  0  0  0
 19 20  2  0  0  0  0
 20 21  1  0  0  0  0
 21 22  1  0  0  0  0
 20 23  1  0  0  0  0
 23 24  2  0  0  0  0
 16 25  2  0  0  0  0
 25 26  1  0  0  0  0
 26 27  2  0  0  0  0
 27 28  1  0  0  0  0
 28 29  2  0  0  0  0
 29 30  1  0  0  0  0
 30 31  1  0  0  0  0
 29 32  1  0  0  0  0
 32 33  2  0  0  0  0
 25 34  1  0  0  0  0
 13 35  1  0  0  0  0
 35 36  2  0  0  0  0
  9 37  1  0  0  0  0
 37 38  1  0  0  0  0
 38 39  1  0  0  0  0
 39 40  2  0  0  0  0
 40 41  1  0  0  0  0
 41 42  2  0  0  0  0
 42 43  1  0  0  0  0
 43 44  1  0  0  0  0
 42 45  1  0  0  0  0
 45 46  2  0  0  0  0
  6 47  1  0  0  0  0
 47 48  2  0  0  0  0
 48  3  1  0  0  0  0
 38  7  2  0  0  0  0
 46 39  1  0  0  0  0
 36 10  1  0  0  0  0
 34 14  1  0  0  0  0
 24 17  1  0  0  0  0
 33 26  1  0  0  0  0
  1 49  1  0  0  0  0
  1 50  1  0  0  0  0
  1 51  1  0  0  0  0
  4 52  1  0  0  0  0
  5 53  1  0  0  0  0
 11 54  1  0  0  0  0
 12 55  1  0  0  0  0
 18 56  1  0  0  0  0
 19 57  1  0  0  0  0
 22 58  1  0  0  0  0
 22 59  1  0  0  0  0
 22 60  1  0  0  0  0
 23 61  1  0  0  0  0
 24 62  1  0  0  0  0
 27 63  1  0  0  0  0
 28 64  1  0  0  0  0
 31 65  1  0  0  0  0
 31 66  1  0  0  0  0
 31 67  1  0  0  0  0
 32 68  1  0  0  0  0
 33 69  1  0  0  0  0
 34 70  1  0  0  0  0
 35 71  1  0  0  0  0
 36 72  1  0  0  0  0
 37 73  1  0  0  0  0
 40 74  1  0  0  0  0
 41 75  1  0  0  0  0
 44 76  1  0  0  0  0
 44 77  1  0  0  0  0
 44 78  1  0  0  0  0
 45 79  1  0  0  0  0
 46 80  1  0  0  0  0
 47 81  1  0  0  0  0
 48 82  1  0  0  0  0
M  END
