
  xtb     03022215343D
 energy: -68.572567616903 gnorm: 0.000090694728 xtb: 6.4.1 (afa7bdf)
 44 46  0     0  0            999 V2000
    4.0879    5.0626   -0.4574 C   0  0  0  0  0  0  0  0  0  0  0  0
    2.8767    4.4909   -0.0294 O   0  0  0  0  0  0  0  0  0  0  0  0
    2.7636    3.1331   -0.0184 C   0  0  0  0  0  0  0  0  0  0  0  0
    3.7605    2.2454   -0.4116 C   0  0  0  0  0  0  0  0  0  0  0  0
    3.5317    0.8830   -0.3635 C   0  0  0  0  0  0  0  0  0  0  0  0
    2.3093    0.3791    0.0757 C   0  0  0  0  0  0  0  0  0  0  0  0
    2.0624   -1.0076    0.1148 C   0  0  0  0  0  0  0  0  0  0  0  0
    1.8310   -2.1931    0.1465 C   0  0  0  0  0  0  0  0  0  0  0  0
    1.4954   -3.5599    0.2071 C   0  0  0  0  0  0  0  0  0  0  0  0
    2.4715   -4.5533    0.1768 C   0  0  0  0  0  0  0  0  0  0  0  0
    2.1125   -5.8855    0.2564 C   0  0  0  0  0  0  0  0  0  0  0  0
    0.7763   -6.2444    0.3690 C   0  0  0  0  0  0  0  0  0  0  0  0
   -0.2060   -5.2725    0.3977 C   0  0  0  0  0  0  0  0  0  0  0  0
    0.1367   -3.9251    0.3140 C   0  0  0  0  0  0  0  0  0  0  0  0
   -0.8429   -2.9123    0.3226 C   0  0  0  0  0  0  0  0  0  0  0  0
   -1.6426   -2.0066    0.3117 C   0  0  0  0  0  0  0  0  0  0  0  0
   -2.5529   -0.9306    0.2963 C   0  0  0  0  0  0  0  0  0  0  0  0
   -2.2410    0.2324   -0.4066 C   0  0  0  0  0  0  0  0  0  0  0  0
   -3.1091    1.3074   -0.4188 C   0  0  0  0  0  0  0  0  0  0  0  0
   -4.3135    1.2371    0.2753 C   0  0  0  0  0  0  0  0  0  0  0  0
   -5.2402    2.2336    0.3355 O   0  0  0  0  0  0  0  0  0  0  0  0
   -4.9807    3.4367   -0.3444 C   0  0  0  0  0  0  0  0  0  0  0  0
   -4.6318    0.0702    0.9754 C   0  0  0  0  0  0  0  0  0  0  0  0
   -3.7668   -0.9991    0.9864 C   0  0  0  0  0  0  0  0  0  0  0  0
    1.3124    1.2754    0.4775 C   0  0  0  0  0  0  0  0  0  0  0  0
    1.5381    2.6305    0.4285 C   0  0  0  0  0  0  0  0  0  0  0  0
    4.3113    4.8022   -1.4973 H   0  0  0  0  0  0  0  0  0  0  0  0
    4.9242    4.7592    0.1810 H   0  0  0  0  0  0  0  0  0  0  0  0
    3.9496    6.1399   -0.3793 H   0  0  0  0  0  0  0  0  0  0  0  0
    4.7181    2.6027   -0.7573 H   0  0  0  0  0  0  0  0  0  0  0  0
    4.3084    0.1984   -0.6723 H   0  0  0  0  0  0  0  0  0  0  0  0
    3.5104   -4.2677    0.0938 H   0  0  0  0  0  0  0  0  0  0  0  0
    2.8756   -6.6497    0.2326 H   0  0  0  0  0  0  0  0  0  0  0  0
    0.5019   -7.2872    0.4329 H   0  0  0  0  0  0  0  0  0  0  0  0
   -1.2481   -5.5459    0.4809 H   0  0  0  0  0  0  0  0  0  0  0  0
   -1.3094    0.2876   -0.9510 H   0  0  0  0  0  0  0  0  0  0  0  0
   -2.8357    2.1924   -0.9720 H   0  0  0  0  0  0  0  0  0  0  0  0
   -4.0776    3.9267    0.0340 H   0  0  0  0  0  0  0  0  0  0  0  0
   -5.8421    4.0750   -0.1534 H   0  0  0  0  0  0  0  0  0  0  0  0
   -4.8824    3.2767   -1.4232 H   0  0  0  0  0  0  0  0  0  0  0  0
   -5.5707    0.0336    1.5054 H   0  0  0  0  0  0  0  0  0  0  0  0
   -4.0179   -1.8963    1.5326 H   0  0  0  0  0  0  0  0  0  0  0  0
    0.3668    0.8910    0.8302 H   0  0  0  0  0  0  0  0  0  0  0  0
    0.7790    3.3334    0.7343 H   0  0  0  0  0  0  0  0  0  0  0  0
  1  2  1  0  0  0  0
  2  3  1  0  0  0  0
  3  4  2  0  0  0  0
  4  5  1  0  0  0  0
  5  6  2  0  0  0  0
  6  7  1  0  0  0  0
  7  8  3  0  0  0  0
  8  9  1  0  0  0  0
  9 10  2  0  0  0  0
 10 11  1  0  0  0  0
 11 12  2  0  0  0  0
 12 13  1  0  0  0  0
 13 14  2  0  0  0  0
 14 15  1  0  0  0  0
 15 16  3  0  0  0  0
 16 17  1  0  0  0  0
 17 18  2  0  0  0  0
 18 19  1  0  0  0  0
 19 20  2  0  0  0  0
 20 21  1  0  0  0  0
 21 22  1  0  0  0  0
 20 23  1  0  0  0  0
 23 24  2  0  0  0  0
  6 25  1  0  0  0  0
 25 26  2  0  0  0  0
 26  3  1  0  0  0  0
 14  9  1  0  0  0  0
 24 17  1  0  0  0  0
  1 27  1  0  0  0  0
  1 28  1  0  0  0  0
  1 29  1  0  0  0  0
  4 30  1  0  0  0  0
  5 31  1  0  0  0  0
 10 32  1  0  0  0  0
 11 33  1  0  0  0  0
 12 34  1  0  0  0  0
 13 35  1  0  0  0  0
 18 36  1  0  0  0  0
 19 37  1  0  0  0  0
 22 38  1  0  0  0  0
 22 39  1  0  0  0  0
 22 40  1  0  0  0  0
 23 41  1  0  0  0  0
 24 42  1  0  0  0  0
 25 43  1  0  0  0  0
 26 44  1  0  0  0  0
M  END
