
  xtb     03022212133D
 energy: -142.322047256666 gnorm: 0.000514951800 xtb: 6.4.1 (afa7bdf)
 92 96  0     0  0            999 V2000
    9.2789    2.1389    2.8562 C   0  0  0  0  0  0  0  0  0  0  0  0
    7.9129    1.8837    3.4771 C   0  0  0  0  0  0  0  0  0  0  0  0
    7.0530    1.1816    2.5768 O   0  0  0  0  0  0  0  0  0  0  0  0
    6.3888    1.9116    1.6716 C   0  0  0  0  0  0  0  0  0  0  0  0
    6.4661    3.1075    1.5845 O   0  0  0  0  0  0  0  0  0  0  0  0
    5.5300    1.0199    0.8028 C   0  0  0  0  0  0  0  0  0  0  0  0
    4.8737    1.8033   -0.3307 C   0  0  0  0  0  0  0  0  0  0  0  0
    3.8415    0.9865   -1.1064 C   0  0  0  0  0  0  0  0  0  0  0  0
    4.4768   -0.1348   -1.9262 C   0  0  0  0  0  0  0  0  0  0  0  0
    3.4499   -0.9732   -2.6988 C   0  0  0  0  0  0  0  0  0  0  0  0
    2.5965   -1.7612   -1.8277 N   0  0  0  0  0  0  0  0  0  0  0  0
    3.0819   -2.9459   -1.3088 C   0  0  0  0  0  0  0  0  0  0  0  0
    4.3804   -3.4025   -1.5745 C   0  0  0  0  0  0  0  0  0  0  0  0
    4.8594   -4.5881   -1.0582 C   0  0  0  0  0  0  0  0  0  0  0  0
    4.0623   -5.3880   -0.2381 C   0  0  0  0  0  0  0  0  0  0  0  0
    4.4477   -6.5692    0.3195 O   0  0  0  0  0  0  0  0  0  0  0  0
    5.7428   -7.0472    0.0539 C   0  0  0  0  0  0  0  0  0  0  0  0
    2.7771   -4.9553    0.0354 C   0  0  0  0  0  0  0  0  0  0  0  0
    2.2817   -3.7615   -0.4826 C   0  0  0  0  0  0  0  0  0  0  0  0
    0.9076   -3.3936   -0.1485 C   0  0  0  0  0  0  0  0  0  0  0  0
    0.1815   -4.0842    0.5545 O   0  0  0  0  0  0  0  0  0  0  0  0
    0.4629   -2.1220   -0.7250 C   0  0  0  0  0  0  0  0  0  0  0  0
   -0.8361   -1.7198   -0.4408 C   0  0  0  0  0  0  0  0  0  0  0  0
   -1.3692   -0.5276   -0.9185 C   0  0  0  0  0  0  0  0  0  0  0  0
   -0.5010    0.2836   -1.6790 C   0  0  0  0  0  0  0  0  0  0  0  0
    0.7955   -0.1214   -1.9661 C   0  0  0  0  0  0  0  0  0  0  0  0
    1.3200   -1.3334   -1.5249 C   0  0  0  0  0  0  0  0  0  0  0  0
   -0.9324    1.5892   -2.1856 C   0  0  0  0  0  0  0  0  0  0  0  0
   -0.2176    2.2883   -2.8945 O   0  0  0  0  0  0  0  0  0  0  0  0
   -2.2699    1.9905   -1.7586 C   0  0  0  0  0  0  0  0  0  0  0  0
   -2.7069    3.2697   -2.1211 C   0  0  0  0  0  0  0  0  0  0  0  0
   -3.9526    3.7264   -1.7494 C   0  0  0  0  0  0  0  0  0  0  0  0
   -4.4741    4.9479   -2.0509 O   0  0  0  0  0  0  0  0  0  0  0  0
   -3.6832    5.8306   -2.8108 C   0  0  0  0  0  0  0  0  0  0  0  0
   -4.7671    2.8777   -0.9878 C   0  0  0  0  0  0  0  0  0  0  0  0
   -4.3526    1.6207   -0.6272 C   0  0  0  0  0  0  0  0  0  0  0  0
   -3.0922    1.1299   -1.0097 C   0  0  0  0  0  0  0  0  0  0  0  0
   -2.6664   -0.1380   -0.6729 N   0  0  0  0  0  0  0  0  0  0  0  0
   -3.5857   -1.0691   -0.0481 C   0  0  0  0  0  0  0  0  0  0  0  0
   -3.5769   -0.9533    1.4805 C   0  0  0  0  0  0  0  0  0  0  0  0
   -4.6764   -1.7863    2.1407 C   0  0  0  0  0  0  0  0  0  0  0  0
   -6.0916   -1.2496    1.9163 C   0  0  0  0  0  0  0  0  0  0  0  0
   -6.3561    0.0573    2.6758 C   0  0  0  0  0  0  0  0  0  0  0  0
   -7.6386    0.6859    2.1828 C   0  0  0  0  0  0  0  0  0  0  0  0
   -8.6920    0.6720    2.7600 O   0  0  0  0  0  0  0  0  0  0  0  0
   -7.4468    1.2453    0.9809 O   0  0  0  0  0  0  0  0  0  0  0  0
   -8.5679    1.8776    0.3610 C   0  0  0  0  0  0  0  0  0  0  0  0
   -8.7623    3.2964    0.8753 C   0  0  0  0  0  0  0  0  0  0  0  0
    9.9265    2.6186    3.5843 H   0  0  0  0  0  0  0  0  0  0  0  0
    9.1770    2.7909    1.9922 H   0  0  0  0  0  0  0  0  0  0  0  0
    9.7303    1.2010    2.5416 H   0  0  0  0  0  0  0  0  0  0  0  0
    7.9920    1.2391    4.3549 H   0  0  0  0  0  0  0  0  0  0  0  0
    7.4395    2.8324    3.7504 H   0  0  0  0  0  0  0  0  0  0  0  0
    4.7699    0.5678    1.4448 H   0  0  0  0  0  0  0  0  0  0  0  0
    6.1630    0.2139    0.4294 H   0  0  0  0  0  0  0  0  0  0  0  0
    4.3856    2.6792    0.0995 H   0  0  0  0  0  0  0  0  0  0  0  0
    5.6458    2.1657   -1.0118 H   0  0  0  0  0  0  0  0  0  0  0  0
    3.3048    1.6613   -1.7755 H   0  0  0  0  0  0  0  0  0  0  0  0
    3.1173    0.5644   -0.4064 H   0  0  0  0  0  0  0  0  0  0  0  0
    5.1743    0.2977   -2.6467 H   0  0  0  0  0  0  0  0  0  0  0  0
    5.0394   -0.7906   -1.2611 H   0  0  0  0  0  0  0  0  0  0  0  0
    3.9640   -1.6529   -3.3839 H   0  0  0  0  0  0  0  0  0  0  0  0
    2.8304   -0.3236   -3.3142 H   0  0  0  0  0  0  0  0  0  0  0  0
    5.0542   -2.8384   -2.1966 H   0  0  0  0  0  0  0  0  0  0  0  0
    5.8684   -4.8805   -1.3041 H   0  0  0  0  0  0  0  0  0  0  0  0
    5.8239   -7.9904    0.5917 H   0  0  0  0  0  0  0  0  0  0  0  0
    5.8952   -7.2286   -1.0154 H   0  0  0  0  0  0  0  0  0  0  0  0
    6.5113   -6.3577    0.4193 H   0  0  0  0  0  0  0  0  0  0  0  0
    2.1275   -5.5461    0.6617 H   0  0  0  0  0  0  0  0  0  0  0  0
   -1.3889   -2.3956    0.1918 H   0  0  0  0  0  0  0  0  0  0  0  0
    1.3601    0.5883   -2.5477 H   0  0  0  0  0  0  0  0  0  0  0  0
   -2.0145    3.8616   -2.6987 H   0  0  0  0  0  0  0  0  0  0  0  0
   -2.7522    6.0806   -2.2928 H   0  0  0  0  0  0  0  0  0  0  0  0
   -4.2817    6.7316   -2.9348 H   0  0  0  0  0  0  0  0  0  0  0  0
   -3.4481    5.4115   -3.7940 H   0  0  0  0  0  0  0  0  0  0  0  0
   -5.7367    3.2356   -0.6809 H   0  0  0  0  0  0  0  0  0  0  0  0
   -5.0283    1.0358   -0.0277 H   0  0  0  0  0  0  0  0  0  0  0  0
   -3.3147   -2.0829   -0.3488 H   0  0  0  0  0  0  0  0  0  0  0  0
   -4.5830   -0.8771   -0.4453 H   0  0  0  0  0  0  0  0  0  0  0  0
   -3.6788    0.0970    1.7577 H   0  0  0  0  0  0  0  0  0  0  0  0
   -2.6079   -1.2902    1.8527 H   0  0  0  0  0  0  0  0  0  0  0  0
   -4.6223   -2.8057    1.7531 H   0  0  0  0  0  0  0  0  0  0  0  0
   -4.4859   -1.8321    3.2145 H   0  0  0  0  0  0  0  0  0  0  0  0
   -6.8121   -1.9978    2.2516 H   0  0  0  0  0  0  0  0  0  0  0  0
   -6.2648   -1.0871    0.8515 H   0  0  0  0  0  0  0  0  0  0  0  0
   -5.5460    0.7656    2.5021 H   0  0  0  0  0  0  0  0  0  0  0  0
   -6.4443   -0.1379    3.7441 H   0  0  0  0  0  0  0  0  0  0  0  0
   -8.3405    1.8722   -0.7073 H   0  0  0  0  0  0  0  0  0  0  0  0
   -9.4637    1.2791    0.5561 H   0  0  0  0  0  0  0  0  0  0  0  0
   -7.8577    3.8819    0.7276 H   0  0  0  0  0  0  0  0  0  0  0  0
   -9.0008    3.2769    1.9359 H   0  0  0  0  0  0  0  0  0  0  0  0
   -9.5807    3.7681    0.3391 H   0  0  0  0  0  0  0  0  0  0  0  0
  1  2  1  0  0  0  0
  2  3  1  0  0  0  0
  3  4  1  0  0  0  0
  4  5  2  0  0  0  0
  4  6  1  0  0  0  0
  6  7  1  0  0  0  0
  7  8  1  0  0  0  0
  8  9  1  0  0  0  0
  9 10  1  0  0  0  0
 10 11  1  0  0  0  0
 11 12  1  0  0  0  0
 12 13  2  0  0  0  0
 13 14  1  0  0  0  0
 14 15  2  0  0  0  0
 15 16  1  0  0  0  0
 16 17  1  0  0  0  0
 15 18  1  0  0  0  0
 18 19  2  0  0  0  0
 19 20  1  0  0  0  0
 20 21  2  0  0  0  0
 20 22  1  0  0  0  0
 22 23  2  0  0  0  0
 23 24  1  0  0  0  0
 24 25  2  0  0  0  0
 25 26  1  0  0  0  0
 26 27  2  0  0  0  0
 25 28  1  0  0  0  0
 28 29  2  0  0  0  0
 28 30  1  0  0  0  0
 30 31  2  0  0  0  0
 31 32  1  0  0  0  0
 32 33  1  0  0  0  0
 33 34  1  0  0  0  0
 32 35  2  0  0  0  0
 35 36  1  0  0  0  0
 36 37  2  0  0  0  0
 37 38  1  0  0  0  0
 38 39  1  0  0  0  0
 39 40  1  0  0  0  0
 40 41  1  0  0  0  0
 41 42  1  0  0  0  0
 42 43  1  0  0  0  0
 43 44  1  0  0  0  0
 44 45  2  0  0  0  0
 44 46  1  0  0  0  0
 46 47  1  0  0  0  0
 47 48  1  0  0  0  0
 27 11  1  0  0  0  0
 37 30  1  0  0  0  0
 19 12  1  0  0  0  0
 27 22  1  0  0  0  0
 38 24  1  0  0  0  0
  1 49  1  0  0  0  0
  1 50  1  0  0  0  0
  1 51  1  0  0  0  0
  2 52  1  0  0  0  0
  2 53  1  0  0  0  0
  6 54  1  0  0  0  0
  6 55  1  0  0  0  0
  7 56  1  0  0  0  0
  7 57  1  0  0  0  0
  8 58  1  0  0  0  0
  8 59  1  0  0  0  0
  9 60  1  0  0  0  0
  9 61  1  0  0  0  0
 10 62  1  0  0  0  0
 10 63  1  0  0  0  0
 13 64  1  0  0  0  0
 14 65  1  0  0  0  0
 17 66  1  0  0  0  0
 17 67  1  0  0  0  0
 17 68  1  0  0  0  0
 18 69  1  0  0  0  0
 23 70  1  0  0  0  0
 26 71  1  0  0  0  0
 31 72  1  0  0  0  0
 34 73  1  0  0  0  0
 34 74  1  0  0  0  0
 34 75  1  0  0  0  0
 35 76  1  0  0  0  0
 36 77  1  0  0  0  0
 39 78  1  0  0  0  0
 39 79  1  0  0  0  0
 40 80  1  0  0  0  0
 40 81  1  0  0  0  0
 41 82  1  0  0  0  0
 41 83  1  0  0  0  0
 42 84  1  0  0  0  0
 42 85  1  0  0  0  0
 43 86  1  0  0  0  0
 43 87  1  0  0  0  0
 47 88  1  0  0  0  0
 47 89  1  0  0  0  0
 48 90  1  0  0  0  0
 48 91  1  0  0  0  0
 48 92  1  0  0  0  0
M  END
