
  xtb     03022213063D
 energy: -145.860290207226 gnorm: 0.000389264718 xtb: 6.4.1 (afa7bdf)
 75 82  0     0  0            999 V2000
   -1.1612   -2.2868    1.7508 C   0  0  0  0  0  0  0  0  0  0  0  0
   -0.0423   -1.6662    0.9200 C   0  0  0  0  0  0  0  0  0  0  0  0
   -0.5126   -0.5423   -0.0209 C   0  0  0  0  0  0  0  0  0  0  0  0
   -1.4401    0.3844    0.7303 C   0  0  0  0  0  0  0  0  0  0  0  0
   -0.8260    1.3535    1.4634 C   0  0  0  0  0  0  0  0  0  0  0  0
    0.6175    1.4934    1.4762 C   0  0  0  0  0  0  0  0  0  0  0  0
    1.3949    0.8755    0.5438 C   0  0  0  0  0  0  0  0  0  0  0  0
    2.8220    0.7097    0.4582 C   0  0  0  0  0  0  0  0  0  0  0  0
    3.8077    1.1596    1.3476 C   0  0  0  0  0  0  0  0  0  0  0  0
    5.1361    0.9029    1.0959 C   0  0  0  0  0  0  0  0  0  0  0  0
    5.5575    0.1830   -0.0338 C   0  0  0  0  0  0  0  0  0  0  0  0
    6.9498   -0.0590   -0.2956 C   0  0  0  0  0  0  0  0  0  0  0  0
    8.0510    0.3486    0.4198 C   0  0  0  0  0  0  0  0  0  0  0  0
    9.2674   -0.0666   -0.1418 C   0  0  0  0  0  0  0  0  0  0  0  0
    9.1167   -0.7941   -1.2880 C   0  0  0  0  0  0  0  0  0  0  0  0
   10.1743   -1.3935   -2.1404 C   0  0  0  0  0  0  0  0  0  0  0  0
    7.4474   -0.9778   -1.6937 S   0  0  0  0  0  0  0  0  0  0  0  0
    4.5661   -0.3163   -0.8949 C   0  0  0  0  0  0  0  0  0  0  0  0
    3.2510   -0.0542   -0.6347 C   0  0  0  0  0  0  0  0  0  0  0  0
    1.8555   -0.7121   -1.5512 S   0  0  0  0  0  6  0  0  0  0  0  0
    1.7577   -2.1148   -1.2653 O   0  0  0  0  0  0  0  0  0  0  0  0
    1.9340   -0.3344   -2.9289 O   0  0  0  0  0  0  0  0  0  0  0  0
    0.6176    0.2817   -0.6102 C   0  0  0  0  0  0  0  0  0  0  0  0
    0.1638    1.4107   -1.5520 C   0  0  0  0  0  0  0  0  0  0  0  0
    1.2560    2.4390   -1.8332 C   0  0  0  0  0  0  0  0  0  0  0  0
    1.0249    2.4404    2.5653 C   0  0  0  0  0  0  0  0  0  0  0  0
    1.5019    1.8157    3.6758 F   0  0  0  0  0  0  0  0  0  0  0  0
    1.9903    3.3173    2.1979 F   0  0  0  0  0  0  0  0  0  0  0  0
   -0.2749    3.2244    2.9080 C   0  0  0  0  0  0  0  0  0  0  0  0
   -0.2807    4.3853    2.2189 F   0  0  0  0  0  0  0  0  0  0  0  0
   -0.3679    3.5395    4.2093 F   0  0  0  0  0  0  0  0  0  0  0  0
   -1.4468    2.3276    2.4208 C   0  0  0  0  0  0  0  0  0  0  0  0
   -2.4248    3.0921    1.8775 F   0  0  0  0  0  0  0  0  0  0  0  0
   -2.0168    1.7124    3.4936 F   0  0  0  0  0  0  0  0  0  0  0  0
   -2.8394    0.0830    0.5548 C   0  0  0  0  0  0  0  0  0  0  0  0
   -3.9375    0.5515    1.2879 C   0  0  0  0  0  0  0  0  0  0  0  0
   -5.2104    0.1485    0.9533 C   0  0  0  0  0  0  0  0  0  0  0  0
   -5.4661   -0.7319   -0.1087 C   0  0  0  0  0  0  0  0  0  0  0  0
   -6.8084   -1.1244   -0.4418 C   0  0  0  0  0  0  0  0  0  0  0  0
   -7.2391   -1.9730   -1.4328 C   0  0  0  0  0  0  0  0  0  0  0  0
   -8.6337   -2.1248   -1.4723 C   0  0  0  0  0  0  0  0  0  0  0  0
   -9.2881   -1.3988   -0.5190 C   0  0  0  0  0  0  0  0  0  0  0  0
  -10.7492   -1.3144   -0.2693 C   0  0  0  0  0  0  0  0  0  0  0  0
   -8.1738   -0.5060    0.4538 S   0  0  0  0  0  0  0  0  0  0  0  0
   -4.3643   -1.2177   -0.8329 C   0  0  0  0  0  0  0  0  0  0  0  0
   -3.1064   -0.8063   -0.4933 C   0  0  0  0  0  0  0  0  0  0  0  0
   -1.5899   -1.3332   -1.2953 S   0  0  0  0  0  6  0  0  0  0  0  0
   -1.4794   -0.6896   -2.5721 O   0  0  0  0  0  0  0  0  0  0  0  0
   -1.5117   -2.7618   -1.2770 O   0  0  0  0  0  0  0  0  0  0  0  0
   -1.9157   -2.7288    1.1070 H   0  0  0  0  0  0  0  0  0  0  0  0
   -0.7403   -3.0767    2.3680 H   0  0  0  0  0  0  0  0  0  0  0  0
   -1.6308   -1.5583    2.4091 H   0  0  0  0  0  0  0  0  0  0  0  0
    0.4093   -2.4426    0.3027 H   0  0  0  0  0  0  0  0  0  0  0  0
    0.7238   -1.2745    1.5938 H   0  0  0  0  0  0  0  0  0  0  0  0
    3.5514    1.7028    2.2393 H   0  0  0  0  0  0  0  0  0  0  0  0
    5.8723    1.2661    1.7946 H   0  0  0  0  0  0  0  0  0  0  0  0
    7.9956    0.9313    1.3209 H   0  0  0  0  0  0  0  0  0  0  0  0
   10.2274    0.1640    0.2850 H   0  0  0  0  0  0  0  0  0  0  0  0
   10.0892   -2.4802   -2.1491 H   0  0  0  0  0  0  0  0  0  0  0  0
   11.1573   -1.1218   -1.7632 H   0  0  0  0  0  0  0  0  0  0  0  0
   10.0812   -1.0468   -3.1689 H   0  0  0  0  0  0  0  0  0  0  0  0
    4.8262   -0.9126   -1.7561 H   0  0  0  0  0  0  0  0  0  0  0  0
   -0.1401    0.9543   -2.4936 H   0  0  0  0  0  0  0  0  0  0  0  0
   -0.7039    1.9190   -1.1253 H   0  0  0  0  0  0  0  0  0  0  0  0
    1.5828    2.9452   -0.9267 H   0  0  0  0  0  0  0  0  0  0  0  0
    2.1108    1.9661   -2.3076 H   0  0  0  0  0  0  0  0  0  0  0  0
    0.8642    3.1894   -2.5150 H   0  0  0  0  0  0  0  0  0  0  0  0
   -3.8130    1.2062    2.1312 H   0  0  0  0  0  0  0  0  0  0  0  0
   -6.0442    0.5191    1.5315 H   0  0  0  0  0  0  0  0  0  0  0  0
   -6.5779   -2.4749   -2.1149 H   0  0  0  0  0  0  0  0  0  0  0  0
   -9.1423   -2.7512   -2.1833 H   0  0  0  0  0  0  0  0  0  0  0  0
  -11.2841   -1.9560   -0.9648 H   0  0  0  0  0  0  0  0  0  0  0  0
  -10.9841   -1.6235    0.7487 H   0  0  0  0  0  0  0  0  0  0  0  0
  -11.1011   -0.2905   -0.3931 H   0  0  0  0  0  0  0  0  0  0  0  0
   -4.4836   -1.9048   -1.6538 H   0  0  0  0  0  0  0  0  0  0  0  0
  1  2  1  0  0  0  0
  2  3  1  0  0  0  0
  3  4  1  0  0  0  0
  4  5  2  0  0  0  0
  5  6  1  0  0  0  0
  6  7  2  0  0  0  0
  7  8  1  0  0  0  0
  8  9  2  0  0  0  0
  9 10  1  0  0  0  0
 10 11  2  0  0  0  0
 11 12  1  0  0  0  0
 12 13  2  0  0  0  0
 13 14  1  0  0  0  0
 14 15  2  0  0  0  0
 15 16  1  0  0  0  0
 15 17  1  0  0  0  0
 11 18  1  0  0  0  0
 18 19  2  0  0  0  0
 19 20  1  0  0  0  0
 20 21  2  0  0  0  0
 20 22  2  0  0  0  0
 20 23  1  0  0  0  0
 23 24  1  0  0  0  0
 24 25  1  0  0  0  0
  6 26  1  0  0  0  0
 26 27  1  0  0  0  0
 26 28  1  0  0  0  0
 26 29  1  0  0  0  0
 29 30  1  0  0  0  0
 29 31  1  0  0  0  0
 29 32  1  0  0  0  0
 32 33  1  0  0  0  0
 32 34  1  0  0  0  0
  4 35  1  0  0  0  0
 35 36  2  0  0  0  0
 36 37  1  0  0  0  0
 37 38  2  0  0  0  0
 38 39  1  0  0  0  0
 39 40  2  0  0  0  0
 40 41  1  0  0  0  0
 41 42  2  0  0  0  0
 42 43  1  0  0  0  0
 42 44  1  0  0  0  0
 38 45  1  0  0  0  0
 45 46  2  0  0  0  0
 46 47  1  0  0  0  0
 47 48  2  0  0  0  0
 47 49  2  0  0  0  0
 23  3  1  0  0  0  0
 46 35  1  0  0  0  0
 47  3  1  0  0  0  0
 32  5  1  0  0  0  0
 44 39  1  0  0  0  0
 23  7  1  0  0  0  0
 19  8  1  0  0  0  0
 17 12  1  0  0  0  0
  1 50  1  0  0  0  0
  1 51  1  0  0  0  0
  1 52  1  0  0  0  0
  2 53  1  0  0  0  0
  2 54  1  0  0  0  0
  9 55  1  0  0  0  0
 10 56  1  0  0  0  0
 13 57  1  0  0  0  0
 14 58  1  0  0  0  0
 16 59  1  0  0  0  0
 16 60  1  0  0  0  0
 16 61  1  0  0  0  0
 18 62  1  0  0  0  0
 24 63  1  0  0  0  0
 24 64  1  0  0  0  0
 25 65  1  0  0  0  0
 25 66  1  0  0  0  0
 25 67  1  0  0  0  0
 36 68  1  0  0  0  0
 37 69  1  0  0  0  0
 40 70  1  0  0  0  0
 41 71  1  0  0  0  0
 43 72  1  0  0  0  0
 43 73  1  0  0  0  0
 43 74  1  0  0  0  0
 45 75  1  0  0  0  0
M  END
