
  xtb     03022213413D
 energy: -53.023597490743 gnorm: 0.000208763459 xtb: 6.4.1 (afa7bdf)
 37 40  0     0  0            999 V2000
    2.0928    2.9792    0.6897 C   0  0  0  0  0  0  0  0  0  0  0  0
    0.6312    2.4631    0.3365 B   0  0  0  0  0  0  0  0  0  0  0  0
   -0.4872    3.4339   -0.0159 C   0  0  0  0  0  0  0  0  0  0  0  0
   -1.6389    2.9512   -0.5326 C   0  0  0  0  0  0  0  0  0  0  0  0
   -1.8863    1.5492   -0.6091 C   0  0  0  0  0  0  0  0  0  0  0  0
   -3.0971    1.0936   -1.1868 C   0  0  0  0  0  0  0  0  0  0  0  0
   -3.3804   -0.2281   -1.2838 C   0  0  0  0  0  0  0  0  0  0  0  0
   -2.5312   -1.1799   -0.6692 C   0  0  0  0  0  0  0  0  0  0  0  0
   -2.8952   -2.5387   -0.6412 C   0  0  0  0  0  0  0  0  0  0  0  0
   -2.1608   -3.4548    0.0603 C   0  0  0  0  0  0  0  0  0  0  0  0
   -1.0557   -3.0220    0.7980 C   0  0  0  0  0  0  0  0  0  0  0  0
   -0.6583   -1.7113    0.7570 C   0  0  0  0  0  0  0  0  0  0  0  0
   -1.3385   -0.7550   -0.0243 C   0  0  0  0  0  0  0  0  0  0  0  0
   -0.9430    0.6245   -0.1358 C   0  0  0  0  0  0  0  0  0  0  0  0
    0.3136    1.0728    0.2236 N   0  0  0  0  0  0  0  0  0  0  0  0
    1.3855    0.1439    0.2426 C   0  0  0  0  0  0  0  0  0  0  0  0
    1.6644   -0.5996   -0.9002 C   0  0  0  0  0  0  0  0  0  0  0  0
    2.7381   -1.4698   -0.9175 C   0  0  0  0  0  0  0  0  0  0  0  0
    3.5478   -1.6020    0.1981 C   0  0  0  0  0  0  0  0  0  0  0  0
    3.2794   -0.8564    1.3338 C   0  0  0  0  0  0  0  0  0  0  0  0
    2.2062    0.0153    1.3589 C   0  0  0  0  0  0  0  0  0  0  0  0
    2.2605    3.9755    0.2855 H   0  0  0  0  0  0  0  0  0  0  0  0
    2.2334    3.0602    1.7669 H   0  0  0  0  0  0  0  0  0  0  0  0
    2.8864    2.3357    0.3157 H   0  0  0  0  0  0  0  0  0  0  0  0
   -0.3650    4.5076    0.0467 H   0  0  0  0  0  0  0  0  0  0  0  0
   -2.4246    3.6045   -0.8937 H   0  0  0  0  0  0  0  0  0  0  0  0
   -3.7785    1.8345   -1.5800 H   0  0  0  0  0  0  0  0  0  0  0  0
   -4.2773   -0.5734   -1.7765 H   0  0  0  0  0  0  0  0  0  0  0  0
   -3.7883   -2.8400   -1.1701 H   0  0  0  0  0  0  0  0  0  0  0  0
   -2.4480   -4.4957    0.0773 H   0  0  0  0  0  0  0  0  0  0  0  0
   -0.5142   -3.7247    1.4140 H   0  0  0  0  0  0  0  0  0  0  0  0
    0.1705   -1.4113    1.3750 H   0  0  0  0  0  0  0  0  0  0  0  0
    1.0331   -0.4893   -1.7699 H   0  0  0  0  0  0  0  0  0  0  0  0
    2.9463   -2.0430   -1.8087 H   0  0  0  0  0  0  0  0  0  0  0  0
    4.3862   -2.2821    0.1822 H   0  0  0  0  0  0  0  0  0  0  0  0
    3.9080   -0.9549    2.2067 H   0  0  0  0  0  0  0  0  0  0  0  0
    1.9850    0.5876    2.2468 H   0  0  0  0  0  0  0  0  0  0  0  0
  1  2  1  0  0  0  0
  2  3  1  0  0  0  0
  3  4  2  0  0  0  0
  4  5  1  0  0  0  0
  5  6  2  0  0  0  0
  6  7  1  0  0  0  0
  7  8  2  0  0  0  0
  8  9  1  0  0  0  0
  9 10  2  0  0  0  0
 10 11  1  0  0  0  0
 11 12  2  0  0  0  0
 12 13  1  0  0  0  0
 13 14  2  0  0  0  0
 14 15  1  0  0  0  0
 15 16  1  0  0  0  0
 16 17  2  0  0  0  0
 17 18  1  0  0  0  0
 18 19  2  0  0  0  0
 19 20  1  0  0  0  0
 20 21  2  0  0  0  0
 15  2  1  0  0  0  0
 21 16  1  0  0  0  0
 14  5  1  0  0  0  0
 13  8  1  0  0  0  0
  1 22  1  0  0  0  0
  1 23  1  0  0  0  0
  1 24  1  0  0  0  0
  3 25  1  0  0  0  0
  4 26  1  0  0  0  0
  6 27  1  0  0  0  0
  7 28  1  0  0  0  0
  9 29  1  0  0  0  0
 10 30  1  0  0  0  0
 11 31  1  0  0  0  0
 12 32  1  0  0  0  0
 17 33  1  0  0  0  0
 18 34  1  0  0  0  0
 19 35  1  0  0  0  0
 20 36  1  0  0  0  0
 21 37  1  0  0  0  0
M  END
