
  xtb     03022212133D
 energy: -94.345476067697 gnorm: 0.000203066701 xtb: 6.4.1 (afa7bdf)
 72 75  0     0  0            999 V2000
  -10.8473   -1.9331    1.1839 C   0  0  0  0  0  0  0  0  0  0  0  0
   -9.8659   -0.7660    1.2211 C   0  0  0  0  0  0  0  0  0  0  0  0
  -10.1373    0.2110    0.0662 C   0  0  0  0  0  0  0  0  0  0  0  0
   -8.8698    0.9685   -0.3643 C   0  0  0  0  0  0  0  0  0  0  0  0
   -7.9662    1.1822    0.8103 C   0  0  0  0  0  0  0  0  0  0  0  0
   -7.6435    2.3989    1.2329 C   0  0  0  0  0  0  0  0  0  0  0  0
   -6.5919    2.7108    2.6304 S   0  0  0  0  0  0  0  0  0  0  0  0
   -5.0210    2.1635    2.1015 C   0  0  0  0  0  0  0  0  0  0  0  0
   -4.6880    1.7724    0.8690 C   0  0  0  0  0  0  0  0  0  0  0  0
   -3.3797    1.3268    0.4355 C   0  0  0  0  0  0  0  0  0  0  0  0
   -2.2617    1.2754    1.2728 C   0  0  0  0  0  0  0  0  0  0  0  0
   -1.0383    0.8570    0.7968 C   0  0  0  0  0  0  0  0  0  0  0  0
   -0.8777    0.4596   -0.5308 C   0  0  0  0  0  0  0  0  0  0  0  0
    0.4262    0.0214   -1.0377 C   0  0  0  0  0  0  0  0  0  0  0  0
    0.5298   -1.0551   -1.9181 C   0  0  0  0  0  0  0  0  0  0  0  0
    1.7564   -1.4595   -2.3977 C   0  0  0  0  0  0  0  0  0  0  0  0
    2.9330   -0.7974   -2.0334 C   0  0  0  0  0  0  0  0  0  0  0  0
    4.1929   -1.2551   -2.5819 C   0  0  0  0  0  0  0  0  0  0  0  0
    5.3760   -0.6496   -2.4482 C   0  0  0  0  0  0  0  0  0  0  0  0
    6.8366   -1.2554   -3.1997 S   0  0  0  0  0  0  0  0  0  0  0  0
    8.0480   -0.1783   -2.4719 C   0  0  0  0  0  0  0  0  0  0  0  0
    8.2909   -0.0993   -1.1691 C   0  0  0  0  0  0  0  0  0  0  0  0
    9.3346    0.8244   -0.6204 C   0  0  0  0  0  0  0  0  0  0  0  0
   10.4669    0.0091    0.0276 C   0  0  0  0  0  0  0  0  0  0  0  0
    9.9550   -1.3043    0.6398 C   0  0  0  0  0  0  0  0  0  0  0  0
   10.8515   -1.7502    1.7905 C   0  0  0  0  0  0  0  0  0  0  0  0
    8.5051   -1.1287    1.0913 C   0  0  0  0  0  0  0  0  0  0  0  0
    7.6048   -0.9402   -0.1325 C   0  0  0  0  0  0  0  0  0  0  0  0
    2.8245    0.2790   -1.1480 C   0  0  0  0  0  0  0  0  0  0  0  0
    1.5990    0.6743   -0.6578 C   0  0  0  0  0  0  0  0  0  0  0  0
   -1.9932    0.4977   -1.3667 C   0  0  0  0  0  0  0  0  0  0  0  0
   -3.2142    0.9267   -0.8943 C   0  0  0  0  0  0  0  0  0  0  0  0
   -7.4773   -0.0779    1.4587 C   0  0  0  0  0  0  0  0  0  0  0  0
   -8.4160   -1.2471    1.1581 C   0  0  0  0  0  0  0  0  0  0  0  0
  -10.7009   -2.5255    0.2827 H   0  0  0  0  0  0  0  0  0  0  0  0
  -10.7053   -2.5807    2.0461 H   0  0  0  0  0  0  0  0  0  0  0  0
  -11.8723   -1.5691    1.1938 H   0  0  0  0  0  0  0  0  0  0  0  0
   -9.9963   -0.2326    2.1696 H   0  0  0  0  0  0  0  0  0  0  0  0
  -10.5275   -0.3373   -0.7937 H   0  0  0  0  0  0  0  0  0  0  0  0
  -10.9009    0.9269    0.3737 H   0  0  0  0  0  0  0  0  0  0  0  0
   -8.3277    0.3749   -1.1050 H   0  0  0  0  0  0  0  0  0  0  0  0
   -9.1380    1.9187   -0.8277 H   0  0  0  0  0  0  0  0  0  0  0  0
   -8.0299    3.2959    0.7744 H   0  0  0  0  0  0  0  0  0  0  0  0
   -4.3220    2.2006    2.9210 H   0  0  0  0  0  0  0  0  0  0  0  0
   -5.4486    1.7862    0.0978 H   0  0  0  0  0  0  0  0  0  0  0  0
   -2.3509    1.5687    2.3077 H   0  0  0  0  0  0  0  0  0  0  0  0
   -0.1925    0.8147    1.4682 H   0  0  0  0  0  0  0  0  0  0  0  0
   -0.3617   -1.5920   -2.2089 H   0  0  0  0  0  0  0  0  0  0  0  0
    1.8149   -2.3014   -3.0733 H   0  0  0  0  0  0  0  0  0  0  0  0
    4.1479   -2.1646   -3.1668 H   0  0  0  0  0  0  0  0  0  0  0  0
    5.5197    0.2721   -1.9090 H   0  0  0  0  0  0  0  0  0  0  0  0
    8.5957    0.4023   -3.1978 H   0  0  0  0  0  0  0  0  0  0  0  0
    9.7353    1.4698   -1.4027 H   0  0  0  0  0  0  0  0  0  0  0  0
    8.8669    1.4614    0.1344 H   0  0  0  0  0  0  0  0  0  0  0  0
   11.2263   -0.2171   -0.7223 H   0  0  0  0  0  0  0  0  0  0  0  0
   10.9395    0.6158    0.8028 H   0  0  0  0  0  0  0  0  0  0  0  0
    9.9695   -2.0810   -0.1333 H   0  0  0  0  0  0  0  0  0  0  0  0
   10.5326   -2.7175    2.1722 H   0  0  0  0  0  0  0  0  0  0  0  0
   10.8118   -1.0302    2.6057 H   0  0  0  0  0  0  0  0  0  0  0  0
   11.8834   -1.8364    1.4575 H   0  0  0  0  0  0  0  0  0  0  0  0
    8.1754   -2.0043    1.6529 H   0  0  0  0  0  0  0  0  0  0  0  0
    8.4367   -0.2660    1.7571 H   0  0  0  0  0  0  0  0  0  0  0  0
    6.6627   -0.4751    0.1726 H   0  0  0  0  0  0  0  0  0  0  0  0
    7.3555   -1.9102   -0.5710 H   0  0  0  0  0  0  0  0  0  0  0  0
    3.7106    0.8122   -0.8378 H   0  0  0  0  0  0  0  0  0  0  0  0
    1.5409    1.5198    0.0127 H   0  0  0  0  0  0  0  0  0  0  0  0
   -1.8910    0.2121   -2.4037 H   0  0  0  0  0  0  0  0  0  0  0  0
   -4.0629    0.9607   -1.5639 H   0  0  0  0  0  0  0  0  0  0  0  0
   -6.4652   -0.3059    1.1082 H   0  0  0  0  0  0  0  0  0  0  0  0
   -7.4094    0.0833    2.5380 H   0  0  0  0  0  0  0  0  0  0  0  0
   -8.2137   -1.6601    0.1678 H   0  0  0  0  0  0  0  0  0  0  0  0
   -8.2507   -2.0428    1.8862 H   0  0  0  0  0  0  0  0  0  0  0  0
  1  2  1  0  0  0  0
  2  3  1  0  0  0  0
  3  4  1  0  0  0  0
  4  5  1  0  0  0  0
  5  6  2  0  0  0  0
  6  7  1  0  0  0  0
  7  8  1  0  0  0  0
  8  9  2  0  0  0  0
  9 10  1  0  0  0  0
 10 11  2  0  0  0  0
 11 12  1  0  0  0  0
 12 13  2  0  0  0  0
 13 14  1  0  0  0  0
 14 15  2  0  0  0  0
 15 16  1  0  0  0  0
 16 17  2  0  0  0  0
 17 18  1  0  0  0  0
 18 19  2  0  0  0  0
 19 20  1  0  0  0  0
 20 21  1  0  0  0  0
 21 22  2  0  0  0  0
 22 23  1  0  0  0  0
 23 24  1  0  0  0  0
 24 25  1  0  0  0  0
 25 26  1  0  0  0  0
 25 27  1  0  0  0  0
 27 28  1  0  0  0  0
 17 29  1  0  0  0  0
 29 30  2  0  0  0  0
 13 31  1  0  0  0  0
 31 32  2  0  0  0  0
  5 33  1  0  0  0  0
 33 34  1  0  0  0  0
 34  2  1  0  0  0  0
 32 10  1  0  0  0  0
 30 14  1  0  0  0  0
 28 22  1  0  0  0  0
  1 35  1  0  0  0  0
  1 36  1  0  0  0  0
  1 37  1  0  0  0  0
  2 38  1  0  0  0  0
  3 39  1  0  0  0  0
  3 40  1  0  0  0  0
  4 41  1  0  0  0  0
  4 42  1  0  0  0  0
  6 43  1  0  0  0  0
  8 44  1  0  0  0  0
  9 45  1  0  0  0  0
 11 46  1  0  0  0  0
 12 47  1  0  0  0  0
 15 48  1  0  0  0  0
 16 49  1  0  0  0  0
 18 50  1  0  0  0  0
 19 51  1  0  0  0  0
 21 52  1  0  0  0  0
 23 53  1  0  0  0  0
 23 54  1  0  0  0  0
 24 55  1  0  0  0  0
 24 56  1  0  0  0  0
 25 57  1  0  0  0  0
 26 58  1  0  0  0  0
 26 59  1  0  0  0  0
 26 60  1  0  0  0  0
 27 61  1  0  0  0  0
 27 62  1  0  0  0  0
 28 63  1  0  0  0  0
 28 64  1  0  0  0  0
 29 65  1  0  0  0  0
 30 66  1  0  0  0  0
 31 67  1  0  0  0  0
 32 68  1  0  0  0  0
 33 69  1  0  0  0  0
 33 70  1  0  0  0  0
 34 71  1  0  0  0  0
 34 72  1  0  0  0  0
M  END
