
  xtb     03022215123D
 energy: -155.991525769923 gnorm: 0.000322318825 xtb: 6.4.1 (afa7bdf)
116121  0     0  0            999 V2000
   -1.0405    0.8399   -0.4724 C   0  0  0  0  0  0  0  0  0  0  0  0
   -0.9955    0.4996    1.0121 C   0  0  0  0  0  0  0  0  0  0  0  0
    0.2514    1.0301    1.7224 C   0  0  0  0  0  0  0  0  0  0  0  0
    0.4188    2.5514    1.6905 C   0  0  0  0  0  0  0  0  0  0  0  0
   -0.7650    3.3405    2.2507 C   0  0  0  0  0  0  0  0  0  0  0  0
   -1.1261    3.0329    3.7046 C   0  0  0  0  0  0  0  0  0  0  0  0
   -0.0145    3.3127    4.7165 C   0  0  0  0  0  0  0  0  0  0  0  0
    0.4309    4.7740    4.7914 C   0  0  0  0  0  0  0  0  0  0  0  0
   -0.6551    5.7545    5.2393 C   0  0  0  0  0  0  0  0  0  0  0  0
   -1.1850    5.4500    6.6411 C   0  0  0  0  0  0  0  0  0  0  0  0
   -1.8806    6.6412    7.3022 C   0  0  0  0  0  0  0  0  0  0  0  0
   -3.1177    7.1582    6.5642 C   0  0  0  0  0  0  0  0  0  0  0  0
   -4.2901    6.1726    6.5332 C   0  0  0  0  0  0  0  0  0  0  0  0
   -4.8717    5.8404    7.9210 C   0  0  0  0  0  0  0  0  0  0  0  0
   -4.9763    6.9698    8.9541 C   0  0  0  0  0  0  0  0  0  0  0  0
   -5.8784    8.1589    8.6198 C   0  0  0  0  0  0  0  0  0  0  0  0
   -7.3621    7.8320    8.4499 C   0  0  0  0  0  0  0  0  0  0  0  0
   -8.0721    7.4047    9.7360 C   0  0  0  0  0  0  0  0  0  0  0  0
   -8.0426    8.4382   10.8641 C   0  0  0  0  0  0  0  0  0  0  0  0
   -8.5952    9.8155   10.4921 C   0  0  0  0  0  0  0  0  0  0  0  0
  -10.0502    9.8214   10.0198 C   0  0  0  0  0  0  0  0  0  0  0  0
  -11.0621    9.2837   11.0329 C   0  0  0  0  0  0  0  0  0  0  0  0
  -11.1166   10.0998   12.3190 C   0  0  0  0  0  0  0  0  0  0  0  0
   -5.4099    6.6657    5.5929 C   0  0  0  0  0  0  0  0  0  0  0  0
   -4.9301    7.0281    4.2858 N   0  0  0  0  0  0  0  0  0  0  0  0
   -4.7169    8.3288    3.8581 C   0  0  0  0  0  0  0  0  0  0  0  0
   -4.8851    9.6112    4.3709 C   0  0  0  0  0  0  0  0  0  0  0  0
   -4.5446   10.7240    3.5869 C   0  0  0  0  0  0  0  0  0  0  0  0
   -4.7290   12.0388    4.1219 C   0  0  0  0  0  0  0  0  0  0  0  0
   -5.3781   12.4302    5.2573 C   0  0  0  0  0  0  0  0  0  0  0  0
   -5.4137   13.8072    5.5815 C   0  0  0  0  0  0  0  0  0  0  0  0
   -5.4332   14.9250    5.8362 N   0  0  0  0  0  0  0  0  0  0  0  0
   -6.0745   11.6363    6.1903 C   0  0  0  0  0  0  0  0  0  0  0  0
   -6.6645   11.0568    6.9884 N   0  0  0  0  0  0  0  0  0  0  0  0
   -3.9899   10.6059    2.2430 C   0  0  0  0  0  0  0  0  0  0  0  0
   -3.6097   11.6378    1.3749 C   0  0  0  0  0  0  0  0  0  0  0  0
   -3.0975   11.3351    0.1263 C   0  0  0  0  0  0  0  0  0  0  0  0
   -2.9291   10.0331   -0.3417 C   0  0  0  0  0  0  0  0  0  0  0  0
   -3.2902    8.9536    0.4530 C   0  0  0  0  0  0  0  0  0  0  0  0
   -3.1655    7.5372    0.0776 C   0  0  0  0  0  0  0  0  0  0  0  0
   -2.6190    7.0583   -1.1057 C   0  0  0  0  0  0  0  0  0  0  0  0
   -2.4967    5.6855   -1.3212 C   0  0  0  0  0  0  0  0  0  0  0  0
   -2.9402    4.7321   -0.4251 C   0  0  0  0  0  0  0  0  0  0  0  0
   -3.5648    5.1358    0.7628 C   0  0  0  0  0  0  0  0  0  0  0  0
   -4.0933    4.2940    1.8178 C   0  0  0  0  0  0  0  0  0  0  0  0
   -4.2353    2.8691    1.6306 C   0  0  0  0  0  0  0  0  0  0  0  0
   -4.6452    2.2382    0.5004 C   0  0  0  0  0  0  0  0  0  0  0  0
   -4.7400    0.8271    0.4607 C   0  0  0  0  0  0  0  0  0  0  0  0
   -4.8000   -0.3171    0.4313 N   0  0  0  0  0  0  0  0  0  0  0  0
   -5.1000    2.8842   -0.6725 C   0  0  0  0  0  0  0  0  0  0  0  0
   -5.5299    3.3643   -1.6207 N   0  0  0  0  0  0  0  0  0  0  0  0
   -4.5173    4.7794    3.0601 C   0  0  0  0  0  0  0  0  0  0  0  0
   -4.5462    6.1591    3.2793 C   0  0  0  0  0  0  0  0  0  0  0  0
   -4.1032    6.9361    2.2037 C   0  0  0  0  0  0  0  0  0  0  0  0
   -3.6061    6.5295    0.9794 C   0  0  0  0  0  0  0  0  0  0  0  0
   -4.2026    8.2657    2.5606 C   0  0  0  0  0  0  0  0  0  0  0  0
   -3.8184    9.3011    1.7284 C   0  0  0  0  0  0  0  0  0  0  0  0
   -1.0965    1.9149   -0.6292 H   0  0  0  0  0  0  0  0  0  0  0  0
   -1.9109    0.3796   -0.9359 H   0  0  0  0  0  0  0  0  0  0  0  0
   -0.1494    0.4693   -0.9743 H   0  0  0  0  0  0  0  0  0  0  0  0
   -1.8930    0.8830    1.5008 H   0  0  0  0  0  0  0  0  0  0  0  0
   -1.0141   -0.5872    1.1214 H   0  0  0  0  0  0  0  0  0  0  0  0
    0.2295    0.6915    2.7604 H   0  0  0  0  0  0  0  0  0  0  0  0
    1.1336    0.5841    1.2560 H   0  0  0  0  0  0  0  0  0  0  0  0
    1.3227    2.8081    2.2467 H   0  0  0  0  0  0  0  0  0  0  0  0
    0.5796    2.8725    0.6591 H   0  0  0  0  0  0  0  0  0  0  0  0
   -0.5515    4.4072    2.1492 H   0  0  0  0  0  0  0  0  0  0  0  0
   -1.6414    3.1376    1.6335 H   0  0  0  0  0  0  0  0  0  0  0  0
   -2.0070    3.6243    3.9676 H   0  0  0  0  0  0  0  0  0  0  0  0
   -1.4062    1.9804    3.7889 H   0  0  0  0  0  0  0  0  0  0  0  0
   -0.3576    2.9936    5.7030 H   0  0  0  0  0  0  0  0  0  0  0  0
    0.8552    2.7013    4.4689 H   0  0  0  0  0  0  0  0  0  0  0  0
    1.2656    4.8378    5.4947 H   0  0  0  0  0  0  0  0  0  0  0  0
    0.8067    5.0879    3.8157 H   0  0  0  0  0  0  0  0  0  0  0  0
   -0.2222    6.7586    5.2374 H   0  0  0  0  0  0  0  0  0  0  0  0
   -1.4725    5.7515    4.5157 H   0  0  0  0  0  0  0  0  0  0  0  0
   -1.8650    4.5979    6.6052 H   0  0  0  0  0  0  0  0  0  0  0  0
   -0.3426    5.1655    7.2767 H   0  0  0  0  0  0  0  0  0  0  0  0
   -2.1510    6.3606    8.3212 H   0  0  0  0  0  0  0  0  0  0  0  0
   -1.1635    7.4636    7.3703 H   0  0  0  0  0  0  0  0  0  0  0  0
   -3.4386    8.0901    7.0315 H   0  0  0  0  0  0  0  0  0  0  0  0
   -2.8250    7.3959    5.5393 H   0  0  0  0  0  0  0  0  0  0  0  0
   -3.9204    5.2338    6.1041 H   0  0  0  0  0  0  0  0  0  0  0  0
   -5.8585    5.3940    7.7794 H   0  0  0  0  0  0  0  0  0  0  0  0
   -4.2412    5.0683    8.3689 H   0  0  0  0  0  0  0  0  0  0  0  0
   -5.3369    6.5160    9.8802 H   0  0  0  0  0  0  0  0  0  0  0  0
   -3.9771    7.3554    9.1639 H   0  0  0  0  0  0  0  0  0  0  0  0
   -5.7739    8.8902    9.4225 H   0  0  0  0  0  0  0  0  0  0  0  0
   -5.5226    8.6553    7.7158 H   0  0  0  0  0  0  0  0  0  0  0  0
   -7.8547    8.7179    8.0475 H   0  0  0  0  0  0  0  0  0  0  0  0
   -7.4836    7.0319    7.7156 H   0  0  0  0  0  0  0  0  0  0  0  0
   -9.1111    7.1768    9.4886 H   0  0  0  0  0  0  0  0  0  0  0  0
   -7.6236    6.4798   10.1077 H   0  0  0  0  0  0  0  0  0  0  0  0
   -8.6092    8.0362   11.7070 H   0  0  0  0  0  0  0  0  0  0  0  0
   -7.0142    8.5655   11.2099 H   0  0  0  0  0  0  0  0  0  0  0  0
   -8.5000   10.4670   11.3633 H   0  0  0  0  0  0  0  0  0  0  0  0
   -7.9806   10.2494    9.7017 H   0  0  0  0  0  0  0  0  0  0  0  0
  -10.3198   10.8516    9.7726 H   0  0  0  0  0  0  0  0  0  0  0  0
  -10.1332    9.2377    9.1010 H   0  0  0  0  0  0  0  0  0  0  0  0
  -12.0504    9.2972   10.5655 H   0  0  0  0  0  0  0  0  0  0  0  0
  -10.8319    8.2439   11.2722 H   0  0  0  0  0  0  0  0  0  0  0  0
  -11.2957   11.1495   12.0955 H   0  0  0  0  0  0  0  0  0  0  0  0
  -11.9212    9.7438   12.9592 H   0  0  0  0  0  0  0  0  0  0  0  0
  -10.1847   10.0202   12.8728 H   0  0  0  0  0  0  0  0  0  0  0  0
   -6.1568    5.8716    5.4834 H   0  0  0  0  0  0  0  0  0  0  0  0
   -5.9019    7.5409    6.0142 H   0  0  0  0  0  0  0  0  0  0  0  0
   -5.2621    9.7713    5.3674 H   0  0  0  0  0  0  0  0  0  0  0  0
   -4.3042   12.8524    3.5493 H   0  0  0  0  0  0  0  0  0  0  0  0
   -3.7041   12.6781    1.6460 H   0  0  0  0  0  0  0  0  0  0  0  0
   -2.8117   12.1514   -0.5216 H   0  0  0  0  0  0  0  0  0  0  0  0
   -2.5205    9.8851   -1.3293 H   0  0  0  0  0  0  0  0  0  0  0  0
   -2.2571    7.7350   -1.8643 H   0  0  0  0  0  0  0  0  0  0  0  0
   -2.0278    5.3513   -2.2351 H   0  0  0  0  0  0  0  0  0  0  0  0
   -2.7725    3.6905   -0.6518 H   0  0  0  0  0  0  0  0  0  0  0  0
   -4.0717    2.2475    2.5044 H   0  0  0  0  0  0  0  0  0  0  0  0
   -4.8717    4.0761    3.8009 H   0  0  0  0  0  0  0  0  0  0  0  0
  1  2  1  0  0  0  0
  1 58  1  0  0  0  0
  1 59  1  0  0  0  0
  1 60  1  0  0  0  0
  2  3  1  0  0  0  0
  2 61  1  0  0  0  0
  2 62  1  0  0  0  0
  3  4  1  0  0  0  0
  3 63  1  0  0  0  0
  3 64  1  0  0  0  0
  4  5  1  0  0  0  0
  4 65  1  0  0  0  0
  4 66  1  0  0  0  0
  5  6  1  0  0  0  0
  5 67  1  0  0  0  0
  5 68  1  0  0  0  0
  6  7  1  0  0  0  0
  6 69  1  0  0  0  0
  6 70  1  0  0  0  0
  7  8  1  0  0  0  0
  7 71  1  0  0  0  0
  7 72  1  0  0  0  0
  8  9  1  0  0  0  0
  8 73  1  0  0  0  0
  8 74  1  0  0  0  0
  9 10  1  0  0  0  0
  9 75  1  0  0  0  0
  9 76  1  0  0  0  0
 10 11  1  0  0  0  0
 10 77  1  0  0  0  0
 10 78  1  0  0  0  0
 11 12  1  0  0  0  0
 11 79  1  0  0  0  0
 11 80  1  0  0  0  0
 12 13  1  0  0  0  0
 12 81  1  0  0  0  0
 12 82  1  0  0  0  0
 13 14  1  0  0  0  0
 13 24  1  0  0  0  0
 13 83  1  0  0  0  0
 14 15  1  0  0  0  0
 14 84  1  0  0  0  0
 14 85  1  0  0  0  0
 15 16  1  0  0  0  0
 15 86  1  0  0  0  0
 15 87  1  0  0  0  0
 16 17  1  0  0  0  0
 16 88  1  0  0  0  0
 16 89  1  0  0  0  0
 17 18  1  0  0  0  0
 17 90  1  0  0  0  0
 17 91  1  0  0  0  0
 18 19  1  0  0  0  0
 18 92  1  0  0  0  0
 18 93  1  0  0  0  0
 19 20  1  0  0  0  0
 19 94  1  0  0  0  0
 19 95  1  0  0  0  0
 20 21  1  0  0  0  0
 20 96  1  0  0  0  0
 20 97  1  0  0  0  0
 21 22  1  0  0  0  0
 21 98  1  0  0  0  0
 21 99  1  0  0  0  0
 22 23  1  0  0  0  0
 22100  1  0  0  0  0
 22101  1  0  0  0  0
 23102  1  0  0  0  0
 23103  1  0  0  0  0
 23104  1  0  0  0  0
 24 25  1  0  0  0  0
 24105  1  0  0  0  0
 24106  1  0  0  0  0
 25 26  1  0  0  0  0
 26 27  2  0  0  0  0
 27 28  1  0  0  0  0
 27107  1  0  0  0  0
 28 29  1  0  0  0  0
 28 35  2  0  0  0  0
 29 30  2  0  0  0  0
 29108  1  0  0  0  0
 30 31  1  0  0  0  0
 30 33  1  0  0  0  0
 31 32  3  0  0  0  0
 33 34  3  0  0  0  0
 35 36  1  0  0  0  0
 36 37  2  0  0  0  0
 36109  1  0  0  0  0
 37 38  1  0  0  0  0
 37110  1  0  0  0  0
 38 39  2  0  0  0  0
 38111  1  0  0  0  0
 39 40  1  0  0  0  0
 40 41  2  0  0  0  0
 41 42  1  0  0  0  0
 41112  1  0  0  0  0
 42 43  2  0  0  0  0
 42113  1  0  0  0  0
 43 44  1  0  0  0  0
 43114  1  0  0  0  0
 44 45  2  0  0  0  0
 45 46  1  0  0  0  0
 45 52  1  0  0  0  0
 46 47  2  0  0  0  0
 46115  1  0  0  0  0
 47 48  1  0  0  0  0
 47 50  1  0  0  0  0
 48 49  3  0  0  0  0
 50 51  3  0  0  0  0
 52 53  2  0  0  0  0
 52116  1  0  0  0  0
 53 54  1  0  0  0  0
 53 25  1  0  0  0  0
 54 55  2  0  0  0  0
 54 56  1  0  0  0  0
 55 40  1  0  0  0  0
 55 44  1  0  0  0  0
 56 57  2  0  0  0  0
 56 26  1  0  0  0  0
 57 35  1  0  0  0  0
 57 39  1  0  0  0  0
M  END
