
  xtb     03022213043D
 energy: -117.923178758001 gnorm: 0.000144631806 xtb: 6.4.1 (afa7bdf)
 80 85  0     0  0            999 V2000
   -8.9881   -1.5691   -1.3784 C   0  0  0  0  0  0  0  0  0  0  0  0
   -8.1394   -2.2258   -2.7727 S   0  0  0  0  0  0  0  0  0  0  0  0
   -6.4388   -1.9257   -2.4746 C   0  0  0  0  0  0  0  0  0  0  0  0
   -5.8741   -1.8752   -1.2671 C   0  0  0  0  0  0  0  0  0  0  0  0
   -4.4993   -1.5231   -0.9819 C   0  0  0  0  0  0  0  0  0  0  0  0
   -4.0465   -1.5896    0.3387 C   0  0  0  0  0  0  0  0  0  0  0  0
   -2.7645   -1.2129    0.6735 C   0  0  0  0  0  0  0  0  0  0  0  0
   -1.8763   -0.7617   -0.3021 C   0  0  0  0  0  0  0  0  0  0  0  0
   -0.5108   -0.3634    0.0530 C   0  0  0  0  0  0  0  0  0  0  0  0
    0.5704   -0.7138   -0.7556 C   0  0  0  0  0  0  0  0  0  0  0  0
    1.8571   -0.3568   -0.4161 C   0  0  0  0  0  0  0  0  0  0  0  0
    2.1174    0.3786    0.7438 C   0  0  0  0  0  0  0  0  0  0  0  0
    3.4491    0.7755    1.1525 C   0  0  0  0  0  0  0  0  0  0  0  0
    4.5964    0.3520    0.6140 C   0  0  0  0  0  0  0  0  0  0  0  0
    6.1549    0.9012    1.1894 S   0  0  0  0  0  0  0  0  0  0  0  0
    7.2228   -0.0994    0.2259 C   0  0  0  0  0  0  0  0  0  0  0  0
    8.5519    0.0488    0.1214 C   0  0  0  0  0  0  0  0  0  0  0  0
    9.3109    1.0797    0.8452 C   0  0  0  0  0  0  0  0  0  0  0  0
   10.2909    1.8089    0.1727 C   0  0  0  0  0  0  0  0  0  0  0  0
   11.0075    2.7916    0.8278 C   0  0  0  0  0  0  0  0  0  0  0  0
   10.7656    3.0546    2.1664 C   0  0  0  0  0  0  0  0  0  0  0  0
    9.8032    2.3272    2.8456 C   0  0  0  0  0  0  0  0  0  0  0  0
    9.0792    1.3475    2.1913 C   0  0  0  0  0  0  0  0  0  0  0  0
    9.3182   -0.8476   -0.7589 C   0  0  0  0  0  0  0  0  0  0  0  0
    8.8137   -1.2740   -1.9861 C   0  0  0  0  0  0  0  0  0  0  0  0
    9.5491   -2.1215   -2.7934 C   0  0  0  0  0  0  0  0  0  0  0  0
   10.7994   -2.5590   -2.3897 C   0  0  0  0  0  0  0  0  0  0  0  0
   11.3127   -2.1384   -1.1737 C   0  0  0  0  0  0  0  0  0  0  0  0
   10.5818   -1.2880   -0.3665 C   0  0  0  0  0  0  0  0  0  0  0  0
    1.0284    0.7443    1.5411 C   0  0  0  0  0  0  0  0  0  0  0  0
   -0.2563    0.3738    1.2091 C   0  0  0  0  0  0  0  0  0  0  0  0
   -2.3228   -0.6994   -1.6221 C   0  0  0  0  0  0  0  0  0  0  0  0
   -3.6086   -1.0648   -1.9557 C   0  0  0  0  0  0  0  0  0  0  0  0
   -8.7106   -0.4594   -0.6774 C   0  0  0  0  0  0  0  0  0  0  0  0
   -9.5229   -0.1111    0.4971 C   0  0  0  0  0  0  0  0  0  0  0  0
   -9.7672    1.2294    0.7959 C   0  0  0  0  0  0  0  0  0  0  0  0
  -10.5324    1.5771    1.8923 C   0  0  0  0  0  0  0  0  0  0  0  0
  -11.0610    0.5955    2.7146 C   0  0  0  0  0  0  0  0  0  0  0  0
  -10.8172   -0.7383    2.4327 C   0  0  0  0  0  0  0  0  0  0  0  0
  -10.0548   -1.0903    1.3348 C   0  0  0  0  0  0  0  0  0  0  0  0
   -7.5988    0.4532   -1.0000 C   0  0  0  0  0  0  0  0  0  0  0  0
   -7.4297    0.9539   -2.2873 C   0  0  0  0  0  0  0  0  0  0  0  0
   -6.3550    1.7712   -2.5823 C   0  0  0  0  0  0  0  0  0  0  0  0
   -5.4353    2.0970   -1.5991 C   0  0  0  0  0  0  0  0  0  0  0  0
   -5.6104    1.6243   -0.3100 C   0  0  0  0  0  0  0  0  0  0  0  0
   -6.6898    0.8155   -0.0091 C   0  0  0  0  0  0  0  0  0  0  0  0
   -9.8629   -2.1599   -1.1518 H   0  0  0  0  0  0  0  0  0  0  0  0
   -5.8907   -1.8090   -3.3950 H   0  0  0  0  0  0  0  0  0  0  0  0
   -6.4900   -2.0706   -0.3981 H   0  0  0  0  0  0  0  0  0  0  0  0
   -4.7179   -1.9430    1.1088 H   0  0  0  0  0  0  0  0  0  0  0  0
   -2.4346   -1.2861    1.6998 H   0  0  0  0  0  0  0  0  0  0  0  0
    0.3959   -1.2942   -1.6502 H   0  0  0  0  0  0  0  0  0  0  0  0
    2.6701   -0.6460   -1.0650 H   0  0  0  0  0  0  0  0  0  0  0  0
    3.4989    1.4671    1.9834 H   0  0  0  0  0  0  0  0  0  0  0  0
    4.6413   -0.3529   -0.2010 H   0  0  0  0  0  0  0  0  0  0  0  0
    6.7121   -0.8881   -0.3056 H   0  0  0  0  0  0  0  0  0  0  0  0
   10.4785    1.6064   -0.8723 H   0  0  0  0  0  0  0  0  0  0  0  0
   11.7588    3.3544    0.2930 H   0  0  0  0  0  0  0  0  0  0  0  0
   11.3283    3.8212    2.6784 H   0  0  0  0  0  0  0  0  0  0  0  0
    9.6166    2.5214    3.8917 H   0  0  0  0  0  0  0  0  0  0  0  0
    8.3457    0.7695    2.7329 H   0  0  0  0  0  0  0  0  0  0  0  0
    7.8500   -0.9183   -2.3208 H   0  0  0  0  0  0  0  0  0  0  0  0
    9.1473   -2.4380   -3.7451 H   0  0  0  0  0  0  0  0  0  0  0  0
   11.3728   -3.2208   -3.0217 H   0  0  0  0  0  0  0  0  0  0  0  0
   12.2878   -2.4751   -0.8531 H   0  0  0  0  0  0  0  0  0  0  0  0
   10.9827   -0.9659    0.5837 H   0  0  0  0  0  0  0  0  0  0  0  0
    1.2037    1.3229    2.4371 H   0  0  0  0  0  0  0  0  0  0  0  0
   -1.0807    0.6772    1.8382 H   0  0  0  0  0  0  0  0  0  0  0  0
   -1.6574   -0.3302   -2.3892 H   0  0  0  0  0  0  0  0  0  0  0  0
   -3.9316   -0.9799   -2.9817 H   0  0  0  0  0  0  0  0  0  0  0  0
   -9.3614    1.9980    0.1540 H   0  0  0  0  0  0  0  0  0  0  0  0
  -10.7174    2.6195    2.1074 H   0  0  0  0  0  0  0  0  0  0  0  0
  -11.6558    0.8685    3.5735 H   0  0  0  0  0  0  0  0  0  0  0  0
  -11.2185   -1.5086    3.0751 H   0  0  0  0  0  0  0  0  0  0  0  0
   -9.8512   -2.1325    1.1366 H   0  0  0  0  0  0  0  0  0  0  0  0
   -8.1467    0.7010   -3.0551 H   0  0  0  0  0  0  0  0  0  0  0  0
   -6.2321    2.1533   -3.5854 H   0  0  0  0  0  0  0  0  0  0  0  0
   -4.5867    2.7215   -1.8356 H   0  0  0  0  0  0  0  0  0  0  0  0
   -4.9000    1.8813    0.4618 H   0  0  0  0  0  0  0  0  0  0  0  0
   -6.8247    0.4425    0.9963 H   0  0  0  0  0  0  0  0  0  0  0  0
  1  2  1  0  0  0  0
  2  3  1  0  0  0  0
  3  4  2  0  0  0  0
  4  5  1  0  0  0  0
  5  6  2  0  0  0  0
  6  7  1  0  0  0  0
  7  8  2  0  0  0  0
  8  9  1  0  0  0  0
  9 10  2  0  0  0  0
 10 11  1  0  0  0  0
 11 12  2  0  0  0  0
 12 13  1  0  0  0  0
 13 14  2  0  0  0  0
 14 15  1  0  0  0  0
 15 16  1  0  0  0  0
 16 17  2  0  0  0  0
 17 18  1  0  0  0  0
 18 19  2  0  0  0  0
 19 20  1  0  0  0  0
 20 21  2  0  0  0  0
 21 22  1  0  0  0  0
 22 23  2  0  0  0  0
 17 24  1  0  0  0  0
 24 25  2  0  0  0  0
 25 26  1  0  0  0  0
 26 27  2  0  0  0  0
 27 28  1  0  0  0  0
 28 29  2  0  0  0  0
 12 30  1  0  0  0  0
 30 31  2  0  0  0  0
  8 32  1  0  0  0  0
 32 33  2  0  0  0  0
  1 34  2  0  0  0  0
 34 35  1  0  0  0  0
 35 36  2  0  0  0  0
 36 37  1  0  0  0  0
 37 38  2  0  0  0  0
 38 39  1  0  0  0  0
 39 40  2  0  0  0  0
 34 41  1  0  0  0  0
 41 42  2  0  0  0  0
 42 43  1  0  0  0  0
 43 44  2  0  0  0  0
 44 45  1  0  0  0  0
 45 46  2  0  0  0  0
 33  5  1  0  0  0  0
 40 35  1  0  0  0  0
 46 41  1  0  0  0  0
 31  9  1  0  0  0  0
 23 18  1  0  0  0  0
 29 24  1  0  0  0  0
  1 47  1  0  0  0  0
  3 48  1  0  0  0  0
  4 49  1  0  0  0  0
  6 50  1  0  0  0  0
  7 51  1  0  0  0  0
 10 52  1  0  0  0  0
 11 53  1  0  0  0  0
 13 54  1  0  0  0  0
 14 55  1  0  0  0  0
 16 56  1  0  0  0  0
 19 57  1  0  0  0  0
 20 58  1  0  0  0  0
 21 59  1  0  0  0  0
 22 60  1  0  0  0  0
 23 61  1  0  0  0  0
 25 62  1  0  0  0  0
 26 63  1  0  0  0  0
 27 64  1  0  0  0  0
 28 65  1  0  0  0  0
 29 66  1  0  0  0  0
 30 67  1  0  0  0  0
 31 68  1  0  0  0  0
 32 69  1  0  0  0  0
 33 70  1  0  0  0  0
 36 71  1  0  0  0  0
 37 72  1  0  0  0  0
 38 73  1  0  0  0  0
 39 74  1  0  0  0  0
 40 75  1  0  0  0  0
 42 76  1  0  0  0  0
 43 77  1  0  0  0  0
 44 78  1  0  0  0  0
 45 79  1  0  0  0  0
 46 80  1  0  0  0  0
M  END
