
  xtb     03022216173D
 energy: -116.482972280968 gnorm: 0.000172359633 xtb: 6.4.1 (afa7bdf)
 73 77  0     0  0            999 V2000
   -3.9937   -4.6791   -1.3439 C   0  0  0  0  0  0  0  0  0  0  0  0
   -4.4525   -3.3628   -1.9526 C   0  0  0  0  0  0  0  0  0  0  0  0
   -4.1272   -2.2653   -1.0980 O   0  0  0  0  0  0  0  0  0  0  0  0
   -4.9658   -1.9944   -0.1041 C   0  0  0  0  0  0  0  0  0  0  0  0
   -6.0133   -2.5520    0.0909 O   0  0  0  0  0  0  0  0  0  0  0  0
   -4.4253   -0.8770    0.7859 C   0  0  0  0  0  0  0  0  0  0  0  0
   -3.3185   -0.1734    0.2116 N   0  0  0  0  0  0  0  0  0  0  0  0
   -2.0009   -0.6102    0.4912 C   0  0  0  0  0  0  0  0  0  0  0  0
   -1.7806   -1.5765    1.1985 O   0  0  0  0  0  0  0  0  0  0  0  0
   -1.1629    0.3226   -0.2076 C   0  0  0  0  0  0  0  0  0  0  0  0
    0.1575    0.6704   -0.4551 C   0  0  0  0  0  0  0  0  0  0  0  0
    1.3387   -0.0049    0.0116 C   0  0  0  0  0  0  0  0  0  0  0  0
    1.2446   -1.3659    0.3468 C   0  0  0  0  0  0  0  0  0  0  0  0
    2.3310   -2.0750    0.7898 C   0  0  0  0  0  0  0  0  0  0  0  0
    3.5898   -1.4655    0.9491 C   0  0  0  0  0  0  0  0  0  0  0  0
    4.6713   -2.1677    1.3832 N   0  0  0  0  0  0  0  0  0  0  0  0
    4.6985   -3.6153    1.3661 C   0  0  0  0  0  0  0  0  0  0  0  0
    6.1292   -4.1040    1.1567 C   0  0  0  0  0  0  0  0  0  0  0  0
    7.0222   -3.7023    2.3343 C   0  0  0  0  0  0  0  0  0  0  0  0
    6.5208   -2.3939    2.9521 C   0  0  0  0  0  0  0  0  0  0  0  0
    5.8551   -1.5124    1.8989 C   0  0  0  0  0  0  0  0  0  0  0  0
    3.6729   -0.0939    0.6509 C   0  0  0  0  0  0  0  0  0  0  0  0
    2.5841    0.6098    0.1954 C   0  0  0  0  0  0  0  0  0  0  0  0
    0.1307    1.7868   -1.2657 N   0  0  0  0  0  0  0  0  0  0  0  0
    1.2232    2.5039   -1.8521 C   0  0  0  0  0  0  0  0  0  0  0  0
    1.7978    3.5885   -0.9438 C   0  0  0  0  0  0  0  0  0  0  0  0
    2.8598    4.1219   -1.1309 O   0  0  0  0  0  0  0  0  0  0  0  0
    0.9675    3.8641    0.0552 O   0  0  0  0  0  0  0  0  0  0  0  0
    1.3244    4.9328    0.9333 C   0  0  0  0  0  0  0  0  0  0  0  0
    0.8989    6.2748    0.3574 C   0  0  0  0  0  0  0  0  0  0  0  0
   -1.1864    2.2123   -1.5516 C   0  0  0  0  0  0  0  0  0  0  0  0
   -1.4196    3.1697   -2.2626 O   0  0  0  0  0  0  0  0  0  0  0  0
   -2.0207    1.2731   -0.8517 C   0  0  0  0  0  0  0  0  0  0  0  0
   -3.3348    0.9399   -0.5950 C   0  0  0  0  0  0  0  0  0  0  0  0
   -4.5253    1.6371   -1.0457 C   0  0  0  0  0  0  0  0  0  0  0  0
   -5.7195    0.9843   -1.3579 C   0  0  0  0  0  0  0  0  0  0  0  0
   -6.8185    1.7028   -1.7899 C   0  0  0  0  0  0  0  0  0  0  0  0
   -6.7489    3.0797   -1.9194 C   0  0  0  0  0  0  0  0  0  0  0  0
   -5.5619    3.7359   -1.6333 C   0  0  0  0  0  0  0  0  0  0  0  0
   -4.4587    3.0251   -1.2060 C   0  0  0  0  0  0  0  0  0  0  0  0
   -4.5487   -4.8790   -0.4305 H   0  0  0  0  0  0  0  0  0  0  0  0
   -2.9337   -4.6298   -1.1075 H   0  0  0  0  0  0  0  0  0  0  0  0
   -4.1676   -5.4883   -2.0474 H   0  0  0  0  0  0  0  0  0  0  0  0
   -5.5347   -3.3749   -2.1204 H   0  0  0  0  0  0  0  0  0  0  0  0
   -3.9309   -3.1548   -2.8890 H   0  0  0  0  0  0  0  0  0  0  0  0
   -4.0469   -1.3719    1.6915 H   0  0  0  0  0  0  0  0  0  0  0  0
   -5.2385   -0.2014    1.0616 H   0  0  0  0  0  0  0  0  0  0  0  0
    0.2928   -1.8630    0.2622 H   0  0  0  0  0  0  0  0  0  0  0  0
    2.1957   -3.1124    1.0492 H   0  0  0  0  0  0  0  0  0  0  0  0
    4.2971   -4.0316    2.3009 H   0  0  0  0  0  0  0  0  0  0  0  0
    4.0769   -3.9690    0.5399 H   0  0  0  0  0  0  0  0  0  0  0  0
    6.5087   -3.6673    0.2313 H   0  0  0  0  0  0  0  0  0  0  0  0
    6.1258   -5.1872    1.0329 H   0  0  0  0  0  0  0  0  0  0  0  0
    8.0495   -3.5860    1.9864 H   0  0  0  0  0  0  0  0  0  0  0  0
    7.0197   -4.4851    3.0939 H   0  0  0  0  0  0  0  0  0  0  0  0
    7.3460   -1.8476    3.4096 H   0  0  0  0  0  0  0  0  0  0  0  0
    5.7898   -2.6038    3.7348 H   0  0  0  0  0  0  0  0  0  0  0  0
    5.5620   -0.5672    2.3622 H   0  0  0  0  0  0  0  0  0  0  0  0
    6.5699   -1.2931    1.0928 H   0  0  0  0  0  0  0  0  0  0  0  0
    4.6088    0.4304    0.7593 H   0  0  0  0  0  0  0  0  0  0  0  0
    2.7079    1.6650    0.0183 H   0  0  0  0  0  0  0  0  0  0  0  0
    0.8100    3.0323   -2.7239 H   0  0  0  0  0  0  0  0  0  0  0  0
    2.0208    1.8366   -2.1866 H   0  0  0  0  0  0  0  0  0  0  0  0
    2.4070    4.9122    1.0969 H   0  0  0  0  0  0  0  0  0  0  0  0
    0.8009    4.7171    1.8668 H   0  0  0  0  0  0  0  0  0  0  0  0
   -0.1630    6.2604    0.1248 H   0  0  0  0  0  0  0  0  0  0  0  0
    1.4556    6.4813   -0.5536 H   0  0  0  0  0  0  0  0  0  0  0  0
    1.0971    7.0623    1.0787 H   0  0  0  0  0  0  0  0  0  0  0  0
   -5.7864   -0.0903   -1.3027 H   0  0  0  0  0  0  0  0  0  0  0  0
   -7.7333    1.1813   -2.0300 H   0  0  0  0  0  0  0  0  0  0  0  0
   -7.6119    3.6367   -2.2527 H   0  0  0  0  0  0  0  0  0  0  0  0
   -5.4959    4.8075   -1.7475 H   0  0  0  0  0  0  0  0  0  0  0  0
   -3.5339    3.5362   -0.9937 H   0  0  0  0  0  0  0  0  0  0  0  0
  1  2  1  0  0  0  0
  2  3  1  0  0  0  0
  3  4  1  0  0  0  0
  4  5  2  0  0  0  0
  4  6  1  0  0  0  0
  6  7  1  0  0  0  0
  7  8  1  0  0  0  0
  8  9  2  0  0  0  0
  8 10  1  0  0  0  0
 10 11  2  0  0  0  0
 11 12  1  0  0  0  0
 12 13  2  0  0  0  0
 13 14  1  0  0  0  0
 14 15  2  0  0  0  0
 15 16  1  0  0  0  0
 16 17  1  0  0  0  0
 17 18  1  0  0  0  0
 18 19  1  0  0  0  0
 19 20  1  0  0  0  0
 20 21  1  0  0  0  0
 15 22  1  0  0  0  0
 22 23  2  0  0  0  0
 11 24  1  0  0  0  0
 24 25  1  0  0  0  0
 25 26  1  0  0  0  0
 26 27  2  0  0  0  0
 26 28  1  0  0  0  0
 28 29  1  0  0  0  0
 29 30  1  0  0  0  0
 24 31  1  0  0  0  0
 31 32  2  0  0  0  0
 31 33  1  0  0  0  0
 33 34  2  0  0  0  0
 34 35  1  0  0  0  0
 35 36  2  0  0  0  0
 36 37  1  0  0  0  0
 37 38  2  0  0  0  0
 38 39  1  0  0  0  0
 39 40  2  0  0  0  0
 34  7  1  0  0  0  0
 40 35  1  0  0  0  0
 33 10  1  0  0  0  0
 23 12  1  0  0  0  0
 21 16  1  0  0  0  0
  1 41  1  0  0  0  0
  1 42  1  0  0  0  0
  1 43  1  0  0  0  0
  2 44  1  0  0  0  0
  2 45  1  0  0  0  0
  6 46  1  0  0  0  0
  6 47  1  0  0  0  0
 13 48  1  0  0  0  0
 14 49  1  0  0  0  0
 17 50  1  0  0  0  0
 17 51  1  0  0  0  0
 18 52  1  0  0  0  0
 18 53  1  0  0  0  0
 19 54  1  0  0  0  0
 19 55  1  0  0  0  0
 20 56  1  0  0  0  0
 20 57  1  0  0  0  0
 21 58  1  0  0  0  0
 21 59  1  0  0  0  0
 22 60  1  0  0  0  0
 23 61  1  0  0  0  0
 25 62  1  0  0  0  0
 25 63  1  0  0  0  0
 29 64  1  0  0  0  0
 29 65  1  0  0  0  0
 30 66  1  0  0  0  0
 30 67  1  0  0  0  0
 30 68  1  0  0  0  0
 36 69  1  0  0  0  0
 37 70  1  0  0  0  0
 38 71  1  0  0  0  0
 39 72  1  0  0  0  0
 40 73  1  0  0  0  0
M  END
