
  xtb     03022214393D
 energy: -62.069349092914 gnorm: 0.000217187894 xtb: 6.4.1 (afa7bdf)
 32 34  0     0  0            999 V2000
   -7.7246    0.5882   -0.3808 O   0  0  0  0  0  0  0  0  0  0  0  0
   -6.9191    0.3660    0.5007 N   0  0  0  0  0  4  0  0  0  0  0  0
   -7.1994    0.2743    1.6792 O   0  0  0  0  0  1  0  0  0  0  0  0
   -5.5449    0.2004    0.1253 C   0  0  0  0  0  0  0  0  0  0  0  0
   -5.1881    0.3031   -1.2238 C   0  0  0  0  0  0  0  0  0  0  0  0
   -3.8781    0.1528   -1.6096 C   0  0  0  0  0  0  0  0  0  0  0  0
   -2.9082   -0.1079   -0.6381 C   0  0  0  0  0  0  0  0  0  0  0  0
   -1.5962   -0.3139   -0.8784 N   0  0  0  0  0  0  0  0  0  0  0  0
   -0.9286   -0.5498    0.2055 C   0  0  0  0  0  0  0  0  0  0  0  0
    0.3862   -0.5548    0.3469 N   0  0  0  0  0  0  0  0  0  0  0  0
    1.2255   -1.3186   -0.1735 N   0  0  0  0  0  0  0  0  0  0  0  0
    2.5603   -1.0194   -0.0178 C   0  0  0  0  0  0  0  0  0  0  0  0
    3.4592   -1.9751   -0.5049 C   0  0  0  0  0  0  0  0  0  0  0  0
    4.8168   -1.7457   -0.4053 C   0  0  0  0  0  0  0  0  0  0  0  0
    5.2857   -0.5717    0.1628 C   0  0  0  0  0  0  0  0  0  0  0  0
    4.4007    0.3915    0.6471 C   0  0  0  0  0  0  0  0  0  0  0  0
    4.9284    1.6616    1.2726 C   0  0  0  0  0  0  0  0  0  0  0  0
    3.9897    2.7016    1.3369 O   0  0  0  0  0  0  0  0  0  0  0  0
    3.0413    0.1647    0.5585 C   0  0  0  0  0  0  0  0  0  0  0  0
   -1.8972   -0.5150    1.7177 S   0  0  0  0  0  0  0  0  0  0  0  0
   -3.2920   -0.2021    0.7285 C   0  0  0  0  0  0  0  0  0  0  0  0
   -4.6045   -0.0563    1.1177 C   0  0  0  0  0  0  0  0  0  0  0  0
   -5.9640    0.5025   -1.9465 H   0  0  0  0  0  0  0  0  0  0  0  0
   -3.5800    0.2247   -2.6423 H   0  0  0  0  0  0  0  0  0  0  0  0
    3.0680   -2.8774   -0.9469 H   0  0  0  0  0  0  0  0  0  0  0  0
    5.5171   -2.4790   -0.7751 H   0  0  0  0  0  0  0  0  0  0  0  0
    6.3492   -0.3948    0.2330 H   0  0  0  0  0  0  0  0  0  0  0  0
    5.2065    1.4574    2.3126 H   0  0  0  0  0  0  0  0  0  0  0  0
    5.8362    1.9817    0.7393 H   0  0  0  0  0  0  0  0  0  0  0  0
    3.7272    2.9483    0.4427 H   0  0  0  0  0  0  0  0  0  0  0  0
    2.3386    0.8926    0.9377 H   0  0  0  0  0  0  0  0  0  0  0  0
   -4.9119   -0.1298    2.1489 H   0  0  0  0  0  0  0  0  0  0  0  0
  1  2  2  0  0  0  0
  2  3  1  0  0  0  0
  2  4  1  0  0  0  0
  4  5  2  0  0  0  0
  5  6  1  0  0  0  0
  6  7  2  0  0  0  0
  7  8  1  0  0  0  0
  8  9  2  0  0  0  0
  9 10  1  0  0  0  0
 10 11  2  0  0  0  0
 11 12  1  0  0  0  0
 12 13  2  0  0  0  0
 13 14  1  0  0  0  0
 14 15  2  0  0  0  0
 15 16  1  0  0  0  0
 16 17  1  0  0  0  0
 17 18  1  0  0  0  0
 16 19  2  0  0  0  0
  9 20  1  0  0  0  0
 20 21  1  0  0  0  0
 21 22  2  0  0  0  0
 22  4  1  0  0  0  0
 21  7  1  0  0  0  0
 19 12  1  0  0  0  0
  5 23  1  0  0  0  0
  6 24  1  0  0  0  0
 13 25  1  0  0  0  0
 14 26  1  0  0  0  0
 15 27  1  0  0  0  0
 17 28  1  0  0  0  0
 17 29  1  0  0  0  0
 18 30  1  0  0  0  0
 19 31  1  0  0  0  0
 22 32  1  0  0  0  0
M  CHG  1   2   1
M  CHG  1   3  -1
M  END
