
  xtb     03022213363D
 energy: -75.416676409518 gnorm: 0.000079799920 xtb: 6.4.1 (afa7bdf)
 47 50  0     0  0            999 V2000
   -5.5662   -0.8333   -1.9373 C   0  0  0  0  0  0  0  0  0  0  0  0
   -4.7333   -0.8340   -0.6614 C   0  0  0  0  0  0  0  0  0  0  0  0
   -5.4351   -0.0786    0.4647 C   0  0  0  0  0  0  0  0  0  0  0  0
   -4.6141   -0.0367    1.7601 C   0  0  0  0  0  0  0  0  0  0  0  0
   -3.4136    0.7502    1.6340 N   0  0  0  0  0  0  0  0  0  0  0  0
   -2.1620    0.3193    1.3365 C   0  0  0  0  0  0  0  0  0  0  0  0
   -1.8369   -1.0342    1.2812 C   0  0  0  0  0  0  0  0  0  0  0  0
   -0.5521   -1.4612    1.0046 C   0  0  0  0  0  0  0  0  0  0  0  0
    0.4708   -0.5571    0.7721 C   0  0  0  0  0  0  0  0  0  0  0  0
    0.1933    0.8230    0.8265 C   0  0  0  0  0  0  0  0  0  0  0  0
    1.2302    1.7531    0.6005 C   0  0  0  0  0  0  0  0  0  0  0  0
    0.9807    3.1086    0.6531 C   0  0  0  0  0  0  0  0  0  0  0  0
   -0.3037    3.5673    0.9308 C   0  0  0  0  0  0  0  0  0  0  0  0
   -1.3267    2.6772    1.1532 C   0  0  0  0  0  0  0  0  0  0  0  0
   -1.1201    1.2861    1.1092 C   0  0  0  0  0  0  0  0  0  0  0  0
    2.6005    1.2942    0.3138 C   0  0  0  0  0  0  0  0  0  0  0  0
    3.5242    2.0623    0.1304 O   0  0  0  0  0  0  0  0  0  0  0  0
    2.7904   -0.0760    0.2716 N   0  0  0  0  0  0  0  0  0  0  0  0
    4.1155   -0.5409   -0.0067 C   0  0  0  0  0  0  0  0  0  0  0  0
    4.7064   -0.2532   -1.2258 C   0  0  0  0  0  0  0  0  0  0  0  0
    5.9881   -0.6970   -1.4901 C   0  0  0  0  0  0  0  0  0  0  0  0
    6.6810   -1.4390   -0.5411 C   0  0  0  0  0  0  0  0  0  0  0  0
    7.9423   -1.8968   -0.7631 O   0  0  0  0  0  0  0  0  0  0  0  0
    6.0790   -1.7305    0.6794 C   0  0  0  0  0  0  0  0  0  0  0  0
    4.8035   -1.2784    0.9460 C   0  0  0  0  0  0  0  0  0  0  0  0
    1.8114   -1.0501    0.4727 C   0  0  0  0  0  0  0  0  0  0  0  0
    2.0896   -2.2299    0.3872 O   0  0  0  0  0  0  0  0  0  0  0  0
   -6.5327   -1.3013   -1.7633 H   0  0  0  0  0  0  0  0  0  0  0  0
   -5.0557   -1.3822   -2.7243 H   0  0  0  0  0  0  0  0  0  0  0  0
   -5.7362    0.1838   -2.2839 H   0  0  0  0  0  0  0  0  0  0  0  0
   -3.7630   -0.3752   -0.8626 H   0  0  0  0  0  0  0  0  0  0  0  0
   -4.5547   -1.8648   -0.3490 H   0  0  0  0  0  0  0  0  0  0  0  0
   -6.3928   -0.5562    0.6802 H   0  0  0  0  0  0  0  0  0  0  0  0
   -5.6407    0.9448    0.1401 H   0  0  0  0  0  0  0  0  0  0  0  0
   -4.3602   -1.0485    2.0744 H   0  0  0  0  0  0  0  0  0  0  0  0
   -5.2209    0.4160    2.5519 H   0  0  0  0  0  0  0  0  0  0  0  0
   -3.5833    1.7377    1.5322 H   0  0  0  0  0  0  0  0  0  0  0  0
   -2.5977   -1.7782    1.4489 H   0  0  0  0  0  0  0  0  0  0  0  0
   -0.3237   -2.5153    0.9604 H   0  0  0  0  0  0  0  0  0  0  0  0
    1.7958    3.7942    0.4783 H   0  0  0  0  0  0  0  0  0  0  0  0
   -0.4955    4.6288    0.9735 H   0  0  0  0  0  0  0  0  0  0  0  0
   -2.3048    3.0820    1.3723 H   0  0  0  0  0  0  0  0  0  0  0  0
    4.1685    0.3229   -1.9628 H   0  0  0  0  0  0  0  0  0  0  0  0
    6.4527   -0.4685   -2.4403 H   0  0  0  0  0  0  0  0  0  0  0  0
    8.2387   -1.6236   -1.6397 H   0  0  0  0  0  0  0  0  0  0  0  0
    6.6285   -2.3085    1.4048 H   0  0  0  0  0  0  0  0  0  0  0  0
    4.3347   -1.5026    1.8915 H   0  0  0  0  0  0  0  0  0  0  0  0
  1  2  1  0  0  0  0
  2  3  1  0  0  0  0
  3  4  1  0  0  0  0
  4  5  1  0  0  0  0
  5  6  1  0  0  0  0
  6  7  2  0  0  0  0
  7  8  1  0  0  0  0
  8  9  2  0  0  0  0
  9 10  1  0  0  0  0
 10 11  2  0  0  0  0
 11 12  1  0  0  0  0
 12 13  2  0  0  0  0
 13 14  1  0  0  0  0
 14 15  2  0  0  0  0
 11 16  1  0  0  0  0
 16 17  2  0  0  0  0
 16 18  1  0  0  0  0
 18 19  1  0  0  0  0
 19 20  2  0  0  0  0
 20 21  1  0  0  0  0
 21 22  2  0  0  0  0
 22 23  1  0  0  0  0
 22 24  1  0  0  0  0
 24 25  2  0  0  0  0
 18 26  1  0  0  0  0
 26 27  2  0  0  0  0
 15  6  1  0  0  0  0
 25 19  1  0  0  0  0
 26  9  1  0  0  0  0
 15 10  1  0  0  0  0
  1 28  1  0  0  0  0
  1 29  1  0  0  0  0
  1 30  1  0  0  0  0
  2 31  1  0  0  0  0
  2 32  1  0  0  0  0
  3 33  1  0  0  0  0
  3 34  1  0  0  0  0
  4 35  1  0  0  0  0
  4 36  1  0  0  0  0
  5 37  1  0  0  0  0
  7 38  1  0  0  0  0
  8 39  1  0  0  0  0
 12 40  1  0  0  0  0
 13 41  1  0  0  0  0
 14 42  1  0  0  0  0
 20 43  1  0  0  0  0
 21 44  1  0  0  0  0
 23 45  1  0  0  0  0
 24 46  1  0  0  0  0
 25 47  1  0  0  0  0
M  END
