
  xtb     03022213443D
 energy: -83.278648642463 gnorm: 0.000057933583 xtb: 6.4.1 (afa7bdf)
 54 59  0     0  0            999 V2000
   -3.7233   -3.1197   -1.5511 C   0  0  0  0  0  0  0  0  0  0  0  0
   -2.8552   -2.1923   -0.9490 O   0  0  0  0  0  0  0  0  0  0  0  0
   -3.3837   -1.1319   -0.2912 C   0  0  0  0  0  0  0  0  0  0  0  0
   -4.7340   -0.8017   -0.2789 C   0  0  0  0  0  0  0  0  0  0  0  0
   -5.1714    0.3357    0.3792 C   0  0  0  0  0  0  0  0  0  0  0  0
   -4.2743    1.1575    1.0349 C   0  0  0  0  0  0  0  0  0  0  0  0
   -2.9293    0.8336    1.0373 C   0  0  0  0  0  0  0  0  0  0  0  0
   -2.4697   -0.3011    0.3833 C   0  0  0  0  0  0  0  0  0  0  0  0
   -1.0552   -0.6627    0.4072 C   0  0  0  0  0  0  0  0  0  0  0  0
   -0.5860   -1.8274    0.7636 N   0  0  0  0  0  0  0  0  0  0  0  0
    0.7680   -1.7236    0.6835 C   0  0  0  0  0  0  0  0  0  0  0  0
    1.7390   -2.7129    1.0013 C   0  0  0  0  0  0  0  0  0  0  0  0
    1.3597   -3.9782    1.4621 C   0  0  0  0  0  0  0  0  0  0  0  0
    2.3117   -4.9078    1.7974 C   0  0  0  0  0  0  0  0  0  0  0  0
    3.6610   -4.5789    1.6792 C   0  0  0  0  0  0  0  0  0  0  0  0
    4.0451   -3.3410    1.2199 C   0  0  0  0  0  0  0  0  0  0  0  0
    3.1023   -2.3669    0.8565 C   0  0  0  0  0  0  0  0  0  0  0  0
    3.4752   -1.0652    0.3309 C   0  0  0  0  0  0  0  0  0  0  0  0
    4.8144   -0.7227    0.0953 C   0  0  0  0  0  0  0  0  0  0  0  0
    5.1737    0.4878   -0.4479 C   0  0  0  0  0  0  0  0  0  0  0  0
    4.1957    1.4125   -0.8007 C   0  0  0  0  0  0  0  0  0  0  0  0
    2.8728    1.1205   -0.5786 C   0  0  0  0  0  0  0  0  0  0  0  0
    2.4873   -0.0957    0.0035 C   0  0  0  0  0  0  0  0  0  0  0  0
    1.1319   -0.4477    0.2570 C   0  0  0  0  0  0  0  0  0  0  0  0
   -0.0543    0.2316    0.0940 N   0  0  0  0  0  0  0  0  0  0  0  0
   -0.2736    1.5792   -0.2457 C   0  0  0  0  0  0  0  0  0  0  0  0
    0.2393    2.5959    0.5546 C   0  0  0  0  0  0  0  0  0  0  0  0
   -0.0139    3.9149    0.2351 C   0  0  0  0  0  0  0  0  0  0  0  0
   -0.7862    4.2479   -0.8730 C   0  0  0  0  0  0  0  0  0  0  0  0
   -1.0723    5.6827   -1.1937 C   0  0  0  0  0  0  0  0  0  0  0  0
   -1.3000    3.2232   -1.6572 C   0  0  0  0  0  0  0  0  0  0  0  0
   -1.0500    1.8983   -1.3520 C   0  0  0  0  0  0  0  0  0  0  0  0
   -4.4174   -3.5524   -0.8239 H   0  0  0  0  0  0  0  0  0  0  0  0
   -3.0815   -3.9053   -1.9466 H   0  0  0  0  0  0  0  0  0  0  0  0
   -4.2910   -2.6693   -2.3732 H   0  0  0  0  0  0  0  0  0  0  0  0
   -5.4550   -1.4240   -0.7852 H   0  0  0  0  0  0  0  0  0  0  0  0
   -6.2244    0.5756    0.3753 H   0  0  0  0  0  0  0  0  0  0  0  0
   -4.6178    2.0419    1.5489 H   0  0  0  0  0  0  0  0  0  0  0  0
   -2.2274    1.4593    1.5684 H   0  0  0  0  0  0  0  0  0  0  0  0
    0.3044   -4.1860    1.5469 H   0  0  0  0  0  0  0  0  0  0  0  0
    2.0240   -5.8855    2.1553 H   0  0  0  0  0  0  0  0  0  0  0  0
    4.4145   -5.3045    1.9507 H   0  0  0  0  0  0  0  0  0  0  0  0
    5.1007   -3.1313    1.1474 H   0  0  0  0  0  0  0  0  0  0  0  0
    5.5971   -1.4250    0.3332 H   0  0  0  0  0  0  0  0  0  0  0  0
    6.2163    0.7155   -0.6148 H   0  0  0  0  0  0  0  0  0  0  0  0
    4.4746    2.3535   -1.2517 H   0  0  0  0  0  0  0  0  0  0  0  0
    2.1162    1.8311   -0.8722 H   0  0  0  0  0  0  0  0  0  0  0  0
    0.8379    2.3431    1.4179 H   0  0  0  0  0  0  0  0  0  0  0  0
    0.3904    4.6997    0.8579 H   0  0  0  0  0  0  0  0  0  0  0  0
   -1.3604    5.7988   -2.2355 H   0  0  0  0  0  0  0  0  0  0  0  0
   -0.2017    6.3043   -0.9957 H   0  0  0  0  0  0  0  0  0  0  0  0
   -1.8912    6.0465   -0.5723 H   0  0  0  0  0  0  0  0  0  0  0  0
   -1.9023    3.4634   -2.5212 H   0  0  0  0  0  0  0  0  0  0  0  0
   -1.4506    1.1061   -1.9665 H   0  0  0  0  0  0  0  0  0  0  0  0
  1  2  1  0  0  0  0
  2  3  1  0  0  0  0
  3  4  2  0  0  0  0
  4  5  1  0  0  0  0
  5  6  2  0  0  0  0
  6  7  1  0  0  0  0
  7  8  2  0  0  0  0
  8  9  1  0  0  0  0
  9 10  2  0  0  0  0
 10 11  1  0  0  0  0
 11 12  2  0  0  0  0
 12 13  1  0  0  0  0
 13 14  2  0  0  0  0
 14 15  1  0  0  0  0
 15 16  2  0  0  0  0
 16 17  1  0  0  0  0
 17 18  2  0  0  0  0
 18 19  1  0  0  0  0
 19 20  2  0  0  0  0
 20 21  1  0  0  0  0
 21 22  2  0  0  0  0
 22 23  1  0  0  0  0
 23 24  2  0  0  0  0
 24 25  1  0  0  0  0
 25 26  1  0  0  0  0
 26 27  2  0  0  0  0
 27 28  1  0  0  0  0
 28 29  2  0  0  0  0
 29 30  1  0  0  0  0
 29 31  1  0  0  0  0
 31 32  2  0  0  0  0
  8  3  1  0  0  0  0
 25  9  1  0  0  0  0
 32 26  1  0  0  0  0
 24 11  1  0  0  0  0
 17 12  1  0  0  0  0
 23 18  1  0  0  0  0
  1 33  1  0  0  0  0
  1 34  1  0  0  0  0
  1 35  1  0  0  0  0
  4 36  1  0  0  0  0
  5 37  1  0  0  0  0
  6 38  1  0  0  0  0
  7 39  1  0  0  0  0
 13 40  1  0  0  0  0
 14 41  1  0  0  0  0
 15 42  1  0  0  0  0
 16 43  1  0  0  0  0
 19 44  1  0  0  0  0
 20 45  1  0  0  0  0
 21 46  1  0  0  0  0
 22 47  1  0  0  0  0
 27 48  1  0  0  0  0
 28 49  1  0  0  0  0
 30 50  1  0  0  0  0
 30 51  1  0  0  0  0
 30 52  1  0  0  0  0
 31 53  1  0  0  0  0
 32 54  1  0  0  0  0
M  END
