
  xtb     03022215163D
 energy: -97.738844840779 gnorm: 0.000196886859 xtb: 6.4.1 (afa7bdf)
 59 65  0     0  0            999 V2000
   -6.2766    1.9326    3.2792 C   0  0  0  0  0  0  0  0  0  0  0  0
   -5.2544    2.4870    2.5263 C   0  0  0  0  0  0  0  0  0  0  0  0
   -4.7428    1.8120    1.4351 C   0  0  0  0  0  0  0  0  0  0  0  0
   -5.2453    0.5587    1.0860 C   0  0  0  0  0  0  0  0  0  0  0  0
   -4.7319   -0.1300   -0.0196 N   0  0  0  0  0  0  0  0  0  0  0  0
   -5.5905   -0.8899   -0.8250 C   0  0  0  0  0  0  0  0  0  0  0  0
   -6.8758   -0.4341   -1.1157 C   0  0  0  0  0  0  0  0  0  0  0  0
   -7.7196   -1.1911   -1.9050 C   0  0  0  0  0  0  0  0  0  0  0  0
   -7.2968   -2.4049   -2.4218 C   0  0  0  0  0  0  0  0  0  0  0  0
   -6.0195   -2.8604   -2.1385 C   0  0  0  0  0  0  0  0  0  0  0  0
   -5.1711   -2.1146   -1.3437 C   0  0  0  0  0  0  0  0  0  0  0  0
   -3.3715   -0.0694   -0.3186 C   0  0  0  0  0  0  0  0  0  0  0  0
   -2.9346   -0.0683   -1.6456 C   0  0  0  0  0  0  0  0  0  0  0  0
   -1.5925   -0.0180   -1.9447 C   0  0  0  0  0  0  0  0  0  0  0  0
   -0.6268    0.0356   -0.9326 C   0  0  0  0  0  0  0  0  0  0  0  0
    0.7829    0.0795   -1.2343 C   0  0  0  0  0  0  0  0  0  0  0  0
    1.3985    0.0881   -2.4662 C   0  0  0  0  0  0  0  0  0  0  0  0
    2.7913    0.1246   -2.3942 C   0  0  0  0  0  0  0  0  0  0  0  0
    3.2761    0.1442   -1.1039 C   0  0  0  0  0  0  0  0  0  0  0  0
    4.6394    0.1734   -0.6636 C   0  0  0  0  0  0  0  0  0  0  0  0
    5.7242    0.1912   -1.5283 C   0  0  0  0  0  0  0  0  0  0  0  0
    7.0426    0.2112   -1.0800 C   0  0  0  0  0  0  0  0  0  0  0  0
    7.3960    0.2151    0.2606 C   0  0  0  0  0  0  0  0  0  0  0  0
    8.7671    0.2293    0.6904 C   0  0  0  0  0  0  0  0  0  0  0  0
    9.2671    0.2315    1.9677 C   0  0  0  0  0  0  0  0  0  0  0  0
   10.6727    0.2436    2.0150 C   0  0  0  0  0  0  0  0  0  0  0  0
   11.2412    0.2505    0.7802 C   0  0  0  0  0  0  0  0  0  0  0  0
   10.0691    0.2427   -0.4727 S   0  0  0  0  0  0  0  0  0  0  0  0
    6.3187    0.2015    1.1855 C   0  0  0  0  0  0  0  0  0  0  0  0
    6.3804    0.2045    2.5167 N   0  0  0  0  0  0  0  0  0  0  0  0
    4.8873    0.1841    3.1150 S   0  0  0  0  0  0  0  0  0  0  0  0
    4.0845    0.1698    1.7227 N   0  0  0  0  0  0  0  0  0  0  0  0
    4.9567    0.1810    0.7194 C   0  0  0  0  0  0  0  0  0  0  0  0
    1.9694    0.1201    0.0386 S   0  0  0  0  0  0  0  0  0  0  0  0
   -1.0744    0.0393    0.3934 C   0  0  0  0  0  0  0  0  0  0  0  0
   -2.4146   -0.0126    0.6979 C   0  0  0  0  0  0  0  0  0  0  0  0
   -6.2712    0.0029    1.8499 C   0  0  0  0  0  0  0  0  0  0  0  0
   -6.7823    0.6901    2.9336 C   0  0  0  0  0  0  0  0  0  0  0  0
   -6.6764    2.4650    4.1287 H   0  0  0  0  0  0  0  0  0  0  0  0
   -4.8574    3.4576    2.7848 H   0  0  0  0  0  0  0  0  0  0  0  0
   -3.9540    2.2521    0.8428 H   0  0  0  0  0  0  0  0  0  0  0  0
   -7.2043    0.5161   -0.7207 H   0  0  0  0  0  0  0  0  0  0  0  0
   -8.7122   -0.8262   -2.1248 H   0  0  0  0  0  0  0  0  0  0  0  0
   -7.9582   -2.9920   -3.0406 H   0  0  0  0  0  0  0  0  0  0  0  0
   -5.6836   -3.8086   -2.5317 H   0  0  0  0  0  0  0  0  0  0  0  0
   -4.1792   -2.4760   -1.1148 H   0  0  0  0  0  0  0  0  0  0  0  0
   -3.6631   -0.1018   -2.4425 H   0  0  0  0  0  0  0  0  0  0  0  0
   -1.2890   -0.0128   -2.9796 H   0  0  0  0  0  0  0  0  0  0  0  0
    0.8667    0.0686   -3.4004 H   0  0  0  0  0  0  0  0  0  0  0  0
    3.4226    0.1349   -3.2646 H   0  0  0  0  0  0  0  0  0  0  0  0
    5.5495    0.1880   -2.5926 H   0  0  0  0  0  0  0  0  0  0  0  0
    7.8334    0.2226   -1.8165 H   0  0  0  0  0  0  0  0  0  0  0  0
    8.6310    0.2245    2.8330 H   0  0  0  0  0  0  0  0  0  0  0  0
   11.2390    0.2468    2.9293 H   0  0  0  0  0  0  0  0  0  0  0  0
   12.2818    0.2598    0.5227 H   0  0  0  0  0  0  0  0  0  0  0  0
   -0.3477    0.0731    1.1918 H   0  0  0  0  0  0  0  0  0  0  0  0
   -2.7349   -0.0197    1.7293 H   0  0  0  0  0  0  0  0  0  0  0  0
   -6.6607   -0.9702    1.5888 H   0  0  0  0  0  0  0  0  0  0  0  0
   -7.5760    0.2476    3.5174 H   0  0  0  0  0  0  0  0  0  0  0  0
  1  2  2  0  0  0  0
  2  3  1  0  0  0  0
  3  4  2  0  0  0  0
  4  5  1  0  0  0  0
  5  6  1  0  0  0  0
  6  7  2  0  0  0  0
  7  8  1  0  0  0  0
  8  9  2  0  0  0  0
  9 10  1  0  0  0  0
 10 11  2  0  0  0  0
  5 12  1  0  0  0  0
 12 13  2  0  0  0  0
 13 14  1  0  0  0  0
 14 15  2  0  0  0  0
 15 16  1  0  0  0  0
 16 17  2  0  0  0  0
 17 18  1  0  0  0  0
 18 19  2  0  0  0  0
 19 20  1  0  0  0  0
 20 21  2  0  0  0  0
 21 22  1  0  0  0  0
 22 23  2  0  0  0  0
 23 24  1  0  0  0  0
 24 25  2  0  0  0  0
 25 26  1  0  0  0  0
 26 27  2  0  0  0  0
 27 28  1  0  0  0  0
 23 29  1  0  0  0  0
 29 30  2  0  0  0  0
 30 31  1  0  0  0  0
 31 32  1  0  0  0  0
 32 33  2  0  0  0  0
 19 34  1  0  0  0  0
 15 35  1  0  0  0  0
 35 36  2  0  0  0  0
  4 37  1  0  0  0  0
 37 38  2  0  0  0  0
 38  1  1  0  0  0  0
 11  6  1  0  0  0  0
 36 12  1  0  0  0  0
 34 16  1  0  0  0  0
 33 20  1  0  0  0  0
 28 24  1  0  0  0  0
 33 29  1  0  0  0  0
  1 39  1  0  0  0  0
  2 40  1  0  0  0  0
  3 41  1  0  0  0  0
  7 42  1  0  0  0  0
  8 43  1  0  0  0  0
  9 44  1  0  0  0  0
 10 45  1  0  0  0  0
 11 46  1  0  0  0  0
 13 47  1  0  0  0  0
 14 48  1  0  0  0  0
 17 49  1  0  0  0  0
 18 50  1  0  0  0  0
 21 51  1  0  0  0  0
 22 52  1  0  0  0  0
 25 53  1  0  0  0  0
 26 54  1  0  0  0  0
 27 55  1  0  0  0  0
 35 56  1  0  0  0  0
 36 57  1  0  0  0  0
 37 58  1  0  0  0  0
 38 59  1  0  0  0  0
M  END
