
  xtb     03022215133D
 energy: -91.548755478552 gnorm: 0.000232482479 xtb: 6.4.1 (afa7bdf)
 55 58  0     0  0            999 V2000
   -3.4171    5.3452   -3.1983 C   0  0  0  0  0  0  0  0  0  0  0  0
   -3.9729    4.6165   -2.1310 O   0  0  0  0  0  0  0  0  0  0  0  0
   -3.3431    3.4829   -1.7182 C   0  0  0  0  0  0  0  0  0  0  0  0
   -2.1712    2.9727   -2.2670 C   0  0  0  0  0  0  0  0  0  0  0  0
   -1.6216    1.8053   -1.7687 C   0  0  0  0  0  0  0  0  0  0  0  0
   -2.2176    1.1305   -0.7091 C   0  0  0  0  0  0  0  0  0  0  0  0
   -1.6644   -0.0625   -0.2108 N   0  0  0  0  0  0  0  0  0  0  0  0
   -2.5393   -1.1136    0.1168 C   0  0  0  0  0  0  0  0  0  0  0  0
   -2.3494   -1.8666    1.2700 C   0  0  0  0  0  0  0  0  0  0  0  0
   -3.2151   -2.8944    1.5982 C   0  0  0  0  0  0  0  0  0  0  0  0
   -4.3015   -3.1813    0.7784 C   0  0  0  0  0  0  0  0  0  0  0  0
   -5.2159   -4.1638    1.0041 O   0  0  0  0  0  0  0  0  0  0  0  0
   -5.0762   -4.9629    2.1535 C   0  0  0  0  0  0  0  0  0  0  0  0
   -4.4986   -2.4183   -0.3750 C   0  0  0  0  0  0  0  0  0  0  0  0
   -3.6304   -1.4027   -0.7034 C   0  0  0  0  0  0  0  0  0  0  0  0
   -0.2995   -0.1992   -0.0516 C   0  0  0  0  0  0  0  0  0  0  0  0
    0.5087    0.9149    0.2129 C   0  0  0  0  0  0  0  0  0  0  0  0
    1.8658    0.7757    0.3687 C   0  0  0  0  0  0  0  0  0  0  0  0
    2.4801   -0.4795    0.2658 C   0  0  0  0  0  0  0  0  0  0  0  0
    3.9032   -0.6098    0.4282 C   0  0  0  0  0  0  0  0  0  0  0  0
    4.7264   -1.7278    0.4022 C   0  0  0  0  0  0  0  0  0  0  0  0
    6.0264   -1.2763    0.6165 C   0  0  0  0  0  0  0  0  0  0  0  0
    5.9473    0.1037    0.7656 C   0  0  0  0  0  0  0  0  0  0  0  0
    6.9059    1.1109    1.0006 C   0  0  0  0  0  0  0  0  0  0  0  0
    8.2533    0.9364    1.1464 C   0  0  0  0  0  0  0  0  0  0  0  0
    8.9147   -0.3051    1.0838 C   0  0  0  0  0  0  0  0  0  0  0  0
    9.4841   -1.3010    1.0381 N   0  0  0  0  0  0  0  0  0  0  0  0
    9.0940    2.0450    1.3782 C   0  0  0  0  0  0  0  0  0  0  0  0
    9.7746    2.9494    1.5663 N   0  0  0  0  0  0  0  0  0  0  0  0
    4.6462    0.4890    0.6477 O   0  0  0  0  0  0  0  0  0  0  0  0
    1.6718   -1.5921    0.0018 C   0  0  0  0  0  0  0  0  0  0  0  0
    0.3137   -1.4561   -0.1520 C   0  0  0  0  0  0  0  0  0  0  0  0
   -3.3925    1.6446   -0.1600 C   0  0  0  0  0  0  0  0  0  0  0  0
   -3.9472    2.8005   -0.6597 C   0  0  0  0  0  0  0  0  0  0  0  0
   -3.3799    4.7495   -4.1162 H   0  0  0  0  0  0  0  0  0  0  0  0
   -4.0788    6.1965   -3.3496 H   0  0  0  0  0  0  0  0  0  0  0  0
   -2.4122    5.7075   -2.9585 H   0  0  0  0  0  0  0  0  0  0  0  0
   -1.6794    3.4674   -3.0893 H   0  0  0  0  0  0  0  0  0  0  0  0
   -0.7187    1.4109   -2.2112 H   0  0  0  0  0  0  0  0  0  0  0  0
   -1.5162   -1.6441    1.9204 H   0  0  0  0  0  0  0  0  0  0  0  0
   -3.0346   -3.4558    2.5011 H   0  0  0  0  0  0  0  0  0  0  0  0
   -5.1417   -4.3661    3.0691 H   0  0  0  0  0  0  0  0  0  0  0  0
   -5.9055   -5.6677    2.1244 H   0  0  0  0  0  0  0  0  0  0  0  0
   -4.1316   -5.5165    2.1467 H   0  0  0  0  0  0  0  0  0  0  0  0
   -5.3436   -2.6499   -1.0033 H   0  0  0  0  0  0  0  0  0  0  0  0
   -3.7903   -0.8224   -1.5996 H   0  0  0  0  0  0  0  0  0  0  0  0
    0.0517    1.8883    0.3087 H   0  0  0  0  0  0  0  0  0  0  0  0
    2.4741    1.6407    0.5840 H   0  0  0  0  0  0  0  0  0  0  0  0
    4.4231   -2.7427    0.2488 H   0  0  0  0  0  0  0  0  0  0  0  0
    6.9176   -1.8680    0.6600 H   0  0  0  0  0  0  0  0  0  0  0  0
    6.5161    2.1189    1.0692 H   0  0  0  0  0  0  0  0  0  0  0  0
    2.1201   -2.5682   -0.0946 H   0  0  0  0  0  0  0  0  0  0  0  0
   -0.2929   -2.3223   -0.3691 H   0  0  0  0  0  0  0  0  0  0  0  0
   -3.8661    1.1281    0.6613 H   0  0  0  0  0  0  0  0  0  0  0  0
   -4.8543    3.2057   -0.2410 H   0  0  0  0  0  0  0  0  0  0  0  0
  1  2  1  0  0  0  0
  2  3  1  0  0  0  0
  3  4  2  0  0  0  0
  4  5  1  0  0  0  0
  5  6  2  0  0  0  0
  6  7  1  0  0  0  0
  7  8  1  0  0  0  0
  8  9  2  0  0  0  0
  9 10  1  0  0  0  0
 10 11  2  0  0  0  0
 11 12  1  0  0  0  0
 12 13  1  0  0  0  0
 11 14  1  0  0  0  0
 14 15  2  0  0  0  0
  7 16  1  0  0  0  0
 16 17  2  0  0  0  0
 17 18  1  0  0  0  0
 18 19  2  0  0  0  0
 19 20  1  0  0  0  0
 20 21  2  0  0  0  0
 21 22  1  0  0  0  0
 22 23  2  0  0  0  0
 23 24  1  0  0  0  0
 24 25  2  0  0  0  0
 25 26  1  0  0  0  0
 26 27  3  0  0  0  0
 25 28  1  0  0  0  0
 28 29  3  0  0  0  0
 23 30  1  0  0  0  0
 19 31  1  0  0  0  0
 31 32  2  0  0  0  0
  6 33  1  0  0  0  0
 33 34  2  0  0  0  0
 34  3  1  0  0  0  0
 15  8  1  0  0  0  0
 32 16  1  0  0  0  0
 30 20  1  0  0  0  0
  1 35  1  0  0  0  0
  1 36  1  0  0  0  0
  1 37  1  0  0  0  0
  4 38  1  0  0  0  0
  5 39  1  0  0  0  0
  9 40  1  0  0  0  0
 10 41  1  0  0  0  0
 13 42  1  0  0  0  0
 13 43  1  0  0  0  0
 13 44  1  0  0  0  0
 14 45  1  0  0  0  0
 15 46  1  0  0  0  0
 17 47  1  0  0  0  0
 18 48  1  0  0  0  0
 21 49  1  0  0  0  0
 22 50  1  0  0  0  0
 24 51  1  0  0  0  0
 31 52  1  0  0  0  0
 32 53  1  0  0  0  0
 33 54  1  0  0  0  0
 34 55  1  0  0  0  0
M  END
