
  xtb     03022212013D
 energy: -92.934370745810 gnorm: 0.000098671784 xtb: 6.4.1 (afa7bdf)
 65 70  0     0  0            999 V2000
   -6.6461    1.6149   -3.8147 C   0  0  0  0  0  0  0  0  0  0  0  0
   -5.5535    0.8028   -3.1322 C   0  0  0  0  0  0  0  0  0  0  0  0
   -5.9371   -0.6713   -3.0193 C   0  0  0  0  0  0  0  0  0  0  0  0
   -4.8430   -1.4907   -2.3263 C   0  0  0  0  0  0  0  0  0  0  0  0
   -4.5906   -0.9942   -0.9898 N   0  0  0  0  0  0  0  0  0  0  0  0
   -5.6423   -0.9118   -0.0762 C   0  0  0  0  0  0  0  0  0  0  0  0
   -6.7033   -1.8163   -0.1118 C   0  0  0  0  0  0  0  0  0  0  0  0
   -7.7494   -1.7252    0.7888 C   0  0  0  0  0  0  0  0  0  0  0  0
   -7.7539   -0.7426    1.7625 C   0  0  0  0  0  0  0  0  0  0  0  0
   -6.6977    0.1484    1.8306 C   0  0  0  0  0  0  0  0  0  0  0  0
   -5.6607    0.0702    0.9171 C   0  0  0  0  0  0  0  0  0  0  0  0
   -4.3751    1.2882    0.9953 S   0  0  0  0  0  0  0  0  0  0  0  0
   -3.0411    0.3145    0.3486 C   0  0  0  0  0  0  0  0  0  0  0  0
   -1.7570    0.6167    0.7454 C   0  0  0  0  0  0  0  0  0  0  0  0
   -0.6523   -0.0629    0.2173 C   0  0  0  0  0  0  0  0  0  0  0  0
    0.6698    0.3229    0.6373 C   0  0  0  0  0  0  0  0  0  0  0  0
    1.8394   -0.2050    0.2226 C   0  0  0  0  0  0  0  0  0  0  0  0
    3.1006    0.2696    0.6946 C   0  0  0  0  0  0  0  0  0  0  0  0
    3.2284    1.2288    1.5550 N   0  0  0  0  0  0  0  0  0  0  0  0
    4.5805    1.4299    1.7702 C   0  0  0  0  0  0  0  0  0  0  0  0
    5.1328    2.3864    2.6339 C   0  0  0  0  0  0  0  0  0  0  0  0
    6.4930    2.4585    2.7268 C   0  0  0  0  0  0  0  0  0  0  0  0
    7.3349    1.6010    1.9817 C   0  0  0  0  0  0  0  0  0  0  0  0
    8.7370    1.6930    2.0901 C   0  0  0  0  0  0  0  0  0  0  0  0
    9.5581    0.8684    1.3732 C   0  0  0  0  0  0  0  0  0  0  0  0
    9.0085   -0.0917    0.5111 C   0  0  0  0  0  0  0  0  0  0  0  0
    7.6539   -0.2108    0.3797 C   0  0  0  0  0  0  0  0  0  0  0  0
    6.7741    0.6249    1.1034 C   0  0  0  0  0  0  0  0  0  0  0  0
    5.3744    0.5660    1.0199 C   0  0  0  0  0  0  0  0  0  0  0  0
    4.4371   -0.3043    0.2207 C   0  0  0  0  0  0  0  0  0  0  0  0
    4.5899   -0.0999   -1.2895 C   0  0  0  0  0  0  0  0  0  0  0  0
    4.5383   -1.7837    0.6044 C   0  0  0  0  0  0  0  0  0  0  0  0
   -0.9104   -1.0859   -0.7004 C   0  0  0  0  0  0  0  0  0  0  0  0
   -2.1966   -1.4007   -1.0805 C   0  0  0  0  0  0  0  0  0  0  0  0
   -3.2981   -0.6954   -0.5862 C   0  0  0  0  0  0  0  0  0  0  0  0
   -6.3549    2.6598   -3.8868 H   0  0  0  0  0  0  0  0  0  0  0  0
   -7.5733    1.5557   -3.2487 H   0  0  0  0  0  0  0  0  0  0  0  0
   -6.8327    1.2397   -4.8188 H   0  0  0  0  0  0  0  0  0  0  0  0
   -4.6227    0.8937   -3.6975 H   0  0  0  0  0  0  0  0  0  0  0  0
   -5.3763    1.2092   -2.1346 H   0  0  0  0  0  0  0  0  0  0  0  0
   -6.8746   -0.7562   -2.4673 H   0  0  0  0  0  0  0  0  0  0  0  0
   -6.0953   -1.0875   -4.0164 H   0  0  0  0  0  0  0  0  0  0  0  0
   -3.9220   -1.3774   -2.8998 H   0  0  0  0  0  0  0  0  0  0  0  0
   -5.1107   -2.5549   -2.3196 H   0  0  0  0  0  0  0  0  0  0  0  0
   -6.7133   -2.6020   -0.8502 H   0  0  0  0  0  0  0  0  0  0  0  0
   -8.5630   -2.4322    0.7267 H   0  0  0  0  0  0  0  0  0  0  0  0
   -8.5702   -0.6677    2.4637 H   0  0  0  0  0  0  0  0  0  0  0  0
   -6.6765    0.9275    2.5770 H   0  0  0  0  0  0  0  0  0  0  0  0
   -1.6062    1.4143    1.4573 H   0  0  0  0  0  0  0  0  0  0  0  0
    0.7271    1.1277    1.3577 H   0  0  0  0  0  0  0  0  0  0  0  0
    1.8657   -1.0116   -0.4960 H   0  0  0  0  0  0  0  0  0  0  0  0
    4.4831    3.0365    3.1979 H   0  0  0  0  0  0  0  0  0  0  0  0
    6.9569    3.1836    3.3808 H   0  0  0  0  0  0  0  0  0  0  0  0
    9.1542    2.4350    2.7567 H   0  0  0  0  0  0  0  0  0  0  0  0
   10.6315    0.9492    1.4646 H   0  0  0  0  0  0  0  0  0  0  0  0
    9.6670   -0.7390   -0.0505 H   0  0  0  0  0  0  0  0  0  0  0  0
    7.2486   -0.9553   -0.2878 H   0  0  0  0  0  0  0  0  0  0  0  0
    3.8211   -0.6513   -1.8270 H   0  0  0  0  0  0  0  0  0  0  0  0
    4.4937    0.9562   -1.5347 H   0  0  0  0  0  0  0  0  0  0  0  0
    5.5632   -0.4437   -1.6297 H   0  0  0  0  0  0  0  0  0  0  0  0
    3.7684   -2.3610    0.0967 H   0  0  0  0  0  0  0  0  0  0  0  0
    4.4068   -1.9005    1.6786 H   0  0  0  0  0  0  0  0  0  0  0  0
    5.5098   -2.1880    0.3320 H   0  0  0  0  0  0  0  0  0  0  0  0
   -0.0951   -1.6547   -1.1189 H   0  0  0  0  0  0  0  0  0  0  0  0
   -2.3533   -2.2179   -1.7680 H   0  0  0  0  0  0  0  0  0  0  0  0
  1  2  1  0  0  0  0
  2  3  1  0  0  0  0
  3  4  1  0  0  0  0
  4  5  1  0  0  0  0
  5  6  1  0  0  0  0
  6  7  2  0  0  0  0
  7  8  1  0  0  0  0
  8  9  2  0  0  0  0
  9 10  1  0  0  0  0
 10 11  2  0  0  0  0
 11 12  1  0  0  0  0
 12 13  1  0  0  0  0
 13 14  2  0  0  0  0
 14 15  1  0  0  0  0
 15 16  1  0  0  0  0
 16 17  2  0  0  0  0
 17 18  1  0  0  0  0
 18 19  2  0  0  0  0
 19 20  1  0  0  0  0
 20 21  2  0  0  0  0
 21 22  1  0  0  0  0
 22 23  2  0  0  0  0
 23 24  1  0  0  0  0
 24 25  2  0  0  0  0
 25 26  1  0  0  0  0
 26 27  2  0  0  0  0
 27 28  1  0  0  0  0
 28 29  2  0  0  0  0
 29 30  1  0  0  0  0
 30 31  1  0  0  0  0
 30 32  1  0  0  0  0
 15 33  2  0  0  0  0
 33 34  1  0  0  0  0
 34 35  2  0  0  0  0
 35  5  1  0  0  0  0
 11  6  1  0  0  0  0
 35 13  1  0  0  0  0
 30 18  1  0  0  0  0
 29 20  1  0  0  0  0
 28 23  1  0  0  0  0
  1 36  1  0  0  0  0
  1 37  1  0  0  0  0
  1 38  1  0  0  0  0
  2 39  1  0  0  0  0
  2 40  1  0  0  0  0
  3 41  1  0  0  0  0
  3 42  1  0  0  0  0
  4 43  1  0  0  0  0
  4 44  1  0  0  0  0
  7 45  1  0  0  0  0
  8 46  1  0  0  0  0
  9 47  1  0  0  0  0
 10 48  1  0  0  0  0
 14 49  1  0  0  0  0
 16 50  1  0  0  0  0
 17 51  1  0  0  0  0
 21 52  1  0  0  0  0
 22 53  1  0  0  0  0
 24 54  1  0  0  0  0
 25 55  1  0  0  0  0
 26 56  1  0  0  0  0
 27 57  1  0  0  0  0
 31 58  1  0  0  0  0
 31 59  1  0  0  0  0
 31 60  1  0  0  0  0
 32 61  1  0  0  0  0
 32 62  1  0  0  0  0
 32 63  1  0  0  0  0
 33 64  1  0  0  0  0
 34 65  1  0  0  0  0
M  END
