
  xtb     03022214513D
 energy: -50.149709801748 gnorm: 0.000206596834 xtb: 6.4.1 (afa7bdf)
 30 31  0     0  0            999 V2000
    4.8683   -0.2720    0.2950 C   0  0  0  0  0  0  0  0  0  0  0  0
    3.3746   -0.1966    0.2268 C   0  0  0  0  0  0  0  0  0  0  0  0
    2.5738   -1.0950    0.9192 C   0  0  0  0  0  0  0  0  0  0  0  0
    1.1961   -1.0230    0.8441 C   0  0  0  0  0  0  0  0  0  0  0  0
    0.5843   -0.0363    0.0768 C   0  0  0  0  0  0  0  0  0  0  0  0
   -0.8783    0.0481   -0.0013 C   0  0  0  0  0  0  0  0  0  0  0  0
   -1.5398    1.2692    0.1678 C   0  0  0  0  0  0  0  0  0  0  0  0
   -0.8654    2.4617    0.4706 C   0  0  0  0  0  0  0  0  0  0  0  0
   -0.3943    3.4767    0.7360 N   0  0  0  0  0  0  0  0  0  0  0  0
   -2.9579    1.2986    0.0821 C   0  0  0  0  0  0  0  0  0  0  0  0
   -3.6338    2.4562    0.2202 N   0  0  0  0  0  0  0  0  0  0  0  0
   -3.6796    0.2096   -0.1515 N   0  0  0  0  0  0  0  0  0  0  0  0
   -3.0667   -0.9564   -0.3133 C   0  0  0  0  0  0  0  0  0  0  0  0
   -3.8522   -2.0299   -0.5293 N   0  0  0  0  0  0  0  0  0  0  0  0
   -1.6535   -1.0902   -0.2473 C   0  0  0  0  0  0  0  0  0  0  0  0
   -1.0918   -2.3539   -0.4840 C   0  0  0  0  0  0  0  0  0  0  0  0
   -0.7147   -3.4178   -0.7042 N   0  0  0  0  0  0  0  0  0  0  0  0
    1.3833    0.8708   -0.6159 C   0  0  0  0  0  0  0  0  0  0  0  0
    2.7581    0.7846   -0.5430 C   0  0  0  0  0  0  0  0  0  0  0  0
    5.2806   -0.4751   -0.6929 H   0  0  0  0  0  0  0  0  0  0  0  0
    5.2802    0.6763    0.6376 H   0  0  0  0  0  0  0  0  0  0  0  0
    5.1893   -1.0584    0.9730 H   0  0  0  0  0  0  0  0  0  0  0  0
    3.0312   -1.8627    1.5262 H   0  0  0  0  0  0  0  0  0  0  0  0
    0.5914   -1.7226    1.4024 H   0  0  0  0  0  0  0  0  0  0  0  0
   -3.1505    3.3008    0.4695 H   0  0  0  0  0  0  0  0  0  0  0  0
   -4.6372    2.4285    0.2125 H   0  0  0  0  0  0  0  0  0  0  0  0
   -4.8406   -1.8871   -0.6300 H   0  0  0  0  0  0  0  0  0  0  0  0
   -3.4448   -2.9254   -0.7324 H   0  0  0  0  0  0  0  0  0  0  0  0
    0.9242    1.6314   -1.2305 H   0  0  0  0  0  0  0  0  0  0  0  0
    3.3658    1.4898   -1.0913 H   0  0  0  0  0  0  0  0  0  0  0  0
  1  2  1  0  0  0  0
  2  3  2  0  0  0  0
  3  4  1  0  0  0  0
  4  5  2  0  0  0  0
  5  6  1  0  0  0  0
  6  7  2  0  0  0  0
  7  8  1  0  0  0  0
  8  9  3  0  0  0  0
  7 10  1  0  0  0  0
 10 11  1  0  0  0  0
 10 12  2  0  0  0  0
 12 13  1  0  0  0  0
 13 14  1  0  0  0  0
 13 15  2  0  0  0  0
 15 16  1  0  0  0  0
 16 17  3  0  0  0  0
  5 18  1  0  0  0  0
 18 19  2  0  0  0  0
 19  2  1  0  0  0  0
 15  6  1  0  0  0  0
  1 20  1  0  0  0  0
  1 21  1  0  0  0  0
  1 22  1  0  0  0  0
  3 23  1  0  0  0  0
  4 24  1  0  0  0  0
 11 25  1  0  0  0  0
 11 26  1  0  0  0  0
 14 27  1  0  0  0  0
 14 28  1  0  0  0  0
 18 29  1  0  0  0  0
 19 30  1  0  0  0  0
M  END
