
  xtb     03022214463D
 energy: -43.864282643984 gnorm: 0.000246384793 xtb: 6.4.1 (afa7bdf)
 23 24  0     0  0            999 V2000
   -4.1216   -2.6188    1.2178 N   0  0  0  0  0  0  0  0  0  0  0  0
   -3.3413   -1.7882    1.0802 C   0  0  0  0  0  0  0  0  0  0  0  0
   -2.4405   -0.7119    0.9588 C   0  0  0  0  0  0  0  0  0  0  0  0
   -1.2052   -0.8456    0.3344 C   0  0  0  0  0  0  0  0  0  0  0  0
   -0.3605    0.2569    0.2439 C   0  0  0  0  0  0  0  0  0  0  0  0
    0.9532    0.1701   -0.4053 C   0  0  0  0  0  0  0  0  0  0  0  0
    1.7537   -0.9581   -0.2351 C   0  0  0  0  0  0  0  0  0  0  0  0
    2.9934   -1.0433   -0.8392 C   0  0  0  0  0  0  0  0  0  0  0  0
    3.4263    0.0114   -1.6226 C   0  0  0  0  0  0  0  0  0  0  0  0
    4.6330   -0.0661   -2.2168 F   0  0  0  0  0  0  0  0  0  0  0  0
    2.6540    1.1435   -1.8128 C   0  0  0  0  0  0  0  0  0  0  0  0
    1.4187    1.2176   -1.1987 C   0  0  0  0  0  0  0  0  0  0  0  0
   -0.8197    1.4502    0.8067 C   0  0  0  0  0  0  0  0  0  0  0  0
   -1.9887    1.5903    1.3980 N   0  0  0  0  0  0  0  0  0  0  0  0
   -2.8007    0.5538    1.4825 C   0  0  0  0  0  0  0  0  0  0  0  0
   -3.9719    0.7722    2.0876 O   0  0  0  0  0  0  0  0  0  0  0  0
   -0.9233   -1.7981   -0.0906 H   0  0  0  0  0  0  0  0  0  0  0  0
    1.4144   -1.7681    0.3929 H   0  0  0  0  0  0  0  0  0  0  0  0
    3.6232   -1.9091   -0.7092 H   0  0  0  0  0  0  0  0  0  0  0  0
    3.0214    1.9451   -2.4335 H   0  0  0  0  0  0  0  0  0  0  0  0
    0.7992    2.0878   -1.3530 H   0  0  0  0  0  0  0  0  0  0  0  0
   -0.2053    2.3399    0.7975 H   0  0  0  0  0  0  0  0  0  0  0  0
   -4.5113   -0.0316    2.1167 H   0  0  0  0  0  0  0  0  0  0  0  0
  1  2  3  0  0  0  0
  2  3  1  0  0  0  0
  3  4  2  0  0  0  0
  4  5  1  0  0  0  0
  5  6  1  0  0  0  0
  6  7  2  0  0  0  0
  7  8  1  0  0  0  0
  8  9  2  0  0  0  0
  9 10  1  0  0  0  0
  9 11  1  0  0  0  0
 11 12  2  0  0  0  0
  5 13  2  0  0  0  0
 13 14  1  0  0  0  0
 14 15  2  0  0  0  0
 15 16  1  0  0  0  0
 15  3  1  0  0  0  0
 12  6  1  0  0  0  0
  4 17  1  0  0  0  0
  7 18  1  0  0  0  0
  8 19  1  0  0  0  0
 11 20  1  0  0  0  0
 12 21  1  0  0  0  0
 13 22  1  0  0  0  0
 16 23  1  0  0  0  0
M  END
