
  xtb     03022213063D
 energy: -70.048237933673 gnorm: 0.000160817152 xtb: 6.4.1 (afa7bdf)
 43 45  0     0  0            999 V2000
    6.6599   -0.6624   -0.7914 C   0  0  0  0  0  0  0  0  0  0  0  0
    5.9382    0.6616   -0.9997 C   0  0  0  0  0  0  0  0  0  0  0  0
    4.5503    0.5577   -0.6908 O   0  0  0  0  0  0  0  0  0  0  0  0
    4.2184    0.6514    0.6097 C   0  0  0  0  0  0  0  0  0  0  0  0
    5.0252    0.8351    1.4883 O   0  0  0  0  0  0  0  0  0  0  0  0
    2.7575    0.5165    0.8311 C   0  0  0  0  0  0  0  0  0  0  0  0
    2.3937    0.6285    2.1887 C   0  0  0  0  0  0  0  0  0  0  0  0
    2.1471    0.7264    3.3061 N   0  0  0  0  0  0  0  0  0  0  0  0
    1.9085    0.3078   -0.2104 C   0  0  0  0  0  0  0  0  0  0  0  0
    0.4844    0.1534   -0.2223 C   0  0  0  0  0  0  0  0  0  0  0  0
   -0.3015    0.1843    0.9330 C   0  0  0  0  0  0  0  0  0  0  0  0
   -1.6681    0.0308    0.8428 C   0  0  0  0  0  0  0  0  0  0  0  0
   -2.7330    0.0150    1.8077 C   0  0  0  0  0  0  0  0  0  0  0  0
   -2.7680    0.1492    3.1881 C   0  0  0  0  0  0  0  0  0  0  0  0
   -3.9931    0.0858    3.8236 C   0  0  0  0  0  0  0  0  0  0  0  0
   -5.1663   -0.1069    3.0998 C   0  0  0  0  0  0  0  0  0  0  0  0
   -5.1537   -0.2423    1.7232 C   0  0  0  0  0  0  0  0  0  0  0  0
   -3.9286   -0.1815    1.0778 C   0  0  0  0  0  0  0  0  0  0  0  0
   -3.6262   -0.2868   -0.2675 N   0  0  0  0  0  0  0  0  0  0  0  0
   -4.5562   -0.4878   -1.3419 C   0  0  0  0  0  0  0  0  0  0  0  0
   -2.2777   -0.1581   -0.4226 C   0  0  0  0  0  0  0  0  0  0  0  0
   -1.5227   -0.1928   -1.5899 C   0  0  0  0  0  0  0  0  0  0  0  0
   -0.1510   -0.0397   -1.4911 C   0  0  0  0  0  0  0  0  0  0  0  0
    0.6782   -0.0590   -2.5676 O   0  0  0  0  0  0  0  0  0  0  0  0
    0.1342   -0.2421   -3.8510 C   0  0  0  0  0  0  0  0  0  0  0  0
    6.1865   -1.4465   -1.3780 H   0  0  0  0  0  0  0  0  0  0  0  0
    7.6970   -0.5637   -1.0990 H   0  0  0  0  0  0  0  0  0  0  0  0
    6.6290   -0.9385    0.2597 H   0  0  0  0  0  0  0  0  0  0  0  0
    6.3859    1.4373   -0.3693 H   0  0  0  0  0  0  0  0  0  0  0  0
    5.9702    0.9684   -2.0477 H   0  0  0  0  0  0  0  0  0  0  0  0
    2.3741    0.2514   -1.1847 H   0  0  0  0  0  0  0  0  0  0  0  0
    0.1627    0.3276    1.8932 H   0  0  0  0  0  0  0  0  0  0  0  0
   -1.8560    0.2996    3.7444 H   0  0  0  0  0  0  0  0  0  0  0  0
   -4.0462    0.1873    4.8969 H   0  0  0  0  0  0  0  0  0  0  0  0
   -6.1096   -0.1513    3.6236 H   0  0  0  0  0  0  0  0  0  0  0  0
   -6.0772   -0.3888    1.1830 H   0  0  0  0  0  0  0  0  0  0  0  0
   -4.2731   -1.3634   -1.9313 H   0  0  0  0  0  0  0  0  0  0  0  0
   -5.5513   -0.6497   -0.9358 H   0  0  0  0  0  0  0  0  0  0  0  0
   -4.5834    0.3853   -2.0002 H   0  0  0  0  0  0  0  0  0  0  0  0
   -2.0056   -0.3345   -2.5428 H   0  0  0  0  0  0  0  0  0  0  0  0
    0.9826   -0.2219   -4.5333 H   0  0  0  0  0  0  0  0  0  0  0  0
   -0.3758   -1.2069   -3.9388 H   0  0  0  0  0  0  0  0  0  0  0  0
   -0.5587    0.5637   -4.1138 H   0  0  0  0  0  0  0  0  0  0  0  0
  1  2  1  0  0  0  0
  2  3  1  0  0  0  0
  3  4  1  0  0  0  0
  4  5  2  0  0  0  0
  4  6  1  0  0  0  0
  6  7  1  0  0  0  0
  7  8  3  0  0  0  0
  6  9  2  0  0  0  0
  9 10  1  0  0  0  0
 10 11  2  0  0  0  0
 11 12  1  0  0  0  0
 12 13  1  0  0  0  0
 13 14  2  0  0  0  0
 14 15  1  0  0  0  0
 15 16  2  0  0  0  0
 16 17  1  0  0  0  0
 17 18  2  0  0  0  0
 18 19  1  0  0  0  0
 19 20  1  0  0  0  0
 19 21  1  0  0  0  0
 21 22  1  0  0  0  0
 22 23  2  0  0  0  0
 23 24  1  0  0  0  0
 24 25  1  0  0  0  0
 23 10  1  0  0  0  0
 21 12  2  0  0  0  0
 18 13  1  0  0  0  0
  1 26  1  0  0  0  0
  1 27  1  0  0  0  0
  1 28  1  0  0  0  0
  2 29  1  0  0  0  0
  2 30  1  0  0  0  0
  9 31  1  0  0  0  0
 11 32  1  0  0  0  0
 14 33  1  0  0  0  0
 15 34  1  0  0  0  0
 16 35  1  0  0  0  0
 17 36  1  0  0  0  0
 20 37  1  0  0  0  0
 20 38  1  0  0  0  0
 20 39  1  0  0  0  0
 22 40  1  0  0  0  0
 25 41  1  0  0  0  0
 25 42  1  0  0  0  0
 25 43  1  0  0  0  0
M  END
