
  xtb     03022215373D
 energy: -143.148840536620 gnorm: 0.000688627777 xtb: 6.4.1 (afa7bdf)
105111  0     0  0            999 V2000
    1.1439   -0.2126   -5.3851 C   0  0  0  0  0  0  0  0  0  0  0  0
    0.0727   -0.6138   -4.3786 C   0  0  0  0  0  0  0  0  0  0  0  0
    0.5185   -0.3465   -2.9419 C   0  0  0  0  0  0  0  0  0  0  0  0
   -0.5547   -0.7767   -1.9467 C   0  0  0  0  0  0  0  0  0  0  0  0
   -0.2454   -0.5147   -0.4535 C   0  0  0  0  0  0  0  0  0  0  0  0
   -0.1586    0.9866   -0.1490 C   0  0  0  0  0  0  0  0  0  0  0  0
    0.0348    1.2654    1.3406 C   0  0  0  0  0  0  0  0  0  0  0  0
    0.0859    2.7590    1.6628 C   0  0  0  0  0  0  0  0  0  0  0  0
    1.3281    3.4498    1.1112 C   0  0  0  0  0  0  0  0  0  0  0  0
   -1.3315   -1.2065    0.3428 C   0  0  0  0  0  0  0  0  0  0  0  0
   -2.6734   -0.9172    0.3945 C   0  0  0  0  0  0  0  0  0  0  0  0
   -3.5094   -1.7225    1.1795 C   0  0  0  0  0  0  0  0  0  0  0  0
   -4.8861   -1.4355    1.2606 C   0  0  0  0  0  0  0  0  0  0  0  0
   -6.0668   -1.1864    1.3316 C   0  0  0  0  0  0  0  0  0  0  0  0
   -7.4433   -0.9004    1.4142 C   0  0  0  0  0  0  0  0  0  0  0  0
   -8.2971   -1.7341    2.1426 C   0  0  0  0  0  0  0  0  0  0  0  0
   -9.6421   -1.4520    2.2164 C   0  0  0  0  0  0  0  0  0  0  0  0
  -10.1823   -0.3223    1.5930 C   0  0  0  0  0  0  0  0  0  0  0  0
  -11.6123   -0.0733    1.7178 C   0  0  0  0  0  0  0  0  0  0  0  0
  -12.2359    1.1058    1.8547 C   0  0  0  0  0  0  0  0  0  0  0  0
  -11.5269    2.4265    1.9368 C   0  0  0  0  0  0  0  0  0  0  0  0
  -13.7031    1.1527    1.9672 C   0  0  0  0  0  0  0  0  0  0  0  0
  -14.4054    0.1919    2.6935 C   0  0  0  0  0  0  0  0  0  0  0  0
  -15.7830    0.2435    2.7912 C   0  0  0  0  0  0  0  0  0  0  0  0
  -16.4896    1.2551    2.1631 C   0  0  0  0  0  0  0  0  0  0  0  0
  -15.8050    2.2193    1.4428 C   0  0  0  0  0  0  0  0  0  0  0  0
  -14.4267    2.1734    1.3514 C   0  0  0  0  0  0  0  0  0  0  0  0
   -9.3262    0.4922    0.8491 C   0  0  0  0  0  0  0  0  0  0  0  0
   -7.9797    0.2100    0.7586 C   0  0  0  0  0  0  0  0  0  0  0  0
   -2.9811   -2.8094    1.8844 C   0  0  0  0  0  0  0  0  0  0  0  0
   -1.6325   -3.1002    1.8277 C   0  0  0  0  0  0  0  0  0  0  0  0
   -0.8054   -2.2948    1.0581 C   0  0  0  0  0  0  0  0  0  0  0  0
    0.6276   -2.3318    0.8475 C   0  0  0  0  0  0  0  0  0  0  0  0
    1.5940   -3.1799    1.3686 C   0  0  0  0  0  0  0  0  0  0  0  0
    2.9200   -2.9519    1.0587 C   0  0  0  0  0  0  0  0  0  0  0  0
    3.2869   -1.8696    0.2525 C   0  0  0  0  0  0  0  0  0  0  0  0
    4.6468   -1.6279   -0.0265 C   0  0  0  0  0  0  0  0  0  0  0  0
    5.8116   -1.4114   -0.2666 C   0  0  0  0  0  0  0  0  0  0  0  0
    7.1704   -1.1559   -0.5369 C   0  0  0  0  0  0  0  0  0  0  0  0
    8.1346   -2.1464   -0.3288 C   0  0  0  0  0  0  0  0  0  0  0  0
    9.4598   -1.8898   -0.5995 C   0  0  0  0  0  0  0  0  0  0  0  0
    9.8765   -0.6360   -1.0570 C   0  0  0  0  0  0  0  0  0  0  0  0
   11.2944   -0.4170   -1.3157 C   0  0  0  0  0  0  0  0  0  0  0  0
   12.0150    0.6823   -1.0527 C   0  0  0  0  0  0  0  0  0  0  0  0
   11.4602    1.9064   -0.3836 C   0  0  0  0  0  0  0  0  0  0  0  0
   13.4467    0.7250   -1.3938 C   0  0  0  0  0  0  0  0  0  0  0  0
   14.0204    1.8961   -1.8877 C   0  0  0  0  0  0  0  0  0  0  0  0
   15.3610    1.9425   -2.2211 C   0  0  0  0  0  0  0  0  0  0  0  0
   16.1609    0.8246   -2.0550 C   0  0  0  0  0  0  0  0  0  0  0  0
   15.6076   -0.3411   -1.5528 C   0  0  0  0  0  0  0  0  0  0  0  0
   14.2655   -0.3910   -1.2269 C   0  0  0  0  0  0  0  0  0  0  0  0
    8.9046    0.3408   -1.2820 C   0  0  0  0  0  0  0  0  0  0  0  0
    7.5729    0.0868   -1.0314 C   0  0  0  0  0  0  0  0  0  0  0  0
    2.3079   -1.0181   -0.2777 C   0  0  0  0  0  0  0  0  0  0  0  0
    0.9850   -1.2665    0.0017 C   0  0  0  0  0  0  0  0  0  0  0  0
    2.0606   -0.7714   -5.2089 H   0  0  0  0  0  0  0  0  0  0  0  0
    0.8099   -0.4126   -6.4006 H   0  0  0  0  0  0  0  0  0  0  0  0
    1.3692    0.8486   -5.3012 H   0  0  0  0  0  0  0  0  0  0  0  0
   -0.8450   -0.0573   -4.5838 H   0  0  0  0  0  0  0  0  0  0  0  0
   -0.1530   -1.6765   -4.4937 H   0  0  0  0  0  0  0  0  0  0  0  0
    0.7302    0.7187   -2.8322 H   0  0  0  0  0  0  0  0  0  0  0  0
    1.4394   -0.8997   -2.7514 H   0  0  0  0  0  0  0  0  0  0  0  0
   -0.7304   -1.8495   -2.0695 H   0  0  0  0  0  0  0  0  0  0  0  0
   -1.4891   -0.2633   -2.1880 H   0  0  0  0  0  0  0  0  0  0  0  0
   -1.0757    1.4721   -0.4908 H   0  0  0  0  0  0  0  0  0  0  0  0
    0.6762    1.4102   -0.7065 H   0  0  0  0  0  0  0  0  0  0  0  0
    0.9591    0.7924    1.6809 H   0  0  0  0  0  0  0  0  0  0  0  0
   -0.7906    0.8133    1.8962 H   0  0  0  0  0  0  0  0  0  0  0  0
   -0.8082    3.2456    1.2655 H   0  0  0  0  0  0  0  0  0  0  0  0
    0.0704    2.8791    2.7486 H   0  0  0  0  0  0  0  0  0  0  0  0
    1.3239    3.4577    0.0242 H   0  0  0  0  0  0  0  0  0  0  0  0
    1.3704    4.4812    1.4541 H   0  0  0  0  0  0  0  0  0  0  0  0
    2.2273    2.9387    1.4491 H   0  0  0  0  0  0  0  0  0  0  0  0
   -3.0955   -0.0830   -0.1470 H   0  0  0  0  0  0  0  0  0  0  0  0
   -7.8903   -2.6027    2.6405 H   0  0  0  0  0  0  0  0  0  0  0  0
  -10.2953   -2.1043    2.7793 H   0  0  0  0  0  0  0  0  0  0  0  0
  -12.2177   -0.9720    1.7236 H   0  0  0  0  0  0  0  0  0  0  0  0
  -10.5132    2.2959    2.3082 H   0  0  0  0  0  0  0  0  0  0  0  0
  -12.0655    3.0946    2.6070 H   0  0  0  0  0  0  0  0  0  0  0  0
  -11.4741    2.9058    0.9589 H   0  0  0  0  0  0  0  0  0  0  0  0
  -13.8631   -0.5885    3.2071 H   0  0  0  0  0  0  0  0  0  0  0  0
  -16.3083   -0.5070    3.3642 H   0  0  0  0  0  0  0  0  0  0  0  0
  -17.5662    1.2946    2.2383 H   0  0  0  0  0  0  0  0  0  0  0  0
  -16.3484    3.0131    0.9506 H   0  0  0  0  0  0  0  0  0  0  0  0
  -13.9081    2.9271    0.7779 H   0  0  0  0  0  0  0  0  0  0  0  0
   -9.7268    1.3322    0.3038 H   0  0  0  0  0  0  0  0  0  0  0  0
   -7.3279    0.8449    0.1754 H   0  0  0  0  0  0  0  0  0  0  0  0
   -3.6465   -3.4183    2.4793 H   0  0  0  0  0  0  0  0  0  0  0  0
   -1.2311   -3.9396    2.3762 H   0  0  0  0  0  0  0  0  0  0  0  0
    1.3166   -4.0010    2.0131 H   0  0  0  0  0  0  0  0  0  0  0  0
    3.6924   -3.5976    1.4510 H   0  0  0  0  0  0  0  0  0  0  0  0
    7.8275   -3.1149    0.0390 H   0  0  0  0  0  0  0  0  0  0  0  0
   10.1982   -2.6630   -0.4391 H   0  0  0  0  0  0  0  0  0  0  0  0
   11.8027   -1.2691   -1.7514 H   0  0  0  0  0  0  0  0  0  0  0  0
   11.1675    2.6580   -1.1171 H   0  0  0  0  0  0  0  0  0  0  0  0
   10.5872    1.6554    0.2143 H   0  0  0  0  0  0  0  0  0  0  0  0
   12.2165    2.3486    0.2630 H   0  0  0  0  0  0  0  0  0  0  0  0
   13.4080    2.7736   -2.0323 H   0  0  0  0  0  0  0  0  0  0  0  0
   15.7843    2.8569   -2.6117 H   0  0  0  0  0  0  0  0  0  0  0  0
   17.2094    0.8628   -2.3111 H   0  0  0  0  0  0  0  0  0  0  0  0
   16.2270   -1.2150   -1.4104 H   0  0  0  0  0  0  0  0  0  0  0  0
   13.8501   -1.2988   -0.8147 H   0  0  0  0  0  0  0  0  0  0  0  0
    9.1928    1.2955   -1.6935 H   0  0  0  0  0  0  0  0  0  0  0  0
    6.8286    0.8482   -1.2163 H   0  0  0  0  0  0  0  0  0  0  0  0
    2.6152   -0.1777   -0.8822 H   0  0  0  0  0  0  0  0  0  0  0  0
  1  2  1  0  0  0  0
  1 56  1  0  0  0  0
  1 57  1  0  0  0  0
  1 58  1  0  0  0  0
  2  3  1  0  0  0  0
  2 59  1  0  0  0  0
  2 60  1  0  0  0  0
  3  4  1  0  0  0  0
  3 61  1  0  0  0  0
  3 62  1  0  0  0  0
  4  5  1  0  0  0  0
  4 63  1  0  0  0  0
  4 64  1  0  0  0  0
  5  6  1  0  0  0  0
  5 10  1  0  0  0  0
  6  7  1  0  0  0  0
  6 65  1  0  0  0  0
  6 66  1  0  0  0  0
  7  8  1  0  0  0  0
  7 67  1  0  0  0  0
  7 68  1  0  0  0  0
  8  9  1  0  0  0  0
  8 69  1  0  0  0  0
  8 70  1  0  0  0  0
  9 71  1  0  0  0  0
  9 72  1  0  0  0  0
  9 73  1  0  0  0  0
 10 11  2  0  0  0  0
 11 12  1  0  0  0  0
 11 74  1  0  0  0  0
 12 13  1  0  0  0  0
 12 30  2  0  0  0  0
 13 14  3  0  0  0  0
 14 15  1  0  0  0  0
 15 16  2  0  0  0  0
 16 17  1  0  0  0  0
 16 75  1  0  0  0  0
 17 18  2  0  0  0  0
 17 76  1  0  0  0  0
 18 19  1  0  0  0  0
 18 28  1  0  0  0  0
 19 20  2  0  0  0  0
 19 77  1  0  0  0  0
 20 21  1  0  0  0  0
 20 22  1  0  0  0  0
 21 78  1  0  0  0  0
 21 79  1  0  0  0  0
 21 80  1  0  0  0  0
 22 23  2  0  0  0  0
 23 24  1  0  0  0  0
 23 81  1  0  0  0  0
 24 25  2  0  0  0  0
 24 82  1  0  0  0  0
 25 26  1  0  0  0  0
 25 83  1  0  0  0  0
 26 27  2  0  0  0  0
 26 84  1  0  0  0  0
 27 22  1  0  0  0  0
 27 85  1  0  0  0  0
 28 29  2  0  0  0  0
 28 86  1  0  0  0  0
 29 15  1  0  0  0  0
 29 87  1  0  0  0  0
 30 31  1  0  0  0  0
 30 88  1  0  0  0  0
 31 32  2  0  0  0  0
 31 89  1  0  0  0  0
 32 33  1  0  0  0  0
 32 10  1  0  0  0  0
 33 34  2  0  0  0  0
 34 35  1  0  0  0  0
 34 90  1  0  0  0  0
 35 36  2  0  0  0  0
 35 91  1  0  0  0  0
 36 37  1  0  0  0  0
 36 54  1  0  0  0  0
 37 38  3  0  0  0  0
 38 39  1  0  0  0  0
 39 40  2  0  0  0  0
 40 41  1  0  0  0  0
 40 92  1  0  0  0  0
 41 42  2  0  0  0  0
 41 93  1  0  0  0  0
 42 43  1  0  0  0  0
 42 52  1  0  0  0  0
 43 44  2  0  0  0  0
 43 94  1  0  0  0  0
 44 45  1  0  0  0  0
 44 46  1  0  0  0  0
 45 95  1  0  0  0  0
 45 96  1  0  0  0  0
 45 97  1  0  0  0  0
 46 47  2  0  0  0  0
 47 48  1  0  0  0  0
 47 98  1  0  0  0  0
 48 49  2  0  0  0  0
 48 99  1  0  0  0  0
 49 50  1  0  0  0  0
 49100  1  0  0  0  0
 50 51  2  0  0  0  0
 50101  1  0  0  0  0
 51 46  1  0  0  0  0
 51102  1  0  0  0  0
 52 53  2  0  0  0  0
 52103  1  0  0  0  0
 53 39  1  0  0  0  0
 53104  1  0  0  0  0
 54 55  2  0  0  0  0
 54105  1  0  0  0  0
 55  5  1  0  0  0  0
 55 33  1  0  0  0  0
M  END
