
  xtb     03022213273D
 energy: -96.994539138946 gnorm: 0.000174662244 xtb: 6.4.1 (afa7bdf)
 61 68  0     0  0            999 V2000
    7.1894    2.1898    0.5002 C   0  0  0  0  0  0  0  0  0  0  0  0
    7.4562    0.6857    0.3463 C   0  0  0  0  0  0  0  0  0  0  0  0
    7.3182   -0.0108    1.7077 C   0  0  0  0  0  0  0  0  0  0  0  0
    8.8986    0.5073   -0.1346 C   0  0  0  0  0  0  0  0  0  0  0  0
    6.4336    0.0949   -0.6147 C   0  0  0  0  0  0  0  0  0  0  0  0
    6.8036   -0.5543   -1.7952 C   0  0  0  0  0  0  0  0  0  0  0  0
    5.8795   -1.0999   -2.6714 C   0  0  0  0  0  0  0  0  0  0  0  0
    4.5442   -0.9858   -2.3454 C   0  0  0  0  0  0  0  0  0  0  0  0
    3.4765   -1.4518   -3.0611 O   0  0  0  0  0  0  0  0  0  0  0  0
    2.3782   -1.1152   -2.3620 C   0  0  0  0  0  0  0  0  0  0  0  0
    1.1645   -1.4245   -2.7772 N   0  0  0  0  0  0  0  0  0  0  0  0
    0.2131   -1.0151   -1.9613 C   0  0  0  0  0  0  0  0  0  0  0  0
   -1.0909   -1.2445   -2.2152 O   0  0  0  0  0  0  0  0  0  0  0  0
   -1.7862   -0.6957   -1.1790 C   0  0  0  0  0  0  0  0  0  0  0  0
   -3.1581   -0.6965   -1.0309 C   0  0  0  0  0  0  0  0  0  0  0  0
   -3.6788   -0.0852    0.1072 C   0  0  0  0  0  0  0  0  0  0  0  0
   -5.0619   -0.0771    0.3135 N   0  0  0  0  0  0  0  0  0  0  0  0
   -5.8291    1.0278    0.6316 C   0  0  0  0  0  0  0  0  0  0  0  0
   -5.4546    2.3574    0.7608 C   0  0  0  0  0  0  0  0  0  0  0  0
   -6.4399    3.2793    1.0592 C   0  0  0  0  0  0  0  0  0  0  0  0
   -7.7701    2.8975    1.2177 C   0  0  0  0  0  0  0  0  0  0  0  0
   -8.1527    1.5798    1.0656 C   0  0  0  0  0  0  0  0  0  0  0  0
   -7.1802    0.6351    0.7660 C   0  0  0  0  0  0  0  0  0  0  0  0
   -7.2213   -0.7797    0.5214 C   0  0  0  0  0  0  0  0  0  0  0  0
   -8.2434   -1.7198    0.5305 C   0  0  0  0  0  0  0  0  0  0  0  0
   -7.9309   -3.0387    0.2690 C   0  0  0  0  0  0  0  0  0  0  0  0
   -6.6172   -3.4263    0.0155 C   0  0  0  0  0  0  0  0  0  0  0  0
   -5.5835   -2.5091    0.0013 C   0  0  0  0  0  0  0  0  0  0  0  0
   -5.8950   -1.1785    0.2401 C   0  0  0  0  0  0  0  0  0  0  0  0
   -2.8356    0.5138    1.0519 C   0  0  0  0  0  0  0  0  0  0  0  0
   -1.4666    0.5194    0.8886 C   0  0  0  0  0  0  0  0  0  0  0  0
   -0.9285   -0.0949   -0.2352 C   0  0  0  0  0  0  0  0  0  0  0  0
    0.3977   -0.3047   -0.7444 C   0  0  0  0  0  0  0  0  0  0  0  0
    1.6836    0.0073   -0.3285 C   0  0  0  0  0  0  0  0  0  0  0  0
    2.7024   -0.4149   -1.1669 C   0  0  0  0  0  0  0  0  0  0  0  0
    4.1381   -0.3363   -1.1650 C   0  0  0  0  0  0  0  0  0  0  0  0
    5.0827    0.2003   -0.3049 C   0  0  0  0  0  0  0  0  0  0  0  0
    7.9246    2.6333    1.1682 H   0  0  0  0  0  0  0  0  0  0  0  0
    6.2015    2.3796    0.9098 H   0  0  0  0  0  0  0  0  0  0  0  0
    7.2586    2.6843   -0.4664 H   0  0  0  0  0  0  0  0  0  0  0  0
    7.4851   -1.0805    1.6007 H   0  0  0  0  0  0  0  0  0  0  0  0
    6.3294    0.1384    2.1321 H   0  0  0  0  0  0  0  0  0  0  0  0
    8.0518    0.3849    2.4066 H   0  0  0  0  0  0  0  0  0  0  0  0
    9.5774    0.9530    0.5896 H   0  0  0  0  0  0  0  0  0  0  0  0
    9.0575    1.0014   -1.0902 H   0  0  0  0  0  0  0  0  0  0  0  0
    9.1542   -0.5455   -0.2280 H   0  0  0  0  0  0  0  0  0  0  0  0
    7.8451   -0.6459   -2.0529 H   0  0  0  0  0  0  0  0  0  0  0  0
    6.1894   -1.5973   -3.5760 H   0  0  0  0  0  0  0  0  0  0  0  0
   -3.8008   -1.1403   -1.7731 H   0  0  0  0  0  0  0  0  0  0  0  0
   -4.4301    2.6675    0.6203 H   0  0  0  0  0  0  0  0  0  0  0  0
   -6.1728    4.3202    1.1673 H   0  0  0  0  0  0  0  0  0  0  0  0
   -8.5101    3.6480    1.4526 H   0  0  0  0  0  0  0  0  0  0  0  0
   -9.1860    1.2855    1.1708 H   0  0  0  0  0  0  0  0  0  0  0  0
   -9.2587   -1.4208    0.7431 H   0  0  0  0  0  0  0  0  0  0  0  0
   -8.7108   -3.7856    0.2689 H   0  0  0  0  0  0  0  0  0  0  0  0
   -6.4002   -4.4676   -0.1712 H   0  0  0  0  0  0  0  0  0  0  0  0
   -4.5669   -2.8240   -0.1787 H   0  0  0  0  0  0  0  0  0  0  0  0
   -3.2770    0.9598    1.9300 H   0  0  0  0  0  0  0  0  0  0  0  0
   -0.8249    0.9806    1.6231 H   0  0  0  0  0  0  0  0  0  0  0  0
    1.8765    0.5424    0.5886 H   0  0  0  0  0  0  0  0  0  0  0  0
    4.7521    0.6924    0.5962 H   0  0  0  0  0  0  0  0  0  0  0  0
  1  2  1  0  0  0  0
  2  3  1  0  0  0  0
  2  4  1  0  0  0  0
  2  5  1  0  0  0  0
  5  6  2  0  0  0  0
  6  7  1  0  0  0  0
  7  8  2  0  0  0  0
  8  9  1  0  0  0  0
  9 10  1  0  0  0  0
 10 11  2  0  0  0  0
 11 12  1  0  0  0  0
 12 13  1  0  0  0  0
 13 14  1  0  0  0  0
 14 15  2  0  0  0  0
 15 16  1  0  0  0  0
 16 17  1  0  0  0  0
 17 18  1  0  0  0  0
 18 19  2  0  0  0  0
 19 20  1  0  0  0  0
 20 21  2  0  0  0  0
 21 22  1  0  0  0  0
 22 23  2  0  0  0  0
 23 24  1  0  0  0  0
 24 25  2  0  0  0  0
 25 26  1  0  0  0  0
 26 27  2  0  0  0  0
 27 28  1  0  0  0  0
 28 29  2  0  0  0  0
 16 30  2  0  0  0  0
 30 31  1  0  0  0  0
 31 32  2  0  0  0  0
 32 33  1  0  0  0  0
 33 34  1  0  0  0  0
 34 35  2  0  0  0  0
 35 36  1  0  0  0  0
 36 37  2  0  0  0  0
 37  5  1  0  0  0  0
 36  8  1  0  0  0  0
 35 10  1  0  0  0  0
 33 12  2  0  0  0  0
 32 14  1  0  0  0  0
 29 17  1  0  0  0  0
 23 18  1  0  0  0  0
 29 24  1  0  0  0  0
  1 38  1  0  0  0  0
  1 39  1  0  0  0  0
  1 40  1  0  0  0  0
  3 41  1  0  0  0  0
  3 42  1  0  0  0  0
  3 43  1  0  0  0  0
  4 44  1  0  0  0  0
  4 45  1  0  0  0  0
  4 46  1  0  0  0  0
  6 47  1  0  0  0  0
  7 48  1  0  0  0  0
 15 49  1  0  0  0  0
 19 50  1  0  0  0  0
 20 51  1  0  0  0  0
 21 52  1  0  0  0  0
 22 53  1  0  0  0  0
 25 54  1  0  0  0  0
 26 55  1  0  0  0  0
 27 56  1  0  0  0  0
 28 57  1  0  0  0  0
 30 58  1  0  0  0  0
 31 59  1  0  0  0  0
 34 60  1  0  0  0  0
 37 61  1  0  0  0  0
M  END
