
  xtb     03022213153D
 energy: -56.681653668323 gnorm: 0.000354090210 xtb: 6.4.1 (afa7bdf)
 34 37  0     0  0            999 V2000
    5.9755   -0.9681    1.1753 O   0  0  0  0  0  0  0  0  0  0  0  0
    5.3351   -0.8256    0.1677 C   0  0  0  0  0  0  0  0  0  0  0  0
    3.8863   -0.6007    0.1162 C   0  0  0  0  0  0  0  0  0  0  0  0
    3.1919   -0.4418   -1.0850 C   0  0  0  0  0  0  0  0  0  0  0  0
    1.8914   -0.2404   -1.1246 N   0  0  0  0  0  0  0  0  0  0  0  0
    1.2419   -0.1911    0.0366 C   0  0  0  0  0  0  0  0  0  0  0  0
   -0.2186    0.0343   -0.0085 C   0  0  0  0  0  0  0  0  0  0  0  0
   -1.0812   -1.0653   -0.0804 C   0  0  0  0  0  0  0  0  0  0  0  0
   -0.6058   -2.4016   -0.1125 C   0  0  0  0  0  0  0  0  0  0  0  0
   -1.4701   -3.4508   -0.1816 C   0  0  0  0  0  0  0  0  0  0  0  0
   -2.8630   -3.2307   -0.2236 C   0  0  0  0  0  0  0  0  0  0  0  0
   -3.3585   -1.9640   -0.1951 C   0  0  0  0  0  0  0  0  0  0  0  0
   -2.4928   -0.8424   -0.1227 C   0  0  0  0  0  0  0  0  0  0  0  0
   -2.9806    0.4603   -0.0913 C   0  0  0  0  0  0  0  0  0  0  0  0
   -2.1261    1.5559   -0.0187 C   0  0  0  0  0  0  0  0  0  0  0  0
   -2.6167    2.8866    0.0152 C   0  0  0  0  0  0  0  0  0  0  0  0
   -1.7655    3.9455    0.0875 C   0  0  0  0  0  0  0  0  0  0  0  0
   -0.3711    3.7357    0.1299 C   0  0  0  0  0  0  0  0  0  0  0  0
    0.1399    2.4746    0.0989 C   0  0  0  0  0  0  0  0  0  0  0  0
   -0.7129    1.3432    0.0240 C   0  0  0  0  0  0  0  0  0  0  0  0
    1.8049   -0.3293    1.2354 N   0  0  0  0  0  0  0  0  0  0  0  0
    3.1042   -0.5306    1.2753 C   0  0  0  0  0  0  0  0  0  0  0  0
    5.8122   -0.8562   -0.8324 H   0  0  0  0  0  0  0  0  0  0  0  0
    3.6991   -0.4781   -2.0425 H   0  0  0  0  0  0  0  0  0  0  0  0
    0.4603   -2.5736   -0.0799 H   0  0  0  0  0  0  0  0  0  0  0  0
   -1.0969   -4.4641   -0.2047 H   0  0  0  0  0  0  0  0  0  0  0  0
   -3.5285   -4.0796   -0.2782 H   0  0  0  0  0  0  0  0  0  0  0  0
   -4.4239   -1.7859   -0.2265 H   0  0  0  0  0  0  0  0  0  0  0  0
   -4.0488    0.6250   -0.1233 H   0  0  0  0  0  0  0  0  0  0  0  0
   -3.6862    3.0378   -0.0174 H   0  0  0  0  0  0  0  0  0  0  0  0
   -2.1468    4.9557    0.1135 H   0  0  0  0  0  0  0  0  0  0  0  0
    0.2876    4.5897    0.1878 H   0  0  0  0  0  0  0  0  0  0  0  0
    1.2082    2.3172    0.1322 H   0  0  0  0  0  0  0  0  0  0  0  0
    3.5548   -0.6419    2.2535 H   0  0  0  0  0  0  0  0  0  0  0  0
  1  2  2  0  0  0  0
  2  3  1  0  0  0  0
  3  4  2  0  0  0  0
  4  5  1  0  0  0  0
  5  6  2  0  0  0  0
  6  7  1  0  0  0  0
  7  8  1  0  0  0  0
  8  9  2  0  0  0  0
  9 10  1  0  0  0  0
 10 11  2  0  0  0  0
 11 12  1  0  0  0  0
 12 13  2  0  0  0  0
 13 14  1  0  0  0  0
 14 15  2  0  0  0  0
 15 16  1  0  0  0  0
 16 17  2  0  0  0  0
 17 18  1  0  0  0  0
 18 19  2  0  0  0  0
 19 20  1  0  0  0  0
  6 21  1  0  0  0  0
 21 22  2  0  0  0  0
 22  3  1  0  0  0  0
 20  7  2  0  0  0  0
 13  8  1  0  0  0  0
 20 15  1  0  0  0  0
  2 23  1  0  0  0  0
  4 24  1  0  0  0  0
  9 25  1  0  0  0  0
 10 26  1  0  0  0  0
 11 27  1  0  0  0  0
 12 28  1  0  0  0  0
 14 29  1  0  0  0  0
 16 30  1  0  0  0  0
 17 31  1  0  0  0  0
 18 32  1  0  0  0  0
 19 33  1  0  0  0  0
 22 34  1  0  0  0  0
M  END
