
  xtb     03022212173D
 energy: -52.012466106257 gnorm: 0.000106824073 xtb: 6.4.1 (afa7bdf)
 36 37  0     0  0            999 V2000
    4.9171    1.7189   -1.1205 C   0  0  0  0  0  0  0  0  0  0  0  0
    4.5144    0.6017   -0.3031 N   0  0  0  0  0  0  0  0  0  0  0  0
    5.5326   -0.2086    0.3184 C   0  0  0  0  0  0  0  0  0  0  0  0
    3.1946    0.2793   -0.1701 C   0  0  0  0  0  0  0  0  0  0  0  0
    2.1915    0.9925   -0.8494 C   0  0  0  0  0  0  0  0  0  0  0  0
    0.8658    0.6640   -0.7029 C   0  0  0  0  0  0  0  0  0  0  0  0
    0.4483   -0.3870    0.1233 C   0  0  0  0  0  0  0  0  0  0  0  0
   -0.9576   -0.6742    0.2406 C   0  0  0  0  0  0  0  0  0  0  0  0
   -1.5270   -1.6448    0.9787 C   0  0  0  0  0  0  0  0  0  0  0  0
   -2.9602   -1.9192    1.0179 C   0  0  0  0  0  0  0  0  0  0  0  0
   -3.3959   -2.9960    1.3927 O   0  0  0  0  0  0  0  0  0  0  0  0
   -3.8854   -0.8378    0.5692 C   0  0  0  0  0  0  0  0  0  0  0  0
   -3.7273    0.4802    0.9888 C   0  0  0  0  0  0  0  0  0  0  0  0
   -4.6251    1.4504    0.5812 C   0  0  0  0  0  0  0  0  0  0  0  0
   -5.6811    1.1175   -0.2516 C   0  0  0  0  0  0  0  0  0  0  0  0
   -5.8514   -0.1948   -0.6613 C   0  0  0  0  0  0  0  0  0  0  0  0
   -4.9649   -1.1700   -0.2436 C   0  0  0  0  0  0  0  0  0  0  0  0
    1.4490   -1.0976    0.7972 C   0  0  0  0  0  0  0  0  0  0  0  0
    2.7775   -0.7792    0.6573 C   0  0  0  0  0  0  0  0  0  0  0  0
    4.4142    2.6354   -0.8005 H   0  0  0  0  0  0  0  0  0  0  0  0
    5.9889    1.8733   -1.0229 H   0  0  0  0  0  0  0  0  0  0  0  0
    4.6905    1.5467   -2.1782 H   0  0  0  0  0  0  0  0  0  0  0  0
    5.4638   -0.1641    1.4099 H   0  0  0  0  0  0  0  0  0  0  0  0
    6.5149    0.1540    0.0261 H   0  0  0  0  0  0  0  0  0  0  0  0
    5.4500   -1.2537    0.0056 H   0  0  0  0  0  0  0  0  0  0  0  0
    2.4500    1.8080   -1.5044 H   0  0  0  0  0  0  0  0  0  0  0  0
    0.1216    1.2337   -1.2425 H   0  0  0  0  0  0  0  0  0  0  0  0
   -1.6008   -0.0322   -0.3506 H   0  0  0  0  0  0  0  0  0  0  0  0
   -0.9267   -2.3516    1.5346 H   0  0  0  0  0  0  0  0  0  0  0  0
   -2.9141    0.7380    1.6520 H   0  0  0  0  0  0  0  0  0  0  0  0
   -4.5014    2.4707    0.9147 H   0  0  0  0  0  0  0  0  0  0  0  0
   -6.3758    1.8796   -0.5736 H   0  0  0  0  0  0  0  0  0  0  0  0
   -6.6800   -0.4581   -1.3024 H   0  0  0  0  0  0  0  0  0  0  0  0
   -5.0916   -2.1991   -0.5456 H   0  0  0  0  0  0  0  0  0  0  0  0
    1.1789   -1.9171    1.4450 H   0  0  0  0  0  0  0  0  0  0  0  0
    3.5032   -1.3590    1.2034 H   0  0  0  0  0  0  0  0  0  0  0  0
  1  2  1  0  0  0  0
  2  3  1  0  0  0  0
  2  4  1  0  0  0  0
  4  5  2  0  0  0  0
  5  6  1  0  0  0  0
  6  7  2  0  0  0  0
  7  8  1  0  0  0  0
  8  9  2  0  0  0  0
  9 10  1  0  0  0  0
 10 11  2  0  0  0  0
 10 12  1  0  0  0  0
 12 13  2  0  0  0  0
 13 14  1  0  0  0  0
 14 15  2  0  0  0  0
 15 16  1  0  0  0  0
 16 17  2  0  0  0  0
  7 18  1  0  0  0  0
 18 19  2  0  0  0  0
 19  4  1  0  0  0  0
 17 12  1  0  0  0  0
  1 20  1  0  0  0  0
  1 21  1  0  0  0  0
  1 22  1  0  0  0  0
  3 23  1  0  0  0  0
  3 24  1  0  0  0  0
  3 25  1  0  0  0  0
  5 26  1  0  0  0  0
  6 27  1  0  0  0  0
  8 28  1  0  0  0  0
  9 29  1  0  0  0  0
 13 30  1  0  0  0  0
 14 31  1  0  0  0  0
 15 32  1  0  0  0  0
 16 33  1  0  0  0  0
 17 34  1  0  0  0  0
 18 35  1  0  0  0  0
 19 36  1  0  0  0  0
M  END
