
  xtb     03022213123D
 energy: -56.572360297500 gnorm: 0.000300232191 xtb: 6.4.1 (afa7bdf)
 33 35  0     0  0            999 V2000
    0.1779   -0.3056   -3.8687 N   0  0  0  0  0  0  0  0  0  0  0  0
    0.7237   -0.1981   -2.8627 C   0  0  0  0  0  0  0  0  0  0  0  0
    1.4552   -0.0381   -1.6759 C   0  0  0  0  0  0  0  0  0  0  0  0
    2.8134    0.3737   -1.7457 C   0  0  0  0  0  0  0  0  0  0  0  0
    3.4120    0.5769   -2.9351 N   0  0  0  0  0  0  0  0  0  0  0  0
    3.5547    0.5628   -0.6611 N   0  0  0  0  0  0  0  0  0  0  0  0
    3.0223    0.3615    0.5383 C   0  0  0  0  0  0  0  0  0  0  0  0
    3.8185    0.5843    1.6025 N   0  0  0  0  0  0  0  0  0  0  0  0
    1.6739   -0.0486    0.7130 C   0  0  0  0  0  0  0  0  0  0  0  0
    1.1887   -0.2810    2.0096 C   0  0  0  0  0  0  0  0  0  0  0  0
    0.8564   -0.4678    3.0939 N   0  0  0  0  0  0  0  0  0  0  0  0
    0.8795   -0.2455   -0.4204 C   0  0  0  0  0  0  0  0  0  0  0  0
   -0.5120   -0.7092   -0.2974 C   0  0  0  0  0  0  0  0  0  0  0  0
   -0.8618   -1.9118   -0.8633 C   0  0  0  0  0  0  0  0  0  0  0  0
   -2.1548   -2.4269   -0.7134 C   0  0  0  0  0  0  0  0  0  0  0  0
   -3.0909   -1.7353    0.0018 C   0  0  0  0  0  0  0  0  0  0  0  0
   -2.7809   -0.4846    0.5746 C   0  0  0  0  0  0  0  0  0  0  0  0
   -3.7425    0.2546    1.2947 C   0  0  0  0  0  0  0  0  0  0  0  0
   -3.4377    1.4783    1.8191 C   0  0  0  0  0  0  0  0  0  0  0  0
   -2.1603    2.0253    1.6304 C   0  0  0  0  0  0  0  0  0  0  0  0
   -1.2039    1.3324    0.9426 C   0  0  0  0  0  0  0  0  0  0  0  0
   -1.4757    0.0518    0.4168 C   0  0  0  0  0  0  0  0  0  0  0  0
    2.8897    0.4989   -3.7893 H   0  0  0  0  0  0  0  0  0  0  0  0
    4.3601    0.9061   -2.9458 H   0  0  0  0  0  0  0  0  0  0  0  0
    3.4954    0.3778    2.5310 H   0  0  0  0  0  0  0  0  0  0  0  0
    4.7823    0.8124    1.4398 H   0  0  0  0  0  0  0  0  0  0  0  0
   -0.1239   -2.4821   -1.4097 H   0  0  0  0  0  0  0  0  0  0  0  0
   -2.3966   -3.3790   -1.1613 H   0  0  0  0  0  0  0  0  0  0  0  0
   -4.0868   -2.1329    0.1343 H   0  0  0  0  0  0  0  0  0  0  0  0
   -4.7299   -0.1671    1.4176 H   0  0  0  0  0  0  0  0  0  0  0  0
   -4.1787    2.0374    2.3712 H   0  0  0  0  0  0  0  0  0  0  0  0
   -1.9369    3.0034    2.0302 H   0  0  0  0  0  0  0  0  0  0  0  0
   -0.2307    1.7756    0.7884 H   0  0  0  0  0  0  0  0  0  0  0  0
  1  2  3  0  0  0  0
  2  3  1  0  0  0  0
  3  4  2  0  0  0  0
  4  5  1  0  0  0  0
  4  6  1  0  0  0  0
  6  7  2  0  0  0  0
  7  8  1  0  0  0  0
  7  9  1  0  0  0  0
  9 10  1  0  0  0  0
 10 11  3  0  0  0  0
  9 12  2  0  0  0  0
 12 13  1  0  0  0  0
 13 14  2  0  0  0  0
 14 15  1  0  0  0  0
 15 16  2  0  0  0  0
 16 17  1  0  0  0  0
 17 18  2  0  0  0  0
 18 19  1  0  0  0  0
 19 20  2  0  0  0  0
 20 21  1  0  0  0  0
 21 22  2  0  0  0  0
 12  3  1  0  0  0  0
 22 13  1  0  0  0  0
 22 17  1  0  0  0  0
  5 23  1  0  0  0  0
  5 24  1  0  0  0  0
  8 25  1  0  0  0  0
  8 26  1  0  0  0  0
 14 27  1  0  0  0  0
 15 28  1  0  0  0  0
 16 29  1  0  0  0  0
 18 30  1  0  0  0  0
 19 31  1  0  0  0  0
 20 32  1  0  0  0  0
 21 33  1  0  0  0  0
M  END
