
  xtb     03022216033D
 energy: -122.325358858386 gnorm: 0.000069158415 xtb: 6.4.1 (afa7bdf)
 85 92  0     0  0            999 V2000
    9.0585    2.7429    0.3699 C   0  0  0  0  0  0  0  0  0  0  0  0
    8.2365    2.0161   -0.7037 C   0  0  0  0  0  0  0  0  0  0  0  0
    7.0533    2.9109   -1.0831 C   0  0  0  0  0  0  0  0  0  0  0  0
    9.0922    1.8004   -1.9598 C   0  0  0  0  0  0  0  0  0  0  0  0
    7.7966    0.6632   -0.1626 C   0  0  0  0  0  0  0  0  0  0  0  0
    8.7757   -0.2622    0.2222 C   0  0  0  0  0  0  0  0  0  0  0  0
    8.4739   -1.5147    0.7233 C   0  0  0  0  0  0  0  0  0  0  0  0
    7.1382   -1.8463    0.8411 C   0  0  0  0  0  0  0  0  0  0  0  0
    6.6160   -3.0208    1.3075 O   0  0  0  0  0  0  0  0  0  0  0  0
    5.2790   -2.8921    1.2406 C   0  0  0  0  0  0  0  0  0  0  0  0
    4.4635   -3.8577    1.6199 N   0  0  0  0  0  0  0  0  0  0  0  0
    3.1881   -3.5491    1.4822 C   0  0  0  0  0  0  0  0  0  0  0  0
    2.2050   -4.4063    1.8177 O   0  0  0  0  0  0  0  0  0  0  0  0
    1.0284   -3.7668    1.5501 C   0  0  0  0  0  0  0  0  0  0  0  0
   -0.2471   -4.2658    1.7412 C   0  0  0  0  0  0  0  0  0  0  0  0
   -1.3105   -3.4460    1.4121 C   0  0  0  0  0  0  0  0  0  0  0  0
   -1.1119   -2.1622    0.8888 C   0  0  0  0  0  0  0  0  0  0  0  0
   -2.2152   -1.3643    0.5676 N   0  0  0  0  0  0  0  0  0  0  0  0
   -2.3853   -0.0417    0.9322 C   0  0  0  0  0  0  0  0  0  0  0  0
   -1.6058    0.7729    1.7355 C   0  0  0  0  0  0  0  0  0  0  0  0
   -2.0280    2.0709    1.9587 C   0  0  0  0  0  0  0  0  0  0  0  0
   -3.2085    2.5836    1.4141 C   0  0  0  0  0  0  0  0  0  0  0  0
   -3.6618    4.0176    1.6508 C   0  0  0  0  0  0  0  0  0  0  0  0
   -3.7900    4.7305    0.2969 C   0  0  0  0  0  0  0  0  0  0  0  0
   -2.6838    4.8178    2.5156 C   0  0  0  0  0  0  0  0  0  0  0  0
   -5.0226    4.0030    2.3612 C   0  0  0  0  0  0  0  0  0  0  0  0
   -3.9971    1.7468    0.6355 C   0  0  0  0  0  0  0  0  0  0  0  0
   -3.5978    0.4418    0.3948 C   0  0  0  0  0  0  0  0  0  0  0  0
   -4.1816   -0.6481   -0.3382 C   0  0  0  0  0  0  0  0  0  0  0  0
   -5.3421   -0.7666   -1.0914 C   0  0  0  0  0  0  0  0  0  0  0  0
   -5.6325   -1.9642   -1.7235 C   0  0  0  0  0  0  0  0  0  0  0  0
   -6.8840   -2.1660   -2.5656 C   0  0  0  0  0  0  0  0  0  0  0  0
   -7.7119   -3.3144   -1.9720 C   0  0  0  0  0  0  0  0  0  0  0  0
   -6.4728   -2.5103   -4.0042 C   0  0  0  0  0  0  0  0  0  0  0  0
   -7.7695   -0.9176   -2.6116 C   0  0  0  0  0  0  0  0  0  0  0  0
   -4.7280   -3.0263   -1.5911 C   0  0  0  0  0  0  0  0  0  0  0  0
   -3.5679   -2.9367   -0.8489 C   0  0  0  0  0  0  0  0  0  0  0  0
   -3.2994   -1.7401   -0.2031 C   0  0  0  0  0  0  0  0  0  0  0  0
    0.1717   -1.6683    0.6899 C   0  0  0  0  0  0  0  0  0  0  0  0
    1.2454   -2.4745    1.0322 C   0  0  0  0  0  0  0  0  0  0  0  0
    2.6726   -2.3222    0.9833 C   0  0  0  0  0  0  0  0  0  0  0  0
    3.5490   -1.3227    0.5906 C   0  0  0  0  0  0  0  0  0  0  0  0
    4.8945   -1.6225    0.7257 C   0  0  0  0  0  0  0  0  0  0  0  0
    6.1321   -0.9402    0.4650 C   0  0  0  0  0  0  0  0  0  0  0  0
    6.4617    0.3123   -0.0360 C   0  0  0  0  0  0  0  0  0  0  0  0
    9.9526    2.1849    0.6325 H   0  0  0  0  0  0  0  0  0  0  0  0
    8.4640    2.8777    1.2710 H   0  0  0  0  0  0  0  0  0  0  0  0
    9.3630    3.7223    0.0075 H   0  0  0  0  0  0  0  0  0  0  0  0
    6.4264    3.1193   -0.2193 H   0  0  0  0  0  0  0  0  0  0  0  0
    6.4493    2.4523   -1.8626 H   0  0  0  0  0  0  0  0  0  0  0  0
    7.4256    3.8600   -1.4630 H   0  0  0  0  0  0  0  0  0  0  0  0
    9.9886    1.2286   -1.7380 H   0  0  0  0  0  0  0  0  0  0  0  0
    9.3948    2.7594   -2.3745 H   0  0  0  0  0  0  0  0  0  0  0  0
    8.5226    1.2622   -2.7145 H   0  0  0  0  0  0  0  0  0  0  0  0
    9.8173    0.0023    0.1280 H   0  0  0  0  0  0  0  0  0  0  0  0
    9.2466   -2.2085    1.0118 H   0  0  0  0  0  0  0  0  0  0  0  0
   -0.4007   -5.2538    2.1430 H   0  0  0  0  0  0  0  0  0  0  0  0
   -2.3205   -3.7899    1.5731 H   0  0  0  0  0  0  0  0  0  0  0  0
   -0.6963    0.4094    2.1904 H   0  0  0  0  0  0  0  0  0  0  0  0
   -1.4088    2.6934    2.5831 H   0  0  0  0  0  0  0  0  0  0  0  0
   -4.5233    4.2436   -0.3397 H   0  0  0  0  0  0  0  0  0  0  0  0
   -4.0989    5.7635    0.4436 H   0  0  0  0  0  0  0  0  0  0  0  0
   -2.8333    4.7264   -0.2215 H   0  0  0  0  0  0  0  0  0  0  0  0
   -3.0575    5.8325    2.6391 H   0  0  0  0  0  0  0  0  0  0  0  0
   -2.5822    4.3762    3.5042 H   0  0  0  0  0  0  0  0  0  0  0  0
   -1.7039    4.8763    2.0473 H   0  0  0  0  0  0  0  0  0  0  0  0
   -5.3576    5.0205    2.5526 H   0  0  0  0  0  0  0  0  0  0  0  0
   -4.9438    3.4804    3.3123 H   0  0  0  0  0  0  0  0  0  0  0  0
   -5.7776    3.5035    1.7607 H   0  0  0  0  0  0  0  0  0  0  0  0
   -4.9268    2.0940    0.2117 H   0  0  0  0  0  0  0  0  0  0  0  0
   -5.9930    0.0879   -1.1722 H   0  0  0  0  0  0  0  0  0  0  0  0
   -7.9911   -3.0842   -0.9458 H   0  0  0  0  0  0  0  0  0  0  0  0
   -8.6204   -3.4611   -2.5526 H   0  0  0  0  0  0  0  0  0  0  0  0
   -7.1548   -4.2470   -1.9719 H   0  0  0  0  0  0  0  0  0  0  0  0
   -5.8975   -3.4309   -4.0435 H   0  0  0  0  0  0  0  0  0  0  0  0
   -5.8644   -1.7107   -4.4220 H   0  0  0  0  0  0  0  0  0  0  0  0
   -7.3560   -2.6343   -4.6275 H   0  0  0  0  0  0  0  0  0  0  0  0
   -8.6493   -1.1194   -3.2195 H   0  0  0  0  0  0  0  0  0  0  0  0
   -8.1063   -0.6402   -1.6154 H   0  0  0  0  0  0  0  0  0  0  0  0
   -7.2398   -0.0785   -3.0568 H   0  0  0  0  0  0  0  0  0  0  0  0
   -4.9329   -3.9608   -2.0910 H   0  0  0  0  0  0  0  0  0  0  0  0
   -2.8878   -3.7732   -0.7898 H   0  0  0  0  0  0  0  0  0  0  0  0
    0.3239   -0.6875    0.2678 H   0  0  0  0  0  0  0  0  0  0  0  0
    3.2050   -0.3750    0.2057 H   0  0  0  0  0  0  0  0  0  0  0  0
    5.6679    0.9839   -0.3158 H   0  0  0  0  0  0  0  0  0  0  0  0
  1  2  1  0  0  0  0
  2  3  1  0  0  0  0
  2  4  1  0  0  0  0
  2  5  1  0  0  0  0
  5  6  2  0  0  0  0
  6  7  1  0  0  0  0
  7  8  2  0  0  0  0
  8  9  1  0  0  0  0
  9 10  1  0  0  0  0
 10 11  2  0  0  0  0
 11 12  1  0  0  0  0
 12 13  1  0  0  0  0
 13 14  1  0  0  0  0
 14 15  2  0  0  0  0
 15 16  1  0  0  0  0
 16 17  2  0  0  0  0
 17 18  1  0  0  0  0
 18 19  1  0  0  0  0
 19 20  2  0  0  0  0
 20 21  1  0  0  0  0
 21 22  2  0  0  0  0
 22 23  1  0  0  0  0
 23 24  1  0  0  0  0
 23 25  1  0  0  0  0
 23 26  1  0  0  0  0
 22 27  1  0  0  0  0
 27 28  2  0  0  0  0
 28 29  1  0  0  0  0
 29 30  2  0  0  0  0
 30 31  1  0  0  0  0
 31 32  1  0  0  0  0
 32 33  1  0  0  0  0
 32 34  1  0  0  0  0
 32 35  1  0  0  0  0
 31 36  2  0  0  0  0
 36 37  1  0  0  0  0
 37 38  2  0  0  0  0
 17 39  1  0  0  0  0
 39 40  2  0  0  0  0
 40 41  1  0  0  0  0
 41 42  1  0  0  0  0
 42 43  2  0  0  0  0
 43 44  1  0  0  0  0
 44 45  2  0  0  0  0
 45  5  1  0  0  0  0
 44  8  1  0  0  0  0
 43 10  1  0  0  0  0
 41 12  2  0  0  0  0
 40 14  1  0  0  0  0
 38 18  1  0  0  0  0
 28 19  1  0  0  0  0
 38 29  1  0  0  0  0
  1 46  1  0  0  0  0
  1 47  1  0  0  0  0
  1 48  1  0  0  0  0
  3 49  1  0  0  0  0
  3 50  1  0  0  0  0
  3 51  1  0  0  0  0
  4 52  1  0  0  0  0
  4 53  1  0  0  0  0
  4 54  1  0  0  0  0
  6 55  1  0  0  0  0
  7 56  1  0  0  0  0
 15 57  1  0  0  0  0
 16 58  1  0  0  0  0
 20 59  1  0  0  0  0
 21 60  1  0  0  0  0
 24 61  1  0  0  0  0
 24 62  1  0  0  0  0
 24 63  1  0  0  0  0
 25 64  1  0  0  0  0
 25 65  1  0  0  0  0
 25 66  1  0  0  0  0
 26 67  1  0  0  0  0
 26 68  1  0  0  0  0
 26 69  1  0  0  0  0
 27 70  1  0  0  0  0
 30 71  1  0  0  0  0
 33 72  1  0  0  0  0
 33 73  1  0  0  0  0
 33 74  1  0  0  0  0
 34 75  1  0  0  0  0
 34 76  1  0  0  0  0
 34 77  1  0  0  0  0
 35 78  1  0  0  0  0
 35 79  1  0  0  0  0
 35 80  1  0  0  0  0
 36 81  1  0  0  0  0
 37 82  1  0  0  0  0
 39 83  1  0  0  0  0
 42 84  1  0  0  0  0
 45 85  1  0  0  0  0
M  END
