
  xtb     03022212403D
 energy: -72.750055693251 gnorm: 0.000083673438 xtb: 6.4.1 (afa7bdf)
 40 43  0     0  0            999 V2000
    3.2820    3.7364    1.2529 C   0  0  0  0  0  0  0  0  0  0  0  0
    3.0401    2.3948    0.8584 O   0  0  0  0  0  0  0  0  0  0  0  0
    4.1213    1.6279    0.6691 C   0  0  0  0  0  0  0  0  0  0  0  0
    5.2504    2.0190    0.8154 O   0  0  0  0  0  0  0  0  0  0  0  0
    3.7496    0.2484    0.2601 C   0  0  0  0  0  0  0  0  0  0  0  0
    4.7304   -0.6717    0.0282 C   0  0  0  0  0  0  0  0  0  0  0  0
    4.4619   -2.0331   -0.3715 C   0  0  0  0  0  0  0  0  0  0  0  0
    5.3197   -2.8727   -0.5839 O   0  0  0  0  0  0  0  0  0  0  0  0
    3.1085   -2.3602   -0.5104 N   0  0  0  0  0  0  0  0  0  0  0  0
    2.7757   -3.7096   -0.9082 C   0  0  0  0  0  0  0  0  0  0  0  0
    2.1135   -1.4598   -0.2851 C   0  0  0  0  0  0  0  0  0  0  0  0
    0.7257   -1.6897   -0.3977 C   0  0  0  0  0  0  0  0  0  0  0  0
   -0.0290   -0.5829   -0.1049 C   0  0  0  0  0  0  0  0  0  0  0  0
   -1.4709   -0.4601   -0.1164 C   0  0  0  0  0  0  0  0  0  0  0  0
   -2.2946   -1.5396   -0.4560 C   0  0  0  0  0  0  0  0  0  0  0  0
   -3.6653   -1.4104   -0.4391 C   0  0  0  0  0  0  0  0  0  0  0  0
   -4.2617   -0.2025   -0.0942 C   0  0  0  0  0  0  0  0  0  0  0  0
   -3.4496    0.8981    0.2059 C   0  0  0  0  0  0  0  0  0  0  0  0
   -2.0727    0.7561    0.2041 C   0  0  0  0  0  0  0  0  0  0  0  0
   -3.9771    2.1277    0.5008 O   0  0  0  0  0  0  0  0  0  0  0  0
   -5.3375    2.2503    0.1484 C   0  0  0  0  0  0  0  0  0  0  0  0
   -6.1137    1.0152    0.6019 C   0  0  0  0  0  0  0  0  0  0  0  0
   -5.6265   -0.1344   -0.0558 O   0  0  0  0  0  0  0  0  0  0  0  0
    0.9710    0.7828    0.3216 S   0  0  0  0  0  0  0  0  0  0  0  0
    2.4071   -0.1510    0.1009 C   0  0  0  0  0  0  0  0  0  0  0  0
    2.3055    4.2002    1.3630 H   0  0  0  0  0  0  0  0  0  0  0  0
    3.8716    4.2531    0.4928 H   0  0  0  0  0  0  0  0  0  0  0  0
    3.8295    3.7595    2.1973 H   0  0  0  0  0  0  0  0  0  0  0  0
    5.7666   -0.3946    0.1421 H   0  0  0  0  0  0  0  0  0  0  0  0
    3.7158   -4.2471   -1.0303 H   0  0  0  0  0  0  0  0  0  0  0  0
    2.2316   -3.7062   -1.8536 H   0  0  0  0  0  0  0  0  0  0  0  0
    2.1735   -4.1969   -0.1402 H   0  0  0  0  0  0  0  0  0  0  0  0
    0.3043   -2.6344   -0.6831 H   0  0  0  0  0  0  0  0  0  0  0  0
   -1.8634   -2.4892   -0.7252 H   0  0  0  0  0  0  0  0  0  0  0  0
   -4.3070   -2.2414   -0.6843 H   0  0  0  0  0  0  0  0  0  0  0  0
   -1.4732    1.6176    0.4531 H   0  0  0  0  0  0  0  0  0  0  0  0
   -5.7049    3.1523    0.6393 H   0  0  0  0  0  0  0  0  0  0  0  0
   -5.4336    2.3573   -0.9410 H   0  0  0  0  0  0  0  0  0  0  0  0
   -7.1713    1.0935    0.3468 H   0  0  0  0  0  0  0  0  0  0  0  0
   -6.0033    0.8973    1.6885 H   0  0  0  0  0  0  0  0  0  0  0  0
  1  2  1  0  0  0  0
  2  3  1  0  0  0  0
  3  4  2  0  0  0  0
  3  5  1  0  0  0  0
  5  6  2  0  0  0  0
  6  7  1  0  0  0  0
  7  8  2  0  0  0  0
  7  9  1  0  0  0  0
  9 10  1  0  0  0  0
  9 11  1  0  0  0  0
 11 12  1  0  0  0  0
 12 13  2  0  0  0  0
 13 14  1  0  0  0  0
 14 15  2  0  0  0  0
 15 16  1  0  0  0  0
 16 17  2  0  0  0  0
 17 18  1  0  0  0  0
 18 19  2  0  0  0  0
 18 20  1  0  0  0  0
 20 21  1  0  0  0  0
 21 22  1  0  0  0  0
 22 23  1  0  0  0  0
 13 24  1  0  0  0  0
 24 25  1  0  0  0  0
 25  5  1  0  0  0  0
 25 11  2  0  0  0  0
 19 14  1  0  0  0  0
 23 17  1  0  0  0  0
  1 26  1  0  0  0  0
  1 27  1  0  0  0  0
  1 28  1  0  0  0  0
  6 29  1  0  0  0  0
 10 30  1  0  0  0  0
 10 31  1  0  0  0  0
 10 32  1  0  0  0  0
 12 33  1  0  0  0  0
 15 34  1  0  0  0  0
 16 35  1  0  0  0  0
 19 36  1  0  0  0  0
 21 37  1  0  0  0  0
 21 38  1  0  0  0  0
 22 39  1  0  0  0  0
 22 40  1  0  0  0  0
M  END
