
  xtb     03022214093D
 energy: -44.926541441201 gnorm: 0.000331089864 xtb: 6.4.1 (afa7bdf)
 25 26  0     0  0            999 V2000
    3.8921    0.3545    0.2624 C   0  0  0  0  0  0  0  0  0  0  0  0
    2.8741   -0.6195    0.3276 O   0  0  0  0  0  0  0  0  0  0  0  0
    1.5909   -0.2285    0.1637 C   0  0  0  0  0  0  0  0  0  0  0  0
    0.6446   -1.2622    0.2455 C   0  0  0  0  0  0  0  0  0  0  0  0
   -0.7004   -1.0029    0.0973 C   0  0  0  0  0  0  0  0  0  0  0  0
   -1.6790   -1.9349    0.1607 O   0  0  0  0  0  0  0  0  0  0  0  0
   -1.3190   -3.2776    0.3910 C   0  0  0  0  0  0  0  0  0  0  0  0
   -1.1335    0.3255   -0.1405 C   0  0  0  0  0  0  0  0  0  0  0  0
   -2.5030    0.6901   -0.3059 C   0  0  0  0  0  0  0  0  0  0  0  0
   -2.8374    1.9769   -0.5303 C   0  0  0  0  0  0  0  0  0  0  0  0
   -1.8316    3.0180   -0.6093 C   0  0  0  0  0  0  0  0  0  0  0  0
   -2.0435    4.1882   -0.8075 O   0  0  0  0  0  0  0  0  0  0  0  0
   -0.5235    2.6245   -0.4442 O   0  0  0  0  0  0  0  0  0  0  0  0
   -0.1726    1.3422   -0.2192 C   0  0  0  0  0  0  0  0  0  0  0  0
    1.1857    1.0753   -0.0690 C   0  0  0  0  0  0  0  0  0  0  0  0
    4.8243   -0.1845    0.4222 H   0  0  0  0  0  0  0  0  0  0  0  0
    3.7708    1.1109    1.0431 H   0  0  0  0  0  0  0  0  0  0  0  0
    3.9164    0.8410   -0.7168 H   0  0  0  0  0  0  0  0  0  0  0  0
    1.0216   -2.2543    0.4278 H   0  0  0  0  0  0  0  0  0  0  0  0
   -2.2544   -3.8344    0.3986 H   0  0  0  0  0  0  0  0  0  0  0  0
   -0.6745   -3.6603   -0.4056 H   0  0  0  0  0  0  0  0  0  0  0  0
   -0.8172   -3.3966    1.3557 H   0  0  0  0  0  0  0  0  0  0  0  0
   -3.2479   -0.0886   -0.2457 H   0  0  0  0  0  0  0  0  0  0  0  0
   -3.8576    2.2981   -0.6613 H   0  0  0  0  0  0  0  0  0  0  0  0
    1.8745    1.8990   -0.1400 H   0  0  0  0  0  0  0  0  0  0  0  0
  1  2  1  0  0  0  0
  2  3  1  0  0  0  0
  3  4  2  0  0  0  0
  4  5  1  0  0  0  0
  5  6  1  0  0  0  0
  6  7  1  0  0  0  0
  5  8  2  0  0  0  0
  8  9  1  0  0  0  0
  9 10  2  0  0  0  0
 10 11  1  0  0  0  0
 11 12  2  0  0  0  0
 11 13  1  0  0  0  0
 13 14  1  0  0  0  0
 14 15  2  0  0  0  0
 15  3  1  0  0  0  0
 14  8  1  0  0  0  0
  1 16  1  0  0  0  0
  1 17  1  0  0  0  0
  1 18  1  0  0  0  0
  4 19  1  0  0  0  0
  7 20  1  0  0  0  0
  7 21  1  0  0  0  0
  7 22  1  0  0  0  0
  9 23  1  0  0  0  0
 10 24  1  0  0  0  0
 15 25  1  0  0  0  0
M  END
