
  xtb     03022213503D
 energy: -57.025320023510 gnorm: 0.000166092712 xtb: 6.4.1 (afa7bdf)
 34 36  0     0  0            999 V2000
   -4.2891    1.5955   -0.7982 C   0  0  0  0  0  0  0  0  0  0  0  0
   -3.0201    0.8474   -0.5391 C   0  0  0  0  0  0  0  0  0  0  0  0
   -1.8055    1.4862   -0.6077 C   0  0  0  0  0  0  0  0  0  0  0  0
   -0.6039    0.8043   -0.3685 C   0  0  0  0  0  0  0  0  0  0  0  0
    0.5584    1.4875   -0.4488 N   0  0  0  0  0  0  0  0  0  0  0  0
    1.6637    0.8546   -0.2277 C   0  0  0  0  0  0  0  0  0  0  0  0
    2.9505    1.5929   -0.3088 C   0  0  0  0  0  0  0  0  0  0  0  0
    3.0227    2.7737   -0.5708 O   0  0  0  0  0  0  0  0  0  0  0  0
    4.0536    0.8154   -0.0613 N   0  0  0  0  0  0  0  0  0  0  0  0
    5.3626    1.4402   -0.1197 C   0  0  0  0  0  0  0  0  0  0  0  0
    4.0387   -0.5644    0.2558 C   0  0  0  0  0  0  0  0  0  0  0  0
    5.0828   -1.1369    0.4540 O   0  0  0  0  0  0  0  0  0  0  0  0
    2.8372   -1.1949    0.3227 N   0  0  0  0  0  0  0  0  0  0  0  0
    1.7296   -0.5519    0.1017 C   0  0  0  0  0  0  0  0  0  0  0  0
    0.5463   -1.2276    0.1806 N   0  0  0  0  0  0  0  0  0  0  0  0
    0.5783   -2.6355    0.5100 C   0  0  0  0  0  0  0  0  0  0  0  0
   -0.6379   -0.5785   -0.0486 C   0  0  0  0  0  0  0  0  0  0  0  0
   -1.8793   -1.2156    0.0183 C   0  0  0  0  0  0  0  0  0  0  0  0
   -3.0533   -0.5286   -0.2194 C   0  0  0  0  0  0  0  0  0  0  0  0
   -4.3622   -1.2452   -0.1384 C   0  0  0  0  0  0  0  0  0  0  0  0
   -4.8306    1.1555   -1.6346 H   0  0  0  0  0  0  0  0  0  0  0  0
   -4.9410    1.5598    0.0738 H   0  0  0  0  0  0  0  0  0  0  0  0
   -4.0775    2.6351   -1.0303 H   0  0  0  0  0  0  0  0  0  0  0  0
   -1.7344    2.5352   -0.8477 H   0  0  0  0  0  0  0  0  0  0  0  0
    5.2442    2.4312   -0.5515 H   0  0  0  0  0  0  0  0  0  0  0  0
    5.7829    1.5164    0.8836 H   0  0  0  0  0  0  0  0  0  0  0  0
    6.0248    0.8266   -0.7288 H   0  0  0  0  0  0  0  0  0  0  0  0
    0.1405   -3.2231   -0.2973 H   0  0  0  0  0  0  0  0  0  0  0  0
    1.6251   -2.9057    0.6371 H   0  0  0  0  0  0  0  0  0  0  0  0
    0.0343   -2.8197    1.4367 H   0  0  0  0  0  0  0  0  0  0  0  0
   -1.9333   -2.2651    0.2602 H   0  0  0  0  0  0  0  0  0  0  0  0
   -5.0042   -0.7811    0.6091 H   0  0  0  0  0  0  0  0  0  0  0  0
   -4.2207   -2.2898    0.1250 H   0  0  0  0  0  0  0  0  0  0  0  0
   -4.8827   -1.1945   -1.0939 H   0  0  0  0  0  0  0  0  0  0  0  0
  1  2  1  0  0  0  0
  2  3  2  0  0  0  0
  3  4  1  0  0  0  0
  4  5  1  0  0  0  0
  5  6  2  0  0  0  0
  6  7  1  0  0  0  0
  7  8  2  0  0  0  0
  7  9  1  0  0  0  0
  9 10  1  0  0  0  0
  9 11  1  0  0  0  0
 11 12  2  0  0  0  0
 11 13  1  0  0  0  0
 13 14  2  0  0  0  0
 14 15  1  0  0  0  0
 15 16  1  0  0  0  0
 15 17  1  0  0  0  0
 17 18  1  0  0  0  0
 18 19  2  0  0  0  0
 19 20  1  0  0  0  0
 19  2  1  0  0  0  0
 17  4  2  0  0  0  0
 14  6  1  0  0  0  0
  1 21  1  0  0  0  0
  1 22  1  0  0  0  0
  1 23  1  0  0  0  0
  3 24  1  0  0  0  0
 10 25  1  0  0  0  0
 10 26  1  0  0  0  0
 10 27  1  0  0  0  0
 16 28  1  0  0  0  0
 16 29  1  0  0  0  0
 16 30  1  0  0  0  0
 18 31  1  0  0  0  0
 20 32  1  0  0  0  0
 20 33  1  0  0  0  0
 20 34  1  0  0  0  0
M  END
