
  xtb     03022213103D
 energy: -84.705645370433 gnorm: 0.000100089874 xtb: 6.4.1 (afa7bdf)
 56 60  0     0  0            999 V2000
    5.7599   -0.3505    0.0363 C   0  0  0  0  0  0  0  0  0  0  0  0
    6.6289    0.3238    0.8059 C   0  0  0  0  0  0  0  0  0  0  0  0
    8.0591    0.1266    0.7209 C   0  0  0  0  0  0  0  0  0  0  0  0
    8.8123    0.8538    1.5515 N   0  0  0  0  0  0  0  0  0  0  0  0
   10.1183    0.6856    1.4934 C   0  0  0  0  0  0  0  0  0  0  0  0
   10.7149   -0.2058    0.6117 C   0  0  0  0  0  0  0  0  0  0  0  0
    9.8461   -0.9124   -0.2107 C   0  0  0  0  0  0  0  0  0  0  0  0
    8.5396   -0.7544   -0.1623 N   0  0  0  0  0  0  0  0  0  0  0  0
    4.3190   -0.2389    0.0471 C   0  0  0  0  0  0  0  0  0  0  0  0
    3.6237    0.6509    0.8728 C   0  0  0  0  0  0  0  0  0  0  0  0
    2.2477    0.7078    0.8528 C   0  0  0  0  0  0  0  0  0  0  0  0
    1.5034   -0.1160    0.0061 C   0  0  0  0  0  0  0  0  0  0  0  0
    0.0395   -0.0582   -0.0053 C   0  0  0  0  0  0  0  0  0  0  0  0
   -0.6797    0.1174    1.1772 C   0  0  0  0  0  0  0  0  0  0  0  0
   -2.0570    0.1572    1.1747 C   0  0  0  0  0  0  0  0  0  0  0  0
   -2.7674    0.0378   -0.0210 C   0  0  0  0  0  0  0  0  0  0  0  0
   -4.1626    0.0815   -0.0281 N   0  0  0  0  0  0  0  0  0  0  0  0
   -4.8860   -0.7167   -0.9224 C   0  0  0  0  0  0  0  0  0  0  0  0
   -4.4510   -2.0049   -1.2330 C   0  0  0  0  0  0  0  0  0  0  0  0
   -5.1676   -2.7869   -2.1176 C   0  0  0  0  0  0  0  0  0  0  0  0
   -6.3294   -2.3054   -2.6985 C   0  0  0  0  0  0  0  0  0  0  0  0
   -6.7687   -1.0286   -2.3892 C   0  0  0  0  0  0  0  0  0  0  0  0
   -6.0543   -0.2354   -1.5127 C   0  0  0  0  0  0  0  0  0  0  0  0
   -4.8427    0.9174    0.8661 C   0  0  0  0  0  0  0  0  0  0  0  0
   -4.3375    2.1795    1.1777 C   0  0  0  0  0  0  0  0  0  0  0  0
   -5.0100    2.9988    2.0631 C   0  0  0  0  0  0  0  0  0  0  0  0
   -6.1963    2.5811    2.6439 C   0  0  0  0  0  0  0  0  0  0  0  0
   -6.7050    1.3306    2.3336 C   0  0  0  0  0  0  0  0  0  0  0  0
   -6.0355    0.5003    1.4560 C   0  0  0  0  0  0  0  0  0  0  0  0
   -2.0534   -0.1275   -1.2091 C   0  0  0  0  0  0  0  0  0  0  0  0
   -0.6765   -0.1821   -1.1962 C   0  0  0  0  0  0  0  0  0  0  0  0
    2.1933   -0.9992   -0.8254 C   0  0  0  0  0  0  0  0  0  0  0  0
    3.5693   -1.0594   -0.8033 C   0  0  0  0  0  0  0  0  0  0  0  0
    6.1741   -1.0620   -0.6671 H   0  0  0  0  0  0  0  0  0  0  0  0
    6.3223    1.0520    1.5410 H   0  0  0  0  0  0  0  0  0  0  0  0
   10.7032    1.2877    2.1788 H   0  0  0  0  0  0  0  0  0  0  0  0
   11.7828   -0.3411    0.5675 H   0  0  0  0  0  0  0  0  0  0  0  0
   10.2077   -1.6324   -0.9356 H   0  0  0  0  0  0  0  0  0  0  0  0
    4.1693    1.3067    1.5333 H   0  0  0  0  0  0  0  0  0  0  0  0
    1.7347    1.4163    1.4869 H   0  0  0  0  0  0  0  0  0  0  0  0
   -0.1515    0.1876    2.1166 H   0  0  0  0  0  0  0  0  0  0  0  0
   -2.5970    0.2728    2.1031 H   0  0  0  0  0  0  0  0  0  0  0  0
   -3.5517   -2.3872   -0.7724 H   0  0  0  0  0  0  0  0  0  0  0  0
   -4.8206   -3.7836   -2.3479 H   0  0  0  0  0  0  0  0  0  0  0  0
   -6.8887   -2.9210   -3.3866 H   0  0  0  0  0  0  0  0  0  0  0  0
   -7.6710   -0.6429   -2.8406 H   0  0  0  0  0  0  0  0  0  0  0  0
   -6.3939    0.7634   -1.2805 H   0  0  0  0  0  0  0  0  0  0  0  0
   -3.4182    2.5116    0.7177 H   0  0  0  0  0  0  0  0  0  0  0  0
   -4.6089    3.9747    2.2943 H   0  0  0  0  0  0  0  0  0  0  0  0
   -6.7206    3.2256    3.3330 H   0  0  0  0  0  0  0  0  0  0  0  0
   -7.6268    0.9943    2.7854 H   0  0  0  0  0  0  0  0  0  0  0  0
   -6.4292   -0.4783    1.2231 H   0  0  0  0  0  0  0  0  0  0  0  0
   -2.5897   -0.2061   -2.1435 H   0  0  0  0  0  0  0  0  0  0  0  0
   -0.1438   -0.2890   -2.1297 H   0  0  0  0  0  0  0  0  0  0  0  0
    1.6389   -1.6597   -1.4763 H   0  0  0  0  0  0  0  0  0  0  0  0
    4.0845   -1.7568   -1.4486 H   0  0  0  0  0  0  0  0  0  0  0  0
  1  2  2  0  0  0  0
  2  3  1  0  0  0  0
  3  4  2  0  0  0  0
  4  5  1  0  0  0  0
  5  6  2  0  0  0  0
  6  7  1  0  0  0  0
  7  8  2  0  0  0  0
  1  9  1  0  0  0  0
  9 10  2  0  0  0  0
 10 11  1  0  0  0  0
 11 12  2  0  0  0  0
 12 13  1  0  0  0  0
 13 14  2  0  0  0  0
 14 15  1  0  0  0  0
 15 16  2  0  0  0  0
 16 17  1  0  0  0  0
 17 18  1  0  0  0  0
 18 19  2  0  0  0  0
 19 20  1  0  0  0  0
 20 21  2  0  0  0  0
 21 22  1  0  0  0  0
 22 23  2  0  0  0  0
 17 24  1  0  0  0  0
 24 25  2  0  0  0  0
 25 26  1  0  0  0  0
 26 27  2  0  0  0  0
 27 28  1  0  0  0  0
 28 29  2  0  0  0  0
 16 30  1  0  0  0  0
 30 31  2  0  0  0  0
 12 32  1  0  0  0  0
 32 33  2  0  0  0  0
  8  3  1  0  0  0  0
 33  9  1  0  0  0  0
 31 13  1  0  0  0  0
 23 18  1  0  0  0  0
 29 24  1  0  0  0  0
  1 34  1  0  0  0  0
  2 35  1  0  0  0  0
  5 36  1  0  0  0  0
  6 37  1  0  0  0  0
  7 38  1  0  0  0  0
 10 39  1  0  0  0  0
 11 40  1  0  0  0  0
 14 41  1  0  0  0  0
 15 42  1  0  0  0  0
 19 43  1  0  0  0  0
 20 44  1  0  0  0  0
 21 45  1  0  0  0  0
 22 46  1  0  0  0  0
 23 47  1  0  0  0  0
 25 48  1  0  0  0  0
 26 49  1  0  0  0  0
 27 50  1  0  0  0  0
 28 51  1  0  0  0  0
 29 52  1  0  0  0  0
 30 53  1  0  0  0  0
 31 54  1  0  0  0  0
 32 55  1  0  0  0  0
 33 56  1  0  0  0  0
M  END
