
  xtb     03022214153D
 energy: -86.647362424151 gnorm: 0.000131227121 xtb: 6.4.1 (afa7bdf)
 52 57  0     0  0            999 V2000
   -7.9935    5.8480   -0.4909 N   0  0  0  0  0  0  0  0  0  0  0  0
   -7.3532    4.9001   -0.4090 C   0  0  0  0  0  0  0  0  0  0  0  0
   -6.5650    3.7326   -0.3079 C   0  0  0  0  0  0  0  0  0  0  0  0
   -5.1896    3.8367   -0.0843 C   0  0  0  0  0  0  0  0  0  0  0  0
   -4.4223    2.6975    0.0131 C   0  0  0  0  0  0  0  0  0  0  0  0
   -5.0144    1.4351   -0.1085 C   0  0  0  0  0  0  0  0  0  0  0  0
   -4.2295    0.2717   -0.0079 C   0  0  0  0  0  0  0  0  0  0  0  0
   -3.5466   -0.7235    0.0778 C   0  0  0  0  0  0  0  0  0  0  0  0
   -2.7755   -1.8940    0.1791 C   0  0  0  0  0  0  0  0  0  0  0  0
   -3.4184   -3.1305    0.2911 C   0  0  0  0  0  0  0  0  0  0  0  0
   -2.6935   -4.2954    0.3954 C   0  0  0  0  0  0  0  0  0  0  0  0
   -1.2943   -4.2751    0.3882 C   0  0  0  0  0  0  0  0  0  0  0  0
   -0.5222   -5.4656    0.4923 C   0  0  0  0  0  0  0  0  0  0  0  0
    0.8323   -5.4273    0.4780 C   0  0  0  0  0  0  0  0  0  0  0  0
    1.5336   -4.1952    0.3580 C   0  0  0  0  0  0  0  0  0  0  0  0
    2.9316   -4.1366    0.3353 C   0  0  0  0  0  0  0  0  0  0  0  0
    3.5871   -2.9329    0.2147 C   0  0  0  0  0  0  0  0  0  0  0  0
    2.8733   -1.7348    0.1160 C   0  0  0  0  0  0  0  0  0  0  0  0
    3.5756   -0.5236   -0.0053 C   0  0  0  0  0  0  0  0  0  0  0  0
    4.2019    0.5064   -0.1105 C   0  0  0  0  0  0  0  0  0  0  0  0
    4.9230    1.7081   -0.2356 C   0  0  0  0  0  0  0  0  0  0  0  0
    6.2983    1.6790   -0.4938 C   0  0  0  0  0  0  0  0  0  0  0  0
    7.0061    2.8534   -0.6193 C   0  0  0  0  0  0  0  0  0  0  0  0
    6.3496    4.0798   -0.4862 C   0  0  0  0  0  0  0  0  0  0  0  0
    7.0747    5.2849   -0.6140 C   0  0  0  0  0  0  0  0  0  0  0  0
    7.6641    6.2632   -0.7179 N   0  0  0  0  0  0  0  0  0  0  0  0
    4.9770    4.1155   -0.2268 C   0  0  0  0  0  0  0  0  0  0  0  0
    4.2711    2.9396   -0.1040 C   0  0  0  0  0  0  0  0  0  0  0  0
    1.4622   -1.7506    0.1368 C   0  0  0  0  0  0  0  0  0  0  0  0
    0.6904   -0.5607    0.0358 C   0  0  0  0  0  0  0  0  0  0  0  0
   -0.6645   -0.5989    0.0510 C   0  0  0  0  0  0  0  0  0  0  0  0
   -1.3656   -1.8303    0.1682 C   0  0  0  0  0  0  0  0  0  0  0  0
   -0.6243   -3.0311    0.2717 C   0  0  0  0  0  0  0  0  0  0  0  0
    0.7921   -2.9912    0.2563 C   0  0  0  0  0  0  0  0  0  0  0  0
   -6.3927    1.3375   -0.3311 C   0  0  0  0  0  0  0  0  0  0  0  0
   -7.1619    2.4751   -0.4312 C   0  0  0  0  0  0  0  0  0  0  0  0
   -4.7381    4.8134    0.0105 H   0  0  0  0  0  0  0  0  0  0  0  0
   -3.3587    2.7698    0.1868 H   0  0  0  0  0  0  0  0  0  0  0  0
   -4.4985   -3.1575    0.2970 H   0  0  0  0  0  0  0  0  0  0  0  0
   -3.2045   -5.2434    0.4836 H   0  0  0  0  0  0  0  0  0  0  0  0
   -1.0465   -6.4063    0.5826 H   0  0  0  0  0  0  0  0  0  0  0  0
    1.4106   -6.3368    0.5567 H   0  0  0  0  0  0  0  0  0  0  0  0
    3.4970   -5.0541    0.4128 H   0  0  0  0  0  0  0  0  0  0  0  0
    4.6669   -2.8989    0.1970 H   0  0  0  0  0  0  0  0  0  0  0  0
    6.7972    0.7266   -0.5956 H   0  0  0  0  0  0  0  0  0  0  0  0
    8.0673    2.8368   -0.8204 H   0  0  0  0  0  0  0  0  0  0  0  0
    4.4792    5.0687   -0.1246 H   0  0  0  0  0  0  0  0  0  0  0  0
    3.2101    2.9591    0.0973 H   0  0  0  0  0  0  0  0  0  0  0  0
    1.2163    0.3786   -0.0562 H   0  0  0  0  0  0  0  0  0  0  0  0
   -1.2444    0.3092   -0.0285 H   0  0  0  0  0  0  0  0  0  0  0  0
   -6.8453    0.3616   -0.4255 H   0  0  0  0  0  0  0  0  0  0  0  0
   -8.2259    2.4058   -0.6047 H   0  0  0  0  0  0  0  0  0  0  0  0
  1  2  3  0  0  0  0
  2  3  1  0  0  0  0
  3  4  2  0  0  0  0
  4  5  1  0  0  0  0
  5  6  2  0  0  0  0
  6  7  1  0  0  0  0
  7  8  3  0  0  0  0
  8  9  1  0  0  0  0
  9 10  2  0  0  0  0
 10 11  1  0  0  0  0
 11 12  2  0  0  0  0
 12 13  1  0  0  0  0
 13 14  2  0  0  0  0
 14 15  1  0  0  0  0
 15 16  2  0  0  0  0
 16 17  1  0  0  0  0
 17 18  2  0  0  0  0
 18 19  1  0  0  0  0
 19 20  3  0  0  0  0
 20 21  1  0  0  0  0
 21 22  2  0  0  0  0
 22 23  1  0  0  0  0
 23 24  2  0  0  0  0
 24 25  1  0  0  0  0
 25 26  3  0  0  0  0
 24 27  1  0  0  0  0
 27 28  2  0  0  0  0
 18 29  1  0  0  0  0
 29 30  2  0  0  0  0
 30 31  1  0  0  0  0
 31 32  2  0  0  0  0
 32 33  1  0  0  0  0
 33 34  2  0  0  0  0
  6 35  1  0  0  0  0
 35 36  2  0  0  0  0
 36  3  1  0  0  0  0
 32  9  1  0  0  0  0
 33 12  1  0  0  0  0
 34 15  1  0  0  0  0
 28 21  1  0  0  0  0
 34 29  1  0  0  0  0
  4 37  1  0  0  0  0
  5 38  1  0  0  0  0
 10 39  1  0  0  0  0
 11 40  1  0  0  0  0
 13 41  1  0  0  0  0
 14 42  1  0  0  0  0
 16 43  1  0  0  0  0
 17 44  1  0  0  0  0
 22 45  1  0  0  0  0
 23 46  1  0  0  0  0
 27 47  1  0  0  0  0
 28 48  1  0  0  0  0
 30 49  1  0  0  0  0
 31 50  1  0  0  0  0
 35 51  1  0  0  0  0
 36 52  1  0  0  0  0
M  END
