
  xtb     03022214083D
 energy: -51.936181363963 gnorm: 0.000133690928 xtb: 6.4.1 (afa7bdf)
 32 34  0     0  0            999 V2000
   -6.7018   -0.3980   -0.4190 C   0  0  0  0  0  0  0  0  0  0  0  0
   -5.8419   -0.0169    0.6280 O   0  0  0  0  0  0  0  0  0  0  0  0
   -4.5014   -0.0483    0.4173 C   0  0  0  0  0  0  0  0  0  0  0  0
   -3.8837   -0.4332   -0.7694 C   0  0  0  0  0  0  0  0  0  0  0  0
   -2.5059   -0.4233   -0.8619 C   0  0  0  0  0  0  0  0  0  0  0  0
   -1.6977   -0.0349    0.2091 C   0  0  0  0  0  0  0  0  0  0  0  0
   -0.2628   -0.0462    0.0483 C   0  0  0  0  0  0  0  0  0  0  0  0
    0.6508    0.2979    0.9731 C   0  0  0  0  0  0  0  0  0  0  0  0
    2.0598    0.2589    0.7337 C   0  0  0  0  0  0  0  0  0  0  0  0
    2.9697    0.5844    1.6028 N   0  0  0  0  0  0  0  0  0  0  0  0
    4.1665    0.4020    0.9639 C   0  0  0  0  0  0  0  0  0  0  0  0
    5.4774    0.5865    1.3857 C   0  0  0  0  0  0  0  0  0  0  0  0
    6.4782    0.3059    0.4782 C   0  0  0  0  0  0  0  0  0  0  0  0
    6.1972   -0.1448   -0.8120 C   0  0  0  0  0  0  0  0  0  0  0  0
    4.8994   -0.3350   -1.2517 C   0  0  0  0  0  0  0  0  0  0  0  0
    3.8959   -0.0549   -0.3452 C   0  0  0  0  0  0  0  0  0  0  0  0
    2.5502   -0.1419   -0.4792 O   0  0  0  0  0  0  0  0  0  0  0  0
   -2.3348    0.3495    1.3965 C   0  0  0  0  0  0  0  0  0  0  0  0
   -3.7044    0.3429    1.4984 C   0  0  0  0  0  0  0  0  0  0  0  0
   -7.7110   -0.2937   -0.0237 H   0  0  0  0  0  0  0  0  0  0  0  0
   -6.5361   -1.4383   -0.7165 H   0  0  0  0  0  0  0  0  0  0  0  0
   -6.5863    0.2535   -1.2910 H   0  0  0  0  0  0  0  0  0  0  0  0
   -4.4653   -0.7412   -1.6242 H   0  0  0  0  0  0  0  0  0  0  0  0
   -2.0421   -0.7249   -1.7903 H   0  0  0  0  0  0  0  0  0  0  0  0
    0.0949   -0.3671   -0.9225 H   0  0  0  0  0  0  0  0  0  0  0  0
    0.3871    0.6291    1.9646 H   0  0  0  0  0  0  0  0  0  0  0  0
    5.6890    0.9348    2.3832 H   0  0  0  0  0  0  0  0  0  0  0  0
    7.5097    0.4373    0.7699 H   0  0  0  0  0  0  0  0  0  0  0  0
    7.0153   -0.3509   -1.4857 H   0  0  0  0  0  0  0  0  0  0  0  0
    4.6779   -0.6833   -2.2478 H   0  0  0  0  0  0  0  0  0  0  0  0
   -1.7470    0.6560    2.2468 H   0  0  0  0  0  0  0  0  0  0  0  0
   -4.1969    0.6383    2.4115 H   0  0  0  0  0  0  0  0  0  0  0  0
  1  2  1  0  0  0  0
  2  3  1  0  0  0  0
  3  4  2  0  0  0  0
  4  5  1  0  0  0  0
  5  6  2  0  0  0  0
  6  7  1  0  0  0  0
  7  8  2  0  0  0  0
  8  9  1  0  0  0  0
  9 10  2  0  0  0  0
 10 11  1  0  0  0  0
 11 12  2  0  0  0  0
 12 13  1  0  0  0  0
 13 14  2  0  0  0  0
 14 15  1  0  0  0  0
 15 16  2  0  0  0  0
 16 17  1  0  0  0  0
  6 18  1  0  0  0  0
 18 19  2  0  0  0  0
 19  3  1  0  0  0  0
 17  9  1  0  0  0  0
 16 11  1  0  0  0  0
  1 20  1  0  0  0  0
  1 21  1  0  0  0  0
  1 22  1  0  0  0  0
  4 23  1  0  0  0  0
  5 24  1  0  0  0  0
  7 25  1  0  0  0  0
  8 26  1  0  0  0  0
 12 27  1  0  0  0  0
 13 28  1  0  0  0  0
 14 29  1  0  0  0  0
 15 30  1  0  0  0  0
 18 31  1  0  0  0  0
 19 32  1  0  0  0  0
M  END
