
  xtb     03022214173D
 energy: -28.140693828819 gnorm: 0.000369642475 xtb: 6.4.1 (afa7bdf)
 17 18  0     0  0            999 V2000
    0.5120    3.7564   -0.0823 N   0  0  0  0  0  0  0  0  0  0  0  0
    0.1571    2.6781   -0.2533 C   0  0  0  0  0  0  0  0  0  0  0  0
   -0.2493    1.3414   -0.4336 C   0  0  0  0  0  0  0  0  0  0  0  0
   -1.2584    0.9921   -1.3251 C   0  0  0  0  0  0  0  0  0  0  0  0
   -1.6432   -0.3364   -1.4865 C   0  0  0  0  0  0  0  0  0  0  0  0
   -1.0440   -1.3554   -0.7739 C   0  0  0  0  0  0  0  0  0  0  0  0
   -0.0289   -1.0399    0.1283 C   0  0  0  0  0  0  0  0  0  0  0  0
    0.7908   -1.8017    1.0088 C   0  0  0  0  0  0  0  0  0  0  0  0
    1.6124   -0.9250    1.6462 C   0  0  0  0  0  0  0  0  0  0  0  0
    1.3578    0.3502    1.2176 N   0  0  0  0  0  0  0  0  0  0  0  0
    0.3628    0.3116    0.2927 C   0  0  0  0  0  0  0  0  0  0  0  0
   -1.7450    1.7687   -1.8962 H   0  0  0  0  0  0  0  0  0  0  0  0
   -2.4306   -0.5665   -2.1885 H   0  0  0  0  0  0  0  0  0  0  0  0
   -1.3530   -2.3807   -0.9097 H   0  0  0  0  0  0  0  0  0  0  0  0
    0.7616   -2.8645    1.1402 H   0  0  0  0  0  0  0  0  0  0  0  0
    2.3701   -1.1107    2.3826 H   0  0  0  0  0  0  0  0  0  0  0  0
    1.8278    1.1826    1.5328 H   0  0  0  0  0  0  0  0  0  0  0  0
  1  2  3  0  0  0  0
  2  3  1  0  0  0  0
  3  4  2  0  0  0  0
  4  5  1  0  0  0  0
  5  6  2  0  0  0  0
  6  7  1  0  0  0  0
  7  8  1  0  0  0  0
  8  9  2  0  0  0  0
  9 10  1  0  0  0  0
 10 11  1  0  0  0  0
 11  3  1  0  0  0  0
 11  7  2  0  0  0  0
  4 12  1  0  0  0  0
  5 13  1  0  0  0  0
  6 14  1  0  0  0  0
  8 15  1  0  0  0  0
  9 16  1  0  0  0  0
 10 17  1  0  0  0  0
M  END
