
  xtb     03022214093D
 energy: -60.715743316508 gnorm: 0.000181441422 xtb: 6.4.1 (afa7bdf)
 44 46  0     0  0            999 V2000
   -3.1985    2.1272   -0.7880 C   0  0  0  0  0  0  0  0  0  0  0  0
   -4.1135    1.1458   -0.1214 C   0  0  0  0  0  0  0  0  0  0  0  0
   -5.2193    1.5925    0.5884 C   0  0  0  0  0  0  0  0  0  0  0  0
   -6.1101    0.7019    1.1574 C   0  0  0  0  0  0  0  0  0  0  0  0
   -5.9090   -0.6593    1.0135 C   0  0  0  0  0  0  0  0  0  0  0  0
   -4.8071   -1.1421    0.3264 C   0  0  0  0  0  0  0  0  0  0  0  0
   -4.5777   -2.6178    0.1797 C   0  0  0  0  0  0  0  0  0  0  0  0
   -3.8971   -0.2332   -0.2278 C   0  0  0  0  0  0  0  0  0  0  0  0
   -2.7940   -0.7184   -0.9470 N   0  0  0  0  0  0  0  0  0  0  0  0
   -1.4750   -0.4928   -0.6319 C   0  0  0  0  0  0  0  0  0  0  0  0
   -0.4734   -0.9443   -1.4979 C   0  0  0  0  0  0  0  0  0  0  0  0
    0.8549   -0.7282   -1.2168 C   0  0  0  0  0  0  0  0  0  0  0  0
    1.2515   -0.0552   -0.0554 C   0  0  0  0  0  0  0  0  0  0  0  0
    2.6317    0.1959    0.2963 C   0  0  0  0  0  0  0  0  0  0  0  0
    3.7177   -0.1591   -0.4083 C   0  0  0  0  0  0  0  0  0  0  0  0
    5.1000    0.0867   -0.0466 C   0  0  0  0  0  0  0  0  0  0  0  0
    6.1077   -0.3383   -0.9188 C   0  0  0  0  0  0  0  0  0  0  0  0
    7.4414   -0.1351   -0.6267 C   0  0  0  0  0  0  0  0  0  0  0  0
    7.8068    0.4997    0.5490 C   0  0  0  0  0  0  0  0  0  0  0  0
    6.8227    0.9273    1.4259 C   0  0  0  0  0  0  0  0  0  0  0  0
    5.4885    0.7251    1.1349 C   0  0  0  0  0  0  0  0  0  0  0  0
    0.2415    0.3748    0.8127 C   0  0  0  0  0  0  0  0  0  0  0  0
   -1.0908    0.1608    0.5418 C   0  0  0  0  0  0  0  0  0  0  0  0
   -2.8355    1.7298   -1.7338 H   0  0  0  0  0  0  0  0  0  0  0  0
   -2.3279    2.3397   -0.1671 H   0  0  0  0  0  0  0  0  0  0  0  0
   -3.7216    3.0626   -0.9722 H   0  0  0  0  0  0  0  0  0  0  0  0
   -5.3896    2.6555    0.6805 H   0  0  0  0  0  0  0  0  0  0  0  0
   -6.9668    1.0671    1.7036 H   0  0  0  0  0  0  0  0  0  0  0  0
   -6.6104   -1.3571    1.4477 H   0  0  0  0  0  0  0  0  0  0  0  0
   -4.7413   -2.9341   -0.8521 H   0  0  0  0  0  0  0  0  0  0  0  0
   -3.5565   -2.8787    0.4563 H   0  0  0  0  0  0  0  0  0  0  0  0
   -5.2626   -3.1740    0.8140 H   0  0  0  0  0  0  0  0  0  0  0  0
   -2.9727   -1.4941   -1.5673 H   0  0  0  0  0  0  0  0  0  0  0  0
   -0.7564   -1.4708   -2.3996 H   0  0  0  0  0  0  0  0  0  0  0  0
    1.5979   -1.0895   -1.9107 H   0  0  0  0  0  0  0  0  0  0  0  0
    2.7592    0.7245    1.2323 H   0  0  0  0  0  0  0  0  0  0  0  0
    3.5921   -0.6835   -1.3466 H   0  0  0  0  0  0  0  0  0  0  0  0
    5.8324   -0.8353   -1.8390 H   0  0  0  0  0  0  0  0  0  0  0  0
    8.2012   -0.4728   -1.3172 H   0  0  0  0  0  0  0  0  0  0  0  0
    8.8494    0.6598    0.7808 H   0  0  0  0  0  0  0  0  0  0  0  0
    7.1005    1.4225    2.3456 H   0  0  0  0  0  0  0  0  0  0  0  0
    4.7411    1.0655    1.8350 H   0  0  0  0  0  0  0  0  0  0  0  0
    0.5158    0.8788    1.7293 H   0  0  0  0  0  0  0  0  0  0  0  0
   -1.8468    0.4702    1.2483 H   0  0  0  0  0  0  0  0  0  0  0  0
  1  2  1  0  0  0  0
  2  3  2  0  0  0  0
  3  4  1  0  0  0  0
  4  5  2  0  0  0  0
  5  6  1  0  0  0  0
  6  7  1  0  0  0  0
  6  8  2  0  0  0  0
  8  9  1  0  0  0  0
  9 10  1  0  0  0  0
 10 11  2  0  0  0  0
 11 12  1  0  0  0  0
 12 13  2  0  0  0  0
 13 14  1  0  0  0  0
 14 15  2  0  0  0  0
 15 16  1  0  0  0  0
 16 17  2  0  0  0  0
 17 18  1  0  0  0  0
 18 19  2  0  0  0  0
 19 20  1  0  0  0  0
 20 21  2  0  0  0  0
 13 22  1  0  0  0  0
 22 23  2  0  0  0  0
  8  2  1  0  0  0  0
 23 10  1  0  0  0  0
 21 16  1  0  0  0  0
  1 24  1  0  0  0  0
  1 25  1  0  0  0  0
  1 26  1  0  0  0  0
  3 27  1  0  0  0  0
  4 28  1  0  0  0  0
  5 29  1  0  0  0  0
  7 30  1  0  0  0  0
  7 31  1  0  0  0  0
  7 32  1  0  0  0  0
  9 33  1  0  0  0  0
 11 34  1  0  0  0  0
 12 35  1  0  0  0  0
 14 36  1  0  0  0  0
 15 37  1  0  0  0  0
 17 38  1  0  0  0  0
 18 39  1  0  0  0  0
 19 40  1  0  0  0  0
 20 41  1  0  0  0  0
 21 42  1  0  0  0  0
 22 43  1  0  0  0  0
 23 44  1  0  0  0  0
M  END
