
  xtb     03022216003D
 energy: -59.005856890900 gnorm: 0.000088793736 xtb: 6.4.1 (afa7bdf)
 37 39  0     0  0            999 V2000
    0.1212   -3.6887   -1.4729 C   0  0  0  0  0  0  0  0  0  0  0  0
   -0.5972   -2.5589   -0.9552 N   0  0  0  0  0  0  0  0  0  0  0  0
   -1.9720   -2.5241   -0.8060 C   0  0  0  0  0  0  0  0  0  0  0  0
   -2.7358   -3.4206   -1.0854 O   0  0  0  0  0  0  0  0  0  0  0  0
   -2.2236   -1.1705   -0.2454 C   0  0  0  0  0  0  0  0  0  0  0  0
   -3.4630   -0.7166    0.0580 C   0  0  0  0  0  0  0  0  0  0  0  0
   -3.8147    0.5686    0.6031 C   0  0  0  0  0  0  0  0  0  0  0  0
   -2.8636    1.5534    0.8983 C   0  0  0  0  0  0  0  0  0  0  0  0
   -3.2975    2.7580    1.4201 C   0  0  0  0  0  0  0  0  0  0  0  0
   -4.5683    3.0424    1.6610 N   0  0  0  0  0  0  0  0  0  0  0  0
   -5.4713    2.1155    1.3840 C   0  0  0  0  0  0  0  0  0  0  0  0
   -5.1573    0.8749    0.8598 C   0  0  0  0  0  0  0  0  0  0  0  0
   -1.0180   -0.5255   -0.1096 N   0  0  0  0  0  0  0  0  0  0  0  0
   -0.0928   -1.3446   -0.5248 C   0  0  0  0  0  0  0  0  0  0  0  0
    1.3062   -1.0397   -0.5414 C   0  0  0  0  0  0  0  0  0  0  0  0
    1.7648    0.1528   -0.1180 C   0  0  0  0  0  0  0  0  0  0  0  0
    3.1384    0.5985   -0.0758 C   0  0  0  0  0  0  0  0  0  0  0  0
    3.4079    1.8886    0.3957 C   0  0  0  0  0  0  0  0  0  0  0  0
    4.7012    2.3667    0.4585 C   0  0  0  0  0  0  0  0  0  0  0  0
    5.7575    1.5670    0.0518 C   0  0  0  0  0  0  0  0  0  0  0  0
    5.5087    0.2864   -0.4177 C   0  0  0  0  0  0  0  0  0  0  0  0
    4.2165   -0.1948   -0.4821 C   0  0  0  0  0  0  0  0  0  0  0  0
   -0.6196   -4.4549   -1.7044 H   0  0  0  0  0  0  0  0  0  0  0  0
    0.8222   -4.0791   -0.7320 H   0  0  0  0  0  0  0  0  0  0  0  0
    0.6612   -3.4241   -2.3845 H   0  0  0  0  0  0  0  0  0  0  0  0
   -4.2756   -1.4064   -0.1344 H   0  0  0  0  0  0  0  0  0  0  0  0
   -1.8213    1.3544    0.7145 H   0  0  0  0  0  0  0  0  0  0  0  0
   -2.5943    3.5450    1.6619 H   0  0  0  0  0  0  0  0  0  0  0  0
   -6.4975    2.3880    1.5955 H   0  0  0  0  0  0  0  0  0  0  0  0
   -5.9325    0.1529    0.6512 H   0  0  0  0  0  0  0  0  0  0  0  0
    1.9659   -1.8109   -0.9086 H   0  0  0  0  0  0  0  0  0  0  0  0
    1.0256    0.8617    0.2309 H   0  0  0  0  0  0  0  0  0  0  0  0
    2.5862    2.5140    0.7134 H   0  0  0  0  0  0  0  0  0  0  0  0
    4.8894    3.3650    0.8250 H   0  0  0  0  0  0  0  0  0  0  0  0
    6.7700    1.9388    0.1003 H   0  0  0  0  0  0  0  0  0  0  0  0
    6.3303   -0.3389   -0.7350 H   0  0  0  0  0  0  0  0  0  0  0  0
    4.0430   -1.1943   -0.8500 H   0  0  0  0  0  0  0  0  0  0  0  0
  1  2  1  0  0  0  0
  2  3  1  0  0  0  0
  3  4  2  0  0  0  0
  3  5  1  0  0  0  0
  5  6  2  0  0  0  0
  6  7  1  0  0  0  0
  7  8  2  0  0  0  0
  8  9  1  0  0  0  0
  9 10  2  0  0  0  0
 10 11  1  0  0  0  0
 11 12  2  0  0  0  0
  5 13  1  0  0  0  0
 13 14  2  0  0  0  0
 14 15  1  0  0  0  0
 15 16  2  0  0  0  0
 16 17  1  0  0  0  0
 17 18  2  0  0  0  0
 18 19  1  0  0  0  0
 19 20  2  0  0  0  0
 20 21  1  0  0  0  0
 21 22  2  0  0  0  0
 14  2  1  0  0  0  0
 22 17  1  0  0  0  0
 12  7  1  0  0  0  0
  1 23  1  0  0  0  0
  1 24  1  0  0  0  0
  1 25  1  0  0  0  0
  6 26  1  0  0  0  0
  8 27  1  0  0  0  0
  9 28  1  0  0  0  0
 11 29  1  0  0  0  0
 12 30  1  0  0  0  0
 15 31  1  0  0  0  0
 16 32  1  0  0  0  0
 18 33  1  0  0  0  0
 19 34  1  0  0  0  0
 20 35  1  0  0  0  0
 21 36  1  0  0  0  0
 22 37  1  0  0  0  0
M  END
