
  xtb     03022213243D
 energy: -98.647340440626 gnorm: 0.000179284130 xtb: 6.4.1 (afa7bdf)
 76 80  0     0  0            999 V2000
    5.0337   -4.6707    1.2837 C   0  0  0  0  0  0  0  0  0  0  0  0
    4.7675   -3.9371   -0.0249 C   0  0  0  0  0  0  0  0  0  0  0  0
    3.8939   -2.7036    0.1866 C   0  0  0  0  0  0  0  0  0  0  0  0
    3.6315   -1.9547   -1.1254 C   0  0  0  0  0  0  0  0  0  0  0  0
    2.7724   -0.7434   -0.8925 C   0  0  0  0  0  0  0  0  0  0  0  0
    3.3784    0.4935   -0.8116 C   0  0  0  0  0  0  0  0  0  0  0  0
    2.6729    1.6664   -0.5500 C   0  0  0  0  0  0  0  0  0  0  0  0
    3.4083    2.9468   -0.4612 C   0  0  0  0  0  0  0  0  0  0  0  0
    3.0878    3.8528    0.2801 O   0  0  0  0  0  0  0  0  0  0  0  0
    4.6250    3.0724   -1.3672 C   0  0  0  0  0  0  0  0  0  0  0  0
    5.0244    4.5309   -1.5764 C   0  0  0  0  0  0  0  0  0  0  0  0
    6.2993    4.6525   -2.3998 C   0  0  0  0  0  0  0  0  0  0  0  0
    1.2750    1.5951   -0.3591 C   0  0  0  0  0  0  0  0  0  0  0  0
    0.4765    2.7519   -0.1528 C   0  0  0  0  0  0  0  0  0  0  0  0
   -0.8662    2.6681    0.0011 C   0  0  0  0  0  0  0  0  0  0  0  0
   -1.5427    1.4192   -0.0011 C   0  0  0  0  0  0  0  0  0  0  0  0
   -2.9353    1.3077    0.1659 C   0  0  0  0  0  0  0  0  0  0  0  0
   -3.8095    2.5146    0.3571 C   0  0  0  0  0  0  0  0  0  0  0  0
   -3.7850    2.9754    1.8205 C   0  0  0  0  0  0  0  0  0  0  0  0
   -4.6644    4.1988    2.0777 C   0  0  0  0  0  0  0  0  0  0  0  0
   -4.1197    5.4713    1.4391 C   0  0  0  0  0  0  0  0  0  0  0  0
   -3.5200    0.0579    0.2366 C   0  0  0  0  0  0  0  0  0  0  0  0
   -2.7852   -1.1227    0.1318 C   0  0  0  0  0  0  0  0  0  0  0  0
   -3.3808   -2.3625    0.2852 N   0  0  0  0  0  0  0  0  0  0  0  0
   -2.8352   -3.3296    1.2163 C   0  0  0  0  0  0  0  0  0  0  0  0
   -2.9096   -4.7428    0.6150 C   0  0  0  0  0  0  0  0  0  0  0  0
   -4.0299   -4.7888   -0.4263 C   0  0  0  0  0  0  0  0  0  0  0  0
   -5.2119   -3.9676    0.0767 C   0  0  0  0  0  0  0  0  0  0  0  0
   -4.8181   -2.4838    0.1643 C   0  0  0  0  0  0  0  0  0  0  0  0
   -1.4082   -1.0275   -0.1845 C   0  0  0  0  0  0  0  0  0  0  0  0
   -0.6455   -2.1611   -0.5654 C   0  0  0  0  0  0  0  0  0  0  0  0
    0.6825   -2.0733   -0.8188 C   0  0  0  0  0  0  0  0  0  0  0  0
    1.3801   -0.8408   -0.7033 C   0  0  0  0  0  0  0  0  0  0  0  0
    0.6275    0.3313   -0.4246 C   0  0  0  0  0  0  0  0  0  0  0  0
   -0.7755    0.2414   -0.1997 C   0  0  0  0  0  0  0  0  0  0  0  0
    4.0989   -4.9952    1.7359 H   0  0  0  0  0  0  0  0  0  0  0  0
    5.6554   -5.5467    1.1132 H   0  0  0  0  0  0  0  0  0  0  0  0
    5.5448   -4.0186    1.9886 H   0  0  0  0  0  0  0  0  0  0  0  0
    4.2741   -4.6142   -0.7266 H   0  0  0  0  0  0  0  0  0  0  0  0
    5.7179   -3.6352   -0.4713 H   0  0  0  0  0  0  0  0  0  0  0  0
    2.9421   -3.0019    0.6315 H   0  0  0  0  0  0  0  0  0  0  0  0
    4.3847   -2.0254    0.8887 H   0  0  0  0  0  0  0  0  0  0  0  0
    4.5885   -1.6403   -1.5482 H   0  0  0  0  0  0  0  0  0  0  0  0
    3.1639   -2.6301   -1.8445 H   0  0  0  0  0  0  0  0  0  0  0  0
    4.4507    0.5406   -0.9319 H   0  0  0  0  0  0  0  0  0  0  0  0
    4.4216    2.5875   -2.3240 H   0  0  0  0  0  0  0  0  0  0  0  0
    5.4543    2.5429   -0.8889 H   0  0  0  0  0  0  0  0  0  0  0  0
    4.2088    5.0548   -2.0794 H   0  0  0  0  0  0  0  0  0  0  0  0
    5.1634    5.0008   -0.6016 H   0  0  0  0  0  0  0  0  0  0  0  0
    6.1699    4.1920   -3.3776 H   0  0  0  0  0  0  0  0  0  0  0  0
    7.1297    4.1603   -1.8972 H   0  0  0  0  0  0  0  0  0  0  0  0
    6.5599    5.6979   -2.5460 H   0  0  0  0  0  0  0  0  0  0  0  0
    0.9598    3.7142   -0.1209 H   0  0  0  0  0  0  0  0  0  0  0  0
   -1.4330    3.5753    0.1371 H   0  0  0  0  0  0  0  0  0  0  0  0
   -3.4837    3.3240   -0.2953 H   0  0  0  0  0  0  0  0  0  0  0  0
   -4.8375    2.2627    0.0860 H   0  0  0  0  0  0  0  0  0  0  0  0
   -4.1309    2.1487    2.4463 H   0  0  0  0  0  0  0  0  0  0  0  0
   -2.7575    3.1990    2.1141 H   0  0  0  0  0  0  0  0  0  0  0  0
   -5.6729    4.0063    1.7035 H   0  0  0  0  0  0  0  0  0  0  0  0
   -4.7367    4.3516    3.1573 H   0  0  0  0  0  0  0  0  0  0  0  0
   -4.1164    5.3972    0.3544 H   0  0  0  0  0  0  0  0  0  0  0  0
   -3.1025    5.6595    1.7760 H   0  0  0  0  0  0  0  0  0  0  0  0
   -4.7346    6.3251    1.7151 H   0  0  0  0  0  0  0  0  0  0  0  0
   -4.5829    0.0084    0.4172 H   0  0  0  0  0  0  0  0  0  0  0  0
   -1.8116   -3.0599    1.4741 H   0  0  0  0  0  0  0  0  0  0  0  0
   -3.4280   -3.2965    2.1441 H   0  0  0  0  0  0  0  0  0  0  0  0
   -3.1079   -5.4619    1.4113 H   0  0  0  0  0  0  0  0  0  0  0  0
   -1.9622   -5.0203    0.1508 H   0  0  0  0  0  0  0  0  0  0  0  0
   -4.3310   -5.8204   -0.6122 H   0  0  0  0  0  0  0  0  0  0  0  0
   -3.6783   -4.3626   -1.3675 H   0  0  0  0  0  0  0  0  0  0  0  0
   -6.0678   -4.0775   -0.5898 H   0  0  0  0  0  0  0  0  0  0  0  0
   -5.5081   -4.3400    1.0592 H   0  0  0  0  0  0  0  0  0  0  0  0
   -5.1170   -1.9634   -0.7495 H   0  0  0  0  0  0  0  0  0  0  0  0
   -5.3447   -2.0206    1.0150 H   0  0  0  0  0  0  0  0  0  0  0  0
   -1.1554   -3.0999   -0.7084 H   0  0  0  0  0  0  0  0  0  0  0  0
    1.2183   -2.9557   -1.1311 H   0  0  0  0  0  0  0  0  0  0  0  0
  1  2  1  0  0  0  0
  2  3  1  0  0  0  0
  3  4  1  0  0  0  0
  4  5  1  0  0  0  0
  5  6  2  0  0  0  0
  6  7  1  0  0  0  0
  7  8  1  0  0  0  0
  8  9  2  0  0  0  0
  8 10  1  0  0  0  0
 10 11  1  0  0  0  0
 11 12  1  0  0  0  0
  7 13  2  0  0  0  0
 13 14  1  0  0  0  0
 14 15  2  0  0  0  0
 15 16  1  0  0  0  0
 16 17  2  0  0  0  0
 17 18  1  0  0  0  0
 18 19  1  0  0  0  0
 19 20  1  0  0  0  0
 20 21  1  0  0  0  0
 17 22  1  0  0  0  0
 22 23  2  0  0  0  0
 23 24  1  0  0  0  0
 24 25  1  0  0  0  0
 25 26  1  0  0  0  0
 26 27  1  0  0  0  0
 27 28  1  0  0  0  0
 28 29  1  0  0  0  0
 23 30  1  0  0  0  0
 30 31  2  0  0  0  0
 31 32  1  0  0  0  0
 32 33  2  0  0  0  0
 33 34  1  0  0  0  0
 34 35  2  0  0  0  0
 33  5  1  0  0  0  0
 34 13  1  0  0  0  0
 35 16  1  0  0  0  0
 29 24  1  0  0  0  0
 35 30  1  0  0  0  0
  1 36  1  0  0  0  0
  1 37  1  0  0  0  0
  1 38  1  0  0  0  0
  2 39  1  0  0  0  0
  2 40  1  0  0  0  0
  3 41  1  0  0  0  0
  3 42  1  0  0  0  0
  4 43  1  0  0  0  0
  4 44  1  0  0  0  0
  6 45  1  0  0  0  0
 10 46  1  0  0  0  0
 10 47  1  0  0  0  0
 11 48  1  0  0  0  0
 11 49  1  0  0  0  0
 12 50  1  0  0  0  0
 12 51  1  0  0  0  0
 12 52  1  0  0  0  0
 14 53  1  0  0  0  0
 15 54  1  0  0  0  0
 18 55  1  0  0  0  0
 18 56  1  0  0  0  0
 19 57  1  0  0  0  0
 19 58  1  0  0  0  0
 20 59  1  0  0  0  0
 20 60  1  0  0  0  0
 21 61  1  0  0  0  0
 21 62  1  0  0  0  0
 21 63  1  0  0  0  0
 22 64  1  0  0  0  0
 25 65  1  0  0  0  0
 25 66  1  0  0  0  0
 26 67  1  0  0  0  0
 26 68  1  0  0  0  0
 27 69  1  0  0  0  0
 27 70  1  0  0  0  0
 28 71  1  0  0  0  0
 28 72  1  0  0  0  0
 29 73  1  0  0  0  0
 29 74  1  0  0  0  0
 31 75  1  0  0  0  0
 32 76  1  0  0  0  0
M  END
