
  xtb     03022212393D
 energy: -62.757672600215 gnorm: 0.000153630325 xtb: 6.4.1 (afa7bdf)
 41 44  0     0  0            999 V2000
    6.1773    0.7717   -0.2088 C   0  0  0  0  0  0  0  0  0  0  0  0
    4.6890    0.8440   -0.0616 C   0  0  0  0  0  0  0  0  0  0  0  0
    4.0033    2.0259   -0.3179 C   0  0  0  0  0  0  0  0  0  0  0  0
    2.6302    2.0871   -0.1982 C   0  0  0  0  0  0  0  0  0  0  0  0
    1.8879    0.9580    0.1584 C   0  0  0  0  0  0  0  0  0  0  0  0
    0.4472    1.0735    0.2742 C   0  0  0  0  0  0  0  0  0  0  0  0
   -0.4736    0.1021    0.0958 C   0  0  0  0  0  0  0  0  0  0  0  0
   -0.1853   -1.2592   -0.3951 C   0  0  0  0  0  0  0  0  0  0  0  0
    0.5268   -1.4322   -1.5790 C   0  0  0  0  0  0  0  0  0  0  0  0
    0.7850   -2.7019   -2.0595 C   0  0  0  0  0  0  0  0  0  0  0  0
    0.3350   -3.8132   -1.3659 C   0  0  0  0  0  0  0  0  0  0  0  0
   -0.3804   -3.6477   -0.1922 C   0  0  0  0  0  0  0  0  0  0  0  0
   -0.6449   -2.3786    0.2898 C   0  0  0  0  0  0  0  0  0  0  0  0
   -1.8687    0.3948    0.3274 C   0  0  0  0  0  0  0  0  0  0  0  0
   -2.8565   -0.4262    0.1436 N   0  0  0  0  0  0  0  0  0  0  0  0
   -3.9832    0.2741    0.4824 C   0  0  0  0  0  0  0  0  0  0  0  0
   -5.3258   -0.0826    0.4894 C   0  0  0  0  0  0  0  0  0  0  0  0
   -6.2311    0.8770    0.8937 C   0  0  0  0  0  0  0  0  0  0  0  0
   -5.8263    2.1548    1.2815 C   0  0  0  0  0  0  0  0  0  0  0  0
   -4.4946    2.5294    1.2821 C   0  0  0  0  0  0  0  0  0  0  0  0
   -3.5869    1.5702    0.8779 C   0  0  0  0  0  0  0  0  0  0  0  0
   -2.2373    1.6340    0.7750 O   0  0  0  0  0  0  0  0  0  0  0  0
    2.5810   -0.2230    0.4338 C   0  0  0  0  0  0  0  0  0  0  0  0
    3.9553   -0.2727    0.3254 C   0  0  0  0  0  0  0  0  0  0  0  0
    6.4350    0.4622   -1.2225 H   0  0  0  0  0  0  0  0  0  0  0  0
    6.6341    1.7419   -0.0274 H   0  0  0  0  0  0  0  0  0  0  0  0
    6.6008    0.0453    0.4810 H   0  0  0  0  0  0  0  0  0  0  0  0
    4.5551    2.9094   -0.6071 H   0  0  0  0  0  0  0  0  0  0  0  0
    2.1155    3.0163   -0.3987 H   0  0  0  0  0  0  0  0  0  0  0  0
    0.0855    2.0617    0.5321 H   0  0  0  0  0  0  0  0  0  0  0  0
    0.8736   -0.5647   -2.1214 H   0  0  0  0  0  0  0  0  0  0  0  0
    1.3363   -2.8251   -2.9804 H   0  0  0  0  0  0  0  0  0  0  0  0
    0.5379   -4.8052   -1.7422 H   0  0  0  0  0  0  0  0  0  0  0  0
   -0.7368   -4.5117    0.3495 H   0  0  0  0  0  0  0  0  0  0  0  0
   -1.2043   -2.2498    1.2033 H   0  0  0  0  0  0  0  0  0  0  0  0
   -5.6325   -1.0708    0.1884 H   0  0  0  0  0  0  0  0  0  0  0  0
   -7.2839    0.6374    0.9124 H   0  0  0  0  0  0  0  0  0  0  0  0
   -6.5731    2.8709    1.5896 H   0  0  0  0  0  0  0  0  0  0  0  0
   -4.1772    3.5156    1.5809 H   0  0  0  0  0  0  0  0  0  0  0  0
    2.0384   -1.0974    0.7574 H   0  0  0  0  0  0  0  0  0  0  0  0
    4.4722   -1.1953    0.5489 H   0  0  0  0  0  0  0  0  0  0  0  0
  1  2  1  0  0  0  0
  2  3  2  0  0  0  0
  3  4  1  0  0  0  0
  4  5  2  0  0  0  0
  5  6  1  0  0  0  0
  6  7  2  0  0  0  0
  7  8  1  0  0  0  0
  8  9  2  0  0  0  0
  9 10  1  0  0  0  0
 10 11  2  0  0  0  0
 11 12  1  0  0  0  0
 12 13  2  0  0  0  0
  7 14  1  0  0  0  0
 14 15  2  0  0  0  0
 15 16  1  0  0  0  0
 16 17  2  0  0  0  0
 17 18  1  0  0  0  0
 18 19  2  0  0  0  0
 19 20  1  0  0  0  0
 20 21  2  0  0  0  0
 21 22  1  0  0  0  0
  5 23  1  0  0  0  0
 23 24  2  0  0  0  0
 24  2  1  0  0  0  0
 13  8  1  0  0  0  0
 22 14  1  0  0  0  0
 21 16  1  0  0  0  0
  1 25  1  0  0  0  0
  1 26  1  0  0  0  0
  1 27  1  0  0  0  0
  3 28  1  0  0  0  0
  4 29  1  0  0  0  0
  6 30  1  0  0  0  0
  9 31  1  0  0  0  0
 10 32  1  0  0  0  0
 11 33  1  0  0  0  0
 12 34  1  0  0  0  0
 13 35  1  0  0  0  0
 17 36  1  0  0  0  0
 18 37  1  0  0  0  0
 19 38  1  0  0  0  0
 20 39  1  0  0  0  0
 23 40  1  0  0  0  0
 24 41  1  0  0  0  0
M  END
