
  xtb     03022214573D
 energy: -76.026713365307 gnorm: 0.000205559748 xtb: 6.4.1 (afa7bdf)
 45 48  0     0  0            999 V2000
    7.4318   -0.0750   -0.7705 C   0  0  0  0  0  0  0  0  0  0  0  0
    6.4103    0.6307   -0.0356 N   0  0  0  0  0  0  0  0  0  0  0  0
    6.8117    1.6523    0.9003 C   0  0  0  0  0  0  0  0  0  0  0  0
    5.0943    0.3282   -0.2121 C   0  0  0  0  0  0  0  0  0  0  0  0
    4.6928   -0.7352   -1.0442 C   0  0  0  0  0  0  0  0  0  0  0  0
    3.3669   -1.0406   -1.2205 C   0  0  0  0  0  0  0  0  0  0  0  0
    2.3667   -0.3006   -0.5760 C   0  0  0  0  0  0  0  0  0  0  0  0
    1.0197   -0.6246   -0.7596 C   0  0  0  0  0  0  0  0  0  0  0  0
   -0.1543   -0.8945   -0.9055 C   0  0  0  0  0  0  0  0  0  0  0  0
   -1.4964   -1.2592   -1.1112 C   0  0  0  0  0  0  0  0  0  0  0  0
   -2.5239   -0.5478   -0.4738 C   0  0  0  0  0  0  0  0  0  0  0  0
   -2.2626    0.6364    0.4151 C   0  0  0  0  0  0  0  0  0  0  0  0
   -3.2791    0.6694    1.5539 C   0  0  0  0  0  0  0  0  0  0  0  0
   -4.6764    0.5989    1.0117 C   0  0  0  0  0  0  0  0  0  0  0  0
   -5.7282    1.2829    1.5986 C   0  0  0  0  0  0  0  0  0  0  0  0
   -7.0157    1.1657    1.0992 C   0  0  0  0  0  0  0  0  0  0  0  0
   -7.2701    0.3521    0.0059 C   0  0  0  0  0  0  0  0  0  0  0  0
   -6.2347   -0.3418   -0.5885 C   0  0  0  0  0  0  0  0  0  0  0  0
   -4.9368   -0.2194   -0.0952 C   0  0  0  0  0  0  0  0  0  0  0  0
   -3.8351   -0.9479   -0.7246 C   0  0  0  0  0  0  0  0  0  0  0  0
   -4.1409   -1.9327   -1.5007 O   0  0  0  0  0  3  0  0  0  0  0  0
   -3.0957   -2.7476   -2.2101 B   0  0  0  0  0  4  0  0  0  0  0  0
   -3.2050   -4.0432   -1.7904 F   0  0  0  0  0  0  0  0  0  0  0  0
   -3.3046   -2.6309   -3.5556 F   0  0  0  0  0  0  0  0  0  0  0  0
   -1.7153   -2.2621   -1.8986 O   0  0  0  0  0  0  0  0  0  0  0  0
    2.7544    0.7606    0.2516 C   0  0  0  0  0  0  0  0  0  0  0  0
    4.0807    1.0669    0.4293 C   0  0  0  0  0  0  0  0  0  0  0  0
    7.2343   -0.0376   -1.8448 H   0  0  0  0  0  0  0  0  0  0  0  0
    8.3968    0.3921   -0.5908 H   0  0  0  0  0  0  0  0  0  0  0  0
    7.4956   -1.1237   -0.4618 H   0  0  0  0  0  0  0  0  0  0  0  0
    7.8947    1.6535    0.9943 H   0  0  0  0  0  0  0  0  0  0  0  0
    6.3877    1.4633    1.8900 H   0  0  0  0  0  0  0  0  0  0  0  0
    6.4960    2.6465    0.5674 H   0  0  0  0  0  0  0  0  0  0  0  0
    5.4287   -1.3360   -1.5519 H   0  0  0  0  0  0  0  0  0  0  0  0
    3.0809   -1.8622   -1.8598 H   0  0  0  0  0  0  0  0  0  0  0  0
   -2.3476    1.5568   -0.1731 H   0  0  0  0  0  0  0  0  0  0  0  0
   -1.2464    0.5849    0.8085 H   0  0  0  0  0  0  0  0  0  0  0  0
   -3.1156   -0.1934    2.2085 H   0  0  0  0  0  0  0  0  0  0  0  0
   -3.1499    1.5716    2.1537 H   0  0  0  0  0  0  0  0  0  0  0  0
   -5.5396    1.9130    2.4560 H   0  0  0  0  0  0  0  0  0  0  0  0
   -7.8227    1.7101    1.5668 H   0  0  0  0  0  0  0  0  0  0  0  0
   -8.2743    0.2603   -0.3791 H   0  0  0  0  0  0  0  0  0  0  0  0
   -6.4036   -0.9813   -1.4409 H   0  0  0  0  0  0  0  0  0  0  0  0
    1.9960    1.3446    0.7524 H   0  0  0  0  0  0  0  0  0  0  0  0
    4.3343    1.8963    1.0683 H   0  0  0  0  0  0  0  0  0  0  0  0
  1  2  1  0  0  0  0
  2  3  1  0  0  0  0
  2  4  1  0  0  0  0
  4  5  2  0  0  0  0
  5  6  1  0  0  0  0
  6  7  2  0  0  0  0
  7  8  1  0  0  0  0
  8  9  3  0  0  0  0
  9 10  1  0  0  0  0
 10 11  2  0  0  0  0
 11 12  1  0  0  0  0
 12 13  1  0  0  0  0
 13 14  1  0  0  0  0
 14 15  2  0  0  0  0
 15 16  1  0  0  0  0
 16 17  2  0  0  0  0
 17 18  1  0  0  0  0
 18 19  2  0  0  0  0
 19 20  1  0  0  0  0
 20 21  2  0  0  0  0
 21 22  1  0  0  0  0
 22 23  1  0  0  0  0
 22 24  1  0  0  0  0
 22 25  1  0  0  0  0
  7 26  1  0  0  0  0
 26 27  2  0  0  0  0
 27  4  1  0  0  0  0
 25 10  1  0  0  0  0
 20 11  1  0  0  0  0
 19 14  1  0  0  0  0
  1 28  1  0  0  0  0
  1 29  1  0  0  0  0
  1 30  1  0  0  0  0
  3 31  1  0  0  0  0
  3 32  1  0  0  0  0
  3 33  1  0  0  0  0
  5 34  1  0  0  0  0
  6 35  1  0  0  0  0
 12 36  1  0  0  0  0
 12 37  1  0  0  0  0
 13 38  1  0  0  0  0
 13 39  1  0  0  0  0
 15 40  1  0  0  0  0
 16 41  1  0  0  0  0
 17 42  1  0  0  0  0
 18 43  1  0  0  0  0
 26 44  1  0  0  0  0
 27 45  1  0  0  0  0
M  CHG  1  21   1
M  CHG  1  22  -1
M  END
