
  xtb     03022212103D
 energy: -141.233415944707 gnorm: 0.000142793217 xtb: 6.4.1 (afa7bdf)
103111  0     0  0            999 V2000
    2.6727   -3.0156    2.1451 C   0  0  0  0  0  0  0  0  0  0  0  0
    2.8869   -3.6180    0.7622 C   0  0  0  0  0  0  0  0  0  0  0  0
    1.7009   -3.3512   -0.1830 C   0  0  0  0  0  0  0  0  0  0  0  0
    2.0618   -3.5809   -1.6736 C   0  0  0  0  0  0  0  0  0  0  0  0
    3.0018   -2.5854   -2.3380 C   0  0  0  0  0  0  0  0  0  0  0  0
    0.6363   -4.3741    0.1341 C   0  0  0  0  0  0  0  0  0  0  0  0
    0.7951   -5.7450    0.1509 C   0  0  0  0  0  0  0  0  0  0  0  0
   -0.2772   -6.5479    0.4998 C   0  0  0  0  0  0  0  0  0  0  0  0
   -1.4837   -5.9632    0.8408 C   0  0  0  0  0  0  0  0  0  0  0  0
   -1.6499   -4.5892    0.7986 C   0  0  0  0  0  0  0  0  0  0  0  0
   -0.5936   -3.7713    0.4119 C   0  0  0  0  0  0  0  0  0  0  0  0
   -0.4365   -2.3230    0.2285 C   0  0  0  0  0  0  0  0  0  0  0  0
    0.9369   -2.0450   -0.0112 C   0  0  0  0  0  0  0  0  0  0  0  0
    1.3478   -0.7196   -0.1376 C   0  0  0  0  0  0  0  0  0  0  0  0
    0.3742    0.3100   -0.2305 C   0  0  0  0  0  0  0  0  0  0  0  0
   -0.9761    0.0275   -0.0949 C   0  0  0  0  0  0  0  0  0  0  0  0
   -1.3739   -1.3006    0.2003 C   0  0  0  0  0  0  0  0  0  0  0  0
   -2.8731   -1.3632    0.3982 C   0  0  0  0  0  0  0  0  0  0  0  0
   -3.5703   -2.2724   -0.6343 C   0  0  0  0  0  0  0  0  0  0  0  0
   -3.2886   -1.8366   -2.0693 C   0  0  0  0  0  0  0  0  0  0  0  0
   -3.2476   -1.7036    1.8567 C   0  0  0  0  0  0  0  0  0  0  0  0
   -2.6866   -0.6933    2.8534 C   0  0  0  0  0  0  0  0  0  0  0  0
   -3.2873    0.0589    0.1302 C   0  0  0  0  0  0  0  0  0  0  0  0
   -4.5720    0.5446    0.1602 C   0  0  0  0  0  0  0  0  0  0  0  0
   -4.8153    1.8929   -0.1215 C   0  0  0  0  0  0  0  0  0  0  0  0
   -6.1316    2.4878   -0.1072 C   0  0  0  0  0  0  0  0  0  0  0  0
   -7.2882    1.8629    0.1778 C   0  0  0  0  0  0  0  0  0  0  0  0
   -8.5742    2.4900    0.1851 C   0  0  0  0  0  0  0  0  0  0  0  0
   -8.9369    3.7891   -0.0727 C   0  0  0  0  0  0  0  0  0  0  0  0
  -10.3201    4.0144    0.0407 C   0  0  0  0  0  0  0  0  0  0  0  0
  -11.0115    2.8946    0.3831 C   0  0  0  0  0  0  0  0  0  0  0  0
   -9.9813    1.5361    0.5746 S   0  0  0  0  0  0  0  0  0  0  0  0
   -3.7130    2.6937   -0.4363 C   0  0  0  0  0  0  0  0  0  0  0  0
   -2.4228    2.2025   -0.4615 C   0  0  0  0  0  0  0  0  0  0  0  0
   -2.1783    0.8648   -0.1653 C   0  0  0  0  0  0  0  0  0  0  0  0
    1.0357    1.6463   -0.4838 C   0  0  0  0  0  0  0  0  0  0  0  0
    0.7475    2.6639    0.6389 C   0  0  0  0  0  0  0  0  0  0  0  0
    1.1832    2.1525    2.0090 C   0  0  0  0  0  0  0  0  0  0  0  0
    0.7084    2.1925   -1.8898 C   0  0  0  0  0  0  0  0  0  0  0  0
    1.1692    1.2556   -3.0025 C   0  0  0  0  0  0  0  0  0  0  0  0
    2.4943    1.2884   -0.4348 C   0  0  0  0  0  0  0  0  0  0  0  0
    3.5539    2.1536   -0.5619 C   0  0  0  0  0  0  0  0  0  0  0  0
    4.8666    1.6843   -0.4368 C   0  0  0  0  0  0  0  0  0  0  0  0
    5.9595    2.6156   -0.5953 C   0  0  0  0  0  0  0  0  0  0  0  0
    7.2715    2.3201   -0.5703 C   0  0  0  0  0  0  0  0  0  0  0  0
    8.3268    3.2712   -0.7398 C   0  0  0  0  0  0  0  0  0  0  0  0
    8.2842    4.6275   -0.9501 C   0  0  0  0  0  0  0  0  0  0  0  0
    9.5569    5.2133   -1.0690 C   0  0  0  0  0  0  0  0  0  0  0  0
   10.5671    4.3108   -0.9504 C   0  0  0  0  0  0  0  0  0  0  0  0
    9.9806    2.7196   -0.6897 S   0  0  0  0  0  0  0  0  0  0  0  0
    5.0394    0.3285   -0.1431 C   0  0  0  0  0  0  0  0  0  0  0  0
    3.9709   -0.5366   -0.0265 C   0  0  0  0  0  0  0  0  0  0  0  0
    2.6694   -0.0826   -0.2065 C   0  0  0  0  0  0  0  0  0  0  0  0
    1.7486   -3.3939    2.5779 H   0  0  0  0  0  0  0  0  0  0  0  0
    2.6089   -1.9313    2.0961 H   0  0  0  0  0  0  0  0  0  0  0  0
    3.4957   -3.2827    2.8051 H   0  0  0  0  0  0  0  0  0  0  0  0
    2.9952   -4.6994    0.8682 H   0  0  0  0  0  0  0  0  0  0  0  0
    3.8206   -3.2675    0.3280 H   0  0  0  0  0  0  0  0  0  0  0  0
    1.1217   -3.5893   -2.2332 H   0  0  0  0  0  0  0  0  0  0  0  0
    2.4963   -4.5803   -1.7523 H   0  0  0  0  0  0  0  0  0  0  0  0
    3.1173   -2.8540   -3.3866 H   0  0  0  0  0  0  0  0  0  0  0  0
    2.6042   -1.5764   -2.2896 H   0  0  0  0  0  0  0  0  0  0  0  0
    3.9876   -2.5931   -1.8826 H   0  0  0  0  0  0  0  0  0  0  0  0
    1.7434   -6.1983   -0.1007 H   0  0  0  0  0  0  0  0  0  0  0  0
   -0.1682   -7.6220    0.5192 H   0  0  0  0  0  0  0  0  0  0  0  0
   -2.3147   -6.5844    1.1425 H   0  0  0  0  0  0  0  0  0  0  0  0
   -2.6087   -4.1985    1.0877 H   0  0  0  0  0  0  0  0  0  0  0  0
   -3.2397   -3.3018   -0.5267 H   0  0  0  0  0  0  0  0  0  0  0  0
   -4.6468   -2.2430   -0.4519 H   0  0  0  0  0  0  0  0  0  0  0  0
   -3.7780   -2.5143   -2.7656 H   0  0  0  0  0  0  0  0  0  0  0  0
   -2.2191   -1.8547   -2.2683 H   0  0  0  0  0  0  0  0  0  0  0  0
   -3.6554   -0.8296   -2.2545 H   0  0  0  0  0  0  0  0  0  0  0  0
   -2.8672   -2.6842    2.1313 H   0  0  0  0  0  0  0  0  0  0  0  0
   -4.3367   -1.7276    1.9387 H   0  0  0  0  0  0  0  0  0  0  0  0
   -1.6016   -0.6525    2.7823 H   0  0  0  0  0  0  0  0  0  0  0  0
   -2.9524   -0.9863    3.8668 H   0  0  0  0  0  0  0  0  0  0  0  0
   -3.0810    0.3033    2.6695 H   0  0  0  0  0  0  0  0  0  0  0  0
   -5.3909   -0.1160    0.3989 H   0  0  0  0  0  0  0  0  0  0  0  0
   -6.1583    3.5418   -0.3515 H   0  0  0  0  0  0  0  0  0  0  0  0
   -7.2952    0.8107    0.4258 H   0  0  0  0  0  0  0  0  0  0  0  0
   -8.2345    4.5591   -0.3350 H   0  0  0  0  0  0  0  0  0  0  0  0
  -10.7847    4.9704   -0.1252 H   0  0  0  0  0  0  0  0  0  0  0  0
  -12.0664    2.7818    0.5355 H   0  0  0  0  0  0  0  0  0  0  0  0
   -3.8764    3.7371   -0.6687 H   0  0  0  0  0  0  0  0  0  0  0  0
   -1.6399    2.8927   -0.7211 H   0  0  0  0  0  0  0  0  0  0  0  0
   -0.3149    2.8871    0.6888 H   0  0  0  0  0  0  0  0  0  0  0  0
    1.2779    3.5917    0.4128 H   0  0  0  0  0  0  0  0  0  0  0  0
    0.9438    2.8886    2.7733 H   0  0  0  0  0  0  0  0  0  0  0  0
    0.6645    1.2272    2.2510 H   0  0  0  0  0  0  0  0  0  0  0  0
    2.2540    1.9637    2.0369 H   0  0  0  0  0  0  0  0  0  0  0  0
   -0.3628    2.3378   -2.0026 H   0  0  0  0  0  0  0  0  0  0  0  0
    1.1979    3.1621   -2.0068 H   0  0  0  0  0  0  0  0  0  0  0  0
    2.2483    1.1195   -2.9819 H   0  0  0  0  0  0  0  0  0  0  0  0
    0.8944    1.6677   -3.9711 H   0  0  0  0  0  0  0  0  0  0  0  0
    0.6949    0.2817   -2.8991 H   0  0  0  0  0  0  0  0  0  0  0  0
    3.3822    3.2036   -0.7539 H   0  0  0  0  0  0  0  0  0  0  0  0
    5.6624    3.6434   -0.7596 H   0  0  0  0  0  0  0  0  0  0  0  0
    7.5989    1.3012   -0.4182 H   0  0  0  0  0  0  0  0  0  0  0  0
    7.3696    5.1879   -1.0172 H   0  0  0  0  0  0  0  0  0  0  0  0
    9.7173    6.2638   -1.2361 H   0  0  0  0  0  0  0  0  0  0  0  0
   11.6241    4.4814   -1.0001 H   0  0  0  0  0  0  0  0  0  0  0  0
    6.0342   -0.0625    0.0059 H   0  0  0  0  0  0  0  0  0  0  0  0
    4.1800   -1.5570    0.2226 H   0  0  0  0  0  0  0  0  0  0  0  0
  1  2  1  0  0  0  0
  2  3  1  0  0  0  0
  3  4  1  0  0  0  0
  4  5  1  0  0  0  0
  3  6  1  0  0  0  0
  6  7  2  0  0  0  0
  7  8  1  0  0  0  0
  8  9  2  0  0  0  0
  9 10  1  0  0  0  0
 10 11  2  0  0  0  0
 11 12  1  0  0  0  0
 12 13  2  0  0  0  0
 13 14  1  0  0  0  0
 14 15  2  0  0  0  0
 15 16  1  0  0  0  0
 16 17  2  0  0  0  0
 17 18  1  0  0  0  0
 18 19  1  0  0  0  0
 19 20  1  0  0  0  0
 18 21  1  0  0  0  0
 21 22  1  0  0  0  0
 18 23  1  0  0  0  0
 23 24  2  0  0  0  0
 24 25  1  0  0  0  0
 25 26  1  0  0  0  0
 26 27  2  0  0  0  0
 27 28  1  0  0  0  0
 28 29  2  0  0  0  0
 29 30  1  0  0  0  0
 30 31  2  0  0  0  0
 31 32  1  0  0  0  0
 25 33  2  0  0  0  0
 33 34  1  0  0  0  0
 34 35  2  0  0  0  0
 15 36  1  0  0  0  0
 36 37  1  0  0  0  0
 37 38  1  0  0  0  0
 36 39  1  0  0  0  0
 39 40  1  0  0  0  0
 36 41  1  0  0  0  0
 41 42  2  0  0  0  0
 42 43  1  0  0  0  0
 43 44  1  0  0  0  0
 44 45  2  0  0  0  0
 45 46  1  0  0  0  0
 46 47  2  0  0  0  0
 47 48  1  0  0  0  0
 48 49  2  0  0  0  0
 49 50  1  0  0  0  0
 43 51  2  0  0  0  0
 51 52  1  0  0  0  0
 52 53  2  0  0  0  0
 13  3  1  0  0  0  0
 53 14  1  0  0  0  0
 11  6  1  0  0  0  0
 17 12  1  0  0  0  0
 35 23  1  0  0  0  0
 53 41  1  0  0  0  0
 35 16  1  0  0  0  0
 50 46  1  0  0  0  0
 32 28  1  0  0  0  0
  1 54  1  0  0  0  0
  1 55  1  0  0  0  0
  1 56  1  0  0  0  0
  2 57  1  0  0  0  0
  2 58  1  0  0  0  0
  4 59  1  0  0  0  0
  4 60  1  0  0  0  0
  5 61  1  0  0  0  0
  5 62  1  0  0  0  0
  5 63  1  0  0  0  0
  7 64  1  0  0  0  0
  8 65  1  0  0  0  0
  9 66  1  0  0  0  0
 10 67  1  0  0  0  0
 19 68  1  0  0  0  0
 19 69  1  0  0  0  0
 20 70  1  0  0  0  0
 20 71  1  0  0  0  0
 20 72  1  0  0  0  0
 21 73  1  0  0  0  0
 21 74  1  0  0  0  0
 22 75  1  0  0  0  0
 22 76  1  0  0  0  0
 22 77  1  0  0  0  0
 24 78  1  0  0  0  0
 26 79  1  0  0  0  0
 27 80  1  0  0  0  0
 29 81  1  0  0  0  0
 30 82  1  0  0  0  0
 31 83  1  0  0  0  0
 33 84  1  0  0  0  0
 34 85  1  0  0  0  0
 37 86  1  0  0  0  0
 37 87  1  0  0  0  0
 38 88  1  0  0  0  0
 38 89  1  0  0  0  0
 38 90  1  0  0  0  0
 39 91  1  0  0  0  0
 39 92  1  0  0  0  0
 40 93  1  0  0  0  0
 40 94  1  0  0  0  0
 40 95  1  0  0  0  0
 42 96  1  0  0  0  0
 44 97  1  0  0  0  0
 45 98  1  0  0  0  0
 47 99  1  0  0  0  0
 48100  1  0  0  0  0
 49101  1  0  0  0  0
 51102  1  0  0  0  0
 52103  1  0  0  0  0
M  END
