
  xtb     03022212393D
 energy: -45.915218038959 gnorm: 0.000194136518 xtb: 6.4.1 (afa7bdf)
 25 27  0     0  0            999 V2000
   -4.7760    1.7659    4.0243 N   0  0  0  0  0  0  0  0  0  0  0  0
   -3.9471    1.4498    3.2978 C   0  0  0  0  0  0  0  0  0  0  0  0
   -2.9260    1.0563    2.4036 C   0  0  0  0  0  0  0  0  0  0  0  0
   -2.3349    1.9965    1.5569 C   0  0  0  0  0  0  0  0  0  0  0  0
   -1.3403    1.6040    0.6882 C   0  0  0  0  0  0  0  0  0  0  0  0
   -0.9172    0.2739    0.6461 C   0  0  0  0  0  0  0  0  0  0  0  0
    0.1338   -0.1078   -0.2818 C   0  0  0  0  0  0  0  0  0  0  0  0
    0.7009   -1.3599   -0.4833 C   0  0  0  0  0  0  0  0  0  0  0  0
    1.6323   -1.1766   -1.4551 N   0  0  0  0  0  0  0  0  0  0  0  0
    2.5665   -1.7921   -2.2012 C   0  0  0  0  0  0  0  0  0  0  0  0
    3.1191   -0.8103   -3.0276 C   0  0  0  0  0  0  0  0  0  0  0  0
    4.1371   -1.0132   -3.9748 C   0  0  0  0  0  0  0  0  0  0  0  0
    4.9672   -1.1852   -4.7456 N   0  0  0  0  0  0  0  0  0  0  0  0
    2.4843    0.4037   -2.7485 C   0  0  0  0  0  0  0  0  0  0  0  0
    1.5868    0.1426   -1.7877 N   0  0  0  0  0  4  0  0  0  0  0  0
    0.6988    0.8049   -1.1007 N   0  0  0  0  0  2  0  0  0  0  0  0
   -1.5124   -0.6600    1.4954 C   0  0  0  0  0  0  0  0  0  0  0  0
   -2.5084   -0.2753    2.3676 C   0  0  0  0  0  0  0  0  0  0  0  0
   -2.6630    3.0248    1.5903 H   0  0  0  0  0  0  0  0  0  0  0  0
   -0.8706    2.3135    0.0258 H   0  0  0  0  0  0  0  0  0  0  0  0
    0.5208   -2.3103   -0.0332 H   0  0  0  0  0  0  0  0  0  0  0  0
    2.7895   -2.8346   -2.1230 H   0  0  0  0  0  0  0  0  0  0  0  0
    2.6243    1.3768   -3.1653 H   0  0  0  0  0  0  0  0  0  0  0  0
   -1.1954   -1.6910    1.4735 H   0  0  0  0  0  0  0  0  0  0  0  0
   -2.9704   -0.9964    3.0257 H   0  0  0  0  0  0  0  0  0  0  0  0
  1  2  3  0  0  0  0
  2  3  1  0  0  0  0
  3  4  2  0  0  0  0
  4  5  1  0  0  0  0
  5  6  2  0  0  0  0
  6  7  1  0  0  0  0
  7  8  2  0  0  0  0
  8  9  1  0  0  0  0
  9 10  1  0  0  0  0
 10 11  2  0  0  0  0
 11 12  1  0  0  0  0
 12 13  3  0  0  0  0
 11 14  1  0  0  0  0
 14 15  2  0  0  0  0
 15 16  1  0  0  0  0
  6 17  1  0  0  0  0
 17 18  2  0  0  0  0
 18  3  1  0  0  0  0
 16  7  1  0  0  0  0
 15  9  1  0  0  0  0
  4 19  1  0  0  0  0
  5 20  1  0  0  0  0
  8 21  1  0  0  0  0
 10 22  1  0  0  0  0
 14 23  1  0  0  0  0
 17 24  1  0  0  0  0
 18 25  1  0  0  0  0
M  CHG  1  15   1
M  CHG  1  16  -1
M  END
