
  xtb     03022215513D
 energy: -31.815980368097 gnorm: 0.000093483244 xtb: 6.4.1 (afa7bdf)
 24 25  0     0  0            999 V2000
   -2.6399   -1.5274    0.0289 C   0  0  0  0  0  0  0  0  0  0  0  0
   -1.3623   -0.7453    0.0070 C   0  0  0  0  0  0  0  0  0  0  0  0
   -0.1548   -1.3800    0.1299 C   0  0  0  0  0  0  0  0  0  0  0  0
    1.0646   -0.6743    0.1135 C   0  0  0  0  0  0  0  0  0  0  0  0
    2.3125   -1.3179    0.2396 C   0  0  0  0  0  0  0  0  0  0  0  0
    3.4739   -0.5973    0.2190 C   0  0  0  0  0  0  0  0  0  0  0  0
    3.4398    0.7981    0.0714 C   0  0  0  0  0  0  0  0  0  0  0  0
    2.2450    1.4503   -0.0530 C   0  0  0  0  0  0  0  0  0  0  0  0
    1.0302    0.7351   -0.0353 C   0  0  0  0  0  0  0  0  0  0  0  0
   -0.2219    1.3691   -0.1604 C   0  0  0  0  0  0  0  0  0  0  0  0
   -1.3968    0.6652   -0.1420 C   0  0  0  0  0  0  0  0  0  0  0  0
   -2.7106    1.3720   -0.2776 C   0  0  0  0  0  0  0  0  0  0  0  0
   -2.4380   -2.5888    0.1503 H   0  0  0  0  0  0  0  0  0  0  0  0
   -3.2771   -1.2002    0.8500 H   0  0  0  0  0  0  0  0  0  0  0  0
   -3.1944   -1.3844   -0.8982 H   0  0  0  0  0  0  0  0  0  0  0  0
   -0.1220   -2.4553    0.2438 H   0  0  0  0  0  0  0  0  0  0  0  0
    2.3339   -2.3928    0.3529 H   0  0  0  0  0  0  0  0  0  0  0  0
    4.4274   -1.0961    0.3161 H   0  0  0  0  0  0  0  0  0  0  0  0
    4.3677    1.3516    0.0572 H   0  0  0  0  0  0  0  0  0  0  0  0
    2.2139    2.5249   -0.1668 H   0  0  0  0  0  0  0  0  0  0  0  0
   -0.2416    2.4447   -0.2737 H   0  0  0  0  0  0  0  0  0  0  0  0
   -3.2537    1.0104   -1.1502 H   0  0  0  0  0  0  0  0  0  0  0  0
   -2.5607    2.4435   -0.3838 H   0  0  0  0  0  0  0  0  0  0  0  0
   -3.3348    1.1950    0.5978 H   0  0  0  0  0  0  0  0  0  0  0  0
  1  2  1  0  0  0  0
  2  3  2  0  0  0  0
  3  4  1  0  0  0  0
  4  5  2  0  0  0  0
  5  6  1  0  0  0  0
  6  7  2  0  0  0  0
  7  8  1  0  0  0  0
  8  9  2  0  0  0  0
  9 10  1  0  0  0  0
 10 11  2  0  0  0  0
 11 12  1  0  0  0  0
 11  2  1  0  0  0  0
  9  4  1  0  0  0  0
  1 13  1  0  0  0  0
  1 14  1  0  0  0  0
  1 15  1  0  0  0  0
  3 16  1  0  0  0  0
  5 17  1  0  0  0  0
  6 18  1  0  0  0  0
  7 19  1  0  0  0  0
  8 20  1  0  0  0  0
 10 21  1  0  0  0  0
 12 22  1  0  0  0  0
 12 23  1  0  0  0  0
 12 24  1  0  0  0  0
M  END
