
  xtb     03022215153D
 energy: -73.774275253136 gnorm: 0.000212547078 xtb: 6.4.1 (afa7bdf)
 45 50  0     0  0            999 V2000
    0.8766    3.5996    2.3782 C   0  0  0  0  0  0  0  0  0  0  0  0
    0.8358    2.2118    1.8178 C   0  0  0  0  0  0  0  0  0  0  0  0
    1.5686    1.2011    2.4060 C   0  0  0  0  0  0  0  0  0  0  0  0
    1.5154   -0.0975    1.8978 C   0  0  0  0  0  0  0  0  0  0  0  0
    2.1185   -1.3441    2.2864 C   0  0  0  0  0  0  0  0  0  0  0  0
    2.9915   -1.7378    3.2924 C   0  0  0  0  0  0  0  0  0  0  0  0
    3.3642   -3.0659    3.3541 C   0  0  0  0  0  0  0  0  0  0  0  0
    2.8816   -3.9955    2.4360 C   0  0  0  0  0  0  0  0  0  0  0  0
    2.0102   -3.6276    1.4264 C   0  0  0  0  0  0  0  0  0  0  0  0
    1.6387   -2.2970    1.3660 C   0  0  0  0  0  0  0  0  0  0  0  0
    0.7998   -1.7341    0.4529 O   0  0  0  0  0  0  0  0  0  0  0  0
    0.7317   -0.4079    0.7753 C   0  0  0  0  0  0  0  0  0  0  0  0
    0.0106    0.5985    0.1531 C   0  0  0  0  0  0  0  0  0  0  0  0
    0.0505    1.9057    0.6918 C   0  0  0  0  0  0  0  0  0  0  0  0
   -0.8377    2.6912   -0.1257 C   0  0  0  0  0  0  0  0  0  0  0  0
   -1.2168    4.0302   -0.1365 C   0  0  0  0  0  0  0  0  0  0  0  0
   -2.0982    4.4698   -1.1037 C   0  0  0  0  0  0  0  0  0  0  0  0
   -2.5974    3.6038   -2.0727 C   0  0  0  0  0  0  0  0  0  0  0  0
   -2.2395    2.2703   -2.0883 C   0  0  0  0  0  0  0  0  0  0  0  0
   -1.3755    1.8184   -1.1018 C   0  0  0  0  0  0  0  0  0  0  0  0
   -0.8516    0.5540   -0.9227 N   0  0  0  0  0  0  0  0  0  0  0  0
   -1.1273   -0.5764   -1.6950 C   0  0  0  0  0  0  0  0  0  0  0  0
   -2.4481   -0.9372   -1.9611 C   0  0  0  0  0  0  0  0  0  0  0  0
   -2.7216   -2.0560   -2.7185 C   0  0  0  0  0  0  0  0  0  0  0  0
   -1.6738   -2.8334   -3.2152 C   0  0  0  0  0  0  0  0  0  0  0  0
   -1.9523   -3.9844   -3.9852 C   0  0  0  0  0  0  0  0  0  0  0  0
   -2.1775   -4.9184   -4.6112 N   0  0  0  0  0  0  0  0  0  0  0  0
   -0.3513   -2.4726   -2.9506 C   0  0  0  0  0  0  0  0  0  0  0  0
   -0.0820   -1.3481   -2.2011 C   0  0  0  0  0  0  0  0  0  0  0  0
    1.2503    4.3005    1.6329 H   0  0  0  0  0  0  0  0  0  0  0  0
   -0.1207    3.9182    2.6781 H   0  0  0  0  0  0  0  0  0  0  0  0
    1.5282    3.6394    3.2476 H   0  0  0  0  0  0  0  0  0  0  0  0
    2.1803    1.4051    3.2713 H   0  0  0  0  0  0  0  0  0  0  0  0
    3.3663   -1.0190    4.0047 H   0  0  0  0  0  0  0  0  0  0  0  0
    4.0426   -3.3942    4.1272 H   0  0  0  0  0  0  0  0  0  0  0  0
    3.1942   -5.0258    2.5131 H   0  0  0  0  0  0  0  0  0  0  0  0
    1.6314   -4.3412    0.7122 H   0  0  0  0  0  0  0  0  0  0  0  0
   -0.8293    4.7235    0.5912 H   0  0  0  0  0  0  0  0  0  0  0  0
   -2.3994    5.5066   -1.1179 H   0  0  0  0  0  0  0  0  0  0  0  0
   -3.2715    3.9813   -2.8269 H   0  0  0  0  0  0  0  0  0  0  0  0
   -2.6117    1.6055   -2.8531 H   0  0  0  0  0  0  0  0  0  0  0  0
   -3.2540   -0.3474   -1.5512 H   0  0  0  0  0  0  0  0  0  0  0  0
   -3.7427   -2.3437   -2.9208 H   0  0  0  0  0  0  0  0  0  0  0  0
    0.4549   -3.0738   -3.3439 H   0  0  0  0  0  0  0  0  0  0  0  0
    0.9384   -1.0555   -2.0097 H   0  0  0  0  0  0  0  0  0  0  0  0
  1  2  1  0  0  0  0
  2  3  2  0  0  0  0
  3  4  1  0  0  0  0
  4  5  1  0  0  0  0
  5  6  2  0  0  0  0
  6  7  1  0  0  0  0
  7  8  2  0  0  0  0
  8  9  1  0  0  0  0
  9 10  2  0  0  0  0
 10 11  1  0  0  0  0
 11 12  1  0  0  0  0
 12 13  1  0  0  0  0
 13 14  2  0  0  0  0
 14 15  1  0  0  0  0
 15 16  2  0  0  0  0
 16 17  1  0  0  0  0
 17 18  2  0  0  0  0
 18 19  1  0  0  0  0
 19 20  2  0  0  0  0
 20 21  1  0  0  0  0
 21 22  1  0  0  0  0
 22 23  2  0  0  0  0
 23 24  1  0  0  0  0
 24 25  2  0  0  0  0
 25 26  1  0  0  0  0
 26 27  3  0  0  0  0
 25 28  1  0  0  0  0
 28 29  2  0  0  0  0
 14  2  1  0  0  0  0
 20 15  1  0  0  0  0
 29 22  1  0  0  0  0
 12  4  2  0  0  0  0
 21 13  1  0  0  0  0
 10  5  1  0  0  0  0
  1 30  1  0  0  0  0
  1 31  1  0  0  0  0
  1 32  1  0  0  0  0
  3 33  1  0  0  0  0
  6 34  1  0  0  0  0
  7 35  1  0  0  0  0
  8 36  1  0  0  0  0
  9 37  1  0  0  0  0
 16 38  1  0  0  0  0
 17 39  1  0  0  0  0
 18 40  1  0  0  0  0
 19 41  1  0  0  0  0
 23 42  1  0  0  0  0
 24 43  1  0  0  0  0
 28 44  1  0  0  0  0
 29 45  1  0  0  0  0
M  END
