
  xtb     03022214143D
 energy: -115.252098230554 gnorm: 0.000120482187 xtb: 6.4.1 (afa7bdf)
 74 80  0     0  0            999 V2000
    9.3113    2.2561    2.8500 C   0  0  0  0  0  0  0  0  0  0  0  0
    8.4415    1.7266    1.7160 C   0  0  0  0  0  0  0  0  0  0  0  0
    9.0467    0.4762    1.0811 C   0  0  0  0  0  0  0  0  0  0  0  0
    8.1568   -0.1509    0.0086 C   0  0  0  0  0  0  0  0  0  0  0  0
    8.0173    0.7228   -1.2365 C   0  0  0  0  0  0  0  0  0  0  0  0
    7.2830    0.0047   -2.3686 C   0  0  0  0  0  0  0  0  0  0  0  0
    5.9246   -0.3610   -1.9832 N   0  0  0  0  0  0  0  0  0  0  0  0
    5.6809   -1.6839   -1.6583 C   0  0  0  0  0  0  0  0  0  0  0  0
    6.5611   -2.5194   -1.7219 O   0  0  0  0  0  0  0  0  0  0  0  0
    4.3077   -2.0165   -1.2407 C   0  0  0  0  0  0  0  0  0  0  0  0
    3.9978   -3.3226   -0.9241 C   0  0  0  0  0  0  0  0  0  0  0  0
    2.6928   -3.6644   -0.5689 C   0  0  0  0  0  0  0  0  0  0  0  0
    1.7181   -2.7020   -0.4839 C   0  0  0  0  0  0  0  0  0  0  0  0
    2.0056   -1.3474   -0.7437 C   0  0  0  0  0  0  0  0  0  0  0  0
    1.0328   -0.3059   -0.6545 C   0  0  0  0  0  0  0  0  0  0  0  0
   -0.2798   -0.5377   -0.0924 C   0  0  0  0  0  0  0  0  0  0  0  0
   -0.6373   -1.2915    0.9989 C   0  0  0  0  0  0  0  0  0  0  0  0
   -2.0050   -1.2343    1.2950 C   0  0  0  0  0  0  0  0  0  0  0  0
   -2.7111   -0.4369    0.4309 C   0  0  0  0  0  0  0  0  0  0  0  0
   -4.1183   -0.1669    0.4370 C   0  0  0  0  0  0  0  0  0  0  0  0
   -4.8430    0.6874   -0.4214 C   0  0  0  0  0  0  0  0  0  0  0  0
   -6.1521    0.6015    0.0018 C   0  0  0  0  0  0  0  0  0  0  0  0
   -7.3078    1.3593   -0.4616 C   0  0  0  0  0  0  0  0  0  0  0  0
   -8.1788    1.9654    0.4424 C   0  0  0  0  0  0  0  0  0  0  0  0
   -9.2492    2.7089   -0.0164 C   0  0  0  0  0  0  0  0  0  0  0  0
   -9.4623    2.8609   -1.3769 C   0  0  0  0  0  0  0  0  0  0  0  0
   -8.5928    2.2732   -2.2805 C   0  0  0  0  0  0  0  0  0  0  0  0
   -7.5187    1.5298   -1.8278 C   0  0  0  0  0  0  0  0  0  0  0  0
   -6.1569   -0.2759    1.0485 N   0  0  0  0  0  0  0  0  0  0  0  0
   -7.2495   -0.7734    1.7721 C   0  0  0  0  0  0  0  0  0  0  0  0
   -8.4728   -1.0124    1.1550 C   0  0  0  0  0  0  0  0  0  0  0  0
   -9.5256   -1.5092    1.9008 C   0  0  0  0  0  0  0  0  0  0  0  0
   -9.3625   -1.7856    3.2483 C   0  0  0  0  0  0  0  0  0  0  0  0
   -8.1341   -1.5740    3.8527 C   0  0  0  0  0  0  0  0  0  0  0  0
   -7.0767   -1.0693    3.1200 C   0  0  0  0  0  0  0  0  0  0  0  0
   -4.9370   -0.7361    1.3161 N   0  0  0  0  0  0  0  0  0  0  0  0
   -1.6701    0.2741   -0.7568 S   0  0  0  0  0  0  0  0  0  0  0  0
    1.3622    0.9654   -1.0979 C   0  0  0  0  0  0  0  0  0  0  0  0
    2.6400    1.2712   -1.5473 C   0  0  0  0  0  0  0  0  0  0  0  0
    3.6270    0.3044   -1.5600 C   0  0  0  0  0  0  0  0  0  0  0  0
    3.3169   -1.0151   -1.1748 C   0  0  0  0  0  0  0  0  0  0  0  0
    4.9859    0.6585   -1.9901 C   0  0  0  0  0  0  0  0  0  0  0  0
    5.2938    1.7809   -2.3407 O   0  0  0  0  0  0  0  0  0  0  0  0
   10.3020    2.5133    2.4813 H   0  0  0  0  0  0  0  0  0  0  0  0
    9.4221    1.5054    3.6299 H   0  0  0  0  0  0  0  0  0  0  0  0
    8.8678    3.1460    3.2909 H   0  0  0  0  0  0  0  0  0  0  0  0
    7.4476    1.4883    2.1026 H   0  0  0  0  0  0  0  0  0  0  0  0
    8.3269    2.5060    0.9612 H   0  0  0  0  0  0  0  0  0  0  0  0
   10.0166    0.7264    0.6446 H   0  0  0  0  0  0  0  0  0  0  0  0
    9.2205   -0.2642    1.8661 H   0  0  0  0  0  0  0  0  0  0  0  0
    8.5799   -1.1143   -0.2851 H   0  0  0  0  0  0  0  0  0  0  0  0
    7.1686   -0.3446    0.4344 H   0  0  0  0  0  0  0  0  0  0  0  0
    7.4775    1.6400   -0.9994 H   0  0  0  0  0  0  0  0  0  0  0  0
    9.0087    0.9971   -1.6024 H   0  0  0  0  0  0  0  0  0  0  0  0
    7.2153    0.6623   -3.2386 H   0  0  0  0  0  0  0  0  0  0  0  0
    7.7991   -0.9190   -2.6355 H   0  0  0  0  0  0  0  0  0  0  0  0
    4.7748   -4.0696   -0.9825 H   0  0  0  0  0  0  0  0  0  0  0  0
    2.4493   -4.6969   -0.3687 H   0  0  0  0  0  0  0  0  0  0  0  0
    0.7062   -2.9875   -0.2428 H   0  0  0  0  0  0  0  0  0  0  0  0
    0.0754   -1.8293    1.5988 H   0  0  0  0  0  0  0  0  0  0  0  0
   -2.4778   -1.7519    2.1090 H   0  0  0  0  0  0  0  0  0  0  0  0
   -4.4485    1.2953   -1.2096 H   0  0  0  0  0  0  0  0  0  0  0  0
   -8.0093    1.8603    1.5043 H   0  0  0  0  0  0  0  0  0  0  0  0
   -9.9184    3.1753    0.6915 H   0  0  0  0  0  0  0  0  0  0  0  0
  -10.3015    3.4403   -1.7316 H   0  0  0  0  0  0  0  0  0  0  0  0
   -8.7520    2.3940   -3.3418 H   0  0  0  0  0  0  0  0  0  0  0  0
   -6.8420    1.0651   -2.5297 H   0  0  0  0  0  0  0  0  0  0  0  0
   -8.5964   -0.8195    0.1005 H   0  0  0  0  0  0  0  0  0  0  0  0
  -10.4762   -1.6904    1.4221 H   0  0  0  0  0  0  0  0  0  0  0  0
  -10.1892   -2.1739    3.8237 H   0  0  0  0  0  0  0  0  0  0  0  0
   -7.9997   -1.7999    4.8999 H   0  0  0  0  0  0  0  0  0  0  0  0
   -6.1105   -0.9017    3.5692 H   0  0  0  0  0  0  0  0  0  0  0  0
    0.6124    1.7423   -1.0609 H   0  0  0  0  0  0  0  0  0  0  0  0
    2.8884    2.2708   -1.8702 H   0  0  0  0  0  0  0  0  0  0  0  0
  1  2  1  0  0  0  0
  2  3  1  0  0  0  0
  3  4  1  0  0  0  0
  4  5  1  0  0  0  0
  5  6  1  0  0  0  0
  6  7  1  0  0  0  0
  7  8  1  0  0  0  0
  8  9  2  0  0  0  0
  8 10  1  0  0  0  0
 10 11  1  0  0  0  0
 11 12  2  0  0  0  0
 12 13  1  0  0  0  0
 13 14  2  0  0  0  0
 14 15  1  0  0  0  0
 15 16  1  0  0  0  0
 16 17  2  0  0  0  0
 17 18  1  0  0  0  0
 18 19  2  0  0  0  0
 19 20  1  0  0  0  0
 20 21  1  0  0  0  0
 21 22  2  0  0  0  0
 22 23  1  0  0  0  0
 23 24  2  0  0  0  0
 24 25  1  0  0  0  0
 25 26  2  0  0  0  0
 26 27  1  0  0  0  0
 27 28  2  0  0  0  0
 22 29  1  0  0  0  0
 29 30  1  0  0  0  0
 30 31  2  0  0  0  0
 31 32  1  0  0  0  0
 32 33  2  0  0  0  0
 33 34  1  0  0  0  0
 34 35  2  0  0  0  0
 29 36  1  0  0  0  0
 19 37  1  0  0  0  0
 15 38  2  0  0  0  0
 38 39  1  0  0  0  0
 39 40  2  0  0  0  0
 40 41  1  0  0  0  0
 40 42  1  0  0  0  0
 42 43  2  0  0  0  0
 42  7  1  0  0  0  0
 41 10  2  0  0  0  0
 41 14  1  0  0  0  0
 37 16  1  0  0  0  0
 36 20  2  0  0  0  0
 28 23  1  0  0  0  0
 35 30  1  0  0  0  0
  1 44  1  0  0  0  0
  1 45  1  0  0  0  0
  1 46  1  0  0  0  0
  2 47  1  0  0  0  0
  2 48  1  0  0  0  0
  3 49  1  0  0  0  0
  3 50  1  0  0  0  0
  4 51  1  0  0  0  0
  4 52  1  0  0  0  0
  5 53  1  0  0  0  0
  5 54  1  0  0  0  0
  6 55  1  0  0  0  0
  6 56  1  0  0  0  0
 11 57  1  0  0  0  0
 12 58  1  0  0  0  0
 13 59  1  0  0  0  0
 17 60  1  0  0  0  0
 18 61  1  0  0  0  0
 21 62  1  0  0  0  0
 24 63  1  0  0  0  0
 25 64  1  0  0  0  0
 26 65  1  0  0  0  0
 27 66  1  0  0  0  0
 28 67  1  0  0  0  0
 31 68  1  0  0  0  0
 32 69  1  0  0  0  0
 33 70  1  0  0  0  0
 34 71  1  0  0  0  0
 35 72  1  0  0  0  0
 38 73  1  0  0  0  0
 39 74  1  0  0  0  0
M  END
