
  xtb     03022213473D
 energy: -89.492061760633 gnorm: 0.000185985469 xtb: 6.4.1 (afa7bdf)
 59 61  0     0  0            999 V2000
   -4.2842    3.6471   -1.5194 C   0  0  0  0  0  0  0  0  0  0  0  0
   -3.7246    2.5340   -2.3944 C   0  0  0  0  0  0  0  0  0  0  0  0
   -2.5144    2.0070   -1.8584 O   0  0  0  0  0  0  0  0  0  0  0  0
   -2.6277    1.1517   -0.8402 C   0  0  0  0  0  0  0  0  0  0  0  0
   -3.6861    0.7442   -0.4179 O   0  0  0  0  0  0  0  0  0  0  0  0
   -1.3186    0.7109   -0.3414 C   0  0  0  0  0  0  0  0  0  0  0  0
   -1.0754   -0.5568    0.1512 C   0  0  0  0  0  0  0  0  0  0  0  0
   -1.9570   -1.6594    0.3314 C   0  0  0  0  0  0  0  0  0  0  0  0
   -1.5636   -2.8630    0.7916 C   0  0  0  0  0  0  0  0  0  0  0  0
   -2.4055   -4.0195    1.0001 C   0  0  0  0  0  0  0  0  0  0  0  0
   -1.8176   -5.2143    1.4300 C   0  0  0  0  0  0  0  0  0  0  0  0
   -2.5768   -6.3482    1.6386 C   0  0  0  0  0  0  0  0  0  0  0  0
   -3.9453   -6.3168    1.4248 C   0  0  0  0  0  0  0  0  0  0  0  0
   -4.5448   -5.1402    1.0023 C   0  0  0  0  0  0  0  0  0  0  0  0
   -3.7886   -4.0048    0.7919 C   0  0  0  0  0  0  0  0  0  0  0  0
    0.2606   -0.6901    0.4529 O   0  0  0  0  0  0  0  0  0  0  0  0
    0.8518    0.4772    0.1771 C   0  0  0  0  0  0  0  0  0  0  0  0
    2.1489    0.6619    0.4300 N   0  0  0  0  0  0  0  0  0  0  0  0
    3.0647   -0.3997    0.7902 C   0  0  0  0  0  0  0  0  0  0  0  0
    4.2691    0.2001    1.5281 C   0  0  0  0  0  0  0  0  0  0  0  0
    5.3884    0.5403    0.5504 C   0  0  0  0  0  0  0  0  0  0  0  0
    5.9571   -0.7379   -0.0785 C   0  0  0  0  0  0  0  0  0  0  0  0
    4.8767   -1.8159   -0.2310 C   0  0  0  0  0  0  0  0  0  0  0  0
    3.5127   -1.1770   -0.4623 C   0  0  0  0  0  0  0  0  0  0  0  0
   -0.0647    1.4053   -0.3214 C   0  0  0  0  0  0  0  0  0  0  0  0
    0.3380    2.7606   -0.6220 C   0  0  0  0  0  0  0  0  0  0  0  0
    1.5114    3.1074   -0.6109 O   0  0  0  0  0  0  0  0  0  0  0  0
   -0.6684    3.5960   -0.8888 O   0  0  0  0  0  0  0  0  0  0  0  0
   -0.3293    4.9470   -1.1830 C   0  0  0  0  0  0  0  0  0  0  0  0
   -0.2865    5.7925    0.0829 C   0  0  0  0  0  0  0  0  0  0  0  0
   -5.1442    4.0994   -2.0056 H   0  0  0  0  0  0  0  0  0  0  0  0
   -4.5924    3.2415   -0.5591 H   0  0  0  0  0  0  0  0  0  0  0  0
   -3.5234    4.4051   -1.3526 H   0  0  0  0  0  0  0  0  0  0  0  0
   -4.4568    1.7241   -2.4889 H   0  0  0  0  0  0  0  0  0  0  0  0
   -3.4534    2.9077   -3.3840 H   0  0  0  0  0  0  0  0  0  0  0  0
   -2.9836   -1.4468    0.0782 H   0  0  0  0  0  0  0  0  0  0  0  0
   -0.5164   -2.9998    1.0310 H   0  0  0  0  0  0  0  0  0  0  0  0
   -0.7500   -5.2453    1.5984 H   0  0  0  0  0  0  0  0  0  0  0  0
   -2.1023   -7.2609    1.9695 H   0  0  0  0  0  0  0  0  0  0  0  0
   -4.5414   -7.2025    1.5878 H   0  0  0  0  0  0  0  0  0  0  0  0
   -5.6122   -5.1106    0.8372 H   0  0  0  0  0  0  0  0  0  0  0  0
   -4.2728   -3.0969    0.4682 H   0  0  0  0  0  0  0  0  0  0  0  0
    2.5070    1.5494    0.0871 H   0  0  0  0  0  0  0  0  0  0  0  0
    2.5200   -1.0726    1.4614 H   0  0  0  0  0  0  0  0  0  0  0  0
    4.6410   -0.5131    2.2645 H   0  0  0  0  0  0  0  0  0  0  0  0
    3.9458    1.0932    2.0645 H   0  0  0  0  0  0  0  0  0  0  0  0
    4.9947    1.1986   -0.2256 H   0  0  0  0  0  0  0  0  0  0  0  0
    6.1815    1.0835    1.0656 H   0  0  0  0  0  0  0  0  0  0  0  0
    6.7664   -1.1280    0.5409 H   0  0  0  0  0  0  0  0  0  0  0  0
    6.3812   -0.4976   -1.0546 H   0  0  0  0  0  0  0  0  0  0  0  0
    5.1254   -2.4749   -1.0640 H   0  0  0  0  0  0  0  0  0  0  0  0
    4.8286   -2.4317    0.6690 H   0  0  0  0  0  0  0  0  0  0  0  0
    3.5748   -0.4888   -1.3076 H   0  0  0  0  0  0  0  0  0  0  0  0
    2.7684   -1.9358   -0.7076 H   0  0  0  0  0  0  0  0  0  0  0  0
   -1.1071    5.2993   -1.8649 H   0  0  0  0  0  0  0  0  0  0  0  0
    0.6430    4.9702   -1.6863 H   0  0  0  0  0  0  0  0  0  0  0  0
    0.5081    5.4399    0.7360 H   0  0  0  0  0  0  0  0  0  0  0  0
   -0.0967    6.8305   -0.1754 H   0  0  0  0  0  0  0  0  0  0  0  0
   -1.2336    5.7236    0.6130 H   0  0  0  0  0  0  0  0  0  0  0  0
  1  2  1  0  0  0  0
  2  3  1  0  0  0  0
  3  4  1  0  0  0  0
  4  5  2  0  0  0  0
  4  6  1  0  0  0  0
  6  7  2  0  0  0  0
  7  8  1  0  0  0  0
  8  9  2  0  0  0  0
  9 10  1  0  0  0  0
 10 11  2  0  0  0  0
 11 12  1  0  0  0  0
 12 13  2  0  0  0  0
 13 14  1  0  0  0  0
 14 15  2  0  0  0  0
  7 16  1  0  0  0  0
 16 17  1  0  0  0  0
 17 18  1  0  0  0  0
 18 19  1  0  0  0  0
 19 20  1  0  0  0  0
 20 21  1  0  0  0  0
 21 22  1  0  0  0  0
 22 23  1  0  0  0  0
 23 24  1  0  0  0  0
 17 25  2  0  0  0  0
 25 26  1  0  0  0  0
 26 27  2  0  0  0  0
 26 28  1  0  0  0  0
 28 29  1  0  0  0  0
 29 30  1  0  0  0  0
 25  6  1  0  0  0  0
 15 10  1  0  0  0  0
 24 19  1  0  0  0  0
  1 31  1  0  0  0  0
  1 32  1  0  0  0  0
  1 33  1  0  0  0  0
  2 34  1  0  0  0  0
  2 35  1  0  0  0  0
  8 36  1  0  0  0  0
  9 37  1  0  0  0  0
 11 38  1  0  0  0  0
 12 39  1  0  0  0  0
 13 40  1  0  0  0  0
 14 41  1  0  0  0  0
 15 42  1  0  0  0  0
 18 43  1  0  0  0  0
 19 44  1  0  0  0  0
 20 45  1  0  0  0  0
 20 46  1  0  0  0  0
 21 47  1  0  0  0  0
 21 48  1  0  0  0  0
 22 49  1  0  0  0  0
 22 50  1  0  0  0  0
 23 51  1  0  0  0  0
 23 52  1  0  0  0  0
 24 53  1  0  0  0  0
 24 54  1  0  0  0  0
 29 55  1  0  0  0  0
 29 56  1  0  0  0  0
 30 57  1  0  0  0  0
 30 58  1  0  0  0  0
 30 59  1  0  0  0  0
M  END
