
  xtb     03022215303D
 energy: -23.130305471647 gnorm: 0.000327428753 xtb: 6.4.1 (afa7bdf)
 13 13  0     0  0            999 V2000
    2.2750    0.3139   -0.0427 N   0  0  0  0  0  0  0  0  0  0  0  0
    0.9384    0.1860   -0.0119 C   0  0  0  0  0  0  0  0  0  0  0  0
    0.3307   -1.1138   -0.0650 C   0  0  0  0  0  0  0  0  0  0  0  0
   -1.0245   -1.1523   -0.0397 C   0  0  0  0  0  0  0  0  0  0  0  0
   -1.7278   -0.0079    0.0326 N   0  0  0  0  0  0  0  0  0  0  0  0
   -1.1030    1.2416    0.0845 C   0  0  0  0  0  0  0  0  0  0  0  0
   -2.0649    2.5702    0.1748 S   0  0  0  0  0  0  0  0  0  0  0  0
    0.2318    1.2893    0.0599 N   0  0  0  0  0  0  0  0  0  0  0  0
    2.6604    1.2402    0.0145 H   0  0  0  0  0  0  0  0  0  0  0  0
    2.8798   -0.4859   -0.0628 H   0  0  0  0  0  0  0  0  0  0  0  0
    0.9279   -2.0066   -0.1227 H   0  0  0  0  0  0  0  0  0  0  0  0
   -1.5845   -2.0762   -0.0751 H   0  0  0  0  0  0  0  0  0  0  0  0
   -2.7390    0.0015    0.0537 H   0  0  0  0  0  0  0  0  0  0  0  0
  1  2  1  0  0  0  0
  2  3  1  0  0  0  0
  3  4  2  0  0  0  0
  4  5  1  0  0  0  0
  5  6  1  0  0  0  0
  6  7  2  0  0  0  0
  6  8  1  0  0  0  0
  8  2  2  0  0  0  0
  1  9  1  0  0  0  0
  1 10  1  0  0  0  0
  3 11  1  0  0  0  0
  4 12  1  0  0  0  0
  5 13  1  0  0  0  0
M  END
