
  xtb     03022212493D
 energy: -98.750939879650 gnorm: 0.000125051452 xtb: 6.4.1 (afa7bdf)
 70 74  0     0  0            999 V2000
   -5.5914   -3.8250   -0.1486 C   0  0  0  0  0  0  0  0  0  0  0  0
   -4.1400   -4.3126   -0.1604 C   0  0  0  0  0  0  0  0  0  0  0  0
   -3.9262   -5.1403   -1.4356 C   0  0  0  0  0  0  0  0  0  0  0  0
   -3.9257   -5.1970    1.0762 C   0  0  0  0  0  0  0  0  0  0  0  0
   -3.1384   -3.1672   -0.1342 C   0  0  0  0  0  0  0  0  0  0  0  0
   -1.7696   -3.4665   -0.1356 C   0  0  0  0  0  0  0  0  0  0  0  0
   -0.7889   -2.4959   -0.1066 C   0  0  0  0  0  0  0  0  0  0  0  0
   -1.1876   -1.1691   -0.0651 C   0  0  0  0  0  0  0  0  0  0  0  0
   -2.5583   -0.8396   -0.0915 C   0  0  0  0  0  0  0  0  0  0  0  0
   -3.5240   -1.8370   -0.1210 C   0  0  0  0  0  0  0  0  0  0  0  0
   -2.6332    0.5957   -0.0979 C   0  0  0  0  0  0  0  0  0  0  0  0
   -3.6984    1.4864   -0.0959 C   0  0  0  0  0  0  0  0  0  0  0  0
   -3.4548    2.8497   -0.0735 C   0  0  0  0  0  0  0  0  0  0  0  0
   -4.5716    3.8835   -0.0734 C   0  0  0  0  0  0  0  0  0  0  0  0
   -4.4193    4.7906   -1.3026 C   0  0  0  0  0  0  0  0  0  0  0  0
   -5.9629    3.2461   -0.1244 C   0  0  0  0  0  0  0  0  0  0  0  0
   -4.4799    4.7240    1.2081 C   0  0  0  0  0  0  0  0  0  0  0  0
   -2.1252    3.2905   -0.0360 C   0  0  0  0  0  0  0  0  0  0  0  0
   -1.0479    2.4279   -0.0372 C   0  0  0  0  0  0  0  0  0  0  0  0
   -1.3041    1.0666   -0.0870 C   0  0  0  0  0  0  0  0  0  0  0  0
   -0.4343   -0.0088   -0.0643 N   0  0  0  0  0  0  0  0  0  0  0  0
    0.9590    0.0615   -0.0459 C   0  0  0  0  0  0  0  0  0  0  0  0
    1.6344    0.8905   -0.9420 C   0  0  0  0  0  0  0  0  0  0  0  0
    3.0104    0.9577   -0.9252 C   0  0  0  0  0  0  0  0  0  0  0  0
    3.7434    0.1947   -0.0120 C   0  0  0  0  0  0  0  0  0  0  0  0
    5.1500    0.2603    0.0044 C   0  0  0  0  0  0  0  0  0  0  0  0
    6.3577    0.3150    0.0202 C   0  0  0  0  0  0  0  0  0  0  0  0
    7.7636    0.3778    0.0353 C   0  0  0  0  0  0  0  0  0  0  0  0
    8.4543    0.9721   -1.0279 C   0  0  0  0  0  0  0  0  0  0  0  0
    9.8286    1.0281   -1.0093 C   0  0  0  0  0  0  0  0  0  0  0  0
   10.5463    0.4972    0.0671 C   0  0  0  0  0  0  0  0  0  0  0  0
   12.0081    0.5635    0.0751 C   0  0  0  0  0  0  0  0  0  0  0  0
   12.6917    1.0513   -0.7906 O   0  0  0  0  0  0  0  0  0  0  0  0
    9.8550   -0.0935    1.1274 C   0  0  0  0  0  0  0  0  0  0  0  0
    8.4798   -0.1551    1.1139 C   0  0  0  0  0  0  0  0  0  0  0  0
    3.0646   -0.6350    0.8850 C   0  0  0  0  0  0  0  0  0  0  0  0
    1.6886   -0.6992    0.8684 C   0  0  0  0  0  0  0  0  0  0  0  0
   -5.8019   -3.2453    0.7471 H   0  0  0  0  0  0  0  0  0  0  0  0
   -6.2618   -4.6823   -0.1592 H   0  0  0  0  0  0  0  0  0  0  0  0
   -5.8080   -3.2196   -1.0257 H   0  0  0  0  0  0  0  0  0  0  0  0
   -2.9297   -5.5719   -1.4671 H   0  0  0  0  0  0  0  0  0  0  0  0
   -4.6498   -5.9517   -1.4819 H   0  0  0  0  0  0  0  0  0  0  0  0
   -4.0535   -4.5133   -2.3157 H   0  0  0  0  0  0  0  0  0  0  0  0
   -4.6476   -6.0110    1.0849 H   0  0  0  0  0  0  0  0  0  0  0  0
   -4.0552   -4.6107    1.9837 H   0  0  0  0  0  0  0  0  0  0  0  0
   -2.9284   -5.6277    1.0888 H   0  0  0  0  0  0  0  0  0  0  0  0
   -1.4535   -4.4982   -0.1653 H   0  0  0  0  0  0  0  0  0  0  0  0
    0.2549   -2.7713   -0.1303 H   0  0  0  0  0  0  0  0  0  0  0  0
   -4.5617   -1.5487   -0.1394 H   0  0  0  0  0  0  0  0  0  0  0  0
   -4.7003    1.0910   -0.1057 H   0  0  0  0  0  0  0  0  0  0  0  0
   -5.2221    5.5246   -1.3287 H   0  0  0  0  0  0  0  0  0  0  0  0
   -3.4727    5.3234   -1.2888 H   0  0  0  0  0  0  0  0  0  0  0  0
   -4.4636    4.1979   -2.2141 H   0  0  0  0  0  0  0  0  0  0  0  0
   -6.7197    4.0280   -0.1307 H   0  0  0  0  0  0  0  0  0  0  0  0
   -6.1378    2.6178    0.7459 H   0  0  0  0  0  0  0  0  0  0  0  0
   -6.0876    2.6510   -1.0262 H   0  0  0  0  0  0  0  0  0  0  0  0
   -5.2858    5.4546    1.2359 H   0  0  0  0  0  0  0  0  0  0  0  0
   -4.5638    4.0836    2.0838 H   0  0  0  0  0  0  0  0  0  0  0  0
   -3.5355    5.2578    1.2666 H   0  0  0  0  0  0  0  0  0  0  0  0
   -1.9197    4.3496    0.0005 H   0  0  0  0  0  0  0  0  0  0  0  0
   -0.0396    2.8109    0.0136 H   0  0  0  0  0  0  0  0  0  0  0  0
    1.0703    1.4632   -1.6627 H   0  0  0  0  0  0  0  0  0  0  0  0
    3.5332    1.5949   -1.6232 H   0  0  0  0  0  0  0  0  0  0  0  0
    7.8960    1.3805   -1.8574 H   0  0  0  0  0  0  0  0  0  0  0  0
   10.3802    1.4803   -1.8202 H   0  0  0  0  0  0  0  0  0  0  0  0
   12.4694    0.1113    0.9771 H   0  0  0  0  0  0  0  0  0  0  0  0
   10.4084   -0.5030    1.9607 H   0  0  0  0  0  0  0  0  0  0  0  0
    7.9402   -0.6105    1.9313 H   0  0  0  0  0  0  0  0  0  0  0  0
    3.6287   -1.2206    1.5960 H   0  0  0  0  0  0  0  0  0  0  0  0
    1.1643   -1.3238    1.5760 H   0  0  0  0  0  0  0  0  0  0  0  0
  1  2  1  0  0  0  0
  2  3  1  0  0  0  0
  2  4  1  0  0  0  0
  2  5  1  0  0  0  0
  5  6  2  0  0  0  0
  6  7  1  0  0  0  0
  7  8  2  0  0  0  0
  8  9  1  0  0  0  0
  9 10  2  0  0  0  0
  9 11  1  0  0  0  0
 11 12  2  0  0  0  0
 12 13  1  0  0  0  0
 13 14  1  0  0  0  0
 14 15  1  0  0  0  0
 14 16  1  0  0  0  0
 14 17  1  0  0  0  0
 13 18  2  0  0  0  0
 18 19  1  0  0  0  0
 19 20  2  0  0  0  0
 20 21  1  0  0  0  0
 21 22  1  0  0  0  0
 22 23  2  0  0  0  0
 23 24  1  0  0  0  0
 24 25  2  0  0  0  0
 25 26  1  0  0  0  0
 26 27  3  0  0  0  0
 27 28  1  0  0  0  0
 28 29  2  0  0  0  0
 29 30  1  0  0  0  0
 30 31  2  0  0  0  0
 31 32  1  0  0  0  0
 32 33  2  0  0  0  0
 31 34  1  0  0  0  0
 34 35  2  0  0  0  0
 25 36  1  0  0  0  0
 36 37  2  0  0  0  0
 10  5  1  0  0  0  0
 20 11  1  0  0  0  0
 37 22  1  0  0  0  0
 21  8  1  0  0  0  0
 35 28  1  0  0  0  0
  1 38  1  0  0  0  0
  1 39  1  0  0  0  0
  1 40  1  0  0  0  0
  3 41  1  0  0  0  0
  3 42  1  0  0  0  0
  3 43  1  0  0  0  0
  4 44  1  0  0  0  0
  4 45  1  0  0  0  0
  4 46  1  0  0  0  0
  6 47  1  0  0  0  0
  7 48  1  0  0  0  0
 10 49  1  0  0  0  0
 12 50  1  0  0  0  0
 15 51  1  0  0  0  0
 15 52  1  0  0  0  0
 15 53  1  0  0  0  0
 16 54  1  0  0  0  0
 16 55  1  0  0  0  0
 16 56  1  0  0  0  0
 17 57  1  0  0  0  0
 17 58  1  0  0  0  0
 17 59  1  0  0  0  0
 18 60  1  0  0  0  0
 19 61  1  0  0  0  0
 23 62  1  0  0  0  0
 24 63  1  0  0  0  0
 29 64  1  0  0  0  0
 30 65  1  0  0  0  0
 32 66  1  0  0  0  0
 34 67  1  0  0  0  0
 35 68  1  0  0  0  0
 36 69  1  0  0  0  0
 37 70  1  0  0  0  0
M  END
