
  xtb     03022212253D
 energy: -63.831920644299 gnorm: 0.000216439174 xtb: 6.4.1 (afa7bdf)
 39 42  0     0  0            999 V2000
    6.1749   -1.1049    0.4622 C   0  0  0  0  0  0  0  0  0  0  0  0
    6.4430    0.1357   -0.0231 C   0  0  0  0  0  0  0  0  0  0  0  0
    5.0166    1.0601   -0.2797 S   0  0  0  0  0  0  0  0  0  0  0  0
    4.0263   -0.2570    0.2811 C   0  0  0  0  0  0  0  0  0  0  0  0
    2.6078   -0.1330    0.3283 C   0  0  0  0  0  0  0  0  0  0  0  0
    1.8169    0.9116   -0.0121 C   0  0  0  0  0  0  0  0  0  0  0  0
    0.4184    0.6797    0.1646 C   0  0  0  0  0  0  0  0  0  0  0  0
   -0.5733    1.5283   -0.1443 N   0  0  0  0  0  0  0  0  0  0  0  0
   -0.2461    2.6947   -0.5931 N   0  0  0  0  0  0  0  0  0  0  0  0
   -1.2349    3.4988   -0.9320 C   0  0  0  0  0  0  0  0  0  0  0  0
   -1.0903    4.7043   -1.3688 N   0  0  0  0  0  0  0  0  0  0  0  0
   -2.2574    5.3020   -1.6470 C   0  0  0  0  0  0  0  0  0  0  0  0
   -3.3790    4.5546   -1.4324 C   0  0  0  0  0  0  0  0  0  0  0  0
   -2.9925    2.9961   -0.8411 S   0  0  0  0  0  0  0  0  0  0  0  0
    0.1514   -0.6076    0.6843 C   0  0  0  0  0  0  0  0  0  0  0  0
   -1.0137   -1.1470    1.0565 N   0  0  0  0  0  0  0  0  0  0  0  0
   -2.2939   -0.5309    0.7774 C   0  0  0  0  0  0  0  0  0  0  0  0
   -2.9349   -1.2067   -0.4354 C   0  0  0  0  0  0  0  0  0  0  0  0
   -3.0767   -2.7063   -0.1847 C   0  0  0  0  0  0  0  0  0  0  0  0
   -1.7236   -3.3063    0.1918 C   0  0  0  0  0  0  0  0  0  0  0  0
   -1.1366   -2.5483    1.3855 C   0  0  0  0  0  0  0  0  0  0  0  0
    1.6344   -1.4919    0.9037 S   0  0  0  0  0  0  0  0  0  0  0  0
    4.7979   -1.3335    0.6373 C   0  0  0  0  0  0  0  0  0  0  0  0
    6.9336   -1.8326    0.6880 H   0  0  0  0  0  0  0  0  0  0  0  0
    7.3957    0.5715   -0.2487 H   0  0  0  0  0  0  0  0  0  0  0  0
    2.1822    1.8478   -0.3942 H   0  0  0  0  0  0  0  0  0  0  0  0
   -2.2476    6.3120   -2.0173 H   0  0  0  0  0  0  0  0  0  0  0  0
   -4.4013    4.8346   -1.5902 H   0  0  0  0  0  0  0  0  0  0  0  0
   -2.9280   -0.6697    1.6589 H   0  0  0  0  0  0  0  0  0  0  0  0
   -2.1450    0.5324    0.5897 H   0  0  0  0  0  0  0  0  0  0  0  0
   -2.3046   -1.0315   -1.3088 H   0  0  0  0  0  0  0  0  0  0  0  0
   -3.9081   -0.7548   -0.6249 H   0  0  0  0  0  0  0  0  0  0  0  0
   -3.4683   -3.2005   -1.0749 H   0  0  0  0  0  0  0  0  0  0  0  0
   -3.7853   -2.8728    0.6301 H   0  0  0  0  0  0  0  0  0  0  0  0
   -1.8288   -4.3614    0.4458 H   0  0  0  0  0  0  0  0  0  0  0  0
   -1.0356   -3.2251   -0.6522 H   0  0  0  0  0  0  0  0  0  0  0  0
   -1.8097   -2.6368    2.2447 H   0  0  0  0  0  0  0  0  0  0  0  0
   -0.1628   -2.9543    1.6634 H   0  0  0  0  0  0  0  0  0  0  0  0
    4.3793   -2.2514    1.0112 H   0  0  0  0  0  0  0  0  0  0  0  0
  1  2  2  0  0  0  0
  2  3  1  0  0  0  0
  3  4  1  0  0  0  0
  4  5  1  0  0  0  0
  5  6  2  0  0  0  0
  6  7  1  0  0  0  0
  7  8  1  0  0  0  0
  8  9  2  0  0  0  0
  9 10  1  0  0  0  0
 10 11  2  0  0  0  0
 11 12  1  0  0  0  0
 12 13  2  0  0  0  0
 13 14  1  0  0  0  0
  7 15  2  0  0  0  0
 15 16  1  0  0  0  0
 16 17  1  0  0  0  0
 17 18  1  0  0  0  0
 18 19  1  0  0  0  0
 19 20  1  0  0  0  0
 20 21  1  0  0  0  0
 15 22  1  0  0  0  0
  4 23  2  0  0  0  0
 23  1  1  0  0  0  0
 22  5  1  0  0  0  0
 14 10  1  0  0  0  0
 21 16  1  0  0  0  0
  1 24  1  0  0  0  0
  2 25  1  0  0  0  0
  6 26  1  0  0  0  0
 12 27  1  0  0  0  0
 13 28  1  0  0  0  0
 17 29  1  0  0  0  0
 17 30  1  0  0  0  0
 18 31  1  0  0  0  0
 18 32  1  0  0  0  0
 19 33  1  0  0  0  0
 19 34  1  0  0  0  0
 20 35  1  0  0  0  0
 20 36  1  0  0  0  0
 21 37  1  0  0  0  0
 21 38  1  0  0  0  0
 23 39  1  0  0  0  0
M  END
