
  xtb     03022212063D
 energy: -109.307023751074 gnorm: 0.000110837737 xtb: 6.4.1 (afa7bdf)
 77 83  0     0  0            999 V2000
   -1.2886   -3.8908   -2.9520 C   0  0  0  0  0  0  0  0  0  0  0  0
   -1.1791   -3.7357   -1.4397 C   0  0  0  0  0  0  0  0  0  0  0  0
   -1.5244   -2.3290   -0.9502 C   0  0  0  0  0  0  0  0  0  0  0  0
   -3.0034   -1.9775   -1.1015 C   0  0  0  0  0  0  0  0  0  0  0  0
   -3.3311   -0.5669   -0.6049 C   0  0  0  0  0  0  0  0  0  0  0  0
   -3.2361   -0.4231    0.9224 C   0  0  0  0  0  0  0  0  0  0  0  0
   -2.2868    0.6825    1.4115 C   0  0  0  0  0  0  0  0  0  0  0  0
   -2.6961    2.0971    1.0017 C   0  0  0  0  0  0  0  0  0  0  0  0
   -3.9226    2.5861    1.7681 C   0  0  0  0  0  0  0  0  0  0  0  0
   -4.2588    4.0344    1.4203 C   0  0  0  0  0  0  0  0  0  0  0  0
   -5.5002    4.5201    2.1656 C   0  0  0  0  0  0  0  0  0  0  0  0
   -5.8084    5.9995    1.9323 C   0  0  0  0  0  0  0  0  0  0  0  0
   -6.2406    6.3044    0.5029 C   0  0  0  0  0  0  0  0  0  0  0  0
   -0.9193    0.3750    1.0057 N   0  0  0  0  0  0  0  0  0  0  0  0
   -0.1411   -0.4677    1.7909 C   0  0  0  0  0  0  0  0  0  0  0  0
   -0.4974   -0.9331    2.8479 O   0  0  0  0  0  0  0  0  0  0  0  0
    1.1358   -0.6358    1.0673 C   0  0  0  0  0  0  0  0  0  0  0  0
    2.2695   -1.3886    1.4035 C   0  0  0  0  0  0  0  0  0  0  0  0
    2.3540   -2.1522    2.5972 C   0  0  0  0  0  0  0  0  0  0  0  0
    3.4731   -2.8613    2.8757 C   0  0  0  0  0  0  0  0  0  0  0  0
    4.5883   -2.8631    1.9906 C   0  0  0  0  0  0  0  0  0  0  0  0
    5.7404   -3.5959    2.2909 C   0  0  0  0  0  0  0  0  0  0  0  0
    6.8123   -3.5869    1.4277 C   0  0  0  0  0  0  0  0  0  0  0  0
    6.7623   -2.8544    0.2516 C   0  0  0  0  0  0  0  0  0  0  0  0
    5.6385   -2.1092   -0.0963 C   0  0  0  0  0  0  0  0  0  0  0  0
    5.5626   -1.3366   -1.3234 C   0  0  0  0  0  0  0  0  0  0  0  0
    6.6073   -1.2870   -2.2428 C   0  0  0  0  0  0  0  0  0  0  0  0
    6.5141   -0.5427   -3.4087 C   0  0  0  0  0  0  0  0  0  0  0  0
    5.3733    0.1737   -3.6904 C   0  0  0  0  0  0  0  0  0  0  0  0
    4.2945    0.1580   -2.8012 C   0  0  0  0  0  0  0  0  0  0  0  0
    3.1083    0.8942   -3.0799 C   0  0  0  0  0  0  0  0  0  0  0  0
    2.0590    0.8896   -2.2247 C   0  0  0  0  0  0  0  0  0  0  0  0
    2.1200    0.1414   -1.0195 C   0  0  0  0  0  0  0  0  0  0  0  0
    1.0630    0.1023   -0.0993 C   0  0  0  0  0  0  0  0  0  0  0  0
   -0.2666    0.7575   -0.1542 C   0  0  0  0  0  0  0  0  0  0  0  0
   -0.7124    1.4770   -1.0173 O   0  0  0  0  0  0  0  0  0  0  0  0
    3.2827   -0.6097   -0.7060 C   0  0  0  0  0  0  0  0  0  0  0  0
    4.3834   -0.6009   -1.6060 C   0  0  0  0  0  0  0  0  0  0  0  0
    3.3567   -1.3662    0.4925 C   0  0  0  0  0  0  0  0  0  0  0  0
    4.5307   -2.1112    0.7891 C   0  0  0  0  0  0  0  0  0  0  0  0
   -0.6665   -3.1528   -3.4543 H   0  0  0  0  0  0  0  0  0  0  0  0
   -2.3147   -3.7617   -3.2859 H   0  0  0  0  0  0  0  0  0  0  0  0
   -0.9571   -4.8818   -3.2544 H   0  0  0  0  0  0  0  0  0  0  0  0
   -0.1539   -3.9644   -1.1363 H   0  0  0  0  0  0  0  0  0  0  0  0
   -1.8366   -4.4584   -0.9508 H   0  0  0  0  0  0  0  0  0  0  0  0
   -1.2420   -2.2589    0.1032 H   0  0  0  0  0  0  0  0  0  0  0  0
   -0.9235   -1.6015   -1.5031 H   0  0  0  0  0  0  0  0  0  0  0  0
   -3.2781   -2.0391   -2.1559 H   0  0  0  0  0  0  0  0  0  0  0  0
   -3.6080   -2.7071   -0.5566 H   0  0  0  0  0  0  0  0  0  0  0  0
   -4.3421   -0.3134   -0.9298 H   0  0  0  0  0  0  0  0  0  0  0  0
   -2.6548    0.1331   -1.0939 H   0  0  0  0  0  0  0  0  0  0  0  0
   -4.2210   -0.2230    1.3447 H   0  0  0  0  0  0  0  0  0  0  0  0
   -2.8916   -1.3625    1.3595 H   0  0  0  0  0  0  0  0  0  0  0  0
   -2.2662    0.6306    2.5094 H   0  0  0  0  0  0  0  0  0  0  0  0
   -2.8939    2.1369   -0.0686 H   0  0  0  0  0  0  0  0  0  0  0  0
   -1.8599    2.7703    1.2064 H   0  0  0  0  0  0  0  0  0  0  0  0
   -4.7824    1.9572    1.5303 H   0  0  0  0  0  0  0  0  0  0  0  0
   -3.7384    2.5046    2.8424 H   0  0  0  0  0  0  0  0  0  0  0  0
   -3.4113    4.6742    1.6771 H   0  0  0  0  0  0  0  0  0  0  0  0
   -4.4191    4.1104    0.3440 H   0  0  0  0  0  0  0  0  0  0  0  0
   -5.3501    4.3595    3.2364 H   0  0  0  0  0  0  0  0  0  0  0  0
   -6.3621    3.9214    1.8611 H   0  0  0  0  0  0  0  0  0  0  0  0
   -4.9256    6.5939    2.1789 H   0  0  0  0  0  0  0  0  0  0  0  0
   -6.6086    6.2995    2.6135 H   0  0  0  0  0  0  0  0  0  0  0  0
   -6.5220    7.3510    0.4090 H   0  0  0  0  0  0  0  0  0  0  0  0
   -5.4352    6.1067   -0.1993 H   0  0  0  0  0  0  0  0  0  0  0  0
   -7.0975    5.6935    0.2265 H   0  0  0  0  0  0  0  0  0  0  0  0
    1.5065   -2.1458    3.2642 H   0  0  0  0  0  0  0  0  0  0  0  0
    3.5449   -3.4443    3.7825 H   0  0  0  0  0  0  0  0  0  0  0  0
    5.7776   -4.1666    3.2073 H   0  0  0  0  0  0  0  0  0  0  0  0
    7.7018   -4.1528    1.6628 H   0  0  0  0  0  0  0  0  0  0  0  0
    7.6245   -2.8756   -0.3948 H   0  0  0  0  0  0  0  0  0  0  0  0
    7.5188   -1.8333   -2.0627 H   0  0  0  0  0  0  0  0  0  0  0  0
    7.3462   -0.5288   -4.0973 H   0  0  0  0  0  0  0  0  0  0  0  0
    5.2990    0.7543   -4.5982 H   0  0  0  0  0  0  0  0  0  0  0  0
    3.0681    1.4615   -3.9985 H   0  0  0  0  0  0  0  0  0  0  0  0
    1.1587    1.4465   -2.4306 H   0  0  0  0  0  0  0  0  0  0  0  0
  1  2  1  0  0  0  0
  2  3  1  0  0  0  0
  3  4  1  0  0  0  0
  4  5  1  0  0  0  0
  5  6  1  0  0  0  0
  6  7  1  0  0  0  0
  7  8  1  0  0  0  0
  8  9  1  0  0  0  0
  9 10  1  0  0  0  0
 10 11  1  0  0  0  0
 11 12  1  0  0  0  0
 12 13  1  0  0  0  0
  7 14  1  0  0  0  0
 14 15  1  0  0  0  0
 15 16  2  0  0  0  0
 15 17  1  0  0  0  0
 17 18  2  0  0  0  0
 18 19  1  0  0  0  0
 19 20  2  0  0  0  0
 20 21  1  0  0  0  0
 21 22  1  0  0  0  0
 22 23  2  0  0  0  0
 23 24  1  0  0  0  0
 24 25  2  0  0  0  0
 25 26  1  0  0  0  0
 26 27  1  0  0  0  0
 27 28  2  0  0  0  0
 28 29  1  0  0  0  0
 29 30  2  0  0  0  0
 30 31  1  0  0  0  0
 31 32  2  0  0  0  0
 32 33  1  0  0  0  0
 33 34  2  0  0  0  0
 34 35  1  0  0  0  0
 35 36  2  0  0  0  0
 33 37  1  0  0  0  0
 37 38  1  0  0  0  0
 37 39  2  0  0  0  0
 39 40  1  0  0  0  0
 35 14  1  0  0  0  0
 34 17  1  0  0  0  0
 39 18  1  0  0  0  0
 40 21  2  0  0  0  0
 40 25  1  0  0  0  0
 38 26  2  0  0  0  0
 38 30  1  0  0  0  0
  1 41  1  0  0  0  0
  1 42  1  0  0  0  0
  1 43  1  0  0  0  0
  2 44  1  0  0  0  0
  2 45  1  0  0  0  0
  3 46  1  0  0  0  0
  3 47  1  0  0  0  0
  4 48  1  0  0  0  0
  4 49  1  0  0  0  0
  5 50  1  0  0  0  0
  5 51  1  0  0  0  0
  6 52  1  0  0  0  0
  6 53  1  0  0  0  0
  7 54  1  0  0  0  0
  8 55  1  0  0  0  0
  8 56  1  0  0  0  0
  9 57  1  0  0  0  0
  9 58  1  0  0  0  0
 10 59  1  0  0  0  0
 10 60  1  0  0  0  0
 11 61  1  0  0  0  0
 11 62  1  0  0  0  0
 12 63  1  0  0  0  0
 12 64  1  0  0  0  0
 13 65  1  0  0  0  0
 13 66  1  0  0  0  0
 13 67  1  0  0  0  0
 19 68  1  0  0  0  0
 20 69  1  0  0  0  0
 22 70  1  0  0  0  0
 23 71  1  0  0  0  0
 24 72  1  0  0  0  0
 27 73  1  0  0  0  0
 28 74  1  0  0  0  0
 29 75  1  0  0  0  0
 31 76  1  0  0  0  0
 32 77  1  0  0  0  0
M  END
