
  xtb     03022212483D
 energy: -79.005508941106 gnorm: 0.000128551143 xtb: 6.4.1 (afa7bdf)
 56 59  0     0  0            999 V2000
    8.7428    2.6857    0.3302 C   0  0  0  0  0  0  0  0  0  0  0  0
    8.3373    1.3344    0.0368 N   0  0  0  0  0  0  0  0  0  0  0  0
    9.3645    0.3607   -0.2318 C   0  0  0  0  0  0  0  0  0  0  0  0
    7.0136    0.9787    0.0505 C   0  0  0  0  0  0  0  0  0  0  0  0
    6.6193   -0.3685    0.0298 C   0  0  0  0  0  0  0  0  0  0  0  0
    5.2895   -0.7220    0.0414 C   0  0  0  0  0  0  0  0  0  0  0  0
    4.2877    0.2506    0.0749 C   0  0  0  0  0  0  0  0  0  0  0  0
    2.9279   -0.1112    0.0907 C   0  0  0  0  0  0  0  0  0  0  0  0
    1.7572   -0.4124    0.1075 C   0  0  0  0  0  0  0  0  0  0  0  0
    0.3960   -0.7762    0.1278 C   0  0  0  0  0  0  0  0  0  0  0  0
    0.0333   -2.1306    0.3104 C   0  0  0  0  0  0  0  0  0  0  0  0
   -1.2796   -2.5016    0.3098 C   0  0  0  0  0  0  0  0  0  0  0  0
   -2.3102   -1.5542    0.1291 C   0  0  0  0  0  0  0  0  0  0  0  0
   -3.6909   -1.9123    0.1096 C   0  0  0  0  0  0  0  0  0  0  0  0
   -4.0220   -3.2753    0.1653 N   0  0  0  0  0  0  0  0  0  0  0  0
   -3.6667   -4.0657   -0.9967 C   0  0  0  0  0  0  0  0  0  0  0  0
   -5.3265   -3.6261    0.6741 C   0  0  0  0  0  0  0  0  0  0  0  0
   -4.6417   -0.9174    0.0936 C   0  0  0  0  0  0  0  0  0  0  0  0
   -4.2903    0.4446    0.0307 C   0  0  0  0  0  0  0  0  0  0  0  0
   -5.3463    1.4682    0.0034 C   0  0  0  0  0  0  0  0  0  0  0  0
   -5.2169    2.6359    0.7518 C   0  0  0  0  0  0  0  0  0  0  0  0
   -6.2074    3.5999    0.7312 C   0  0  0  0  0  0  0  0  0  0  0  0
   -7.3421    3.4166   -0.0413 C   0  0  0  0  0  0  0  0  0  0  0  0
   -7.4797    2.2618   -0.7928 C   0  0  0  0  0  0  0  0  0  0  0  0
   -6.4922    1.2946   -0.7691 C   0  0  0  0  0  0  0  0  0  0  0  0
   -2.9648    0.7972   -0.0326 C   0  0  0  0  0  0  0  0  0  0  0  0
   -1.9544   -0.1833    0.0212 C   0  0  0  0  0  0  0  0  0  0  0  0
   -0.5942    0.1747    0.0013 C   0  0  0  0  0  0  0  0  0  0  0  0
    4.6716    1.5935    0.0947 C   0  0  0  0  0  0  0  0  0  0  0  0
    6.0004    1.9500    0.0828 C   0  0  0  0  0  0  0  0  0  0  0  0
    9.8015    2.6982    0.5821 H   0  0  0  0  0  0  0  0  0  0  0  0
    8.1895    3.0758    1.1873 H   0  0  0  0  0  0  0  0  0  0  0  0
    8.5834    3.3554   -0.5235 H   0  0  0  0  0  0  0  0  0  0  0  0
    9.0771   -0.2765   -1.0706 H   0  0  0  0  0  0  0  0  0  0  0  0
    9.5671   -0.2760    0.6384 H   0  0  0  0  0  0  0  0  0  0  0  0
   10.2852    0.8740   -0.5031 H   0  0  0  0  0  0  0  0  0  0  0  0
    7.3600   -1.1519    0.0213 H   0  0  0  0  0  0  0  0  0  0  0  0
    5.0116   -1.7664    0.0297 H   0  0  0  0  0  0  0  0  0  0  0  0
    0.8142   -2.8624    0.4600 H   0  0  0  0  0  0  0  0  0  0  0  0
   -1.5457   -3.5325    0.4853 H   0  0  0  0  0  0  0  0  0  0  0  0
   -3.5097   -5.1039   -0.6963 H   0  0  0  0  0  0  0  0  0  0  0  0
   -4.4642   -4.0440   -1.7541 H   0  0  0  0  0  0  0  0  0  0  0  0
   -2.7564   -3.6848   -1.4516 H   0  0  0  0  0  0  0  0  0  0  0  0
   -6.1371   -3.4656   -0.0521 H   0  0  0  0  0  0  0  0  0  0  0  0
   -5.3143   -4.6859    0.9345 H   0  0  0  0  0  0  0  0  0  0  0  0
   -5.5330   -3.0500    1.5740 H   0  0  0  0  0  0  0  0  0  0  0  0
   -5.6908   -1.1676    0.1249 H   0  0  0  0  0  0  0  0  0  0  0  0
   -4.3400    2.7761    1.3672 H   0  0  0  0  0  0  0  0  0  0  0  0
   -6.0955    4.4979    1.3219 H   0  0  0  0  0  0  0  0  0  0  0  0
   -8.1154    4.1706   -0.0581 H   0  0  0  0  0  0  0  0  0  0  0  0
   -8.3603    2.1155   -1.4020 H   0  0  0  0  0  0  0  0  0  0  0  0
   -6.5986    0.4045   -1.3726 H   0  0  0  0  0  0  0  0  0  0  0  0
   -2.6787    1.8345   -0.1297 H   0  0  0  0  0  0  0  0  0  0  0  0
   -0.3280    1.2173   -0.1033 H   0  0  0  0  0  0  0  0  0  0  0  0
    3.9099    2.3599    0.1160 H   0  0  0  0  0  0  0  0  0  0  0  0
    6.2525    2.9982    0.0826 H   0  0  0  0  0  0  0  0  0  0  0  0
  1  2  1  0  0  0  0
  2  3  1  0  0  0  0
  2  4  1  0  0  0  0
  4  5  2  0  0  0  0
  5  6  1  0  0  0  0
  6  7  2  0  0  0  0
  7  8  1  0  0  0  0
  8  9  3  0  0  0  0
  9 10  1  0  0  0  0
 10 11  2  0  0  0  0
 11 12  1  0  0  0  0
 12 13  2  0  0  0  0
 13 14  1  0  0  0  0
 14 15  1  0  0  0  0
 15 16  1  0  0  0  0
 15 17  1  0  0  0  0
 14 18  2  0  0  0  0
 18 19  1  0  0  0  0
 19 20  1  0  0  0  0
 20 21  2  0  0  0  0
 21 22  1  0  0  0  0
 22 23  2  0  0  0  0
 23 24  1  0  0  0  0
 24 25  2  0  0  0  0
 19 26  2  0  0  0  0
 26 27  1  0  0  0  0
 27 28  2  0  0  0  0
  7 29  1  0  0  0  0
 29 30  2  0  0  0  0
 30  4  1  0  0  0  0
 28 10  1  0  0  0  0
 27 13  1  0  0  0  0
 25 20  1  0  0  0  0
  1 31  1  0  0  0  0
  1 32  1  0  0  0  0
  1 33  1  0  0  0  0
  3 34  1  0  0  0  0
  3 35  1  0  0  0  0
  3 36  1  0  0  0  0
  5 37  1  0  0  0  0
  6 38  1  0  0  0  0
 11 39  1  0  0  0  0
 12 40  1  0  0  0  0
 16 41  1  0  0  0  0
 16 42  1  0  0  0  0
 16 43  1  0  0  0  0
 17 44  1  0  0  0  0
 17 45  1  0  0  0  0
 17 46  1  0  0  0  0
 18 47  1  0  0  0  0
 21 48  1  0  0  0  0
 22 49  1  0  0  0  0
 23 50  1  0  0  0  0
 24 51  1  0  0  0  0
 25 52  1  0  0  0  0
 26 53  1  0  0  0  0
 28 54  1  0  0  0  0
 29 55  1  0  0  0  0
 30 56  1  0  0  0  0
M  END
