
  xtb     03022215543D
 energy: -51.001069573401 gnorm: 0.000165349218 xtb: 6.4.1 (afa7bdf)
 28 30  0     0  0            999 V2000
   -5.4388   -0.6264    0.0861 C   0  0  0  0  0  0  0  0  0  0  0  0
   -4.6204    0.4684   -0.2570 O   0  0  0  0  0  0  0  0  0  0  0  0
   -3.2796    0.3376   -0.1584 C   0  0  0  0  0  0  0  0  0  0  0  0
   -2.5256    1.4686   -0.5107 C   0  0  0  0  0  0  0  0  0  0  0  0
   -1.1600    1.4311   -0.4401 C   0  0  0  0  0  0  0  0  0  0  0  0
   -0.4816    0.2755   -0.0191 C   0  0  0  0  0  0  0  0  0  0  0  0
    0.9549    0.3270    0.0287 C   0  0  0  0  0  0  0  0  0  0  0  0
    1.6717    1.3591   -0.2885 N   0  0  0  0  0  0  0  0  0  0  0  0
    2.9699    0.9836   -0.0986 C   0  0  0  0  0  0  0  0  0  0  0  0
    4.0671    1.6963   -0.2880 N   0  0  0  0  0  0  0  0  0  0  0  0
    5.2000    1.0745   -0.0209 C   0  0  0  0  0  0  0  0  0  0  0  0
    5.3051   -0.2405    0.4321 C   0  0  0  0  0  0  0  0  0  0  0  0
    4.1632   -1.0034    0.6362 C   0  0  0  0  0  0  0  0  0  0  0  0
    2.9790   -0.3588    0.3589 C   0  0  0  0  0  0  0  0  0  0  0  0
    1.6878   -0.7699    0.4368 O   0  0  0  0  0  0  0  0  0  0  0  0
   -1.2361   -0.8568    0.3312 C   0  0  0  0  0  0  0  0  0  0  0  0
   -0.6960   -2.0204    0.7469 O   0  0  0  0  0  0  0  0  0  0  0  0
   -2.6261   -0.8120    0.2575 C   0  0  0  0  0  0  0  0  0  0  0  0
   -6.4621   -0.2873   -0.0656 H   0  0  0  0  0  0  0  0  0  0  0  0
   -5.3031   -0.9143    1.1328 H   0  0  0  0  0  0  0  0  0  0  0  0
   -5.2430   -1.4890   -0.5577 H   0  0  0  0  0  0  0  0  0  0  0  0
   -3.0492    2.3533   -0.8326 H   0  0  0  0  0  0  0  0  0  0  0  0
   -0.5619    2.2875   -0.7047 H   0  0  0  0  0  0  0  0  0  0  0  0
    6.0915    1.6661   -0.1788 H   0  0  0  0  0  0  0  0  0  0  0  0
    6.2779   -0.6640    0.6242 H   0  0  0  0  0  0  0  0  0  0  0  0
    4.2011   -2.0239    0.9858 H   0  0  0  0  0  0  0  0  0  0  0  0
    0.2700   -1.9546    0.7667 H   0  0  0  0  0  0  0  0  0  0  0  0
   -3.1558   -1.7075    0.5378 H   0  0  0  0  0  0  0  0  0  0  0  0
  1  2  1  0  0  0  0
  2  3  1  0  0  0  0
  3  4  2  0  0  0  0
  4  5  1  0  0  0  0
  5  6  2  0  0  0  0
  6  7  1  0  0  0  0
  7  8  2  0  0  0  0
  8  9  1  0  0  0  0
  9 10  2  0  0  0  0
 10 11  1  0  0  0  0
 11 12  2  0  0  0  0
 12 13  1  0  0  0  0
 13 14  2  0  0  0  0
 14 15  1  0  0  0  0
  6 16  1  0  0  0  0
 16 17  1  0  0  0  0
 16 18  2  0  0  0  0
 18  3  1  0  0  0  0
 15  7  1  0  0  0  0
 14  9  1  0  0  0  0
  1 19  1  0  0  0  0
  1 20  1  0  0  0  0
  1 21  1  0  0  0  0
  4 22  1  0  0  0  0
  5 23  1  0  0  0  0
 11 24  1  0  0  0  0
 12 25  1  0  0  0  0
 13 26  1  0  0  0  0
 17 27  1  0  0  0  0
 18 28  1  0  0  0  0
M  END
