
  xtb     03022212393D
 energy: -82.966833762009 gnorm: 0.000117224095 xtb: 6.4.1 (afa7bdf)
 60 62  0     0  0            999 V2000
   -9.8672   -1.4156    2.4648 C   0  0  0  0  0  0  0  0  0  0  0  0
   -9.8185   -0.9640    1.0971 N   0  0  0  0  0  0  0  0  0  0  0  0
  -11.0582   -0.7051    0.4088 C   0  0  0  0  0  0  0  0  0  0  0  0
   -8.6190   -0.7580    0.4722 C   0  0  0  0  0  0  0  0  0  0  0  0
   -8.5486   -0.4401   -0.8941 C   0  0  0  0  0  0  0  0  0  0  0  0
   -7.3390   -0.2340   -1.5129 C   0  0  0  0  0  0  0  0  0  0  0  0
   -6.1243   -0.3293   -0.8221 C   0  0  0  0  0  0  0  0  0  0  0  0
   -4.8898   -0.0976   -1.5233 C   0  0  0  0  0  0  0  0  0  0  0  0
   -3.6407   -0.1440   -1.0114 C   0  0  0  0  0  0  0  0  0  0  0  0
   -2.4766    0.1101   -1.7912 C   0  0  0  0  0  0  0  0  0  0  0  0
   -1.2064    0.0872   -1.3328 C   0  0  0  0  0  0  0  0  0  0  0  0
   -0.7517   -0.2064    0.0670 C   0  0  0  0  0  0  0  0  0  0  0  0
    0.7830   -0.1001    0.0455 C   0  0  0  0  0  0  0  0  0  0  0  0
    1.1527    0.2647   -1.3626 C   0  0  0  0  0  0  0  0  0  0  0  0
    2.3927    0.4821   -1.8515 C   0  0  0  0  0  0  0  0  0  0  0  0
    3.6010    0.4063   -1.1014 C   0  0  0  0  0  0  0  0  0  0  0  0
    4.8152    0.6456   -1.6421 C   0  0  0  0  0  0  0  0  0  0  0  0
    6.0871    0.6045   -0.9708 C   0  0  0  0  0  0  0  0  0  0  0  0
    6.2431    0.2894    0.3843 C   0  0  0  0  0  0  0  0  0  0  0  0
    7.4788    0.2715    0.9854 C   0  0  0  0  0  0  0  0  0  0  0  0
    8.6486    0.5672    0.2655 C   0  0  0  0  0  0  0  0  0  0  0  0
    9.8832    0.5273    0.8592 N   0  0  0  0  0  0  0  0  0  0  0  0
    9.9940    0.3488    2.2860 C   0  0  0  0  0  0  0  0  0  0  0  0
   11.0509    0.9561    0.1297 C   0  0  0  0  0  0  0  0  0  0  0  0
    8.4958    0.8839   -1.0942 C   0  0  0  0  0  0  0  0  0  0  0  0
    7.2551    0.8981   -1.6854 C   0  0  0  0  0  0  0  0  0  0  0  0
   -0.0522    0.3688   -2.1929 C   0  0  0  0  0  0  0  0  0  0  0  0
   -0.0878    0.6432   -3.3834 O   0  0  0  0  0  0  0  0  0  0  0  0
   -6.1988   -0.6490    0.5390 C   0  0  0  0  0  0  0  0  0  0  0  0
   -7.4025   -0.8567    1.1685 C   0  0  0  0  0  0  0  0  0  0  0  0
   -9.2415   -2.3011    2.6027 H   0  0  0  0  0  0  0  0  0  0  0  0
   -9.5310   -0.6384    3.1607 H   0  0  0  0  0  0  0  0  0  0  0  0
  -10.8892   -1.6846    2.7219 H   0  0  0  0  0  0  0  0  0  0  0  0
  -11.0518    0.2907   -0.0423 H   0  0  0  0  0  0  0  0  0  0  0  0
  -11.8825   -0.7472    1.1170 H   0  0  0  0  0  0  0  0  0  0  0  0
  -11.2441   -1.4440   -0.3787 H   0  0  0  0  0  0  0  0  0  0  0  0
   -9.4483   -0.3629   -1.4826 H   0  0  0  0  0  0  0  0  0  0  0  0
   -7.3245    0.0068   -2.5669 H   0  0  0  0  0  0  0  0  0  0  0  0
   -4.9953    0.1417   -2.5754 H   0  0  0  0  0  0  0  0  0  0  0  0
   -3.4870   -0.3783    0.0323 H   0  0  0  0  0  0  0  0  0  0  0  0
   -2.6162    0.3448   -2.8395 H   0  0  0  0  0  0  0  0  0  0  0  0
   -1.1868    0.5094    0.7686 H   0  0  0  0  0  0  0  0  0  0  0  0
   -1.0748   -1.2040    0.3740 H   0  0  0  0  0  0  0  0  0  0  0  0
    1.2483   -1.0472    0.3292 H   0  0  0  0  0  0  0  0  0  0  0  0
    1.1364    0.6612    0.7450 H   0  0  0  0  0  0  0  0  0  0  0  0
    2.4688    0.7388   -2.9012 H   0  0  0  0  0  0  0  0  0  0  0  0
    3.5105    0.1477   -0.0561 H   0  0  0  0  0  0  0  0  0  0  0  0
    4.8576    0.9021   -2.6945 H   0  0  0  0  0  0  0  0  0  0  0  0
    5.3764    0.0550    0.9833 H   0  0  0  0  0  0  0  0  0  0  0  0
    7.5330    0.0237    2.0329 H   0  0  0  0  0  0  0  0  0  0  0  0
    9.5787   -0.6166    2.5865 H   0  0  0  0  0  0  0  0  0  0  0  0
   11.0425    0.3652    2.5736 H   0  0  0  0  0  0  0  0  0  0  0  0
    9.4741    1.1402    2.8379 H   0  0  0  0  0  0  0  0  0  0  0  0
   11.1924    0.3416   -0.7627 H   0  0  0  0  0  0  0  0  0  0  0  0
   11.9323    0.8420    0.7564 H   0  0  0  0  0  0  0  0  0  0  0  0
   10.9797    2.0063   -0.1762 H   0  0  0  0  0  0  0  0  0  0  0  0
    9.3546    1.1249   -1.6989 H   0  0  0  0  0  0  0  0  0  0  0  0
    7.1783    1.1483   -2.7345 H   0  0  0  0  0  0  0  0  0  0  0  0
   -5.2931   -0.7328    1.1201 H   0  0  0  0  0  0  0  0  0  0  0  0
   -7.3970   -1.0887    2.2212 H   0  0  0  0  0  0  0  0  0  0  0  0
  1  2  1  0  0  0  0
  2  3  1  0  0  0  0
  2  4  1  0  0  0  0
  4  5  2  0  0  0  0
  5  6  1  0  0  0  0
  6  7  2  0  0  0  0
  7  8  1  0  0  0  0
  8  9  2  0  0  0  0
  9 10  1  0  0  0  0
 10 11  2  0  0  0  0
 11 12  1  0  0  0  0
 12 13  1  0  0  0  0
 13 14  1  0  0  0  0
 14 15  2  0  0  0  0
 15 16  1  0  0  0  0
 16 17  2  0  0  0  0
 17 18  1  0  0  0  0
 18 19  2  0  0  0  0
 19 20  1  0  0  0  0
 20 21  2  0  0  0  0
 21 22  1  0  0  0  0
 22 23  1  0  0  0  0
 22 24  1  0  0  0  0
 21 25  1  0  0  0  0
 25 26  2  0  0  0  0
 14 27  1  0  0  0  0
 27 28  2  0  0  0  0
  7 29  1  0  0  0  0
 29 30  2  0  0  0  0
 30  4  1  0  0  0  0
 27 11  1  0  0  0  0
 26 18  1  0  0  0  0
  1 31  1  0  0  0  0
  1 32  1  0  0  0  0
  1 33  1  0  0  0  0
  3 34  1  0  0  0  0
  3 35  1  0  0  0  0
  3 36  1  0  0  0  0
  5 37  1  0  0  0  0
  6 38  1  0  0  0  0
  8 39  1  0  0  0  0
  9 40  1  0  0  0  0
 10 41  1  0  0  0  0
 12 42  1  0  0  0  0
 12 43  1  0  0  0  0
 13 44  1  0  0  0  0
 13 45  1  0  0  0  0
 15 46  1  0  0  0  0
 16 47  1  0  0  0  0
 17 48  1  0  0  0  0
 19 49  1  0  0  0  0
 20 50  1  0  0  0  0
 23 51  1  0  0  0  0
 23 52  1  0  0  0  0
 23 53  1  0  0  0  0
 24 54  1  0  0  0  0
 24 55  1  0  0  0  0
 24 56  1  0  0  0  0
 25 57  1  0  0  0  0
 26 58  1  0  0  0  0
 29 59  1  0  0  0  0
 30 60  1  0  0  0  0
M  END
