
  xtb     03022212393D
 energy: -99.847969427892 gnorm: 0.000152632001 xtb: 6.4.1 (afa7bdf)
 55 62  0     0  0            999 V2000
   -0.2902   -0.9779   -0.9646 F   0  0  0  0  0  0  0  0  0  0  0  0
   -0.2107   -0.0619    0.0597 B   0  0  0  0  0  4  0  0  0  0  0  0
   -0.0078   -0.6617    1.2825 F   0  0  0  0  0  0  0  0  0  0  0  0
    0.9836    0.8957   -0.2311 N   0  0  0  0  0  0  0  0  0  0  0  0
    0.8526    2.2511   -0.4163 C   0  0  0  0  0  0  0  0  0  0  0  0
    2.1287    2.7873   -0.7321 C   0  0  0  0  0  0  0  0  0  0  0  0
    3.0122    1.7450   -0.7205 C   0  0  0  0  0  0  0  0  0  0  0  0
    2.2764    0.5725   -0.4052 C   0  0  0  0  0  0  0  0  0  0  0  0
    2.8878   -0.7141   -0.3112 C   0  0  0  0  0  0  0  0  0  0  0  0
    4.1602   -0.8428   -0.5409 N   0  0  0  0  0  0  0  0  0  0  0  0
    4.5789   -2.1181   -0.4081 C   0  0  0  0  0  0  0  0  0  0  0  0
    5.8866   -2.5763   -0.5922 C   0  0  0  0  0  0  0  0  0  0  0  0
    6.1505   -3.9138   -0.4172 C   0  0  0  0  0  0  0  0  0  0  0  0
    5.1380   -4.8100   -0.0610 C   0  0  0  0  0  0  0  0  0  0  0  0
    3.8409   -4.3830    0.1262 C   0  0  0  0  0  0  0  0  0  0  0  0
    3.5578   -3.0351   -0.0476 C   0  0  0  0  0  0  0  0  0  0  0  0
    2.0494   -2.2062    0.1112 S   0  0  0  0  0  0  0  0  0  0  0  0
   -0.3809    2.8950   -0.3312 C   0  0  0  0  0  0  0  0  0  0  0  0
   -0.4683    4.3469   -0.5245 C   0  0  0  0  0  0  0  0  0  0  0  0
   -1.3416    4.8815   -1.4698 C   0  0  0  0  0  0  0  0  0  0  0  0
   -1.4152    6.2494   -1.6562 C   0  0  0  0  0  0  0  0  0  0  0  0
   -0.6303    7.1001   -0.8950 C   0  0  0  0  0  0  0  0  0  0  0  0
    0.2350    6.5763    0.0515 C   0  0  0  0  0  0  0  0  0  0  0  0
    0.3222    5.2087    0.2334 C   0  0  0  0  0  0  0  0  0  0  0  0
   -1.5375    2.1528   -0.0635 C   0  0  0  0  0  0  0  0  0  0  0  0
   -2.8709    2.5941    0.1153 C   0  0  0  0  0  0  0  0  0  0  0  0
   -3.6262    1.4813    0.3814 C   0  0  0  0  0  0  0  0  0  0  0  0
   -2.7527    0.3709    0.3725 C   0  0  0  0  0  0  0  0  0  0  0  0
   -3.1229   -0.9845    0.6056 C   0  0  0  0  0  0  0  0  0  0  0  0
   -2.3605   -2.0102    0.5994 N   0  0  0  0  0  0  0  0  0  0  0  0
   -3.0126   -3.1636    0.8541 C   0  0  0  0  0  0  0  0  0  0  0  0
   -2.4343   -4.4313    0.9104 C   0  0  0  0  0  0  0  0  0  0  0  0
   -3.2385   -5.5152    1.1811 C   0  0  0  0  0  0  0  0  0  0  0  0
   -4.6089   -5.3605    1.3969 C   0  0  0  0  0  0  0  0  0  0  0  0
   -5.2059   -4.1164    1.3474 C   0  0  0  0  0  0  0  0  0  0  0  0
   -4.4067   -3.0182    1.0762 C   0  0  0  0  0  0  0  0  0  0  0  0
   -4.8479   -1.3492    0.9477 S   0  0  0  0  0  0  0  0  0  0  0  0
   -1.5011    0.7939    0.1084 N   0  0  0  0  0  4  0  0  0  0  0  0
    2.3305    3.8173   -0.9508 H   0  0  0  0  0  0  0  0  0  0  0  0
    4.0659    1.7543   -0.9106 H   0  0  0  0  0  0  0  0  0  0  0  0
    6.6572   -1.8741   -0.8669 H   0  0  0  0  0  0  0  0  0  0  0  0
    7.1552   -4.2842   -0.5559 H   0  0  0  0  0  0  0  0  0  0  0  0
    5.3787   -5.8545    0.0688 H   0  0  0  0  0  0  0  0  0  0  0  0
    3.0587   -5.0733    0.4007 H   0  0  0  0  0  0  0  0  0  0  0  0
   -1.9389    4.2160   -2.0749 H   0  0  0  0  0  0  0  0  0  0  0  0
   -2.0873    6.6533   -2.3986 H   0  0  0  0  0  0  0  0  0  0  0  0
   -0.6927    8.1682   -1.0392 H   0  0  0  0  0  0  0  0  0  0  0  0
    0.8449    7.2361    0.6505 H   0  0  0  0  0  0  0  0  0  0  0  0
    0.9830    4.7994    0.9828 H   0  0  0  0  0  0  0  0  0  0  0  0
   -3.2025    3.6122    0.0631 H   0  0  0  0  0  0  0  0  0  0  0  0
   -4.6810    1.4328    0.5694 H   0  0  0  0  0  0  0  0  0  0  0  0
   -1.3744   -4.5257    0.7403 H   0  0  0  0  0  0  0  0  0  0  0  0
   -2.8071   -6.5038    1.2284 H   0  0  0  0  0  0  0  0  0  0  0  0
   -5.2145   -6.2294    1.6065 H   0  0  0  0  0  0  0  0  0  0  0  0
   -6.2651   -3.9967    1.5142 H   0  0  0  0  0  0  0  0  0  0  0  0
  1  2  1  0  0  0  0
  2  3  1  0  0  0  0
  2  4  1  0  0  0  0
  4  5  1  0  0  0  0
  5  6  2  0  0  0  0
  6  7  1  0  0  0  0
  7  8  2  0  0  0  0
  8  9  1  0  0  0  0
  9 10  2  0  0  0  0
 10 11  1  0  0  0  0
 11 12  2  0  0  0  0
 12 13  1  0  0  0  0
 13 14  2  0  0  0  0
 14 15  1  0  0  0  0
 15 16  2  0  0  0  0
 16 17  1  0  0  0  0
  5 18  1  0  0  0  0
 18 19  1  0  0  0  0
 19 20  2  0  0  0  0
 20 21  1  0  0  0  0
 21 22  2  0  0  0  0
 22 23  1  0  0  0  0
 23 24  2  0  0  0  0
 18 25  2  0  0  0  0
 25 26  1  0  0  0  0
 26 27  2  0  0  0  0
 27 28  1  0  0  0  0
 28 29  1  0  0  0  0
 29 30  2  0  0  0  0
 30 31  1  0  0  0  0
 31 32  2  0  0  0  0
 32 33  1  0  0  0  0
 33 34  2  0  0  0  0
 34 35  1  0  0  0  0
 35 36  2  0  0  0  0
 36 37  1  0  0  0  0
 28 38  2  0  0  0  0
 38  2  1  0  0  0  0
  8  4  1  0  0  0  0
 17  9  1  0  0  0  0
 24 19  1  0  0  0  0
 38 25  1  0  0  0  0
 16 11  1  0  0  0  0
 37 29  1  0  0  0  0
 36 31  1  0  0  0  0
  6 39  1  0  0  0  0
  7 40  1  0  0  0  0
 12 41  1  0  0  0  0
 13 42  1  0  0  0  0
 14 43  1  0  0  0  0
 15 44  1  0  0  0  0
 20 45  1  0  0  0  0
 21 46  1  0  0  0  0
 22 47  1  0  0  0  0
 23 48  1  0  0  0  0
 24 49  1  0  0  0  0
 26 50  1  0  0  0  0
 27 51  1  0  0  0  0
 32 52  1  0  0  0  0
 33 53  1  0  0  0  0
 34 54  1  0  0  0  0
 35 55  1  0  0  0  0
M  CHG  1   2  -1
M  CHG  1  38   1
M  END
