
  xtb     03022215333D
 energy: -138.935570568755 gnorm: 0.000173958025 xtb: 6.4.1 (afa7bdf)
 97103  0     0  0            999 V2000
    0.3924   -2.4946    2.9118 C   0  0  0  0  0  0  0  0  0  0  0  0
   -0.4007   -1.3300    3.4930 C   0  0  0  0  0  0  0  0  0  0  0  0
    0.3684   -0.0078    3.5643 C   0  0  0  0  0  0  0  0  0  0  0  0
    0.5271    0.7519    2.2296 C   0  0  0  0  0  0  0  0  0  0  0  0
    1.1254    2.1418    2.5379 C   0  0  0  0  0  0  0  0  0  0  0  0
    1.1659    3.1270    1.3664 C   0  0  0  0  0  0  0  0  0  0  0  0
    2.2706    2.8606    0.3505 C   0  0  0  0  0  0  0  0  0  0  0  0
    1.3654   -0.0147    1.2365 C   0  0  0  0  0  0  0  0  0  0  0  0
    2.6702   -0.4244    1.3466 C   0  0  0  0  0  0  0  0  0  0  0  0
    3.2782   -1.1160    0.2846 C   0  0  0  0  0  0  0  0  0  0  0  0
    4.6518   -1.5196    0.4395 C   0  0  0  0  0  0  0  0  0  0  0  0
    5.5356   -1.9037   -0.5201 C   0  0  0  0  0  0  0  0  0  0  0  0
    5.2929   -1.9257   -1.9084 C   0  0  0  0  0  0  0  0  0  0  0  0
    5.2089   -1.9430   -3.1151 C   0  0  0  0  0  0  0  0  0  0  0  0
    4.9998   -1.9382   -4.5088 C   0  0  0  0  0  0  0  0  0  0  0  0
    5.9558   -2.4818   -5.3693 C   0  0  0  0  0  0  0  0  0  0  0  0
    5.7412   -2.4719   -6.7333 C   0  0  0  0  0  0  0  0  0  0  0  0
    4.5795   -1.9231   -7.2541 C   0  0  0  0  0  0  0  0  0  0  0  0
    3.6277   -1.3812   -6.4043 C   0  0  0  0  0  0  0  0  0  0  0  0
    3.8308   -1.3857   -5.0386 C   0  0  0  0  0  0  0  0  0  0  0  0
    6.8467   -2.2868   -0.1595 C   0  0  0  0  0  0  0  0  0  0  0  0
    7.9712   -2.6279    0.1228 C   0  0  0  0  0  0  0  0  0  0  0  0
    9.2792   -3.0238    0.4688 C   0  0  0  0  0  0  0  0  0  0  0  0
    9.6646   -3.0937    1.8095 C   0  0  0  0  0  0  0  0  0  0  0  0
   10.9473   -3.4836    2.1401 C   0  0  0  0  0  0  0  0  0  0  0  0
   11.8575   -3.8068    1.1457 C   0  0  0  0  0  0  0  0  0  0  0  0
   11.4803   -3.7390   -0.1866 C   0  0  0  0  0  0  0  0  0  0  0  0
   10.2003   -3.3507   -0.5290 C   0  0  0  0  0  0  0  0  0  0  0  0
    2.5200   -1.4009   -0.8597 C   0  0  0  0  0  0  0  0  0  0  0  0
    1.2026   -1.0035   -0.9683 C   0  0  0  0  0  0  0  0  0  0  0  0
    0.6206   -0.3017    0.0777 C   0  0  0  0  0  0  0  0  0  0  0  0
   -0.7107    0.2385    0.2407 C   0  0  0  0  0  0  0  0  0  0  0  0
   -1.8114    0.2298   -0.6040 C   0  0  0  0  0  0  0  0  0  0  0  0
   -2.9795    0.8375   -0.1917 C   0  0  0  0  0  0  0  0  0  0  0  0
   -3.0764    1.4649    1.0585 C   0  0  0  0  0  0  0  0  0  0  0  0
   -4.2681    2.1270    1.5205 C   0  0  0  0  0  0  0  0  0  0  0  0
   -5.5325    2.0565    1.0236 C   0  0  0  0  0  0  0  0  0  0  0  0
   -5.9670    1.2464   -0.0446 C   0  0  0  0  0  0  0  0  0  0  0  0
   -6.4644    0.5732   -0.9183 C   0  0  0  0  0  0  0  0  0  0  0  0
   -6.9376   -0.2462   -1.9628 C   0  0  0  0  0  0  0  0  0  0  0  0
   -6.1023   -1.2127   -2.5290 C   0  0  0  0  0  0  0  0  0  0  0  0
   -6.5689   -2.0139   -3.5519 C   0  0  0  0  0  0  0  0  0  0  0  0
   -7.8648   -1.8641   -4.0212 C   0  0  0  0  0  0  0  0  0  0  0  0
   -8.6977   -0.9072   -3.4624 C   0  0  0  0  0  0  0  0  0  0  0  0
   -8.2424   -0.1001   -2.4386 C   0  0  0  0  0  0  0  0  0  0  0  0
   -6.5628    2.8234    1.6123 C   0  0  0  0  0  0  0  0  0  0  0  0
   -7.4613    3.4792    2.0848 C   0  0  0  0  0  0  0  0  0  0  0  0
   -8.4991    4.2529    2.6427 C   0  0  0  0  0  0  0  0  0  0  0  0
   -8.2361    5.1401    3.6890 C   0  0  0  0  0  0  0  0  0  0  0  0
   -9.2583    5.8972    4.2259 C   0  0  0  0  0  0  0  0  0  0  0  0
  -10.5480    5.7814    3.7310 C   0  0  0  0  0  0  0  0  0  0  0  0
  -10.8149    4.9020    2.6930 C   0  0  0  0  0  0  0  0  0  0  0  0
   -9.8006    4.1398    2.1482 C   0  0  0  0  0  0  0  0  0  0  0  0
   -1.9487    1.4781    1.8988 C   0  0  0  0  0  0  0  0  0  0  0  0
   -0.7887    0.8660    1.4966 C   0  0  0  0  0  0  0  0  0  0  0  0
    0.5976   -2.3486    1.8559 H   0  0  0  0  0  0  0  0  0  0  0  0
   -0.1723   -3.4182    3.0225 H   0  0  0  0  0  0  0  0  0  0  0  0
    1.3405   -2.6099    3.4333 H   0  0  0  0  0  0  0  0  0  0  0  0
   -0.6958   -1.5930    4.5126 H   0  0  0  0  0  0  0  0  0  0  0  0
   -1.3160   -1.1886    2.9146 H   0  0  0  0  0  0  0  0  0  0  0  0
   -0.1628    0.6507    4.2564 H   0  0  0  0  0  0  0  0  0  0  0  0
    1.3609   -0.1915    3.9818 H   0  0  0  0  0  0  0  0  0  0  0  0
    0.5218    2.5907    3.3310 H   0  0  0  0  0  0  0  0  0  0  0  0
    2.1362    2.0081    2.9298 H   0  0  0  0  0  0  0  0  0  0  0  0
    1.3197    4.1259    1.7840 H   0  0  0  0  0  0  0  0  0  0  0  0
    0.1988    3.1305    0.8593 H   0  0  0  0  0  0  0  0  0  0  0  0
    2.0907    1.9439   -0.2022 H   0  0  0  0  0  0  0  0  0  0  0  0
    3.2356    2.7783    0.8467 H   0  0  0  0  0  0  0  0  0  0  0  0
    2.3228    3.6809   -0.3625 H   0  0  0  0  0  0  0  0  0  0  0  0
    3.2450   -0.2093    2.2366 H   0  0  0  0  0  0  0  0  0  0  0  0
    5.0332   -1.4881    1.4537 H   0  0  0  0  0  0  0  0  0  0  0  0
    6.8585   -2.9081   -4.9560 H   0  0  0  0  0  0  0  0  0  0  0  0
    6.4828   -2.8934   -7.3964 H   0  0  0  0  0  0  0  0  0  0  0  0
    4.4164   -1.9170   -8.3217 H   0  0  0  0  0  0  0  0  0  0  0  0
    2.7230   -0.9527   -6.8109 H   0  0  0  0  0  0  0  0  0  0  0  0
    3.0950   -0.9616   -4.3704 H   0  0  0  0  0  0  0  0  0  0  0  0
    8.9504   -2.8411    2.5799 H   0  0  0  0  0  0  0  0  0  0  0  0
   11.2413   -3.5369    3.1784 H   0  0  0  0  0  0  0  0  0  0  0  0
   12.8597   -4.1113    1.4089 H   0  0  0  0  0  0  0  0  0  0  0  0
   12.1901   -3.9910   -0.9614 H   0  0  0  0  0  0  0  0  0  0  0  0
    9.8992   -3.2953   -1.5652 H   0  0  0  0  0  0  0  0  0  0  0  0
    2.9727   -1.9617   -1.6616 H   0  0  0  0  0  0  0  0  0  0  0  0
    0.6334   -1.2408   -1.8553 H   0  0  0  0  0  0  0  0  0  0  0  0
   -1.7553   -0.2403   -1.5750 H   0  0  0  0  0  0  0  0  0  0  0  0
   -3.8327    0.8504   -0.8506 H   0  0  0  0  0  0  0  0  0  0  0  0
   -4.1367    2.7574    2.3927 H   0  0  0  0  0  0  0  0  0  0  0  0
   -5.0945   -1.3269   -2.1560 H   0  0  0  0  0  0  0  0  0  0  0  0
   -5.9205   -2.7607   -3.9870 H   0  0  0  0  0  0  0  0  0  0  0  0
   -8.2255   -2.4934   -4.8214 H   0  0  0  0  0  0  0  0  0  0  0  0
   -9.7077   -0.7915   -3.8282 H   0  0  0  0  0  0  0  0  0  0  0  0
   -8.8856    0.6481   -1.9985 H   0  0  0  0  0  0  0  0  0  0  0  0
   -7.2286    5.2265    4.0699 H   0  0  0  0  0  0  0  0  0  0  0  0
   -9.0507    6.5828    5.0348 H   0  0  0  0  0  0  0  0  0  0  0  0
  -11.3444    6.3760    4.1537 H   0  0  0  0  0  0  0  0  0  0  0  0
  -11.8202    4.8118    2.3076 H   0  0  0  0  0  0  0  0  0  0  0  0
  -10.0006    3.4524    1.3390 H   0  0  0  0  0  0  0  0  0  0  0  0
   -2.0106    1.9657    2.8619 H   0  0  0  0  0  0  0  0  0  0  0  0
  1  2  1  0  0  0  0
  2  3  1  0  0  0  0
  3  4  1  0  0  0  0
  4  5  1  0  0  0  0
  5  6  1  0  0  0  0
  6  7  1  0  0  0  0
  4  8  1  0  0  0  0
  8  9  2  0  0  0  0
  9 10  1  0  0  0  0
 10 11  1  0  0  0  0
 11 12  2  0  0  0  0
 12 13  1  0  0  0  0
 13 14  3  0  0  0  0
 14 15  1  0  0  0  0
 15 16  2  0  0  0  0
 16 17  1  0  0  0  0
 17 18  2  0  0  0  0
 18 19  1  0  0  0  0
 19 20  2  0  0  0  0
 12 21  1  0  0  0  0
 21 22  3  0  0  0  0
 22 23  1  0  0  0  0
 23 24  2  0  0  0  0
 24 25  1  0  0  0  0
 25 26  2  0  0  0  0
 26 27  1  0  0  0  0
 27 28  2  0  0  0  0
 10 29  2  0  0  0  0
 29 30  1  0  0  0  0
 30 31  2  0  0  0  0
 31 32  1  0  0  0  0
 32 33  2  0  0  0  0
 33 34  1  0  0  0  0
 34 35  2  0  0  0  0
 35 36  1  0  0  0  0
 36 37  2  0  0  0  0
 37 38  1  0  0  0  0
 38 39  3  0  0  0  0
 39 40  1  0  0  0  0
 40 41  2  0  0  0  0
 41 42  1  0  0  0  0
 42 43  2  0  0  0  0
 43 44  1  0  0  0  0
 44 45  2  0  0  0  0
 37 46  1  0  0  0  0
 46 47  3  0  0  0  0
 47 48  1  0  0  0  0
 48 49  2  0  0  0  0
 49 50  1  0  0  0  0
 50 51  2  0  0  0  0
 51 52  1  0  0  0  0
 52 53  2  0  0  0  0
 35 54  1  0  0  0  0
 54 55  2  0  0  0  0
 55  4  1  0  0  0  0
 31  8  1  0  0  0  0
 55 32  1  0  0  0  0
 20 15  1  0  0  0  0
 28 23  1  0  0  0  0
 45 40  1  0  0  0  0
 53 48  1  0  0  0  0
  1 56  1  0  0  0  0
  1 57  1  0  0  0  0
  1 58  1  0  0  0  0
  2 59  1  0  0  0  0
  2 60  1  0  0  0  0
  3 61  1  0  0  0  0
  3 62  1  0  0  0  0
  5 63  1  0  0  0  0
  5 64  1  0  0  0  0
  6 65  1  0  0  0  0
  6 66  1  0  0  0  0
  7 67  1  0  0  0  0
  7 68  1  0  0  0  0
  7 69  1  0  0  0  0
  9 70  1  0  0  0  0
 11 71  1  0  0  0  0
 16 72  1  0  0  0  0
 17 73  1  0  0  0  0
 18 74  1  0  0  0  0
 19 75  1  0  0  0  0
 20 76  1  0  0  0  0
 24 77  1  0  0  0  0
 25 78  1  0  0  0  0
 26 79  1  0  0  0  0
 27 80  1  0  0  0  0
 28 81  1  0  0  0  0
 29 82  1  0  0  0  0
 30 83  1  0  0  0  0
 33 84  1  0  0  0  0
 34 85  1  0  0  0  0
 36 86  1  0  0  0  0
 41 87  1  0  0  0  0
 42 88  1  0  0  0  0
 43 89  1  0  0  0  0
 44 90  1  0  0  0  0
 45 91  1  0  0  0  0
 49 92  1  0  0  0  0
 50 93  1  0  0  0  0
 51 94  1  0  0  0  0
 52 95  1  0  0  0  0
 53 96  1  0  0  0  0
 54 97  1  0  0  0  0
M  END
