
  xtb     03022215413D
 energy: -30.766755949668 gnorm: 0.000121222370 xtb: 6.4.1 (afa7bdf)
 22 23  0     0  0            999 V2000
    3.5130    0.1060   -0.2639 C   0  0  0  0  0  0  0  0  0  0  0  0
    2.8884   -1.0095    0.2682 C   0  0  0  0  0  0  0  0  0  0  0  0
    1.5106   -1.0509    0.3742 C   0  0  0  0  0  0  0  0  0  0  0  0
    0.7331    0.0221   -0.0550 C   0  0  0  0  0  0  0  0  0  0  0  0
   -0.7331   -0.0221    0.0551 C   0  0  0  0  0  0  0  0  0  0  0  0
   -1.3448   -0.5392    1.1947 C   0  0  0  0  0  0  0  0  0  0  0  0
   -2.7228   -0.5783    1.2983 C   0  0  0  0  0  0  0  0  0  0  0  0
   -3.5130   -0.1061    0.2638 C   0  0  0  0  0  0  0  0  0  0  0  0
   -2.9158    0.4081   -0.8748 C   0  0  0  0  0  0  0  0  0  0  0  0
   -1.5379    0.4522   -0.9782 C   0  0  0  0  0  0  0  0  0  0  0  0
    1.3721    1.1380   -0.5907 C   0  0  0  0  0  0  0  0  0  0  0  0
    2.7502    1.1797   -0.6917 C   0  0  0  0  0  0  0  0  0  0  0  0
    4.5896    0.1385   -0.3448 H   0  0  0  0  0  0  0  0  0  0  0  0
    3.4780   -1.8518    0.6006 H   0  0  0  0  0  0  0  0  0  0  0  0
    1.0285   -1.9310    0.7748 H   0  0  0  0  0  0  0  0  0  0  0  0
   -0.7339   -0.8938    2.0124 H   0  0  0  0  0  0  0  0  0  0  0  0
   -3.1829   -0.9775    2.1908 H   0  0  0  0  0  0  0  0  0  0  0  0
   -4.5895   -0.1386    0.3447 H   0  0  0  0  0  0  0  0  0  0  0  0
   -3.5270    0.7749   -1.6869 H   0  0  0  0  0  0  0  0  0  0  0  0
   -1.0782    0.8391   -1.8762 H   0  0  0  0  0  0  0  0  0  0  0  0
    0.7836    1.9858   -0.9108 H   0  0  0  0  0  0  0  0  0  0  0  0
    3.2320    2.0543   -1.1046 H   0  0  0  0  0  0  0  0  0  0  0  0
  1  2  2  0  0  0  0
  2  3  1  0  0  0  0
  3  4  2  0  0  0  0
  4  5  1  0  0  0  0
  5  6  2  0  0  0  0
  6  7  1  0  0  0  0
  7  8  2  0  0  0  0
  8  9  1  0  0  0  0
  9 10  2  0  0  0  0
  4 11  1  0  0  0  0
 11 12  2  0  0  0  0
 12  1  1  0  0  0  0
 10  5  1  0  0  0  0
  1 13  1  0  0  0  0
  2 14  1  0  0  0  0
  3 15  1  0  0  0  0
  6 16  1  0  0  0  0
  7 17  1  0  0  0  0
  8 18  1  0  0  0  0
  9 19  1  0  0  0  0
 10 20  1  0  0  0  0
 11 21  1  0  0  0  0
 12 22  1  0  0  0  0
M  END
