
  xtb     03022213053D
 energy: -110.078716080571 gnorm: 0.000070011651 xtb: 6.4.1 (afa7bdf)
 74 80  0     0  0            999 V2000
   -0.5274    3.7623    4.3024 C   0  0  0  0  0  0  0  0  0  0  0  0
   -0.9785    2.3101    4.4335 C   0  0  0  0  0  0  0  0  0  0  0  0
   -1.5345    1.8001    3.2412 O   0  0  0  0  0  0  0  0  0  0  0  0
   -0.7192    1.5145    2.1801 C   0  0  0  0  0  0  0  0  0  0  0  0
    0.6648    1.4756    2.2226 C   0  0  0  0  0  0  0  0  0  0  0  0
    1.4229    1.0930    1.1173 C   0  0  0  0  0  0  0  0  0  0  0  0
    2.8724    1.0550    1.2270 C   0  0  0  0  0  0  0  0  0  0  0  0
    3.7128    0.1070    0.7714 C   0  0  0  0  0  0  0  0  0  0  0  0
    3.4289   -1.2048    0.1876 C   0  0  0  0  0  0  0  0  0  0  0  0
    2.2514   -1.9246    0.0775 C   0  0  0  0  0  0  0  0  0  0  0  0
    2.2833   -3.1731   -0.5275 C   0  0  0  0  0  0  0  0  0  0  0  0
    3.4694   -3.7117   -1.0024 C   0  0  0  0  0  0  0  0  0  0  0  0
    4.6648   -3.0253   -0.8511 C   0  0  0  0  0  0  0  0  0  0  0  0
    4.6422   -1.7815   -0.2482 C   0  0  0  0  0  0  0  0  0  0  0  0
    5.7273   -0.8768    0.0925 C   0  0  0  0  0  0  0  0  0  0  0  0
    7.0916   -0.9741   -0.1086 C   0  0  0  0  0  0  0  0  0  0  0  0
    7.9057    0.0493    0.3534 C   0  0  0  0  0  0  0  0  0  0  0  0
    7.3630    1.1496    1.0002 C   0  0  0  0  0  0  0  0  0  0  0  0
    5.9941    1.2583    1.1974 C   0  0  0  0  0  0  0  0  0  0  0  0
    5.1718    0.2418    0.7464 C   0  0  0  0  0  0  0  0  0  0  0  0
    0.7694    0.8325   -0.1022 C   0  0  0  0  0  0  0  0  0  0  0  0
    1.5585    0.5732   -1.1791 O   0  0  0  0  0  0  0  0  0  0  0  0
    0.9621    0.1004   -2.3682 C   0  0  0  0  0  0  0  0  0  0  0  0
    2.0825   -0.3631   -3.2863 C   0  0  0  0  0  0  0  0  0  0  0  0
   -0.6128    0.8945   -0.1488 C   0  0  0  0  0  0  0  0  0  0  0  0
   -1.3747    1.1878    0.9789 C   0  0  0  0  0  0  0  0  0  0  0  0
   -2.8291    1.1925    0.9304 C   0  0  0  0  0  0  0  0  0  0  0  0
   -3.5852    0.3540    0.2071 C   0  0  0  0  0  0  0  0  0  0  0  0
   -5.0522    0.4605    0.2153 C   0  0  0  0  0  0  0  0  0  0  0  0
   -5.7197    0.4950    1.4361 C   0  0  0  0  0  0  0  0  0  0  0  0
   -7.0920    0.6383    1.4951 C   0  0  0  0  0  0  0  0  0  0  0  0
   -7.8197    0.7652    0.3214 C   0  0  0  0  0  0  0  0  0  0  0  0
   -7.1682    0.7421   -0.8939 C   0  0  0  0  0  0  0  0  0  0  0  0
   -5.7834    0.5695   -0.9759 C   0  0  0  0  0  0  0  0  0  0  0  0
   -5.1758    0.5563   -2.2941 C   0  0  0  0  0  0  0  0  0  0  0  0
   -4.0755   -0.0959   -2.6939 C   0  0  0  0  0  0  0  0  0  0  0  0
   -3.2266   -0.9659   -1.9028 C   0  0  0  0  0  0  0  0  0  0  0  0
   -2.5607   -2.0122   -2.5487 C   0  0  0  0  0  0  0  0  0  0  0  0
   -1.7665   -2.8971   -1.8501 C   0  0  0  0  0  0  0  0  0  0  0  0
   -1.6170   -2.7526   -0.4782 C   0  0  0  0  0  0  0  0  0  0  0  0
   -2.2346   -1.7024    0.1701 C   0  0  0  0  0  0  0  0  0  0  0  0
   -3.0226   -0.7907   -0.5280 C   0  0  0  0  0  0  0  0  0  0  0  0
   -1.3662    4.3824    3.9960 H   0  0  0  0  0  0  0  0  0  0  0  0
    0.2589    3.8574    3.5575 H   0  0  0  0  0  0  0  0  0  0  0  0
   -0.1547    4.1188    5.2588 H   0  0  0  0  0  0  0  0  0  0  0  0
   -1.7932    2.2396    5.1601 H   0  0  0  0  0  0  0  0  0  0  0  0
   -0.1539    1.6757    4.7826 H   0  0  0  0  0  0  0  0  0  0  0  0
    1.1978    1.6960    3.1349 H   0  0  0  0  0  0  0  0  0  0  0  0
    3.3094    1.9078    1.7352 H   0  0  0  0  0  0  0  0  0  0  0  0
    1.3200   -1.5386    0.4629 H   0  0  0  0  0  0  0  0  0  0  0  0
    1.3673   -3.7366   -0.6310 H   0  0  0  0  0  0  0  0  0  0  0  0
    3.4640   -4.6823   -1.4774 H   0  0  0  0  0  0  0  0  0  0  0  0
    5.5940   -3.4587   -1.1911 H   0  0  0  0  0  0  0  0  0  0  0  0
    7.5178   -1.8281   -0.6145 H   0  0  0  0  0  0  0  0  0  0  0  0
    8.9748   -0.0099    0.2087 H   0  0  0  0  0  0  0  0  0  0  0  0
    8.0165    1.9341    1.3540 H   0  0  0  0  0  0  0  0  0  0  0  0
    5.5885    2.1241    1.7005 H   0  0  0  0  0  0  0  0  0  0  0  0
    0.3835    0.9030   -2.8488 H   0  0  0  0  0  0  0  0  0  0  0  0
    0.2837   -0.7353   -2.1467 H   0  0  0  0  0  0  0  0  0  0  0  0
    2.6382   -1.1671   -2.8115 H   0  0  0  0  0  0  0  0  0  0  0  0
    1.6684   -0.7176   -4.2259 H   0  0  0  0  0  0  0  0  0  0  0  0
    2.7649    0.4595   -3.4816 H   0  0  0  0  0  0  0  0  0  0  0  0
   -1.1302    0.7286   -1.0787 H   0  0  0  0  0  0  0  0  0  0  0  0
   -3.3129    1.9438    1.5403 H   0  0  0  0  0  0  0  0  0  0  0  0
   -5.1430    0.4048    2.3452 H   0  0  0  0  0  0  0  0  0  0  0  0
   -7.5937    0.6616    2.4512 H   0  0  0  0  0  0  0  0  0  0  0  0
   -8.8923    0.8872    0.3576 H   0  0  0  0  0  0  0  0  0  0  0  0
   -7.7355    0.8436   -1.8086 H   0  0  0  0  0  0  0  0  0  0  0  0
   -5.7450    1.0851   -3.0499 H   0  0  0  0  0  0  0  0  0  0  0  0
   -3.8219   -0.0558   -3.7470 H   0  0  0  0  0  0  0  0  0  0  0  0
   -2.6898   -2.1324   -3.6154 H   0  0  0  0  0  0  0  0  0  0  0  0
   -1.2662   -3.7005   -2.3710 H   0  0  0  0  0  0  0  0  0  0  0  0
   -1.0113   -3.4495    0.0818 H   0  0  0  0  0  0  0  0  0  0  0  0
   -2.1016   -1.5668    1.2334 H   0  0  0  0  0  0  0  0  0  0  0  0
  1  2  1  0  0  0  0
  2  3  1  0  0  0  0
  3  4  1  0  0  0  0
  4  5  2  0  0  0  0
  5  6  1  0  0  0  0
  6  7  1  0  0  0  0
  7  8  2  0  0  0  0
  8  9  1  0  0  0  0
  9 10  2  0  0  0  0
 10 11  1  0  0  0  0
 11 12  2  0  0  0  0
 12 13  1  0  0  0  0
 13 14  2  0  0  0  0
 14 15  1  0  0  0  0
 15 16  2  0  0  0  0
 16 17  1  0  0  0  0
 17 18  2  0  0  0  0
 18 19  1  0  0  0  0
 19 20  2  0  0  0  0
  6 21  2  0  0  0  0
 21 22  1  0  0  0  0
 22 23  1  0  0  0  0
 23 24  1  0  0  0  0
 21 25  1  0  0  0  0
 25 26  2  0  0  0  0
 26 27  1  0  0  0  0
 27 28  2  0  0  0  0
 28 29  1  0  0  0  0
 29 30  2  0  0  0  0
 30 31  1  0  0  0  0
 31 32  2  0  0  0  0
 32 33  1  0  0  0  0
 33 34  2  0  0  0  0
 34 35  1  0  0  0  0
 35 36  2  0  0  0  0
 36 37  1  0  0  0  0
 37 38  2  0  0  0  0
 38 39  1  0  0  0  0
 39 40  2  0  0  0  0
 40 41  1  0  0  0  0
 41 42  2  0  0  0  0
 26  4  1  0  0  0  0
 42 28  1  0  0  0  0
 20  8  1  0  0  0  0
 34 29  1  0  0  0  0
 42 37  1  0  0  0  0
 14  9  1  0  0  0  0
 20 15  1  0  0  0  0
  1 43  1  0  0  0  0
  1 44  1  0  0  0  0
  1 45  1  0  0  0  0
  2 46  1  0  0  0  0
  2 47  1  0  0  0  0
  5 48  1  0  0  0  0
  7 49  1  0  0  0  0
 10 50  1  0  0  0  0
 11 51  1  0  0  0  0
 12 52  1  0  0  0  0
 13 53  1  0  0  0  0
 16 54  1  0  0  0  0
 17 55  1  0  0  0  0
 18 56  1  0  0  0  0
 19 57  1  0  0  0  0
 23 58  1  0  0  0  0
 23 59  1  0  0  0  0
 24 60  1  0  0  0  0
 24 61  1  0  0  0  0
 24 62  1  0  0  0  0
 25 63  1  0  0  0  0
 27 64  1  0  0  0  0
 30 65  1  0  0  0  0
 31 66  1  0  0  0  0
 32 67  1  0  0  0  0
 33 68  1  0  0  0  0
 35 69  1  0  0  0  0
 36 70  1  0  0  0  0
 38 71  1  0  0  0  0
 39 72  1  0  0  0  0
 40 73  1  0  0  0  0
 41 74  1  0  0  0  0
M  END
