
  xtb     03022215083D
 energy: -93.989385032991 gnorm: 0.000385732031 xtb: 6.4.1 (afa7bdf)
 61 65  0     0  0            999 V2000
   -7.5660   -0.4847   -0.2756 C   0  0  0  0  0  0  0  0  0  0  0  0
   -6.6719   -0.9426    0.8786 C   0  0  0  0  0  0  0  0  0  0  0  0
   -5.2359   -0.6291    0.6067 C   0  0  0  0  0  0  0  0  0  0  0  0
   -4.3279   -1.3869   -0.1206 C   0  0  0  0  0  0  0  0  0  0  0  0
   -4.6182   -2.7244   -0.7091 C   0  0  0  0  0  0  0  0  0  0  0  0
   -3.0960   -0.6659   -0.1231 C   0  0  0  0  0  0  0  0  0  0  0  0
   -1.8503   -0.9439   -0.6937 C   0  0  0  0  0  0  0  0  0  0  0  0
   -1.6953   -2.1025   -1.6251 C   0  0  0  0  0  0  0  0  0  0  0  0
   -0.7514   -0.1185   -0.4218 C   0  0  0  0  0  0  0  0  0  0  0  0
    0.6214   -0.2268   -0.7792 C   0  0  0  0  0  0  0  0  0  0  0  0
    1.3187   -1.3127   -1.5195 C   0  0  0  0  0  0  0  0  0  0  0  0
    1.2559    0.9034   -0.2651 C   0  0  0  0  0  0  0  0  0  0  0  0
    2.6595    1.2542   -0.3905 C   0  0  0  0  0  0  0  0  0  0  0  0
    3.1410    2.5189   -0.5424 C   0  0  0  0  0  0  0  0  0  0  0  0
    4.8673    2.5184   -0.6560 S   0  0  0  0  0  0  0  0  0  0  0  0
    4.8086    0.7585   -0.4931 C   0  0  0  0  0  0  0  0  0  0  0  0
    5.9289    0.0041   -0.5789 N   0  0  0  0  0  0  0  0  0  0  0  0
    7.2331    0.6075   -0.4557 C   0  0  0  0  0  0  0  0  0  0  0  0
    7.6078    0.7301    1.0371 C   0  0  0  0  0  0  0  0  0  0  0  0
    6.9123   -0.2217    1.8144 O   0  0  0  0  0  0  0  0  0  0  0  0
    6.8035   -1.4664    1.1674 C   0  0  0  0  0  0  0  0  0  0  0  0
    5.8817   -1.3548   -0.0675 C   0  0  0  0  0  0  0  0  0  0  0  0
    3.6204    0.2791   -0.3726 N   0  0  0  0  0  0  0  0  0  0  0  0
    0.2785    1.6654    0.4075 C   0  0  0  0  0  0  0  0  0  0  0  0
    0.4473    2.9394    1.1417 C   0  0  0  0  0  0  0  0  0  0  0  0
   -0.8979    1.0404    0.3221 N   0  0  0  0  0  0  0  0  0  0  0  0
   -2.2235    1.5438    0.9180 B   0  0  0  0  0  4  0  0  0  0  0  0
   -2.1102    1.6915    2.2936 F   0  0  0  0  0  0  0  0  0  0  0  0
   -2.5598    2.7668    0.3570 F   0  0  0  0  0  0  0  0  0  0  0  0
   -3.2975    0.4907    0.6076 N   0  0  0  0  0  4  0  0  0  0  0  0
   -4.5656    0.5342    1.0267 C   0  0  0  0  0  0  0  0  0  0  0  0
   -5.0884    1.6721    1.8166 C   0  0  0  0  0  0  0  0  0  0  0  0
   -7.4622    0.5866   -0.4315 H   0  0  0  0  0  0  0  0  0  0  0  0
   -8.6092   -0.7057   -0.0609 H   0  0  0  0  0  0  0  0  0  0  0  0
   -7.2859   -0.9913   -1.1962 H   0  0  0  0  0  0  0  0  0  0  0  0
   -6.9846   -0.4471    1.7991 H   0  0  0  0  0  0  0  0  0  0  0  0
   -6.7970   -2.0175    1.0274 H   0  0  0  0  0  0  0  0  0  0  0  0
   -5.5485   -3.1114   -0.3005 H   0  0  0  0  0  0  0  0  0  0  0  0
   -4.7366   -2.6628   -1.7920 H   0  0  0  0  0  0  0  0  0  0  0  0
   -3.8247   -3.4343   -0.4867 H   0  0  0  0  0  0  0  0  0  0  0  0
   -0.9395   -1.8887   -2.3716 H   0  0  0  0  0  0  0  0  0  0  0  0
   -1.3937   -2.9961   -1.0782 H   0  0  0  0  0  0  0  0  0  0  0  0
   -2.6289   -2.3091   -2.1344 H   0  0  0  0  0  0  0  0  0  0  0  0
    1.0377   -2.2926   -1.1403 H   0  0  0  0  0  0  0  0  0  0  0  0
    2.3905   -1.1815   -1.3938 H   0  0  0  0  0  0  0  0  0  0  0  0
    1.0932   -1.2728   -2.5865 H   0  0  0  0  0  0  0  0  0  0  0  0
    2.6055    3.4395   -0.6369 H   0  0  0  0  0  0  0  0  0  0  0  0
    7.2390    1.5852   -0.9377 H   0  0  0  0  0  0  0  0  0  0  0  0
    7.9420   -0.0426   -0.9783 H   0  0  0  0  0  0  0  0  0  0  0  0
    7.3144    1.7025    1.4373 H   0  0  0  0  0  0  0  0  0  0  0  0
    8.6942    0.6036    1.1627 H   0  0  0  0  0  0  0  0  0  0  0  0
    7.8010   -1.8289    0.8769 H   0  0  0  0  0  0  0  0  0  0  0  0
    6.3811   -2.1521    1.9026 H   0  0  0  0  0  0  0  0  0  0  0  0
    6.2073   -2.0467   -0.8522 H   0  0  0  0  0  0  0  0  0  0  0  0
    4.8458   -1.5682    0.1951 H   0  0  0  0  0  0  0  0  0  0  0  0
    0.1726    3.7770    0.4996 H   0  0  0  0  0  0  0  0  0  0  0  0
   -0.2135    2.9606    2.0036 H   0  0  0  0  0  0  0  0  0  0  0  0
    1.4787    3.0595    1.4631 H   0  0  0  0  0  0  0  0  0  0  0  0
   -4.6625    1.6475    2.8200 H   0  0  0  0  0  0  0  0  0  0  0  0
   -6.1719    1.6417    1.8826 H   0  0  0  0  0  0  0  0  0  0  0  0
   -4.7742    2.6085    1.3600 H   0  0  0  0  0  0  0  0  0  0  0  0
  1  2  1  0  0  0  0
  2  3  1  0  0  0  0
  3  4  2  0  0  0  0
  4  5  1  0  0  0  0
  4  6  1  0  0  0  0
  6  7  2  0  0  0  0
  7  8  1  0  0  0  0
  7  9  1  0  0  0  0
  9 10  2  0  0  0  0
 10 11  1  0  0  0  0
 10 12  1  0  0  0  0
 12 13  1  0  0  0  0
 13 14  2  0  0  0  0
 14 15  1  0  0  0  0
 15 16  1  0  0  0  0
 16 17  1  0  0  0  0
 17 18  1  0  0  0  0
 18 19  1  0  0  0  0
 19 20  1  0  0  0  0
 20 21  1  0  0  0  0
 21 22  1  0  0  0  0
 16 23  2  0  0  0  0
 12 24  2  0  0  0  0
 24 25  1  0  0  0  0
 24 26  1  0  0  0  0
 26 27  1  0  0  0  0
 27 28  1  0  0  0  0
 27 29  1  0  0  0  0
 27 30  1  0  0  0  0
 30 31  2  0  0  0  0
 31 32  1  0  0  0  0
 31  3  1  0  0  0  0
 30  6  1  0  0  0  0
 26  9  1  0  0  0  0
 23 13  1  0  0  0  0
 22 17  1  0  0  0  0
  1 33  1  0  0  0  0
  1 34  1  0  0  0  0
  1 35  1  0  0  0  0
  2 36  1  0  0  0  0
  2 37  1  0  0  0  0
  5 38  1  0  0  0  0
  5 39  1  0  0  0  0
  5 40  1  0  0  0  0
  8 41  1  0  0  0  0
  8 42  1  0  0  0  0
  8 43  1  0  0  0  0
 11 44  1  0  0  0  0
 11 45  1  0  0  0  0
 11 46  1  0  0  0  0
 14 47  1  0  0  0  0
 18 48  1  0  0  0  0
 18 49  1  0  0  0  0
 19 50  1  0  0  0  0
 19 51  1  0  0  0  0
 21 52  1  0  0  0  0
 21 53  1  0  0  0  0
 22 54  1  0  0  0  0
 22 55  1  0  0  0  0
 25 56  1  0  0  0  0
 25 57  1  0  0  0  0
 25 58  1  0  0  0  0
 32 59  1  0  0  0  0
 32 60  1  0  0  0  0
 32 61  1  0  0  0  0
M  CHG  1  27  -1
M  CHG  1  30   1
M  END
