
  xtb     03022212333D
 energy: -127.163775522074 gnorm: 0.000286629997 xtb: 6.4.1 (afa7bdf)
 86 91  0     0  0            999 V2000
    6.0286    8.8250    3.0362 C   0  0  0  0  0  0  0  0  0  0  0  0
    4.6407    8.6034    2.9793 O   0  0  0  0  0  0  0  0  0  0  0  0
    4.1900    7.3901    2.5606 C   0  0  0  0  0  0  0  0  0  0  0  0
    2.8026    7.2320    2.5278 C   0  0  0  0  0  0  0  0  0  0  0  0
    2.2471    6.0427    2.1200 C   0  0  0  0  0  0  0  0  0  0  0  0
    3.0449    4.9604    1.7277 C   0  0  0  0  0  0  0  0  0  0  0  0
    2.4035    3.7313    1.3081 C   0  0  0  0  0  0  0  0  0  0  0  0
    3.0137    2.6085    0.9043 C   0  0  0  0  0  0  0  0  0  0  0  0
    2.3565    1.3825    0.4870 C   0  0  0  0  0  0  0  0  0  0  0  0
    0.9720    1.2017    0.4476 C   0  0  0  0  0  0  0  0  0  0  0  0
    0.4971   -0.0412    0.0231 C   0  0  0  0  0  0  0  0  0  0  0  0
   -0.9074   -0.3927   -0.0771 C   0  0  0  0  0  0  0  0  0  0  0  0
   -1.9416    0.4269    0.1626 C   0  0  0  0  0  0  0  0  0  0  0  0
   -3.3462    0.0957    0.0641 C   0  0  0  0  0  0  0  0  0  0  0  0
   -4.2970    1.0811    0.3544 C   0  0  0  0  0  0  0  0  0  0  0  0
   -5.6472    0.8261    0.2788 C   0  0  0  0  0  0  0  0  0  0  0  0
   -6.1069   -0.4377   -0.0977 C   0  0  0  0  0  0  0  0  0  0  0  0
   -7.4733   -0.7035   -0.1800 N   0  0  0  0  0  0  0  0  0  0  0  0
   -7.9683   -1.9643    0.1766 C   0  0  0  0  0  0  0  0  0  0  0  0
   -9.0203   -2.5372   -0.5373 C   0  0  0  0  0  0  0  0  0  0  0  0
   -9.5120   -3.7766   -0.1764 C   0  0  0  0  0  0  0  0  0  0  0  0
   -8.9613   -4.4666    0.8912 C   0  0  0  0  0  0  0  0  0  0  0  0
   -7.9132   -3.9036    1.6007 C   0  0  0  0  0  0  0  0  0  0  0  0
   -7.4201   -2.6611    1.2531 C   0  0  0  0  0  0  0  0  0  0  0  0
   -8.3582    0.2930   -0.6104 C   0  0  0  0  0  0  0  0  0  0  0  0
   -9.6183    0.4197   -0.0266 C   0  0  0  0  0  0  0  0  0  0  0  0
  -10.4893    1.4010   -0.4584 C   0  0  0  0  0  0  0  0  0  0  0  0
  -10.1189    2.2739   -1.4683 C   0  0  0  0  0  0  0  0  0  0  0  0
   -8.8672    2.1538   -2.0496 C   0  0  0  0  0  0  0  0  0  0  0  0
   -7.9924    1.1703   -1.6310 C   0  0  0  0  0  0  0  0  0  0  0  0
   -5.1669   -1.4294   -0.3911 C   0  0  0  0  0  0  0  0  0  0  0  0
   -3.8187   -1.1670   -0.3102 C   0  0  0  0  0  0  0  0  0  0  0  0
    1.3446   -1.0116   -0.3261 N   0  0  0  0  0  0  0  0  0  0  0  0
    2.6507   -0.7565   -0.2624 C   0  0  0  0  0  0  0  0  0  0  0  0
    3.5364   -1.8318   -0.6527 C   0  0  0  0  0  0  0  0  0  0  0  0
    4.8738   -1.7066   -0.6387 C   0  0  0  0  0  0  0  0  0  0  0  0
    5.8487   -2.7017   -1.0067 C   0  0  0  0  0  0  0  0  0  0  0  0
    5.5172   -3.9835   -1.4587 C   0  0  0  0  0  0  0  0  0  0  0  0
    6.4827   -4.9009   -1.7991 C   0  0  0  0  0  0  0  0  0  0  0  0
    7.8500   -4.5919   -1.7059 C   0  0  0  0  0  0  0  0  0  0  0  0
    8.8142   -5.5050   -2.0380 N   0  0  0  0  0  0  0  0  0  0  0  0
    8.4631   -6.8657   -2.3568 C   0  0  0  0  0  0  0  0  0  0  0  0
   10.1984   -5.1126   -2.1241 C   0  0  0  0  0  0  0  0  0  0  0  0
    8.1858   -3.3056   -1.2539 C   0  0  0  0  0  0  0  0  0  0  0  0
    7.2114   -2.3957   -0.9180 C   0  0  0  0  0  0  0  0  0  0  0  0
    3.1840    0.4002    0.1294 N   0  0  0  0  0  0  0  0  0  0  0  0
    4.4288    5.1339    1.7656 C   0  0  0  0  0  0  0  0  0  0  0  0
    4.9976    6.3244    2.1735 C   0  0  0  0  0  0  0  0  0  0  0  0
    6.4919    8.7313    2.0487 H   0  0  0  0  0  0  0  0  0  0  0  0
    6.5175    8.1376    3.7342 H   0  0  0  0  0  0  0  0  0  0  0  0
    6.1495    9.8463    3.3942 H   0  0  0  0  0  0  0  0  0  0  0  0
    2.1856    8.0638    2.8296 H   0  0  0  0  0  0  0  0  0  0  0  0
    1.1713    5.9407    2.1019 H   0  0  0  0  0  0  0  0  0  0  0  0
    1.3216    3.7645    1.3387 H   0  0  0  0  0  0  0  0  0  0  0  0
    4.0911    2.5428    0.8621 H   0  0  0  0  0  0  0  0  0  0  0  0
    0.2975    1.9887    0.7370 H   0  0  0  0  0  0  0  0  0  0  0  0
   -1.0649   -1.4165   -0.3834 H   0  0  0  0  0  0  0  0  0  0  0  0
   -1.7478    1.4498    0.4609 H   0  0  0  0  0  0  0  0  0  0  0  0
   -3.9634    2.0648    0.6541 H   0  0  0  0  0  0  0  0  0  0  0  0
   -6.3605    1.6015    0.5176 H   0  0  0  0  0  0  0  0  0  0  0  0
   -9.4453   -2.0048   -1.3756 H   0  0  0  0  0  0  0  0  0  0  0  0
  -10.3260   -4.2102   -0.7386 H   0  0  0  0  0  0  0  0  0  0  0  0
   -9.3464   -5.4362    1.1683 H   0  0  0  0  0  0  0  0  0  0  0  0
   -7.4815   -4.4316    2.4382 H   0  0  0  0  0  0  0  0  0  0  0  0
   -6.6103   -2.2191    1.8149 H   0  0  0  0  0  0  0  0  0  0  0  0
   -9.9058   -0.2536    0.7677 H   0  0  0  0  0  0  0  0  0  0  0  0
  -11.4616    1.4899    0.0037 H   0  0  0  0  0  0  0  0  0  0  0  0
  -10.8010    3.0418   -1.8002 H   0  0  0  0  0  0  0  0  0  0  0  0
   -8.5722    2.8257   -2.8421 H   0  0  0  0  0  0  0  0  0  0  0  0
   -7.0211    1.0715   -2.0933 H   0  0  0  0  0  0  0  0  0  0  0  0
   -5.5096   -2.4088   -0.6922 H   0  0  0  0  0  0  0  0  0  0  0  0
   -3.1194   -1.9519   -0.5515 H   0  0  0  0  0  0  0  0  0  0  0  0
    3.0351   -2.7379   -0.9564 H   0  0  0  0  0  0  0  0  0  0  0  0
    5.2717   -0.7527   -0.3159 H   0  0  0  0  0  0  0  0  0  0  0  0
    4.4793   -4.2644   -1.5501 H   0  0  0  0  0  0  0  0  0  0  0  0
    6.1688   -5.8688   -2.1552 H   0  0  0  0  0  0  0  0  0  0  0  0
    9.3631   -7.4765   -2.3776 H   0  0  0  0  0  0  0  0  0  0  0  0
    7.7949   -7.2785   -1.5975 H   0  0  0  0  0  0  0  0  0  0  0  0
    7.9717   -6.9424   -3.3340 H   0  0  0  0  0  0  0  0  0  0  0  0
   10.6293   -4.9310   -1.1328 H   0  0  0  0  0  0  0  0  0  0  0  0
   10.7706   -5.9029   -2.6049 H   0  0  0  0  0  0  0  0  0  0  0  0
   10.3085   -4.2049   -2.7231 H   0  0  0  0  0  0  0  0  0  0  0  0
    9.2194   -3.0168   -1.1522 H   0  0  0  0  0  0  0  0  0  0  0  0
    7.5062   -1.4155   -0.5700 H   0  0  0  0  0  0  0  0  0  0  0  0
    5.0797    4.3257    1.4712 H   0  0  0  0  0  0  0  0  0  0  0  0
    6.0729    6.4117    2.1864 H   0  0  0  0  0  0  0  0  0  0  0  0
  1  2  1  0  0  0  0
  2  3  1  0  0  0  0
  3  4  2  0  0  0  0
  4  5  1  0  0  0  0
  5  6  2  0  0  0  0
  6  7  1  0  0  0  0
  7  8  2  0  0  0  0
  8  9  1  0  0  0  0
  9 10  2  0  0  0  0
 10 11  1  0  0  0  0
 11 12  1  0  0  0  0
 12 13  2  0  0  0  0
 13 14  1  0  0  0  0
 14 15  2  0  0  0  0
 15 16  1  0  0  0  0
 16 17  2  0  0  0  0
 17 18  1  0  0  0  0
 18 19  1  0  0  0  0
 19 20  2  0  0  0  0
 20 21  1  0  0  0  0
 21 22  2  0  0  0  0
 22 23  1  0  0  0  0
 23 24  2  0  0  0  0
 18 25  1  0  0  0  0
 25 26  2  0  0  0  0
 26 27  1  0  0  0  0
 27 28  2  0  0  0  0
 28 29  1  0  0  0  0
 29 30  2  0  0  0  0
 17 31  1  0  0  0  0
 31 32  2  0  0  0  0
 11 33  2  0  0  0  0
 33 34  1  0  0  0  0
 34 35  1  0  0  0  0
 35 36  2  0  0  0  0
 36 37  1  0  0  0  0
 37 38  2  0  0  0  0
 38 39  1  0  0  0  0
 39 40  2  0  0  0  0
 40 41  1  0  0  0  0
 41 42  1  0  0  0  0
 41 43  1  0  0  0  0
 40 44  1  0  0  0  0
 44 45  2  0  0  0  0
 34 46  2  0  0  0  0
  6 47  1  0  0  0  0
 47 48  2  0  0  0  0
 48  3  1  0  0  0  0
 46  9  1  0  0  0  0
 32 14  1  0  0  0  0
 45 37  1  0  0  0  0
 24 19  1  0  0  0  0
 30 25  1  0  0  0  0
  1 49  1  0  0  0  0
  1 50  1  0  0  0  0
  1 51  1  0  0  0  0
  4 52  1  0  0  0  0
  5 53  1  0  0  0  0
  7 54  1  0  0  0  0
  8 55  1  0  0  0  0
 10 56  1  0  0  0  0
 12 57  1  0  0  0  0
 13 58  1  0  0  0  0
 15 59  1  0  0  0  0
 16 60  1  0  0  0  0
 20 61  1  0  0  0  0
 21 62  1  0  0  0  0
 22 63  1  0  0  0  0
 23 64  1  0  0  0  0
 24 65  1  0  0  0  0
 26 66  1  0  0  0  0
 27 67  1  0  0  0  0
 28 68  1  0  0  0  0
 29 69  1  0  0  0  0
 30 70  1  0  0  0  0
 31 71  1  0  0  0  0
 32 72  1  0  0  0  0
 35 73  1  0  0  0  0
 36 74  1  0  0  0  0
 38 75  1  0  0  0  0
 39 76  1  0  0  0  0
 42 77  1  0  0  0  0
 42 78  1  0  0  0  0
 42 79  1  0  0  0  0
 43 80  1  0  0  0  0
 43 81  1  0  0  0  0
 43 82  1  0  0  0  0
 44 83  1  0  0  0  0
 45 84  1  0  0  0  0
 47 85  1  0  0  0  0
 48 86  1  0  0  0  0
M  END
