
  xtb     03022215183D
 energy: -30.421048627610 gnorm: 0.000175209844 xtb: 6.4.1 (afa7bdf)
 15 15  0     0  0            999 V2000
   -2.9178    0.0952   -0.1462 O   0  0  0  0  0  0  0  0  0  0  0  0
   -2.0393   -0.7659   -0.1932 N   0  0  0  0  0  4  0  0  0  0  0  0
   -2.2755   -1.9445   -0.3350 O   0  0  0  0  0  1  0  0  0  0  0  0
   -0.6868   -0.3458   -0.0747 C   0  0  0  0  0  0  0  0  0  0  0  0
    0.3111   -1.3259   -0.1286 C   0  0  0  0  0  0  0  0  0  0  0  0
    1.6350   -0.9801   -0.0197 C   0  0  0  0  0  0  0  0  0  0  0  0
    1.9817    0.3603    0.1457 C   0  0  0  0  0  0  0  0  0  0  0  0
    1.0136    1.3350    0.2006 C   0  0  0  0  0  0  0  0  0  0  0  0
   -0.3461    1.0131    0.0925 C   0  0  0  0  0  0  0  0  0  0  0  0
   -1.2292    2.0039    0.1539 O   0  0  0  0  0  0  0  0  0  0  0  0
    0.0046   -2.3527   -0.2575 H   0  0  0  0  0  0  0  0  0  0  0  0
    2.3998   -1.7385   -0.0618 H   0  0  0  0  0  0  0  0  0  0  0  0
    3.0210    0.6378    0.2317 H   0  0  0  0  0  0  0  0  0  0  0  0
    1.2674    2.3750    0.3281 H   0  0  0  0  0  0  0  0  0  0  0  0
   -2.1394    1.6329    0.0643 H   0  0  0  0  0  0  0  0  0  0  0  0
  1  2  2  0  0  0  0
  2  3  1  0  0  0  0
  2  4  1  0  0  0  0
  4  5  2  0  0  0  0
  5  6  1  0  0  0  0
  6  7  2  0  0  0  0
  7  8  1  0  0  0  0
  8  9  2  0  0  0  0
  9 10  1  0  0  0  0
  9  4  1  0  0  0  0
  5 11  1  0  0  0  0
  6 12  1  0  0  0  0
  7 13  1  0  0  0  0
  8 14  1  0  0  0  0
 10 15  1  0  0  0  0
M  CHG  1   2   1
M  CHG  1   3  -1
M  END
