
  xtb     03022213393D
 energy: -79.244045811667 gnorm: 0.000086129175 xtb: 6.4.1 (afa7bdf)
 45 49  0     0  0            999 V2000
   -6.0713   -1.8467    1.1881 C   0  0  0  0  0  0  0  0  0  0  0  0
   -6.1713   -0.7328    0.3188 O   0  0  0  0  0  0  0  0  0  0  0  0
   -5.0336   -0.1990   -0.0887 C   0  0  0  0  0  0  0  0  0  0  0  0
   -3.8862   -0.7122    0.3196 N   0  0  0  0  0  0  0  0  0  0  0  0
   -2.7877   -0.0988   -0.1489 C   0  0  0  0  0  0  0  0  0  0  0  0
   -1.6335   -0.6501    0.2888 N   0  0  0  0  0  0  0  0  0  0  0  0
   -0.3134   -0.3135    0.0418 C   0  0  0  0  0  0  0  0  0  0  0  0
    0.0201    0.7516   -0.7689 C   0  0  0  0  0  0  0  0  0  0  0  0
    1.3474    1.0828   -1.0067 C   0  0  0  0  0  0  0  0  0  0  0  0
    2.3973    0.3724   -0.4514 C   0  0  0  0  0  0  0  0  0  0  0  0
    2.0834   -0.7322    0.3855 C   0  0  0  0  0  0  0  0  0  0  0  0
    3.1107   -1.5033    0.9818 C   0  0  0  0  0  0  0  0  0  0  0  0
    2.8083   -2.5772    1.7947 C   0  0  0  0  0  0  0  0  0  0  0  0
    1.4848   -2.9237    2.0445 C   0  0  0  0  0  0  0  0  0  0  0  0
    0.4703   -2.1940    1.4796 C   0  0  0  0  0  0  0  0  0  0  0  0
    0.7271   -1.0888    0.6427 C   0  0  0  0  0  0  0  0  0  0  0  0
    4.5350   -1.1912    0.7576 C   0  0  0  0  0  0  0  0  0  0  0  0
    5.4232   -1.8567    1.2686 O   0  0  0  0  0  0  0  0  0  0  0  0
    4.8202   -0.0403   -0.1099 C   0  0  0  0  0  0  0  0  0  0  0  0
    6.1584    0.2833   -0.3383 C   0  0  0  0  0  0  0  0  0  0  0  0
    6.5017    1.3492   -1.1394 C   0  0  0  0  0  0  0  0  0  0  0  0
    5.4939    2.1058   -1.7227 C   0  0  0  0  0  0  0  0  0  0  0  0
    4.1675    1.7958   -1.5047 C   0  0  0  0  0  0  0  0  0  0  0  0
    3.7916    0.7178   -0.6955 C   0  0  0  0  0  0  0  0  0  0  0  0
   -2.8036    0.9468   -0.9629 N   0  0  0  0  0  0  0  0  0  0  0  0
   -4.0135    1.3746   -1.3062 C   0  0  0  0  0  0  0  0  0  0  0  0
   -4.0297    2.4150   -2.1169 O   0  0  0  0  0  0  0  0  0  0  0  0
   -5.3079    2.8946   -2.5011 C   0  0  0  0  0  0  0  0  0  0  0  0
   -5.1588    0.8452   -0.9031 N   0  0  0  0  0  0  0  0  0  0  0  0
   -5.5445   -1.5739    2.1048 H   0  0  0  0  0  0  0  0  0  0  0  0
   -5.5354   -2.6660    0.7045 H   0  0  0  0  0  0  0  0  0  0  0  0
   -7.0946   -2.1403    1.4105 H   0  0  0  0  0  0  0  0  0  0  0  0
   -1.8048   -1.4380    0.8988 H   0  0  0  0  0  0  0  0  0  0  0  0
   -0.7686    1.3292   -1.2193 H   0  0  0  0  0  0  0  0  0  0  0  0
    1.5352    1.9269   -1.6496 H   0  0  0  0  0  0  0  0  0  0  0  0
    3.6237   -3.1371    2.2281 H   0  0  0  0  0  0  0  0  0  0  0  0
    1.2582   -3.7655    2.6814 H   0  0  0  0  0  0  0  0  0  0  0  0
   -0.5455   -2.4939    1.6955 H   0  0  0  0  0  0  0  0  0  0  0  0
    6.9106   -0.3307    0.1346 H   0  0  0  0  0  0  0  0  0  0  0  0
    7.5384    1.5951   -1.3126 H   0  0  0  0  0  0  0  0  0  0  0  0
    5.7472    2.9456   -2.3534 H   0  0  0  0  0  0  0  0  0  0  0  0
    3.4171    2.4096   -1.9765 H   0  0  0  0  0  0  0  0  0  0  0  0
   -5.8792    3.2088   -1.6260 H   0  0  0  0  0  0  0  0  0  0  0  0
   -5.8691    2.1172   -3.0224 H   0  0  0  0  0  0  0  0  0  0  0  0
   -5.1192    3.7393   -3.1599 H   0  0  0  0  0  0  0  0  0  0  0  0
  1  2  1  0  0  0  0
  2  3  1  0  0  0  0
  3  4  2  0  0  0  0
  4  5  1  0  0  0  0
  5  6  1  0  0  0  0
  6  7  1  0  0  0  0
  7  8  2  0  0  0  0
  8  9  1  0  0  0  0
  9 10  2  0  0  0  0
 10 11  1  0  0  0  0
 11 12  2  0  0  0  0
 12 13  1  0  0  0  0
 13 14  2  0  0  0  0
 14 15  1  0  0  0  0
 15 16  2  0  0  0  0
 12 17  1  0  0  0  0
 17 18  2  0  0  0  0
 17 19  1  0  0  0  0
 19 20  2  0  0  0  0
 20 21  1  0  0  0  0
 21 22  2  0  0  0  0
 22 23  1  0  0  0  0
 23 24  2  0  0  0  0
  5 25  2  0  0  0  0
 25 26  1  0  0  0  0
 26 27  1  0  0  0  0
 27 28  1  0  0  0  0
 26 29  2  0  0  0  0
 29  3  1  0  0  0  0
 16  7  1  0  0  0  0
 24 19  1  0  0  0  0
 24 10  1  0  0  0  0
 16 11  1  0  0  0  0
  1 30  1  0  0  0  0
  1 31  1  0  0  0  0
  1 32  1  0  0  0  0
  6 33  1  0  0  0  0
  8 34  1  0  0  0  0
  9 35  1  0  0  0  0
 13 36  1  0  0  0  0
 14 37  1  0  0  0  0
 15 38  1  0  0  0  0
 20 39  1  0  0  0  0
 21 40  1  0  0  0  0
 22 41  1  0  0  0  0
 23 42  1  0  0  0  0
 28 43  1  0  0  0  0
 28 44  1  0  0  0  0
 28 45  1  0  0  0  0
M  END
