
  xtb     03022215583D
 energy: -38.145507320805 gnorm: 0.000154268770 xtb: 6.4.1 (afa7bdf)
 27 29  0     0  0            999 V2000
   -3.6055    1.8911    0.2590 C   0  0  0  0  0  0  0  0  0  0  0  0
   -2.6260    0.6521    0.1081 B   0  0  0  0  0  0  0  0  0  0  0  0
   -3.0503   -0.8005   -0.0811 C   0  0  0  0  0  0  0  0  0  0  0  0
   -2.0960   -1.7524   -0.2107 C   0  0  0  0  0  0  0  0  0  0  0  0
   -0.7032   -1.4412   -0.1779 C   0  0  0  0  0  0  0  0  0  0  0  0
    0.2639   -2.4661   -0.3177 C   0  0  0  0  0  0  0  0  0  0  0  0
    1.5928   -2.1922   -0.2905 C   0  0  0  0  0  0  0  0  0  0  0  0
    2.0530   -0.8632   -0.1211 C   0  0  0  0  0  0  0  0  0  0  0  0
    3.4299   -0.5746   -0.0946 C   0  0  0  0  0  0  0  0  0  0  0  0
    3.8813    0.7067    0.0672 C   0  0  0  0  0  0  0  0  0  0  0  0
    2.9632    1.7519    0.2095 C   0  0  0  0  0  0  0  0  0  0  0  0
    1.6167    1.5000    0.1880 C   0  0  0  0  0  0  0  0  0  0  0  0
    1.1166    0.1931    0.0231 C   0  0  0  0  0  0  0  0  0  0  0  0
   -0.2828   -0.1155   -0.0069 C   0  0  0  0  0  0  0  0  0  0  0  0
   -1.2285    0.8580    0.1277 N   0  0  0  0  0  0  0  0  0  0  0  0
   -4.4239    1.6790    0.9433 H   0  0  0  0  0  0  0  0  0  0  0  0
   -3.1055    2.7904    0.6144 H   0  0  0  0  0  0  0  0  0  0  0  0
   -4.0638    2.1369   -0.6981 H   0  0  0  0  0  0  0  0  0  0  0  0
   -4.0861   -1.1131   -0.1164 H   0  0  0  0  0  0  0  0  0  0  0  0
   -2.3523   -2.7973   -0.3459 H   0  0  0  0  0  0  0  0  0  0  0  0
   -0.0852   -3.4807   -0.4478 H   0  0  0  0  0  0  0  0  0  0  0  0
    2.3239   -2.9803   -0.3978 H   0  0  0  0  0  0  0  0  0  0  0  0
    4.1287   -1.3916   -0.2058 H   0  0  0  0  0  0  0  0  0  0  0  0
    4.9403    0.9181    0.0857 H   0  0  0  0  0  0  0  0  0  0  0  0
    3.3209    2.7632    0.3368 H   0  0  0  0  0  0  0  0  0  0  0  0
    0.9400    2.3360    0.3012 H   0  0  0  0  0  0  0  0  0  0  0  0
   -0.8621    1.7920    0.2482 H   0  0  0  0  0  0  0  0  0  0  0  0
  1  2  1  0  0  0  0
  2  3  1  0  0  0  0
  3  4  2  0  0  0  0
  4  5  1  0  0  0  0
  5  6  2  0  0  0  0
  6  7  1  0  0  0  0
  7  8  2  0  0  0  0
  8  9  1  0  0  0  0
  9 10  2  0  0  0  0
 10 11  1  0  0  0  0
 11 12  2  0  0  0  0
 12 13  1  0  0  0  0
 13 14  2  0  0  0  0
 14 15  1  0  0  0  0
 15  2  1  0  0  0  0
 14  5  1  0  0  0  0
 13  8  1  0  0  0  0
  1 16  1  0  0  0  0
  1 17  1  0  0  0  0
  1 18  1  0  0  0  0
  3 19  1  0  0  0  0
  4 20  1  0  0  0  0
  6 21  1  0  0  0  0
  7 22  1  0  0  0  0
  9 23  1  0  0  0  0
 10 24  1  0  0  0  0
 11 25  1  0  0  0  0
 12 26  1  0  0  0  0
 15 27  1  0  0  0  0
M  END
