
  xtb     03022213143D
 energy: -62.419388629939 gnorm: 0.000280540922 xtb: 6.4.1 (afa7bdf)
 37 38  0     0  0            999 V2000
    4.3424   -2.9571    0.3203 C   0  0  0  0  0  0  0  0  0  0  0  0
    4.3994   -1.4975   -0.0897 C   0  0  0  0  0  0  0  0  0  0  0  0
    3.0737   -0.9694   -0.0603 O   0  0  0  0  0  0  0  0  0  0  0  0
    2.9445    0.3121   -0.4413 C   0  0  0  0  0  0  0  0  0  0  0  0
    3.8750    0.9925   -0.7870 O   0  0  0  0  0  0  0  0  0  0  0  0
    1.5263    0.7647   -0.3805 C   0  0  0  0  0  0  0  0  0  0  0  0
    0.5029   -0.0955    0.0619 C   0  0  0  0  0  0  0  0  0  0  0  0
   -0.7962    0.3603    0.1096 C   0  0  0  0  0  0  0  0  0  0  0  0
   -1.8646   -0.5466    0.6047 C   0  0  0  0  0  0  0  0  0  0  0  0
   -2.9413   -0.2067    1.0370 O   0  0  0  0  0  0  0  0  0  0  0  0
   -1.4897   -1.8291    0.5307 O   0  0  0  0  0  0  0  0  0  0  0  0
   -2.4238   -2.7958    1.0094 C   0  0  0  0  0  0  0  0  0  0  0  0
   -1.7082   -4.1264    1.1466 C   0  0  0  0  0  0  0  0  0  0  0  0
   -1.0719    1.6981   -0.3005 C   0  0  0  0  0  0  0  0  0  0  0  0
   -2.3414    2.2820   -0.3149 C   0  0  0  0  0  0  0  0  0  0  0  0
   -2.5212    3.5914   -0.7249 C   0  0  0  0  0  0  0  0  0  0  0  0
   -3.7709    4.1398   -0.7854 N   0  0  0  0  0  0  0  0  0  0  0  0
   -1.4021    4.3539   -1.1437 C   0  0  0  0  0  0  0  0  0  0  0  0
   -0.1553    3.8115   -1.1469 C   0  0  0  0  0  0  0  0  0  0  0  0
    0.0533    2.4747   -0.7309 C   0  0  0  0  0  0  0  0  0  0  0  0
    1.2999    2.0026   -0.7571 N   0  0  0  0  0  0  0  0  0  0  0  0
    5.3425   -3.3802    0.3038 H   0  0  0  0  0  0  0  0  0  0  0  0
    3.7090   -3.5138   -0.3651 H   0  0  0  0  0  0  0  0  0  0  0  0
    3.9341   -3.0487    1.3233 H   0  0  0  0  0  0  0  0  0  0  0  0
    4.8037   -1.3811   -1.1016 H   0  0  0  0  0  0  0  0  0  0  0  0
    5.0274   -0.9141    0.5934 H   0  0  0  0  0  0  0  0  0  0  0  0
    0.7459   -1.0991    0.3685 H   0  0  0  0  0  0  0  0  0  0  0  0
   -2.8270   -2.4541    1.9695 H   0  0  0  0  0  0  0  0  0  0  0  0
   -3.2544   -2.8638    0.2971 H   0  0  0  0  0  0  0  0  0  0  0  0
   -2.4060   -4.8816    1.4965 H   0  0  0  0  0  0  0  0  0  0  0  0
   -1.3028   -4.4332    0.1862 H   0  0  0  0  0  0  0  0  0  0  0  0
   -0.8907   -4.0414    1.8577 H   0  0  0  0  0  0  0  0  0  0  0  0
   -3.1925    1.7061    0.0100 H   0  0  0  0  0  0  0  0  0  0  0  0
   -4.5163    3.6586   -0.3119 H   0  0  0  0  0  0  0  0  0  0  0  0
   -3.8522    5.1392   -0.8578 H   0  0  0  0  0  0  0  0  0  0  0  0
   -1.5609    5.3743   -1.4629 H   0  0  0  0  0  0  0  0  0  0  0  0
    0.7090    4.3730   -1.4635 H   0  0  0  0  0  0  0  0  0  0  0  0
  1  2  1  0  0  0  0
  2  3  1  0  0  0  0
  3  4  1  0  0  0  0
  4  5  2  0  0  0  0
  4  6  1  0  0  0  0
  6  7  2  0  0  0  0
  7  8  1  0  0  0  0
  8  9  1  0  0  0  0
  9 10  2  0  0  0  0
  9 11  1  0  0  0  0
 11 12  1  0  0  0  0
 12 13  1  0  0  0  0
  8 14  2  0  0  0  0
 14 15  1  0  0  0  0
 15 16  2  0  0  0  0
 16 17  1  0  0  0  0
 16 18  1  0  0  0  0
 18 19  2  0  0  0  0
 19 20  1  0  0  0  0
 20 21  2  0  0  0  0
 21  6  1  0  0  0  0
 20 14  1  0  0  0  0
  1 22  1  0  0  0  0
  1 23  1  0  0  0  0
  1 24  1  0  0  0  0
  2 25  1  0  0  0  0
  2 26  1  0  0  0  0
  7 27  1  0  0  0  0
 12 28  1  0  0  0  0
 12 29  1  0  0  0  0
 13 30  1  0  0  0  0
 13 31  1  0  0  0  0
 13 32  1  0  0  0  0
 15 33  1  0  0  0  0
 17 34  1  0  0  0  0
 17 35  1  0  0  0  0
 18 36  1  0  0  0  0
 19 37  1  0  0  0  0
M  END
