
  xtb     03022212213D
 energy: -32.544817163857 gnorm: 0.000437470303 xtb: 6.4.1 (afa7bdf)
 18 19  0     0  0            999 V2000
    3.6136    1.1765   -0.1096 O   0  0  0  0  0  0  0  0  0  0  0  0
    2.5384    0.6190   -0.0786 C   0  0  0  0  0  0  0  0  0  0  0  0
    2.3928   -0.8346   -0.0846 C   0  0  0  0  0  0  0  0  0  0  0  0
    1.1961   -1.4384   -0.0499 C   0  0  0  0  0  0  0  0  0  0  0  0
   -0.0463   -0.7030   -0.0037 C   0  0  0  0  0  0  0  0  0  0  0  0
   -1.2729   -1.3636    0.0316 C   0  0  0  0  0  0  0  0  0  0  0  0
   -2.4578   -0.6497    0.0757 C   0  0  0  0  0  0  0  0  0  0  0  0
   -2.4383    0.7369    0.0853 C   0  0  0  0  0  0  0  0  0  0  0  0
   -1.2290    1.4085    0.0507 C   0  0  0  0  0  0  0  0  0  0  0  0
   -0.0306    0.7024    0.0062 C   0  0  0  0  0  0  0  0  0  0  0  0
    1.2424    1.4484   -0.0300 C   0  0  0  0  0  0  0  0  0  0  0  0
    1.2962    2.6571   -0.0228 O   0  0  0  0  0  0  0  0  0  0  0  0
    3.3130   -1.4001   -0.1189 H   0  0  0  0  0  0  0  0  0  0  0  0
    1.1268   -2.5181   -0.0556 H   0  0  0  0  0  0  0  0  0  0  0  0
   -1.2922   -2.4438    0.0242 H   0  0  0  0  0  0  0  0  0  0  0  0
   -3.4001   -1.1762    0.1027 H   0  0  0  0  0  0  0  0  0  0  0  0
   -3.3638    1.2911    0.1197 H   0  0  0  0  0  0  0  0  0  0  0  0
   -1.1886    2.4876    0.0573 H   0  0  0  0  0  0  0  0  0  0  0  0
  1  2  2  0  0  0  0
  2  3  1  0  0  0  0
  3  4  2  0  0  0  0
  4  5  1  0  0  0  0
  5  6  2  0  0  0  0
  6  7  1  0  0  0  0
  7  8  2  0  0  0  0
  8  9  1  0  0  0  0
  9 10  2  0  0  0  0
 10 11  1  0  0  0  0
 11 12  2  0  0  0  0
 11  2  1  0  0  0  0
 10  5  1  0  0  0  0
  3 13  1  0  0  0  0
  4 14  1  0  0  0  0
  6 15  1  0  0  0  0
  7 16  1  0  0  0  0
  8 17  1  0  0  0  0
  9 18  1  0  0  0  0
M  END
