
  xtb     03022215183D
 energy: -71.430664419467 gnorm: 0.000111139084 xtb: 6.4.1 (afa7bdf)
 48 51  0     0  0            999 V2000
    1.0428    3.0240   -0.9558 O   0  0  0  0  0  1  0  0  0  0  0  0
    0.2952    2.0450   -0.6504 N   0  0  0  0  0  4  0  0  0  0  0  0
    0.8150    0.8269   -0.2994 C   0  0  0  0  0  0  0  0  0  0  0  0
    2.2420    0.6680   -0.3674 C   0  0  0  0  0  0  0  0  0  0  0  0
    2.8664   -0.4772   -0.0456 C   0  0  0  0  0  0  0  0  0  0  0  0
    4.2909   -0.7236   -0.0872 C   0  0  0  0  0  0  0  0  0  0  0  0
    4.7689   -1.9844    0.2861 C   0  0  0  0  0  0  0  0  0  0  0  0
    6.1199   -2.2685    0.2661 C   0  0  0  0  0  0  0  0  0  0  0  0
    7.0278   -1.2990   -0.1281 C   0  0  0  0  0  0  0  0  0  0  0  0
    6.5712   -0.0444   -0.5017 C   0  0  0  0  0  0  0  0  0  0  0  0
    5.2212    0.2430   -0.4827 C   0  0  0  0  0  0  0  0  0  0  0  0
    0.0440   -0.1600    0.1086 N   0  0  0  0  0  0  0  0  0  0  0  0
   -1.2741   -0.0280    0.1590 C   0  0  0  0  0  0  0  0  0  0  0  0
   -1.9836   -1.1242    0.6106 N   0  0  0  0  0  0  0  0  0  0  0  0
   -2.8607   -1.0217    1.7586 C   0  0  0  0  0  0  0  0  0  0  0  0
   -4.0042   -2.0319    1.5610 C   0  0  0  0  0  0  0  0  0  0  0  0
   -3.5904   -3.1148    0.7581 O   0  0  0  0  0  0  0  0  0  0  0  0
   -2.2636   -3.4972    1.0274 C   0  0  0  0  0  0  0  0  0  0  0  0
   -1.2690   -2.3884    0.6271 C   0  0  0  0  0  0  0  0  0  0  0  0
   -1.8958    1.1427   -0.3315 C   0  0  0  0  0  0  0  0  0  0  0  0
   -1.0628    2.1728   -0.7190 C   0  0  0  0  0  0  0  0  0  0  0  0
   -1.5436    3.4915   -1.2329 C   0  0  0  0  0  0  0  0  0  0  0  0
   -2.9895    3.4420   -1.7055 C   0  0  0  0  0  0  0  0  0  0  0  0
   -3.8376    2.7014   -0.6798 C   0  0  0  0  0  0  0  0  0  0  0  0
   -3.3758    1.2510   -0.5832 C   0  0  0  0  0  0  0  0  0  0  0  0
    2.7658    1.5520   -0.6993 H   0  0  0  0  0  0  0  0  0  0  0  0
    2.2493   -1.3055    0.2787 H   0  0  0  0  0  0  0  0  0  0  0  0
    4.0642   -2.7441    0.5940 H   0  0  0  0  0  0  0  0  0  0  0  0
    6.4690   -3.2484    0.5585 H   0  0  0  0  0  0  0  0  0  0  0  0
    8.0850   -1.5191   -0.1443 H   0  0  0  0  0  0  0  0  0  0  0  0
    7.2762    0.7141   -0.8099 H   0  0  0  0  0  0  0  0  0  0  0  0
    4.8835    1.2244   -0.7758 H   0  0  0  0  0  0  0  0  0  0  0  0
   -2.2967   -1.2657    2.6735 H   0  0  0  0  0  0  0  0  0  0  0  0
   -3.2445   -0.0105    1.8764 H   0  0  0  0  0  0  0  0  0  0  0  0
   -4.8454   -1.5821    1.0289 H   0  0  0  0  0  0  0  0  0  0  0  0
   -4.3552   -2.3944    2.5403 H   0  0  0  0  0  0  0  0  0  0  0  0
   -2.1546   -3.7453    2.0941 H   0  0  0  0  0  0  0  0  0  0  0  0
   -2.0885   -4.4010    0.4425 H   0  0  0  0  0  0  0  0  0  0  0  0
   -0.8778   -2.5546   -0.3774 H   0  0  0  0  0  0  0  0  0  0  0  0
   -0.4221   -2.3648    1.3274 H   0  0  0  0  0  0  0  0  0  0  0  0
   -0.8673    3.8085   -2.0316 H   0  0  0  0  0  0  0  0  0  0  0  0
   -1.4282    4.2267   -0.4291 H   0  0  0  0  0  0  0  0  0  0  0  0
   -3.0473    2.9213   -2.6636 H   0  0  0  0  0  0  0  0  0  0  0  0
   -3.3619    4.4568   -1.8519 H   0  0  0  0  0  0  0  0  0  0  0  0
   -4.8909    2.7297   -0.9640 H   0  0  0  0  0  0  0  0  0  0  0  0
   -3.7372    3.1858    0.2942 H   0  0  0  0  0  0  0  0  0  0  0  0
   -3.9494    0.7280    0.1780 H   0  0  0  0  0  0  0  0  0  0  0  0
   -3.5802    0.7425   -1.5318 H   0  0  0  0  0  0  0  0  0  0  0  0
  1  2  1  0  0  0  0
  2  3  2  0  0  0  0
  3  4  1  0  0  0  0
  4  5  2  0  0  0  0
  5  6  1  0  0  0  0
  6  7  2  0  0  0  0
  7  8  1  0  0  0  0
  8  9  2  0  0  0  0
  9 10  1  0  0  0  0
 10 11  2  0  0  0  0
  3 12  1  0  0  0  0
 12 13  2  0  0  0  0
 13 14  1  0  0  0  0
 14 15  1  0  0  0  0
 15 16  1  0  0  0  0
 16 17  1  0  0  0  0
 17 18  1  0  0  0  0
 18 19  1  0  0  0  0
 13 20  1  0  0  0  0
 20 21  2  0  0  0  0
 21 22  1  0  0  0  0
 22 23  1  0  0  0  0
 23 24  1  0  0  0  0
 24 25  1  0  0  0  0
 21  2  1  0  0  0  0
 11  6  1  0  0  0  0
 19 14  1  0  0  0  0
 25 20  1  0  0  0  0
  4 26  1  0  0  0  0
  5 27  1  0  0  0  0
  7 28  1  0  0  0  0
  8 29  1  0  0  0  0
  9 30  1  0  0  0  0
 10 31  1  0  0  0  0
 11 32  1  0  0  0  0
 15 33  1  0  0  0  0
 15 34  1  0  0  0  0
 16 35  1  0  0  0  0
 16 36  1  0  0  0  0
 18 37  1  0  0  0  0
 18 38  1  0  0  0  0
 19 39  1  0  0  0  0
 19 40  1  0  0  0  0
 22 41  1  0  0  0  0
 22 42  1  0  0  0  0
 23 43  1  0  0  0  0
 23 44  1  0  0  0  0
 24 45  1  0  0  0  0
 24 46  1  0  0  0  0
 25 47  1  0  0  0  0
 25 48  1  0  0  0  0
M  CHG  1   1  -1
M  CHG  1   2   1
M  END
