
  xtb     03022215363D
 energy: -15.879640657233 gnorm: 0.000015747861 xtb: 6.4.1 (afa7bdf)
 12 12  0     0  0            999 V2000
   -1.1183    0.8164   -0.0024 C   0  0  0  0  0  0  0  0  0  0  0  0
    0.1478    1.3766    0.0163 C   0  0  0  0  0  0  0  0  0  0  0  0
    1.2661    0.5602    0.0187 C   0  0  0  0  0  0  0  0  0  0  0  0
    1.1183   -0.8164    0.0024 C   0  0  0  0  0  0  0  0  0  0  0  0
   -0.1478   -1.3766   -0.0163 C   0  0  0  0  0  0  0  0  0  0  0  0
   -1.2661   -0.5602   -0.0188 C   0  0  0  0  0  0  0  0  0  0  0  0
   -1.9909    1.4535   -0.0043 H   0  0  0  0  0  0  0  0  0  0  0  0
    0.2631    2.4508    0.0290 H   0  0  0  0  0  0  0  0  0  0  0  0
    2.2540    0.9973    0.0334 H   0  0  0  0  0  0  0  0  0  0  0  0
    1.9909   -1.4535    0.0043 H   0  0  0  0  0  0  0  0  0  0  0  0
   -0.2631   -2.4508   -0.0291 H   0  0  0  0  0  0  0  0  0  0  0  0
   -2.2541   -0.9973   -0.0334 H   0  0  0  0  0  0  0  0  0  0  0  0
  1  2  2  0  0  0  0
  2  3  1  0  0  0  0
  3  4  2  0  0  0  0
  4  5  1  0  0  0  0
  5  6  2  0  0  0  0
  6  1  1  0  0  0  0
  1  7  1  0  0  0  0
  2  8  1  0  0  0  0
  3  9  1  0  0  0  0
  4 10  1  0  0  0  0
  5 11  1  0  0  0  0
  6 12  1  0  0  0  0
M  END
