
  xtb     03022212213D
 energy: -95.136487540346 gnorm: 0.000124756922 xtb: 6.4.1 (afa7bdf)
 56 61  0     0  0            999 V2000
   -6.0087   -0.2397   -0.3623 C   0  0  0  0  0  0  0  0  0  0  0  0
   -4.8885   -0.4762    0.6672 C   0  0  0  0  0  0  0  0  0  0  0  0
   -5.4781   -0.9774    1.9982 C   0  0  0  0  0  0  0  0  0  0  0  0
   -3.9507   -1.5335    0.1193 C   0  0  0  0  0  0  0  0  0  0  0  0
   -4.4466   -2.7987   -0.1671 C   0  0  0  0  0  0  0  0  0  0  0  0
   -3.6558   -3.7923   -0.7118 C   0  0  0  0  0  0  0  0  0  0  0  0
   -2.3342   -3.5156   -1.0087 C   0  0  0  0  0  0  0  0  0  0  0  0
   -1.8165   -2.2673   -0.7344 C   0  0  0  0  0  0  0  0  0  0  0  0
   -2.6030   -1.2756   -0.1437 C   0  0  0  0  0  0  0  0  0  0  0  0
   -2.0516   -0.0269    0.1371 N   0  0  0  0  0  0  0  0  0  0  0  0
   -0.6917    0.1975   -0.1331 C   0  0  0  0  0  0  0  0  0  0  0  0
   -0.2752    1.0755   -1.1414 C   0  0  0  0  0  0  0  0  0  0  0  0
   -1.2161    1.6991   -1.8676 F   0  0  0  0  0  0  0  0  0  0  0  0
    1.0527    1.3172   -1.4153 C   0  0  0  0  0  0  0  0  0  0  0  0
    2.0298    0.6596   -0.6676 C   0  0  0  0  0  0  0  0  0  0  0  0
    3.4211    0.9128   -0.9490 C   0  0  0  0  0  0  0  0  0  0  0  0
    3.9027    1.7104   -1.8589 N   0  0  0  0  0  0  0  0  0  0  0  0
    5.2334    1.6520   -1.7761 N   0  0  0  0  0  0  0  0  0  0  0  0
    5.5294    0.8203   -0.8171 C   0  0  0  0  0  0  0  0  0  0  0  0
    6.8498    0.4496   -0.3679 C   0  0  0  0  0  0  0  0  0  0  0  0
    7.0174   -0.4508    0.6833 C   0  0  0  0  0  0  0  0  0  0  0  0
    8.2907   -0.7888    1.0998 C   0  0  0  0  0  0  0  0  0  0  0  0
    9.3972   -0.2354    0.4751 C   0  0  0  0  0  0  0  0  0  0  0  0
    9.2319    0.6599   -0.5714 C   0  0  0  0  0  0  0  0  0  0  0  0
    7.9646    1.0056   -0.9963 C   0  0  0  0  0  0  0  0  0  0  0  0
    4.4110    0.3113   -0.2477 O   0  0  0  0  0  0  0  0  0  0  0  0
    1.6592   -0.2281    0.3415 C   0  0  0  0  0  0  0  0  0  0  0  0
    0.3201   -0.4393    0.5918 C   0  0  0  0  0  0  0  0  0  0  0  0
   -0.0303   -1.2842    1.5758 F   0  0  0  0  0  0  0  0  0  0  0  0
   -2.8132    1.0109    0.6720 C   0  0  0  0  0  0  0  0  0  0  0  0
   -2.2016    2.2210    1.0073 C   0  0  0  0  0  0  0  0  0  0  0  0
   -2.9343    3.2677    1.5261 C   0  0  0  0  0  0  0  0  0  0  0  0
   -4.2930    3.1191    1.7343 C   0  0  0  0  0  0  0  0  0  0  0  0
   -4.8916    1.9085    1.4423 C   0  0  0  0  0  0  0  0  0  0  0  0
   -4.1769    0.8379    0.9207 C   0  0  0  0  0  0  0  0  0  0  0  0
   -6.5533   -1.1582   -0.5624 H   0  0  0  0  0  0  0  0  0  0  0  0
   -6.7147    0.5036   -0.0026 H   0  0  0  0  0  0  0  0  0  0  0  0
   -5.5810    0.1172   -1.2973 H   0  0  0  0  0  0  0  0  0  0  0  0
   -6.0136   -1.9121    1.8579 H   0  0  0  0  0  0  0  0  0  0  0  0
   -6.1687   -0.2506    2.4163 H   0  0  0  0  0  0  0  0  0  0  0  0
   -4.6780   -1.1445    2.7168 H   0  0  0  0  0  0  0  0  0  0  0  0
   -5.4834   -3.0194    0.0364 H   0  0  0  0  0  0  0  0  0  0  0  0
   -4.0722   -4.7667   -0.9159 H   0  0  0  0  0  0  0  0  0  0  0  0
   -1.7033   -4.2670   -1.4593 H   0  0  0  0  0  0  0  0  0  0  0  0
   -0.7892   -2.0611   -0.9945 H   0  0  0  0  0  0  0  0  0  0  0  0
    1.3402    1.9965   -2.2005 H   0  0  0  0  0  0  0  0  0  0  0  0
    6.1507   -0.8775    1.1655 H   0  0  0  0  0  0  0  0  0  0  0  0
    8.4216   -1.4855    1.9142 H   0  0  0  0  0  0  0  0  0  0  0  0
   10.3902   -0.5024    0.8047 H   0  0  0  0  0  0  0  0  0  0  0  0
   10.0964    1.0887   -1.0554 H   0  0  0  0  0  0  0  0  0  0  0  0
    7.8094    1.6994   -1.8069 H   0  0  0  0  0  0  0  0  0  0  0  0
    2.4010   -0.7398    0.9335 H   0  0  0  0  0  0  0  0  0  0  0  0
   -1.1383    2.3477    0.8704 H   0  0  0  0  0  0  0  0  0  0  0  0
   -2.4391    4.1954    1.7699 H   0  0  0  0  0  0  0  0  0  0  0  0
   -4.8797    3.9324    2.1330 H   0  0  0  0  0  0  0  0  0  0  0  0
   -5.9487    1.7980    1.6299 H   0  0  0  0  0  0  0  0  0  0  0  0
  1  2  1  0  0  0  0
  2  3  1  0  0  0  0
  2  4  1  0  0  0  0
  4  5  2  0  0  0  0
  5  6  1  0  0  0  0
  6  7  2  0  0  0  0
  7  8  1  0  0  0  0
  8  9  2  0  0  0  0
  9 10  1  0  0  0  0
 10 11  1  0  0  0  0
 11 12  2  0  0  0  0
 12 13  1  0  0  0  0
 12 14  1  0  0  0  0
 14 15  2  0  0  0  0
 15 16  1  0  0  0  0
 16 17  2  0  0  0  0
 17 18  1  0  0  0  0
 18 19  2  0  0  0  0
 19 20  1  0  0  0  0
 20 21  2  0  0  0  0
 21 22  1  0  0  0  0
 22 23  2  0  0  0  0
 23 24  1  0  0  0  0
 24 25  2  0  0  0  0
 19 26  1  0  0  0  0
 15 27  1  0  0  0  0
 27 28  2  0  0  0  0
 28 29  1  0  0  0  0
 10 30  1  0  0  0  0
 30 31  2  0  0  0  0
 31 32  1  0  0  0  0
 32 33  2  0  0  0  0
 33 34  1  0  0  0  0
 34 35  2  0  0  0  0
 35  2  1  0  0  0  0
  9  4  1  0  0  0  0
 28 11  1  0  0  0  0
 35 30  1  0  0  0  0
 26 16  1  0  0  0  0
 25 20  1  0  0  0  0
  1 36  1  0  0  0  0
  1 37  1  0  0  0  0
  1 38  1  0  0  0  0
  3 39  1  0  0  0  0
  3 40  1  0  0  0  0
  3 41  1  0  0  0  0
  5 42  1  0  0  0  0
  6 43  1  0  0  0  0
  7 44  1  0  0  0  0
  8 45  1  0  0  0  0
 14 46  1  0  0  0  0
 21 47  1  0  0  0  0
 22 48  1  0  0  0  0
 23 49  1  0  0  0  0
 24 50  1  0  0  0  0
 25 51  1  0  0  0  0
 27 52  1  0  0  0  0
 31 53  1  0  0  0  0
 32 54  1  0  0  0  0
 33 55  1  0  0  0  0
 34 56  1  0  0  0  0
M  END
