
  xtb     03022212403D
 energy: -66.003016734689 gnorm: 0.000220775671 xtb: 6.4.1 (afa7bdf)
 42 45  0     0  0            999 V2000
    4.3069   -1.8595   -0.0306 C   0  0  0  0  0  0  0  0  0  0  0  0
    4.2057   -0.8722    1.1334 C   0  0  0  0  0  0  0  0  0  0  0  0
    3.6450    0.4077    0.7522 N   0  0  0  0  0  0  0  0  0  0  0  0
    4.5729    1.4966    0.5376 C   0  0  0  0  0  0  0  0  0  0  0  0
    5.0820    1.5915   -0.9022 C   0  0  0  0  0  0  0  0  0  0  0  0
    2.3189    0.5317    0.4575 C   0  0  0  0  0  0  0  0  0  0  0  0
    1.7906    1.7218   -0.0986 C   0  0  0  0  0  0  0  0  0  0  0  0
    0.4569    1.8598   -0.3744 C   0  0  0  0  0  0  0  0  0  0  0  0
   -0.4464    0.8202   -0.1202 C   0  0  0  0  0  0  0  0  0  0  0  0
   -1.7653    0.9586   -0.4040 N   0  0  0  0  0  0  0  0  0  0  0  0
   -2.5574   -0.0423   -0.1475 C   0  0  0  0  0  0  0  0  0  0  0  0
   -3.9721    0.0600   -0.4375 C   0  0  0  0  0  0  0  0  0  0  0  0
   -4.4966    1.2278   -0.9971 C   0  0  0  0  0  0  0  0  0  0  0  0
   -5.8433    1.3254   -1.2759 C   0  0  0  0  0  0  0  0  0  0  0  0
   -6.6925    0.2595   -1.0013 C   0  0  0  0  0  0  0  0  0  0  0  0
   -6.1861   -0.8987   -0.4479 C   0  0  0  0  0  0  0  0  0  0  0  0
   -4.8281   -1.0157   -0.1596 C   0  0  0  0  0  0  0  0  0  0  0  0
   -4.3252   -2.2770    0.4333 C   0  0  0  0  0  0  0  0  0  0  0  0
   -5.0731   -3.2157    0.6789 O   0  0  0  0  0  0  0  0  0  0  0  0
   -2.9057   -2.3252    0.6996 C   0  0  0  0  0  0  0  0  0  0  0  0
   -2.0809   -1.2858    0.4282 C   0  0  0  0  0  0  0  0  0  0  0  0
   -0.7509   -1.4157    0.7077 O   0  0  0  0  0  0  0  0  0  0  0  0
    0.0715   -0.3699    0.4348 C   0  0  0  0  0  0  0  0  0  0  0  0
    1.4157   -0.5119    0.7121 C   0  0  0  0  0  0  0  0  0  0  0  0
    4.9830   -1.4857   -0.7946 H   0  0  0  0  0  0  0  0  0  0  0  0
    4.6850   -2.8130    0.3288 H   0  0  0  0  0  0  0  0  0  0  0  0
    3.3336   -2.0194   -0.4862 H   0  0  0  0  0  0  0  0  0  0  0  0
    3.6053   -1.3070    1.9382 H   0  0  0  0  0  0  0  0  0  0  0  0
    5.2042   -0.6930    1.5376 H   0  0  0  0  0  0  0  0  0  0  0  0
    4.0951    2.4353    0.8279 H   0  0  0  0  0  0  0  0  0  0  0  0
    5.4230    1.3505    1.2094 H   0  0  0  0  0  0  0  0  0  0  0  0
    5.6944    2.4818   -1.0192 H   0  0  0  0  0  0  0  0  0  0  0  0
    4.2503    1.6438   -1.5999 H   0  0  0  0  0  0  0  0  0  0  0  0
    5.6870    0.7245   -1.1533 H   0  0  0  0  0  0  0  0  0  0  0  0
    2.4389    2.5499   -0.3280 H   0  0  0  0  0  0  0  0  0  0  0  0
    0.0720    2.7719   -0.8017 H   0  0  0  0  0  0  0  0  0  0  0  0
   -3.8206    2.0430   -1.2026 H   0  0  0  0  0  0  0  0  0  0  0  0
   -6.2398    2.2322   -1.7089 H   0  0  0  0  0  0  0  0  0  0  0  0
   -7.7470    0.3387   -1.2213 H   0  0  0  0  0  0  0  0  0  0  0  0
   -6.8239   -1.7413   -0.2249 H   0  0  0  0  0  0  0  0  0  0  0  0
   -2.5076   -3.2317    1.1299 H   0  0  0  0  0  0  0  0  0  0  0  0
    1.7245   -1.4511    1.1370 H   0  0  0  0  0  0  0  0  0  0  0  0
  1  2  1  0  0  0  0
  2  3  1  0  0  0  0
  3  4  1  0  0  0  0
  4  5  1  0  0  0  0
  3  6  1  0  0  0  0
  6  7  2  0  0  0  0
  7  8  1  0  0  0  0
  8  9  2  0  0  0  0
  9 10  1  0  0  0  0
 10 11  2  0  0  0  0
 11 12  1  0  0  0  0
 12 13  2  0  0  0  0
 13 14  1  0  0  0  0
 14 15  2  0  0  0  0
 15 16  1  0  0  0  0
 16 17  2  0  0  0  0
 17 18  1  0  0  0  0
 18 19  2  0  0  0  0
 18 20  1  0  0  0  0
 20 21  2  0  0  0  0
 21 22  1  0  0  0  0
 22 23  1  0  0  0  0
 23 24  2  0  0  0  0
 24  6  1  0  0  0  0
 23  9  1  0  0  0  0
 21 11  1  0  0  0  0
 17 12  1  0  0  0  0
  1 25  1  0  0  0  0
  1 26  1  0  0  0  0
  1 27  1  0  0  0  0
  2 28  1  0  0  0  0
  2 29  1  0  0  0  0
  4 30  1  0  0  0  0
  4 31  1  0  0  0  0
  5 32  1  0  0  0  0
  5 33  1  0  0  0  0
  5 34  1  0  0  0  0
  7 35  1  0  0  0  0
  8 36  1  0  0  0  0
 13 37  1  0  0  0  0
 14 38  1  0  0  0  0
 15 39  1  0  0  0  0
 16 40  1  0  0  0  0
 20 41  1  0  0  0  0
 24 42  1  0  0  0  0
M  END
