
  xtb     03022213043D
 energy: -59.598424420119 gnorm: 0.000195779741 xtb: 6.4.1 (afa7bdf)
 38 41  0     0  0            999 V2000
    5.8860    0.2133    0.7698 C   0  0  0  0  0  0  0  0  0  0  0  0
    5.2407    1.3124    0.2231 C   0  0  0  0  0  0  0  0  0  0  0  0
    3.8739    1.2908    0.0311 C   0  0  0  0  0  0  0  0  0  0  0  0
    3.1393    0.1598    0.3886 C   0  0  0  0  0  0  0  0  0  0  0  0
    1.7083    0.1476    0.1840 C   0  0  0  0  0  0  0  0  0  0  0  0
    0.9983    1.0995   -0.3495 N   0  0  0  0  0  0  0  0  0  0  0  0
   -0.2947    0.6614   -0.3333 C   0  0  0  0  0  0  0  0  0  0  0  0
   -1.3738    1.5195   -0.8016 C   0  0  0  0  0  0  0  0  0  0  0  0
   -2.6270    1.5110   -0.1925 C   0  0  0  0  0  0  0  0  0  0  0  0
   -3.6253    2.3509   -0.6485 C   0  0  0  0  0  0  0  0  0  0  0  0
   -3.3858    3.2106   -1.7086 C   0  0  0  0  0  0  0  0  0  0  0  0
   -2.1354    3.2384   -2.3040 C   0  0  0  0  0  0  0  0  0  0  0  0
   -1.1323    2.4027   -1.8512 C   0  0  0  0  0  0  0  0  0  0  0  0
   -0.3131   -0.6059    0.2210 C   0  0  0  0  0  0  0  0  0  0  0  0
   -1.3455   -1.6003    0.4399 C   0  0  0  0  0  0  0  0  0  0  0  0
   -2.4735   -1.6625   -0.3794 C   0  0  0  0  0  0  0  0  0  0  0  0
   -3.4378   -2.6262   -0.1582 C   0  0  0  0  0  0  0  0  0  0  0  0
   -3.2907   -3.5425    0.8715 C   0  0  0  0  0  0  0  0  0  0  0  0
   -2.1648   -3.4978    1.6769 C   0  0  0  0  0  0  0  0  0  0  0  0
   -1.1957   -2.5368    1.4633 C   0  0  0  0  0  0  0  0  0  0  0  0
    0.9680   -0.9156    0.5563 O   0  0  0  0  0  0  0  0  0  0  0  0
    3.7911   -0.9438    0.9376 C   0  0  0  0  0  0  0  0  0  0  0  0
    5.1595   -0.9120    1.1252 C   0  0  0  0  0  0  0  0  0  0  0  0
    6.9555    0.2336    0.9190 H   0  0  0  0  0  0  0  0  0  0  0  0
    5.8091    2.1883   -0.0528 H   0  0  0  0  0  0  0  0  0  0  0  0
    3.3498    2.1336   -0.3908 H   0  0  0  0  0  0  0  0  0  0  0  0
   -2.8111    0.8542    0.6452 H   0  0  0  0  0  0  0  0  0  0  0  0
   -4.5944    2.3385   -0.1713 H   0  0  0  0  0  0  0  0  0  0  0  0
   -4.1703    3.8626   -2.0637 H   0  0  0  0  0  0  0  0  0  0  0  0
   -1.9423    3.9156   -3.1232 H   0  0  0  0  0  0  0  0  0  0  0  0
   -0.1515    2.4188   -2.3010 H   0  0  0  0  0  0  0  0  0  0  0  0
   -2.5807   -0.9618   -1.1933 H   0  0  0  0  0  0  0  0  0  0  0  0
   -4.3078   -2.6669   -0.7969 H   0  0  0  0  0  0  0  0  0  0  0  0
   -4.0489   -4.2926    1.0411 H   0  0  0  0  0  0  0  0  0  0  0  0
   -2.0419   -4.2150    2.4754 H   0  0  0  0  0  0  0  0  0  0  0  0
   -0.3176   -2.4977    2.0907 H   0  0  0  0  0  0  0  0  0  0  0  0
    3.2192   -1.8180    1.2103 H   0  0  0  0  0  0  0  0  0  0  0  0
    5.6632   -1.7679    1.5500 H   0  0  0  0  0  0  0  0  0  0  0  0
  1  2  2  0  0  0  0
  2  3  1  0  0  0  0
  3  4  2  0  0  0  0
  4  5  1  0  0  0  0
  5  6  2  0  0  0  0
  6  7  1  0  0  0  0
  7  8  1  0  0  0  0
  8  9  2  0  0  0  0
  9 10  1  0  0  0  0
 10 11  2  0  0  0  0
 11 12  1  0  0  0  0
 12 13  2  0  0  0  0
  7 14  2  0  0  0  0
 14 15  1  0  0  0  0
 15 16  2  0  0  0  0
 16 17  1  0  0  0  0
 17 18  2  0  0  0  0
 18 19  1  0  0  0  0
 19 20  2  0  0  0  0
 14 21  1  0  0  0  0
  4 22  1  0  0  0  0
 22 23  2  0  0  0  0
 23  1  1  0  0  0  0
 21  5  1  0  0  0  0
 13  8  1  0  0  0  0
 20 15  1  0  0  0  0
  1 24  1  0  0  0  0
  2 25  1  0  0  0  0
  3 26  1  0  0  0  0
  9 27  1  0  0  0  0
 10 28  1  0  0  0  0
 11 29  1  0  0  0  0
 12 30  1  0  0  0  0
 13 31  1  0  0  0  0
 16 32  1  0  0  0  0
 17 33  1  0  0  0  0
 18 34  1  0  0  0  0
 19 35  1  0  0  0  0
 20 36  1  0  0  0  0
 22 37  1  0  0  0  0
 23 38  1  0  0  0  0
M  END
