
  xtb     03022212573D
 energy: -138.403049184504 gnorm: 0.000433580605 xtb: 6.4.1 (afa7bdf)
 87 95  0     0  0            999 V2000
   -0.7929    1.4935   -0.2510 C   0  0  0  0  0  0  0  0  0  0  0  0
   -0.8319    0.0964    0.2600 C   0  0  0  0  0  0  0  0  0  0  0  0
    0.2732   -0.7360    0.4203 C   0  0  0  0  0  0  0  0  0  0  0  0
    1.6760   -0.3895    0.2098 C   0  0  0  0  0  0  0  0  0  0  0  0
    2.2157    0.7729    0.7584 C   0  0  0  0  0  0  0  0  0  0  0  0
    3.5418    1.0986    0.5673 C   0  0  0  0  0  0  0  0  0  0  0  0
    4.3710    0.2721   -0.1917 C   0  0  0  0  0  0  0  0  0  0  0  0
    5.7148    0.5991   -0.3901 N   0  0  0  0  0  0  0  0  0  0  0  0
    6.0950    1.9358   -0.5526 C   0  0  0  0  0  0  0  0  0  0  0  0
    5.2788    2.8236   -1.2535 C   0  0  0  0  0  0  0  0  0  0  0  0
    5.6574    4.1427   -1.4091 C   0  0  0  0  0  0  0  0  0  0  0  0
    6.8540    4.5971   -0.8795 C   0  0  0  0  0  0  0  0  0  0  0  0
    7.6704    3.7186   -0.1861 C   0  0  0  0  0  0  0  0  0  0  0  0
    7.2966    2.3998   -0.0174 C   0  0  0  0  0  0  0  0  0  0  0  0
    6.6816   -0.4130   -0.4257 C   0  0  0  0  0  0  0  0  0  0  0  0
    6.5802   -1.5169    0.4206 C   0  0  0  0  0  0  0  0  0  0  0  0
    7.5341   -2.5150    0.3798 C   0  0  0  0  0  0  0  0  0  0  0  0
    8.6050   -2.4272   -0.4944 C   0  0  0  0  0  0  0  0  0  0  0  0
    8.7125   -1.3307   -1.3342 C   0  0  0  0  0  0  0  0  0  0  0  0
    7.7592   -0.3316   -1.3071 C   0  0  0  0  0  0  0  0  0  0  0  0
    3.8330   -0.8889   -0.7487 C   0  0  0  0  0  0  0  0  0  0  0  0
    2.5088   -1.2138   -0.5459 C   0  0  0  0  0  0  0  0  0  0  0  0
   -0.2092   -1.9994    0.8227 C   0  0  0  0  0  0  0  0  0  0  0  0
    0.5617   -3.2180    1.1522 C   0  0  0  0  0  0  0  0  0  0  0  0
   -1.5422   -1.9565    0.9096 N   0  0  0  0  0  4  0  0  0  0  0  0
   -1.9749   -0.6857    0.5804 C   0  0  0  0  0  0  0  0  0  0  0  0
   -3.3406   -0.3771    0.5595 C   0  0  0  0  0  0  0  0  0  0  0  0
   -3.7728    0.9731    0.2255 C   0  0  0  0  0  0  0  0  0  0  0  0
   -4.4597    1.4531   -0.8916 C   0  0  0  0  0  0  0  0  0  0  0  0
   -4.8968    0.6579   -2.0350 C   0  0  0  0  0  0  0  0  0  0  0  0
   -4.1488   -0.4398   -2.4679 C   0  0  0  0  0  0  0  0  0  0  0  0
   -4.6207   -1.1832   -3.5342 C   0  0  0  0  0  0  0  0  0  0  0  0
   -5.8106   -0.8086   -4.1390 C   0  0  0  0  0  0  0  0  0  0  0  0
   -6.4720    0.3045   -3.6406 C   0  0  0  0  0  0  0  0  0  0  0  0
   -6.0367    1.0148   -2.6195 N   0  0  0  0  0  0  0  0  0  0  0  0
   -4.6608    2.7807   -0.7891 N   0  0  0  0  0  0  0  0  0  0  0  0
   -4.1299    3.1533    0.3583 C   0  0  0  0  0  0  0  0  0  0  0  0
   -4.0645    4.4152    0.9650 C   0  0  0  0  0  0  0  0  0  0  0  0
   -3.4541    4.5356    2.1817 C   0  0  0  0  0  0  0  0  0  0  0  0
   -2.8994    3.4043    2.8192 C   0  0  0  0  0  0  0  0  0  0  0  0
   -2.9614    2.1802    2.2285 C   0  0  0  0  0  0  0  0  0  0  0  0
   -3.5595    2.0599    1.0189 N   0  0  0  0  0  0  0  0  0  0  0  0
   -4.2974   -1.3586    0.8291 C   0  0  0  0  0  0  0  0  0  0  0  0
   -5.7168   -1.2878    0.9363 C   0  0  0  0  0  0  0  0  0  0  0  0
   -6.6036   -0.1005    0.8226 C   0  0  0  0  0  0  0  0  0  0  0  0
   -6.1399   -2.5707    1.2285 C   0  0  0  0  0  0  0  0  0  0  0  0
   -5.0126   -3.3969    1.3110 C   0  0  0  0  0  0  0  0  0  0  0  0
   -4.9524   -4.8423    1.6166 C   0  0  0  0  0  0  0  0  0  0  0  0
   -3.9176   -2.6644    1.0793 N   0  0  0  0  0  0  0  0  0  0  0  0
   -2.4650   -3.1554    1.2049 B   0  0  0  0  0  4  0  0  0  0  0  0
   -2.2415   -3.6265    2.4906 F   0  0  0  0  0  0  0  0  0  0  0  0
   -2.2150   -4.1690    0.2952 F   0  0  0  0  0  0  0  0  0  0  0  0
   -0.8928    2.2196    0.5577 H   0  0  0  0  0  0  0  0  0  0  0  0
    0.1603    1.6709   -0.7450 H   0  0  0  0  0  0  0  0  0  0  0  0
   -1.5964    1.6716   -0.9644 H   0  0  0  0  0  0  0  0  0  0  0  0
    1.5942    1.4119    1.3678 H   0  0  0  0  0  0  0  0  0  0  0  0
    3.9492    1.9947    1.0122 H   0  0  0  0  0  0  0  0  0  0  0  0
    4.3507    2.4695   -1.6780 H   0  0  0  0  0  0  0  0  0  0  0  0
    5.0168    4.8185   -1.9566 H   0  0  0  0  0  0  0  0  0  0  0  0
    7.1483    5.6277   -1.0067 H   0  0  0  0  0  0  0  0  0  0  0  0
    8.6030    4.0647    0.2349 H   0  0  0  0  0  0  0  0  0  0  0  0
    7.9307    1.7196    0.5322 H   0  0  0  0  0  0  0  0  0  0  0  0
    5.7519   -1.5824    1.1109 H   0  0  0  0  0  0  0  0  0  0  0  0
    7.4445   -3.3634    1.0423 H   0  0  0  0  0  0  0  0  0  0  0  0
    9.3503   -3.2074   -0.5210 H   0  0  0  0  0  0  0  0  0  0  0  0
    9.5412   -1.2562   -2.0230 H   0  0  0  0  0  0  0  0  0  0  0  0
    7.8402    0.5175   -1.9700 H   0  0  0  0  0  0  0  0  0  0  0  0
    4.4622   -1.5302   -1.3483 H   0  0  0  0  0  0  0  0  0  0  0  0
    2.1029   -2.1029   -1.0041 H   0  0  0  0  0  0  0  0  0  0  0  0
    0.1589   -3.6728    2.0548 H   0  0  0  0  0  0  0  0  0  0  0  0
    0.4550   -3.9511    0.3523 H   0  0  0  0  0  0  0  0  0  0  0  0
    1.6134   -2.9823    1.2899 H   0  0  0  0  0  0  0  0  0  0  0  0
   -3.2177   -0.6949   -1.9868 H   0  0  0  0  0  0  0  0  0  0  0  0
   -4.0663   -2.0404   -3.8880 H   0  0  0  0  0  0  0  0  0  0  0  0
   -6.2125   -1.3625   -4.9730 H   0  0  0  0  0  0  0  0  0  0  0  0
   -7.4041    0.6427   -4.0748 H   0  0  0  0  0  0  0  0  0  0  0  0
   -4.5046    5.2521    0.4499 H   0  0  0  0  0  0  0  0  0  0  0  0
   -3.3921    5.4955    2.6692 H   0  0  0  0  0  0  0  0  0  0  0  0
   -2.4226    3.5077    3.7802 H   0  0  0  0  0  0  0  0  0  0  0  0
   -2.5568    1.2801    2.6666 H   0  0  0  0  0  0  0  0  0  0  0  0
   -6.2053    0.7453    1.3805 H   0  0  0  0  0  0  0  0  0  0  0  0
   -6.7210    0.2118   -0.2145 H   0  0  0  0  0  0  0  0  0  0  0  0
   -7.5873   -0.3465    1.2165 H   0  0  0  0  0  0  0  0  0  0  0  0
   -7.1532   -2.8890    1.3783 H   0  0  0  0  0  0  0  0  0  0  0  0
   -4.4100   -5.3647    0.8304 H   0  0  0  0  0  0  0  0  0  0  0  0
   -4.3983   -4.9987    2.5414 H   0  0  0  0  0  0  0  0  0  0  0  0
   -5.9518   -5.2556    1.7145 H   0  0  0  0  0  0  0  0  0  0  0  0
  1  2  1  0  0  0  0
  2  3  2  0  0  0  0
  3  4  1  0  0  0  0
  4  5  2  0  0  0  0
  5  6  1  0  0  0  0
  6  7  2  0  0  0  0
  7  8  1  0  0  0  0
  8  9  1  0  0  0  0
  9 10  2  0  0  0  0
 10 11  1  0  0  0  0
 11 12  2  0  0  0  0
 12 13  1  0  0  0  0
 13 14  2  0  0  0  0
  8 15  1  0  0  0  0
 15 16  2  0  0  0  0
 16 17  1  0  0  0  0
 17 18  2  0  0  0  0
 18 19  1  0  0  0  0
 19 20  2  0  0  0  0
  7 21  1  0  0  0  0
 21 22  2  0  0  0  0
  3 23  1  0  0  0  0
 23 24  1  0  0  0  0
 23 25  2  0  0  0  0
 25 26  1  0  0  0  0
 26 27  2  0  0  0  0
 27 28  1  0  0  0  0
 28 29  2  0  0  0  0
 29 30  1  0  0  0  0
 30 31  2  0  0  0  0
 31 32  1  0  0  0  0
 32 33  2  0  0  0  0
 33 34  1  0  0  0  0
 34 35  2  0  0  0  0
 29 36  1  0  0  0  0
 36 37  2  0  0  0  0
 37 38  1  0  0  0  0
 38 39  2  0  0  0  0
 39 40  1  0  0  0  0
 40 41  2  0  0  0  0
 41 42  1  0  0  0  0
 27 43  1  0  0  0  0
 43 44  2  0  0  0  0
 44 45  1  0  0  0  0
 44 46  1  0  0  0  0
 46 47  2  0  0  0  0
 47 48  1  0  0  0  0
 47 49  1  0  0  0  0
 49 50  1  0  0  0  0
 50 51  1  0  0  0  0
 50 52  1  0  0  0  0
 26  2  1  0  0  0  0
 42 28  1  0  0  0  0
 49 43  1  0  0  0  0
 22  4  1  0  0  0  0
 50 25  1  0  0  0  0
 14  9  1  0  0  0  0
 20 15  1  0  0  0  0
 35 30  1  0  0  0  0
 42 37  1  0  0  0  0
  1 53  1  0  0  0  0
  1 54  1  0  0  0  0
  1 55  1  0  0  0  0
  5 56  1  0  0  0  0
  6 57  1  0  0  0  0
 10 58  1  0  0  0  0
 11 59  1  0  0  0  0
 12 60  1  0  0  0  0
 13 61  1  0  0  0  0
 14 62  1  0  0  0  0
 16 63  1  0  0  0  0
 17 64  1  0  0  0  0
 18 65  1  0  0  0  0
 19 66  1  0  0  0  0
 20 67  1  0  0  0  0
 21 68  1  0  0  0  0
 22 69  1  0  0  0  0
 24 70  1  0  0  0  0
 24 71  1  0  0  0  0
 24 72  1  0  0  0  0
 31 73  1  0  0  0  0
 32 74  1  0  0  0  0
 33 75  1  0  0  0  0
 34 76  1  0  0  0  0
 38 77  1  0  0  0  0
 39 78  1  0  0  0  0
 40 79  1  0  0  0  0
 41 80  1  0  0  0  0
 45 81  1  0  0  0  0
 45 82  1  0  0  0  0
 45 83  1  0  0  0  0
 46 84  1  0  0  0  0
 48 85  1  0  0  0  0
 48 86  1  0  0  0  0
 48 87  1  0  0  0  0
M  CHG  1  25   1
M  CHG  1  50  -1
M  END
