
  xtb     03022212253D
 energy: -111.975936309750 gnorm: 0.000169848478 xtb: 6.4.1 (afa7bdf)
 68 71  0     0  0            999 V2000
   11.0730    0.8361   -1.8064 C   0  0  0  0  0  0  0  0  0  0  0  0
    9.6835    1.0199   -1.5927 O   0  0  0  0  0  0  0  0  0  0  0  0
    9.2596    2.3002   -1.5961 C   0  0  0  0  0  0  0  0  0  0  0  0
   10.0065    3.2347   -1.7689 O   0  0  0  0  0  0  0  0  0  0  0  0
    7.8177    2.4295   -1.3712 C   0  0  0  0  0  0  0  0  0  0  0  0
    6.9852    1.3909   -1.1853 C   0  0  0  0  0  0  0  0  0  0  0  0
    5.5796    1.5324   -0.9668 C   0  0  0  0  0  0  0  0  0  0  0  0
    4.7590    0.4798   -0.7823 C   0  0  0  0  0  0  0  0  0  0  0  0
    3.3451    0.5568   -0.5577 C   0  0  0  0  0  0  0  0  0  0  0  0
    2.4799   -0.5159   -0.3553 C   0  0  0  0  0  0  0  0  0  0  0  0
    1.1900    0.0150   -0.1736 C   0  0  0  0  0  0  0  0  0  0  0  0
   -0.0242   -0.6284    0.0612 C   0  0  0  0  0  0  0  0  0  0  0  0
   -0.0733   -2.1003    0.1588 C   0  0  0  0  0  0  0  0  0  0  0  0
   -0.4045   -2.8563   -0.9657 C   0  0  0  0  0  0  0  0  0  0  0  0
   -0.7062   -2.1768   -2.2669 C   0  0  0  0  0  0  0  0  0  0  0  0
   -0.4421   -4.2385   -0.8553 C   0  0  0  0  0  0  0  0  0  0  0  0
   -0.1615   -4.8771    0.3430 C   0  0  0  0  0  0  0  0  0  0  0  0
   -0.2089   -6.3697    0.4580 C   0  0  0  0  0  0  0  0  0  0  0  0
    0.1642   -4.1027    1.4495 C   0  0  0  0  0  0  0  0  0  0  0  0
    0.2146   -2.7206    1.3766 C   0  0  0  0  0  0  0  0  0  0  0  0
    0.5656   -1.8943    2.5766 C   0  0  0  0  0  0  0  0  0  0  0  0
   -1.1903    0.1217    0.2050 C   0  0  0  0  0  0  0  0  0  0  0  0
   -2.5125   -0.2908    0.4507 C   0  0  0  0  0  0  0  0  0  0  0  0
   -3.3005    0.8563    0.5102 C   0  0  0  0  0  0  0  0  0  0  0  0
   -4.7146    0.9066    0.7405 C   0  0  0  0  0  0  0  0  0  0  0  0
   -5.4604    2.0278    0.7882 C   0  0  0  0  0  0  0  0  0  0  0  0
   -6.8707    2.0103    1.0215 C   0  0  0  0  0  0  0  0  0  0  0  0
   -7.6314    3.1171    1.0734 C   0  0  0  0  0  0  0  0  0  0  0  0
   -9.0769    3.1122    1.3121 C   0  0  0  0  0  0  0  0  0  0  0  0
   -9.7604    4.1078    1.3629 O   0  0  0  0  0  0  0  0  0  0  0  0
   -9.5827    1.8723    1.4725 O   0  0  0  0  0  0  0  0  0  0  0  0
  -10.9795    1.8078    1.7069 C   0  0  0  0  0  0  0  0  0  0  0  0
   -2.4163    1.9408    0.2971 C   0  0  0  0  0  0  0  0  0  0  0  0
   -1.1814    1.5012    0.1198 N   0  0  0  0  0  0  0  0  0  0  0  0
    0.0790    2.3674   -0.1366 B   0  0  0  0  0  4  0  0  0  0  0  0
   -0.0729    3.0785   -1.3034 F   0  0  0  0  0  0  0  0  0  0  0  0
    0.2841    3.2173    0.9244 F   0  0  0  0  0  0  0  0  0  0  0  0
    1.2765    1.3911   -0.2684 N   0  0  0  0  0  4  0  0  0  0  0  0
    2.5384    1.7180   -0.4931 C   0  0  0  0  0  0  0  0  0  0  0  0
   11.3665    1.2450   -2.7758 H   0  0  0  0  0  0  0  0  0  0  0  0
   11.2471   -0.2365   -1.7755 H   0  0  0  0  0  0  0  0  0  0  0  0
   11.6481    1.3411   -1.0271 H   0  0  0  0  0  0  0  0  0  0  0  0
    7.4583    3.4486   -1.3656 H   0  0  0  0  0  0  0  0  0  0  0  0
    7.3867    0.3864   -1.1991 H   0  0  0  0  0  0  0  0  0  0  0  0
    5.1859    2.5386   -0.9535 H   0  0  0  0  0  0  0  0  0  0  0  0
    5.1722   -0.5212   -0.7984 H   0  0  0  0  0  0  0  0  0  0  0  0
    2.7278   -1.5594   -0.3381 H   0  0  0  0  0  0  0  0  0  0  0  0
   -0.8674   -2.9081   -3.0543 H   0  0  0  0  0  0  0  0  0  0  0  0
   -1.6003   -1.5604   -2.1776 H   0  0  0  0  0  0  0  0  0  0  0  0
    0.1156   -1.5238   -2.5582 H   0  0  0  0  0  0  0  0  0  0  0  0
   -0.6954   -4.8271   -1.7254 H   0  0  0  0  0  0  0  0  0  0  0  0
   -0.4167   -6.8295   -0.5044 H   0  0  0  0  0  0  0  0  0  0  0  0
    0.7398   -6.7524    0.8309 H   0  0  0  0  0  0  0  0  0  0  0  0
   -0.9858   -6.6690    1.1606 H   0  0  0  0  0  0  0  0  0  0  0  0
    0.3834   -4.5898    2.3888 H   0  0  0  0  0  0  0  0  0  0  0  0
    1.4964   -1.3533    2.4087 H   0  0  0  0  0  0  0  0  0  0  0  0
   -0.2117   -1.1575    2.7755 H   0  0  0  0  0  0  0  0  0  0  0  0
    0.6843   -2.5231    3.4549 H   0  0  0  0  0  0  0  0  0  0  0  0
   -2.8317   -1.3080    0.5686 H   0  0  0  0  0  0  0  0  0  0  0  0
   -5.1953   -0.0533    0.8837 H   0  0  0  0  0  0  0  0  0  0  0  0
   -4.9997    2.9951    0.6471 H   0  0  0  0  0  0  0  0  0  0  0  0
   -7.3379    1.0449    1.1626 H   0  0  0  0  0  0  0  0  0  0  0  0
   -7.2061    4.1014    0.9386 H   0  0  0  0  0  0  0  0  0  0  0  0
  -11.2225    0.7535    1.8131 H   0  0  0  0  0  0  0  0  0  0  0  0
  -11.2388    2.3551    2.6159 H   0  0  0  0  0  0  0  0  0  0  0  0
  -11.5268    2.2455    0.8690 H   0  0  0  0  0  0  0  0  0  0  0  0
   -2.6283    2.9920    0.2689 H   0  0  0  0  0  0  0  0  0  0  0  0
    2.8225    2.7469   -0.6001 H   0  0  0  0  0  0  0  0  0  0  0  0
  1  2  1  0  0  0  0
  2  3  1  0  0  0  0
  3  4  2  0  0  0  0
  3  5  1  0  0  0  0
  5  6  2  0  0  0  0
  6  7  1  0  0  0  0
  7  8  2  0  0  0  0
  8  9  1  0  0  0  0
  9 10  2  0  0  0  0
 10 11  1  0  0  0  0
 11 12  2  0  0  0  0
 12 13  1  0  0  0  0
 13 14  2  0  0  0  0
 14 15  1  0  0  0  0
 14 16  1  0  0  0  0
 16 17  2  0  0  0  0
 17 18  1  0  0  0  0
 17 19  1  0  0  0  0
 19 20  2  0  0  0  0
 20 21  1  0  0  0  0
 12 22  1  0  0  0  0
 22 23  2  0  0  0  0
 23 24  1  0  0  0  0
 24 25  1  0  0  0  0
 25 26  2  0  0  0  0
 26 27  1  0  0  0  0
 27 28  2  0  0  0  0
 28 29  1  0  0  0  0
 29 30  2  0  0  0  0
 29 31  1  0  0  0  0
 31 32  1  0  0  0  0
 24 33  2  0  0  0  0
 33 34  1  0  0  0  0
 34 35  1  0  0  0  0
 35 36  1  0  0  0  0
 35 37  1  0  0  0  0
 35 38  1  0  0  0  0
 38 39  2  0  0  0  0
 39  9  1  0  0  0  0
 38 11  1  0  0  0  0
 20 13  1  0  0  0  0
 34 22  1  0  0  0  0
  1 40  1  0  0  0  0
  1 41  1  0  0  0  0
  1 42  1  0  0  0  0
  5 43  1  0  0  0  0
  6 44  1  0  0  0  0
  7 45  1  0  0  0  0
  8 46  1  0  0  0  0
 10 47  1  0  0  0  0
 15 48  1  0  0  0  0
 15 49  1  0  0  0  0
 15 50  1  0  0  0  0
 16 51  1  0  0  0  0
 18 52  1  0  0  0  0
 18 53  1  0  0  0  0
 18 54  1  0  0  0  0
 19 55  1  0  0  0  0
 21 56  1  0  0  0  0
 21 57  1  0  0  0  0
 21 58  1  0  0  0  0
 23 59  1  0  0  0  0
 25 60  1  0  0  0  0
 26 61  1  0  0  0  0
 27 62  1  0  0  0  0
 28 63  1  0  0  0  0
 32 64  1  0  0  0  0
 32 65  1  0  0  0  0
 32 66  1  0  0  0  0
 33 67  1  0  0  0  0
 39 68  1  0  0  0  0
M  CHG  1  35  -1
M  CHG  1  38   1
M  END
