
  xtb     03022215253D
 energy: -50.793850761981 gnorm: 0.000199220430 xtb: 6.4.1 (afa7bdf)
 30 32  0     0  0            999 V2000
   -6.6185    0.4874   -0.7046 C   0  0  0  0  0  0  0  0  0  0  0  0
   -6.0427   -1.1353   -0.1281 S   0  0  0  0  0  0  0  0  0  0  0  0
   -4.3136   -0.9404    0.0780 C   0  0  0  0  0  0  0  0  0  0  0  0
   -3.6202   -2.0605    0.5512 C   0  0  0  0  0  0  0  0  0  0  0  0
   -2.2634   -2.0065    0.7439 C   0  0  0  0  0  0  0  0  0  0  0  0
   -1.5566   -0.8234    0.4730 C   0  0  0  0  0  0  0  0  0  0  0  0
   -0.2030   -0.8675    0.6707 N   0  0  0  0  0  0  0  0  0  0  0  0
    0.4342    0.2232    0.5582 N   0  0  0  0  0  0  0  0  0  0  0  0
    1.7634    0.2829    0.5304 C   0  0  0  0  0  0  0  0  0  0  0  0
    2.5906   -0.4764   -0.1058 N   0  0  0  0  0  0  0  0  0  0  0  0
    3.8510    0.0144   -0.0996 C   0  0  0  0  0  0  0  0  0  0  0  0
    4.9592   -0.5850   -0.6985 C   0  0  0  0  0  0  0  0  0  0  0  0
    6.1917    0.0161   -0.5724 C   0  0  0  0  0  0  0  0  0  0  0  0
    6.3437    1.2094    0.1334 C   0  0  0  0  0  0  0  0  0  0  0  0
    5.2616    1.8264    0.7313 C   0  0  0  0  0  0  0  0  0  0  0  0
    4.0181    1.2319    0.6092 C   0  0  0  0  0  0  0  0  0  0  0  0
    2.4893    1.7707    1.2290 S   0  0  0  0  0  0  0  0  0  0  0  0
   -2.2597    0.2939   -0.0065 C   0  0  0  0  0  0  0  0  0  0  0  0
   -3.6189    0.2367   -0.2017 C   0  0  0  0  0  0  0  0  0  0  0  0
   -7.6939    0.3906   -0.8175 H   0  0  0  0  0  0  0  0  0  0  0  0
   -6.3934    1.2466    0.0383 H   0  0  0  0  0  0  0  0  0  0  0  0
   -6.1680    0.7237   -1.6640 H   0  0  0  0  0  0  0  0  0  0  0  0
   -4.1732   -2.9640    0.7591 H   0  0  0  0  0  0  0  0  0  0  0  0
   -1.7155   -2.8612    1.1073 H   0  0  0  0  0  0  0  0  0  0  0  0
    4.8277   -1.5087   -1.2386 H   0  0  0  0  0  0  0  0  0  0  0  0
    7.0577   -0.4421   -1.0265 H   0  0  0  0  0  0  0  0  0  0  0  0
    7.3214    1.6601    0.2127 H   0  0  0  0  0  0  0  0  0  0  0  0
    5.3754    2.7505    1.2763 H   0  0  0  0  0  0  0  0  0  0  0  0
   -1.7098    1.1983   -0.2199 H   0  0  0  0  0  0  0  0  0  0  0  0
   -4.1347    1.1082   -0.5726 H   0  0  0  0  0  0  0  0  0  0  0  0
  1  2  1  0  0  0  0
  2  3  1  0  0  0  0
  3  4  2  0  0  0  0
  4  5  1  0  0  0  0
  5  6  2  0  0  0  0
  6  7  1  0  0  0  0
  7  8  2  0  0  0  0
  8  9  1  0  0  0  0
  9 10  2  0  0  0  0
 10 11  1  0  0  0  0
 11 12  2  0  0  0  0
 12 13  1  0  0  0  0
 13 14  2  0  0  0  0
 14 15  1  0  0  0  0
 15 16  2  0  0  0  0
 16 17  1  0  0  0  0
  6 18  1  0  0  0  0
 18 19  2  0  0  0  0
 19  3  1  0  0  0  0
 17  9  1  0  0  0  0
 16 11  1  0  0  0  0
  1 20  1  0  0  0  0
  1 21  1  0  0  0  0
  1 22  1  0  0  0  0
  4 23  1  0  0  0  0
  5 24  1  0  0  0  0
 12 25  1  0  0  0  0
 13 26  1  0  0  0  0
 14 27  1  0  0  0  0
 15 28  1  0  0  0  0
 18 29  1  0  0  0  0
 19 30  1  0  0  0  0
M  END
