
  xtb     03022214203D
 energy: -33.498081692558 gnorm: 0.000101962851 xtb: 6.4.1 (afa7bdf)
 21 23  0     0  0            999 V2000
   -3.2694   -0.0761    0.1081 C   0  0  0  0  0  0  0  0  0  0  0  0
   -2.7197   -1.2563    0.6046 C   0  0  0  0  0  0  0  0  0  0  0  0
   -1.3523   -1.4417    0.6530 C   0  0  0  0  0  0  0  0  0  0  0  0
   -0.5277   -0.4223    0.1943 C   0  0  0  0  0  0  0  0  0  0  0  0
   -1.0969    0.7730   -0.3082 C   0  0  0  0  0  0  0  0  0  0  0  0
   -2.4702    0.9527   -0.3541 C   0  0  0  0  0  0  0  0  0  0  0  0
   -0.0885    1.6224   -0.6978 N   0  0  0  0  0  0  0  0  0  0  0  0
    1.1150    1.0231   -0.4670 C   0  0  0  0  0  0  0  0  0  0  0  0
    2.2968    1.5561   -0.7241 N   0  0  0  0  0  0  0  0  0  0  0  0
    3.3396    0.7975   -0.4209 C   0  0  0  0  0  0  0  0  0  0  0  0
    3.2521   -0.4772    0.1309 C   0  0  0  0  0  0  0  0  0  0  0  0
    2.0092   -1.0307    0.3983 C   0  0  0  0  0  0  0  0  0  0  0  0
    0.8952   -0.2648    0.0936 C   0  0  0  0  0  0  0  0  0  0  0  0
   -4.3432    0.0364    0.0843 H   0  0  0  0  0  0  0  0  0  0  0  0
   -3.3784   -2.0364    0.9562 H   0  0  0  0  0  0  0  0  0  0  0  0
   -0.9293   -2.3572    1.0382 H   0  0  0  0  0  0  0  0  0  0  0  0
   -2.9001    1.8657   -0.7380 H   0  0  0  0  0  0  0  0  0  0  0  0
   -0.2047    2.5403   -1.0911 H   0  0  0  0  0  0  0  0  0  0  0  0
    4.3032    1.2403   -0.6341 H   0  0  0  0  0  0  0  0  0  0  0  0
    4.1549   -1.0269    0.3472 H   0  0  0  0  0  0  0  0  0  0  0  0
    1.9142   -2.0181    0.8265 H   0  0  0  0  0  0  0  0  0  0  0  0
  1  2  2  0  0  0  0
  2  3  1  0  0  0  0
  3  4  2  0  0  0  0
  4  5  1  0  0  0  0
  5  6  2  0  0  0  0
  5  7  1  0  0  0  0
  7  8  1  0  0  0  0
  8  9  2  0  0  0  0
  9 10  1  0  0  0  0
 10 11  2  0  0  0  0
 11 12  1  0  0  0  0
 12 13  2  0  0  0  0
  6  1  1  0  0  0  0
 13  8  1  0  0  0  0
 13  4  1  0  0  0  0
  1 14  1  0  0  0  0
  2 15  1  0  0  0  0
  3 16  1  0  0  0  0
  6 17  1  0  0  0  0
  7 18  1  0  0  0  0
 10 19  1  0  0  0  0
 11 20  1  0  0  0  0
 12 21  1  0  0  0  0
M  END
