
  xtb     03022214593D
 energy: -64.907766411550 gnorm: 0.000200278668 xtb: 6.4.1 (afa7bdf)
 34 36  0     0  0            999 V2000
    2.4978   -0.8814   -4.1599 N   0  0  0  0  0  0  0  0  0  0  0  0
    1.7801   -0.6904   -3.2838 C   0  0  0  0  0  0  0  0  0  0  0  0
    0.9314   -0.4535   -2.2000 C   0  0  0  0  0  0  0  0  0  0  0  0
   -0.3879   -0.3414   -2.3056 N   0  0  0  0  0  0  0  0  0  0  0  0
   -0.8175   -0.1163   -1.0920 N   0  0  0  0  0  0  0  0  0  0  0  0
   -2.1577    0.0606   -0.7932 C   0  0  0  0  0  0  0  0  0  0  0  0
   -3.1110   -0.0113   -1.8058 C   0  0  0  0  0  0  0  0  0  0  0  0
   -4.4456    0.1684   -1.4974 C   0  0  0  0  0  0  0  0  0  0  0  0
   -4.8379    0.4194   -0.1926 C   0  0  0  0  0  0  0  0  0  0  0  0
   -3.8747    0.4889    0.8083 C   0  0  0  0  0  0  0  0  0  0  0  0
   -4.3276    0.7617    2.2154 C   0  0  0  0  0  0  0  0  0  0  0  0
   -5.0114    1.9171    2.3110 F   0  0  0  0  0  0  0  0  0  0  0  0
   -3.3211    0.8439    3.0943 F   0  0  0  0  0  0  0  0  0  0  0  0
   -5.1558   -0.1954    2.6742 F   0  0  0  0  0  0  0  0  0  0  0  0
   -2.5324    0.3107    0.5235 C   0  0  0  0  0  0  0  0  0  0  0  0
    0.1315   -0.0672   -0.1548 N   0  0  0  0  0  0  0  0  0  0  0  0
    1.2689   -0.2773   -0.8118 C   0  0  0  0  0  0  0  0  0  0  0  0
    2.4640   -0.3129   -0.2225 N   0  0  0  0  0  0  0  0  0  0  0  0
    2.6318   -0.0431    1.1914 C   0  0  0  0  0  0  0  0  0  0  0  0
    4.1178    0.2791    1.3174 C   0  0  0  0  0  0  0  0  0  0  0  0
    4.7410   -0.5828    0.2193 C   0  0  0  0  0  0  0  0  0  0  0  0
    3.7230   -0.4841   -0.9158 C   0  0  0  0  0  0  0  0  0  0  0  0
   -2.7872   -0.2067   -2.8155 H   0  0  0  0  0  0  0  0  0  0  0  0
   -5.1881    0.1131   -2.2777 H   0  0  0  0  0  0  0  0  0  0  0  0
   -5.8784    0.5616    0.0539 H   0  0  0  0  0  0  0  0  0  0  0  0
   -1.7768    0.3607    1.2908 H   0  0  0  0  0  0  0  0  0  0  0  0
    2.3640   -0.9326    1.7743 H   0  0  0  0  0  0  0  0  0  0  0  0
    1.9769    0.7751    1.4982 H   0  0  0  0  0  0  0  0  0  0  0  0
    4.5086    0.0491    2.3056 H   0  0  0  0  0  0  0  0  0  0  0  0
    4.2921    1.3350    1.1078 H   0  0  0  0  0  0  0  0  0  0  0  0
    5.7259   -0.2358   -0.0833 H   0  0  0  0  0  0  0  0  0  0  0  0
    4.8224   -1.6159    0.5583 H   0  0  0  0  0  0  0  0  0  0  0  0
    3.7063   -1.3775   -1.5457 H   0  0  0  0  0  0  0  0  0  0  0  0
    3.9278    0.3812   -1.5597 H   0  0  0  0  0  0  0  0  0  0  0  0
  1  2  3  0  0  0  0
  2  3  1  0  0  0  0
  3  4  2  0  0  0  0
  4  5  1  0  0  0  0
  5  6  1  0  0  0  0
  6  7  2  0  0  0  0
  7  8  1  0  0  0  0
  8  9  2  0  0  0  0
  9 10  1  0  0  0  0
 10 11  1  0  0  0  0
 11 12  1  0  0  0  0
 11 13  1  0  0  0  0
 11 14  1  0  0  0  0
 10 15  2  0  0  0  0
  5 16  1  0  0  0  0
 16 17  2  0  0  0  0
 17 18  1  0  0  0  0
 18 19  1  0  0  0  0
 19 20  1  0  0  0  0
 20 21  1  0  0  0  0
 21 22  1  0  0  0  0
 17  3  1  0  0  0  0
 22 18  1  0  0  0  0
 15  6  1  0  0  0  0
  7 23  1  0  0  0  0
  8 24  1  0  0  0  0
  9 25  1  0  0  0  0
 15 26  1  0  0  0  0
 19 27  1  0  0  0  0
 19 28  1  0  0  0  0
 20 29  1  0  0  0  0
 20 30  1  0  0  0  0
 21 31  1  0  0  0  0
 21 32  1  0  0  0  0
 22 33  1  0  0  0  0
 22 34  1  0  0  0  0
M  END
