
  xtb     03022214213D
 energy: -74.826652985208 gnorm: 0.000119723855 xtb: 6.4.1 (afa7bdf)
 51 54  0     0  0            999 V2000
    4.6280    0.2181   -0.0039 C   0  0  0  0  0  0  0  0  0  0  0  0
    3.2279   -0.0452   -0.0966 C   0  0  0  0  0  0  0  0  0  0  0  0
    2.2865    0.8550    0.2518 C   0  0  0  0  0  0  0  0  0  0  0  0
    0.8559    0.6851    0.1959 C   0  0  0  0  0  0  0  0  0  0  0  0
    0.0276    1.7458    0.5860 C   0  0  0  0  0  0  0  0  0  0  0  0
   -1.3434    1.6416    0.5516 C   0  0  0  0  0  0  0  0  0  0  0  0
   -1.9525    0.4588    0.1241 C   0  0  0  0  0  0  0  0  0  0  0  0
   -3.3396    0.3434    0.0864 N   0  0  0  0  0  0  0  0  0  0  0  0
   -4.1295    0.9905    1.0459 C   0  0  0  0  0  0  0  0  0  0  0  0
   -5.3480    1.5644    0.6849 C   0  0  0  0  0  0  0  0  0  0  0  0
   -6.1285    2.1939    1.6350 C   0  0  0  0  0  0  0  0  0  0  0  0
   -5.7066    2.2690    2.9523 C   0  0  0  0  0  0  0  0  0  0  0  0
   -4.4955    1.7026    3.3152 C   0  0  0  0  0  0  0  0  0  0  0  0
   -3.7119    1.0633    2.3743 C   0  0  0  0  0  0  0  0  0  0  0  0
   -3.9568   -0.4194   -0.9144 C   0  0  0  0  0  0  0  0  0  0  0  0
   -5.0772   -1.1952   -0.6194 C   0  0  0  0  0  0  0  0  0  0  0  0
   -5.6881   -1.9387   -1.6104 C   0  0  0  0  0  0  0  0  0  0  0  0
   -5.1910   -1.9277   -2.9033 C   0  0  0  0  0  0  0  0  0  0  0  0
   -4.0763   -1.1608   -3.2005 C   0  0  0  0  0  0  0  0  0  0  0  0
   -3.4631   -0.4074   -2.2184 C   0  0  0  0  0  0  0  0  0  0  0  0
   -1.1366   -0.6079   -0.2652 C   0  0  0  0  0  0  0  0  0  0  0  0
    0.2335   -0.4949   -0.2304 C   0  0  0  0  0  0  0  0  0  0  0  0
    5.5742   -0.6793   -0.3420 C   0  0  0  0  0  0  0  0  0  0  0  0
    7.0051   -0.4891   -0.2737 C   0  0  0  0  0  0  0  0  0  0  0  0
    7.6178    0.7074    0.1177 C   0  0  0  0  0  0  0  0  0  0  0  0
    8.9976    0.7781    0.1477 C   0  0  0  0  0  0  0  0  0  0  0  0
    9.7965   -0.2273   -0.1741 N   0  0  0  0  0  0  0  0  0  0  0  0
    9.2271   -1.3627   -0.5464 C   0  0  0  0  0  0  0  0  0  0  0  0
    7.8592   -1.5458   -0.6142 C   0  0  0  0  0  0  0  0  0  0  0  0
    4.9076    1.1965    0.3631 H   0  0  0  0  0  0  0  0  0  0  0  0
    2.9471   -1.0214   -0.4668 H   0  0  0  0  0  0  0  0  0  0  0  0
    2.6179    1.8207    0.6167 H   0  0  0  0  0  0  0  0  0  0  0  0
    0.4781    2.6724    0.9127 H   0  0  0  0  0  0  0  0  0  0  0  0
   -1.9588    2.4786    0.8474 H   0  0  0  0  0  0  0  0  0  0  0  0
   -5.6744    1.5145   -0.3436 H   0  0  0  0  0  0  0  0  0  0  0  0
   -7.0694    2.6361    1.3423 H   0  0  0  0  0  0  0  0  0  0  0  0
   -6.3176    2.7647    3.6912 H   0  0  0  0  0  0  0  0  0  0  0  0
   -4.1617    1.7507    4.3413 H   0  0  0  0  0  0  0  0  0  0  0  0
   -2.7734    0.6119    2.6617 H   0  0  0  0  0  0  0  0  0  0  0  0
   -5.4609   -1.2112    0.3903 H   0  0  0  0  0  0  0  0  0  0  0  0
   -6.5542   -2.5371   -1.3689 H   0  0  0  0  0  0  0  0  0  0  0  0
   -5.6693   -2.5123   -3.6743 H   0  0  0  0  0  0  0  0  0  0  0  0
   -3.6857   -1.1413   -4.2073 H   0  0  0  0  0  0  0  0  0  0  0  0
   -2.6008    0.1990   -2.4543 H   0  0  0  0  0  0  0  0  0  0  0  0
   -1.5941   -1.5320   -0.5873 H   0  0  0  0  0  0  0  0  0  0  0  0
    0.8322   -1.3411   -0.5291 H   0  0  0  0  0  0  0  0  0  0  0  0
    5.2574   -1.6522   -0.6994 H   0  0  0  0  0  0  0  0  0  0  0  0
    7.0304    1.5694    0.3912 H   0  0  0  0  0  0  0  0  0  0  0  0
    9.4987    1.6907    0.4455 H   0  0  0  0  0  0  0  0  0  0  0  0
    9.9095   -2.1633   -0.8028 H   0  0  0  0  0  0  0  0  0  0  0  0
    7.4498   -2.4958   -0.9253 H   0  0  0  0  0  0  0  0  0  0  0  0
  1  2  1  0  0  0  0
  2  3  2  0  0  0  0
  3  4  1  0  0  0  0
  4  5  2  0  0  0  0
  5  6  1  0  0  0  0
  6  7  2  0  0  0  0
  7  8  1  0  0  0  0
  8  9  1  0  0  0  0
  9 10  2  0  0  0  0
 10 11  1  0  0  0  0
 11 12  2  0  0  0  0
 12 13  1  0  0  0  0
 13 14  2  0  0  0  0
  8 15  1  0  0  0  0
 15 16  2  0  0  0  0
 16 17  1  0  0  0  0
 17 18  2  0  0  0  0
 18 19  1  0  0  0  0
 19 20  2  0  0  0  0
  7 21  1  0  0  0  0
 21 22  2  0  0  0  0
  1 23  2  0  0  0  0
 23 24  1  0  0  0  0
 24 25  2  0  0  0  0
 25 26  1  0  0  0  0
 26 27  2  0  0  0  0
 27 28  1  0  0  0  0
 28 29  2  0  0  0  0
 22  4  1  0  0  0  0
 29 24  1  0  0  0  0
 14  9  1  0  0  0  0
 20 15  1  0  0  0  0
  1 30  1  0  0  0  0
  2 31  1  0  0  0  0
  3 32  1  0  0  0  0
  5 33  1  0  0  0  0
  6 34  1  0  0  0  0
 10 35  1  0  0  0  0
 11 36  1  0  0  0  0
 12 37  1  0  0  0  0
 13 38  1  0  0  0  0
 14 39  1  0  0  0  0
 16 40  1  0  0  0  0
 17 41  1  0  0  0  0
 18 42  1  0  0  0  0
 19 43  1  0  0  0  0
 20 44  1  0  0  0  0
 21 45  1  0  0  0  0
 22 46  1  0  0  0  0
 23 47  1  0  0  0  0
 25 48  1  0  0  0  0
 26 49  1  0  0  0  0
 28 50  1  0  0  0  0
 29 51  1  0  0  0  0
M  END
