
  xtb     03022212503D
 energy: -53.155644754790 gnorm: 0.000081208308 xtb: 6.4.1 (afa7bdf)
 35 37  0     0  0            999 V2000
   -4.9809   -1.3106    1.2538 C   0  0  0  0  0  0  0  0  0  0  0  0
   -3.6737   -0.8806    0.8501 N   0  0  0  0  0  0  0  0  0  0  0  0
   -2.5005   -1.4658    1.1805 C   0  0  0  0  0  0  0  0  0  0  0  0
   -1.4300   -0.7891    0.6264 C   0  0  0  0  0  0  0  0  0  0  0  0
   -0.0759   -1.1936    0.8241 C   0  0  0  0  0  0  0  0  0  0  0  0
    1.0543   -0.6062    0.3871 C   0  0  0  0  0  0  0  0  0  0  0  0
    2.3550   -1.1793    0.7232 C   0  0  0  0  0  0  0  0  0  0  0  0
    2.4862   -2.1467    1.4576 O   0  0  0  0  0  0  0  0  0  0  0  0
    3.5470   -0.4950    0.1446 C   0  0  0  0  0  0  0  0  0  0  0  0
    3.5358    0.0851   -1.1208 C   0  0  0  0  0  0  0  0  0  0  0  0
    4.6753    0.6926   -1.6165 C   0  0  0  0  0  0  0  0  0  0  0  0
    5.8312    0.7366   -0.8542 C   0  0  0  0  0  0  0  0  0  0  0  0
    5.8538    0.1513    0.4013 C   0  0  0  0  0  0  0  0  0  0  0  0
    4.7215   -0.4696    0.8928 C   0  0  0  0  0  0  0  0  0  0  0  0
   -2.0044    0.3052   -0.1135 C   0  0  0  0  0  0  0  0  0  0  0  0
   -1.5007    1.3411   -0.8981 C   0  0  0  0  0  0  0  0  0  0  0  0
   -2.3799    2.2317   -1.4755 C   0  0  0  0  0  0  0  0  0  0  0  0
   -3.7586    2.1196   -1.2930 C   0  0  0  0  0  0  0  0  0  0  0  0
   -4.2913    1.1059   -0.5260 C   0  0  0  0  0  0  0  0  0  0  0  0
   -3.4076    0.2067    0.0560 C   0  0  0  0  0  0  0  0  0  0  0  0
   -5.4844   -0.5237    1.8209 H   0  0  0  0  0  0  0  0  0  0  0  0
   -5.5907   -1.5541    0.3803 H   0  0  0  0  0  0  0  0  0  0  0  0
   -4.8930   -2.1960    1.8807 H   0  0  0  0  0  0  0  0  0  0  0  0
   -2.4772   -2.3408    1.8033 H   0  0  0  0  0  0  0  0  0  0  0  0
    0.0506   -2.0991    1.4087 H   0  0  0  0  0  0  0  0  0  0  0  0
    1.0430    0.3067   -0.1827 H   0  0  0  0  0  0  0  0  0  0  0  0
    2.6475    0.0357   -1.7337 H   0  0  0  0  0  0  0  0  0  0  0  0
    4.6628    1.1339   -2.6028 H   0  0  0  0  0  0  0  0  0  0  0  0
    6.7159    1.2201   -1.2425 H   0  0  0  0  0  0  0  0  0  0  0  0
    6.7569    0.1756    0.9936 H   0  0  0  0  0  0  0  0  0  0  0  0
    4.7234   -0.9409    1.8645 H   0  0  0  0  0  0  0  0  0  0  0  0
   -0.4412    1.4543   -1.0597 H   0  0  0  0  0  0  0  0  0  0  0  0
   -1.9970    3.0371   -2.0848 H   0  0  0  0  0  0  0  0  0  0  0  0
   -4.4153    2.8374   -1.7614 H   0  0  0  0  0  0  0  0  0  0  0  0
   -5.3577    1.0146   -0.3844 H   0  0  0  0  0  0  0  0  0  0  0  0
  1  2  1  0  0  0  0
  2  3  1  0  0  0  0
  3  4  2  0  0  0  0
  4  5  1  0  0  0  0
  5  6  2  0  0  0  0
  6  7  1  0  0  0  0
  7  8  2  0  0  0  0
  7  9  1  0  0  0  0
  9 10  2  0  0  0  0
 10 11  1  0  0  0  0
 11 12  2  0  0  0  0
 12 13  1  0  0  0  0
 13 14  2  0  0  0  0
  4 15  1  0  0  0  0
 15 16  2  0  0  0  0
 16 17  1  0  0  0  0
 17 18  2  0  0  0  0
 18 19  1  0  0  0  0
 19 20  2  0  0  0  0
 20  2  1  0  0  0  0
 14  9  1  0  0  0  0
 20 15  1  0  0  0  0
  1 21  1  0  0  0  0
  1 22  1  0  0  0  0
  1 23  1  0  0  0  0
  3 24  1  0  0  0  0
  5 25  1  0  0  0  0
  6 26  1  0  0  0  0
 10 27  1  0  0  0  0
 11 28  1  0  0  0  0
 12 29  1  0  0  0  0
 13 30  1  0  0  0  0
 14 31  1  0  0  0  0
 16 32  1  0  0  0  0
 17 33  1  0  0  0  0
 18 34  1  0  0  0  0
 19 35  1  0  0  0  0
M  END
