
  xtb     03022213573D
 energy: -76.540022941241 gnorm: 0.000178942480 xtb: 6.4.1 (afa7bdf)
 50 53  0     0  0            999 V2000
   -3.4601   -1.4854    2.0598 C   0  0  0  0  0  0  0  0  0  0  0  0
   -2.8325   -1.3125    0.6766 C   0  0  0  0  0  0  0  0  0  0  0  0
   -3.0817    0.0234    0.1591 N   0  0  0  0  0  0  0  0  0  0  0  0
   -2.0450    0.9239    0.0618 C   0  0  0  0  0  0  0  0  0  0  0  0
   -0.7219    0.5717   -0.1541 C   0  0  0  0  0  0  0  0  0  0  0  0
   -0.2240   -0.5805   -0.7712 C   0  0  0  0  0  0  0  0  0  0  0  0
    1.0814   -1.0498   -1.0392 C   0  0  0  0  0  0  0  0  0  0  0  0
    2.3986   -0.7217   -0.6117 C   0  0  0  0  0  0  0  0  0  0  0  0
    3.4996   -1.3052   -1.2602 C   0  0  0  0  0  0  0  0  0  0  0  0
    4.7866   -1.0147   -0.8860 C   0  0  0  0  0  0  0  0  0  0  0  0
    5.0563   -0.1268    0.1720 C   0  0  0  0  0  0  0  0  0  0  0  0
    6.3373    0.1718    0.5400 N   0  0  0  0  0  0  0  0  0  0  0  0
    7.4514   -0.5267   -0.0522 C   0  0  0  0  0  0  0  0  0  0  0  0
    6.6000    1.1507    1.5648 C   0  0  0  0  0  0  0  0  0  0  0  0
    3.9524    0.4369    0.8373 C   0  0  0  0  0  0  0  0  0  0  0  0
    2.6652    0.1489    0.4551 C   0  0  0  0  0  0  0  0  0  0  0  0
    0.5973   -2.0723   -1.9745 C   0  0  0  0  0  0  0  0  0  0  0  0
    1.1016   -2.8930   -2.7067 O   0  0  0  0  0  0  0  0  0  0  0  0
   -0.8203   -1.6054   -1.6673 C   0  0  0  0  0  0  0  0  0  0  0  0
   -1.9398   -1.9042   -2.0099 O   0  0  0  0  0  0  0  0  0  0  0  0
   -2.3686    2.3116    0.2103 C   0  0  0  0  0  0  0  0  0  0  0  0
   -3.6457    2.7427    0.2004 C   0  0  0  0  0  0  0  0  0  0  0  0
   -4.7073    1.8061    0.0051 C   0  0  0  0  0  0  0  0  0  0  0  0
   -6.0336    2.2159   -0.1559 C   0  0  0  0  0  0  0  0  0  0  0  0
   -7.0375    1.2943   -0.3447 C   0  0  0  0  0  0  0  0  0  0  0  0
   -6.7216   -0.0598   -0.3848 C   0  0  0  0  0  0  0  0  0  0  0  0
   -5.4233   -0.4901   -0.2163 C   0  0  0  0  0  0  0  0  0  0  0  0
   -4.3877    0.4298   -0.0124 C   0  0  0  0  0  0  0  0  0  0  0  0
   -3.0658   -0.7379    2.7457 H   0  0  0  0  0  0  0  0  0  0  0  0
   -4.5416   -1.3858    2.0285 H   0  0  0  0  0  0  0  0  0  0  0  0
   -3.2133   -2.4713    2.4443 H   0  0  0  0  0  0  0  0  0  0  0  0
   -1.7553   -1.4427    0.7676 H   0  0  0  0  0  0  0  0  0  0  0  0
   -3.1973   -2.0676   -0.0208 H   0  0  0  0  0  0  0  0  0  0  0  0
    0.0058    1.3472    0.0485 H   0  0  0  0  0  0  0  0  0  0  0  0
    3.3169   -1.9885   -2.0749 H   0  0  0  0  0  0  0  0  0  0  0  0
    5.5959   -1.4770   -1.4266 H   0  0  0  0  0  0  0  0  0  0  0  0
    7.3247   -1.6094    0.0335 H   0  0  0  0  0  0  0  0  0  0  0  0
    7.5656   -0.2713   -1.1108 H   0  0  0  0  0  0  0  0  0  0  0  0
    8.3682   -0.2531    0.4645 H   0  0  0  0  0  0  0  0  0  0  0  0
    7.6668    1.3582    1.6041 H   0  0  0  0  0  0  0  0  0  0  0  0
    6.0829    2.0883    1.3458 H   0  0  0  0  0  0  0  0  0  0  0  0
    6.2822    0.7983    2.5526 H   0  0  0  0  0  0  0  0  0  0  0  0
    4.1031    1.0979    1.6755 H   0  0  0  0  0  0  0  0  0  0  0  0
    1.8446    0.5799    1.0079 H   0  0  0  0  0  0  0  0  0  0  0  0
   -1.5460    3.0057    0.2907 H   0  0  0  0  0  0  0  0  0  0  0  0
   -3.8884    3.7901    0.2997 H   0  0  0  0  0  0  0  0  0  0  0  0
   -6.2545    3.2731   -0.1345 H   0  0  0  0  0  0  0  0  0  0  0  0
   -8.0597    1.6167   -0.4702 H   0  0  0  0  0  0  0  0  0  0  0  0
   -7.5014   -0.7869   -0.5553 H   0  0  0  0  0  0  0  0  0  0  0  0
   -5.2104   -1.5437   -0.2821 H   0  0  0  0  0  0  0  0  0  0  0  0
  1  2  1  0  0  0  0
  2  3  1  0  0  0  0
  3  4  1  0  0  0  0
  4  5  2  0  0  0  0
  5  6  1  0  0  0  0
  6  7  2  0  0  0  0
  7  8  1  0  0  0  0
  8  9  2  0  0  0  0
  9 10  1  0  0  0  0
 10 11  2  0  0  0  0
 11 12  1  0  0  0  0
 12 13  1  0  0  0  0
 12 14  1  0  0  0  0
 11 15  1  0  0  0  0
 15 16  2  0  0  0  0
  7 17  1  0  0  0  0
 17 18  2  0  0  0  0
 17 19  1  0  0  0  0
 19 20  2  0  0  0  0
  4 21  1  0  0  0  0
 21 22  2  0  0  0  0
 22 23  1  0  0  0  0
 23 24  2  0  0  0  0
 24 25  1  0  0  0  0
 25 26  2  0  0  0  0
 26 27  1  0  0  0  0
 27 28  2  0  0  0  0
 28  3  1  0  0  0  0
 19  6  1  0  0  0  0
 28 23  1  0  0  0  0
 16  8  1  0  0  0  0
  1 29  1  0  0  0  0
  1 30  1  0  0  0  0
  1 31  1  0  0  0  0
  2 32  1  0  0  0  0
  2 33  1  0  0  0  0
  5 34  1  0  0  0  0
  9 35  1  0  0  0  0
 10 36  1  0  0  0  0
 13 37  1  0  0  0  0
 13 38  1  0  0  0  0
 13 39  1  0  0  0  0
 14 40  1  0  0  0  0
 14 41  1  0  0  0  0
 14 42  1  0  0  0  0
 15 43  1  0  0  0  0
 16 44  1  0  0  0  0
 21 45  1  0  0  0  0
 22 46  1  0  0  0  0
 24 47  1  0  0  0  0
 25 48  1  0  0  0  0
 26 49  1  0  0  0  0
 27 50  1  0  0  0  0
M  END
