
  xtb     03022213083D
 energy: -72.418512329543 gnorm: 0.000130516398 xtb: 6.4.1 (afa7bdf)
 43 46  0     0  0            999 V2000
    5.2023    3.3504   -3.7440 C   0  0  0  0  0  0  0  0  0  0  0  0
    4.5589    3.4836   -2.4997 O   0  0  0  0  0  0  0  0  0  0  0  0
    3.6649    2.5338   -2.1203 C   0  0  0  0  0  0  0  0  0  0  0  0
    3.0712    2.7261   -0.8683 C   0  0  0  0  0  0  0  0  0  0  0  0
    2.1501    1.8275   -0.3855 C   0  0  0  0  0  0  0  0  0  0  0  0
    1.7925    0.7068   -1.1451 C   0  0  0  0  0  0  0  0  0  0  0  0
    0.8346   -0.1975   -0.6502 C   0  0  0  0  0  0  0  0  0  0  0  0
   -0.0240   -0.9159   -0.1925 C   0  0  0  0  0  0  0  0  0  0  0  0
   -1.0016   -1.7478    0.3862 C   0  0  0  0  0  0  0  0  0  0  0  0
   -1.1647   -2.9565   -0.1027 N   0  0  0  0  0  0  0  0  0  0  0  0
   -2.0329   -3.7781    0.5155 C   0  0  0  0  0  0  0  0  0  0  0  0
   -2.2528   -5.0755    0.0139 C   0  0  0  0  0  0  0  0  0  0  0  0
   -3.0978   -5.9231    0.6756 C   0  0  0  0  0  0  0  0  0  0  0  0
   -3.7504   -5.5168    1.8520 C   0  0  0  0  0  0  0  0  0  0  0  0
   -3.5638   -4.2600    2.3593 C   0  0  0  0  0  0  0  0  0  0  0  0
   -2.7089   -3.3603    1.6960 C   0  0  0  0  0  0  0  0  0  0  0  0
   -2.5573   -2.1047    2.1647 N   0  0  0  0  0  0  0  0  0  0  0  0
   -1.7566   -1.2897    1.5246 C   0  0  0  0  0  0  0  0  0  0  0  0
   -1.6424    0.0751    2.0228 C   0  0  0  0  0  0  0  0  0  0  0  0
   -1.7088    0.3789    3.3498 C   0  0  0  0  0  0  0  0  0  0  0  0
   -1.5192    2.0630    3.6502 S   0  0  0  0  0  0  0  0  0  0  0  0
   -1.3830    2.3693    1.9437 C   0  0  0  0  0  0  0  0  0  0  0  0
   -1.2169    3.6570    1.5724 O   0  0  0  0  0  0  0  0  0  0  0  0
   -1.1373    3.9022    0.1852 C   0  0  0  0  0  0  0  0  0  0  0  0
   -1.4622    1.2316    1.2077 C   0  0  0  0  0  0  0  0  0  0  0  0
    2.3894    0.5146   -2.3900 C   0  0  0  0  0  0  0  0  0  0  0  0
    3.3156    1.4170   -2.8759 C   0  0  0  0  0  0  0  0  0  0  0  0
    5.8628    4.2120   -3.8273 H   0  0  0  0  0  0  0  0  0  0  0  0
    4.4853    3.3641   -4.5712 H   0  0  0  0  0  0  0  0  0  0  0  0
    5.7979    2.4332   -3.7929 H   0  0  0  0  0  0  0  0  0  0  0  0
    3.3578    3.5938   -0.2952 H   0  0  0  0  0  0  0  0  0  0  0  0
    1.7022    1.9733    0.5869 H   0  0  0  0  0  0  0  0  0  0  0  0
   -1.7369   -5.3691   -0.8872 H   0  0  0  0  0  0  0  0  0  0  0  0
   -3.2692   -6.9203    0.2973 H   0  0  0  0  0  0  0  0  0  0  0  0
   -4.4090   -6.2104    2.3539 H   0  0  0  0  0  0  0  0  0  0  0  0
   -4.0610   -3.9254    3.2565 H   0  0  0  0  0  0  0  0  0  0  0  0
   -1.8349   -0.3017    4.1663 H   0  0  0  0  0  0  0  0  0  0  0  0
   -2.0558    3.5919   -0.3221 H   0  0  0  0  0  0  0  0  0  0  0  0
   -0.2844    3.3823   -0.2622 H   0  0  0  0  0  0  0  0  0  0  0  0
   -1.0072    4.9776    0.0830 H   0  0  0  0  0  0  0  0  0  0  0  0
   -1.4254    1.1968    0.1357 H   0  0  0  0  0  0  0  0  0  0  0  0
    2.1195   -0.3498   -2.9784 H   0  0  0  0  0  0  0  0  0  0  0  0
    3.7598    1.2405   -3.8429 H   0  0  0  0  0  0  0  0  0  0  0  0
  1  2  1  0  0  0  0
  2  3  1  0  0  0  0
  3  4  2  0  0  0  0
  4  5  1  0  0  0  0
  5  6  2  0  0  0  0
  6  7  1  0  0  0  0
  7  8  3  0  0  0  0
  8  9  1  0  0  0  0
  9 10  2  0  0  0  0
 10 11  1  0  0  0  0
 11 12  2  0  0  0  0
 12 13  1  0  0  0  0
 13 14  2  0  0  0  0
 14 15  1  0  0  0  0
 15 16  2  0  0  0  0
 16 17  1  0  0  0  0
 17 18  2  0  0  0  0
 18 19  1  0  0  0  0
 19 20  2  0  0  0  0
 20 21  1  0  0  0  0
 21 22  1  0  0  0  0
 22 23  1  0  0  0  0
 23 24  1  0  0  0  0
 22 25  2  0  0  0  0
  6 26  1  0  0  0  0
 26 27  2  0  0  0  0
 27  3  1  0  0  0  0
 18  9  1  0  0  0  0
 25 19  1  0  0  0  0
 16 11  1  0  0  0  0
  1 28  1  0  0  0  0
  1 29  1  0  0  0  0
  1 30  1  0  0  0  0
  4 31  1  0  0  0  0
  5 32  1  0  0  0  0
 12 33  1  0  0  0  0
 13 34  1  0  0  0  0
 14 35  1  0  0  0  0
 15 36  1  0  0  0  0
 20 37  1  0  0  0  0
 24 38  1  0  0  0  0
 24 39  1  0  0  0  0
 24 40  1  0  0  0  0
 25 41  1  0  0  0  0
 26 42  1  0  0  0  0
 27 43  1  0  0  0  0
M  END
