
  xtb     03022212453D
 energy: -123.377955777789 gnorm: 0.000250714837 xtb: 6.4.1 (afa7bdf)
 84 91  0     0  0            999 V2000
    9.3056    0.8620   -0.6269 C   0  0  0  0  0  0  0  0  0  0  0  0
    8.5921   -0.1557    0.2666 C   0  0  0  0  0  0  0  0  0  0  0  0
    7.2855   -0.5166   -0.2344 N   0  0  0  0  0  0  0  0  0  0  0  0
    7.2462   -1.6529   -1.1262 C   0  0  0  0  0  0  0  0  0  0  0  0
    7.0424   -2.9777   -0.3876 C   0  0  0  0  0  0  0  0  0  0  0  0
    6.1472    0.1564    0.1229 C   0  0  0  0  0  0  0  0  0  0  0  0
    6.2260    1.3905    0.8276 C   0  0  0  0  0  0  0  0  0  0  0  0
    5.1093    2.0812    1.1860 C   0  0  0  0  0  0  0  0  0  0  0  0
    3.8181    1.6074    0.8690 C   0  0  0  0  0  0  0  0  0  0  0  0
    2.6486    2.2891    1.2133 C   0  0  0  0  0  0  0  0  0  0  0  0
    1.3988    1.7963    0.8892 C   0  0  0  0  0  0  0  0  0  0  0  0
    1.2950    0.5710    0.1932 C   0  0  0  0  0  0  0  0  0  0  0  0
    2.4335   -0.1072   -0.1554 C   0  0  0  0  0  0  0  0  0  0  0  0
    3.7188    0.3784    0.1629 C   0  0  0  0  0  0  0  0  0  0  0  0
    4.8816   -0.3196   -0.1891 C   0  0  0  0  0  0  0  0  0  0  0  0
   -0.0414   -0.0232   -0.1957 C   0  0  0  0  0  0  0  0  0  0  0  0
   -0.0913   -0.1039   -1.7096 C   0  0  0  0  0  0  0  0  0  0  0  0
   -0.0189    1.0619   -2.4604 C   0  0  0  0  0  0  0  0  0  0  0  0
   -0.0626    1.0242   -3.8406 C   0  0  0  0  0  0  0  0  0  0  0  0
   -0.1803   -0.1935   -4.4924 C   0  0  0  0  0  0  0  0  0  0  0  0
   -0.2532   -1.3622   -3.7630 C   0  0  0  0  0  0  0  0  0  0  0  0
   -0.2091   -1.3208   -2.3716 C   0  0  0  0  0  0  0  0  0  0  0  0
   -0.2878   -2.5244   -1.7301 O   0  0  0  0  0  0  0  0  0  0  0  0
   -0.2521   -2.5476   -0.3648 C   0  0  0  0  0  0  0  0  0  0  0  0
   -0.3372   -3.8036    0.2311 C   0  0  0  0  0  0  0  0  0  0  0  0
   -0.3088   -3.9204    1.6054 C   0  0  0  0  0  0  0  0  0  0  0  0
   -0.1956   -2.7868    2.3953 C   0  0  0  0  0  0  0  0  0  0  0  0
   -0.1114   -1.5426    1.8011 C   0  0  0  0  0  0  0  0  0  0  0  0
   -0.1381   -1.4053    0.4196 C   0  0  0  0  0  0  0  0  0  0  0  0
   -1.2374    0.7825    0.2631 C   0  0  0  0  0  0  0  0  0  0  0  0
   -2.4903    0.3028   -0.0171 C   0  0  0  0  0  0  0  0  0  0  0  0
   -3.6574    0.9976    0.3619 C   0  0  0  0  0  0  0  0  0  0  0  0
   -4.9381    0.5001    0.0828 C   0  0  0  0  0  0  0  0  0  0  0  0
   -6.0883    1.1808    0.4541 C   0  0  0  0  0  0  0  0  0  0  0  0
   -7.3472    0.7225    0.1488 N   0  0  0  0  0  0  0  0  0  0  0  0
   -8.5141    1.2222    0.8442 C   0  0  0  0  0  0  0  0  0  0  0  0
   -8.5354    0.8650    2.3323 C   0  0  0  0  0  0  0  0  0  0  0  0
   -7.5310   -0.4475   -0.6781 C   0  0  0  0  0  0  0  0  0  0  0  0
   -7.4983   -1.7697    0.0932 C   0  0  0  0  0  0  0  0  0  0  0  0
   -5.9213    2.4166    1.1410 C   0  0  0  0  0  0  0  0  0  0  0  0
   -4.6880    2.9161    1.4265 C   0  0  0  0  0  0  0  0  0  0  0  0
   -3.5124    2.2294    1.0542 C   0  0  0  0  0  0  0  0  0  0  0  0
   -2.2290    2.7051    1.3329 C   0  0  0  0  0  0  0  0  0  0  0  0
   -1.0981    2.0082    0.9520 C   0  0  0  0  0  0  0  0  0  0  0  0
    0.2172    2.5780    1.2874 C   0  0  0  0  0  0  0  0  0  0  0  0
    0.3224    3.6478    1.8717 O   0  0  0  0  0  0  0  0  0  0  0  0
    8.7265    1.7785   -0.7030 H   0  0  0  0  0  0  0  0  0  0  0  0
    9.4364    0.4604   -1.6291 H   0  0  0  0  0  0  0  0  0  0  0  0
   10.2845    1.0976   -0.2175 H   0  0  0  0  0  0  0  0  0  0  0  0
    8.5031    0.2331    1.2837 H   0  0  0  0  0  0  0  0  0  0  0  0
    9.1947   -1.0671    0.3230 H   0  0  0  0  0  0  0  0  0  0  0  0
    8.1939   -1.6870   -1.6717 H   0  0  0  0  0  0  0  0  0  0  0  0
    6.4528   -1.5078   -1.8634 H   0  0  0  0  0  0  0  0  0  0  0  0
    7.0208   -3.8012   -1.0968 H   0  0  0  0  0  0  0  0  0  0  0  0
    6.1079   -2.9666    0.1668 H   0  0  0  0  0  0  0  0  0  0  0  0
    7.8532   -3.1483    0.3170 H   0  0  0  0  0  0  0  0  0  0  0  0
    7.1883    1.8063    1.0778 H   0  0  0  0  0  0  0  0  0  0  0  0
    5.2007    3.0175    1.7179 H   0  0  0  0  0  0  0  0  0  0  0  0
    2.7044    3.2275    1.7470 H   0  0  0  0  0  0  0  0  0  0  0  0
    2.3580   -1.0445   -0.6912 H   0  0  0  0  0  0  0  0  0  0  0  0
    4.7491   -1.2549   -0.7086 H   0  0  0  0  0  0  0  0  0  0  0  0
    0.0725    2.0068   -1.9446 H   0  0  0  0  0  0  0  0  0  0  0  0
   -0.0053    1.9410   -4.4071 H   0  0  0  0  0  0  0  0  0  0  0  0
   -0.2152   -0.2325   -5.5708 H   0  0  0  0  0  0  0  0  0  0  0  0
   -0.3451   -2.3231   -4.2449 H   0  0  0  0  0  0  0  0  0  0  0  0
   -0.4245   -4.6693   -0.4070 H   0  0  0  0  0  0  0  0  0  0  0  0
   -0.3746   -4.8970    2.0611 H   0  0  0  0  0  0  0  0  0  0  0  0
   -0.1727   -2.8737    3.4708 H   0  0  0  0  0  0  0  0  0  0  0  0
   -0.0226   -0.6537    2.4088 H   0  0  0  0  0  0  0  0  0  0  0  0
   -2.6005   -0.6353   -0.5454 H   0  0  0  0  0  0  0  0  0  0  0  0
   -4.9880   -0.4474   -0.4290 H   0  0  0  0  0  0  0  0  0  0  0  0
   -9.3951    0.7938    0.3612 H   0  0  0  0  0  0  0  0  0  0  0  0
   -8.5808    2.3092    0.7251 H   0  0  0  0  0  0  0  0  0  0  0  0
   -7.6556    1.2599    2.8338 H   0  0  0  0  0  0  0  0  0  0  0  0
   -8.5477   -0.2132    2.4686 H   0  0  0  0  0  0  0  0  0  0  0  0
   -9.4228    1.2845    2.7999 H   0  0  0  0  0  0  0  0  0  0  0  0
   -8.4967   -0.3520   -1.1850 H   0  0  0  0  0  0  0  0  0  0  0  0
   -6.7608   -0.4496   -1.4530 H   0  0  0  0  0  0  0  0  0  0  0  0
   -7.5376   -2.6048   -0.6019 H   0  0  0  0  0  0  0  0  0  0  0  0
   -6.5871   -1.8454    0.6809 H   0  0  0  0  0  0  0  0  0  0  0  0
   -8.3498   -1.8431    0.7649 H   0  0  0  0  0  0  0  0  0  0  0  0
   -6.7859    2.9894    1.4333 H   0  0  0  0  0  0  0  0  0  0  0  0
   -4.5940    3.8592    1.9458 H   0  0  0  0  0  0  0  0  0  0  0  0
   -2.0991    3.6407    1.8585 H   0  0  0  0  0  0  0  0  0  0  0  0
  1  2  1  0  0  0  0
  2  3  1  0  0  0  0
  3  4  1  0  0  0  0
  4  5  1  0  0  0  0
  3  6  1  0  0  0  0
  6  7  2  0  0  0  0
  7  8  1  0  0  0  0
  8  9  2  0  0  0  0
  9 10  1  0  0  0  0
 10 11  2  0  0  0  0
 11 12  1  0  0  0  0
 12 13  2  0  0  0  0
 13 14  1  0  0  0  0
 14 15  2  0  0  0  0
 12 16  1  0  0  0  0
 16 17  1  0  0  0  0
 17 18  2  0  0  0  0
 18 19  1  0  0  0  0
 19 20  2  0  0  0  0
 20 21  1  0  0  0  0
 21 22  2  0  0  0  0
 22 23  1  0  0  0  0
 23 24  1  0  0  0  0
 24 25  2  0  0  0  0
 25 26  1  0  0  0  0
 26 27  2  0  0  0  0
 27 28  1  0  0  0  0
 28 29  2  0  0  0  0
 16 30  1  0  0  0  0
 30 31  2  0  0  0  0
 31 32  1  0  0  0  0
 32 33  2  0  0  0  0
 33 34  1  0  0  0  0
 34 35  1  0  0  0  0
 35 36  1  0  0  0  0
 36 37  1  0  0  0  0
 35 38  1  0  0  0  0
 38 39  1  0  0  0  0
 34 40  2  0  0  0  0
 40 41  1  0  0  0  0
 41 42  2  0  0  0  0
 42 43  1  0  0  0  0
 43 44  2  0  0  0  0
 44 45  1  0  0  0  0
 45 46  2  0  0  0  0
 15  6  1  0  0  0  0
 29 16  1  0  0  0  0
 44 30  1  0  0  0  0
 14  9  1  0  0  0  0
 22 17  1  0  0  0  0
 29 24  1  0  0  0  0
 42 32  1  0  0  0  0
 45 11  1  0  0  0  0
  1 47  1  0  0  0  0
  1 48  1  0  0  0  0
  1 49  1  0  0  0  0
  2 50  1  0  0  0  0
  2 51  1  0  0  0  0
  4 52  1  0  0  0  0
  4 53  1  0  0  0  0
  5 54  1  0  0  0  0
  5 55  1  0  0  0  0
  5 56  1  0  0  0  0
  7 57  1  0  0  0  0
  8 58  1  0  0  0  0
 10 59  1  0  0  0  0
 13 60  1  0  0  0  0
 15 61  1  0  0  0  0
 18 62  1  0  0  0  0
 19 63  1  0  0  0  0
 20 64  1  0  0  0  0
 21 65  1  0  0  0  0
 25 66  1  0  0  0  0
 26 67  1  0  0  0  0
 27 68  1  0  0  0  0
 28 69  1  0  0  0  0
 31 70  1  0  0  0  0
 33 71  1  0  0  0  0
 36 72  1  0  0  0  0
 36 73  1  0  0  0  0
 37 74  1  0  0  0  0
 37 75  1  0  0  0  0
 37 76  1  0  0  0  0
 38 77  1  0  0  0  0
 38 78  1  0  0  0  0
 39 79  1  0  0  0  0
 39 80  1  0  0  0  0
 39 81  1  0  0  0  0
 40 82  1  0  0  0  0
 41 83  1  0  0  0  0
 43 84  1  0  0  0  0
M  END
