
  xtb     03022215023D
 energy: -23.874496801851 gnorm: 0.000130228996 xtb: 6.4.1 (afa7bdf)
 15 16  0     0  0            999 V2000
   -1.9470    0.3235   -0.0920 C   0  0  0  0  0  0  0  0  0  0  0  0
   -1.6672   -1.0504   -0.0600 C   0  0  0  0  0  0  0  0  0  0  0  0
   -0.3782   -1.5256    0.0046 C   0  0  0  0  0  0  0  0  0  0  0  0
    0.6428   -0.5798    0.0371 C   0  0  0  0  0  0  0  0  0  0  0  0
    1.9941   -0.6964    0.0994 N   0  0  0  0  0  0  0  0  0  0  0  0
    2.5983    0.5003    0.1096 N   0  0  0  0  0  0  0  0  0  0  0  0
    1.6613    1.4106    0.0546 C   0  0  0  0  0  0  0  0  0  0  0  0
    0.3749    0.8116    0.0053 C   0  0  0  0  0  0  0  0  0  0  0  0
   -0.9452    1.2629   -0.0603 C   0  0  0  0  0  0  0  0  0  0  0  0
   -2.9781    0.6409   -0.1428 H   0  0  0  0  0  0  0  0  0  0  0  0
   -2.4900   -1.7496   -0.0870 H   0  0  0  0  0  0  0  0  0  0  0  0
   -0.1635   -2.5833    0.0292 H   0  0  0  0  0  0  0  0  0  0  0  0
    2.5470   -1.5364    0.1361 H   0  0  0  0  0  0  0  0  0  0  0  0
    1.9138    2.4521    0.0512 H   0  0  0  0  0  0  0  0  0  0  0  0
   -1.1631    2.3199   -0.0851 H   0  0  0  0  0  0  0  0  0  0  0  0
  1  2  2  0  0  0  0
  2  3  1  0  0  0  0
  3  4  2  0  0  0  0
  4  5  1  0  0  0  0
  5  6  1  0  0  0  0
  6  7  2  0  0  0  0
  7  8  1  0  0  0  0
  8  9  2  0  0  0  0
  9  1  1  0  0  0  0
  8  4  1  0  0  0  0
  1 10  1  0  0  0  0
  2 11  1  0  0  0  0
  3 12  1  0  0  0  0
  5 13  1  0  0  0  0
  7 14  1  0  0  0  0
  9 15  1  0  0  0  0
M  END
