
  xtb     03022212553D
 energy: -60.528115756090 gnorm: 0.000672955192 xtb: 6.4.1 (afa7bdf)
 35 37  0     0  0            999 V2000
   -3.9718    4.4937    0.7012 C   0  0  0  0  0  0  0  0  0  0  0  0
   -2.6569    3.9906    0.7094 O   0  0  0  0  0  0  0  0  0  0  0  0
   -2.4486    2.7129    0.2959 C   0  0  0  0  0  0  0  0  0  0  0  0
   -3.4413    1.8619   -0.1622 C   0  0  0  0  0  0  0  0  0  0  0  0
   -3.1185    0.5609   -0.5568 C   0  0  0  0  0  0  0  0  0  0  0  0
   -4.1706   -0.1874   -0.9854 O   0  0  0  0  0  0  0  0  0  0  0  0
   -3.9317   -1.5132   -1.3920 C   0  0  0  0  0  0  0  0  0  0  0  0
   -1.8084    0.1202   -0.4944 C   0  0  0  0  0  0  0  0  0  0  0  0
   -0.8016    0.9773   -0.0360 C   0  0  0  0  0  0  0  0  0  0  0  0
    0.5663    0.5082    0.0307 C   0  0  0  0  0  0  0  0  0  0  0  0
    1.7119    1.2220    0.2866 C   0  0  0  0  0  0  0  0  0  0  0  0
    2.8750    0.4452    0.2823 C   0  0  0  0  0  0  0  0  0  0  0  0
    2.6404   -0.8844    0.0247 C   0  0  0  0  0  0  0  0  0  0  0  0
    3.5825   -1.9494   -0.0433 C   0  0  0  0  0  0  0  0  0  0  0  0
    3.3414   -3.2820   -0.2974 C   0  0  0  0  0  0  0  0  0  0  0  0
    4.4965   -4.0666   -0.2830 C   0  0  0  0  0  0  0  0  0  0  0  0
    5.6329   -3.3392   -0.0166 C   0  0  0  0  0  0  0  0  0  0  0  0
    6.9409   -3.8128    0.0721 C   0  0  0  0  0  0  0  0  0  0  0  0
    8.0160   -4.2111    0.1459 N   0  0  0  0  0  0  0  0  0  0  0  0
    5.2746   -1.6523    0.2179 S   0  0  0  0  0  0  0  0  0  0  0  0
    0.9429   -1.1709   -0.2238 S   0  0  0  0  0  0  0  0  0  0  0  0
   -1.1281    2.2687    0.3578 C   0  0  0  0  0  0  0  0  0  0  0  0
   -4.3874    4.5158   -0.3110 H   0  0  0  0  0  0  0  0  0  0  0  0
   -4.6288    3.9075    1.3513 H   0  0  0  0  0  0  0  0  0  0  0  0
   -3.8997    5.5106    1.0837 H   0  0  0  0  0  0  0  0  0  0  0  0
   -4.4744    2.1584   -0.2298 H   0  0  0  0  0  0  0  0  0  0  0  0
   -3.5168   -2.1150   -0.5773 H   0  0  0  0  0  0  0  0  0  0  0  0
   -4.9039   -1.9130   -1.6759 H   0  0  0  0  0  0  0  0  0  0  0  0
   -3.2580   -1.5541   -2.2538 H   0  0  0  0  0  0  0  0  0  0  0  0
   -1.5393   -0.8790   -0.7975 H   0  0  0  0  0  0  0  0  0  0  0  0
    1.7197    2.2814    0.4644 H   0  0  0  0  0  0  0  0  0  0  0  0
    3.8612    0.8366    0.4618 H   0  0  0  0  0  0  0  0  0  0  0  0
    2.3544   -3.6650   -0.4860 H   0  0  0  0  0  0  0  0  0  0  0  0
    4.5126   -5.1277   -0.4584 H   0  0  0  0  0  0  0  0  0  0  0  0
   -0.3832    2.9515    0.7286 H   0  0  0  0  0  0  0  0  0  0  0  0
  1  2  1  0  0  0  0
  2  3  1  0  0  0  0
  3  4  2  0  0  0  0
  4  5  1  0  0  0  0
  5  6  1  0  0  0  0
  6  7  1  0  0  0  0
  5  8  2  0  0  0  0
  8  9  1  0  0  0  0
  9 10  1  0  0  0  0
 10 11  2  0  0  0  0
 11 12  1  0  0  0  0
 12 13  2  0  0  0  0
 13 14  1  0  0  0  0
 14 15  2  0  0  0  0
 15 16  1  0  0  0  0
 16 17  2  0  0  0  0
 17 18  1  0  0  0  0
 18 19  3  0  0  0  0
 17 20  1  0  0  0  0
 13 21  1  0  0  0  0
  9 22  2  0  0  0  0
 22  3  1  0  0  0  0
 21 10  1  0  0  0  0
 20 14  1  0  0  0  0
  1 23  1  0  0  0  0
  1 24  1  0  0  0  0
  1 25  1  0  0  0  0
  4 26  1  0  0  0  0
  7 27  1  0  0  0  0
  7 28  1  0  0  0  0
  7 29  1  0  0  0  0
  8 30  1  0  0  0  0
 11 31  1  0  0  0  0
 12 32  1  0  0  0  0
 15 33  1  0  0  0  0
 16 34  1  0  0  0  0
 22 35  1  0  0  0  0
M  END
