
  xtb     03022215523D
 energy: -108.282445715050 gnorm: 0.000588989972 xtb: 6.4.1 (afa7bdf)
 62 66  0     0  0            999 V2000
   -9.3597   -0.7983   -2.3211 C   0  0  0  0  0  0  0  0  0  0  0  0
   -9.0367    0.3448   -1.3576 C   0  0  0  0  0  0  0  0  0  0  0  0
   -8.2100   -0.0842   -0.2498 N   0  0  0  0  0  0  0  0  0  0  0  0
   -8.9226   -0.5225    0.9319 C   0  0  0  0  0  0  0  0  0  0  0  0
   -9.1612    0.6148    1.9255 C   0  0  0  0  0  0  0  0  0  0  0  0
   -6.8530   -0.0778   -0.3094 C   0  0  0  0  0  0  0  0  0  0  0  0
   -6.1693    0.1861   -1.5234 C   0  0  0  0  0  0  0  0  0  0  0  0
   -4.8048    0.1896   -1.5899 C   0  0  0  0  0  0  0  0  0  0  0  0
   -4.0168   -0.0732   -0.4575 C   0  0  0  0  0  0  0  0  0  0  0  0
   -2.6066   -0.0945   -0.4464 C   0  0  0  0  0  0  0  0  0  0  0  0
   -1.9229   -0.3608    0.7084 C   0  0  0  0  0  0  0  0  0  0  0  0
   -0.4828   -0.3849    0.6945 C   0  0  0  0  0  0  0  0  0  0  0  0
    0.2407   -0.1551   -0.3639 N   0  0  0  0  0  0  0  0  0  0  0  0
    1.5367   -0.2842    0.0552 C   0  0  0  0  0  0  0  0  0  0  0  0
    2.7426   -0.1642   -0.6157 C   0  0  0  0  0  0  0  0  0  0  0  0
    3.9123   -0.3503    0.1121 C   0  0  0  0  0  0  0  0  0  0  0  0
    5.1823   -0.2200   -0.6547 C   0  0  0  0  0  0  0  0  0  0  0  0
    5.2281   -0.3771   -1.8565 O   0  0  0  0  0  0  0  0  0  0  0  0
    6.2684    0.1135    0.1220 N   0  0  0  0  0  0  0  0  0  0  0  0
    7.5793    0.2935   -0.2509 C   0  0  0  0  0  0  0  0  0  0  0  0
    7.9925    0.1851   -1.5862 C   0  0  0  0  0  0  0  0  0  0  0  0
    9.3046    0.3734   -1.9494 C   0  0  0  0  0  0  0  0  0  0  0  0
   10.2889    0.6838   -1.0060 C   0  0  0  0  0  0  0  0  0  0  0  0
   11.7097    0.8873   -1.4269 C   0  0  0  0  0  0  0  0  0  0  0  0
    9.9016    0.7928    0.3104 C   0  0  0  0  0  0  0  0  0  0  0  0
    8.5724    0.6031    0.7078 C   0  0  0  0  0  0  0  0  0  0  0  0
    8.3103    0.7358    2.1002 N   0  0  0  0  0  4  0  0  0  0  0  0
    7.1702    0.5431    2.5173 O   0  0  0  0  0  0  0  0  0  0  0  0
    9.2287    1.0333    2.8354 O   0  0  0  0  0  1  0  0  0  0  0  0
    3.8710   -0.6775    1.4782 C   0  0  0  0  0  0  0  0  0  0  0  0
    2.6755   -0.8120    2.1569 C   0  0  0  0  0  0  0  0  0  0  0  0
    1.5156   -0.6039    1.4331 C   0  0  0  0  0  0  0  0  0  0  0  0
    0.2254   -0.6623    1.8173 O   0  0  0  0  0  0  0  0  0  0  0  0
   -2.6359   -0.6249    1.9573 C   0  0  0  0  0  0  0  0  0  0  0  0
   -2.1414   -0.8633    3.0280 O   0  0  0  0  0  0  0  0  0  0  0  0
   -4.0072   -0.5952    1.8912 O   0  0  0  0  0  0  0  0  0  0  0  0
   -4.6895   -0.3376    0.7525 C   0  0  0  0  0  0  0  0  0  0  0  0
   -6.0697   -0.3359    0.8252 C   0  0  0  0  0  0  0  0  0  0  0  0
   -9.8935   -1.5918   -1.8036 H   0  0  0  0  0  0  0  0  0  0  0  0
   -9.9829   -0.4353   -3.1338 H   0  0  0  0  0  0  0  0  0  0  0  0
   -8.4487   -1.2190   -2.7384 H   0  0  0  0  0  0  0  0  0  0  0  0
   -8.5450    1.1618   -1.8898 H   0  0  0  0  0  0  0  0  0  0  0  0
   -9.9676    0.7427   -0.9451 H   0  0  0  0  0  0  0  0  0  0  0  0
   -8.3705   -1.3336    1.4110 H   0  0  0  0  0  0  0  0  0  0  0  0
   -9.8846   -0.9298    0.6101 H   0  0  0  0  0  0  0  0  0  0  0  0
   -8.2180    1.0364    2.2615 H   0  0  0  0  0  0  0  0  0  0  0  0
   -9.7067    0.2448    2.7892 H   0  0  0  0  0  0  0  0  0  0  0  0
   -9.7431    1.4085    1.4627 H   0  0  0  0  0  0  0  0  0  0  0  0
   -6.7235    0.3762   -2.4267 H   0  0  0  0  0  0  0  0  0  0  0  0
   -4.3084    0.3893   -2.5275 H   0  0  0  0  0  0  0  0  0  0  0  0
   -2.0494    0.0977   -1.3511 H   0  0  0  0  0  0  0  0  0  0  0  0
    2.7870    0.0677   -1.6672 H   0  0  0  0  0  0  0  0  0  0  0  0
    6.1047    0.2530    1.1196 H   0  0  0  0  0  0  0  0  0  0  0  0
    7.2505   -0.0521   -2.3298 H   0  0  0  0  0  0  0  0  0  0  0  0
    9.5811    0.2801   -2.9892 H   0  0  0  0  0  0  0  0  0  0  0  0
   12.3420    1.1036   -0.5711 H   0  0  0  0  0  0  0  0  0  0  0  0
   11.7789    1.7151   -2.1308 H   0  0  0  0  0  0  0  0  0  0  0  0
   12.0873   -0.0038   -1.9253 H   0  0  0  0  0  0  0  0  0  0  0  0
   10.6234    1.0273    1.0785 H   0  0  0  0  0  0  0  0  0  0  0  0
    4.7822   -0.8604    2.0272 H   0  0  0  0  0  0  0  0  0  0  0  0
    2.6424   -1.0701    3.2026 H   0  0  0  0  0  0  0  0  0  0  0  0
   -6.5041   -0.5292    1.7902 H   0  0  0  0  0  0  0  0  0  0  0  0
  1  2  1  0  0  0  0
  2  3  1  0  0  0  0
  3  4  1  0  0  0  0
  4  5  1  0  0  0  0
  3  6  1  0  0  0  0
  6  7  2  0  0  0  0
  7  8  1  0  0  0  0
  8  9  2  0  0  0  0
  9 10  1  0  0  0  0
 10 11  2  0  0  0  0
 11 12  1  0  0  0  0
 12 13  2  0  0  0  0
 13 14  1  0  0  0  0
 14 15  2  0  0  0  0
 15 16  1  0  0  0  0
 16 17  1  0  0  0  0
 17 18  2  0  0  0  0
 17 19  1  0  0  0  0
 19 20  1  0  0  0  0
 20 21  2  0  0  0  0
 21 22  1  0  0  0  0
 22 23  2  0  0  0  0
 23 24  1  0  0  0  0
 23 25  1  0  0  0  0
 25 26  2  0  0  0  0
 26 27  1  0  0  0  0
 27 28  2  0  0  0  0
 27 29  1  0  0  0  0
 16 30  2  0  0  0  0
 30 31  1  0  0  0  0
 31 32  2  0  0  0  0
 32 33  1  0  0  0  0
 11 34  1  0  0  0  0
 34 35  2  0  0  0  0
 34 36  1  0  0  0  0
 36 37  1  0  0  0  0
 37 38  2  0  0  0  0
 38  6  1  0  0  0  0
 37  9  1  0  0  0  0
 33 12  1  0  0  0  0
 32 14  1  0  0  0  0
 26 20  1  0  0  0  0
  1 39  1  0  0  0  0
  1 40  1  0  0  0  0
  1 41  1  0  0  0  0
  2 42  1  0  0  0  0
  2 43  1  0  0  0  0
  4 44  1  0  0  0  0
  4 45  1  0  0  0  0
  5 46  1  0  0  0  0
  5 47  1  0  0  0  0
  5 48  1  0  0  0  0
  7 49  1  0  0  0  0
  8 50  1  0  0  0  0
 10 51  1  0  0  0  0
 15 52  1  0  0  0  0
 19 53  1  0  0  0  0
 21 54  1  0  0  0  0
 22 55  1  0  0  0  0
 24 56  1  0  0  0  0
 24 57  1  0  0  0  0
 24 58  1  0  0  0  0
 25 59  1  0  0  0  0
 30 60  1  0  0  0  0
 31 61  1  0  0  0  0
 38 62  1  0  0  0  0
M  CHG  1  27   1
M  CHG  1  29  -1
M  END
