
  xtb     03022213063D
 energy: -72.986927059913 gnorm: 0.000147873779 xtb: 6.4.1 (afa7bdf)
 47 51  0     0  0            999 V2000
   -4.2454   -0.3434    1.8497 O   0  0  0  0  0  0  0  0  0  0  0  0
   -3.4858   -0.9569    1.1506 C   0  0  0  0  0  0  0  0  0  0  0  0
   -3.8460   -2.1412    0.5438 O   0  0  0  0  0  0  0  0  0  0  0  0
   -2.7748   -2.6556   -0.2120 C   0  0  0  0  0  0  0  0  0  0  0  0
   -1.6575   -1.6733   -0.0068 C   0  0  0  0  0  0  0  0  0  0  0  0
   -2.1087   -0.6795    0.7867 C   0  0  0  0  0  0  0  0  0  0  0  0
   -1.3024    0.5332    1.1146 C   0  0  0  0  0  0  0  0  0  0  0  0
   -1.8842    1.7121    0.3540 C   0  0  0  0  0  0  0  0  0  0  0  0
   -1.5037    1.9699   -0.9559 C   0  0  0  0  0  0  0  0  0  0  0  0
   -2.0718    3.0193   -1.6560 C   0  0  0  0  0  0  0  0  0  0  0  0
   -3.0337    3.8142   -1.0569 C   0  0  0  0  0  0  0  0  0  0  0  0
   -3.4251    3.5542    0.2454 C   0  0  0  0  0  0  0  0  0  0  0  0
   -2.8526    2.5093    0.9483 C   0  0  0  0  0  0  0  0  0  0  0  0
    0.1376    0.2784    0.7274 C   0  0  0  0  0  0  0  0  0  0  0  0
    1.0793    1.2044    1.1634 C   0  0  0  0  0  0  0  0  0  0  0  0
    2.4026    1.0832    0.8000 C   0  0  0  0  0  0  0  0  0  0  0  0
    2.7983    0.0195   -0.0019 C   0  0  0  0  0  0  0  0  0  0  0  0
    1.8871   -0.9204   -0.4323 C   0  0  0  0  0  0  0  0  0  0  0  0
    0.5398   -0.8010   -0.0758 C   0  0  0  0  0  0  0  0  0  0  0  0
   -0.3990   -1.7625   -0.5087 N   0  0  0  0  0  0  0  0  0  0  0  0
   -0.0510   -2.8627   -1.3804 C   0  0  0  0  0  0  0  0  0  0  0  0
    0.4338   -4.1173   -0.6248 C   0  0  0  0  0  0  0  0  0  0  0  0
    1.7221   -3.9961   -0.0867 O   0  0  0  0  0  0  0  0  0  0  0  0
    4.2743    0.0732   -0.2594 C   0  0  0  0  0  0  0  0  0  0  0  0
    4.6440    1.5139    0.1306 C   0  0  0  0  0  0  0  0  0  0  0  0
    3.5760    1.9477    1.1487 C   0  0  0  0  0  0  0  0  0  0  0  0
   -3.0863   -2.7240   -1.2621 H   0  0  0  0  0  0  0  0  0  0  0  0
   -2.5390   -3.6631    0.1489 H   0  0  0  0  0  0  0  0  0  0  0  0
   -1.3706    0.7510    2.1873 H   0  0  0  0  0  0  0  0  0  0  0  0
   -0.7544    1.3511   -1.4297 H   0  0  0  0  0  0  0  0  0  0  0  0
   -1.7646    3.2140   -2.6735 H   0  0  0  0  0  0  0  0  0  0  0  0
   -3.4794    4.6312   -1.6053 H   0  0  0  0  0  0  0  0  0  0  0  0
   -4.1806    4.1662    0.7155 H   0  0  0  0  0  0  0  0  0  0  0  0
   -3.1706    2.2971    1.9578 H   0  0  0  0  0  0  0  0  0  0  0  0
    0.7494    2.0295    1.7776 H   0  0  0  0  0  0  0  0  0  0  0  0
    2.2417   -1.7383   -1.0379 H   0  0  0  0  0  0  0  0  0  0  0  0
    0.7206   -2.5426   -2.0827 H   0  0  0  0  0  0  0  0  0  0  0  0
   -0.9369   -3.1344   -1.9587 H   0  0  0  0  0  0  0  0  0  0  0  0
   -0.2915   -4.3720    0.1606 H   0  0  0  0  0  0  0  0  0  0  0  0
    0.4884   -4.9500   -1.3301 H   0  0  0  0  0  0  0  0  0  0  0  0
    1.7214   -3.3148    0.5964 H   0  0  0  0  0  0  0  0  0  0  0  0
    4.7849   -0.6494    0.3836 H   0  0  0  0  0  0  0  0  0  0  0  0
    4.5318   -0.1596   -1.2924 H   0  0  0  0  0  0  0  0  0  0  0  0
    5.6531    1.5875    0.5323 H   0  0  0  0  0  0  0  0  0  0  0  0
    4.5822    2.1535   -0.7510 H   0  0  0  0  0  0  0  0  0  0  0  0
    3.9000    1.7333    2.1710 H   0  0  0  0  0  0  0  0  0  0  0  0
    3.3468    3.0112    1.0870 H   0  0  0  0  0  0  0  0  0  0  0  0
  1  2  2  0  0  0  0
  2  3  1  0  0  0  0
  3  4  1  0  0  0  0
  4  5  1  0  0  0  0
  5  6  2  0  0  0  0
  6  7  1  0  0  0  0
  7  8  1  0  0  0  0
  8  9  2  0  0  0  0
  9 10  1  0  0  0  0
 10 11  2  0  0  0  0
 11 12  1  0  0  0  0
 12 13  2  0  0  0  0
  7 14  1  0  0  0  0
 14 15  2  0  0  0  0
 15 16  1  0  0  0  0
 16 17  2  0  0  0  0
 17 18  1  0  0  0  0
 18 19  2  0  0  0  0
 19 20  1  0  0  0  0
 20 21  1  0  0  0  0
 21 22  1  0  0  0  0
 22 23  1  0  0  0  0
 17 24  1  0  0  0  0
 24 25  1  0  0  0  0
 25 26  1  0  0  0  0
  6  2  1  0  0  0  0
 13  8  1  0  0  0  0
 19 14  1  0  0  0  0
 20  5  1  0  0  0  0
 26 16  1  0  0  0  0
  4 27  1  0  0  0  0
  4 28  1  0  0  0  0
  7 29  1  0  0  0  0
  9 30  1  0  0  0  0
 10 31  1  0  0  0  0
 11 32  1  0  0  0  0
 12 33  1  0  0  0  0
 13 34  1  0  0  0  0
 15 35  1  0  0  0  0
 18 36  1  0  0  0  0
 21 37  1  0  0  0  0
 21 38  1  0  0  0  0
 22 39  1  0  0  0  0
 22 40  1  0  0  0  0
 23 41  1  0  0  0  0
 24 42  1  0  0  0  0
 24 43  1  0  0  0  0
 25 44  1  0  0  0  0
 25 45  1  0  0  0  0
 26 46  1  0  0  0  0
 26 47  1  0  0  0  0
M  END
