
  xtb     03022216113D
 energy: -75.995127828581 gnorm: 0.000073220183 xtb: 6.4.1 (afa7bdf)
 52 55  0     0  0            999 V2000
   -1.0038    1.7445   -3.2197 C   0  0  0  0  0  0  0  0  0  0  0  0
   -1.2460    1.0608   -1.9035 C   0  0  0  0  0  0  0  0  0  0  0  0
   -1.7263   -0.2452   -1.8719 C   0  0  0  0  0  0  0  0  0  0  0  0
   -1.9971   -0.9576   -3.1681 C   0  0  0  0  0  0  0  0  0  0  0  0
   -1.9744   -0.8661   -0.6430 C   0  0  0  0  0  0  0  0  0  0  0  0
   -2.7558   -2.1524   -0.6158 C   0  0  0  0  0  0  0  0  0  0  0  0
   -1.5357   -0.2534    0.5326 C   0  0  0  0  0  0  0  0  0  0  0  0
   -1.0859    1.0756    0.5023 C   0  0  0  0  0  0  0  0  0  0  0  0
   -1.0444    1.7631   -0.7105 C   0  0  0  0  0  0  0  0  0  0  0  0
   -0.8240    3.2491   -0.7808 C   0  0  0  0  0  0  0  0  0  0  0  0
   -0.7362    1.7814    1.8001 C   0  0  0  0  0  0  0  0  0  0  0  0
    0.1774    2.8521    1.7268 O   0  0  0  0  0  0  0  0  0  0  0  0
    1.4939    2.6618    1.4534 C   0  0  0  0  0  0  0  0  0  0  0  0
    2.2311    3.8495    1.4355 C   0  0  0  0  0  0  0  0  0  0  0  0
    3.5852    3.8575    1.1854 C   0  0  0  0  0  0  0  0  0  0  0  0
    4.2477    2.6618    0.9419 C   0  0  0  0  0  0  0  0  0  0  0  0
    3.5375    1.4837    0.9523 C   0  0  0  0  0  0  0  0  0  0  0  0
    2.1571    1.4504    1.2052 C   0  0  0  0  0  0  0  0  0  0  0  0
    1.5665    0.1700    1.1715 C   0  0  0  0  0  0  0  0  0  0  0  0
    1.1870   -0.9767    1.1031 C   0  0  0  0  0  0  0  0  0  0  0  0
    0.8999   -2.3507    0.9641 C   0  0  0  0  0  0  0  0  0  0  0  0
    1.9527   -3.1376    0.4721 C   0  0  0  0  0  0  0  0  0  0  0  0
    1.8286   -4.4975    0.3043 C   0  0  0  0  0  0  0  0  0  0  0  0
    0.6311   -5.1169    0.6355 C   0  0  0  0  0  0  0  0  0  0  0  0
   -0.4178   -4.3640    1.1147 C   0  0  0  0  0  0  0  0  0  0  0  0
   -0.3131   -2.9804    1.2826 C   0  0  0  0  0  0  0  0  0  0  0  0
   -1.4453   -2.4093    1.7707 O   0  0  0  0  0  0  0  0  0  0  0  0
   -1.5963   -1.0086    1.8476 C   0  0  0  0  0  0  0  0  0  0  0  0
   -1.9209    2.2076   -3.5869 H   0  0  0  0  0  0  0  0  0  0  0  0
   -0.2436    2.5141   -3.1258 H   0  0  0  0  0  0  0  0  0  0  0  0
   -0.6679    1.0353   -3.9702 H   0  0  0  0  0  0  0  0  0  0  0  0
   -2.7548   -0.4296   -3.7464 H   0  0  0  0  0  0  0  0  0  0  0  0
   -1.0870   -0.9978   -3.7656 H   0  0  0  0  0  0  0  0  0  0  0  0
   -2.3271   -1.9776   -3.0137 H   0  0  0  0  0  0  0  0  0  0  0  0
   -2.1312   -3.0093   -0.8698 H   0  0  0  0  0  0  0  0  0  0  0  0
   -3.1865   -2.3296    0.3636 H   0  0  0  0  0  0  0  0  0  0  0  0
   -3.5744   -2.0965   -1.3312 H   0  0  0  0  0  0  0  0  0  0  0  0
    0.2252    3.4900   -0.9568 H   0  0  0  0  0  0  0  0  0  0  0  0
   -1.4127    3.6705   -1.5925 H   0  0  0  0  0  0  0  0  0  0  0  0
   -1.1287    3.7335    0.1408 H   0  0  0  0  0  0  0  0  0  0  0  0
   -0.3648    1.0713    2.5439 H   0  0  0  0  0  0  0  0  0  0  0  0
   -1.6457    2.2431    2.2077 H   0  0  0  0  0  0  0  0  0  0  0  0
    1.6951    4.7662    1.6282 H   0  0  0  0  0  0  0  0  0  0  0  0
    4.1253    4.7923    1.1800 H   0  0  0  0  0  0  0  0  0  0  0  0
    5.3090    2.6541    0.7455 H   0  0  0  0  0  0  0  0  0  0  0  0
    4.0364    0.5440    0.7637 H   0  0  0  0  0  0  0  0  0  0  0  0
    2.8794   -2.6397    0.2255 H   0  0  0  0  0  0  0  0  0  0  0  0
    2.6564   -5.0750   -0.0782 H   0  0  0  0  0  0  0  0  0  0  0  0
    0.5164   -6.1837    0.5158 H   0  0  0  0  0  0  0  0  0  0  0  0
   -1.3588   -4.8237    1.3760 H   0  0  0  0  0  0  0  0  0  0  0  0
   -2.5838   -0.8751    2.3080 H   0  0  0  0  0  0  0  0  0  0  0  0
   -0.8486   -0.6288    2.5493 H   0  0  0  0  0  0  0  0  0  0  0  0
  1  2  1  0  0  0  0
  2  3  2  0  0  0  0
  3  4  1  0  0  0  0
  3  5  1  0  0  0  0
  5  6  1  0  0  0  0
  5  7  2  0  0  0  0
  7  8  1  0  0  0  0
  8  9  2  0  0  0  0
  9 10  1  0  0  0  0
  8 11  1  0  0  0  0
 11 12  1  0  0  0  0
 12 13  1  0  0  0  0
 13 14  2  0  0  0  0
 14 15  1  0  0  0  0
 15 16  2  0  0  0  0
 16 17  1  0  0  0  0
 17 18  2  0  0  0  0
 18 19  1  0  0  0  0
 19 20  3  0  0  0  0
 20 21  1  0  0  0  0
 21 22  2  0  0  0  0
 22 23  1  0  0  0  0
 23 24  2  0  0  0  0
 24 25  1  0  0  0  0
 25 26  2  0  0  0  0
 26 27  1  0  0  0  0
 27 28  1  0  0  0  0
  9  2  1  0  0  0  0
 18 13  1  0  0  0  0
 26 21  1  0  0  0  0
 28  7  1  0  0  0  0
  1 29  1  0  0  0  0
  1 30  1  0  0  0  0
  1 31  1  0  0  0  0
  4 32  1  0  0  0  0
  4 33  1  0  0  0  0
  4 34  1  0  0  0  0
  6 35  1  0  0  0  0
  6 36  1  0  0  0  0
  6 37  1  0  0  0  0
 10 38  1  0  0  0  0
 10 39  1  0  0  0  0
 10 40  1  0  0  0  0
 11 41  1  0  0  0  0
 11 42  1  0  0  0  0
 14 43  1  0  0  0  0
 15 44  1  0  0  0  0
 16 45  1  0  0  0  0
 17 46  1  0  0  0  0
 22 47  1  0  0  0  0
 23 48  1  0  0  0  0
 24 49  1  0  0  0  0
 25 50  1  0  0  0  0
 28 51  1  0  0  0  0
 28 52  1  0  0  0  0
M  END
