
  xtb     03022215483D
 energy: -89.269410155616 gnorm: 0.000196765960 xtb: 6.4.1 (afa7bdf)
 58 62  0     0  0            999 V2000
   -7.1024   -2.2540    1.9114 C   0  0  0  0  0  0  0  0  0  0  0  0
   -6.1244   -2.7318    1.0204 O   0  0  0  0  0  0  0  0  0  0  0  0
   -4.9611   -2.0370    0.8944 C   0  0  0  0  0  0  0  0  0  0  0  0
   -4.6374   -0.8851    1.6027 C   0  0  0  0  0  0  0  0  0  0  0  0
   -3.4205   -0.2606    1.3860 C   0  0  0  0  0  0  0  0  0  0  0  0
   -2.4978   -0.7760    0.4849 C   0  0  0  0  0  0  0  0  0  0  0  0
   -1.2316   -0.0666    0.2179 C   0  0  0  0  0  0  0  0  0  0  0  0
   -1.3101    1.2267   -0.2563 C   0  0  0  0  0  0  0  0  0  0  0  0
   -0.1389    1.9212   -0.6158 C   0  0  0  0  0  0  0  0  0  0  0  0
   -0.1601    3.3051   -1.1027 C   0  0  0  0  0  0  0  0  0  0  0  0
    0.9656    3.8031   -1.7619 C   0  0  0  0  0  0  0  0  0  0  0  0
    0.9882    5.0976   -2.2346 C   0  0  0  0  0  0  0  0  0  0  0  0
   -0.1052    5.9412   -2.0621 C   0  0  0  0  0  0  0  0  0  0  0  0
   -0.0773    7.3398   -2.5976 C   0  0  0  0  0  0  0  0  0  0  0  0
   -1.2188    5.4497   -1.3938 C   0  0  0  0  0  0  0  0  0  0  0  0
   -1.2505    4.1520   -0.9192 C   0  0  0  0  0  0  0  0  0  0  0  0
    1.0428    1.3444   -0.5672 N   0  0  0  0  0  0  0  0  0  0  0  0
    1.1590    0.0940   -0.1048 C   0  0  0  0  0  0  0  0  0  0  0  0
    2.4580   -0.4806   -0.0899 C   0  0  0  0  0  0  0  0  0  0  0  0
    3.5126    0.3243   -0.5405 C   0  0  0  0  0  0  0  0  0  0  0  0
    4.3551    1.0170   -0.9075 N   0  0  0  0  0  0  0  0  0  0  0  0
    2.5947   -1.7898    0.4022 C   0  0  0  0  0  0  0  0  0  0  0  0
    3.7426   -2.4901    0.3999 N   0  0  0  0  0  0  0  0  0  0  0  0
    4.9975   -2.0839   -0.1941 C   0  0  0  0  0  0  0  0  0  0  0  0
    5.8383   -3.3599   -0.1838 C   0  0  0  0  0  0  0  0  0  0  0  0
    5.3171   -4.0979    1.0468 C   0  0  0  0  0  0  0  0  0  0  0  0
    3.8205   -3.8111    0.9920 C   0  0  0  0  0  0  0  0  0  0  0  0
    1.5538   -2.4370    0.9629 N   0  0  0  0  0  0  0  0  0  0  0  0
    0.3481   -1.9153    0.9755 C   0  0  0  0  0  0  0  0  0  0  0  0
   -0.5902   -2.6540    1.6158 N   0  0  0  0  0  0  0  0  0  0  0  0
    0.0425   -0.6571    0.3635 C   0  0  0  0  0  0  0  0  0  0  0  0
   -2.8313   -1.9299   -0.2269 C   0  0  0  0  0  0  0  0  0  0  0  0
   -4.0438   -2.5497   -0.0267 C   0  0  0  0  0  0  0  0  0  0  0  0
   -7.4425   -1.2507    1.6353 H   0  0  0  0  0  0  0  0  0  0  0  0
   -6.7364   -2.2431    2.9434 H   0  0  0  0  0  0  0  0  0  0  0  0
   -7.9363   -2.9497    1.8340 H   0  0  0  0  0  0  0  0  0  0  0  0
   -5.3227   -0.4595    2.3186 H   0  0  0  0  0  0  0  0  0  0  0  0
   -3.1787    0.6360    1.9388 H   0  0  0  0  0  0  0  0  0  0  0  0
   -2.2811    1.6756   -0.3951 H   0  0  0  0  0  0  0  0  0  0  0  0
    1.8157    3.1506   -1.8855 H   0  0  0  0  0  0  0  0  0  0  0  0
    1.8670    5.4662   -2.7442 H   0  0  0  0  0  0  0  0  0  0  0  0
   -0.2237    7.3280   -3.6782 H   0  0  0  0  0  0  0  0  0  0  0  0
   -0.8642    7.9450   -2.1537 H   0  0  0  0  0  0  0  0  0  0  0  0
    0.8845    7.8083   -2.3981 H   0  0  0  0  0  0  0  0  0  0  0  0
   -2.0738    6.0934   -1.2386 H   0  0  0  0  0  0  0  0  0  0  0  0
   -2.1264    3.8123   -0.3866 H   0  0  0  0  0  0  0  0  0  0  0  0
    4.8457   -1.6930   -1.2027 H   0  0  0  0  0  0  0  0  0  0  0  0
    5.4695   -1.2970    0.4065 H   0  0  0  0  0  0  0  0  0  0  0  0
    5.6400   -3.9465   -1.0816 H   0  0  0  0  0  0  0  0  0  0  0  0
    6.9037   -3.1478   -0.1338 H   0  0  0  0  0  0  0  0  0  0  0  0
    5.5360   -5.1632    1.0266 H   0  0  0  0  0  0  0  0  0  0  0  0
    5.7492   -3.6674    1.9508 H   0  0  0  0  0  0  0  0  0  0  0  0
    3.2969   -4.5372    0.3584 H   0  0  0  0  0  0  0  0  0  0  0  0
    3.3397   -3.8101    1.9717 H   0  0  0  0  0  0  0  0  0  0  0  0
   -1.4909   -2.2678    1.8317 H   0  0  0  0  0  0  0  0  0  0  0  0
   -0.2615   -3.4629    2.1127 H   0  0  0  0  0  0  0  0  0  0  0  0
   -2.1310   -2.3314   -0.9439 H   0  0  0  0  0  0  0  0  0  0  0  0
   -4.3138   -3.4367   -0.5771 H   0  0  0  0  0  0  0  0  0  0  0  0
  1  2  1  0  0  0  0
  2  3  1  0  0  0  0
  3  4  2  0  0  0  0
  4  5  1  0  0  0  0
  5  6  2  0  0  0  0
  6  7  1  0  0  0  0
  7  8  2  0  0  0  0
  8  9  1  0  0  0  0
  9 10  1  0  0  0  0
 10 11  2  0  0  0  0
 11 12  1  0  0  0  0
 12 13  2  0  0  0  0
 13 14  1  0  0  0  0
 13 15  1  0  0  0  0
 15 16  2  0  0  0  0
  9 17  2  0  0  0  0
 17 18  1  0  0  0  0
 18 19  2  0  0  0  0
 19 20  1  0  0  0  0
 20 21  3  0  0  0  0
 19 22  1  0  0  0  0
 22 23  1  0  0  0  0
 23 24  1  0  0  0  0
 24 25  1  0  0  0  0
 25 26  1  0  0  0  0
 26 27  1  0  0  0  0
 22 28  2  0  0  0  0
 28 29  1  0  0  0  0
 29 30  1  0  0  0  0
 29 31  2  0  0  0  0
  6 32  1  0  0  0  0
 32 33  2  0  0  0  0
 33  3  1  0  0  0  0
 31  7  1  0  0  0  0
 16 10  1  0  0  0  0
 31 18  1  0  0  0  0
 27 23  1  0  0  0  0
  1 34  1  0  0  0  0
  1 35  1  0  0  0  0
  1 36  1  0  0  0  0
  4 37  1  0  0  0  0
  5 38  1  0  0  0  0
  8 39  1  0  0  0  0
 11 40  1  0  0  0  0
 12 41  1  0  0  0  0
 14 42  1  0  0  0  0
 14 43  1  0  0  0  0
 14 44  1  0  0  0  0
 15 45  1  0  0  0  0
 16 46  1  0  0  0  0
 24 47  1  0  0  0  0
 24 48  1  0  0  0  0
 25 49  1  0  0  0  0
 25 50  1  0  0  0  0
 26 51  1  0  0  0  0
 26 52  1  0  0  0  0
 27 53  1  0  0  0  0
 27 54  1  0  0  0  0
 30 55  1  0  0  0  0
 30 56  1  0  0  0  0
 32 57  1  0  0  0  0
 33 58  1  0  0  0  0
M  END
