
  xtb     03022212373D
 energy: -143.363171708290 gnorm: 0.000249218503 xtb: 6.4.1 (afa7bdf)
 92 99  0     0  0            999 V2000
  -15.9502   -0.3707    1.0961 C   0  0  0  0  0  0  0  0  0  0  0  0
  -15.2072   -1.1412    0.0108 C   0  0  0  0  0  0  0  0  0  0  0  0
  -13.6868   -1.0396    0.1384 C   0  0  0  0  0  0  0  0  0  0  0  0
  -13.1635    0.3771   -0.0956 C   0  0  0  0  0  0  0  0  0  0  0  0
  -11.6483    0.4308   -0.2785 C   0  0  0  0  0  0  0  0  0  0  0  0
  -10.8937    0.0140    0.9833 C   0  0  0  0  0  0  0  0  0  0  0  0
   -9.4567    0.1973    0.8130 N   0  0  0  0  0  0  0  0  0  0  0  0
   -8.9301    1.4259    1.1706 C   0  0  0  0  0  0  0  0  0  0  0  0
   -9.6399    2.2994    1.6269 O   0  0  0  0  0  0  0  0  0  0  0  0
   -7.4806    1.6059    0.9737 C   0  0  0  0  0  0  0  0  0  0  0  0
   -6.9034    2.8145    1.3007 C   0  0  0  0  0  0  0  0  0  0  0  0
   -5.5396    3.0158    1.0882 C   0  0  0  0  0  0  0  0  0  0  0  0
   -4.7560    2.0093    0.5834 C   0  0  0  0  0  0  0  0  0  0  0  0
   -5.2961    0.7448    0.2745 C   0  0  0  0  0  0  0  0  0  0  0  0
   -4.5246   -0.3390   -0.2422 C   0  0  0  0  0  0  0  0  0  0  0  0
   -3.0835   -0.2852   -0.3986 C   0  0  0  0  0  0  0  0  0  0  0  0
   -2.3554   -0.8275   -1.4294 C   0  0  0  0  0  0  0  0  0  0  0  0
   -0.9719   -0.6836   -1.2807 C   0  0  0  0  0  0  0  0  0  0  0  0
   -0.6154   -0.0491   -0.1148 C   0  0  0  0  0  0  0  0  0  0  0  0
    0.6899    0.2681    0.3578 C   0  0  0  0  0  0  0  0  0  0  0  0
    1.0427    0.9052    1.5235 C   0  0  0  0  0  0  0  0  0  0  0  0
    2.4251    1.0597    1.6708 C   0  0  0  0  0  0  0  0  0  0  0  0
    3.1538    0.5706    0.6142 C   0  0  0  0  0  0  0  0  0  0  0  0
    4.6006    0.5330    0.5155 C   0  0  0  0  0  0  0  0  0  0  0  0
    5.3136    0.2362    1.6670 C   0  0  0  0  0  0  0  0  0  0  0  0
    6.7002    0.1473    1.6645 C   0  0  0  0  0  0  0  0  0  0  0  0
    7.4107    0.3479    0.4982 C   0  0  0  0  0  0  0  0  0  0  0  0
    6.7261    0.6726   -0.6899 C   0  0  0  0  0  0  0  0  0  0  0  0
    7.4542    0.8991   -1.8764 C   0  0  0  0  0  0  0  0  0  0  0  0
    6.8004    1.2501   -3.0384 C   0  0  0  0  0  0  0  0  0  0  0  0
    5.4145    1.4081   -3.0378 C   0  0  0  0  0  0  0  0  0  0  0  0
    4.6873    1.1867   -1.8959 C   0  0  0  0  0  0  0  0  0  0  0  0
    5.3098    0.7851   -0.6969 C   0  0  0  0  0  0  0  0  0  0  0  0
    8.9229    0.7762   -1.8884 C   0  0  0  0  0  0  0  0  0  0  0  0
    9.5830    0.9404   -2.8945 O   0  0  0  0  0  0  0  0  0  0  0  0
    9.5295    0.4722   -0.6825 N   0  0  0  0  0  0  0  0  0  0  0  0
   10.9835    0.3568   -0.6777 C   0  0  0  0  0  0  0  0  0  0  0  0
   11.4198   -1.0835   -0.9429 C   0  0  0  0  0  0  0  0  0  0  0  0
   12.9335   -1.2155   -1.0969 C   0  0  0  0  0  0  0  0  0  0  0  0
   13.7033   -0.8925    0.1819 C   0  0  0  0  0  0  0  0  0  0  0  0
   15.1946   -1.1868    0.0348 C   0  0  0  0  0  0  0  0  0  0  0  0
   15.9672   -0.8436    1.3024 C   0  0  0  0  0  0  0  0  0  0  0  0
    8.8771    0.2313    0.5146 C   0  0  0  0  0  0  0  0  0  0  0  0
    9.5009   -0.0501    1.5182 O   0  0  0  0  0  0  0  0  0  0  0  0
    2.0988   -0.1309   -0.5795 S   0  0  0  0  0  0  0  0  0  0  0  0
   -2.0237    0.3913    0.8049 S   0  0  0  0  0  0  0  0  0  0  0  0
   -5.1673   -1.5104   -0.6127 C   0  0  0  0  0  0  0  0  0  0  0  0
   -6.5392   -1.6696   -0.4605 C   0  0  0  0  0  0  0  0  0  0  0  0
   -7.3042   -0.6560    0.0806 C   0  0  0  0  0  0  0  0  0  0  0  0
   -6.6942    0.5604    0.4466 C   0  0  0  0  0  0  0  0  0  0  0  0
   -8.7509   -0.8560    0.2573 C   0  0  0  0  0  0  0  0  0  0  0  0
   -9.3134   -1.8856   -0.0580 O   0  0  0  0  0  0  0  0  0  0  0  0
  -17.0221   -0.5339    1.0090 H   0  0  0  0  0  0  0  0  0  0  0  0
  -15.6325   -0.7022    2.0823 H   0  0  0  0  0  0  0  0  0  0  0  0
  -15.7624    0.6964    1.0139 H   0  0  0  0  0  0  0  0  0  0  0  0
  -15.5132   -0.7706   -0.9704 H   0  0  0  0  0  0  0  0  0  0  0  0
  -15.4916   -2.1946    0.0682 H   0  0  0  0  0  0  0  0  0  0  0  0
  -13.2285   -1.7081   -0.5942 H   0  0  0  0  0  0  0  0  0  0  0  0
  -13.3928   -1.3837    1.1314 H   0  0  0  0  0  0  0  0  0  0  0  0
  -13.6312    0.7807   -0.9969 H   0  0  0  0  0  0  0  0  0  0  0  0
  -13.4405    1.0207    0.7407 H   0  0  0  0  0  0  0  0  0  0  0  0
  -11.3560    1.4531   -0.5315 H   0  0  0  0  0  0  0  0  0  0  0  0
  -11.3508   -0.2245   -1.1003 H   0  0  0  0  0  0  0  0  0  0  0  0
  -11.0619   -1.0415    1.1991 H   0  0  0  0  0  0  0  0  0  0  0  0
  -11.2051    0.6301    1.8288 H   0  0  0  0  0  0  0  0  0  0  0  0
   -7.5284    3.5972    1.7032 H   0  0  0  0  0  0  0  0  0  0  0  0
   -5.1012    3.9752    1.3169 H   0  0  0  0  0  0  0  0  0  0  0  0
   -3.7095    2.1986    0.4055 H   0  0  0  0  0  0  0  0  0  0  0  0
   -2.8132   -1.2847   -2.2883 H   0  0  0  0  0  0  0  0  0  0  0  0
   -0.2485   -1.0314   -1.9967 H   0  0  0  0  0  0  0  0  0  0  0  0
    0.3175    1.2436    2.2422 H   0  0  0  0  0  0  0  0  0  0  0  0
    2.8784    1.5508    2.5132 H   0  0  0  0  0  0  0  0  0  0  0  0
    4.7754    0.0403    2.5820 H   0  0  0  0  0  0  0  0  0  0  0  0
    7.2404   -0.0947    2.5672 H   0  0  0  0  0  0  0  0  0  0  0  0
    7.3821    1.4158   -3.9325 H   0  0  0  0  0  0  0  0  0  0  0  0
    4.9133    1.7144   -3.9434 H   0  0  0  0  0  0  0  0  0  0  0  0
    3.6201    1.3391   -1.9159 H   0  0  0  0  0  0  0  0  0  0  0  0
   11.3297    0.6879    0.3019 H   0  0  0  0  0  0  0  0  0  0  0  0
   11.3662    1.0152   -1.4596 H   0  0  0  0  0  0  0  0  0  0  0  0
   10.9382   -1.4238   -1.8629 H   0  0  0  0  0  0  0  0  0  0  0  0
   11.0750   -1.7146   -0.1209 H   0  0  0  0  0  0  0  0  0  0  0  0
   13.2712   -0.5590   -1.9020 H   0  0  0  0  0  0  0  0  0  0  0  0
   13.1597   -2.2427   -1.3932 H   0  0  0  0  0  0  0  0  0  0  0  0
   13.5759    0.1612    0.4351 H   0  0  0  0  0  0  0  0  0  0  0  0
   13.2980   -1.4838    1.0059 H   0  0  0  0  0  0  0  0  0  0  0  0
   15.5945   -0.6088   -0.8017 H   0  0  0  0  0  0  0  0  0  0  0  0
   15.3335   -2.2449   -0.1992 H   0  0  0  0  0  0  0  0  0  0  0  0
   17.0249   -1.0649    1.1795 H   0  0  0  0  0  0  0  0  0  0  0  0
   15.5912   -1.4196    2.1451 H   0  0  0  0  0  0  0  0  0  0  0  0
   15.8628    0.2133    1.5383 H   0  0  0  0  0  0  0  0  0  0  0  0
   -4.5820   -2.3305   -1.0002 H   0  0  0  0  0  0  0  0  0  0  0  0
   -7.0234   -2.5920   -0.7435 H   0  0  0  0  0  0  0  0  0  0  0  0
  1  2  1  0  0  0  0
  2  3  1  0  0  0  0
  3  4  1  0  0  0  0
  4  5  1  0  0  0  0
  5  6  1  0  0  0  0
  6  7  1  0  0  0  0
  7  8  1  0  0  0  0
  8  9  2  0  0  0  0
  8 10  1  0  0  0  0
 10 11  1  0  0  0  0
 11 12  2  0  0  0  0
 12 13  1  0  0  0  0
 13 14  2  0  0  0  0
 14 15  1  0  0  0  0
 15 16  1  0  0  0  0
 16 17  2  0  0  0  0
 17 18  1  0  0  0  0
 18 19  2  0  0  0  0
 19 20  1  0  0  0  0
 20 21  2  0  0  0  0
 21 22  1  0  0  0  0
 22 23  2  0  0  0  0
 23 24  1  0  0  0  0
 24 25  2  0  0  0  0
 25 26  1  0  0  0  0
 26 27  2  0  0  0  0
 27 28  1  0  0  0  0
 28 29  2  0  0  0  0
 29 30  1  0  0  0  0
 30 31  2  0  0  0  0
 31 32  1  0  0  0  0
 32 33  2  0  0  0  0
 29 34  1  0  0  0  0
 34 35  2  0  0  0  0
 34 36  1  0  0  0  0
 36 37  1  0  0  0  0
 37 38  1  0  0  0  0
 38 39  1  0  0  0  0
 39 40  1  0  0  0  0
 40 41  1  0  0  0  0
 41 42  1  0  0  0  0
 36 43  1  0  0  0  0
 43 44  2  0  0  0  0
 23 45  1  0  0  0  0
 19 46  1  0  0  0  0
 15 47  2  0  0  0  0
 47 48  1  0  0  0  0
 48 49  2  0  0  0  0
 49 50  1  0  0  0  0
 49 51  1  0  0  0  0
 51 52  2  0  0  0  0
 51  7  1  0  0  0  0
 50 10  2  0  0  0  0
 50 14  1  0  0  0  0
 46 16  1  0  0  0  0
 45 20  1  0  0  0  0
 33 24  1  0  0  0  0
 43 27  1  0  0  0  0
 33 28  1  0  0  0  0
  1 53  1  0  0  0  0
  1 54  1  0  0  0  0
  1 55  1  0  0  0  0
  2 56  1  0  0  0  0
  2 57  1  0  0  0  0
  3 58  1  0  0  0  0
  3 59  1  0  0  0  0
  4 60  1  0  0  0  0
  4 61  1  0  0  0  0
  5 62  1  0  0  0  0
  5 63  1  0  0  0  0
  6 64  1  0  0  0  0
  6 65  1  0  0  0  0
 11 66  1  0  0  0  0
 12 67  1  0  0  0  0
 13 68  1  0  0  0  0
 17 69  1  0  0  0  0
 18 70  1  0  0  0  0
 21 71  1  0  0  0  0
 22 72  1  0  0  0  0
 25 73  1  0  0  0  0
 26 74  1  0  0  0  0
 30 75  1  0  0  0  0
 31 76  1  0  0  0  0
 32 77  1  0  0  0  0
 37 78  1  0  0  0  0
 37 79  1  0  0  0  0
 38 80  1  0  0  0  0
 38 81  1  0  0  0  0
 39 82  1  0  0  0  0
 39 83  1  0  0  0  0
 40 84  1  0  0  0  0
 40 85  1  0  0  0  0
 41 86  1  0  0  0  0
 41 87  1  0  0  0  0
 42 88  1  0  0  0  0
 42 89  1  0  0  0  0
 42 90  1  0  0  0  0
 47 91  1  0  0  0  0
 48 92  1  0  0  0  0
M  END
