
  xtb     03022216143D
 energy: -64.638261572932 gnorm: 0.000150957864 xtb: 6.4.1 (afa7bdf)
 32 34  0     0  0            999 V2000
   -6.1410    0.0269    0.4948 N   0  0  0  0  0  0  0  0  0  0  0  0
   -4.8036    0.1320    0.2349 C   0  0  0  0  0  0  0  0  0  0  0  0
   -4.3373    1.0267   -0.7458 C   0  0  0  0  0  0  0  0  0  0  0  0
   -2.9953    1.1891   -0.9765 C   0  0  0  0  0  0  0  0  0  0  0  0
   -2.0494    0.4622   -0.2407 C   0  0  0  0  0  0  0  0  0  0  0  0
   -0.6427    0.5870   -0.4386 C   0  0  0  0  0  0  0  0  0  0  0  0
    0.2192   -0.1501    0.3036 C   0  0  0  0  0  0  0  0  0  0  0  0
    1.6787   -0.1147    0.2046 C   0  0  0  0  0  0  0  0  0  0  0  0
    2.4459   -0.8496    1.1136 C   0  0  0  0  0  0  0  0  0  0  0  0
    3.8245   -0.8389    1.0516 C   0  0  0  0  0  0  0  0  0  0  0  0
    4.4611   -0.0909    0.0706 C   0  0  0  0  0  0  0  0  0  0  0  0
    5.9585   -0.0379   -0.0104 C   0  0  0  0  0  0  0  0  0  0  0  0
    6.5647   -1.0002    0.6972 F   0  0  0  0  0  0  0  0  0  0  0  0
    6.4485    1.1325    0.4490 F   0  0  0  0  0  0  0  0  0  0  0  0
    6.4086   -0.1519   -1.2731 F   0  0  0  0  0  0  0  0  0  0  0  0
    3.7149    0.6460   -0.8424 C   0  0  0  0  0  0  0  0  0  0  0  0
    2.3376    0.6315   -0.7766 C   0  0  0  0  0  0  0  0  0  0  0  0
   -0.2328   -1.0196    1.2498 O   0  0  0  0  0  0  0  0  0  0  0  0
   -1.5529   -1.2140    1.5211 C   0  0  0  0  0  0  0  0  0  0  0  0
   -1.8415   -2.0107    2.3799 O   0  0  0  0  0  0  0  0  0  0  0  0
   -2.5142   -0.4349    0.7390 C   0  0  0  0  0  0  0  0  0  0  0  0
   -3.8728   -0.5949    0.9716 C   0  0  0  0  0  0  0  0  0  0  0  0
   -6.7901    0.3814   -0.1860 H   0  0  0  0  0  0  0  0  0  0  0  0
   -6.4524   -0.7493    1.0525 H   0  0  0  0  0  0  0  0  0  0  0  0
   -5.0580    1.5914   -1.3198 H   0  0  0  0  0  0  0  0  0  0  0  0
   -2.6546    1.8800   -1.7333 H   0  0  0  0  0  0  0  0  0  0  0  0
   -0.2865    1.2803   -1.1804 H   0  0  0  0  0  0  0  0  0  0  0  0
    1.9477   -1.4305    1.8729 H   0  0  0  0  0  0  0  0  0  0  0  0
    4.4062   -1.4106    1.7581 H   0  0  0  0  0  0  0  0  0  0  0  0
    4.2189    1.2222   -1.6035 H   0  0  0  0  0  0  0  0  0  0  0  0
    1.7783    1.2018   -1.4995 H   0  0  0  0  0  0  0  0  0  0  0  0
   -4.1886   -1.2919    1.7329 H   0  0  0  0  0  0  0  0  0  0  0  0
  1  2  1  0  0  0  0
  2  3  2  0  0  0  0
  3  4  1  0  0  0  0
  4  5  2  0  0  0  0
  5  6  1  0  0  0  0
  6  7  2  0  0  0  0
  7  8  1  0  0  0  0
  8  9  2  0  0  0  0
  9 10  1  0  0  0  0
 10 11  2  0  0  0  0
 11 12  1  0  0  0  0
 12 13  1  0  0  0  0
 12 14  1  0  0  0  0
 12 15  1  0  0  0  0
 11 16  1  0  0  0  0
 16 17  2  0  0  0  0
  7 18  1  0  0  0  0
 18 19  1  0  0  0  0
 19 20  2  0  0  0  0
 19 21  1  0  0  0  0
 21 22  2  0  0  0  0
 22  2  1  0  0  0  0
 21  5  1  0  0  0  0
 17  8  1  0  0  0  0
  1 23  1  0  0  0  0
  1 24  1  0  0  0  0
  3 25  1  0  0  0  0
  4 26  1  0  0  0  0
  6 27  1  0  0  0  0
  9 28  1  0  0  0  0
 10 29  1  0  0  0  0
 16 30  1  0  0  0  0
 17 31  1  0  0  0  0
 22 32  1  0  0  0  0
M  END
