
  xtb     03022214293D
 energy: -80.971516710131 gnorm: 0.000156694613 xtb: 6.4.1 (afa7bdf)
 51 54  0     0  0            999 V2000
   -7.1278   -2.4529    2.9984 C   0  0  0  0  0  0  0  0  0  0  0  0
   -6.8904   -1.4870    1.9854 O   0  0  0  0  0  0  0  0  0  0  0  0
   -5.6116   -1.2732    1.6731 C   0  0  0  0  0  0  0  0  0  0  0  0
   -4.6863   -1.8473    2.1987 O   0  0  0  0  0  0  0  0  0  0  0  0
   -5.4291   -0.2568    0.6112 C   0  0  0  0  0  0  0  0  0  0  0  0
   -6.4541    0.4100    0.0019 C   0  0  0  0  0  0  0  0  0  0  0  0
   -6.2364    1.3953   -1.0293 C   0  0  0  0  0  0  0  0  0  0  0  0
   -7.1303    2.0083   -1.5926 O   0  0  0  0  0  0  0  0  0  0  0  0
   -4.9008    1.6314   -1.3741 N   0  0  0  0  0  0  0  0  0  0  0  0
   -4.6291    2.6099   -2.4023 C   0  0  0  0  0  0  0  0  0  0  0  0
   -3.8647    0.9777   -0.7800 C   0  0  0  0  0  0  0  0  0  0  0  0
   -2.4894    1.1300   -1.0410 C   0  0  0  0  0  0  0  0  0  0  0  0
   -1.7022    0.3160   -0.2612 C   0  0  0  0  0  0  0  0  0  0  0  0
   -0.2656    0.2099   -0.2603 C   0  0  0  0  0  0  0  0  0  0  0  0
    0.3893   -0.6256    0.6515 C   0  0  0  0  0  0  0  0  0  0  0  0
    1.7574   -0.7401    0.6726 C   0  0  0  0  0  0  0  0  0  0  0  0
    2.5606   -0.0228   -0.2302 C   0  0  0  0  0  0  0  0  0  0  0  0
    3.9203   -0.1304   -0.2106 N   0  0  0  0  0  0  0  0  0  0  0  0
    4.5980   -1.2311    0.4384 C   0  0  0  0  0  0  0  0  0  0  0  0
    5.9073   -1.5190   -0.3021 C   0  0  0  0  0  0  0  0  0  0  0  0
    6.8322   -0.3952   -0.2927 N   0  0  0  0  0  0  0  0  0  0  0  0
    7.8820   -0.4980    0.6954 C   0  0  0  0  0  0  0  0  0  0  0  0
    6.1308    0.8747   -0.1918 C   0  0  0  0  0  0  0  0  0  0  0  0
    4.7787    0.8136   -0.8926 C   0  0  0  0  0  0  0  0  0  0  0  0
    1.9037    0.8134   -1.1481 C   0  0  0  0  0  0  0  0  0  0  0  0
    0.5340    0.9259   -1.1587 C   0  0  0  0  0  0  0  0  0  0  0  0
   -2.6592   -0.6679    0.8249 S   0  0  0  0  0  0  0  0  0  0  0  0
   -4.1122    0.0306    0.2146 C   0  0  0  0  0  0  0  0  0  0  0  0
   -8.2066   -2.5072    3.1191 H   0  0  0  0  0  0  0  0  0  0  0  0
   -6.7244   -3.4228    2.6997 H   0  0  0  0  0  0  0  0  0  0  0  0
   -6.6510   -2.1479    3.9324 H   0  0  0  0  0  0  0  0  0  0  0  0
   -7.4793    0.2211    0.2740 H   0  0  0  0  0  0  0  0  0  0  0  0
   -4.0197    3.4226   -2.0041 H   0  0  0  0  0  0  0  0  0  0  0  0
   -4.1132    2.1456   -3.2441 H   0  0  0  0  0  0  0  0  0  0  0  0
   -5.5907    3.0017   -2.7333 H   0  0  0  0  0  0  0  0  0  0  0  0
   -2.0951    1.8132   -1.7688 H   0  0  0  0  0  0  0  0  0  0  0  0
   -0.2000   -1.1849    1.3634 H   0  0  0  0  0  0  0  0  0  0  0  0
    2.2130   -1.3772    1.4137 H   0  0  0  0  0  0  0  0  0  0  0  0
    3.9669   -2.1223    0.4002 H   0  0  0  0  0  0  0  0  0  0  0  0
    4.8089   -1.0022    1.4937 H   0  0  0  0  0  0  0  0  0  0  0  0
    6.3918   -2.3919    0.1377 H   0  0  0  0  0  0  0  0  0  0  0  0
    5.6700   -1.7581   -1.3455 H   0  0  0  0  0  0  0  0  0  0  0  0
    7.5085   -0.4901    1.7318 H   0  0  0  0  0  0  0  0  0  0  0  0
    8.5598    0.3457    0.5701 H   0  0  0  0  0  0  0  0  0  0  0  0
    8.4418   -1.4165    0.5288 H   0  0  0  0  0  0  0  0  0  0  0  0
    5.9665    1.1667    0.8605 H   0  0  0  0  0  0  0  0  0  0  0  0
    6.7515    1.6458   -0.6591 H   0  0  0  0  0  0  0  0  0  0  0  0
    4.3217    1.8057   -0.8535 H   0  0  0  0  0  0  0  0  0  0  0  0
    4.9268    0.5377   -1.9460 H   0  0  0  0  0  0  0  0  0  0  0  0
    2.4729    1.3650   -1.8793 H   0  0  0  0  0  0  0  0  0  0  0  0
    0.0748    1.5724   -1.8901 H   0  0  0  0  0  0  0  0  0  0  0  0
  1  2  1  0  0  0  0
  2  3  1  0  0  0  0
  3  4  2  0  0  0  0
  3  5  1  0  0  0  0
  5  6  2  0  0  0  0
  6  7  1  0  0  0  0
  7  8  2  0  0  0  0
  7  9  1  0  0  0  0
  9 10  1  0  0  0  0
  9 11  1  0  0  0  0
 11 12  1  0  0  0  0
 12 13  2  0  0  0  0
 13 14  1  0  0  0  0
 14 15  2  0  0  0  0
 15 16  1  0  0  0  0
 16 17  2  0  0  0  0
 17 18  1  0  0  0  0
 18 19  1  0  0  0  0
 19 20  1  0  0  0  0
 20 21  1  0  0  0  0
 21 22  1  0  0  0  0
 21 23  1  0  0  0  0
 23 24  1  0  0  0  0
 17 25  1  0  0  0  0
 25 26  2  0  0  0  0
 13 27  1  0  0  0  0
 27 28  1  0  0  0  0
 28  5  1  0  0  0  0
 28 11  2  0  0  0  0
 26 14  1  0  0  0  0
 24 18  1  0  0  0  0
  1 29  1  0  0  0  0
  1 30  1  0  0  0  0
  1 31  1  0  0  0  0
  6 32  1  0  0  0  0
 10 33  1  0  0  0  0
 10 34  1  0  0  0  0
 10 35  1  0  0  0  0
 12 36  1  0  0  0  0
 15 37  1  0  0  0  0
 16 38  1  0  0  0  0
 19 39  1  0  0  0  0
 19 40  1  0  0  0  0
 20 41  1  0  0  0  0
 20 42  1  0  0  0  0
 22 43  1  0  0  0  0
 22 44  1  0  0  0  0
 22 45  1  0  0  0  0
 23 46  1  0  0  0  0
 23 47  1  0  0  0  0
 24 48  1  0  0  0  0
 24 49  1  0  0  0  0
 25 50  1  0  0  0  0
 26 51  1  0  0  0  0
M  END
