
  xtb     03022215593D
 energy: -63.044105119637 gnorm: 0.000121236880 xtb: 6.4.1 (afa7bdf)
 40 43  0     0  0            999 V2000
    7.1252    0.3692   -0.2558 O   0  0  0  0  0  0  0  0  0  0  0  0
    5.7700    0.2788   -0.2072 C   0  0  0  0  0  0  0  0  0  0  0  0
    5.0331    1.4569   -0.1261 C   0  0  0  0  0  0  0  0  0  0  0  0
    3.6562    1.4114   -0.0741 C   0  0  0  0  0  0  0  0  0  0  0  0
    2.9812    0.1897   -0.1017 C   0  0  0  0  0  0  0  0  0  0  0  0
    1.5393    0.0922   -0.0482 C   0  0  0  0  0  0  0  0  0  0  0  0
    0.8629   -1.0345   -0.0869 N   0  0  0  0  0  0  0  0  0  0  0  0
   -0.4549   -0.7144   -0.0094 C   0  0  0  0  0  0  0  0  0  0  0  0
   -1.4663   -1.7618    0.0297 C   0  0  0  0  0  0  0  0  0  0  0  0
   -2.6406   -1.6184    0.7662 C   0  0  0  0  0  0  0  0  0  0  0  0
   -3.5757   -2.6357    0.7901 C   0  0  0  0  0  0  0  0  0  0  0  0
   -3.3512   -3.8090    0.0883 C   0  0  0  0  0  0  0  0  0  0  0  0
   -2.1767   -3.9667   -0.6292 C   0  0  0  0  0  0  0  0  0  0  0  0
   -1.2382   -2.9532   -0.6559 C   0  0  0  0  0  0  0  0  0  0  0  0
   -0.5940    0.6665    0.0699 C   0  0  0  0  0  0  0  0  0  0  0  0
   -1.7469    1.5468    0.0987 C   0  0  0  0  0  0  0  0  0  0  0  0
   -2.9066    1.2258   -0.6089 C   0  0  0  0  0  0  0  0  0  0  0  0
   -3.9945    2.0757   -0.5900 C   0  0  0  0  0  0  0  0  0  0  0  0
   -3.9453    3.2615    0.1262 C   0  0  0  0  0  0  0  0  0  0  0  0
   -2.7970    3.5932    0.8250 C   0  0  0  0  0  0  0  0  0  0  0  0
   -1.7052    2.7459    0.8114 C   0  0  0  0  0  0  0  0  0  0  0  0
    0.6888    1.1523    0.0565 N   0  0  0  0  0  0  0  0  0  0  0  0
    3.7292   -0.9862   -0.1835 C   0  0  0  0  0  0  0  0  0  0  0  0
    5.1056   -0.9440   -0.2357 C   0  0  0  0  0  0  0  0  0  0  0  0
    7.5104   -0.5139   -0.3093 H   0  0  0  0  0  0  0  0  0  0  0  0
    5.5613    2.3969   -0.1052 H   0  0  0  0  0  0  0  0  0  0  0  0
    3.1111    2.3421   -0.0124 H   0  0  0  0  0  0  0  0  0  0  0  0
   -2.8136   -0.7124    1.3285 H   0  0  0  0  0  0  0  0  0  0  0  0
   -4.4836   -2.5149    1.3637 H   0  0  0  0  0  0  0  0  0  0  0  0
   -4.0866   -4.6002    0.1072 H   0  0  0  0  0  0  0  0  0  0  0  0
   -1.9938   -4.8843   -1.1697 H   0  0  0  0  0  0  0  0  0  0  0  0
   -0.3165   -3.0638   -1.2061 H   0  0  0  0  0  0  0  0  0  0  0  0
   -2.9412    0.3084   -1.1769 H   0  0  0  0  0  0  0  0  0  0  0  0
   -4.8858    1.8151   -1.1415 H   0  0  0  0  0  0  0  0  0  0  0  0
   -4.7978    3.9241    0.1388 H   0  0  0  0  0  0  0  0  0  0  0  0
   -2.7523    4.5155    1.3860 H   0  0  0  0  0  0  0  0  0  0  0  0
   -0.8219    3.0047    1.3794 H   0  0  0  0  0  0  0  0  0  0  0  0
    0.9347    2.1279    0.0692 H   0  0  0  0  0  0  0  0  0  0  0  0
    3.2011   -1.9257   -0.2026 H   0  0  0  0  0  0  0  0  0  0  0  0
    5.6757   -1.8618   -0.2982 H   0  0  0  0  0  0  0  0  0  0  0  0
  1  2  1  0  0  0  0
  2  3  2  0  0  0  0
  3  4  1  0  0  0  0
  4  5  2  0  0  0  0
  5  6  1  0  0  0  0
  6  7  2  0  0  0  0
  7  8  1  0  0  0  0
  8  9  1  0  0  0  0
  9 10  2  0  0  0  0
 10 11  1  0  0  0  0
 11 12  2  0  0  0  0
 12 13  1  0  0  0  0
 13 14  2  0  0  0  0
  8 15  2  0  0  0  0
 15 16  1  0  0  0  0
 16 17  2  0  0  0  0
 17 18  1  0  0  0  0
 18 19  2  0  0  0  0
 19 20  1  0  0  0  0
 20 21  2  0  0  0  0
 15 22  1  0  0  0  0
  5 23  1  0  0  0  0
 23 24  2  0  0  0  0
 24  2  1  0  0  0  0
 22  6  1  0  0  0  0
 14  9  1  0  0  0  0
 21 16  1  0  0  0  0
  1 25  1  0  0  0  0
  3 26  1  0  0  0  0
  4 27  1  0  0  0  0
 10 28  1  0  0  0  0
 11 29  1  0  0  0  0
 12 30  1  0  0  0  0
 13 31  1  0  0  0  0
 14 32  1  0  0  0  0
 17 33  1  0  0  0  0
 18 34  1  0  0  0  0
 19 35  1  0  0  0  0
 20 36  1  0  0  0  0
 21 37  1  0  0  0  0
 22 38  1  0  0  0  0
 23 39  1  0  0  0  0
 24 40  1  0  0  0  0
M  END
