
  xtb     03022215523D
 energy: -72.554875098557 gnorm: 0.000273525357 xtb: 6.4.1 (afa7bdf)
 45 46  0     0  0            999 V2000
    1.5582   -4.5146    0.6253 C   0  0  0  0  0  0  0  0  0  0  0  0
    1.3316   -3.1223    0.4706 O   0  0  0  0  0  0  0  0  0  0  0  0
    0.0385   -2.7750    0.1917 C   0  0  0  0  0  0  0  0  0  0  0  0
   -0.8339   -3.6033    0.0850 O   0  0  0  0  0  0  0  0  0  0  0  0
   -0.1204   -1.3485    0.0373 C   0  0  0  0  0  0  0  0  0  0  0  0
    0.8518   -0.3518    0.0206 C   0  0  0  0  0  0  0  0  0  0  0  0
    2.1760   -0.4711    0.1876 N   0  0  0  0  0  0  0  0  0  0  0  0
    3.1610    0.6049    0.1709 C   0  0  0  0  0  0  0  0  0  0  0  0
    3.1366    1.3102   -1.1886 C   0  0  0  0  0  0  0  0  0  0  0  0
    4.5242   -0.0471    0.3980 C   0  0  0  0  0  0  0  0  0  0  0  0
    2.8603    1.5987    1.2974 C   0  0  0  0  0  0  0  0  0  0  0  0
    0.2914    0.8387   -0.2071 O   0  0  0  0  0  0  0  0  0  0  0  0
   -1.0693    0.6565   -0.3646 C   0  0  0  0  0  0  0  0  0  0  0  0
   -1.8739    1.8384   -0.5922 C   0  0  0  0  0  0  0  0  0  0  0  0
   -1.3158    3.1046   -0.3952 C   0  0  0  0  0  0  0  0  0  0  0  0
   -2.0678    4.2438   -0.6024 C   0  0  0  0  0  0  0  0  0  0  0  0
   -3.3882    4.1432   -1.0088 C   0  0  0  0  0  0  0  0  0  0  0  0
   -3.9476    2.8922   -1.2156 C   0  0  0  0  0  0  0  0  0  0  0  0
   -3.2022    1.7470   -1.0145 C   0  0  0  0  0  0  0  0  0  0  0  0
   -1.3611   -0.6715   -0.2134 C   0  0  0  0  0  0  0  0  0  0  0  0
   -2.6562   -1.3933   -0.2379 C   0  0  0  0  0  0  0  0  0  0  0  0
   -3.3719   -1.5086   -1.1993 O   0  0  0  0  0  0  0  0  0  0  0  0
   -2.9200   -1.8957    0.9670 O   0  0  0  0  0  0  0  0  0  0  0  0
   -4.0466   -2.7550    1.0631 C   0  0  0  0  0  0  0  0  0  0  0  0
    0.9769   -4.9032    1.4639 H   0  0  0  0  0  0  0  0  0  0  0  0
    1.2664   -5.0501   -0.2803 H   0  0  0  0  0  0  0  0  0  0  0  0
    2.6230   -4.6316    0.8127 H   0  0  0  0  0  0  0  0  0  0  0  0
    2.4888   -1.4130    0.3649 H   0  0  0  0  0  0  0  0  0  0  0  0
    3.3262    0.5955   -1.9861 H   0  0  0  0  0  0  0  0  0  0  0  0
    3.9015    2.0811   -1.2217 H   0  0  0  0  0  0  0  0  0  0  0  0
    2.1697    1.7732   -1.3614 H   0  0  0  0  0  0  0  0  0  0  0  0
    5.3046    0.7086    0.3992 H   0  0  0  0  0  0  0  0  0  0  0  0
    4.5451   -0.5636    1.3551 H   0  0  0  0  0  0  0  0  0  0  0  0
    4.7403   -0.7627   -0.3921 H   0  0  0  0  0  0  0  0  0  0  0  0
    1.8903    2.0624    1.1457 H   0  0  0  0  0  0  0  0  0  0  0  0
    2.8539    1.0883    2.2578 H   0  0  0  0  0  0  0  0  0  0  0  0
    3.6175    2.3775    1.3205 H   0  0  0  0  0  0  0  0  0  0  0  0
   -0.2883    3.1867   -0.0745 H   0  0  0  0  0  0  0  0  0  0  0  0
   -1.6228    5.2157   -0.4444 H   0  0  0  0  0  0  0  0  0  0  0  0
   -3.9764    5.0347   -1.1682 H   0  0  0  0  0  0  0  0  0  0  0  0
   -4.9735    2.8087   -1.5426 H   0  0  0  0  0  0  0  0  0  0  0  0
   -3.6380    0.7807   -1.2029 H   0  0  0  0  0  0  0  0  0  0  0  0
   -4.8740   -2.3651    0.4663 H   0  0  0  0  0  0  0  0  0  0  0  0
   -4.3146   -2.7985    2.1161 H   0  0  0  0  0  0  0  0  0  0  0  0
   -3.7716   -3.7462    0.6972 H   0  0  0  0  0  0  0  0  0  0  0  0
  1  2  1  0  0  0  0
  2  3  1  0  0  0  0
  3  4  2  0  0  0  0
  3  5  1  0  0  0  0
  5  6  2  0  0  0  0
  6  7  1  0  0  0  0
  7  8  1  0  0  0  0
  8  9  1  0  0  0  0
  8 10  1  0  0  0  0
  8 11  1  0  0  0  0
  6 12  1  0  0  0  0
 12 13  1  0  0  0  0
 13 14  1  0  0  0  0
 14 15  2  0  0  0  0
 15 16  1  0  0  0  0
 16 17  2  0  0  0  0
 17 18  1  0  0  0  0
 18 19  2  0  0  0  0
 13 20  2  0  0  0  0
 20 21  1  0  0  0  0
 21 22  2  0  0  0  0
 21 23  1  0  0  0  0
 23 24  1  0  0  0  0
 20  5  1  0  0  0  0
 19 14  1  0  0  0  0
  1 25  1  0  0  0  0
  1 26  1  0  0  0  0
  1 27  1  0  0  0  0
  7 28  1  0  0  0  0
  9 29  1  0  0  0  0
  9 30  1  0  0  0  0
  9 31  1  0  0  0  0
 10 32  1  0  0  0  0
 10 33  1  0  0  0  0
 10 34  1  0  0  0  0
 11 35  1  0  0  0  0
 11 36  1  0  0  0  0
 11 37  1  0  0  0  0
 15 38  1  0  0  0  0
 16 39  1  0  0  0  0
 17 40  1  0  0  0  0
 18 41  1  0  0  0  0
 19 42  1  0  0  0  0
 24 43  1  0  0  0  0
 24 44  1  0  0  0  0
 24 45  1  0  0  0  0
M  END
