
  xtb     03022212043D
 energy: -84.243419922266 gnorm: 0.000307058730 xtb: 6.4.1 (afa7bdf)
 49 53  0     0  0            999 V2000
   -3.6363   -0.5602    2.8145 O   0  0  0  0  0  0  0  0  0  0  0  0
   -4.0320   -1.4372    2.0752 N   0  0  0  0  0  4  0  0  0  0  0  0
   -4.7561   -2.3464    2.4134 O   0  0  0  0  0  1  0  0  0  0  0  0
   -3.6425   -1.3913    0.6867 C   0  0  0  0  0  0  0  0  0  0  0  0
   -4.5707   -1.9035   -0.2185 C   0  0  0  0  0  0  0  0  0  0  0  0
   -4.3193   -1.8817   -1.5724 C   0  0  0  0  0  0  0  0  0  0  0  0
   -3.1103   -1.3537   -2.0002 C   0  0  0  0  0  0  0  0  0  0  0  0
   -2.8404   -1.3245   -3.3112 F   0  0  0  0  0  0  0  0  0  0  0  0
   -2.1683   -0.8662   -1.1151 C   0  0  0  0  0  0  0  0  0  0  0  0
   -2.4203   -0.8642    0.2534 C   0  0  0  0  0  0  0  0  0  0  0  0
   -1.3165   -0.3862    1.1666 C   0  0  0  0  0  0  0  0  0  0  0  0
   -0.1630   -1.4057    1.2174 C   0  0  0  0  0  0  0  0  0  0  0  0
    0.9889   -0.6171    0.5976 C   0  0  0  0  0  0  0  0  0  0  0  0
    2.3028   -1.1830    0.4058 C   0  0  0  0  0  0  0  0  0  0  0  0
    2.4910   -2.5183    0.7278 C   0  0  0  0  0  0  0  0  0  0  0  0
    3.7228   -3.1532    0.5639 C   0  0  0  0  0  0  0  0  0  0  0  0
    4.7942   -2.4611    0.0733 C   0  0  0  0  0  0  0  0  0  0  0  0
    4.6665   -1.0977   -0.2612 C   0  0  0  0  0  0  0  0  0  0  0  0
    5.7734   -0.3780   -0.7590 C   0  0  0  0  0  0  0  0  0  0  0  0
    5.6680    0.9458   -1.0774 C   0  0  0  0  0  0  0  0  0  0  0  0
    4.4441    1.6042   -0.9019 C   0  0  0  0  0  0  0  0  0  0  0  0
    3.3517    0.9322   -0.4240 C   0  0  0  0  0  0  0  0  0  0  0  0
    3.4186   -0.4361   -0.0949 C   0  0  0  0  0  0  0  0  0  0  0  0
    0.6201    0.5751    0.2836 N   0  0  0  0  0  0  0  0  0  0  0  0
   -0.6555    0.7946    0.5956 N   0  0  0  0  0  0  0  0  0  0  0  0
   -1.2837    1.9928    0.3353 C   0  0  0  0  0  0  0  0  0  0  0  0
   -2.5893    2.2291    0.7688 C   0  0  0  0  0  0  0  0  0  0  0  0
   -3.1993    3.4368    0.4885 C   0  0  0  0  0  0  0  0  0  0  0  0
   -2.5304    4.4207   -0.2197 C   0  0  0  0  0  0  0  0  0  0  0  0
   -1.2315    4.1898   -0.6449 C   0  0  0  0  0  0  0  0  0  0  0  0
   -0.6089    2.9895   -0.3743 C   0  0  0  0  0  0  0  0  0  0  0  0
   -5.4947   -2.3087    0.1656 H   0  0  0  0  0  0  0  0  0  0  0  0
   -5.0310   -2.2601   -2.2873 H   0  0  0  0  0  0  0  0  0  0  0  0
   -1.2355   -0.4832   -1.4994 H   0  0  0  0  0  0  0  0  0  0  0  0
   -1.6927   -0.1465    2.1631 H   0  0  0  0  0  0  0  0  0  0  0  0
    0.0704   -1.7033    2.2400 H   0  0  0  0  0  0  0  0  0  0  0  0
   -0.3906   -2.3003    0.6345 H   0  0  0  0  0  0  0  0  0  0  0  0
    1.6708   -3.1027    1.1144 H   0  0  0  0  0  0  0  0  0  0  0  0
    3.8165   -4.1966    0.8272 H   0  0  0  0  0  0  0  0  0  0  0  0
    5.7508   -2.9445   -0.0623 H   0  0  0  0  0  0  0  0  0  0  0  0
    6.7118   -0.9006   -0.8805 H   0  0  0  0  0  0  0  0  0  0  0  0
    6.5207    1.4890   -1.4578 H   0  0  0  0  0  0  0  0  0  0  0  0
    4.3669    2.6540   -1.1453 H   0  0  0  0  0  0  0  0  0  0  0  0
    2.4166    1.4461   -0.2856 H   0  0  0  0  0  0  0  0  0  0  0  0
   -3.1232    1.4877    1.3411 H   0  0  0  0  0  0  0  0  0  0  0  0
   -4.2085    3.6097    0.8321 H   0  0  0  0  0  0  0  0  0  0  0  0
   -3.0155    5.3603   -0.4351 H   0  0  0  0  0  0  0  0  0  0  0  0
   -0.6999    4.9519   -1.1954 H   0  0  0  0  0  0  0  0  0  0  0  0
    0.3997    2.8025   -0.7060 H   0  0  0  0  0  0  0  0  0  0  0  0
  1  2  2  0  0  0  0
  2  3  1  0  0  0  0
  2  4  1  0  0  0  0
  4  5  2  0  0  0  0
  5  6  1  0  0  0  0
  6  7  2  0  0  0  0
  7  8  1  0  0  0  0
  7  9  1  0  0  0  0
  9 10  2  0  0  0  0
 10 11  1  0  0  0  0
 11 12  1  0  0  0  0
 12 13  1  0  0  0  0
 13 14  1  0  0  0  0
 14 15  2  0  0  0  0
 15 16  1  0  0  0  0
 16 17  2  0  0  0  0
 17 18  1  0  0  0  0
 18 19  2  0  0  0  0
 19 20  1  0  0  0  0
 20 21  2  0  0  0  0
 21 22  1  0  0  0  0
 22 23  2  0  0  0  0
 13 24  2  0  0  0  0
 24 25  1  0  0  0  0
 25 26  1  0  0  0  0
 26 27  2  0  0  0  0
 27 28  1  0  0  0  0
 28 29  2  0  0  0  0
 29 30  1  0  0  0  0
 30 31  2  0  0  0  0
 10  4  1  0  0  0  0
 25 11  1  0  0  0  0
 31 26  1  0  0  0  0
 23 14  1  0  0  0  0
 23 18  1  0  0  0  0
  5 32  1  0  0  0  0
  6 33  1  0  0  0  0
  9 34  1  0  0  0  0
 11 35  1  0  0  0  0
 12 36  1  0  0  0  0
 12 37  1  0  0  0  0
 15 38  1  0  0  0  0
 16 39  1  0  0  0  0
 17 40  1  0  0  0  0
 19 41  1  0  0  0  0
 20 42  1  0  0  0  0
 21 43  1  0  0  0  0
 22 44  1  0  0  0  0
 27 45  1  0  0  0  0
 28 46  1  0  0  0  0
 29 47  1  0  0  0  0
 30 48  1  0  0  0  0
 31 49  1  0  0  0  0
M  CHG  1   2   1
M  CHG  1   3  -1
M  END
