
  xtb     03022212173D
 energy: -91.208820592428 gnorm: 0.000120833660 xtb: 6.4.1 (afa7bdf)
 59 65  0     0  0            999 V2000
    6.0074    3.9114   -0.3006 C   0  0  0  0  0  0  0  0  0  0  0  0
    4.8341    3.6745   -0.9980 C   0  0  0  0  0  0  0  0  0  0  0  0
    4.1938    2.4548   -0.8968 C   0  0  0  0  0  0  0  0  0  0  0  0
    4.7194    1.4512   -0.0833 C   0  0  0  0  0  0  0  0  0  0  0  0
    4.0731    0.2132    0.0230 N   0  0  0  0  0  0  0  0  0  0  0  0
    4.8313   -0.9620    0.1041 C   0  0  0  0  0  0  0  0  0  0  0  0
    6.0063   -1.0969   -0.6343 C   0  0  0  0  0  0  0  0  0  0  0  0
    6.7554   -2.2538   -0.5434 C   0  0  0  0  0  0  0  0  0  0  0  0
    6.3447   -3.2937    0.2746 C   0  0  0  0  0  0  0  0  0  0  0  0
    5.1759   -3.1658    1.0070 C   0  0  0  0  0  0  0  0  0  0  0  0
    4.4240   -2.0098    0.9291 C   0  0  0  0  0  0  0  0  0  0  0  0
    2.6804    0.1510    0.0466 C   0  0  0  0  0  0  0  0  0  0  0  0
    2.0014   -0.9063   -0.5664 C   0  0  0  0  0  0  0  0  0  0  0  0
    0.6277   -0.9614   -0.5404 C   0  0  0  0  0  0  0  0  0  0  0  0
   -0.1208    0.0333    0.0966 C   0  0  0  0  0  0  0  0  0  0  0  0
   -1.5615   -0.0702    0.0918 C   0  0  0  0  0  0  0  0  0  0  0  0
   -2.2346   -1.0104   -0.5347 N   0  0  0  0  0  0  0  0  0  0  0  0
   -3.5477   -0.7558   -0.2980 C   0  0  0  0  0  0  0  0  0  0  0  0
   -4.6946   -1.4675   -0.7524 C   0  0  0  0  0  0  0  0  0  0  0  0
   -4.5721   -2.5996   -1.5644 C   0  0  0  0  0  0  0  0  0  0  0  0
   -5.6892   -3.2697   -1.9970 C   0  0  0  0  0  0  0  0  0  0  0  0
   -6.9502   -2.8124   -1.6200 C   0  0  0  0  0  0  0  0  0  0  0  0
   -7.0839   -1.7009   -0.8211 C   0  0  0  0  0  0  0  0  0  0  0  0
   -5.9673   -0.9884   -0.3579 C   0  0  0  0  0  0  0  0  0  0  0  0
   -6.0881    0.1886    0.4863 C   0  0  0  0  0  0  0  0  0  0  0  0
   -7.3281    0.6899    0.9068 C   0  0  0  0  0  0  0  0  0  0  0  0
   -7.4278    1.8054    1.7055 C   0  0  0  0  0  0  0  0  0  0  0  0
   -6.2841    2.4795    2.1258 C   0  0  0  0  0  0  0  0  0  0  0  0
   -5.0503    2.0214    1.7370 C   0  0  0  0  0  0  0  0  0  0  0  0
   -4.9315    0.8859    0.9242 C   0  0  0  0  0  0  0  0  0  0  0  0
   -3.6781    0.3767    0.5031 C   0  0  0  0  0  0  0  0  0  0  0  0
   -2.4005    0.8008    0.7395 N   0  0  0  0  0  0  0  0  0  0  0  0
    0.5601    1.0884    0.7072 C   0  0  0  0  0  0  0  0  0  0  0  0
    1.9365    1.1463    0.6837 C   0  0  0  0  0  0  0  0  0  0  0  0
    5.8990    1.6956    0.6189 C   0  0  0  0  0  0  0  0  0  0  0  0
    6.5361    2.9160    0.5048 C   0  0  0  0  0  0  0  0  0  0  0  0
    6.5067    4.8646   -0.3851 H   0  0  0  0  0  0  0  0  0  0  0  0
    4.4185    4.4422   -1.6340 H   0  0  0  0  0  0  0  0  0  0  0  0
    3.2853    2.2677   -1.4504 H   0  0  0  0  0  0  0  0  0  0  0  0
    6.3237   -0.2908   -1.2797 H   0  0  0  0  0  0  0  0  0  0  0  0
    7.6625   -2.3470   -1.1223 H   0  0  0  0  0  0  0  0  0  0  0  0
    6.9314   -4.1972    0.3407 H   0  0  0  0  0  0  0  0  0  0  0  0
    4.8508   -3.9691    1.6516 H   0  0  0  0  0  0  0  0  0  0  0  0
    3.5182   -1.9085    1.5088 H   0  0  0  0  0  0  0  0  0  0  0  0
    2.5666   -1.6772   -1.0687 H   0  0  0  0  0  0  0  0  0  0  0  0
    0.0960   -1.7682   -1.0184 H   0  0  0  0  0  0  0  0  0  0  0  0
   -3.5779   -2.9198   -1.8346 H   0  0  0  0  0  0  0  0  0  0  0  0
   -5.5972   -4.1436   -2.6250 H   0  0  0  0  0  0  0  0  0  0  0  0
   -7.8329   -3.3356   -1.9587 H   0  0  0  0  0  0  0  0  0  0  0  0
   -8.0796   -1.3826   -0.5551 H   0  0  0  0  0  0  0  0  0  0  0  0
   -8.2388    0.1980    0.6050 H   0  0  0  0  0  0  0  0  0  0  0  0
   -8.4009    2.1619    2.0100 H   0  0  0  0  0  0  0  0  0  0  0  0
   -6.3702    3.3547    2.7528 H   0  0  0  0  0  0  0  0  0  0  0  0
   -4.1563    2.5374    2.0591 H   0  0  0  0  0  0  0  0  0  0  0  0
   -2.1290    1.5952    1.2923 H   0  0  0  0  0  0  0  0  0  0  0  0
    0.0201    1.8765    1.2123 H   0  0  0  0  0  0  0  0  0  0  0  0
    2.4505    1.9647    1.1663 H   0  0  0  0  0  0  0  0  0  0  0  0
    6.3085    0.9236    1.2539 H   0  0  0  0  0  0  0  0  0  0  0  0
    7.4481    3.0935    1.0555 H   0  0  0  0  0  0  0  0  0  0  0  0
  1  2  2  0  0  0  0
  2  3  1  0  0  0  0
  3  4  2  0  0  0  0
  4  5  1  0  0  0  0
  5  6  1  0  0  0  0
  6  7  2  0  0  0  0
  7  8  1  0  0  0  0
  8  9  2  0  0  0  0
  9 10  1  0  0  0  0
 10 11  2  0  0  0  0
  5 12  1  0  0  0  0
 12 13  2  0  0  0  0
 13 14  1  0  0  0  0
 14 15  2  0  0  0  0
 15 16  1  0  0  0  0
 16 17  2  0  0  0  0
 17 18  1  0  0  0  0
 18 19  2  0  0  0  0
 19 20  1  0  0  0  0
 20 21  2  0  0  0  0
 21 22  1  0  0  0  0
 22 23  2  0  0  0  0
 23 24  1  0  0  0  0
 24 25  2  0  0  0  0
 25 26  1  0  0  0  0
 26 27  2  0  0  0  0
 27 28  1  0  0  0  0
 28 29  2  0  0  0  0
 29 30  1  0  0  0  0
 30 31  2  0  0  0  0
 31 32  1  0  0  0  0
 15 33  1  0  0  0  0
 33 34  2  0  0  0  0
  4 35  1  0  0  0  0
 35 36  2  0  0  0  0
 36  1  1  0  0  0  0
 11  6  1  0  0  0  0
 34 12  1  0  0  0  0
 32 16  1  0  0  0  0
 31 18  1  0  0  0  0
 24 19  1  0  0  0  0
 30 25  1  0  0  0  0
  1 37  1  0  0  0  0
  2 38  1  0  0  0  0
  3 39  1  0  0  0  0
  7 40  1  0  0  0  0
  8 41  1  0  0  0  0
  9 42  1  0  0  0  0
 10 43  1  0  0  0  0
 11 44  1  0  0  0  0
 13 45  1  0  0  0  0
 14 46  1  0  0  0  0
 20 47  1  0  0  0  0
 21 48  1  0  0  0  0
 22 49  1  0  0  0  0
 23 50  1  0  0  0  0
 26 51  1  0  0  0  0
 27 52  1  0  0  0  0
 28 53  1  0  0  0  0
 29 54  1  0  0  0  0
 32 55  1  0  0  0  0
 33 56  1  0  0  0  0
 34 57  1  0  0  0  0
 35 58  1  0  0  0  0
 36 59  1  0  0  0  0
M  END
