
  xtb     03022213353D
 energy: -155.381372321657 gnorm: 0.000089674495 xtb: 6.4.1 (afa7bdf)
102112  0     0  0            999 V2000
   13.1709   -0.3303    1.1930 C   0  0  0  0  0  0  0  0  0  0  0  0
   12.1962    0.0777    0.0731 C   0  0  0  0  0  0  0  0  0  0  0  0
   12.9736    0.6316   -1.1349 C   0  0  0  0  0  0  0  0  0  0  0  0
   11.2788    1.1662    0.5968 C   0  0  0  0  0  0  0  0  0  0  0  0
   11.8236    2.3643    1.0381 C   0  0  0  0  0  0  0  0  0  0  0  0
   11.0373    3.4018    1.5035 C   0  0  0  0  0  0  0  0  0  0  0  0
    9.6624    3.2527    1.5196 C   0  0  0  0  0  0  0  0  0  0  0  0
    9.0946    2.0726    1.0879 C   0  0  0  0  0  0  0  0  0  0  0  0
    9.8891    1.0140    0.6380 C   0  0  0  0  0  0  0  0  0  0  0  0
    9.2897   -0.1637    0.2176 N   0  0  0  0  0  0  0  0  0  0  0  0
    7.8774   -0.2831    0.2911 C   0  0  0  0  0  0  0  0  0  0  0  0
    7.1046   -0.1683   -0.8592 C   0  0  0  0  0  0  0  0  0  0  0  0
    5.7309   -0.2857   -0.7855 C   0  0  0  0  0  0  0  0  0  0  0  0
    5.1024   -0.5272    0.4353 C   0  0  0  0  0  0  0  0  0  0  0  0
    3.6421   -0.6589    0.5102 C   0  0  0  0  0  0  0  0  0  0  0  0
    3.0504   -1.6160    1.3374 C   0  0  0  0  0  0  0  0  0  0  0  0
    1.6777   -1.7339    1.4040 C   0  0  0  0  0  0  0  0  0  0  0  0
    0.8501   -0.9015    0.6528 C   0  0  0  0  0  0  0  0  0  0  0  0
    1.4326    0.0613   -0.1820 C   0  0  0  0  0  0  0  0  0  0  0  0
    2.8160    0.1693   -0.2441 C   0  0  0  0  0  0  0  0  0  0  0  0
    0.6151    0.9774   -1.0094 C   0  0  0  0  0  0  0  0  0  0  0  0
    1.1221    1.8063   -1.7429 O   0  0  0  0  0  0  0  0  0  0  0  0
   -0.8478    0.8224   -0.8935 C   0  0  0  0  0  0  0  0  0  0  0  0
   -1.6756    1.6589   -1.6400 C   0  0  0  0  0  0  0  0  0  0  0  0
   -3.0484    1.5489   -1.5644 C   0  0  0  0  0  0  0  0  0  0  0  0
   -3.6402    0.5954   -0.7331 C   0  0  0  0  0  0  0  0  0  0  0  0
   -5.1008    0.4770   -0.6434 C   0  0  0  0  0  0  0  0  0  0  0  0
   -5.7179    0.2418    0.5844 C   0  0  0  0  0  0  0  0  0  0  0  0
   -7.0919    0.1418    0.6742 C   0  0  0  0  0  0  0  0  0  0  0  0
   -7.8770    0.2684   -0.4666 C   0  0  0  0  0  0  0  0  0  0  0  0
   -9.2897    0.1708   -0.3754 N   0  0  0  0  0  0  0  0  0  0  0  0
  -10.0058    1.2431    0.1348 C   0  0  0  0  0  0  0  0  0  0  0  0
   -9.3324    2.4076    0.5156 C   0  0  0  0  0  0  0  0  0  0  0  0
  -10.0168    3.4868    1.0335 C   0  0  0  0  0  0  0  0  0  0  0  0
  -11.3913    3.4276    1.1744 C   0  0  0  0  0  0  0  0  0  0  0  0
  -12.0619    2.2859    0.7769 C   0  0  0  0  0  0  0  0  0  0  0  0
  -11.3985    1.1854    0.2517 C   0  0  0  0  0  0  0  0  0  0  0  0
  -12.1975   -0.0256   -0.1904 C   0  0  0  0  0  0  0  0  0  0  0  0
  -13.1811    0.4116   -1.2913 C   0  0  0  0  0  0  0  0  0  0  0  0
  -12.9667   -0.5811    1.0222 C   0  0  0  0  0  0  0  0  0  0  0  0
  -11.3056   -1.1226   -0.7397 C   0  0  0  0  0  0  0  0  0  0  0  0
  -11.8763   -2.3067   -1.1861 C   0  0  0  0  0  0  0  0  0  0  0  0
  -11.1140   -3.3519   -1.6733 C   0  0  0  0  0  0  0  0  0  0  0  0
   -9.7371   -3.2256   -1.7062 C   0  0  0  0  0  0  0  0  0  0  0  0
   -9.1439   -2.0598   -1.2702 C   0  0  0  0  0  0  0  0  0  0  0  0
   -9.9143   -0.9926   -0.7990 C   0  0  0  0  0  0  0  0  0  0  0  0
   -7.2698    0.4946   -1.6968 C   0  0  0  0  0  0  0  0  0  0  0  0
   -5.8958    0.6009   -1.7818 C   0  0  0  0  0  0  0  0  0  0  0  0
   -2.8138   -0.2395    0.0135 C   0  0  0  0  0  0  0  0  0  0  0  0
   -1.4303   -0.1390   -0.0571 C   0  0  0  0  0  0  0  0  0  0  0  0
   -0.6128   -1.0606    0.7639 C   0  0  0  0  0  0  0  0  0  0  0  0
   -1.1196   -1.8957    1.4906 O   0  0  0  0  0  0  0  0  0  0  0  0
    5.8856   -0.6412    1.5830 C   0  0  0  0  0  0  0  0  0  0  0  0
    7.2590   -0.5173    1.5141 C   0  0  0  0  0  0  0  0  0  0  0  0
   10.0302   -1.2298   -0.2698 C   0  0  0  0  0  0  0  0  0  0  0  0
    9.3807   -2.4083   -0.6490 C   0  0  0  0  0  0  0  0  0  0  0  0
   10.0898   -3.4823   -1.1439 C   0  0  0  0  0  0  0  0  0  0  0  0
   11.4653   -3.4035   -1.2630 C   0  0  0  0  0  0  0  0  0  0  0  0
   12.1119   -2.2471   -0.8682 C   0  0  0  0  0  0  0  0  0  0  0  0
   11.4234   -1.1513   -0.3660 C   0  0  0  0  0  0  0  0  0  0  0  0
   13.7518    0.5230    1.5321 H   0  0  0  0  0  0  0  0  0  0  0  0
   12.6150   -0.7260    2.0411 H   0  0  0  0  0  0  0  0  0  0  0  0
   13.8605   -1.0957    0.8482 H   0  0  0  0  0  0  0  0  0  0  0  0
   13.6512   -0.1166   -1.5368 H   0  0  0  0  0  0  0  0  0  0  0  0
   12.2782    0.9224   -1.9202 H   0  0  0  0  0  0  0  0  0  0  0  0
   13.5576    1.5038   -0.8544 H   0  0  0  0  0  0  0  0  0  0  0  0
   12.8945    2.4990    1.0187 H   0  0  0  0  0  0  0  0  0  0  0  0
   11.4944    4.3192    1.8415 H   0  0  0  0  0  0  0  0  0  0  0  0
    9.0278    4.0551    1.8649 H   0  0  0  0  0  0  0  0  0  0  0  0
    8.0203    1.9691    1.0930 H   0  0  0  0  0  0  0  0  0  0  0  0
    7.5904    0.0094   -1.8071 H   0  0  0  0  0  0  0  0  0  0  0  0
    5.1390   -0.2094   -1.6852 H   0  0  0  0  0  0  0  0  0  0  0  0
    3.6750   -2.2824    1.9136 H   0  0  0  0  0  0  0  0  0  0  0  0
    1.2136   -2.4750    2.0380 H   0  0  0  0  0  0  0  0  0  0  0  0
    3.2355    0.9333   -0.8824 H   0  0  0  0  0  0  0  0  0  0  0  0
   -1.2114    2.3979   -2.2765 H   0  0  0  0  0  0  0  0  0  0  0  0
   -3.6730    2.2193   -2.1360 H   0  0  0  0  0  0  0  0  0  0  0  0
   -5.1166    0.1574    1.4771 H   0  0  0  0  0  0  0  0  0  0  0  0
   -7.5687   -0.0302    1.6278 H   0  0  0  0  0  0  0  0  0  0  0  0
   -8.2611    2.4672    0.3990 H   0  0  0  0  0  0  0  0  0  0  0  0
   -9.4734    4.3738    1.3235 H   0  0  0  0  0  0  0  0  0  0  0  0
  -11.9385    4.2641    1.5815 H   0  0  0  0  0  0  0  0  0  0  0  0
  -13.1362    2.2581    0.8797 H   0  0  0  0  0  0  0  0  0  0  0  0
  -13.7805   -0.4279   -1.6321 H   0  0  0  0  0  0  0  0  0  0  0  0
  -12.6307    0.8086   -2.1424 H   0  0  0  0  0  0  0  0  0  0  0  0
  -13.8531    1.1839   -0.9276 H   0  0  0  0  0  0  0  0  0  0  0  0
  -13.5691   -1.4401    0.7399 H   0  0  0  0  0  0  0  0  0  0  0  0
  -13.6260    0.1732    1.4426 H   0  0  0  0  0  0  0  0  0  0  0  0
  -12.2652   -0.8928    1.7938 H   0  0  0  0  0  0  0  0  0  0  0  0
  -12.9490   -2.4238   -1.1531 H   0  0  0  0  0  0  0  0  0  0  0  0
  -11.5910   -4.2578   -2.0148 H   0  0  0  0  0  0  0  0  0  0  0  0
   -9.1207   -4.0350   -2.0681 H   0  0  0  0  0  0  0  0  0  0  0  0
   -8.0682   -1.9744   -1.2882 H   0  0  0  0  0  0  0  0  0  0  0  0
   -7.8832    0.5832   -2.5812 H   0  0  0  0  0  0  0  0  0  0  0  0
   -5.4318    0.7610   -2.7437 H   0  0  0  0  0  0  0  0  0  0  0  0
   -3.2334   -1.0022    0.6533 H   0  0  0  0  0  0  0  0  0  0  0  0
    5.4123   -0.8066    2.5395 H   0  0  0  0  0  0  0  0  0  0  0  0
    7.8631   -0.5973    2.4057 H   0  0  0  0  0  0  0  0  0  0  0  0
    8.3085   -2.4825   -0.5496 H   0  0  0  0  0  0  0  0  0  0  0  0
    9.5648   -4.3806   -1.4330 H   0  0  0  0  0  0  0  0  0  0  0  0
   12.0318   -4.2359   -1.6516 H   0  0  0  0  0  0  0  0  0  0  0  0
   13.1871   -2.2037   -0.9546 H   0  0  0  0  0  0  0  0  0  0  0  0
  1  2  1  0  0  0  0
  2  3  1  0  0  0  0
  2  4  1  0  0  0  0
  4  5  2  0  0  0  0
  5  6  1  0  0  0  0
  6  7  2  0  0  0  0
  7  8  1  0  0  0  0
  8  9  2  0  0  0  0
  9 10  1  0  0  0  0
 10 11  1  0  0  0  0
 11 12  2  0  0  0  0
 12 13  1  0  0  0  0
 13 14  2  0  0  0  0
 14 15  1  0  0  0  0
 15 16  2  0  0  0  0
 16 17  1  0  0  0  0
 17 18  2  0  0  0  0
 18 19  1  0  0  0  0
 19 20  2  0  0  0  0
 19 21  1  0  0  0  0
 21 22  2  0  0  0  0
 21 23  1  0  0  0  0
 23 24  2  0  0  0  0
 24 25  1  0  0  0  0
 25 26  2  0  0  0  0
 26 27  1  0  0  0  0
 27 28  2  0  0  0  0
 28 29  1  0  0  0  0
 29 30  2  0  0  0  0
 30 31  1  0  0  0  0
 31 32  1  0  0  0  0
 32 33  2  0  0  0  0
 33 34  1  0  0  0  0
 34 35  2  0  0  0  0
 35 36  1  0  0  0  0
 36 37  2  0  0  0  0
 37 38  1  0  0  0  0
 38 39  1  0  0  0  0
 38 40  1  0  0  0  0
 38 41  1  0  0  0  0
 41 42  2  0  0  0  0
 42 43  1  0  0  0  0
 43 44  2  0  0  0  0
 44 45  1  0  0  0  0
 45 46  2  0  0  0  0
 30 47  1  0  0  0  0
 47 48  2  0  0  0  0
 26 49  1  0  0  0  0
 49 50  2  0  0  0  0
 50 51  1  0  0  0  0
 51 52  2  0  0  0  0
 14 53  1  0  0  0  0
 53 54  2  0  0  0  0
 10 55  1  0  0  0  0
 55 56  2  0  0  0  0
 56 57  1  0  0  0  0
 57 58  2  0  0  0  0
 58 59  1  0  0  0  0
 59 60  2  0  0  0  0
 60  2  1  0  0  0  0
  9  4  1  0  0  0  0
 54 11  1  0  0  0  0
 60 55  1  0  0  0  0
 20 15  1  0  0  0  0
 50 23  1  0  0  0  0
 51 18  1  0  0  0  0
 48 27  1  0  0  0  0
 46 31  1  0  0  0  0
 37 32  1  0  0  0  0
 46 41  1  0  0  0  0
  1 61  1  0  0  0  0
  1 62  1  0  0  0  0
  1 63  1  0  0  0  0
  3 64  1  0  0  0  0
  3 65  1  0  0  0  0
  3 66  1  0  0  0  0
  5 67  1  0  0  0  0
  6 68  1  0  0  0  0
  7 69  1  0  0  0  0
  8 70  1  0  0  0  0
 12 71  1  0  0  0  0
 13 72  1  0  0  0  0
 16 73  1  0  0  0  0
 17 74  1  0  0  0  0
 20 75  1  0  0  0  0
 24 76  1  0  0  0  0
 25 77  1  0  0  0  0
 28 78  1  0  0  0  0
 29 79  1  0  0  0  0
 33 80  1  0  0  0  0
 34 81  1  0  0  0  0
 35 82  1  0  0  0  0
 36 83  1  0  0  0  0
 39 84  1  0  0  0  0
 39 85  1  0  0  0  0
 39 86  1  0  0  0  0
 40 87  1  0  0  0  0
 40 88  1  0  0  0  0
 40 89  1  0  0  0  0
 42 90  1  0  0  0  0
 43 91  1  0  0  0  0
 44 92  1  0  0  0  0
 45 93  1  0  0  0  0
 47 94  1  0  0  0  0
 48 95  1  0  0  0  0
 49 96  1  0  0  0  0
 53 97  1  0  0  0  0
 54 98  1  0  0  0  0
 56 99  1  0  0  0  0
 57100  1  0  0  0  0
 58101  1  0  0  0  0
 59102  1  0  0  0  0
M  END
