
  xtb     03022215043D
 energy: -152.437025154124 gnorm: 0.000183192017 xtb: 6.4.1 (afa7bdf)
104112  0     0  0            999 V2000
    3.7510    0.6047   -0.4193 C   0  0  0  0  0  0  0  0  0  0  0  0
    2.8485   -0.2726    0.0447 C   0  0  0  0  0  0  0  0  0  0  0  0
    1.4088   -0.1361   -0.0665 C   0  0  0  0  0  0  0  0  0  0  0  0
    0.8002    1.1131   -0.1820 C   0  0  0  0  0  0  0  0  0  0  0  0
   -0.5752    1.2695   -0.2309 C   0  0  0  0  0  0  0  0  0  0  0  0
   -1.1305    2.6314   -0.3087 C   0  0  0  0  0  0  0  0  0  0  0  0
   -2.1100    3.0599    0.5843 C   0  0  0  0  0  0  0  0  0  0  0  0
   -2.6154    4.3447    0.5085 C   0  0  0  0  0  0  0  0  0  0  0  0
   -2.1509    5.2205   -0.4587 C   0  0  0  0  0  0  0  0  0  0  0  0
   -1.1715    4.8067   -1.3461 C   0  0  0  0  0  0  0  0  0  0  0  0
   -0.6621    3.5237   -1.2695 C   0  0  0  0  0  0  0  0  0  0  0  0
   -1.4062    0.1342   -0.1661 C   0  0  0  0  0  0  0  0  0  0  0  0
   -2.8469    0.2689   -0.2684 C   0  0  0  0  0  0  0  0  0  0  0  0
   -3.7413   -0.6001    0.2262 C   0  0  0  0  0  0  0  0  0  0  0  0
   -5.1818   -0.4826    0.1523 C   0  0  0  0  0  0  0  0  0  0  0  0
   -5.9742   -1.5390    0.6152 C   0  0  0  0  0  0  0  0  0  0  0  0
   -7.3489   -1.4831    0.5731 C   0  0  0  0  0  0  0  0  0  0  0  0
   -7.9942   -0.3507    0.0730 C   0  0  0  0  0  0  0  0  0  0  0  0
   -9.3880   -0.2819    0.0365 N   0  0  0  0  0  0  0  0  0  0  0  0
  -10.1461   -0.8702    1.0560 C   0  0  0  0  0  0  0  0  0  0  0  0
  -11.3489   -1.5119    0.7617 C   0  0  0  0  0  0  0  0  0  0  0  0
  -12.0962   -2.0863    1.7713 C   0  0  0  0  0  0  0  0  0  0  0  0
  -11.6567   -2.0390    3.0842 C   0  0  0  0  0  0  0  0  0  0  0  0
  -10.4609   -1.4059    3.3814 C   0  0  0  0  0  0  0  0  0  0  0  0
   -9.7104   -0.8212    2.3801 C   0  0  0  0  0  0  0  0  0  0  0  0
  -10.0332    0.3723   -1.0195 C   0  0  0  0  0  0  0  0  0  0  0  0
  -11.1886    1.1185   -0.7876 C   0  0  0  0  0  0  0  0  0  0  0  0
  -11.8263    1.7564   -1.8336 C   0  0  0  0  0  0  0  0  0  0  0  0
  -11.3222    1.6696   -3.1210 C   0  0  0  0  0  0  0  0  0  0  0  0
  -10.1725    0.9333   -3.3559 C   0  0  0  0  0  0  0  0  0  0  0  0
   -9.5321    0.2848   -2.3181 C   0  0  0  0  0  0  0  0  0  0  0  0
   -7.2141    0.7142   -0.3840 C   0  0  0  0  0  0  0  0  0  0  0  0
   -5.8399    0.6464   -0.3472 C   0  0  0  0  0  0  0  0  0  0  0  0
   -0.7977   -1.1151   -0.0525 C   0  0  0  0  0  0  0  0  0  0  0  0
    0.5776   -1.2715   -0.0039 C   0  0  0  0  0  0  0  0  0  0  0  0
    1.1322   -2.6336    0.0753 C   0  0  0  0  0  0  0  0  0  0  0  0
    0.6649   -3.5233    1.0391 C   0  0  0  0  0  0  0  0  0  0  0  0
    1.1741   -4.8063    1.1181 C   0  0  0  0  0  0  0  0  0  0  0  0
    2.1521   -5.2226    0.2304 C   0  0  0  0  0  0  0  0  0  0  0  0
    2.6153   -4.3494   -0.7397 C   0  0  0  0  0  0  0  0  0  0  0  0
    2.1102   -3.0648   -0.8181 C   0  0  0  0  0  0  0  0  0  0  0  0
    5.1900    0.4817   -0.3220 C   0  0  0  0  0  0  0  0  0  0  0  0
    5.8363   -0.6689    0.1420 C   0  0  0  0  0  0  0  0  0  0  0  0
    7.2092   -0.7360    0.2165 C   0  0  0  0  0  0  0  0  0  0  0  0
    7.9985    0.3484   -0.1726 C   0  0  0  0  0  0  0  0  0  0  0  0
    9.3915    0.2828   -0.0926 N   0  0  0  0  0  0  0  0  0  0  0  0
   10.0550   -0.9161   -0.3769 C   0  0  0  0  0  0  0  0  0  0  0  0
    9.5976   -1.7529   -1.3949 C   0  0  0  0  0  0  0  0  0  0  0  0
   10.2552   -2.9354   -1.6718 C   0  0  0  0  0  0  0  0  0  0  0  0
   11.3793   -3.3000   -0.9489 C   0  0  0  0  0  0  0  0  0  0  0  0
   11.8395   -2.4711    0.0611 C   0  0  0  0  0  0  0  0  0  0  0  0
   11.1841   -1.2905    0.3514 C   0  0  0  0  0  0  0  0  0  0  0  0
   10.1239    1.4172    0.2756 C   0  0  0  0  0  0  0  0  0  0  0  0
   11.3594    1.6847   -0.3137 C   0  0  0  0  0  0  0  0  0  0  0  0
   12.0802    2.8027    0.0583 C   0  0  0  0  0  0  0  0  0  0  0  0
   11.5817    3.6744    1.0126 C   0  0  0  0  0  0  0  0  0  0  0  0
   10.3528    3.4157    1.5976 C   0  0  0  0  0  0  0  0  0  0  0  0
    9.6284    2.2960    1.2389 C   0  0  0  0  0  0  0  0  0  0  0  0
    7.3656    1.4990   -0.6457 C   0  0  0  0  0  0  0  0  0  0  0  0
    5.9923    1.5573   -0.7189 C   0  0  0  0  0  0  0  0  0  0  0  0
    3.4088    1.4969   -0.9290 H   0  0  0  0  0  0  0  0  0  0  0  0
    3.1854   -1.1734    0.5388 H   0  0  0  0  0  0  0  0  0  0  0  0
    1.4173    1.9996   -0.1856 H   0  0  0  0  0  0  0  0  0  0  0  0
   -2.4647    2.3828    1.3483 H   0  0  0  0  0  0  0  0  0  0  0  0
   -3.3750    4.6641    1.2074 H   0  0  0  0  0  0  0  0  0  0  0  0
   -2.5494    6.2226   -0.5194 H   0  0  0  0  0  0  0  0  0  0  0  0
   -0.8052    5.4864   -2.1020 H   0  0  0  0  0  0  0  0  0  0  0  0
    0.0925    3.1978   -1.9714 H   0  0  0  0  0  0  0  0  0  0  0  0
   -3.1899    1.1603   -0.7752 H   0  0  0  0  0  0  0  0  0  0  0  0
   -3.3881   -1.4782    0.7526 H   0  0  0  0  0  0  0  0  0  0  0  0
   -5.4948   -2.4270    1.0028 H   0  0  0  0  0  0  0  0  0  0  0  0
   -7.9373   -2.3183    0.9243 H   0  0  0  0  0  0  0  0  0  0  0  0
  -11.6889   -1.5582   -0.2626 H   0  0  0  0  0  0  0  0  0  0  0  0
  -13.0248   -2.5821    1.5294 H   0  0  0  0  0  0  0  0  0  0  0  0
  -12.2419   -2.4920    3.8700 H   0  0  0  0  0  0  0  0  0  0  0  0
  -10.1132   -1.3589    4.4030 H   0  0  0  0  0  0  0  0  0  0  0  0
   -8.7834   -0.3190    2.6153 H   0  0  0  0  0  0  0  0  0  0  0  0
  -11.5783    1.1951    0.2171 H   0  0  0  0  0  0  0  0  0  0  0  0
  -12.7193    2.3325   -1.6400 H   0  0  0  0  0  0  0  0  0  0  0  0
  -11.8220    2.1720   -3.9352 H   0  0  0  0  0  0  0  0  0  0  0  0
   -9.7756    0.8555   -4.3575 H   0  0  0  0  0  0  0  0  0  0  0  0
   -8.6419   -0.2976   -2.5055 H   0  0  0  0  0  0  0  0  0  0  0  0
   -7.7010    1.6019   -0.7612 H   0  0  0  0  0  0  0  0  0  0  0  0
   -5.2688    1.4938   -0.6943 H   0  0  0  0  0  0  0  0  0  0  0  0
   -1.4154   -2.0013   -0.0490 H   0  0  0  0  0  0  0  0  0  0  0  0
   -0.0883   -3.1953    1.7413 H   0  0  0  0  0  0  0  0  0  0  0  0
    0.8087   -5.4839    1.8764 H   0  0  0  0  0  0  0  0  0  0  0  0
    2.5505   -6.2246    0.2932 H   0  0  0  0  0  0  0  0  0  0  0  0
    3.3739   -4.6709   -1.4388 H   0  0  0  0  0  0  0  0  0  0  0  0
    2.4640   -2.3895   -1.5842 H   0  0  0  0  0  0  0  0  0  0  0  0
    5.2573   -1.5264    0.4489 H   0  0  0  0  0  0  0  0  0  0  0  0
    7.6871   -1.6325    0.5843 H   0  0  0  0  0  0  0  0  0  0  0  0
    8.7275   -1.4657   -1.9671 H   0  0  0  0  0  0  0  0  0  0  0  0
    9.8920   -3.5728   -2.4647 H   0  0  0  0  0  0  0  0  0  0  0  0
   11.8930   -4.2230   -1.1711 H   0  0  0  0  0  0  0  0  0  0  0  0
   12.7118   -2.7497    0.6341 H   0  0  0  0  0  0  0  0  0  0  0  0
   11.5394   -0.6509    1.1461 H   0  0  0  0  0  0  0  0  0  0  0  0
   11.7461    1.0120   -1.0653 H   0  0  0  0  0  0  0  0  0  0  0  0
   13.0349    2.9990   -0.4072 H   0  0  0  0  0  0  0  0  0  0  0  0
   12.1466    4.5486    1.2984 H   0  0  0  0  0  0  0  0  0  0  0  0
    9.9584    4.0866    2.3466 H   0  0  0  0  0  0  0  0  0  0  0  0
    8.6754    2.0907    1.7043 H   0  0  0  0  0  0  0  0  0  0  0  0
    7.9632    2.3420   -0.9611 H   0  0  0  0  0  0  0  0  0  0  0  0
    5.5220    2.4557   -1.0937 H   0  0  0  0  0  0  0  0  0  0  0  0
  1  2  2  0  0  0  0
  2  3  1  0  0  0  0
  3  4  2  0  0  0  0
  4  5  1  0  0  0  0
  5  6  1  0  0  0  0
  6  7  2  0  0  0  0
  7  8  1  0  0  0  0
  8  9  2  0  0  0  0
  9 10  1  0  0  0  0
 10 11  2  0  0  0  0
  5 12  2  0  0  0  0
 12 13  1  0  0  0  0
 13 14  2  0  0  0  0
 14 15  1  0  0  0  0
 15 16  2  0  0  0  0
 16 17  1  0  0  0  0
 17 18  2  0  0  0  0
 18 19  1  0  0  0  0
 19 20  1  0  0  0  0
 20 21  2  0  0  0  0
 21 22  1  0  0  0  0
 22 23  2  0  0  0  0
 23 24  1  0  0  0  0
 24 25  2  0  0  0  0
 19 26  1  0  0  0  0
 26 27  2  0  0  0  0
 27 28  1  0  0  0  0
 28 29  2  0  0  0  0
 29 30  1  0  0  0  0
 30 31  2  0  0  0  0
 18 32  1  0  0  0  0
 32 33  2  0  0  0  0
 12 34  1  0  0  0  0
 34 35  2  0  0  0  0
 35 36  1  0  0  0  0
 36 37  2  0  0  0  0
 37 38  1  0  0  0  0
 38 39  2  0  0  0  0
 39 40  1  0  0  0  0
 40 41  2  0  0  0  0
  1 42  1  0  0  0  0
 42 43  2  0  0  0  0
 43 44  1  0  0  0  0
 44 45  2  0  0  0  0
 45 46  1  0  0  0  0
 46 47  1  0  0  0  0
 47 48  2  0  0  0  0
 48 49  1  0  0  0  0
 49 50  2  0  0  0  0
 50 51  1  0  0  0  0
 51 52  2  0  0  0  0
 46 53  1  0  0  0  0
 53 54  2  0  0  0  0
 54 55  1  0  0  0  0
 55 56  2  0  0  0  0
 56 57  1  0  0  0  0
 57 58  2  0  0  0  0
 45 59  1  0  0  0  0
 59 60  2  0  0  0  0
 35  3  1  0  0  0  0
 41 36  1  0  0  0  0
 60 42  1  0  0  0  0
 11  6  1  0  0  0  0
 33 15  1  0  0  0  0
 52 47  1  0  0  0  0
 58 53  1  0  0  0  0
 25 20  1  0  0  0  0
 31 26  1  0  0  0  0
  1 61  1  0  0  0  0
  2 62  1  0  0  0  0
  4 63  1  0  0  0  0
  7 64  1  0  0  0  0
  8 65  1  0  0  0  0
  9 66  1  0  0  0  0
 10 67  1  0  0  0  0
 11 68  1  0  0  0  0
 13 69  1  0  0  0  0
 14 70  1  0  0  0  0
 16 71  1  0  0  0  0
 17 72  1  0  0  0  0
 21 73  1  0  0  0  0
 22 74  1  0  0  0  0
 23 75  1  0  0  0  0
 24 76  1  0  0  0  0
 25 77  1  0  0  0  0
 27 78  1  0  0  0  0
 28 79  1  0  0  0  0
 29 80  1  0  0  0  0
 30 81  1  0  0  0  0
 31 82  1  0  0  0  0
 32 83  1  0  0  0  0
 33 84  1  0  0  0  0
 34 85  1  0  0  0  0
 37 86  1  0  0  0  0
 38 87  1  0  0  0  0
 39 88  1  0  0  0  0
 40 89  1  0  0  0  0
 41 90  1  0  0  0  0
 43 91  1  0  0  0  0
 44 92  1  0  0  0  0
 48 93  1  0  0  0  0
 49 94  1  0  0  0  0
 50 95  1  0  0  0  0
 51 96  1  0  0  0  0
 52 97  1  0  0  0  0
 54 98  1  0  0  0  0
 55 99  1  0  0  0  0
 56100  1  0  0  0  0
 57101  1  0  0  0  0
 58102  1  0  0  0  0
 59103  1  0  0  0  0
 60104  1  0  0  0  0
M  END
