
  xtb     03022214143D
 energy: -90.935143196088 gnorm: 0.000162165389 xtb: 6.4.1 (afa7bdf)
 57 62  0     0  0            999 V2000
   -4.1577    5.5096    0.5144 C   0  0  0  0  0  0  0  0  0  0  0  0
   -4.6581    4.2251    0.6436 C   0  0  0  0  0  0  0  0  0  0  0  0
   -3.8277    3.1260    0.5259 C   0  0  0  0  0  0  0  0  0  0  0  0
   -2.4704    3.3058    0.2745 C   0  0  0  0  0  0  0  0  0  0  0  0
   -1.5750    2.2527    0.1444 N   0  0  0  0  0  0  0  0  0  0  0  0
   -1.7550    0.9128    0.2114 C   0  0  0  0  0  0  0  0  0  0  0  0
   -2.9476    0.3819    0.4357 N   0  0  0  0  0  0  0  0  0  0  0  0
   -2.9775   -0.9585    0.4693 C   0  0  0  0  0  0  0  0  0  0  0  0
   -4.2102   -1.4656    0.7048 N   0  0  0  0  0  0  0  0  0  0  0  0
   -4.6556   -2.7758    0.8193 C   0  0  0  0  0  0  0  0  0  0  0  0
   -3.8184   -3.8801    0.6866 C   0  0  0  0  0  0  0  0  0  0  0  0
   -4.3354   -5.1560    0.8142 C   0  0  0  0  0  0  0  0  0  0  0  0
   -5.6810   -5.3536    1.0734 C   0  0  0  0  0  0  0  0  0  0  0  0
   -6.5167   -4.2569    1.2059 C   0  0  0  0  0  0  0  0  0  0  0  0
   -6.0114   -2.9780    1.0804 C   0  0  0  0  0  0  0  0  0  0  0  0
   -1.9254   -1.7440    0.2937 N   0  0  0  0  0  0  0  0  0  0  0  0
   -0.7670   -1.1035    0.0797 C   0  0  0  0  0  0  0  0  0  0  0  0
    0.2876   -1.9350   -0.0940 N   0  0  0  0  0  0  0  0  0  0  0  0
    1.6312   -1.6639   -0.3085 C   0  0  0  0  0  0  0  0  0  0  0  0
    2.4840   -2.7874   -0.4878 C   0  0  0  0  0  0  0  0  0  0  0  0
    3.8153   -2.6254   -0.6973 C   0  0  0  0  0  0  0  0  0  0  0  0
    4.3981   -1.3323   -0.7405 C   0  0  0  0  0  0  0  0  0  0  0  0
    5.7590   -1.1377   -0.9467 C   0  0  0  0  0  0  0  0  0  0  0  0
    6.3156    0.1390   -0.9797 C   0  0  0  0  0  0  0  0  0  0  0  0
    7.7017    0.3535   -1.1849 C   0  0  0  0  0  0  0  0  0  0  0  0
    8.2188    1.6125   -1.2091 C   0  0  0  0  0  0  0  0  0  0  0  0
    7.3793    2.7325   -1.0303 C   0  0  0  0  0  0  0  0  0  0  0  0
    6.0429    2.5682   -0.8318 C   0  0  0  0  0  0  0  0  0  0  0  0
    5.4638    1.2738   -0.7989 C   0  0  0  0  0  0  0  0  0  0  0  0
    4.1008    1.0768   -0.5959 C   0  0  0  0  0  0  0  0  0  0  0  0
    3.5432   -0.1995   -0.5608 C   0  0  0  0  0  0  0  0  0  0  0  0
    2.1591   -0.4013   -0.3481 C   0  0  0  0  0  0  0  0  0  0  0  0
   -0.6255    0.2122    0.0308 N   0  0  0  0  0  0  0  0  0  0  0  0
   -1.9688    4.6015    0.1446 C   0  0  0  0  0  0  0  0  0  0  0  0
   -2.8076    5.6918    0.2640 C   0  0  0  0  0  0  0  0  0  0  0  0
   -4.8128    6.3624    0.6078 H   0  0  0  0  0  0  0  0  0  0  0  0
   -5.7099    4.0749    0.8390 H   0  0  0  0  0  0  0  0  0  0  0  0
   -4.2103    2.1250    0.6252 H   0  0  0  0  0  0  0  0  0  0  0  0
   -0.6129    2.5080   -0.0365 H   0  0  0  0  0  0  0  0  0  0  0  0
   -4.9128   -0.7466    0.8189 H   0  0  0  0  0  0  0  0  0  0  0  0
   -2.7735   -3.7195    0.4856 H   0  0  0  0  0  0  0  0  0  0  0  0
   -3.6774   -6.0063    0.7095 H   0  0  0  0  0  0  0  0  0  0  0  0
   -6.0767   -6.3531    1.1716 H   0  0  0  0  0  0  0  0  0  0  0  0
   -7.5682   -4.3978    1.4083 H   0  0  0  0  0  0  0  0  0  0  0  0
   -6.6670   -2.1244    1.1848 H   0  0  0  0  0  0  0  0  0  0  0  0
    0.0277   -2.9115   -0.0494 H   0  0  0  0  0  0  0  0  0  0  0  0
    2.0512   -3.7780   -0.4545 H   0  0  0  0  0  0  0  0  0  0  0  0
    4.4566   -3.4844   -0.8334 H   0  0  0  0  0  0  0  0  0  0  0  0
    6.4016   -1.9971   -1.0827 H   0  0  0  0  0  0  0  0  0  0  0  0
    8.3399   -0.5083   -1.3212 H   0  0  0  0  0  0  0  0  0  0  0  0
    9.2764    1.7679   -1.3653 H   0  0  0  0  0  0  0  0  0  0  0  0
    7.8122    3.7222   -1.0528 H   0  0  0  0  0  0  0  0  0  0  0  0
    5.3960    3.4232   -0.6940 H   0  0  0  0  0  0  0  0  0  0  0  0
    3.4582    1.9356   -0.4595 H   0  0  0  0  0  0  0  0  0  0  0  0
    1.5138    0.4496   -0.2131 H   0  0  0  0  0  0  0  0  0  0  0  0
   -0.9155    4.7480   -0.0511 H   0  0  0  0  0  0  0  0  0  0  0  0
   -2.4050    6.6888    0.1609 H   0  0  0  0  0  0  0  0  0  0  0  0
  1  2  2  0  0  0  0
  2  3  1  0  0  0  0
  3  4  2  0  0  0  0
  4  5  1  0  0  0  0
  5  6  1  0  0  0  0
  6  7  2  0  0  0  0
  7  8  1  0  0  0  0
  8  9  1  0  0  0  0
  9 10  1  0  0  0  0
 10 11  2  0  0  0  0
 11 12  1  0  0  0  0
 12 13  2  0  0  0  0
 13 14  1  0  0  0  0
 14 15  2  0  0  0  0
  8 16  2  0  0  0  0
 16 17  1  0  0  0  0
 17 18  1  0  0  0  0
 18 19  1  0  0  0  0
 19 20  2  0  0  0  0
 20 21  1  0  0  0  0
 21 22  2  0  0  0  0
 22 23  1  0  0  0  0
 23 24  2  0  0  0  0
 24 25  1  0  0  0  0
 25 26  2  0  0  0  0
 26 27  1  0  0  0  0
 27 28  2  0  0  0  0
 28 29  1  0  0  0  0
 29 30  2  0  0  0  0
 30 31  1  0  0  0  0
 31 32  2  0  0  0  0
 17 33  2  0  0  0  0
  4 34  1  0  0  0  0
 34 35  2  0  0  0  0
 35  1  1  0  0  0  0
 33  6  1  0  0  0  0
 15 10  1  0  0  0  0
 32 19  1  0  0  0  0
 31 22  1  0  0  0  0
 29 24  1  0  0  0  0
  1 36  1  0  0  0  0
  2 37  1  0  0  0  0
  3 38  1  0  0  0  0
  5 39  1  0  0  0  0
  9 40  1  0  0  0  0
 11 41  1  0  0  0  0
 12 42  1  0  0  0  0
 13 43  1  0  0  0  0
 14 44  1  0  0  0  0
 15 45  1  0  0  0  0
 18 46  1  0  0  0  0
 20 47  1  0  0  0  0
 21 48  1  0  0  0  0
 23 49  1  0  0  0  0
 25 50  1  0  0  0  0
 26 51  1  0  0  0  0
 27 52  1  0  0  0  0
 28 53  1  0  0  0  0
 30 54  1  0  0  0  0
 32 55  1  0  0  0  0
 34 56  1  0  0  0  0
 35 57  1  0  0  0  0
M  END
