
  xtb     03022213143D
 energy: -73.679170500039 gnorm: 0.000100664295 xtb: 6.4.1 (afa7bdf)
 42 45  0     0  0            999 V2000
    6.5540   -1.4342   -0.5149 C   0  0  0  0  0  0  0  0  0  0  0  0
    5.9400   -0.1973   -0.0962 N   0  0  0  0  0  0  0  0  0  0  0  0
    6.7889    0.9013    0.2962 C   0  0  0  0  0  0  0  0  0  0  0  0
    4.5859   -0.0757   -0.0547 C   0  0  0  0  0  0  0  0  0  0  0  0
    3.9695    1.1121    0.3901 C   0  0  0  0  0  0  0  0  0  0  0  0
    2.6042    1.2315    0.4349 C   0  0  0  0  0  0  0  0  0  0  0  0
    1.7765    0.1736    0.0405 C   0  0  0  0  0  0  0  0  0  0  0  0
    0.3391    0.2924    0.1029 C   0  0  0  0  0  0  0  0  0  0  0  0
   -0.1678    1.4320    0.5358 N   0  0  0  0  0  0  0  0  0  0  0  0
   -1.4813    1.5692    0.5411 C   0  0  0  0  0  0  0  0  0  0  0  0
   -2.2063    3.1042    0.8762 S   0  0  0  0  0  0  0  0  0  0  0  0
   -3.7619    2.4039    0.5941 C   0  0  0  0  0  0  0  0  0  0  0  0
   -3.6777    1.0848    0.2871 C   0  0  0  0  0  0  0  0  0  0  0  0
   -4.8355    0.2424   -0.0253 C   0  0  0  0  0  0  0  0  0  0  0  0
   -5.8056    0.7338   -0.8972 C   0  0  0  0  0  0  0  0  0  0  0  0
   -6.9166   -0.0281   -1.2039 C   0  0  0  0  0  0  0  0  0  0  0  0
   -7.0745   -1.2838   -0.6408 C   0  0  0  0  0  0  0  0  0  0  0  0
   -6.1177   -1.7717    0.2325 C   0  0  0  0  0  0  0  0  0  0  0  0
   -5.0026   -1.0153    0.5446 C   0  0  0  0  0  0  0  0  0  0  0  0
   -2.3831    0.6276    0.2708 N   0  0  0  0  0  4  0  0  0  0  0  0
   -1.8246   -0.8225   -0.0554 B   0  0  0  0  0  4  0  0  0  0  0  0
   -2.4530   -1.3198   -1.1578 F   0  0  0  0  0  0  0  0  0  0  0  0
   -2.0266   -1.6232    1.0468 F   0  0  0  0  0  0  0  0  0  0  0  0
   -0.3742   -0.7154   -0.3011 O   0  0  0  0  0  0  0  0  0  0  0  0
    2.3781   -1.0089   -0.4066 C   0  0  0  0  0  0  0  0  0  0  0  0
    3.7430   -1.1323   -0.4548 C   0  0  0  0  0  0  0  0  0  0  0  0
    7.6346   -1.3507   -0.4321 H   0  0  0  0  0  0  0  0  0  0  0  0
    6.2288   -2.2669    0.1148 H   0  0  0  0  0  0  0  0  0  0  0  0
    6.3085   -1.6653   -1.5556 H   0  0  0  0  0  0  0  0  0  0  0  0
    6.6421    1.1594    1.3493 H   0  0  0  0  0  0  0  0  0  0  0  0
    7.8307    0.6241    0.1571 H   0  0  0  0  0  0  0  0  0  0  0  0
    6.5897    1.7875   -0.3125 H   0  0  0  0  0  0  0  0  0  0  0  0
    4.5695    1.9485    0.7072 H   0  0  0  0  0  0  0  0  0  0  0  0
    2.1427    2.1431    0.7782 H   0  0  0  0  0  0  0  0  0  0  0  0
   -4.6496    2.9930    0.6929 H   0  0  0  0  0  0  0  0  0  0  0  0
   -5.6728    1.7061   -1.3486 H   0  0  0  0  0  0  0  0  0  0  0  0
   -7.6586    0.3567   -1.8880 H   0  0  0  0  0  0  0  0  0  0  0  0
   -7.9410   -1.8805   -0.8849 H   0  0  0  0  0  0  0  0  0  0  0  0
   -6.2371   -2.7492    0.6748 H   0  0  0  0  0  0  0  0  0  0  0  0
   -4.2663   -1.4002    1.2294 H   0  0  0  0  0  0  0  0  0  0  0  0
    1.7454   -1.8272   -0.7132 H   0  0  0  0  0  0  0  0  0  0  0  0
    4.1633   -2.0591   -0.8074 H   0  0  0  0  0  0  0  0  0  0  0  0
  1  2  1  0  0  0  0
  2  3  1  0  0  0  0
  2  4  1  0  0  0  0
  4  5  2  0  0  0  0
  5  6  1  0  0  0  0
  6  7  2  0  0  0  0
  7  8  1  0  0  0  0
  8  9  2  0  0  0  0
  9 10  1  0  0  0  0
 10 11  1  0  0  0  0
 11 12  1  0  0  0  0
 12 13  2  0  0  0  0
 13 14  1  0  0  0  0
 14 15  2  0  0  0  0
 15 16  1  0  0  0  0
 16 17  2  0  0  0  0
 17 18  1  0  0  0  0
 18 19  2  0  0  0  0
 13 20  1  0  0  0  0
 20 21  1  0  0  0  0
 21 22  1  0  0  0  0
 21 23  1  0  0  0  0
 21 24  1  0  0  0  0
  7 25  1  0  0  0  0
 25 26  2  0  0  0  0
 26  4  1  0  0  0  0
 24  8  1  0  0  0  0
 20 10  2  0  0  0  0
 19 14  1  0  0  0  0
  1 27  1  0  0  0  0
  1 28  1  0  0  0  0
  1 29  1  0  0  0  0
  3 30  1  0  0  0  0
  3 31  1  0  0  0  0
  3 32  1  0  0  0  0
  5 33  1  0  0  0  0
  6 34  1  0  0  0  0
 12 35  1  0  0  0  0
 15 36  1  0  0  0  0
 16 37  1  0  0  0  0
 17 38  1  0  0  0  0
 18 39  1  0  0  0  0
 19 40  1  0  0  0  0
 25 41  1  0  0  0  0
 26 42  1  0  0  0  0
M  CHG  1  20   1
M  CHG  1  21  -1
M  END
