
  xtb     03022213113D
 energy: -133.448923944138 gnorm: 0.000224970487 xtb: 6.4.1 (afa7bdf)
 88 96  0     0  0            999 V2000
   -5.7951    7.2677    0.3455 C   0  0  0  0  0  0  0  0  0  0  0  0
   -4.8841    6.0784    0.3240 C   0  0  0  0  0  0  0  0  0  0  0  0
   -4.8741    5.1656    1.3712 C   0  0  0  0  0  0  0  0  0  0  0  0
   -4.0515    4.0555    1.3385 C   0  0  0  0  0  0  0  0  0  0  0  0
   -3.2073    3.8325    0.2550 C   0  0  0  0  0  0  0  0  0  0  0  0
   -2.3325    2.6459    0.2174 C   0  0  0  0  0  0  0  0  0  0  0  0
   -2.9227    1.3776    0.2617 C   0  0  0  0  0  0  0  0  0  0  0  0
   -2.2309    0.2234    0.2541 N   0  0  0  0  0  0  0  0  0  0  0  0
   -3.1378   -0.7699    0.2679 C   0  0  0  0  0  0  0  0  0  0  0  0
   -2.8149   -2.1311    0.2138 C   0  0  0  0  0  0  0  0  0  0  0  0
   -3.9108   -3.1153    0.2862 C   0  0  0  0  0  0  0  0  0  0  0  0
   -4.7408   -3.1587    1.4026 C   0  0  0  0  0  0  0  0  0  0  0  0
   -5.7681   -4.0796    1.4791 C   0  0  0  0  0  0  0  0  0  0  0  0
   -6.0020   -4.9760    0.4437 C   0  0  0  0  0  0  0  0  0  0  0  0
   -7.1313   -5.9581    0.5151 C   0  0  0  0  0  0  0  0  0  0  0  0
   -5.1763   -4.9252   -0.6733 C   0  0  0  0  0  0  0  0  0  0  0  0
   -4.1425   -4.0121   -0.7527 C   0  0  0  0  0  0  0  0  0  0  0  0
   -1.5031   -2.5791    0.0804 C   0  0  0  0  0  0  0  0  0  0  0  0
   -1.0816   -3.9245    0.0141 C   0  0  0  0  0  0  0  0  0  0  0  0
    0.2672   -4.0600   -0.1363 C   0  0  0  0  0  0  0  0  0  0  0  0
    0.9523   -2.8263   -0.1631 C   0  0  0  0  0  0  0  0  0  0  0  0
   -0.1512   -1.4867   -0.0227 S   0  0  0  0  0  0  0  0  0  0  0  0
    2.3280   -2.6489   -0.2866 C   0  0  0  0  0  0  0  0  0  0  0  0
    3.2023   -3.8318   -0.3922 C   0  0  0  0  0  0  0  0  0  0  0  0
    3.2445   -4.7881    0.6183 C   0  0  0  0  0  0  0  0  0  0  0  0
    4.0723   -5.8887    0.5081 C   0  0  0  0  0  0  0  0  0  0  0  0
    4.8741   -6.0717   -0.6125 C   0  0  0  0  0  0  0  0  0  0  0  0
    5.7816   -7.2592   -0.7175 C   0  0  0  0  0  0  0  0  0  0  0  0
    4.8298   -5.1154   -1.6195 C   0  0  0  0  0  0  0  0  0  0  0  0
    4.0099   -4.0084   -1.5119 C   0  0  0  0  0  0  0  0  0  0  0  0
    2.9198   -1.3803   -0.2998 C   0  0  0  0  0  0  0  0  0  0  0  0
    2.2327   -0.2248   -0.2526 N   0  0  0  0  0  0  0  0  0  0  0  0
    3.1438    0.7650   -0.2261 C   0  0  0  0  0  0  0  0  0  0  0  0
    2.8225    2.1245   -0.1400 C   0  0  0  0  0  0  0  0  0  0  0  0
    3.9194    3.1101   -0.1437 C   0  0  0  0  0  0  0  0  0  0  0  0
    4.7950    3.1903   -1.2228 C   0  0  0  0  0  0  0  0  0  0  0  0
    5.8272    4.1084   -1.2224 C   0  0  0  0  0  0  0  0  0  0  0  0
    6.0212    4.9656   -0.1454 C   0  0  0  0  0  0  0  0  0  0  0  0
    7.1331    5.9698   -0.1590 C   0  0  0  0  0  0  0  0  0  0  0  0
    5.1477    4.8809    0.9316 C   0  0  0  0  0  0  0  0  0  0  0  0
    4.1083    3.9702    0.9340 C   0  0  0  0  0  0  0  0  0  0  0  0
    1.5074    2.5720   -0.0377 C   0  0  0  0  0  0  0  0  0  0  0  0
    1.0855    3.9176    0.0159 C   0  0  0  0  0  0  0  0  0  0  0  0
   -0.2680    4.0544    0.1148 C   0  0  0  0  0  0  0  0  0  0  0  0
   -0.9537    2.8210    0.1255 C   0  0  0  0  0  0  0  0  0  0  0  0
    0.1525    1.4806    0.0239 S   0  0  0  0  0  0  0  0  0  0  0  0
    4.4890    0.2184   -0.2459 C   0  0  0  0  0  0  0  0  0  0  0  0
    4.3490   -1.1228   -0.2952 C   0  0  0  0  0  0  0  0  0  0  0  0
   -4.4852   -0.2284    0.2764 C   0  0  0  0  0  0  0  0  0  0  0  0
   -4.3507    1.1142    0.2692 C   0  0  0  0  0  0  0  0  0  0  0  0
   -3.2124    4.7473   -0.7944 C   0  0  0  0  0  0  0  0  0  0  0  0
   -4.0429    5.8506   -0.7590 C   0  0  0  0  0  0  0  0  0  0  0  0
   -6.7065    7.0487   -0.2122 H   0  0  0  0  0  0  0  0  0  0  0  0
   -5.3188    8.1288   -0.1184 H   0  0  0  0  0  0  0  0  0  0  0  0
   -6.0760    7.5247    1.3641 H   0  0  0  0  0  0  0  0  0  0  0  0
   -5.5190    5.3263    2.2237 H   0  0  0  0  0  0  0  0  0  0  0  0
   -4.0475    3.3586    2.1640 H   0  0  0  0  0  0  0  0  0  0  0  0
   -4.5648   -2.4728    2.2186 H   0  0  0  0  0  0  0  0  0  0  0  0
   -6.3985   -4.1037    2.3568 H   0  0  0  0  0  0  0  0  0  0  0  0
   -6.8628   -6.8934    0.0287 H   0  0  0  0  0  0  0  0  0  0  0  0
   -8.0079   -5.5554    0.0061 H   0  0  0  0  0  0  0  0  0  0  0  0
   -7.4048   -6.1620    1.5477 H   0  0  0  0  0  0  0  0  0  0  0  0
   -5.3470   -5.6108   -1.4915 H   0  0  0  0  0  0  0  0  0  0  0  0
   -3.5172   -3.9764   -1.6331 H   0  0  0  0  0  0  0  0  0  0  0  0
   -1.7712   -4.7477    0.0805 H   0  0  0  0  0  0  0  0  0  0  0  0
    0.7763   -5.0032   -0.2297 H   0  0  0  0  0  0  0  0  0  0  0  0
    2.6367   -4.6532    1.5013 H   0  0  0  0  0  0  0  0  0  0  0  0
    4.0981   -6.6192    1.3045 H   0  0  0  0  0  0  0  0  0  0  0  0
    6.0042   -7.4879   -1.7571 H   0  0  0  0  0  0  0  0  0  0  0  0
    5.3319   -8.1331   -0.2511 H   0  0  0  0  0  0  0  0  0  0  0  0
    6.7235   -7.0545   -0.2071 H   0  0  0  0  0  0  0  0  0  0  0  0
    5.4451   -5.2399   -2.4995 H   0  0  0  0  0  0  0  0  0  0  0  0
    3.9790   -3.2766   -2.3062 H   0  0  0  0  0  0  0  0  0  0  0  0
    4.6525    2.5339   -2.0690 H   0  0  0  0  0  0  0  0  0  0  0  0
    6.4960    4.1606   -2.0700 H   0  0  0  0  0  0  0  0  0  0  0  0
    7.4128    6.2544    0.8526 H   0  0  0  0  0  0  0  0  0  0  0  0
    6.8161    6.8693   -0.6883 H   0  0  0  0  0  0  0  0  0  0  0  0
    8.0077    5.5725   -0.6696 H   0  0  0  0  0  0  0  0  0  0  0  0
    5.2852    5.5350    1.7812 H   0  0  0  0  0  0  0  0  0  0  0  0
    3.4464    3.9056    1.7856 H   0  0  0  0  0  0  0  0  0  0  0  0
    1.7782    4.7398   -0.0259 H   0  0  0  0  0  0  0  0  0  0  0  0
   -0.7802    4.9980    0.1863 H   0  0  0  0  0  0  0  0  0  0  0  0
    5.3929    0.7948   -0.2036 H   0  0  0  0  0  0  0  0  0  0  0  0
    5.1139   -1.8751   -0.3020 H   0  0  0  0  0  0  0  0  0  0  0  0
   -5.3866   -0.8102    0.2627 H   0  0  0  0  0  0  0  0  0  0  0  0
   -5.1191    1.8627    0.2483 H   0  0  0  0  0  0  0  0  0  0  0  0
   -2.5728    4.5772   -1.6484 H   0  0  0  0  0  0  0  0  0  0  0  0
   -4.0402    6.5478   -1.5852 H   0  0  0  0  0  0  0  0  0  0  0  0
  1  2  1  0  0  0  0
  2  3  2  0  0  0  0
  3  4  1  0  0  0  0
  4  5  2  0  0  0  0
  5  6  1  0  0  0  0
  6  7  1  0  0  0  0
  7  8  2  0  0  0  0
  8  9  1  0  0  0  0
  9 10  2  0  0  0  0
 10 11  1  0  0  0  0
 11 12  2  0  0  0  0
 12 13  1  0  0  0  0
 13 14  2  0  0  0  0
 14 15  1  0  0  0  0
 14 16  1  0  0  0  0
 16 17  2  0  0  0  0
 10 18  1  0  0  0  0
 18 19  2  0  0  0  0
 19 20  1  0  0  0  0
 20 21  2  0  0  0  0
 21 22  1  0  0  0  0
 21 23  1  0  0  0  0
 23 24  1  0  0  0  0
 24 25  2  0  0  0  0
 25 26  1  0  0  0  0
 26 27  2  0  0  0  0
 27 28  1  0  0  0  0
 27 29  1  0  0  0  0
 29 30  2  0  0  0  0
 23 31  2  0  0  0  0
 31 32  1  0  0  0  0
 32 33  2  0  0  0  0
 33 34  1  0  0  0  0
 34 35  1  0  0  0  0
 35 36  2  0  0  0  0
 36 37  1  0  0  0  0
 37 38  2  0  0  0  0
 38 39  1  0  0  0  0
 38 40  1  0  0  0  0
 40 41  2  0  0  0  0
 34 42  2  0  0  0  0
 42 43  1  0  0  0  0
 43 44  2  0  0  0  0
 44 45  1  0  0  0  0
 45 46  1  0  0  0  0
 33 47  1  0  0  0  0
 47 48  2  0  0  0  0
  9 49  1  0  0  0  0
 49 50  2  0  0  0  0
  5 51  1  0  0  0  0
 51 52  2  0  0  0  0
 52  2  1  0  0  0  0
 45  6  2  0  0  0  0
 50  7  1  0  0  0  0
 17 11  1  0  0  0  0
 22 18  1  0  0  0  0
 30 24  1  0  0  0  0
 48 31  1  0  0  0  0
 41 35  1  0  0  0  0
 46 42  1  0  0  0  0
  1 53  1  0  0  0  0
  1 54  1  0  0  0  0
  1 55  1  0  0  0  0
  3 56  1  0  0  0  0
  4 57  1  0  0  0  0
 12 58  1  0  0  0  0
 13 59  1  0  0  0  0
 15 60  1  0  0  0  0
 15 61  1  0  0  0  0
 15 62  1  0  0  0  0
 16 63  1  0  0  0  0
 17 64  1  0  0  0  0
 19 65  1  0  0  0  0
 20 66  1  0  0  0  0
 25 67  1  0  0  0  0
 26 68  1  0  0  0  0
 28 69  1  0  0  0  0
 28 70  1  0  0  0  0
 28 71  1  0  0  0  0
 29 72  1  0  0  0  0
 30 73  1  0  0  0  0
 36 74  1  0  0  0  0
 37 75  1  0  0  0  0
 39 76  1  0  0  0  0
 39 77  1  0  0  0  0
 39 78  1  0  0  0  0
 40 79  1  0  0  0  0
 41 80  1  0  0  0  0
 43 81  1  0  0  0  0
 44 82  1  0  0  0  0
 47 83  1  0  0  0  0
 48 84  1  0  0  0  0
 49 85  1  0  0  0  0
 50 86  1  0  0  0  0
 51 87  1  0  0  0  0
 52 88  1  0  0  0  0
M  END
