
  xtb     03022213513D
 energy: -65.094406830116 gnorm: 0.000077191500 xtb: 6.4.1 (afa7bdf)
 43 47  0     0  0            999 V2000
   -0.1356   -0.3256   -0.9179 C   0  0  0  0  0  0  0  0  0  0  0  0
    0.9394   -0.2715   -0.1270 C   0  0  0  0  0  0  0  0  0  0  0  0
    2.3162   -0.3758   -0.5864 C   0  0  0  0  0  0  0  0  0  0  0  0
    2.6456   -1.0870   -1.7236 C   0  0  0  0  0  0  0  0  0  0  0  0
    3.9848   -1.1893   -2.1185 C   0  0  0  0  0  0  0  0  0  0  0  0
    4.9798   -0.6543   -1.4681 N   0  0  0  0  0  0  0  0  0  0  0  0
    4.7061    0.0545   -0.3544 C   0  0  0  0  0  0  0  0  0  0  0  0
    5.7915    0.6354    0.3345 C   0  0  0  0  0  0  0  0  0  0  0  0
    5.5800    1.3832    1.4576 C   0  0  0  0  0  0  0  0  0  0  0  0
    4.2761    1.5857    1.9326 C   0  0  0  0  0  0  0  0  0  0  0  0
    3.2039    1.0310    1.2888 C   0  0  0  0  0  0  0  0  0  0  0  0
    3.3823    0.2383    0.1371 C   0  0  0  0  0  0  0  0  0  0  0  0
   -1.5103   -0.2143   -0.4237 C   0  0  0  0  0  0  0  0  0  0  0  0
   -2.4197   -1.2528   -0.6937 C   0  0  0  0  0  0  0  0  0  0  0  0
   -2.0436   -2.4194   -1.4083 C   0  0  0  0  0  0  0  0  0  0  0  0
   -2.9378   -3.4171   -1.6523 C   0  0  0  0  0  0  0  0  0  0  0  0
   -4.2653   -3.3197   -1.1883 C   0  0  0  0  0  0  0  0  0  0  0  0
   -4.6618   -2.2269   -0.4816 C   0  0  0  0  0  0  0  0  0  0  0  0
   -3.7599   -1.1674   -0.2060 C   0  0  0  0  0  0  0  0  0  0  0  0
   -4.1452   -0.0594    0.5418 C   0  0  0  0  0  0  0  0  0  0  0  0
   -3.2597    0.9795    0.8083 C   0  0  0  0  0  0  0  0  0  0  0  0
   -3.6598    2.1123    1.5632 C   0  0  0  0  0  0  0  0  0  0  0  0
   -2.8011    3.1410    1.7955 C   0  0  0  0  0  0  0  0  0  0  0  0
   -1.4960    3.1023    1.2637 C   0  0  0  0  0  0  0  0  0  0  0  0
   -1.0720    2.0283    0.5420 C   0  0  0  0  0  0  0  0  0  0  0  0
   -1.9206    0.9144    0.3089 C   0  0  0  0  0  0  0  0  0  0  0  0
   -0.0212   -0.4529   -1.9875 H   0  0  0  0  0  0  0  0  0  0  0  0
    0.7919   -0.1512    0.9376 H   0  0  0  0  0  0  0  0  0  0  0  0
    1.8844   -1.5911   -2.2989 H   0  0  0  0  0  0  0  0  0  0  0  0
    4.2480   -1.7481   -3.0084 H   0  0  0  0  0  0  0  0  0  0  0  0
    6.7807    0.4700   -0.0626 H   0  0  0  0  0  0  0  0  0  0  0  0
    6.4118    1.8277    1.9840 H   0  0  0  0  0  0  0  0  0  0  0  0
    4.1210    2.1888    2.8154 H   0  0  0  0  0  0  0  0  0  0  0  0
    2.2090    1.2121    1.6672 H   0  0  0  0  0  0  0  0  0  0  0  0
   -1.0248   -2.5138   -1.7530 H   0  0  0  0  0  0  0  0  0  0  0  0
   -2.6349   -4.2973   -2.2004 H   0  0  0  0  0  0  0  0  0  0  0  0
   -4.9574   -4.1230   -1.3940 H   0  0  0  0  0  0  0  0  0  0  0  0
   -5.6736   -2.1447   -0.1108 H   0  0  0  0  0  0  0  0  0  0  0  0
   -5.1550   -0.0047    0.9246 H   0  0  0  0  0  0  0  0  0  0  0  0
   -4.6710    2.1387    1.9438 H   0  0  0  0  0  0  0  0  0  0  0  0
   -3.1130    4.0001    2.3710 H   0  0  0  0  0  0  0  0  0  0  0  0
   -0.8352    3.9411    1.4276 H   0  0  0  0  0  0  0  0  0  0  0  0
   -0.0783    2.0232    0.1198 H   0  0  0  0  0  0  0  0  0  0  0  0
  1  2  2  0  0  0  0
  2  3  1  0  0  0  0
  3  4  2  0  0  0  0
  4  5  1  0  0  0  0
  5  6  2  0  0  0  0
  6  7  1  0  0  0  0
  7  8  2  0  0  0  0
  8  9  1  0  0  0  0
  9 10  2  0  0  0  0
 10 11  1  0  0  0  0
 11 12  2  0  0  0  0
  1 13  1  0  0  0  0
 13 14  1  0  0  0  0
 14 15  2  0  0  0  0
 15 16  1  0  0  0  0
 16 17  2  0  0  0  0
 17 18  1  0  0  0  0
 18 19  2  0  0  0  0
 19 20  1  0  0  0  0
 20 21  2  0  0  0  0
 21 22  1  0  0  0  0
 22 23  2  0  0  0  0
 23 24  1  0  0  0  0
 24 25  2  0  0  0  0
 25 26  1  0  0  0  0
 12  3  1  0  0  0  0
 26 13  2  0  0  0  0
 12  7  1  0  0  0  0
 19 14  1  0  0  0  0
 26 21  1  0  0  0  0
  1 27  1  0  0  0  0
  2 28  1  0  0  0  0
  4 29  1  0  0  0  0
  5 30  1  0  0  0  0
  8 31  1  0  0  0  0
  9 32  1  0  0  0  0
 10 33  1  0  0  0  0
 11 34  1  0  0  0  0
 15 35  1  0  0  0  0
 16 36  1  0  0  0  0
 17 37  1  0  0  0  0
 18 38  1  0  0  0  0
 20 39  1  0  0  0  0
 22 40  1  0  0  0  0
 23 41  1  0  0  0  0
 24 42  1  0  0  0  0
 25 43  1  0  0  0  0
M  END
