
  xtb     03022212073D
 energy: -94.077136844875 gnorm: 0.000056690267 xtb: 6.4.1 (afa7bdf)
 47 52  0     0  0            999 V2000
    0.6534   -2.5269   -1.9446 F   0  0  0  0  0  0  0  0  0  0  0  0
    0.2772   -1.5268   -1.1538 C   0  0  0  0  0  0  0  0  0  0  0  0
   -1.0761   -1.2589   -1.0244 C   0  0  0  0  0  0  0  0  0  0  0  0
   -1.9520   -1.9945   -1.7218 F   0  0  0  0  0  0  0  0  0  0  0  0
   -1.5533   -0.2197   -0.2120 C   0  0  0  0  0  0  0  0  0  0  0  0
   -2.9050    0.0324   -0.0742 N   0  0  0  0  0  0  0  0  0  0  0  0
   -3.8790   -0.9072    0.2499 C   0  0  0  0  0  0  0  0  0  0  0  0
   -3.7394   -2.2470    0.5692 C   0  0  0  0  0  0  0  0  0  0  0  0
   -4.8843   -2.9509    0.8979 C   0  0  0  0  0  0  0  0  0  0  0  0
   -6.1322   -2.3364    0.9245 C   0  0  0  0  0  0  0  0  0  0  0  0
   -6.2688   -0.9918    0.6378 C   0  0  0  0  0  0  0  0  0  0  0  0
   -5.1344   -0.2669    0.3019 C   0  0  0  0  0  0  0  0  0  0  0  0
   -4.9097    1.1183   -0.0187 C   0  0  0  0  0  0  0  0  0  0  0  0
   -5.7542    2.2109   -0.1537 C   0  0  0  0  0  0  0  0  0  0  0  0
   -5.2074    3.4279   -0.5126 C   0  0  0  0  0  0  0  0  0  0  0  0
   -3.8433    3.5565   -0.7538 C   0  0  0  0  0  0  0  0  0  0  0  0
   -2.9832    2.4802   -0.6281 C   0  0  0  0  0  0  0  0  0  0  0  0
   -3.5244    1.2674   -0.2369 C   0  0  0  0  0  0  0  0  0  0  0  0
   -0.5886    0.5493    0.4537 C   0  0  0  0  0  0  0  0  0  0  0  0
   -0.9833    1.5289    1.2792 F   0  0  0  0  0  0  0  0  0  0  0  0
    0.7658    0.3011    0.3074 C   0  0  0  0  0  0  0  0  0  0  0  0
    1.6294    1.0734    0.9744 F   0  0  0  0  0  0  0  0  0  0  0  0
    1.2354   -0.7471   -0.4930 C   0  0  0  0  0  0  0  0  0  0  0  0
    2.6450   -1.0211   -0.6345 C   0  0  0  0  0  0  0  0  0  0  0  0
    3.1979   -2.0014   -1.2912 N   0  0  0  0  0  0  0  0  0  0  0  0
    4.5151   -1.8760   -1.1554 N   0  0  0  0  0  0  0  0  0  0  0  0
    4.7355   -0.8207   -0.4182 C   0  0  0  0  0  0  0  0  0  0  0  0
    6.0158   -0.2967   -0.0098 C   0  0  0  0  0  0  0  0  0  0  0  0
    6.0912    0.8460    0.7861 C   0  0  0  0  0  0  0  0  0  0  0  0
    7.3272    1.3330    1.1659 C   0  0  0  0  0  0  0  0  0  0  0  0
    8.4850    0.6889    0.7581 C   0  0  0  0  0  0  0  0  0  0  0  0
    8.4101   -0.4481   -0.0332 C   0  0  0  0  0  0  0  0  0  0  0  0
    7.1814   -0.9450   -0.4199 C   0  0  0  0  0  0  0  0  0  0  0  0
    3.5772   -0.2313   -0.0538 O   0  0  0  0  0  0  0  0  0  0  0  0
   -2.7777   -2.7361    0.5693 H   0  0  0  0  0  0  0  0  0  0  0  0
   -4.8042   -3.9992    1.1423 H   0  0  0  0  0  0  0  0  0  0  0  0
   -7.0025   -2.9201    1.1837 H   0  0  0  0  0  0  0  0  0  0  0  0
   -7.2333   -0.5096    0.6784 H   0  0  0  0  0  0  0  0  0  0  0  0
   -6.8152    2.1053    0.0128 H   0  0  0  0  0  0  0  0  0  0  0  0
   -5.8460    4.2917   -0.6195 H   0  0  0  0  0  0  0  0  0  0  0  0
   -3.4455    4.5153   -1.0500 H   0  0  0  0  0  0  0  0  0  0  0  0
   -1.9305    2.5940   -0.8359 H   0  0  0  0  0  0  0  0  0  0  0  0
    5.1835    1.3399    1.0991 H   0  0  0  0  0  0  0  0  0  0  0  0
    7.3889    2.2175    1.7820 H   0  0  0  0  0  0  0  0  0  0  0  0
    9.4483    1.0740    1.0579 H   0  0  0  0  0  0  0  0  0  0  0  0
    9.3145   -0.9464   -0.3479 H   0  0  0  0  0  0  0  0  0  0  0  0
    7.0954   -1.8267   -1.0346 H   0  0  0  0  0  0  0  0  0  0  0  0
  1  2  1  0  0  0  0
  2  3  2  0  0  0  0
  3  4  1  0  0  0  0
  3  5  1  0  0  0  0
  5  6  1  0  0  0  0
  6  7  1  0  0  0  0
  7  8  2  0  0  0  0
  8  9  1  0  0  0  0
  9 10  2  0  0  0  0
 10 11  1  0  0  0  0
 11 12  2  0  0  0  0
 12 13  1  0  0  0  0
 13 14  2  0  0  0  0
 14 15  1  0  0  0  0
 15 16  2  0  0  0  0
 16 17  1  0  0  0  0
 17 18  2  0  0  0  0
  5 19  2  0  0  0  0
 19 20  1  0  0  0  0
 19 21  1  0  0  0  0
 21 22  1  0  0  0  0
 21 23  2  0  0  0  0
 23 24  1  0  0  0  0
 24 25  2  0  0  0  0
 25 26  1  0  0  0  0
 26 27  2  0  0  0  0
 27 28  1  0  0  0  0
 28 29  2  0  0  0  0
 29 30  1  0  0  0  0
 30 31  2  0  0  0  0
 31 32  1  0  0  0  0
 32 33  2  0  0  0  0
 27 34  1  0  0  0  0
 23  2  1  0  0  0  0
 34 24  1  0  0  0  0
 18  6  1  0  0  0  0
 33 28  1  0  0  0  0
 12  7  1  0  0  0  0
 18 13  1  0  0  0  0
  8 35  1  0  0  0  0
  9 36  1  0  0  0  0
 10 37  1  0  0  0  0
 11 38  1  0  0  0  0
 14 39  1  0  0  0  0
 15 40  1  0  0  0  0
 16 41  1  0  0  0  0
 17 42  1  0  0  0  0
 29 43  1  0  0  0  0
 30 44  1  0  0  0  0
 31 45  1  0  0  0  0
 32 46  1  0  0  0  0
 33 47  1  0  0  0  0
M  END
