
  xtb     03022213053D
 energy: -76.048197592572 gnorm: 0.000229368266 xtb: 6.4.1 (afa7bdf)
 41 45  0     0  0            999 V2000
    2.1735    0.2560    7.4561 C   0  0  0  0  0  0  0  0  0  0  0  0
    2.1437    0.8431    6.1632 O   0  0  0  0  0  0  0  0  0  0  0  0
    1.5099    0.1750    5.2264 C   0  0  0  0  0  0  0  0  0  0  0  0
    0.9394   -0.9967    5.5358 N   0  0  0  0  0  0  0  0  0  0  0  0
    0.3321   -1.5837    4.5291 C   0  0  0  0  0  0  0  0  0  0  0  0
   -0.4142   -3.0755    4.8565 Cl  0  0  0  0  0  0  0  0  0  0  0  0
    0.2379   -1.1429    3.2971 N   0  0  0  0  0  0  0  0  0  0  0  0
    0.8383    0.0344    3.0807 C   0  0  0  0  0  0  0  0  0  0  0  0
    0.8373    0.6242    1.8728 N   0  0  0  0  0  0  0  0  0  0  0  0
    0.2896    0.2354    0.6585 C   0  0  0  0  0  0  0  0  0  0  0  0
   -0.4250   -0.9361    0.5275 C   0  0  0  0  0  0  0  0  0  0  0  0
   -0.9685   -1.3112   -0.6951 C   0  0  0  0  0  0  0  0  0  0  0  0
   -0.8230   -0.5402   -1.8344 C   0  0  0  0  0  0  0  0  0  0  0  0
   -0.0877    0.6718   -1.7285 C   0  0  0  0  0  0  0  0  0  0  0  0
    0.1030    1.5037   -2.8585 C   0  0  0  0  0  0  0  0  0  0  0  0
    0.8148    2.6818   -2.7577 C   0  0  0  0  0  0  0  0  0  0  0  0
    1.3603    3.0760   -1.5403 C   0  0  0  0  0  0  0  0  0  0  0  0
    1.1932    2.2886   -0.4304 C   0  0  0  0  0  0  0  0  0  0  0  0
    0.4750    1.0757   -0.4828 C   0  0  0  0  0  0  0  0  0  0  0  0
   -0.4468    1.1440   -4.1799 C   0  0  0  0  0  0  0  0  0  0  0  0
   -0.2771    1.8559   -5.1574 O   0  0  0  0  0  0  0  0  0  0  0  0
   -1.2054   -0.1129   -4.2490 C   0  0  0  0  0  0  0  0  0  0  0  0
   -1.7435   -0.4771   -5.4838 C   0  0  0  0  0  0  0  0  0  0  0  0
   -2.4691   -1.6391   -5.6240 C   0  0  0  0  0  0  0  0  0  0  0  0
   -2.6618   -2.4511   -4.5144 C   0  0  0  0  0  0  0  0  0  0  0  0
   -2.1337   -2.1021   -3.2883 C   0  0  0  0  0  0  0  0  0  0  0  0
   -1.3918   -0.9281   -3.1194 C   0  0  0  0  0  0  0  0  0  0  0  0
    1.4865    0.7253    4.0261 N   0  0  0  0  0  0  0  0  0  0  0  0
    1.1614    0.1263    7.8429 H   0  0  0  0  0  0  0  0  0  0  0  0
    2.7355    0.9477    8.0791 H   0  0  0  0  0  0  0  0  0  0  0  0
    2.6644   -0.7182    7.4246 H   0  0  0  0  0  0  0  0  0  0  0  0
    1.3384    1.5032    1.8926 H   0  0  0  0  0  0  0  0  0  0  0  0
   -0.5614   -1.5670    1.3884 H   0  0  0  0  0  0  0  0  0  0  0  0
   -1.5155   -2.2390   -0.7257 H   0  0  0  0  0  0  0  0  0  0  0  0
    0.9355    3.2848   -3.6453 H   0  0  0  0  0  0  0  0  0  0  0  0
    1.9146    3.9997   -1.4711 H   0  0  0  0  0  0  0  0  0  0  0  0
    1.6330    2.6273    0.4970 H   0  0  0  0  0  0  0  0  0  0  0  0
   -1.5711    0.1835   -6.3206 H   0  0  0  0  0  0  0  0  0  0  0  0
   -2.8832   -1.9160   -6.5815 H   0  0  0  0  0  0  0  0  0  0  0  0
   -3.2299   -3.3653   -4.6080 H   0  0  0  0  0  0  0  0  0  0  0  0
   -2.3081   -2.7613   -2.4533 H   0  0  0  0  0  0  0  0  0  0  0  0
  1  2  1  0  0  0  0
  2  3  1  0  0  0  0
  3  4  2  0  0  0  0
  4  5  1  0  0  0  0
  5  6  1  0  0  0  0
  5  7  2  0  0  0  0
  7  8  1  0  0  0  0
  8  9  1  0  0  0  0
  9 10  1  0  0  0  0
 10 11  2  0  0  0  0
 11 12  1  0  0  0  0
 12 13  2  0  0  0  0
 13 14  1  0  0  0  0
 14 15  2  0  0  0  0
 15 16  1  0  0  0  0
 16 17  2  0  0  0  0
 17 18  1  0  0  0  0
 18 19  2  0  0  0  0
 15 20  1  0  0  0  0
 20 21  2  0  0  0  0
 20 22  1  0  0  0  0
 22 23  2  0  0  0  0
 23 24  1  0  0  0  0
 24 25  2  0  0  0  0
 25 26  1  0  0  0  0
 26 27  2  0  0  0  0
  8 28  2  0  0  0  0
 28  3  1  0  0  0  0
 19 10  1  0  0  0  0
 27 22  1  0  0  0  0
 27 13  1  0  0  0  0
 19 14  1  0  0  0  0
  1 29  1  0  0  0  0
  1 30  1  0  0  0  0
  1 31  1  0  0  0  0
  9 32  1  0  0  0  0
 11 33  1  0  0  0  0
 12 34  1  0  0  0  0
 16 35  1  0  0  0  0
 17 36  1  0  0  0  0
 18 37  1  0  0  0  0
 23 38  1  0  0  0  0
 24 39  1  0  0  0  0
 25 40  1  0  0  0  0
 26 41  1  0  0  0  0
M  END
