
  xtb     03022213193D
 energy: -69.669748579586 gnorm: 0.000199275036 xtb: 6.4.1 (afa7bdf)
 42 45  0     0  0            999 V2000
   -5.3806   -0.5842    3.5292 C   0  0  0  0  0  0  0  0  0  0  0  0
   -4.4722   -1.6045    3.1880 O   0  0  0  0  0  0  0  0  0  0  0  0
   -3.4742   -1.3244    2.3121 C   0  0  0  0  0  0  0  0  0  0  0  0
   -3.2681   -0.0908    1.7017 C   0  0  0  0  0  0  0  0  0  0  0  0
   -2.2172    0.0783    0.8178 C   0  0  0  0  0  0  0  0  0  0  0  0
   -1.3525   -0.9706    0.5376 C   0  0  0  0  0  0  0  0  0  0  0  0
   -0.2814   -0.7893   -0.3563 N   0  0  0  0  0  0  0  0  0  0  0  0
   -0.0037   -1.5868   -1.4524 C   0  0  0  0  0  0  0  0  0  0  0  0
   -0.6967   -2.6834   -1.9427 C   0  0  0  0  0  0  0  0  0  0  0  0
   -0.2081   -3.2949   -3.0818 C   0  0  0  0  0  0  0  0  0  0  0  0
    0.9359   -2.8281   -3.7252 C   0  0  0  0  0  0  0  0  0  0  0  0
    1.6181   -1.7245   -3.2523 C   0  0  0  0  0  0  0  0  0  0  0  0
    1.1459   -1.0937   -2.1094 C   0  0  0  0  0  0  0  0  0  0  0  0
    1.5758    0.0577   -1.3630 C   0  0  0  0  0  0  0  0  0  0  0  0
    2.6251    0.9420   -1.5010 C   0  0  0  0  0  0  0  0  0  0  0  0
    2.7808    1.9808   -0.5727 C   0  0  0  0  0  0  0  0  0  0  0  0
    3.8796    2.8803   -0.7617 C   0  0  0  0  0  0  0  0  0  0  0  0
    4.2419    3.9725   -0.0344 C   0  0  0  0  0  0  0  0  0  0  0  0
    3.6076    4.5032    1.1078 C   0  0  0  0  0  0  0  0  0  0  0  0
    3.1474    4.9967    2.0370 N   0  0  0  0  0  0  0  0  0  0  0  0
    5.3831    4.7133   -0.4234 C   0  0  0  0  0  0  0  0  0  0  0  0
    6.3091    5.3081   -0.7453 N   0  0  0  0  0  0  0  0  0  0  0  0
    1.8684    2.0889    0.4989 C   0  0  0  0  0  0  0  0  0  0  0  0
    0.8183    1.2161    0.6517 C   0  0  0  0  0  0  0  0  0  0  0  0
    0.6574    0.2029   -0.2899 C   0  0  0  0  0  0  0  0  0  0  0  0
   -1.5535   -2.2050    1.1514 C   0  0  0  0  0  0  0  0  0  0  0  0
   -2.6043   -2.3794    2.0232 C   0  0  0  0  0  0  0  0  0  0  0  0
   -4.8750    0.2599    4.0087 H   0  0  0  0  0  0  0  0  0  0  0  0
   -5.9337   -0.2293    2.6539 H   0  0  0  0  0  0  0  0  0  0  0  0
   -6.0760   -1.0346    4.2353 H   0  0  0  0  0  0  0  0  0  0  0  0
   -3.9208    0.7443    1.8995 H   0  0  0  0  0  0  0  0  0  0  0  0
   -2.0746    1.0327    0.3332 H   0  0  0  0  0  0  0  0  0  0  0  0
   -1.5918   -3.0416   -1.4577 H   0  0  0  0  0  0  0  0  0  0  0  0
   -0.7267   -4.1523   -3.4838 H   0  0  0  0  0  0  0  0  0  0  0  0
    1.2866   -3.3353   -4.6113 H   0  0  0  0  0  0  0  0  0  0  0  0
    2.4968   -1.3556   -3.7591 H   0  0  0  0  0  0  0  0  0  0  0  0
    3.3238    0.8352   -2.3179 H   0  0  0  0  0  0  0  0  0  0  0  0
    4.5138    2.6578   -1.6135 H   0  0  0  0  0  0  0  0  0  0  0  0
    2.0001    2.8753    1.2236 H   0  0  0  0  0  0  0  0  0  0  0  0
    0.1428    1.3092    1.4879 H   0  0  0  0  0  0  0  0  0  0  0  0
   -0.8743   -3.0193    0.9495 H   0  0  0  0  0  0  0  0  0  0  0  0
   -2.7733   -3.3282    2.5067 H   0  0  0  0  0  0  0  0  0  0  0  0
  1  2  1  0  0  0  0
  2  3  1  0  0  0  0
  3  4  2  0  0  0  0
  4  5  1  0  0  0  0
  5  6  2  0  0  0  0
  6  7  1  0  0  0  0
  7  8  1  0  0  0  0
  8  9  2  0  0  0  0
  9 10  1  0  0  0  0
 10 11  2  0  0  0  0
 11 12  1  0  0  0  0
 12 13  2  0  0  0  0
 13 14  1  0  0  0  0
 14 15  2  0  0  0  0
 15 16  1  0  0  0  0
 16 17  1  0  0  0  0
 17 18  2  0  0  0  0
 18 19  1  0  0  0  0
 19 20  3  0  0  0  0
 18 21  1  0  0  0  0
 21 22  3  0  0  0  0
 16 23  2  0  0  0  0
 23 24  1  0  0  0  0
 24 25  2  0  0  0  0
  6 26  1  0  0  0  0
 26 27  2  0  0  0  0
 27  3  1  0  0  0  0
 25  7  1  0  0  0  0
 13  8  1  0  0  0  0
 25 14  1  0  0  0  0
  1 28  1  0  0  0  0
  1 29  1  0  0  0  0
  1 30  1  0  0  0  0
  4 31  1  0  0  0  0
  5 32  1  0  0  0  0
  9 33  1  0  0  0  0
 10 34  1  0  0  0  0
 11 35  1  0  0  0  0
 12 36  1  0  0  0  0
 15 37  1  0  0  0  0
 17 38  1  0  0  0  0
 23 39  1  0  0  0  0
 24 40  1  0  0  0  0
 26 41  1  0  0  0  0
 27 42  1  0  0  0  0
M  END
