
  xtb     03022213083D
 energy: -173.310679576407 gnorm: 0.000152984539 xtb: 6.4.1 (afa7bdf)
124127  0     0  0            999 V2000
    8.4090   -4.1850    2.9237 C   0  0  0  0  0  0  0  0  0  0  0  0
    8.3699   -2.7236    2.4926 C   0  0  0  0  0  0  0  0  0  0  0  0
    9.1406   -2.4518    1.1996 C   0  0  0  0  0  0  0  0  0  0  0  0
    8.6448   -3.2237   -0.0257 C   0  0  0  0  0  0  0  0  0  0  0  0
    7.1601   -3.0426   -0.3483 C   0  0  0  0  0  0  0  0  0  0  0  0
    6.7151   -1.5997   -0.5940 C   0  0  0  0  0  0  0  0  0  0  0  0
    7.3021   -1.0050   -1.8718 C   0  0  0  0  0  0  0  0  0  0  0  0
    6.8525    0.4320   -2.1471 C   0  0  0  0  0  0  0  0  0  0  0  0
    5.3370    0.5785   -2.3363 C   0  0  0  0  0  0  0  0  0  0  0  0
    4.6492    1.1093   -1.0772 C   0  0  0  0  0  0  0  0  0  0  0  0
    3.1973    1.0179   -1.1843 N   0  0  0  0  0  0  0  0  0  0  0  0
    2.5389    2.1063   -1.7274 C   0  0  0  0  0  0  0  0  0  0  0  0
    3.1546    3.0807   -2.1127 O   0  0  0  0  0  0  0  0  0  0  0  0
    1.0755    2.0045   -1.7813 C   0  0  0  0  0  0  0  0  0  0  0  0
    0.3593    3.0721   -2.2646 C   0  0  0  0  0  0  0  0  0  0  0  0
   -1.0534    3.0630   -2.3360 C   0  0  0  0  0  0  0  0  0  0  0  0
   -1.7357    4.0895   -2.8633 N   0  0  0  0  0  0  0  0  0  0  0  0
   -1.1857    5.3628   -3.2510 C   0  0  0  0  0  0  0  0  0  0  0  0
   -0.9071    6.2741   -2.0489 C   0  0  0  0  0  0  0  0  0  0  0  0
   -2.2125    6.7532   -1.4076 C   0  0  0  0  0  0  0  0  0  0  0  0
   -3.0364    7.5026   -2.2755 O   0  0  0  0  0  0  0  0  0  0  0  0
   -2.7310    8.8661   -2.4285 C   0  0  0  0  0  0  0  0  0  0  0  0
   -1.7743    9.1935   -3.5853 C   0  0  0  0  0  0  0  0  0  0  0  0
   -0.4404    9.1958   -3.1177 O   0  0  0  0  0  0  0  0  0  0  0  0
   -1.7268    1.9111   -1.8497 C   0  0  0  0  0  0  0  0  0  0  0  0
   -0.9859    0.8157   -1.3664 C   0  0  0  0  0  0  0  0  0  0  0  0
   -1.6393   -0.3437   -0.8878 C   0  0  0  0  0  0  0  0  0  0  0  0
   -0.9250   -1.4250   -0.4389 C   0  0  0  0  0  0  0  0  0  0  0  0
    0.4885   -1.4447   -0.4339 C   0  0  0  0  0  0  0  0  0  0  0  0
    1.1720   -2.5439   -0.0833 N   0  0  0  0  0  0  0  0  0  0  0  0
    0.6736   -3.6747    0.6562 C   0  0  0  0  0  0  0  0  0  0  0  0
    0.5777   -3.3754    2.1623 C   0  0  0  0  0  0  0  0  0  0  0  0
    0.9377   -4.6109    2.9908 C   0  0  0  0  0  0  0  0  0  0  0  0
    2.2311   -5.1098    2.7343 O   0  0  0  0  0  0  0  0  0  0  0  0
    3.3176   -4.3660    3.2475 C   0  0  0  0  0  0  0  0  0  0  0  0
    3.9965   -3.4447    2.2213 C   0  0  0  0  0  0  0  0  0  0  0  0
    3.4281   -2.1553    2.2626 O   0  0  0  0  0  0  0  0  0  0  0  0
    1.1665   -0.2726   -0.8642 C   0  0  0  0  0  0  0  0  0  0  0  0
    0.4257    0.8326   -1.3333 C   0  0  0  0  0  0  0  0  0  0  0  0
    2.6089   -0.1639   -0.7839 C   0  0  0  0  0  0  0  0  0  0  0  0
    3.3402   -1.0641   -0.3515 O   0  0  0  0  0  0  0  0  0  0  0  0
   -3.1071   -0.4133   -0.8630 C   0  0  0  0  0  0  0  0  0  0  0  0
   -3.7081   -1.4054   -0.4939 O   0  0  0  0  0  0  0  0  0  0  0  0
   -3.7718    0.7175   -1.2872 N   0  0  0  0  0  0  0  0  0  0  0  0
   -5.2288    0.7123   -1.2158 C   0  0  0  0  0  0  0  0  0  0  0  0
   -5.7556    1.6047   -0.0902 C   0  0  0  0  0  0  0  0  0  0  0  0
   -5.2202    1.2507    1.2966 C   0  0  0  0  0  0  0  0  0  0  0  0
   -5.5866   -0.1398    1.8211 C   0  0  0  0  0  0  0  0  0  0  0  0
   -7.0900   -0.3814    2.0127 C   0  0  0  0  0  0  0  0  0  0  0  0
   -7.7508   -1.1148    0.8437 C   0  0  0  0  0  0  0  0  0  0  0  0
   -9.1940   -1.5451    1.1482 C   0  0  0  0  0  0  0  0  0  0  0  0
   -9.3380   -3.0231    1.5165 C   0  0  0  0  0  0  0  0  0  0  0  0
   -8.6352   -3.4135    2.8141 C   0  0  0  0  0  0  0  0  0  0  0  0
   -8.8966   -4.8713    3.1742 C   0  0  0  0  0  0  0  0  0  0  0  0
   -3.1799    1.8543   -1.8143 C   0  0  0  0  0  0  0  0  0  0  0  0
   -3.9056    2.7603   -2.2177 O   0  0  0  0  0  0  0  0  0  0  0  0
    7.8905   -4.8191    2.2090 H   0  0  0  0  0  0  0  0  0  0  0  0
    9.4378   -4.5294    3.0061 H   0  0  0  0  0  0  0  0  0  0  0  0
    7.9291   -4.3055    3.8928 H   0  0  0  0  0  0  0  0  0  0  0  0
    8.8097   -2.1111    3.2841 H   0  0  0  0  0  0  0  0  0  0  0  0
    7.3324   -2.4051    2.3780 H   0  0  0  0  0  0  0  0  0  0  0  0
   10.1911   -2.7100    1.3583 H   0  0  0  0  0  0  0  0  0  0  0  0
    9.1013   -1.3806    0.9909 H   0  0  0  0  0  0  0  0  0  0  0  0
    9.2427   -2.9151   -0.8859 H   0  0  0  0  0  0  0  0  0  0  0  0
    8.8314   -4.2892    0.1244 H   0  0  0  0  0  0  0  0  0  0  0  0
    6.9311   -3.6347   -1.2387 H   0  0  0  0  0  0  0  0  0  0  0  0
    6.5674   -3.4542    0.4705 H   0  0  0  0  0  0  0  0  0  0  0  0
    5.6272   -1.5991   -0.6662 H   0  0  0  0  0  0  0  0  0  0  0  0
    6.9942   -0.9770    0.2577 H   0  0  0  0  0  0  0  0  0  0  0  0
    7.0183   -1.6339   -2.7197 H   0  0  0  0  0  0  0  0  0  0  0  0
    8.3922   -1.0116   -1.8083 H   0  0  0  0  0  0  0  0  0  0  0  0
    7.3599    0.7743   -3.0511 H   0  0  0  0  0  0  0  0  0  0  0  0
    7.1791    1.0777   -1.3292 H   0  0  0  0  0  0  0  0  0  0  0  0
    4.9054   -0.3895   -2.5986 H   0  0  0  0  0  0  0  0  0  0  0  0
    5.1223    1.2703   -3.1528 H   0  0  0  0  0  0  0  0  0  0  0  0
    4.8964    2.1627   -0.9346 H   0  0  0  0  0  0  0  0  0  0  0  0
    4.9530    0.5361   -0.2013 H   0  0  0  0  0  0  0  0  0  0  0  0
    0.9183    3.9346   -2.5905 H   0  0  0  0  0  0  0  0  0  0  0  0
   -2.7486    4.0045   -2.7961 H   0  0  0  0  0  0  0  0  0  0  0  0
   -1.9235    5.8486   -3.8927 H   0  0  0  0  0  0  0  0  0  0  0  0
   -0.2694    5.2122   -3.8284 H   0  0  0  0  0  0  0  0  0  0  0  0
   -0.3267    5.7345   -1.2992 H   0  0  0  0  0  0  0  0  0  0  0  0
   -0.3317    7.1401   -2.3744 H   0  0  0  0  0  0  0  0  0  0  0  0
   -1.9830    7.3393   -0.5070 H   0  0  0  0  0  0  0  0  0  0  0  0
   -2.8230    5.8922   -1.1187 H   0  0  0  0  0  0  0  0  0  0  0  0
   -2.3065    9.2790   -1.5048 H   0  0  0  0  0  0  0  0  0  0  0  0
   -3.6902    9.3525   -2.6304 H   0  0  0  0  0  0  0  0  0  0  0  0
   -1.9078    8.4507   -4.3826 H   0  0  0  0  0  0  0  0  0  0  0  0
   -2.0319   10.1847   -3.9809 H   0  0  0  0  0  0  0  0  0  0  0  0
    0.1462    9.4661   -3.8315 H   0  0  0  0  0  0  0  0  0  0  0  0
   -1.4824   -2.2785   -0.0879 H   0  0  0  0  0  0  0  0  0  0  0  0
    2.1789   -2.4022   -0.0497 H   0  0  0  0  0  0  0  0  0  0  0  0
   -0.2897   -3.9981    0.2581 H   0  0  0  0  0  0  0  0  0  0  0  0
    1.3896   -4.4879    0.5133 H   0  0  0  0  0  0  0  0  0  0  0  0
   -0.4227   -3.0379    2.4335 H   0  0  0  0  0  0  0  0  0  0  0  0
    1.2862   -2.5810    2.4050 H   0  0  0  0  0  0  0  0  0  0  0  0
    0.8267   -4.3765    4.0593 H   0  0  0  0  0  0  0  0  0  0  0  0
    0.2692   -5.4403    2.7425 H   0  0  0  0  0  0  0  0  0  0  0  0
    3.0094   -3.7638    4.1093 H   0  0  0  0  0  0  0  0  0  0  0  0
    4.0499   -5.1100    3.5774 H   0  0  0  0  0  0  0  0  0  0  0  0
    5.0658   -3.3819    2.4700 H   0  0  0  0  0  0  0  0  0  0  0  0
    3.8978   -3.8941    1.2263 H   0  0  0  0  0  0  0  0  0  0  0  0
    3.6299   -1.6922    1.4344 H   0  0  0  0  0  0  0  0  0  0  0  0
   -5.6131    1.0786   -2.1711 H   0  0  0  0  0  0  0  0  0  0  0  0
   -5.5329   -0.3235   -1.0679 H   0  0  0  0  0  0  0  0  0  0  0  0
   -6.8439    1.5434   -0.0952 H   0  0  0  0  0  0  0  0  0  0  0  0
   -5.4832    2.6379   -0.3157 H   0  0  0  0  0  0  0  0  0  0  0  0
   -5.5936    1.9997    2.0004 H   0  0  0  0  0  0  0  0  0  0  0  0
   -4.1290    1.3348    1.2869 H   0  0  0  0  0  0  0  0  0  0  0  0
   -5.1732   -0.9034    1.1620 H   0  0  0  0  0  0  0  0  0  0  0  0
   -5.0876   -0.2514    2.7874 H   0  0  0  0  0  0  0  0  0  0  0  0
   -7.5969    0.5732    2.1740 H   0  0  0  0  0  0  0  0  0  0  0  0
   -7.2348   -0.9771    2.9149 H   0  0  0  0  0  0  0  0  0  0  0  0
   -7.1573   -1.9961    0.5933 H   0  0  0  0  0  0  0  0  0  0  0  0
   -7.7496   -0.4668   -0.0333 H   0  0  0  0  0  0  0  0  0  0  0  0
   -9.5933   -0.9319    1.9593 H   0  0  0  0  0  0  0  0  0  0  0  0
   -9.8168   -1.3625    0.2694 H   0  0  0  0  0  0  0  0  0  0  0  0
   -8.9445   -3.6336    0.6999 H   0  0  0  0  0  0  0  0  0  0  0  0
  -10.4027   -3.2534    1.6131 H   0  0  0  0  0  0  0  0  0  0  0  0
   -8.9910   -2.7721    3.6242 H   0  0  0  0  0  0  0  0  0  0  0  0
   -7.5601   -3.2615    2.7097 H   0  0  0  0  0  0  0  0  0  0  0  0
   -8.5381   -5.5285    2.3846 H   0  0  0  0  0  0  0  0  0  0  0  0
   -9.9619   -5.0484    3.3075 H   0  0  0  0  0  0  0  0  0  0  0  0
   -8.3868   -5.1360    4.0980 H   0  0  0  0  0  0  0  0  0  0  0  0
  1  2  1  0  0  0  0
  2  3  1  0  0  0  0
  3  4  1  0  0  0  0
  4  5  1  0  0  0  0
  5  6  1  0  0  0  0
  6  7  1  0  0  0  0
  7  8  1  0  0  0  0
  8  9  1  0  0  0  0
  9 10  1  0  0  0  0
 10 11  1  0  0  0  0
 11 12  1  0  0  0  0
 12 13  2  0  0  0  0
 12 14  1  0  0  0  0
 14 15  1  0  0  0  0
 15 16  2  0  0  0  0
 16 17  1  0  0  0  0
 17 18  1  0  0  0  0
 18 19  1  0  0  0  0
 19 20  1  0  0  0  0
 20 21  1  0  0  0  0
 21 22  1  0  0  0  0
 22 23  1  0  0  0  0
 23 24  1  0  0  0  0
 16 25  1  0  0  0  0
 25 26  2  0  0  0  0
 26 27  1  0  0  0  0
 27 28  2  0  0  0  0
 28 29  1  0  0  0  0
 29 30  1  0  0  0  0
 30 31  1  0  0  0  0
 31 32  1  0  0  0  0
 32 33  1  0  0  0  0
 33 34  1  0  0  0  0
 34 35  1  0  0  0  0
 35 36  1  0  0  0  0
 36 37  1  0  0  0  0
 29 38  2  0  0  0  0
 38 39  1  0  0  0  0
 38 40  1  0  0  0  0
 40 41  2  0  0  0  0
 27 42  1  0  0  0  0
 42 43  2  0  0  0  0
 42 44  1  0  0  0  0
 44 45  1  0  0  0  0
 45 46  1  0  0  0  0
 46 47  1  0  0  0  0
 47 48  1  0  0  0  0
 48 49  1  0  0  0  0
 49 50  1  0  0  0  0
 50 51  1  0  0  0  0
 51 52  1  0  0  0  0
 52 53  1  0  0  0  0
 53 54  1  0  0  0  0
 44 55  1  0  0  0  0
 55 56  2  0  0  0  0
 40 11  1  0  0  0  0
 39 14  2  0  0  0  0
 55 25  1  0  0  0  0
 39 26  1  0  0  0  0
  1 57  1  0  0  0  0
  1 58  1  0  0  0  0
  1 59  1  0  0  0  0
  2 60  1  0  0  0  0
  2 61  1  0  0  0  0
  3 62  1  0  0  0  0
  3 63  1  0  0  0  0
  4 64  1  0  0  0  0
  4 65  1  0  0  0  0
  5 66  1  0  0  0  0
  5 67  1  0  0  0  0
  6 68  1  0  0  0  0
  6 69  1  0  0  0  0
  7 70  1  0  0  0  0
  7 71  1  0  0  0  0
  8 72  1  0  0  0  0
  8 73  1  0  0  0  0
  9 74  1  0  0  0  0
  9 75  1  0  0  0  0
 10 76  1  0  0  0  0
 10 77  1  0  0  0  0
 15 78  1  0  0  0  0
 17 79  1  0  0  0  0
 18 80  1  0  0  0  0
 18 81  1  0  0  0  0
 19 82  1  0  0  0  0
 19 83  1  0  0  0  0
 20 84  1  0  0  0  0
 20 85  1  0  0  0  0
 22 86  1  0  0  0  0
 22 87  1  0  0  0  0
 23 88  1  0  0  0  0
 23 89  1  0  0  0  0
 24 90  1  0  0  0  0
 28 91  1  0  0  0  0
 30 92  1  0  0  0  0
 31 93  1  0  0  0  0
 31 94  1  0  0  0  0
 32 95  1  0  0  0  0
 32 96  1  0  0  0  0
 33 97  1  0  0  0  0
 33 98  1  0  0  0  0
 35 99  1  0  0  0  0
 35100  1  0  0  0  0
 36101  1  0  0  0  0
 36102  1  0  0  0  0
 37103  1  0  0  0  0
 45104  1  0  0  0  0
 45105  1  0  0  0  0
 46106  1  0  0  0  0
 46107  1  0  0  0  0
 47108  1  0  0  0  0
 47109  1  0  0  0  0
 48110  1  0  0  0  0
 48111  1  0  0  0  0
 49112  1  0  0  0  0
 49113  1  0  0  0  0
 50114  1  0  0  0  0
 50115  1  0  0  0  0
 51116  1  0  0  0  0
 51117  1  0  0  0  0
 52118  1  0  0  0  0
 52119  1  0  0  0  0
 53120  1  0  0  0  0
 53121  1  0  0  0  0
 54122  1  0  0  0  0
 54123  1  0  0  0  0
 54124  1  0  0  0  0
M  END
