
  xtb     03022214353D
 energy: -36.556795106611 gnorm: 0.000207877991 xtb: 6.4.1 (afa7bdf)
 24 25  0     0  0            999 V2000
   -4.4980    0.1658    0.0413 C   0  0  0  0  0  0  0  0  0  0  0  0
   -3.6481    1.2558    0.1729 C   0  0  0  0  0  0  0  0  0  0  0  0
   -2.2818    1.0795    0.1365 C   0  0  0  0  0  0  0  0  0  0  0  0
   -1.7476   -0.2046   -0.0339 C   0  0  0  0  0  0  0  0  0  0  0  0
   -0.3961   -0.4905   -0.0847 N   0  0  0  0  0  0  0  0  0  0  0  0
    0.3962    0.4924    0.0688 N   0  0  0  0  0  0  0  0  0  0  0  0
    1.7477    0.2061    0.0164 C   0  0  0  0  0  0  0  0  0  0  0  0
    2.6113    1.2886    0.2103 C   0  0  0  0  0  0  0  0  0  0  0  0
    3.9779    1.0978    0.1775 C   0  0  0  0  0  0  0  0  0  0  0  0
    4.4979   -0.1676   -0.0492 C   0  0  0  0  0  0  0  0  0  0  0  0
    3.6470   -1.2472   -0.2449 C   0  0  0  0  0  0  0  0  0  0  0  0
    2.2808   -1.0691   -0.2138 C   0  0  0  0  0  0  0  0  0  0  0  0
   -2.6103   -1.2968   -0.1683 C   0  0  0  0  0  0  0  0  0  0  0  0
   -3.9769   -1.1079   -0.1292 C   0  0  0  0  0  0  0  0  0  0  0  0
   -5.5680    0.3110    0.0716 H   0  0  0  0  0  0  0  0  0  0  0  0
   -4.0610    2.2458    0.3046 H   0  0  0  0  0  0  0  0  0  0  0  0
   -1.6015    1.9116    0.2362 H   0  0  0  0  0  0  0  0  0  0  0  0
    2.1855    2.2646    0.3858 H   0  0  0  0  0  0  0  0  0  0  0  0
    4.6435    1.9350    0.3287 H   0  0  0  0  0  0  0  0  0  0  0  0
    5.5678   -0.3144   -0.0740 H   0  0  0  0  0  0  0  0  0  0  0  0
    4.0590   -2.2304   -0.4217 H   0  0  0  0  0  0  0  0  0  0  0  0
    1.5997   -1.8930   -0.3632 H   0  0  0  0  0  0  0  0  0  0  0  0
   -2.1835   -2.2794   -0.2995 H   0  0  0  0  0  0  0  0  0  0  0  0
   -4.6417   -1.9531   -0.2318 H   0  0  0  0  0  0  0  0  0  0  0  0
  1  2  2  0  0  0  0
  2  3  1  0  0  0  0
  3  4  2  0  0  0  0
  4  5  1  0  0  0  0
  5  6  2  0  0  0  0
  6  7  1  0  0  0  0
  7  8  2  0  0  0  0
  8  9  1  0  0  0  0
  9 10  2  0  0  0  0
 10 11  1  0  0  0  0
 11 12  2  0  0  0  0
  4 13  1  0  0  0  0
 13 14  2  0  0  0  0
 14  1  1  0  0  0  0
 12  7  1  0  0  0  0
  1 15  1  0  0  0  0
  2 16  1  0  0  0  0
  3 17  1  0  0  0  0
  8 18  1  0  0  0  0
  9 19  1  0  0  0  0
 10 20  1  0  0  0  0
 11 21  1  0  0  0  0
 12 22  1  0  0  0  0
 13 23  1  0  0  0  0
 14 24  1  0  0  0  0
M  END
