
  xtb     03022215473D
 energy: -122.086701996361 gnorm: 0.000147177323 xtb: 6.4.1 (afa7bdf)
 88 92  0     0  0            999 V2000
   -5.4768    2.3303   -0.2663 C   0  0  0  0  0  0  0  0  0  0  0  0
   -6.6950    2.8126    0.5131 C   0  0  0  0  0  0  0  0  0  0  0  0
   -7.8171    1.7747    0.5674 C   0  0  0  0  0  0  0  0  0  0  0  0
   -8.5708    1.6369   -0.7557 C   0  0  0  0  0  0  0  0  0  0  0  0
   -9.6125    0.5122   -0.7359 C   0  0  0  0  0  0  0  0  0  0  0  0
   -9.0743   -0.8324   -1.2507 C   0  0  0  0  0  0  0  0  0  0  0  0
   -7.8984   -1.3141   -0.4541 C   0  0  0  0  0  0  0  0  0  0  0  0
   -6.5909   -1.1479   -0.9400 C   0  0  0  0  0  0  0  0  0  0  0  0
   -5.4996   -1.4977   -0.1924 C   0  0  0  0  0  0  0  0  0  0  0  0
   -5.6437   -2.0485    1.0950 C   0  0  0  0  0  0  0  0  0  0  0  0
   -4.5266   -2.4105    1.9151 C   0  0  0  0  0  0  0  0  0  0  0  0
   -3.1579   -2.1990    1.4947 C   0  0  0  0  0  0  0  0  0  0  0  0
   -2.7943   -1.3154    0.6579 N   0  0  0  0  0  0  0  0  0  0  0  0
   -1.5027   -1.1879    0.2051 C   0  0  0  0  0  0  0  0  0  0  0  0
   -0.9931    0.1010    0.0233 C   0  0  0  0  0  0  0  0  0  0  0  0
    0.2713    0.2873   -0.4851 C   0  0  0  0  0  0  0  0  0  0  0  0
    1.0599   -0.8111   -0.8501 C   0  0  0  0  0  0  0  0  0  0  0  0
    2.3487   -0.6940   -1.3148 N   0  0  0  0  0  0  0  0  0  0  0  0
    2.7195    0.2236   -2.1129 C   0  0  0  0  0  0  0  0  0  0  0  0
    4.0765    0.4369   -2.5639 C   0  0  0  0  0  0  0  0  0  0  0  0
    4.2907    1.2118   -3.7057 C   0  0  0  0  0  0  0  0  0  0  0  0
    3.3036    1.7303   -4.4760 O   0  0  0  0  0  0  0  0  0  0  0  0
    5.5927    1.4883   -4.1629 C   0  0  0  0  0  0  0  0  0  0  0  0
    6.6784    0.9906   -3.5103 C   0  0  0  0  0  0  0  0  0  0  0  0
    6.5215    0.1898   -2.3590 C   0  0  0  0  0  0  0  0  0  0  0  0
    7.6461   -0.3227   -1.6837 C   0  0  0  0  0  0  0  0  0  0  0  0
    7.5201   -1.0811   -0.5487 C   0  0  0  0  0  0  0  0  0  0  0  0
    8.7169   -1.5828    0.2029 C   0  0  0  0  0  0  0  0  0  0  0  0
    8.9719   -0.8002    1.5001 C   0  0  0  0  0  0  0  0  0  0  0  0
    9.2719    0.6844    1.2681 C   0  0  0  0  0  0  0  0  0  0  0  0
    8.0191    1.5591    1.2594 C   0  0  0  0  0  0  0  0  0  0  0  0
    8.3318    3.0046    0.8817 C   0  0  0  0  0  0  0  0  0  0  0  0
    7.0690    3.8552    0.8288 C   0  0  0  0  0  0  0  0  0  0  0  0
    6.2253   -1.3549   -0.0736 C   0  0  0  0  0  0  0  0  0  0  0  0
    5.1126   -0.8779   -0.7104 C   0  0  0  0  0  0  0  0  0  0  0  0
    5.2172   -0.0923   -1.8752 C   0  0  0  0  0  0  0  0  0  0  0  0
    0.5495   -2.0998   -0.6676 C   0  0  0  0  0  0  0  0  0  0  0  0
   -0.7129   -2.2867   -0.1546 C   0  0  0  0  0  0  0  0  0  0  0  0
   -4.7713   -3.0011    3.1540 C   0  0  0  0  0  0  0  0  0  0  0  0
   -3.8021   -3.3495    4.0355 O   0  0  0  0  0  0  0  0  0  0  0  0
   -6.0863   -3.2412    3.5956 C   0  0  0  0  0  0  0  0  0  0  0  0
   -7.1522   -2.8847    2.8277 C   0  0  0  0  0  0  0  0  0  0  0  0
   -6.9629   -2.2798    1.5663 C   0  0  0  0  0  0  0  0  0  0  0  0
   -8.0636   -1.8965    0.7772 C   0  0  0  0  0  0  0  0  0  0  0  0
   -5.7250    2.1485   -1.3086 H   0  0  0  0  0  0  0  0  0  0  0  0
   -5.0948    1.4053    0.1604 H   0  0  0  0  0  0  0  0  0  0  0  0
   -4.6880    3.0789   -0.2336 H   0  0  0  0  0  0  0  0  0  0  0  0
   -7.0745    3.7356    0.0674 H   0  0  0  0  0  0  0  0  0  0  0  0
   -6.3847    3.0437    1.5349 H   0  0  0  0  0  0  0  0  0  0  0  0
   -8.5322    2.0664    1.3414 H   0  0  0  0  0  0  0  0  0  0  0  0
   -7.3919    0.8135    0.8564 H   0  0  0  0  0  0  0  0  0  0  0  0
   -7.8647    1.4560   -1.5663 H   0  0  0  0  0  0  0  0  0  0  0  0
   -9.0700    2.5866   -0.9645 H   0  0  0  0  0  0  0  0  0  0  0  0
   -9.9861    0.3851    0.2821 H   0  0  0  0  0  0  0  0  0  0  0  0
  -10.4606    0.7908   -1.3658 H   0  0  0  0  0  0  0  0  0  0  0  0
   -8.7862   -0.7199   -2.2980 H   0  0  0  0  0  0  0  0  0  0  0  0
   -9.8802   -1.5688   -1.1986 H   0  0  0  0  0  0  0  0  0  0  0  0
   -6.4465   -0.7286   -1.9254 H   0  0  0  0  0  0  0  0  0  0  0  0
   -4.5082   -1.3417   -0.5837 H   0  0  0  0  0  0  0  0  0  0  0  0
   -2.4014   -2.8489    1.9721 H   0  0  0  0  0  0  0  0  0  0  0  0
   -1.6031    0.9436    0.3126 H   0  0  0  0  0  0  0  0  0  0  0  0
    0.6733    1.2866   -0.5798 H   0  0  0  0  0  0  0  0  0  0  0  0
    1.9650    0.9166   -2.5288 H   0  0  0  0  0  0  0  0  0  0  0  0
    2.4311    1.4780   -4.1480 H   0  0  0  0  0  0  0  0  0  0  0  0
    5.6870    2.0960   -5.0491 H   0  0  0  0  0  0  0  0  0  0  0  0
    7.6753    1.2002   -3.8697 H   0  0  0  0  0  0  0  0  0  0  0  0
    8.6261   -0.0913   -2.0779 H   0  0  0  0  0  0  0  0  0  0  0  0
    8.5655   -2.6347    0.4597 H   0  0  0  0  0  0  0  0  0  0  0  0
    9.6036   -1.5143   -0.4309 H   0  0  0  0  0  0  0  0  0  0  0  0
    9.8227   -1.2651    2.0039 H   0  0  0  0  0  0  0  0  0  0  0  0
    8.1065   -0.8944    2.1587 H   0  0  0  0  0  0  0  0  0  0  0  0
    9.9384    1.0444    2.0560 H   0  0  0  0  0  0  0  0  0  0  0  0
    9.7998    0.8011    0.3192 H   0  0  0  0  0  0  0  0  0  0  0  0
    7.5590    1.5364    2.2505 H   0  0  0  0  0  0  0  0  0  0  0  0
    7.2939    1.1604    0.5501 H   0  0  0  0  0  0  0  0  0  0  0  0
    8.8177    3.0215   -0.0968 H   0  0  0  0  0  0  0  0  0  0  0  0
    9.0304    3.4301    1.6062 H   0  0  0  0  0  0  0  0  0  0  0  0
    6.5744    3.8647    1.7977 H   0  0  0  0  0  0  0  0  0  0  0  0
    7.3061    4.8805    0.5541 H   0  0  0  0  0  0  0  0  0  0  0  0
    6.3740    3.4531    0.0942 H   0  0  0  0  0  0  0  0  0  0  0  0
    6.1137   -1.9545    0.8187 H   0  0  0  0  0  0  0  0  0  0  0  0
    4.1320   -1.1055   -0.3282 H   0  0  0  0  0  0  0  0  0  0  0  0
    1.1585   -2.9424   -0.9587 H   0  0  0  0  0  0  0  0  0  0  0  0
   -1.1151   -3.2853   -0.0522 H   0  0  0  0  0  0  0  0  0  0  0  0
   -2.9256   -3.1273    3.6971 H   0  0  0  0  0  0  0  0  0  0  0  0
   -6.2076   -3.6992    4.5646 H   0  0  0  0  0  0  0  0  0  0  0  0
   -8.1593   -3.0562    3.1786 H   0  0  0  0  0  0  0  0  0  0  0  0
   -9.0576   -2.0658    1.1678 H   0  0  0  0  0  0  0  0  0  0  0  0
  1  2  1  0  0  0  0
  2  3  1  0  0  0  0
  3  4  1  0  0  0  0
  4  5  1  0  0  0  0
  5  6  1  0  0  0  0
  6  7  1  0  0  0  0
  7  8  2  0  0  0  0
  8  9  1  0  0  0  0
  9 10  2  0  0  0  0
 10 11  1  0  0  0  0
 11 12  1  0  0  0  0
 12 13  2  0  0  0  0
 13 14  1  0  0  0  0
 14 15  2  0  0  0  0
 15 16  1  0  0  0  0
 16 17  2  0  0  0  0
 17 18  1  0  0  0  0
 18 19  2  0  0  0  0
 19 20  1  0  0  0  0
 20 21  2  0  0  0  0
 21 22  1  0  0  0  0
 21 23  1  0  0  0  0
 23 24  2  0  0  0  0
 24 25  1  0  0  0  0
 25 26  2  0  0  0  0
 26 27  1  0  0  0  0
 27 28  1  0  0  0  0
 28 29  1  0  0  0  0
 29 30  1  0  0  0  0
 30 31  1  0  0  0  0
 31 32  1  0  0  0  0
 32 33  1  0  0  0  0
 27 34  2  0  0  0  0
 34 35  1  0  0  0  0
 35 36  2  0  0  0  0
 17 37  1  0  0  0  0
 37 38  2  0  0  0  0
 11 39  2  0  0  0  0
 39 40  1  0  0  0  0
 39 41  1  0  0  0  0
 41 42  2  0  0  0  0
 42 43  1  0  0  0  0
 43 44  2  0  0  0  0
 44  7  1  0  0  0  0
 43 10  1  0  0  0  0
 38 14  1  0  0  0  0
 36 20  1  0  0  0  0
 36 25  1  0  0  0  0
  1 45  1  0  0  0  0
  1 46  1  0  0  0  0
  1 47  1  0  0  0  0
  2 48  1  0  0  0  0
  2 49  1  0  0  0  0
  3 50  1  0  0  0  0
  3 51  1  0  0  0  0
  4 52  1  0  0  0  0
  4 53  1  0  0  0  0
  5 54  1  0  0  0  0
  5 55  1  0  0  0  0
  6 56  1  0  0  0  0
  6 57  1  0  0  0  0
  8 58  1  0  0  0  0
  9 59  1  0  0  0  0
 12 60  1  0  0  0  0
 15 61  1  0  0  0  0
 16 62  1  0  0  0  0
 19 63  1  0  0  0  0
 22 64  1  0  0  0  0
 23 65  1  0  0  0  0
 24 66  1  0  0  0  0
 26 67  1  0  0  0  0
 28 68  1  0  0  0  0
 28 69  1  0  0  0  0
 29 70  1  0  0  0  0
 29 71  1  0  0  0  0
 30 72  1  0  0  0  0
 30 73  1  0  0  0  0
 31 74  1  0  0  0  0
 31 75  1  0  0  0  0
 32 76  1  0  0  0  0
 32 77  1  0  0  0  0
 33 78  1  0  0  0  0
 33 79  1  0  0  0  0
 33 80  1  0  0  0  0
 34 81  1  0  0  0  0
 35 82  1  0  0  0  0
 37 83  1  0  0  0  0
 38 84  1  0  0  0  0
 40 85  1  0  0  0  0
 41 86  1  0  0  0  0
 42 87  1  0  0  0  0
 44 88  1  0  0  0  0
M  END
