
  xtb     03022213043D
 energy: -69.923497214252 gnorm: 0.000252614900 xtb: 6.4.1 (afa7bdf)
 41 45  0     0  0            999 V2000
    5.9016    0.8379   -1.2995 C   0  0  0  0  0  0  0  0  0  0  0  0
    4.7081    0.4889   -0.4742 C   0  0  0  0  0  0  0  0  0  0  0  0
    3.4321    0.5350   -0.9005 C   0  0  0  0  0  0  0  0  0  0  0  0
    2.3706    0.1718   -0.0078 C   0  0  0  0  0  0  0  0  0  0  0  0
    1.0267    0.1926   -0.3830 C   0  0  0  0  0  0  0  0  0  0  0  0
    0.0411   -0.1703    0.5199 C   0  0  0  0  0  0  0  0  0  0  0  0
   -1.3128   -0.1375    0.1383 N   0  0  0  0  0  0  0  0  0  0  0  0
   -2.0856   -1.3036    0.1646 C   0  0  0  0  0  0  0  0  0  0  0  0
   -1.5479   -2.5441    0.4842 C   0  0  0  0  0  0  0  0  0  0  0  0
   -2.3420   -3.6807    0.4981 C   0  0  0  0  0  0  0  0  0  0  0  0
   -3.6824   -3.5998    0.1797 C   0  0  0  0  0  0  0  0  0  0  0  0
   -4.2260   -2.3755   -0.1787 C   0  0  0  0  0  0  0  0  0  0  0  0
   -3.4379   -1.2396   -0.1962 C   0  0  0  0  0  0  0  0  0  0  0  0
   -4.0392   -0.0737   -0.5984 O   0  0  0  0  0  0  0  0  0  0  0  0
   -3.2667    1.0596   -0.6291 C   0  0  0  0  0  0  0  0  0  0  0  0
   -3.8892    2.2280   -1.0283 C   0  0  0  0  0  0  0  0  0  0  0  0
   -3.1878    3.4241   -1.0496 C   0  0  0  0  0  0  0  0  0  0  0  0
   -1.8674    3.4435   -0.6491 C   0  0  0  0  0  0  0  0  0  0  0  0
   -1.2375    2.2739   -0.2518 C   0  0  0  0  0  0  0  0  0  0  0  0
   -1.9151    1.0611   -0.2589 C   0  0  0  0  0  0  0  0  0  0  0  0
    0.3898   -0.5666    1.8192 C   0  0  0  0  0  0  0  0  0  0  0  0
    1.7096   -0.5962    2.1991 C   0  0  0  0  0  0  0  0  0  0  0  0
    2.7109   -0.2295    1.2963 C   0  0  0  0  0  0  0  0  0  0  0  0
    4.1093   -0.2627    1.7148 C   0  0  0  0  0  0  0  0  0  0  0  0
    4.5040   -0.5892    2.8060 O   0  0  0  0  0  0  0  0  0  0  0  0
    5.0399    0.1099    0.7807 O   0  0  0  0  0  0  0  0  0  0  0  0
    6.5592   -0.0264   -1.3788 H   0  0  0  0  0  0  0  0  0  0  0  0
    5.6012    1.1572   -2.2920 H   0  0  0  0  0  0  0  0  0  0  0  0
    6.4647    1.6336   -0.8146 H   0  0  0  0  0  0  0  0  0  0  0  0
    3.1996    0.8419   -1.9060 H   0  0  0  0  0  0  0  0  0  0  0  0
    0.7569    0.4883   -1.3862 H   0  0  0  0  0  0  0  0  0  0  0  0
   -0.4981   -2.6273    0.7174 H   0  0  0  0  0  0  0  0  0  0  0  0
   -1.8979   -4.6294    0.7570 H   0  0  0  0  0  0  0  0  0  0  0  0
   -4.3057   -4.4798    0.1944 H   0  0  0  0  0  0  0  0  0  0  0  0
   -5.2638   -2.2801   -0.4554 H   0  0  0  0  0  0  0  0  0  0  0  0
   -4.9282    2.1802   -1.3123 H   0  0  0  0  0  0  0  0  0  0  0  0
   -3.6810    4.3298   -1.3651 H   0  0  0  0  0  0  0  0  0  0  0  0
   -1.3135    4.3696   -0.6369 H   0  0  0  0  0  0  0  0  0  0  0  0
   -0.2110    2.3101    0.0777 H   0  0  0  0  0  0  0  0  0  0  0  0
   -0.3904   -0.8351    2.5152 H   0  0  0  0  0  0  0  0  0  0  0  0
    2.0018   -0.8903    3.1953 H   0  0  0  0  0  0  0  0  0  0  0  0
  1  2  1  0  0  0  0
  2  3  2  0  0  0  0
  3  4  1  0  0  0  0
  4  5  2  0  0  0  0
  5  6  1  0  0  0  0
  6  7  1  0  0  0  0
  7  8  1  0  0  0  0
  8  9  2  0  0  0  0
  9 10  1  0  0  0  0
 10 11  2  0  0  0  0
 11 12  1  0  0  0  0
 12 13  2  0  0  0  0
 13 14  1  0  0  0  0
 14 15  1  0  0  0  0
 15 16  2  0  0  0  0
 16 17  1  0  0  0  0
 17 18  2  0  0  0  0
 18 19  1  0  0  0  0
 19 20  2  0  0  0  0
  6 21  2  0  0  0  0
 21 22  1  0  0  0  0
 22 23  2  0  0  0  0
 23 24  1  0  0  0  0
 24 25  2  0  0  0  0
 24 26  1  0  0  0  0
 26  2  1  0  0  0  0
 23  4  1  0  0  0  0
 20  7  1  0  0  0  0
 13  8  1  0  0  0  0
 20 15  1  0  0  0  0
  1 27  1  0  0  0  0
  1 28  1  0  0  0  0
  1 29  1  0  0  0  0
  3 30  1  0  0  0  0
  5 31  1  0  0  0  0
  9 32  1  0  0  0  0
 10 33  1  0  0  0  0
 11 34  1  0  0  0  0
 12 35  1  0  0  0  0
 16 36  1  0  0  0  0
 17 37  1  0  0  0  0
 18 38  1  0  0  0  0
 19 39  1  0  0  0  0
 21 40  1  0  0  0  0
 22 41  1  0  0  0  0
M  END
