
  xtb     03022213383D
 energy: -67.505778104543 gnorm: 0.000194532119 xtb: 6.4.1 (afa7bdf)
 42 45  0     0  0            999 V2000
    6.4840    1.7630    0.4774 C   0  0  0  0  0  0  0  0  0  0  0  0
    6.1188    0.3589    0.0321 C   0  0  0  0  0  0  0  0  0  0  0  0
    4.7042    0.2050    0.1375 O   0  0  0  0  0  0  0  0  0  0  0  0
    4.1819   -0.8817   -0.4645 C   0  0  0  0  0  0  0  0  0  0  0  0
    4.8477   -1.6859   -1.0601 O   0  0  0  0  0  0  0  0  0  0  0  0
    2.7086   -0.9083   -0.3176 C   0  0  0  0  0  0  0  0  0  0  0  0
    1.9956    0.2393   -0.1441 C   0  0  0  0  0  0  0  0  0  0  0  0
    0.5832    0.2152   -0.0684 C   0  0  0  0  0  0  0  0  0  0  0  0
   -0.2185    1.3527    0.1020 C   0  0  0  0  0  0  0  0  0  0  0  0
   -1.5856    1.2732    0.1360 C   0  0  0  0  0  0  0  0  0  0  0  0
   -2.2283    0.0139   -0.0053 C   0  0  0  0  0  0  0  0  0  0  0  0
   -1.4425   -1.1421   -0.1569 C   0  0  0  0  0  0  0  0  0  0  0  0
   -0.0581   -1.0320   -0.1874 C   0  0  0  0  0  0  0  0  0  0  0  0
    0.6570   -2.1713   -0.3350 O   0  0  0  0  0  0  0  0  0  0  0  0
    2.0325   -2.2021   -0.3865 C   0  0  0  0  0  0  0  0  0  0  0  0
    2.5496   -3.2839   -0.4562 O   0  0  0  0  0  0  0  0  0  0  0  0
   -2.0677   -2.5037   -0.2835 C   0  0  0  0  0  0  0  0  0  0  0  0
   -3.4673   -2.4933    0.3108 C   0  0  0  0  0  0  0  0  0  0  0  0
   -4.2412   -1.3258   -0.2857 C   0  0  0  0  0  0  0  0  0  0  0  0
   -3.5864   -0.0782    0.0331 N   0  0  0  0  0  0  0  0  0  0  0  0
   -4.4094    1.1074    0.0542 C   0  0  0  0  0  0  0  0  0  0  0  0
   -3.7598    2.1858    0.9089 C   0  0  0  0  0  0  0  0  0  0  0  0
   -2.4040    2.5241    0.3079 C   0  0  0  0  0  0  0  0  0  0  0  0
    6.0027    2.4978   -0.1629 H   0  0  0  0  0  0  0  0  0  0  0  0
    6.1580    1.9268    1.5011 H   0  0  0  0  0  0  0  0  0  0  0  0
    7.5606    1.8950    0.4212 H   0  0  0  0  0  0  0  0  0  0  0  0
    6.4192    0.1750   -1.0057 H   0  0  0  0  0  0  0  0  0  0  0  0
    6.6026   -0.3953    0.6633 H   0  0  0  0  0  0  0  0  0  0  0  0
    2.5094    1.1878   -0.0808 H   0  0  0  0  0  0  0  0  0  0  0  0
    0.2639    2.3139    0.2034 H   0  0  0  0  0  0  0  0  0  0  0  0
   -1.4343   -3.2356    0.2189 H   0  0  0  0  0  0  0  0  0  0  0  0
   -2.1098   -2.7875   -1.3391 H   0  0  0  0  0  0  0  0  0  0  0  0
   -3.9850   -3.4289    0.0999 H   0  0  0  0  0  0  0  0  0  0  0  0
   -3.4085   -2.3667    1.3933 H   0  0  0  0  0  0  0  0  0  0  0  0
   -5.2542   -1.2927    0.1252 H   0  0  0  0  0  0  0  0  0  0  0  0
   -4.3220   -1.4515   -1.3753 H   0  0  0  0  0  0  0  0  0  0  0  0
   -4.5686    1.4878   -0.9662 H   0  0  0  0  0  0  0  0  0  0  0  0
   -5.3859    0.8361    0.4662 H   0  0  0  0  0  0  0  0  0  0  0  0
   -3.6290    1.8091    1.9249 H   0  0  0  0  0  0  0  0  0  0  0  0
   -4.4006    3.0670    0.9459 H   0  0  0  0  0  0  0  0  0  0  0  0
   -2.5458    3.0011   -0.6672 H   0  0  0  0  0  0  0  0  0  0  0  0
   -1.8669    3.2309    0.9423 H   0  0  0  0  0  0  0  0  0  0  0  0
  1  2  1  0  0  0  0
  2  3  1  0  0  0  0
  3  4  1  0  0  0  0
  4  5  2  0  0  0  0
  4  6  1  0  0  0  0
  6  7  2  0  0  0  0
  7  8  1  0  0  0  0
  8  9  2  0  0  0  0
  9 10  1  0  0  0  0
 10 11  2  0  0  0  0
 11 12  1  0  0  0  0
 12 13  2  0  0  0  0
 13 14  1  0  0  0  0
 14 15  1  0  0  0  0
 15 16  2  0  0  0  0
 12 17  1  0  0  0  0
 17 18  1  0  0  0  0
 18 19  1  0  0  0  0
 19 20  1  0  0  0  0
 20 21  1  0  0  0  0
 21 22  1  0  0  0  0
 22 23  1  0  0  0  0
 15  6  1  0  0  0  0
 13  8  1  0  0  0  0
 23 10  1  0  0  0  0
 20 11  1  0  0  0  0
  1 24  1  0  0  0  0
  1 25  1  0  0  0  0
  1 26  1  0  0  0  0
  2 27  1  0  0  0  0
  2 28  1  0  0  0  0
  7 29  1  0  0  0  0
  9 30  1  0  0  0  0
 17 31  1  0  0  0  0
 17 32  1  0  0  0  0
 18 33  1  0  0  0  0
 18 34  1  0  0  0  0
 19 35  1  0  0  0  0
 19 36  1  0  0  0  0
 21 37  1  0  0  0  0
 21 38  1  0  0  0  0
 22 39  1  0  0  0  0
 22 40  1  0  0  0  0
 23 41  1  0  0  0  0
 23 42  1  0  0  0  0
M  END
