
  xtb     03022213043D
 energy: -139.651938953168 gnorm: 0.000169215624 xtb: 6.4.1 (afa7bdf)
 92100  0     0  0            999 V2000
   13.0600   -1.3138    2.3194 C   0  0  0  0  0  0  0  0  0  0  0  0
   12.6342   -1.7309    0.9121 C   0  0  0  0  0  0  0  0  0  0  0  0
   11.4996   -0.9747    0.4544 N   0  0  0  0  0  0  0  0  0  0  0  0
   11.5549    0.2406   -0.1910 C   0  0  0  0  0  0  0  0  0  0  0  0
   12.6572    0.9799   -0.5958 C   0  0  0  0  0  0  0  0  0  0  0  0
   12.4288    2.1799   -1.2422 C   0  0  0  0  0  0  0  0  0  0  0  0
   11.1373    2.6424   -1.4832 C   0  0  0  0  0  0  0  0  0  0  0  0
   10.0357    1.9136   -1.0808 C   0  0  0  0  0  0  0  0  0  0  0  0
   10.2398    0.7055   -0.4288 C   0  0  0  0  0  0  0  0  0  0  0  0
    9.3559   -0.2835    0.1237 C   0  0  0  0  0  0  0  0  0  0  0  0
    7.9794   -0.3865    0.2015 C   0  0  0  0  0  0  0  0  0  0  0  0
    7.4102   -1.4940    0.8311 C   0  0  0  0  0  0  0  0  0  0  0  0
    5.9826   -1.6737    0.9516 C   0  0  0  0  0  0  0  0  0  0  0  0
    5.0105   -0.9178    0.4147 C   0  0  0  0  0  0  0  0  0  0  0  0
    3.6010   -1.2676    0.6228 C   0  0  0  0  0  0  0  0  0  0  0  0
    3.2596   -2.2930    1.1911 O   0  0  0  0  0  0  0  0  0  0  0  0
    2.5908   -0.3268    0.0730 C   0  0  0  0  0  0  0  0  0  0  0  0
    2.8217    1.0532   -0.0093 C   0  0  0  0  0  0  0  0  0  0  0  0
    1.8681    1.9197   -0.5018 C   0  0  0  0  0  0  0  0  0  0  0  0
    0.6604    1.3884   -0.9370 C   0  0  0  0  0  0  0  0  0  0  0  0
    0.4062   -0.0027   -0.8479 C   0  0  0  0  0  0  0  0  0  0  0  0
    1.3681   -0.8525   -0.3323 C   0  0  0  0  0  0  0  0  0  0  0  0
   -0.9241   -0.2018   -1.3539 C   0  0  0  0  0  0  0  0  0  0  0  0
   -1.7234   -1.3189   -1.5221 C   0  0  0  0  0  0  0  0  0  0  0  0
   -3.0098   -1.1579   -2.0239 C   0  0  0  0  0  0  0  0  0  0  0  0
   -3.8525   -2.3673   -2.2089 C   0  0  0  0  0  0  0  0  0  0  0  0
   -3.3654   -3.4300   -2.5567 O   0  0  0  0  0  0  0  0  0  0  0  0
   -5.2913   -2.2471   -1.9436 C   0  0  0  0  0  0  0  0  0  0  0  0
   -5.8297   -1.3530   -1.1009 C   0  0  0  0  0  0  0  0  0  0  0  0
   -7.2267   -1.2150   -0.7467 C   0  0  0  0  0  0  0  0  0  0  0  0
   -8.2196   -2.0934   -1.2184 C   0  0  0  0  0  0  0  0  0  0  0  0
   -9.5471   -1.9474   -0.8856 C   0  0  0  0  0  0  0  0  0  0  0  0
   -9.9083   -0.8888   -0.0590 C   0  0  0  0  0  0  0  0  0  0  0  0
   -8.9260    0.0066    0.4333 C   0  0  0  0  0  0  0  0  0  0  0  0
   -7.5967   -0.1622    0.0913 C   0  0  0  0  0  0  0  0  0  0  0  0
   -9.6237    0.9586    1.2519 C   0  0  0  0  0  0  0  0  0  0  0  0
   -9.2198    2.0581    1.9968 C   0  0  0  0  0  0  0  0  0  0  0  0
  -10.1750    2.7728    2.6917 C   0  0  0  0  0  0  0  0  0  0  0  0
  -11.5170    2.4020    2.6512 C   0  0  0  0  0  0  0  0  0  0  0  0
  -11.9431    1.3113    1.9174 C   0  0  0  0  0  0  0  0  0  0  0  0
  -10.9894    0.5901    1.2132 C   0  0  0  0  0  0  0  0  0  0  0  0
  -11.1416   -0.5137    0.4040 N   0  0  0  0  0  0  0  0  0  0  0  0
  -12.3744   -1.2183    0.1746 C   0  0  0  0  0  0  0  0  0  0  0  0
  -12.6153   -2.2920    1.2352 C   0  0  0  0  0  0  0  0  0  0  0  0
   -3.4683    0.1143   -2.3937 C   0  0  0  0  0  0  0  0  0  0  0  0
   -2.6785    1.2366   -2.2532 C   0  0  0  0  0  0  0  0  0  0  0  0
   -1.4044    1.0796   -1.7218 C   0  0  0  0  0  0  0  0  0  0  0  0
   -0.4313    2.0185   -1.4813 N   0  0  0  0  0  0  0  0  0  0  0  0
   -0.5711    3.4376   -1.6706 C   0  0  0  0  0  0  0  0  0  0  0  0
   -1.1438    4.1173   -0.4274 C   0  0  0  0  0  0  0  0  0  0  0  0
    8.2552   -2.4791    1.3776 C   0  0  0  0  0  0  0  0  0  0  0  0
    9.6274   -2.3998    1.3044 C   0  0  0  0  0  0  0  0  0  0  0  0
   10.1856   -1.2956    0.6699 C   0  0  0  0  0  0  0  0  0  0  0  0
   13.3268   -0.2596    2.3348 H   0  0  0  0  0  0  0  0  0  0  0  0
   12.2449   -1.4728    3.0216 H   0  0  0  0  0  0  0  0  0  0  0  0
   13.9185   -1.8977    2.6403 H   0  0  0  0  0  0  0  0  0  0  0  0
   12.3713   -2.7921    0.8988 H   0  0  0  0  0  0  0  0  0  0  0  0
   13.4582   -1.5776    0.2099 H   0  0  0  0  0  0  0  0  0  0  0  0
   13.6654    0.6391   -0.4138 H   0  0  0  0  0  0  0  0  0  0  0  0
   13.2710    2.7737   -1.5657 H   0  0  0  0  0  0  0  0  0  0  0  0
   11.0012    3.5857   -1.9907 H   0  0  0  0  0  0  0  0  0  0  0  0
    9.0348    2.2732   -1.2664 H   0  0  0  0  0  0  0  0  0  0  0  0
    7.3585    0.3904   -0.2158 H   0  0  0  0  0  0  0  0  0  0  0  0
    5.6595   -2.5241    1.5418 H   0  0  0  0  0  0  0  0  0  0  0  0
    5.2257   -0.0664   -0.2110 H   0  0  0  0  0  0  0  0  0  0  0  0
    3.7528    1.4601    0.3560 H   0  0  0  0  0  0  0  0  0  0  0  0
    2.0633    2.9812   -0.5377 H   0  0  0  0  0  0  0  0  0  0  0  0
    1.1938   -1.9137   -0.2437 H   0  0  0  0  0  0  0  0  0  0  0  0
   -1.3729   -2.3054   -1.2606 H   0  0  0  0  0  0  0  0  0  0  0  0
   -5.8908   -3.0159   -2.4107 H   0  0  0  0  0  0  0  0  0  0  0  0
   -5.1702   -0.6455   -0.6118 H   0  0  0  0  0  0  0  0  0  0  0  0
   -7.9333   -2.9153   -1.8550 H   0  0  0  0  0  0  0  0  0  0  0  0
  -10.2813   -2.6454   -1.2589 H   0  0  0  0  0  0  0  0  0  0  0  0
   -6.8476    0.5197    0.4670 H   0  0  0  0  0  0  0  0  0  0  0  0
   -8.1793    2.3441    2.0302 H   0  0  0  0  0  0  0  0  0  0  0  0
   -9.8826    3.6312    3.2781 H   0  0  0  0  0  0  0  0  0  0  0  0
  -12.2409    2.9788    3.2079 H   0  0  0  0  0  0  0  0  0  0  0  0
  -12.9869    1.0358    1.9015 H   0  0  0  0  0  0  0  0  0  0  0  0
  -12.3333   -1.6743   -0.8183 H   0  0  0  0  0  0  0  0  0  0  0  0
  -13.1935   -0.4941    0.1808 H   0  0  0  0  0  0  0  0  0  0  0  0
  -11.8053   -3.0177    1.2264 H   0  0  0  0  0  0  0  0  0  0  0  0
  -12.6618   -1.8406    2.2236 H   0  0  0  0  0  0  0  0  0  0  0  0
  -13.5514   -2.8086    1.0409 H   0  0  0  0  0  0  0  0  0  0  0  0
   -4.4539    0.2130   -2.8241 H   0  0  0  0  0  0  0  0  0  0  0  0
   -3.0508    2.2051   -2.5526 H   0  0  0  0  0  0  0  0  0  0  0  0
   -1.2268    3.6099   -2.5283 H   0  0  0  0  0  0  0  0  0  0  0  0
    0.4118    3.8539   -1.9071 H   0  0  0  0  0  0  0  0  0  0  0  0
   -2.1252    3.7106   -0.1951 H   0  0  0  0  0  0  0  0  0  0  0  0
   -0.4915    3.9506    0.4266 H   0  0  0  0  0  0  0  0  0  0  0  0
   -1.2379    5.1872   -0.5936 H   0  0  0  0  0  0  0  0  0  0  0  0
    7.8024   -3.3287    1.8677 H   0  0  0  0  0  0  0  0  0  0  0  0
   10.2439   -3.1750    1.7344 H   0  0  0  0  0  0  0  0  0  0  0  0
  1  2  1  0  0  0  0
  2  3  1  0  0  0  0
  3  4  1  0  0  0  0
  4  5  2  0  0  0  0
  5  6  1  0  0  0  0
  6  7  2  0  0  0  0
  7  8  1  0  0  0  0
  8  9  2  0  0  0  0
  9 10  1  0  0  0  0
 10 11  2  0  0  0  0
 11 12  1  0  0  0  0
 12 13  1  0  0  0  0
 13 14  2  0  0  0  0
 14 15  1  0  0  0  0
 15 16  2  0  0  0  0
 15 17  1  0  0  0  0
 17 18  2  0  0  0  0
 18 19  1  0  0  0  0
 19 20  2  0  0  0  0
 20 21  1  0  0  0  0
 21 22  2  0  0  0  0
 21 23  1  0  0  0  0
 23 24  2  0  0  0  0
 24 25  1  0  0  0  0
 25 26  1  0  0  0  0
 26 27  2  0  0  0  0
 26 28  1  0  0  0  0
 28 29  2  0  0  0  0
 29 30  1  0  0  0  0
 30 31  2  0  0  0  0
 31 32  1  0  0  0  0
 32 33  2  0  0  0  0
 33 34  1  0  0  0  0
 34 35  2  0  0  0  0
 34 36  1  0  0  0  0
 36 37  2  0  0  0  0
 37 38  1  0  0  0  0
 38 39  2  0  0  0  0
 39 40  1  0  0  0  0
 40 41  2  0  0  0  0
 41 42  1  0  0  0  0
 42 43  1  0  0  0  0
 43 44  1  0  0  0  0
 25 45  2  0  0  0  0
 45 46  1  0  0  0  0
 46 47  2  0  0  0  0
 47 48  1  0  0  0  0
 48 49  1  0  0  0  0
 49 50  1  0  0  0  0
 12 51  2  0  0  0  0
 51 52  1  0  0  0  0
 52 53  2  0  0  0  0
 53  3  1  0  0  0  0
  9  4  1  0  0  0  0
 53 10  1  0  0  0  0
 22 17  1  0  0  0  0
 47 23  1  0  0  0  0
 48 20  1  0  0  0  0
 35 30  1  0  0  0  0
 41 36  1  0  0  0  0
 42 33  1  0  0  0  0
  1 54  1  0  0  0  0
  1 55  1  0  0  0  0
  1 56  1  0  0  0  0
  2 57  1  0  0  0  0
  2 58  1  0  0  0  0
  5 59  1  0  0  0  0
  6 60  1  0  0  0  0
  7 61  1  0  0  0  0
  8 62  1  0  0  0  0
 11 63  1  0  0  0  0
 13 64  1  0  0  0  0
 14 65  1  0  0  0  0
 18 66  1  0  0  0  0
 19 67  1  0  0  0  0
 22 68  1  0  0  0  0
 24 69  1  0  0  0  0
 28 70  1  0  0  0  0
 29 71  1  0  0  0  0
 31 72  1  0  0  0  0
 32 73  1  0  0  0  0
 35 74  1  0  0  0  0
 37 75  1  0  0  0  0
 38 76  1  0  0  0  0
 39 77  1  0  0  0  0
 40 78  1  0  0  0  0
 43 79  1  0  0  0  0
 43 80  1  0  0  0  0
 44 81  1  0  0  0  0
 44 82  1  0  0  0  0
 44 83  1  0  0  0  0
 45 84  1  0  0  0  0
 46 85  1  0  0  0  0
 49 86  1  0  0  0  0
 49 87  1  0  0  0  0
 50 88  1  0  0  0  0
 50 89  1  0  0  0  0
 50 90  1  0  0  0  0
 51 91  1  0  0  0  0
 52 92  1  0  0  0  0
M  END
