
  xtb     03022216093D
 energy: -42.762662116069 gnorm: 0.000312193176 xtb: 6.4.1 (afa7bdf)
 24 24  0     0  0            999 V2000
   -2.8338    2.1066    0.9180 C   0  0  0  0  0  0  0  0  0  0  0  0
   -3.0398    0.7864    0.4798 O   0  0  0  0  0  0  0  0  0  0  0  0
   -1.9382    0.0342    0.1435 C   0  0  0  0  0  0  0  0  0  0  0  0
   -0.6265    0.4535    0.1950 C   0  0  0  0  0  0  0  0  0  0  0  0
    0.4206   -0.4046   -0.1743 C   0  0  0  0  0  0  0  0  0  0  0  0
    1.7736    0.0975   -0.0986 C   0  0  0  0  0  0  0  0  0  0  0  0
    2.8995   -0.5650   -0.4056 C   0  0  0  0  0  0  0  0  0  0  0  0
    4.2296    0.0295   -0.2985 C   0  0  0  0  0  0  0  0  0  0  0  0
    5.2588   -0.5452   -0.5665 O   0  0  0  0  0  0  0  0  0  0  0  0
    4.2329    1.3077    0.1363 O   0  0  0  0  0  0  0  0  0  0  0  0
    0.1071   -1.6970   -0.5962 C   0  0  0  0  0  0  0  0  0  0  0  0
   -1.2040   -2.1241   -0.6502 C   0  0  0  0  0  0  0  0  0  0  0  0
   -2.2372   -1.2740   -0.2851 C   0  0  0  0  0  0  0  0  0  0  0  0
   -3.5192   -1.6990   -0.3409 O   0  0  0  0  0  0  0  0  0  0  0  0
   -2.2348    2.1344    1.8332 H   0  0  0  0  0  0  0  0  0  0  0  0
   -2.3508    2.7126    0.1455 H   0  0  0  0  0  0  0  0  0  0  0  0
   -3.8254    2.5068    1.1232 H   0  0  0  0  0  0  0  0  0  0  0  0
   -0.3839    1.4529    0.5216 H   0  0  0  0  0  0  0  0  0  0  0  0
    1.8731    1.1198    0.2440 H   0  0  0  0  0  0  0  0  0  0  0  0
    2.9037   -1.5857   -0.7544 H   0  0  0  0  0  0  0  0  0  0  0  0
    5.1482    1.6234    0.1787 H   0  0  0  0  0  0  0  0  0  0  0  0
    0.8922   -2.3758   -0.8852 H   0  0  0  0  0  0  0  0  0  0  0  0
   -1.4545   -3.1210   -0.9752 H   0  0  0  0  0  0  0  0  0  0  0  0
   -4.0915   -0.9742   -0.0515 H   0  0  0  0  0  0  0  0  0  0  0  0
  1  2  1  0  0  0  0
  2  3  1  0  0  0  0
  3  4  2  0  0  0  0
  4  5  1  0  0  0  0
  5  6  1  0  0  0  0
  6  7  2  0  0  0  0
  7  8  1  0  0  0  0
  8  9  2  0  0  0  0
  8 10  1  0  0  0  0
  5 11  2  0  0  0  0
 11 12  1  0  0  0  0
 12 13  2  0  0  0  0
 13 14  1  0  0  0  0
 13  3  1  0  0  0  0
  1 15  1  0  0  0  0
  1 16  1  0  0  0  0
  1 17  1  0  0  0  0
  4 18  1  0  0  0  0
  6 19  1  0  0  0  0
  7 20  1  0  0  0  0
 10 21  1  0  0  0  0
 11 22  1  0  0  0  0
 12 23  1  0  0  0  0
 14 24  1  0  0  0  0
M  END
