
  xtb     03022214373D
 energy: -50.192648673489 gnorm: 0.000141881039 xtb: 6.4.1 (afa7bdf)
 34 35  0     0  0            999 V2000
   -4.8012   -0.9840   -1.3754 C   0  0  0  0  0  0  0  0  0  0  0  0
   -4.3313   -0.0065   -0.4261 N   0  0  0  0  0  0  0  0  0  0  0  0
   -5.3045    0.7950    0.2749 C   0  0  0  0  0  0  0  0  0  0  0  0
   -3.0051    0.0810   -0.1092 C   0  0  0  0  0  0  0  0  0  0  0  0
   -2.0681   -0.8370   -0.6116 C   0  0  0  0  0  0  0  0  0  0  0  0
   -0.7285   -0.7333   -0.3077 C   0  0  0  0  0  0  0  0  0  0  0  0
   -0.2541    0.2840    0.5183 C   0  0  0  0  0  0  0  0  0  0  0  0
    1.1641    0.4529    0.9158 C   0  0  0  0  0  0  0  0  0  0  0  0
    1.4829    1.0154    1.9460 O   0  0  0  0  0  0  0  0  0  0  0  0
    2.0626   -0.0566    0.0135 N   0  0  0  0  0  0  0  0  0  0  0  0
    3.4552   -0.0868    0.0751 C   0  0  0  0  0  0  0  0  0  0  0  0
    4.1409   -0.6282   -1.0125 C   0  0  0  0  0  0  0  0  0  0  0  0
    5.5203   -0.6915   -1.0097 C   0  0  0  0  0  0  0  0  0  0  0  0
    6.2371   -0.2159    0.0758 C   0  0  0  0  0  0  0  0  0  0  0  0
    5.5591    0.3215    1.1568 C   0  0  0  0  0  0  0  0  0  0  0  0
    4.1782    0.3891    1.1658 C   0  0  0  0  0  0  0  0  0  0  0  0
   -1.1852    1.1808    1.0432 C   0  0  0  0  0  0  0  0  0  0  0  0
   -2.5217    1.0948    0.7353 C   0  0  0  0  0  0  0  0  0  0  0  0
   -4.2057   -0.9458   -2.2902 H   0  0  0  0  0  0  0  0  0  0  0  0
   -4.7587   -2.0024   -0.9713 H   0  0  0  0  0  0  0  0  0  0  0  0
   -5.8329   -0.7634   -1.6400 H   0  0  0  0  0  0  0  0  0  0  0  0
   -5.2379    1.8491   -0.0150 H   0  0  0  0  0  0  0  0  0  0  0  0
   -6.3048    0.4396    0.0390 H   0  0  0  0  0  0  0  0  0  0  0  0
   -5.1658    0.7211    1.3568 H   0  0  0  0  0  0  0  0  0  0  0  0
   -2.3894   -1.6572   -1.2326 H   0  0  0  0  0  0  0  0  0  0  0  0
   -0.0607   -1.4922   -0.6934 H   0  0  0  0  0  0  0  0  0  0  0  0
    1.6759   -0.4334   -0.8402 H   0  0  0  0  0  0  0  0  0  0  0  0
    3.5844   -1.0011   -1.8625 H   0  0  0  0  0  0  0  0  0  0  0  0
    6.0373   -1.1141   -1.8590 H   0  0  0  0  0  0  0  0  0  0  0  0
    7.3157   -0.2645    0.0772 H   0  0  0  0  0  0  0  0  0  0  0  0
    6.1106    0.6944    2.0073 H   0  0  0  0  0  0  0  0  0  0  0  0
    3.6531    0.8090    2.0069 H   0  0  0  0  0  0  0  0  0  0  0  0
   -0.8266    1.9599    1.6990 H   0  0  0  0  0  0  0  0  0  0  0  0
   -3.1953    1.8262    1.1500 H   0  0  0  0  0  0  0  0  0  0  0  0
  1  2  1  0  0  0  0
  2  3  1  0  0  0  0
  2  4  1  0  0  0  0
  4  5  2  0  0  0  0
  5  6  1  0  0  0  0
  6  7  2  0  0  0  0
  7  8  1  0  0  0  0
  8  9  2  0  0  0  0
  8 10  1  0  0  0  0
 10 11  1  0  0  0  0
 11 12  2  0  0  0  0
 12 13  1  0  0  0  0
 13 14  2  0  0  0  0
 14 15  1  0  0  0  0
 15 16  2  0  0  0  0
  7 17  1  0  0  0  0
 17 18  2  0  0  0  0
 18  4  1  0  0  0  0
 16 11  1  0  0  0  0
  1 19  1  0  0  0  0
  1 20  1  0  0  0  0
  1 21  1  0  0  0  0
  3 22  1  0  0  0  0
  3 23  1  0  0  0  0
  3 24  1  0  0  0  0
  5 25  1  0  0  0  0
  6 26  1  0  0  0  0
 10 27  1  0  0  0  0
 12 28  1  0  0  0  0
 13 29  1  0  0  0  0
 14 30  1  0  0  0  0
 15 31  1  0  0  0  0
 16 32  1  0  0  0  0
 17 33  1  0  0  0  0
 18 34  1  0  0  0  0
M  END
