
  xtb     03022215323D
 energy: -35.727161201160 gnorm: 0.000311019149 xtb: 6.4.1 (afa7bdf)
 21 22  0     0  0            999 V2000
   -3.2494    0.8393    0.4297 C   0  0  0  0  0  0  0  0  0  0  0  0
   -1.9139    0.2275    0.1614 C   0  0  0  0  0  0  0  0  0  0  0  0
   -1.7716   -1.0240   -0.3011 C   0  0  0  0  0  0  0  0  0  0  0  0
   -0.4814   -1.6611   -0.5814 C   0  0  0  0  0  0  0  0  0  0  0  0
   -0.4060   -2.8029   -0.9967 O   0  0  0  0  0  0  0  0  0  0  0  0
    0.7167   -0.8291   -0.3285 C   0  0  0  0  0  0  0  0  0  0  0  0
    1.9803   -1.3553   -0.5745 C   0  0  0  0  0  0  0  0  0  0  0  0
    3.1143   -0.5954   -0.3450 C   0  0  0  0  0  0  0  0  0  0  0  0
    2.9948    0.7001    0.1342 C   0  0  0  0  0  0  0  0  0  0  0  0
    1.7424    1.2335    0.3827 C   0  0  0  0  0  0  0  0  0  0  0  0
    0.5945    0.4791    0.1551 C   0  0  0  0  0  0  0  0  0  0  0  0
   -0.7260    1.0821    0.4325 C   0  0  0  0  0  0  0  0  0  0  0  0
   -0.8411    2.2147    0.8604 O   0  0  0  0  0  0  0  0  0  0  0  0
   -3.8216    0.9176   -0.4936 H   0  0  0  0  0  0  0  0  0  0  0  0
   -3.8194    0.2250    1.1242 H   0  0  0  0  0  0  0  0  0  0  0  0
   -3.1195    1.8334    0.8506 H   0  0  0  0  0  0  0  0  0  0  0  0
   -2.6406   -1.6400   -0.4942 H   0  0  0  0  0  0  0  0  0  0  0  0
    2.0500   -2.3666   -0.9470 H   0  0  0  0  0  0  0  0  0  0  0  0
    4.0909   -1.0128   -0.5393 H   0  0  0  0  0  0  0  0  0  0  0  0
    3.8782    1.2944    0.3141 H   0  0  0  0  0  0  0  0  0  0  0  0
    1.6287    2.2404    0.7563 H   0  0  0  0  0  0  0  0  0  0  0  0
  1  2  1  0  0  0  0
  2  3  2  0  0  0  0
  3  4  1  0  0  0  0
  4  5  2  0  0  0  0
  4  6  1  0  0  0  0
  6  7  2  0  0  0  0
  7  8  1  0  0  0  0
  8  9  2  0  0  0  0
  9 10  1  0  0  0  0
 10 11  2  0  0  0  0
 11 12  1  0  0  0  0
 12 13  2  0  0  0  0
 12  2  1  0  0  0  0
 11  6  1  0  0  0  0
  1 14  1  0  0  0  0
  1 15  1  0  0  0  0
  1 16  1  0  0  0  0
  3 17  1  0  0  0  0
  7 18  1  0  0  0  0
  8 19  1  0  0  0  0
  9 20  1  0  0  0  0
 10 21  1  0  0  0  0
M  END
