
  xtb     03022212023D
 energy: -131.272238690191 gnorm: 0.000142676225 xtb: 6.4.1 (afa7bdf)
 96102  0     0  0            999 V2000
   -7.2050    1.8351    3.4906 C   0  0  0  0  0  0  0  0  0  0  0  0
   -5.8347    2.4057    3.1461 C   0  0  0  0  0  0  0  0  0  0  0  0
   -5.2022    1.6870    1.9567 C   0  0  0  0  0  0  0  0  0  0  0  0
   -3.8279    2.2571    1.6113 C   0  0  0  0  0  0  0  0  0  0  0  0
   -3.1322    1.5128    0.4685 C   0  0  0  0  0  0  0  0  0  0  0  0
   -3.7446    1.8460   -0.8899 C   0  0  0  0  0  0  0  0  0  0  0  0
   -3.2638    0.9948   -2.0823 C   0  0  0  0  0  0  0  0  0  0  0  0
   -3.4714   -0.5231   -1.8951 C   0  0  0  0  0  0  0  0  0  0  0  0
   -4.8823   -0.9757   -1.5306 C   0  0  0  0  0  0  0  0  0  0  0  0
   -4.9300   -2.4843   -1.2928 C   0  0  0  0  0  0  0  0  0  0  0  0
   -6.3371   -2.9508   -0.9252 C   0  0  0  0  0  0  0  0  0  0  0  0
   -6.4562   -4.4684   -0.7820 C   0  0  0  0  0  0  0  0  0  0  0  0
   -5.6882   -5.0217    0.4127 C   0  0  0  0  0  0  0  0  0  0  0  0
   -3.9423    1.5212   -3.3330 C   0  0  0  0  0  0  0  0  0  0  0  0
   -5.2870    1.6448   -3.6163 C   0  0  0  0  0  0  0  0  0  0  0  0
   -5.6747    2.1796   -4.8379 C   0  0  0  0  0  0  0  0  0  0  0  0
   -4.7327    2.6034   -5.7615 C   0  0  0  0  0  0  0  0  0  0  0  0
   -3.3808    2.5153   -5.4758 C   0  0  0  0  0  0  0  0  0  0  0  0
   -2.9927    1.9785   -4.2592 C   0  0  0  0  0  0  0  0  0  0  0  0
   -1.6695    1.7927   -3.6939 C   0  0  0  0  0  0  0  0  0  0  0  0
   -0.4177    2.0741   -4.2163 C   0  0  0  0  0  0  0  0  0  0  0  0
    0.7021    1.7790   -3.4618 C   0  0  0  0  0  0  0  0  0  0  0  0
    0.5876    1.1856   -2.2048 C   0  0  0  0  0  0  0  0  0  0  0  0
    1.7895    0.8570   -1.4273 C   0  0  0  0  0  0  0  0  0  0  0  0
    2.8760    1.7295   -1.3858 C   0  0  0  0  0  0  0  0  0  0  0  0
    4.0033    1.4237   -0.6517 C   0  0  0  0  0  0  0  0  0  0  0  0
    4.0882    0.2268    0.0568 C   0  0  0  0  0  0  0  0  0  0  0  0
    5.2923   -0.1021    0.8301 C   0  0  0  0  0  0  0  0  0  0  0  0
    5.7818   -1.4063    0.8816 C   0  0  0  0  0  0  0  0  0  0  0  0
    6.9273   -1.6745    1.6290 C   0  0  0  0  0  0  0  0  0  0  0  0
    7.4752   -3.0417    1.7208 C   0  0  0  0  0  0  0  0  0  0  0  0
    6.6355   -4.1566    1.7549 C   0  0  0  0  0  0  0  0  0  0  0  0
    7.2028   -5.4153    1.8438 C   0  0  0  0  0  0  0  0  0  0  0  0
    8.5835   -5.5250    1.8954 C   0  0  0  0  0  0  0  0  0  0  0  0
    9.3296   -4.3553    1.8654 C   0  0  0  0  0  0  0  0  0  0  0  0
    8.7979   -3.1527    1.7822 N   0  0  0  0  0  0  0  0  0  0  0  0
    7.5868   -0.7307    2.2847 N   0  0  0  0  0  0  0  0  0  0  0  0
    7.1346    0.5168    2.2394 C   0  0  0  0  0  0  0  0  0  0  0  0
    7.9078    1.5262    2.9771 C   0  0  0  0  0  0  0  0  0  0  0  0
    9.0886    1.1696    3.6305 C   0  0  0  0  0  0  0  0  0  0  0  0
    9.7904    2.1478    4.3099 C   0  0  0  0  0  0  0  0  0  0  0  0
    9.2959    3.4440    4.3165 C   0  0  0  0  0  0  0  0  0  0  0  0
    8.1144    3.6959    3.6344 C   0  0  0  0  0  0  0  0  0  0  0  0
    7.4363    2.7717    2.9826 N   0  0  0  0  0  0  0  0  0  0  0  0
    5.9878    0.8762    1.5342 C   0  0  0  0  0  0  0  0  0  0  0  0
    3.0051   -0.6484    0.0133 C   0  0  0  0  0  0  0  0  0  0  0  0
    1.8733   -0.3357   -0.7109 C   0  0  0  0  0  0  0  0  0  0  0  0
   -0.6797    0.8978   -1.6909 C   0  0  0  0  0  0  0  0  0  0  0  0
   -1.8025    1.2219   -2.4192 C   0  0  0  0  0  0  0  0  0  0  0  0
   -7.6355    2.3579    4.3415 H   0  0  0  0  0  0  0  0  0  0  0  0
   -7.8843    1.9367    2.6467 H   0  0  0  0  0  0  0  0  0  0  0  0
   -7.1268    0.7791    3.7409 H   0  0  0  0  0  0  0  0  0  0  0  0
   -5.9318    3.4687    2.9137 H   0  0  0  0  0  0  0  0  0  0  0  0
   -5.1762    2.3166    4.0133 H   0  0  0  0  0  0  0  0  0  0  0  0
   -5.8709    1.7750    1.0981 H   0  0  0  0  0  0  0  0  0  0  0  0
   -5.1017    0.6244    2.1929 H   0  0  0  0  0  0  0  0  0  0  0  0
   -3.1969    2.1989    2.5018 H   0  0  0  0  0  0  0  0  0  0  0  0
   -3.9270    3.3128    1.3483 H   0  0  0  0  0  0  0  0  0  0  0  0
   -3.1966    0.4411    0.6613 H   0  0  0  0  0  0  0  0  0  0  0  0
   -2.0786    1.7954    0.4627 H   0  0  0  0  0  0  0  0  0  0  0  0
   -3.5275    2.8923   -1.1236 H   0  0  0  0  0  0  0  0  0  0  0  0
   -4.8287    1.7481   -0.8316 H   0  0  0  0  0  0  0  0  0  0  0  0
   -3.1755   -1.0108   -2.8286 H   0  0  0  0  0  0  0  0  0  0  0  0
   -2.7815   -0.8674   -1.1216 H   0  0  0  0  0  0  0  0  0  0  0  0
   -5.5697   -0.7263   -2.3394 H   0  0  0  0  0  0  0  0  0  0  0  0
   -5.2184   -0.4678   -0.6255 H   0  0  0  0  0  0  0  0  0  0  0  0
   -4.2354   -2.7414   -0.4910 H   0  0  0  0  0  0  0  0  0  0  0  0
   -4.6025   -3.0038   -2.1967 H   0  0  0  0  0  0  0  0  0  0  0  0
   -6.6424   -2.4766    0.0109 H   0  0  0  0  0  0  0  0  0  0  0  0
   -7.0294   -2.6189   -1.7033 H   0  0  0  0  0  0  0  0  0  0  0  0
   -7.5125   -4.7249   -0.6700 H   0  0  0  0  0  0  0  0  0  0  0  0
   -6.0966   -4.9451   -1.6968 H   0  0  0  0  0  0  0  0  0  0  0  0
   -4.6182   -4.8746    0.2919 H   0  0  0  0  0  0  0  0  0  0  0  0
   -6.0037   -4.5277    1.3294 H   0  0  0  0  0  0  0  0  0  0  0  0
   -5.8724   -6.0885    0.5184 H   0  0  0  0  0  0  0  0  0  0  0  0
   -6.0418    1.3441   -2.9052 H   0  0  0  0  0  0  0  0  0  0  0  0
   -6.7264    2.2711   -5.0681 H   0  0  0  0  0  0  0  0  0  0  0  0
   -5.0572    3.0162   -6.7057 H   0  0  0  0  0  0  0  0  0  0  0  0
   -2.6443    2.8634   -6.1847 H   0  0  0  0  0  0  0  0  0  0  0  0
   -0.3158    2.5104   -5.1989 H   0  0  0  0  0  0  0  0  0  0  0  0
    1.6848    1.9786   -3.8636 H   0  0  0  0  0  0  0  0  0  0  0  0
    2.8254    2.6671   -1.9200 H   0  0  0  0  0  0  0  0  0  0  0  0
    4.8379    2.1091   -0.6401 H   0  0  0  0  0  0  0  0  0  0  0  0
    5.3029   -2.1904    0.3152 H   0  0  0  0  0  0  0  0  0  0  0  0
    5.5630   -4.0370    1.7343 H   0  0  0  0  0  0  0  0  0  0  0  0
    6.5781   -6.2969    1.8759 H   0  0  0  0  0  0  0  0  0  0  0  0
    9.0657   -6.4879    1.9621 H   0  0  0  0  0  0  0  0  0  0  0  0
   10.4112   -4.3826    1.9080 H   0  0  0  0  0  0  0  0  0  0  0  0
    9.4192    0.1450    3.5835 H   0  0  0  0  0  0  0  0  0  0  0  0
   10.7090    1.9076    4.8265 H   0  0  0  0  0  0  0  0  0  0  0  0
    9.8116    4.2380    4.8345 H   0  0  0  0  0  0  0  0  0  0  0  0
    7.6866    4.6906    3.6073 H   0  0  0  0  0  0  0  0  0  0  0  0
    5.6585    1.9020    1.5603 H   0  0  0  0  0  0  0  0  0  0  0  0
    3.0430   -1.5736    0.5704 H   0  0  0  0  0  0  0  0  0  0  0  0
    1.0496   -1.0342   -0.7411 H   0  0  0  0  0  0  0  0  0  0  0  0
   -0.7590    0.4370   -0.7182 H   0  0  0  0  0  0  0  0  0  0  0  0
  1  2  1  0  0  0  0
  2  3  1  0  0  0  0
  3  4  1  0  0  0  0
  4  5  1  0  0  0  0
  5  6  1  0  0  0  0
  6  7  1  0  0  0  0
  7  8  1  0  0  0  0
  8  9  1  0  0  0  0
  9 10  1  0  0  0  0
 10 11  1  0  0  0  0
 11 12  1  0  0  0  0
 12 13  1  0  0  0  0
  7 14  1  0  0  0  0
 14 15  2  0  0  0  0
 15 16  1  0  0  0  0
 16 17  2  0  0  0  0
 17 18  1  0  0  0  0
 18 19  2  0  0  0  0
 19 20  1  0  0  0  0
 20 21  2  0  0  0  0
 21 22  1  0  0  0  0
 22 23  2  0  0  0  0
 23 24  1  0  0  0  0
 24 25  2  0  0  0  0
 25 26  1  0  0  0  0
 26 27  2  0  0  0  0
 27 28  1  0  0  0  0
 28 29  2  0  0  0  0
 29 30  1  0  0  0  0
 30 31  1  0  0  0  0
 31 32  2  0  0  0  0
 32 33  1  0  0  0  0
 33 34  2  0  0  0  0
 34 35  1  0  0  0  0
 35 36  2  0  0  0  0
 30 37  2  0  0  0  0
 37 38  1  0  0  0  0
 38 39  1  0  0  0  0
 39 40  2  0  0  0  0
 40 41  1  0  0  0  0
 41 42  2  0  0  0  0
 42 43  1  0  0  0  0
 43 44  2  0  0  0  0
 38 45  2  0  0  0  0
 27 46  1  0  0  0  0
 46 47  2  0  0  0  0
 23 48  1  0  0  0  0
 48 49  2  0  0  0  0
 49  7  1  0  0  0  0
 19 14  1  0  0  0  0
 49 20  1  0  0  0  0
 47 24  1  0  0  0  0
 45 28  1  0  0  0  0
 36 31  1  0  0  0  0
 44 39  1  0  0  0  0
  1 50  1  0  0  0  0
  1 51  1  0  0  0  0
  1 52  1  0  0  0  0
  2 53  1  0  0  0  0
  2 54  1  0  0  0  0
  3 55  1  0  0  0  0
  3 56  1  0  0  0  0
  4 57  1  0  0  0  0
  4 58  1  0  0  0  0
  5 59  1  0  0  0  0
  5 60  1  0  0  0  0
  6 61  1  0  0  0  0
  6 62  1  0  0  0  0
  8 63  1  0  0  0  0
  8 64  1  0  0  0  0
  9 65  1  0  0  0  0
  9 66  1  0  0  0  0
 10 67  1  0  0  0  0
 10 68  1  0  0  0  0
 11 69  1  0  0  0  0
 11 70  1  0  0  0  0
 12 71  1  0  0  0  0
 12 72  1  0  0  0  0
 13 73  1  0  0  0  0
 13 74  1  0  0  0  0
 13 75  1  0  0  0  0
 15 76  1  0  0  0  0
 16 77  1  0  0  0  0
 17 78  1  0  0  0  0
 18 79  1  0  0  0  0
 21 80  1  0  0  0  0
 22 81  1  0  0  0  0
 25 82  1  0  0  0  0
 26 83  1  0  0  0  0
 29 84  1  0  0  0  0
 32 85  1  0  0  0  0
 33 86  1  0  0  0  0
 34 87  1  0  0  0  0
 35 88  1  0  0  0  0
 40 89  1  0  0  0  0
 41 90  1  0  0  0  0
 42 91  1  0  0  0  0
 43 92  1  0  0  0  0
 45 93  1  0  0  0  0
 46 94  1  0  0  0  0
 47 95  1  0  0  0  0
 48 96  1  0  0  0  0
M  END
