
  xtb     03022214593D
 energy: -76.778514838556 gnorm: 0.000072700668 xtb: 6.4.1 (afa7bdf)
 47 54  0     0  0            999 V2000
   -1.0002   -3.1670   -3.2426 C   0  0  0  0  0  0  0  0  0  0  0  0
   -0.0401   -3.6123   -2.3469 C   0  0  0  0  0  0  0  0  0  0  0  0
    0.2901   -2.8654   -1.2220 C   0  0  0  0  0  0  0  0  0  0  0  0
   -0.3596   -1.6709   -1.0148 C   0  0  0  0  0  0  0  0  0  0  0  0
   -1.3361   -1.2176   -1.9237 C   0  0  0  0  0  0  0  0  0  0  0  0
   -1.6604   -1.9648   -3.0430 C   0  0  0  0  0  0  0  0  0  0  0  0
   -1.8106    0.0481   -1.4276 C   0  0  0  0  0  0  0  0  0  0  0  0
   -2.9658    1.2317   -1.9413 S   0  0  0  0  0  0  0  0  0  0  0  0
   -2.5738    2.2128   -0.5422 C   0  0  0  0  0  0  0  0  0  0  0  0
   -3.1382    3.4360   -0.2219 C   0  0  0  0  0  0  0  0  0  0  0  0
   -2.7117    4.0764    0.9246 C   0  0  0  0  0  0  0  0  0  0  0  0
   -1.7367    3.5071    1.7437 C   0  0  0  0  0  0  0  0  0  0  0  0
   -1.1713    2.2917    1.4319 C   0  0  0  0  0  0  0  0  0  0  0  0
   -1.5831    1.6236    0.2773 C   0  0  0  0  0  0  0  0  0  0  0  0
   -1.1699    0.3831   -0.2648 C   0  0  0  0  0  0  0  0  0  0  0  0
   -0.1724   -0.6755    0.1119 C   0  0  0  0  0  0  0  0  0  0  0  0
   -0.3858   -1.2464    1.4989 C   0  0  0  0  0  0  0  0  0  0  0  0
   -1.5012   -1.8694    2.0085 C   0  0  0  0  0  0  0  0  0  0  0  0
   -1.4727   -2.3013    3.3295 C   0  0  0  0  0  0  0  0  0  0  0  0
   -0.3492   -2.1097    4.1189 C   0  0  0  0  0  0  0  0  0  0  0  0
    0.7797   -1.4831    3.6149 C   0  0  0  0  0  0  0  0  0  0  0  0
    0.7570   -1.0518    2.2997 C   0  0  0  0  0  0  0  0  0  0  0  0
    1.7285   -0.3747    1.4806 C   0  0  0  0  0  0  0  0  0  0  0  0
    3.3393    0.2230    1.6985 S   0  0  0  0  0  0  0  0  0  0  0  0
    3.3440    0.7966    0.0418 C   0  0  0  0  0  0  0  0  0  0  0  0
    4.3880    1.4513   -0.5898 C   0  0  0  0  0  0  0  0  0  0  0  0
    4.2226    1.8355   -1.9056 C   0  0  0  0  0  0  0  0  0  0  0  0
    3.0341    1.5708   -2.5861 C   0  0  0  0  0  0  0  0  0  0  0  0
    1.9923    0.9203   -1.9651 C   0  0  0  0  0  0  0  0  0  0  0  0
    2.1324    0.5226   -0.6342 C   0  0  0  0  0  0  0  0  0  0  0  0
    1.2306   -0.1497    0.2251 C   0  0  0  0  0  0  0  0  0  0  0  0
   -1.2368   -3.7659   -4.1097 H   0  0  0  0  0  0  0  0  0  0  0  0
    0.4600   -4.5525   -2.5254 H   0  0  0  0  0  0  0  0  0  0  0  0
    1.0392   -3.2142   -0.5263 H   0  0  0  0  0  0  0  0  0  0  0  0
   -2.4080   -1.6145   -3.7390 H   0  0  0  0  0  0  0  0  0  0  0  0
   -3.8931    3.8726   -0.8577 H   0  0  0  0  0  0  0  0  0  0  0  0
   -3.1397    5.0311    1.1910 H   0  0  0  0  0  0  0  0  0  0  0  0
   -1.4239    4.0305    2.6349 H   0  0  0  0  0  0  0  0  0  0  0  0
   -0.4186    1.8447    2.0638 H   0  0  0  0  0  0  0  0  0  0  0  0
   -2.3782   -2.0190    1.3960 H   0  0  0  0  0  0  0  0  0  0  0  0
   -2.3396   -2.7921    3.7464 H   0  0  0  0  0  0  0  0  0  0  0  0
   -0.3538   -2.4535    5.1428 H   0  0  0  0  0  0  0  0  0  0  0  0
    1.6561   -1.3313    4.2271 H   0  0  0  0  0  0  0  0  0  0  0  0
    5.3064    1.6534   -0.0601 H   0  0  0  0  0  0  0  0  0  0  0  0
    5.0249    2.3476   -2.4150 H   0  0  0  0  0  0  0  0  0  0  0  0
    2.9339    1.8819   -3.6153 H   0  0  0  0  0  0  0  0  0  0  0  0
    1.0713    0.7098   -2.4878 H   0  0  0  0  0  0  0  0  0  0  0  0
  1  2  2  0  0  0  0
  2  3  1  0  0  0  0
  3  4  2  0  0  0  0
  4  5  1  0  0  0  0
  5  6  2  0  0  0  0
  5  7  1  0  0  0  0
  7  8  1  0  0  0  0
  8  9  1  0  0  0  0
  9 10  2  0  0  0  0
 10 11  1  0  0  0  0
 11 12  2  0  0  0  0
 12 13  1  0  0  0  0
 13 14  2  0  0  0  0
 14 15  1  0  0  0  0
 15 16  1  0  0  0  0
 16 17  1  0  0  0  0
 17 18  2  0  0  0  0
 18 19  1  0  0  0  0
 19 20  2  0  0  0  0
 20 21  1  0  0  0  0
 21 22  2  0  0  0  0
 22 23  1  0  0  0  0
 23 24  1  0  0  0  0
 24 25  1  0  0  0  0
 25 26  2  0  0  0  0
 26 27  1  0  0  0  0
 27 28  2  0  0  0  0
 28 29  1  0  0  0  0
 29 30  2  0  0  0  0
 30 31  1  0  0  0  0
  6  1  1  0  0  0  0
 15  7  2  0  0  0  0
 31 16  1  0  0  0  0
 16  4  1  0  0  0  0
 22 17  1  0  0  0  0
 31 23  2  0  0  0  0
 14  9  1  0  0  0  0
 30 25  1  0  0  0  0
  1 32  1  0  0  0  0
  2 33  1  0  0  0  0
  3 34  1  0  0  0  0
  6 35  1  0  0  0  0
 10 36  1  0  0  0  0
 11 37  1  0  0  0  0
 12 38  1  0  0  0  0
 13 39  1  0  0  0  0
 18 40  1  0  0  0  0
 19 41  1  0  0  0  0
 20 42  1  0  0  0  0
 21 43  1  0  0  0  0
 26 44  1  0  0  0  0
 27 45  1  0  0  0  0
 28 46  1  0  0  0  0
 29 47  1  0  0  0  0
M  END
