
  xtb     03022213193D
 energy: -45.964931947087 gnorm: 0.000226065771 xtb: 6.4.1 (afa7bdf)
 31 34  0     0  0            999 V2000
    4.7730    0.0725    0.0201 N   0  0  0  0  0  0  0  0  0  0  0  0
    3.4884    0.7247    0.1672 C   0  0  0  0  0  0  0  0  0  0  0  0
    2.2447   -0.1199   -0.0421 C   0  0  0  0  0  0  0  0  0  0  0  0
    2.3475   -1.4605   -0.3822 C   0  0  0  0  0  0  0  0  0  0  0  0
    1.2314   -2.2507   -0.5777 C   0  0  0  0  0  0  0  0  0  0  0  0
   -0.0482   -1.7198   -0.4374 C   0  0  0  0  0  0  0  0  0  0  0  0
   -1.2203   -2.5083   -0.6315 C   0  0  0  0  0  0  0  0  0  0  0  0
   -2.4550   -1.9758   -0.4911 C   0  0  0  0  0  0  0  0  0  0  0  0
   -2.6292   -0.6038   -0.1431 C   0  0  0  0  0  0  0  0  0  0  0  0
   -3.8939   -0.0339    0.0070 C   0  0  0  0  0  0  0  0  0  0  0  0
   -4.0342    1.2998    0.3453 C   0  0  0  0  0  0  0  0  0  0  0  0
   -2.9206    2.0947    0.5412 C   0  0  0  0  0  0  0  0  0  0  0  0
   -1.6361    1.5664    0.4013 C   0  0  0  0  0  0  0  0  0  0  0  0
   -0.4648    2.3527    0.5938 C   0  0  0  0  0  0  0  0  0  0  0  0
    0.7732    1.8240    0.4540 C   0  0  0  0  0  0  0  0  0  0  0  0
    0.9676    0.4524    0.1075 C   0  0  0  0  0  0  0  0  0  0  0  0
   -0.1842   -0.3521   -0.0907 C   0  0  0  0  0  0  0  0  0  0  0  0
   -1.4801    0.2023    0.0555 C   0  0  0  0  0  0  0  0  0  0  0  0
    4.8652   -0.6910    0.6814 H   0  0  0  0  0  0  0  0  0  0  0  0
    4.8810   -0.3020   -0.9162 H   0  0  0  0  0  0  0  0  0  0  0  0
    3.4713    1.5590   -0.5431 H   0  0  0  0  0  0  0  0  0  0  0  0
    3.4612    1.1481    1.1776 H   0  0  0  0  0  0  0  0  0  0  0  0
    3.3232   -1.9121   -0.5007 H   0  0  0  0  0  0  0  0  0  0  0  0
    1.3484   -3.2921   -0.8422 H   0  0  0  0  0  0  0  0  0  0  0  0
   -1.0925   -3.5488   -0.8954 H   0  0  0  0  0  0  0  0  0  0  0  0
   -3.3391   -2.5797   -0.6399 H   0  0  0  0  0  0  0  0  0  0  0  0
   -4.7693   -0.6493   -0.1448 H   0  0  0  0  0  0  0  0  0  0  0  0
   -5.0220    1.7231    0.4572 H   0  0  0  0  0  0  0  0  0  0  0  0
   -3.0357    3.1363    0.8054 H   0  0  0  0  0  0  0  0  0  0  0  0
   -0.5889    3.3939    0.8571 H   0  0  0  0  0  0  0  0  0  0  0  0
    1.6382    2.4502    0.6067 H   0  0  0  0  0  0  0  0  0  0  0  0
  1  2  1  0  0  0  0
  2  3  1  0  0  0  0
  3  4  2  0  0  0  0
  4  5  1  0  0  0  0
  5  6  2  0  0  0  0
  6  7  1  0  0  0  0
  7  8  2  0  0  0  0
  8  9  1  0  0  0  0
  9 10  2  0  0  0  0
 10 11  1  0  0  0  0
 11 12  2  0  0  0  0
 12 13  1  0  0  0  0
 13 14  2  0  0  0  0
 14 15  1  0  0  0  0
 15 16  2  0  0  0  0
 16 17  1  0  0  0  0
 17 18  2  0  0  0  0
 16  3  1  0  0  0  0
 17  6  1  0  0  0  0
 18  9  1  0  0  0  0
 18 13  1  0  0  0  0
  1 19  1  0  0  0  0
  1 20  1  0  0  0  0
  2 21  1  0  0  0  0
  2 22  1  0  0  0  0
  4 23  1  0  0  0  0
  5 24  1  0  0  0  0
  7 25  1  0  0  0  0
  8 26  1  0  0  0  0
 10 27  1  0  0  0  0
 11 28  1  0  0  0  0
 12 29  1  0  0  0  0
 14 30  1  0  0  0  0
 15 31  1  0  0  0  0
M  END
