
  xtb     03022212223D
 energy: -86.349829350591 gnorm: 0.000313276824 xtb: 6.4.1 (afa7bdf)
 50 54  0     0  0            999 V2000
    6.5036   -0.0290    0.9262 N   0  0  0  0  0  0  0  0  0  0  0  0
    5.8481    0.8455    1.2769 C   0  0  0  0  0  0  0  0  0  0  0  0
    5.1230    1.9583    1.7546 C   0  0  0  0  0  0  0  0  0  0  0  0
    5.9377    2.8775    2.4608 C   0  0  0  0  0  0  0  0  0  0  0  0
    6.5946    3.6234    3.0313 N   0  0  0  0  0  0  0  0  0  0  0  0
    3.7955    2.2132    1.6158 C   0  0  0  0  0  0  0  0  0  0  0  0
    2.7832    1.4393    0.9522 C   0  0  0  0  0  0  0  0  0  0  0  0
    3.0573    0.2394    0.2630 C   0  0  0  0  0  0  0  0  0  0  0  0
    2.0689   -0.4869   -0.3593 C   0  0  0  0  0  0  0  0  0  0  0  0
    0.7644   -0.0107   -0.2897 C   0  0  0  0  0  0  0  0  0  0  0  0
    0.4650    1.2012    0.3802 C   0  0  0  0  0  0  0  0  0  0  0  0
    1.4683    1.9202    0.9979 C   0  0  0  0  0  0  0  0  0  0  0  0
   -0.9518    1.4051    0.2281 C   0  0  0  0  0  0  0  0  0  0  0  0
   -1.8166    2.3886    0.6628 C   0  0  0  0  0  0  0  0  0  0  0  0
   -3.1754    2.2869    0.3454 C   0  0  0  0  0  0  0  0  0  0  0  0
   -4.1536    3.2558    0.7523 C   0  0  0  0  0  0  0  0  0  0  0  0
   -3.9882    4.3853    1.4908 C   0  0  0  0  0  0  0  0  0  0  0  0
   -5.1127    5.1977    1.7756 C   0  0  0  0  0  0  0  0  0  0  0  0
   -6.0297    5.8481    1.9985 N   0  0  0  0  0  0  0  0  0  0  0  0
   -2.7907    4.8849    2.0454 C   0  0  0  0  0  0  0  0  0  0  0  0
   -1.8539    5.3457    2.5226 N   0  0  0  0  0  0  0  0  0  0  0  0
   -3.6282    1.1796   -0.4063 C   0  0  0  0  0  0  0  0  0  0  0  0
   -2.7800    0.1907   -0.8448 C   0  0  0  0  0  0  0  0  0  0  0  0
   -1.4303    0.3076   -0.5310 C   0  0  0  0  0  0  0  0  0  0  0  0
   -0.3885   -0.5348   -0.8228 N   0  0  0  0  0  0  0  0  0  0  0  0
   -0.4812   -1.7148   -1.5928 C   0  0  0  0  0  0  0  0  0  0  0  0
   -0.9145   -1.6331   -2.8926 C   0  0  0  0  0  0  0  0  0  0  0  0
   -0.9988   -2.7845   -3.6859 C   0  0  0  0  0  0  0  0  0  0  0  0
   -0.6392   -3.9996   -3.1744 C   0  0  0  0  0  0  0  0  0  0  0  0
   -0.2030   -4.1216   -1.8386 C   0  0  0  0  0  0  0  0  0  0  0  0
    0.1568   -5.3701   -1.2887 C   0  0  0  0  0  0  0  0  0  0  0  0
    0.5501   -5.4744    0.0156 C   0  0  0  0  0  0  0  0  0  0  0  0
    0.5884   -4.3355    0.8341 C   0  0  0  0  0  0  0  0  0  0  0  0
    0.2542   -3.1086    0.3325 C   0  0  0  0  0  0  0  0  0  0  0  0
   -0.1329   -2.9647   -1.0168 C   0  0  0  0  0  0  0  0  0  0  0  0
    3.4436    3.1308    2.0747 H   0  0  0  0  0  0  0  0  0  0  0  0
    4.0714   -0.1211    0.2160 H   0  0  0  0  0  0  0  0  0  0  0  0
    2.3007   -1.4004   -0.8845 H   0  0  0  0  0  0  0  0  0  0  0  0
    1.2409    2.8429    1.5108 H   0  0  0  0  0  0  0  0  0  0  0  0
   -1.4425    3.2182    1.2387 H   0  0  0  0  0  0  0  0  0  0  0  0
   -5.1679    3.0541    0.4254 H   0  0  0  0  0  0  0  0  0  0  0  0
   -4.6806    1.1098   -0.6394 H   0  0  0  0  0  0  0  0  0  0  0  0
   -3.1483   -0.6518   -1.4100 H   0  0  0  0  0  0  0  0  0  0  0  0
   -1.1776   -0.6711   -3.3080 H   0  0  0  0  0  0  0  0  0  0  0  0
   -1.3384   -2.6962   -4.7065 H   0  0  0  0  0  0  0  0  0  0  0  0
   -0.6885   -4.8887   -3.7852 H   0  0  0  0  0  0  0  0  0  0  0  0
    0.1112   -6.2442   -1.9217 H   0  0  0  0  0  0  0  0  0  0  0  0
    0.8251   -6.4333    0.4283 H   0  0  0  0  0  0  0  0  0  0  0  0
    0.8829   -4.4342    1.8680 H   0  0  0  0  0  0  0  0  0  0  0  0
    0.2779   -2.2406    0.9747 H   0  0  0  0  0  0  0  0  0  0  0  0
  1  2  3  0  0  0  0
  2  3  1  0  0  0  0
  3  4  1  0  0  0  0
  4  5  3  0  0  0  0
  3  6  2  0  0  0  0
  6  7  1  0  0  0  0
  7  8  2  0  0  0  0
  8  9  1  0  0  0  0
  9 10  2  0  0  0  0
 10 11  1  0  0  0  0
 11 12  2  0  0  0  0
 11 13  1  0  0  0  0
 13 14  2  0  0  0  0
 14 15  1  0  0  0  0
 15 16  1  0  0  0  0
 16 17  2  0  0  0  0
 17 18  1  0  0  0  0
 18 19  3  0  0  0  0
 17 20  1  0  0  0  0
 20 21  3  0  0  0  0
 15 22  2  0  0  0  0
 22 23  1  0  0  0  0
 23 24  2  0  0  0  0
 24 25  1  0  0  0  0
 25 26  1  0  0  0  0
 26 27  2  0  0  0  0
 27 28  1  0  0  0  0
 28 29  2  0  0  0  0
 29 30  1  0  0  0  0
 30 31  2  0  0  0  0
 31 32  1  0  0  0  0
 32 33  2  0  0  0  0
 33 34  1  0  0  0  0
 34 35  2  0  0  0  0
 12  7  1  0  0  0  0
 24 13  1  0  0  0  0
 35 26  1  0  0  0  0
 25 10  1  0  0  0  0
 35 30  1  0  0  0  0
  6 36  1  0  0  0  0
  8 37  1  0  0  0  0
  9 38  1  0  0  0  0
 12 39  1  0  0  0  0
 14 40  1  0  0  0  0
 16 41  1  0  0  0  0
 22 42  1  0  0  0  0
 23 43  1  0  0  0  0
 27 44  1  0  0  0  0
 28 45  1  0  0  0  0
 29 46  1  0  0  0  0
 31 47  1  0  0  0  0
 32 48  1  0  0  0  0
 33 49  1  0  0  0  0
 34 50  1  0  0  0  0
M  END
