
  xtb     03022214543D
 energy: -58.187270776161 gnorm: 0.000357296039 xtb: 6.4.1 (afa7bdf)
 32 33  0     0  0            999 V2000
   -4.8201   -1.5202   -2.0485 C   0  0  0  0  0  0  0  0  0  0  0  0
   -4.4973   -0.0349   -2.1191 C   0  0  0  0  0  0  0  0  0  0  0  0
   -3.4344    0.2998   -1.2251 O   0  0  0  0  0  0  0  0  0  0  0  0
   -2.2042    0.3497   -1.7483 C   0  0  0  0  0  0  0  0  0  0  0  0
   -1.9281    0.1708   -2.9074 O   0  0  0  0  0  0  0  0  0  0  0  0
   -1.3036    0.7802   -0.8135 N   0  0  0  0  0  0  0  0  0  0  0  0
   -0.3242    0.1659   -0.2936 C   0  0  0  0  0  0  0  0  0  0  0  0
    0.5297    0.9194    0.4238 O   0  0  0  0  0  0  0  0  0  0  0  0
    1.6156    0.3848    1.0287 C   0  0  0  0  0  0  0  0  0  0  0  0
    2.4468    1.2686    1.7518 C   0  0  0  0  0  0  0  0  0  0  0  0
    2.0564    2.5601    1.7695 O   0  0  0  0  0  0  0  0  0  0  0  0
    2.8419    3.4958    2.4705 C   0  0  0  0  0  0  0  0  0  0  0  0
    3.5746    0.7514    2.3719 C   0  0  0  0  0  0  0  0  0  0  0  0
    3.8813   -0.6048    2.2874 C   0  0  0  0  0  0  0  0  0  0  0  0
    3.0735   -1.4684    1.5902 C   0  0  0  0  0  0  0  0  0  0  0  0
    1.9259   -0.9793    0.9513 C   0  0  0  0  0  0  0  0  0  0  0  0
    1.0225   -1.8144    0.2243 C   0  0  0  0  0  0  0  0  0  0  0  0
   -0.0725   -1.2764   -0.3699 C   0  0  0  0  0  0  0  0  0  0  0  0
   -1.0033   -2.0983   -1.0416 C   0  0  0  0  0  0  0  0  0  0  0  0
   -1.7437   -2.8177   -1.5394 N   0  0  0  0  0  0  0  0  0  0  0  0
   -3.9476   -2.1035   -2.3326 H   0  0  0  0  0  0  0  0  0  0  0  0
   -5.1075   -1.7948   -1.0365 H   0  0  0  0  0  0  0  0  0  0  0  0
   -5.6379   -1.7481   -2.7262 H   0  0  0  0  0  0  0  0  0  0  0  0
   -4.2027    0.2448   -3.1356 H   0  0  0  0  0  0  0  0  0  0  0  0
   -5.3489    0.5703   -1.7978 H   0  0  0  0  0  0  0  0  0  0  0  0
    2.8968    3.2547    3.5367 H   0  0  0  0  0  0  0  0  0  0  0  0
    3.8530    3.5611    2.0569 H   0  0  0  0  0  0  0  0  0  0  0  0
    2.3374    4.4515    2.3423 H   0  0  0  0  0  0  0  0  0  0  0  0
    4.2311    1.3994    2.9293 H   0  0  0  0  0  0  0  0  0  0  0  0
    4.7673   -0.9719    2.7815 H   0  0  0  0  0  0  0  0  0  0  0  0
    3.3044   -2.5197    1.5237 H   0  0  0  0  0  0  0  0  0  0  0  0
    1.2183   -2.8759    0.1658 H   0  0  0  0  0  0  0  0  0  0  0  0
  1  2  1  0  0  0  0
  2  3  1  0  0  0  0
  3  4  1  0  0  0  0
  4  5  2  0  0  0  0
  4  6  1  0  0  0  0
  6  7  2  0  0  0  0
  7  8  1  0  0  0  0
  8  9  1  0  0  0  0
  9 10  2  0  0  0  0
 10 11  1  0  0  0  0
 11 12  1  0  0  0  0
 10 13  1  0  0  0  0
 13 14  2  0  0  0  0
 14 15  1  0  0  0  0
 15 16  2  0  0  0  0
 16 17  1  0  0  0  0
 17 18  2  0  0  0  0
 18 19  1  0  0  0  0
 19 20  3  0  0  0  0
 18  7  1  0  0  0  0
 16  9  1  0  0  0  0
  1 21  1  0  0  0  0
  1 22  1  0  0  0  0
  1 23  1  0  0  0  0
  2 24  1  0  0  0  0
  2 25  1  0  0  0  0
 12 26  1  0  0  0  0
 12 27  1  0  0  0  0
 12 28  1  0  0  0  0
 13 29  1  0  0  0  0
 14 30  1  0  0  0  0
 15 31  1  0  0  0  0
 17 32  1  0  0  0  0
M  END
