
  xtb     03022213293D
 energy: -125.233581166513 gnorm: 0.000105042963 xtb: 6.4.1 (afa7bdf)
 77 84  0     0  0            999 V2000
   -0.5849    3.7870    1.3290 C   0  0  0  0  0  0  0  0  0  0  0  0
    0.0102    3.8409   -0.0841 C   0  0  0  0  0  0  0  0  0  0  0  0
   -0.4725    5.1064   -0.8113 C   0  0  0  0  0  0  0  0  0  0  0  0
   -0.3095    2.6587   -0.9946 C   0  0  0  0  0  0  0  0  0  0  0  0
    0.3818    2.4247   -1.9617 O   0  0  0  0  0  0  0  0  0  0  0  0
   -1.4829    1.7979   -0.6843 C   0  0  0  0  0  0  0  0  0  0  0  0
   -2.7518    2.2985   -0.4073 C   0  0  0  0  0  0  0  0  0  0  0  0
   -3.8047    1.4400   -0.1612 C   0  0  0  0  0  0  0  0  0  0  0  0
   -3.6105    0.0609   -0.1862 C   0  0  0  0  0  0  0  0  0  0  0  0
   -4.6820   -0.8106    0.0837 N   0  0  0  0  0  0  0  0  0  0  0  0
   -4.6282   -1.6910    1.1692 C   0  0  0  0  0  0  0  0  0  0  0  0
   -3.5475   -1.7334    2.0411 C   0  0  0  0  0  0  0  0  0  0  0  0
   -3.5284   -2.6182    3.1088 C   0  0  0  0  0  0  0  0  0  0  0  0
   -4.5932   -3.4671    3.3307 C   0  0  0  0  0  0  0  0  0  0  0  0
   -5.6952   -3.4129    2.4906 C   0  0  0  0  0  0  0  0  0  0  0  0
   -5.7205   -2.5302    1.4268 C   0  0  0  0  0  0  0  0  0  0  0  0
   -6.8621   -2.5096    0.6663 O   0  0  0  0  0  0  0  0  0  0  0  0
   -6.8996   -1.6430   -0.3971 C   0  0  0  0  0  0  0  0  0  0  0  0
   -8.0480   -1.6474   -1.1670 C   0  0  0  0  0  0  0  0  0  0  0  0
   -8.1480   -0.8265   -2.2803 C   0  0  0  0  0  0  0  0  0  0  0  0
   -7.0829   -0.0207   -2.6279 C   0  0  0  0  0  0  0  0  0  0  0  0
   -5.9302   -0.0107   -1.8573 C   0  0  0  0  0  0  0  0  0  0  0  0
   -5.8290   -0.7980   -0.7173 C   0  0  0  0  0  0  0  0  0  0  0  0
   -2.3493   -0.4454   -0.4930 C   0  0  0  0  0  0  0  0  0  0  0  0
   -1.3037    0.4161   -0.7510 C   0  0  0  0  0  0  0  0  0  0  0  0
    1.5414    3.9651    0.0877 C   0  0  0  0  0  0  0  0  0  0  0  0
    2.0599    5.0494    0.2165 O   0  0  0  0  0  0  0  0  0  0  0  0
    2.3412    2.7228    0.0971 C   0  0  0  0  0  0  0  0  0  0  0  0
    3.6635    2.8135   -0.3420 C   0  0  0  0  0  0  0  0  0  0  0  0
    4.4672    1.6963   -0.4080 C   0  0  0  0  0  0  0  0  0  0  0  0
    3.9691    0.4567   -0.0119 C   0  0  0  0  0  0  0  0  0  0  0  0
    4.7695   -0.6961   -0.0868 N   0  0  0  0  0  0  0  0  0  0  0  0
    5.9668   -0.7873    0.6306 C   0  0  0  0  0  0  0  0  0  0  0  0
    6.4067    0.2231    1.4767 C   0  0  0  0  0  0  0  0  0  0  0  0
    7.5978    0.0972    2.1751 C   0  0  0  0  0  0  0  0  0  0  0  0
    8.3631   -1.0444    2.0504 C   0  0  0  0  0  0  0  0  0  0  0  0
    7.9191   -2.0782    1.2399 C   0  0  0  0  0  0  0  0  0  0  0  0
    6.7301   -1.9593    0.5442 C   0  0  0  0  0  0  0  0  0  0  0  0
    6.3381   -3.0422   -0.2018 O   0  0  0  0  0  0  0  0  0  0  0  0
    5.1638   -2.9366   -0.9034 C   0  0  0  0  0  0  0  0  0  0  0  0
    4.7927   -4.0264   -1.6694 C   0  0  0  0  0  0  0  0  0  0  0  0
    3.6393   -3.9820   -2.4379 C   0  0  0  0  0  0  0  0  0  0  0  0
    2.8763   -2.8319   -2.4524 C   0  0  0  0  0  0  0  0  0  0  0  0
    3.2425   -1.7374   -1.6842 C   0  0  0  0  0  0  0  0  0  0  0  0
    4.3723   -1.7809   -0.8764 C   0  0  0  0  0  0  0  0  0  0  0  0
    2.6600    0.3653    0.4601 C   0  0  0  0  0  0  0  0  0  0  0  0
    1.8546    1.4825    0.5075 C   0  0  0  0  0  0  0  0  0  0  0  0
   -0.1313    4.5730    1.9306 H   0  0  0  0  0  0  0  0  0  0  0  0
   -0.3930    2.8339    1.8156 H   0  0  0  0  0  0  0  0  0  0  0  0
   -1.6579    3.9529    1.3145 H   0  0  0  0  0  0  0  0  0  0  0  0
   -0.0953    5.9828   -0.2892 H   0  0  0  0  0  0  0  0  0  0  0  0
   -1.5581    5.1502   -0.8439 H   0  0  0  0  0  0  0  0  0  0  0  0
   -0.0884    5.1194   -1.8291 H   0  0  0  0  0  0  0  0  0  0  0  0
   -2.9336    3.3615   -0.4145 H   0  0  0  0  0  0  0  0  0  0  0  0
   -4.7866    1.8335    0.0569 H   0  0  0  0  0  0  0  0  0  0  0  0
   -2.7152   -1.0635    1.8925 H   0  0  0  0  0  0  0  0  0  0  0  0
   -2.6723   -2.6320    3.7657 H   0  0  0  0  0  0  0  0  0  0  0  0
   -4.5812   -4.1612    4.1560 H   0  0  0  0  0  0  0  0  0  0  0  0
   -6.5539   -4.0456    2.6480 H   0  0  0  0  0  0  0  0  0  0  0  0
   -8.8516   -2.3065   -0.8800 H   0  0  0  0  0  0  0  0  0  0  0  0
   -9.0493   -0.8332   -2.8724 H   0  0  0  0  0  0  0  0  0  0  0  0
   -7.1352    0.6061   -3.5046 H   0  0  0  0  0  0  0  0  0  0  0  0
   -5.0986    0.6094   -2.1534 H   0  0  0  0  0  0  0  0  0  0  0  0
   -2.2020   -1.5140   -0.5433 H   0  0  0  0  0  0  0  0  0  0  0  0
   -0.3300    0.0278   -1.0107 H   0  0  0  0  0  0  0  0  0  0  0  0
    4.0354    3.7768   -0.6565 H   0  0  0  0  0  0  0  0  0  0  0  0
    5.4780    1.7698   -0.7806 H   0  0  0  0  0  0  0  0  0  0  0  0
    5.8103    1.1131    1.6008 H   0  0  0  0  0  0  0  0  0  0  0  0
    7.9167    0.9013    2.8201 H   0  0  0  0  0  0  0  0  0  0  0  0
    9.2936   -1.1447    2.5865 H   0  0  0  0  0  0  0  0  0  0  0  0
    8.4795   -2.9938    1.1385 H   0  0  0  0  0  0  0  0  0  0  0  0
    5.4258   -4.8991   -1.6549 H   0  0  0  0  0  0  0  0  0  0  0  0
    3.3557   -4.8382   -3.0292 H   0  0  0  0  0  0  0  0  0  0  0  0
    1.9912   -2.7709   -3.0667 H   0  0  0  0  0  0  0  0  0  0  0  0
    2.6510   -0.8363   -1.7271 H   0  0  0  0  0  0  0  0  0  0  0  0
    2.2834   -0.5920    0.7905 H   0  0  0  0  0  0  0  0  0  0  0  0
    0.8507    1.3832    0.8897 H   0  0  0  0  0  0  0  0  0  0  0  0
  1  2  1  0  0  0  0
  2  3  1  0  0  0  0
  2  4  1  0  0  0  0
  4  5  2  0  0  0  0
  4  6  1  0  0  0  0
  6  7  2  0  0  0  0
  7  8  1  0  0  0  0
  8  9  2  0  0  0  0
  9 10  1  0  0  0  0
 10 11  1  0  0  0  0
 11 12  2  0  0  0  0
 12 13  1  0  0  0  0
 13 14  2  0  0  0  0
 14 15  1  0  0  0  0
 15 16  2  0  0  0  0
 16 17  1  0  0  0  0
 17 18  1  0  0  0  0
 18 19  2  0  0  0  0
 19 20  1  0  0  0  0
 20 21  2  0  0  0  0
 21 22  1  0  0  0  0
 22 23  2  0  0  0  0
  9 24  1  0  0  0  0
 24 25  2  0  0  0  0
  2 26  1  0  0  0  0
 26 27  2  0  0  0  0
 26 28  1  0  0  0  0
 28 29  2  0  0  0  0
 29 30  1  0  0  0  0
 30 31  2  0  0  0  0
 31 32  1  0  0  0  0
 32 33  1  0  0  0  0
 33 34  2  0  0  0  0
 34 35  1  0  0  0  0
 35 36  2  0  0  0  0
 36 37  1  0  0  0  0
 37 38  2  0  0  0  0
 38 39  1  0  0  0  0
 39 40  1  0  0  0  0
 40 41  2  0  0  0  0
 41 42  1  0  0  0  0
 42 43  2  0  0  0  0
 43 44  1  0  0  0  0
 44 45  2  0  0  0  0
 31 46  1  0  0  0  0
 46 47  2  0  0  0  0
 25  6  1  0  0  0  0
 47 28  1  0  0  0  0
 23 10  1  0  0  0  0
 45 32  1  0  0  0  0
 16 11  1  0  0  0  0
 23 18  1  0  0  0  0
 38 33  1  0  0  0  0
 45 40  1  0  0  0  0
  1 48  1  0  0  0  0
  1 49  1  0  0  0  0
  1 50  1  0  0  0  0
  3 51  1  0  0  0  0
  3 52  1  0  0  0  0
  3 53  1  0  0  0  0
  7 54  1  0  0  0  0
  8 55  1  0  0  0  0
 12 56  1  0  0  0  0
 13 57  1  0  0  0  0
 14 58  1  0  0  0  0
 15 59  1  0  0  0  0
 19 60  1  0  0  0  0
 20 61  1  0  0  0  0
 21 62  1  0  0  0  0
 22 63  1  0  0  0  0
 24 64  1  0  0  0  0
 25 65  1  0  0  0  0
 29 66  1  0  0  0  0
 30 67  1  0  0  0  0
 34 68  1  0  0  0  0
 35 69  1  0  0  0  0
 36 70  1  0  0  0  0
 37 71  1  0  0  0  0
 41 72  1  0  0  0  0
 42 73  1  0  0  0  0
 43 74  1  0  0  0  0
 44 75  1  0  0  0  0
 46 76  1  0  0  0  0
 47 77  1  0  0  0  0
M  END
