
  xtb     03022212013D
 energy: -57.709312305837 gnorm: 0.000082821810 xtb: 6.4.1 (afa7bdf)
 38 42  0     0  0            999 V2000
    4.2766   -0.4431    1.3455 C   0  0  0  0  0  0  0  0  0  0  0  0
    3.0237   -0.7169    1.9144 C   0  0  0  0  0  0  0  0  0  0  0  0
    1.8745   -0.4255    1.2340 C   0  0  0  0  0  0  0  0  0  0  0  0
    1.9259    0.1568   -0.0501 C   0  0  0  0  0  0  0  0  0  0  0  0
    0.7599    0.4768   -0.7966 C   0  0  0  0  0  0  0  0  0  0  0  0
   -0.5117    0.1496   -0.2943 N   0  0  0  0  0  0  0  0  0  0  0  0
   -1.5345    1.0449   -0.0643 C   0  0  0  0  0  0  0  0  0  0  0  0
   -1.5292    2.4286   -0.1627 C   0  0  0  0  0  0  0  0  0  0  0  0
   -2.6932    3.1001    0.1575 C   0  0  0  0  0  0  0  0  0  0  0  0
   -3.8356    2.4179    0.5718 C   0  0  0  0  0  0  0  0  0  0  0  0
   -3.8416    1.0420    0.6843 C   0  0  0  0  0  0  0  0  0  0  0  0
   -2.6840    0.3434    0.3669 C   0  0  0  0  0  0  0  0  0  0  0  0
   -2.3315   -1.0488    0.3734 C   0  0  0  0  0  0  0  0  0  0  0  0
   -3.0269   -2.2127    0.6747 C   0  0  0  0  0  0  0  0  0  0  0  0
   -2.3761   -3.4236    0.5490 C   0  0  0  0  0  0  0  0  0  0  0  0
   -1.0514   -3.4860    0.1206 C   0  0  0  0  0  0  0  0  0  0  0  0
   -0.3375   -2.3435   -0.1844 C   0  0  0  0  0  0  0  0  0  0  0  0
   -0.9825   -1.1229   -0.0440 C   0  0  0  0  0  0  0  0  0  0  0  0
    0.8623    1.1157   -2.0087 C   0  0  0  0  0  0  0  0  0  0  0  0
    2.1163    1.4357   -2.5431 C   0  0  0  0  0  0  0  0  0  0  0  0
    3.2580    1.1057   -1.8683 C   0  0  0  0  0  0  0  0  0  0  0  0
    3.1928    0.4671   -0.6124 C   0  0  0  0  0  0  0  0  0  0  0  0
    4.3581    0.1405    0.1130 C   0  0  0  0  0  0  0  0  0  0  0  0
    5.1740   -0.6881    1.8944 H   0  0  0  0  0  0  0  0  0  0  0  0
    2.9726   -1.1587    2.8985 H   0  0  0  0  0  0  0  0  0  0  0  0
    0.9141   -0.6320    1.6820 H   0  0  0  0  0  0  0  0  0  0  0  0
   -0.6428    2.9613   -0.4742 H   0  0  0  0  0  0  0  0  0  0  0  0
   -2.7181    4.1777    0.0876 H   0  0  0  0  0  0  0  0  0  0  0  0
   -4.7262    2.9795    0.8123 H   0  0  0  0  0  0  0  0  0  0  0  0
   -4.7247    0.5158    1.0142 H   0  0  0  0  0  0  0  0  0  0  0  0
   -4.0566   -2.1663    0.9960 H   0  0  0  0  0  0  0  0  0  0  0  0
   -2.8993   -4.3400    0.7786 H   0  0  0  0  0  0  0  0  0  0  0  0
   -0.5730   -4.4494    0.0222 H   0  0  0  0  0  0  0  0  0  0  0  0
    0.6872   -2.3975   -0.5209 H   0  0  0  0  0  0  0  0  0  0  0  0
   -0.0359    1.3589   -2.5575 H   0  0  0  0  0  0  0  0  0  0  0  0
    2.1690    1.9327   -3.5003 H   0  0  0  0  0  0  0  0  0  0  0  0
    4.2286    1.3363   -2.2827 H   0  0  0  0  0  0  0  0  0  0  0  0
    5.3191    0.3678   -0.3261 H   0  0  0  0  0  0  0  0  0  0  0  0
  1  2  2  0  0  0  0
  2  3  1  0  0  0  0
  3  4  2  0  0  0  0
  4  5  1  0  0  0  0
  5  6  1  0  0  0  0
  6  7  1  0  0  0  0
  7  8  2  0  0  0  0
  8  9  1  0  0  0  0
  9 10  2  0  0  0  0
 10 11  1  0  0  0  0
 11 12  2  0  0  0  0
 12 13  1  0  0  0  0
 13 14  2  0  0  0  0
 14 15  1  0  0  0  0
 15 16  2  0  0  0  0
 16 17  1  0  0  0  0
 17 18  2  0  0  0  0
  5 19  2  0  0  0  0
 19 20  1  0  0  0  0
 20 21  2  0  0  0  0
 21 22  1  0  0  0  0
 22 23  2  0  0  0  0
 23  1  1  0  0  0  0
 22  4  1  0  0  0  0
 18  6  1  0  0  0  0
 12  7  1  0  0  0  0
 18 13  1  0  0  0  0
  1 24  1  0  0  0  0
  2 25  1  0  0  0  0
  3 26  1  0  0  0  0
  8 27  1  0  0  0  0
  9 28  1  0  0  0  0
 10 29  1  0  0  0  0
 11 30  1  0  0  0  0
 14 31  1  0  0  0  0
 15 32  1  0  0  0  0
 16 33  1  0  0  0  0
 17 34  1  0  0  0  0
 19 35  1  0  0  0  0
 20 36  1  0  0  0  0
 21 37  1  0  0  0  0
 23 38  1  0  0  0  0
M  END
