
  xtb     03022213313D
 energy: -97.667505329993 gnorm: 0.000077934510 xtb: 6.4.1 (afa7bdf)
 50 57  0     0  0            999 V2000
    7.5087   -2.1220    0.3034 O   0  0  0  0  0  0  0  0  0  0  0  0
    6.8247   -1.1244    0.2472 C   0  0  0  0  0  0  0  0  0  0  0  0
    7.4056    0.1269    0.2084 N   0  0  0  0  0  0  0  0  0  0  0  0
    6.7839    1.3576    0.1485 C   0  0  0  0  0  0  0  0  0  0  0  0
    7.4349    2.3782    0.1158 O   0  0  0  0  0  0  0  0  0  0  0  0
    5.3125    1.3140    0.1297 C   0  0  0  0  0  0  0  0  0  0  0  0
    4.5967    2.4935    0.0757 C   0  0  0  0  0  0  0  0  0  0  0  0
    3.2101    2.4757    0.0790 C   0  0  0  0  0  0  0  0  0  0  0  0
    2.4950    1.2844    0.1245 C   0  0  0  0  0  0  0  0  0  0  0  0
    1.0415    1.2578    0.1624 C   0  0  0  0  0  0  0  0  0  0  0  0
    0.2812    2.4169    0.2723 C   0  0  0  0  0  0  0  0  0  0  0  0
   -1.1054    2.3831    0.2777 C   0  0  0  0  0  0  0  0  0  0  0  0
   -1.7771    1.1821    0.1584 C   0  0  0  0  0  0  0  0  0  0  0  0
   -1.0463   -0.0179    0.0599 C   0  0  0  0  0  0  0  0  0  0  0  0
   -1.7317   -1.2422   -0.0633 C   0  0  0  0  0  0  0  0  0  0  0  0
   -1.0154   -2.4194   -0.1584 C   0  0  0  0  0  0  0  0  0  0  0  0
    0.3704   -2.4057   -0.1045 C   0  0  0  0  0  0  0  0  0  0  0  0
    1.0862   -1.2213    0.0313 C   0  0  0  0  0  0  0  0  0  0  0  0
    2.5376   -1.1981    0.1202 C   0  0  0  0  0  0  0  0  0  0  0  0
    3.2911   -2.3642    0.1915 C   0  0  0  0  0  0  0  0  0  0  0  0
    4.6765   -2.3345    0.2435 C   0  0  0  0  0  0  0  0  0  0  0  0
    5.3529   -1.1312    0.2141 C   0  0  0  0  0  0  0  0  0  0  0  0
    4.6295    0.0794    0.1595 C   0  0  0  0  0  0  0  0  0  0  0  0
    3.2093    0.0550    0.1345 C   0  0  0  0  0  0  0  0  0  0  0  0
    0.3727    0.0064    0.0848 C   0  0  0  0  0  0  0  0  0  0  0  0
   -3.2018   -1.2878   -0.1068 C   0  0  0  0  0  0  0  0  0  0  0  0
   -3.8236   -2.3188   -0.2460 O   0  0  0  0  0  0  0  0  0  0  0  0
   -3.8554   -0.0661    0.0110 N   0  0  0  0  0  0  0  0  0  0  0  0
   -5.2868   -0.0907   -0.0137 C   0  0  0  0  0  0  0  0  0  0  0  0
   -5.9704    0.6004   -1.0030 C   0  0  0  0  0  0  0  0  0  0  0  0
   -7.3523    0.5828   -1.0250 C   0  0  0  0  0  0  0  0  0  0  0  0
   -8.0399   -0.1379   -0.0613 C   0  0  0  0  0  0  0  0  0  0  0  0
   -9.7652   -0.1675   -0.0910 Cl  0  0  0  0  0  0  0  0  0  0  0  0
   -7.3617   -0.8352    0.9261 C   0  0  0  0  0  0  0  0  0  0  0  0
   -5.9800   -0.8054    0.9518 C   0  0  0  0  0  0  0  0  0  0  0  0
   -3.2485    1.1772    0.1507 C   0  0  0  0  0  0  0  0  0  0  0  0
   -3.9098    2.1863    0.2674 O   0  0  0  0  0  0  0  0  0  0  0  0
    8.4213    0.1444    0.2264 H   0  0  0  0  0  0  0  0  0  0  0  0
    5.1386    3.4264    0.0391 H   0  0  0  0  0  0  0  0  0  0  0  0
    2.6946    3.4208    0.0393 H   0  0  0  0  0  0  0  0  0  0  0  0
    0.7603    3.3775    0.3635 H   0  0  0  0  0  0  0  0  0  0  0  0
   -1.6811    3.2919    0.3674 H   0  0  0  0  0  0  0  0  0  0  0  0
   -1.5561   -3.3473   -0.2677 H   0  0  0  0  0  0  0  0  0  0  0  0
    0.8851   -3.3492   -0.1784 H   0  0  0  0  0  0  0  0  0  0  0  0
    2.8072   -3.3265    0.2136 H   0  0  0  0  0  0  0  0  0  0  0  0
    5.2484   -3.2484    0.2998 H   0  0  0  0  0  0  0  0  0  0  0  0
   -5.4243    1.1568   -1.7486 H   0  0  0  0  0  0  0  0  0  0  0  0
   -7.8931    1.1214   -1.7869 H   0  0  0  0  0  0  0  0  0  0  0  0
   -7.9096   -1.3925    1.6691 H   0  0  0  0  0  0  0  0  0  0  0  0
   -5.4412   -1.3431    1.7161 H   0  0  0  0  0  0  0  0  0  0  0  0
  1  2  2  0  0  0  0
  2  3  1  0  0  0  0
  3  4  1  0  0  0  0
  4  5  2  0  0  0  0
  4  6  1  0  0  0  0
  6  7  2  0  0  0  0
  7  8  1  0  0  0  0
  8  9  2  0  0  0  0
  9 10  1  0  0  0  0
 10 11  2  0  0  0  0
 11 12  1  0  0  0  0
 12 13  2  0  0  0  0
 13 14  1  0  0  0  0
 14 15  1  0  0  0  0
 15 16  2  0  0  0  0
 16 17  1  0  0  0  0
 17 18  2  0  0  0  0
 18 19  1  0  0  0  0
 19 20  2  0  0  0  0
 20 21  1  0  0  0  0
 21 22  2  0  0  0  0
 22 23  1  0  0  0  0
 23 24  2  0  0  0  0
 18 25  1  0  0  0  0
 15 26  1  0  0  0  0
 26 27  2  0  0  0  0
 26 28  1  0  0  0  0
 28 29  1  0  0  0  0
 29 30  2  0  0  0  0
 30 31  1  0  0  0  0
 31 32  2  0  0  0  0
 32 33  1  0  0  0  0
 32 34  1  0  0  0  0
 34 35  2  0  0  0  0
 28 36  1  0  0  0  0
 36 37  2  0  0  0  0
 22  2  1  0  0  0  0
 35 29  1  0  0  0  0
 23  6  1  0  0  0  0
 24  9  1  0  0  0  0
 25 10  1  0  0  0  0
 36 13  1  0  0  0  0
 25 14  2  0  0  0  0
 24 19  1  0  0  0  0
  3 38  1  0  0  0  0
  7 39  1  0  0  0  0
  8 40  1  0  0  0  0
 11 41  1  0  0  0  0
 12 42  1  0  0  0  0
 16 43  1  0  0  0  0
 17 44  1  0  0  0  0
 20 45  1  0  0  0  0
 21 46  1  0  0  0  0
 30 47  1  0  0  0  0
 31 48  1  0  0  0  0
 34 49  1  0  0  0  0
 35 50  1  0  0  0  0
M  END
