
  xtb     03022215153D
 energy: -65.437479538537 gnorm: 0.000059001637 xtb: 6.4.1 (afa7bdf)
 36 41  0     0  0            999 V2000
    2.3255   -3.2317   -0.9350 O   0  0  0  0  0  0  0  0  0  0  0  0
    1.2055   -2.8095   -0.7875 C   0  0  0  0  0  0  0  0  0  0  0  0
    0.0559   -3.5678   -0.9542 N   0  0  0  0  0  0  0  0  0  0  0  0
   -1.1167   -2.8615   -0.7292 C   0  0  0  0  0  0  0  0  0  0  0  0
   -2.2226   -3.3335   -0.8208 O   0  0  0  0  0  0  0  0  0  0  0  0
   -0.6756   -1.4982   -0.3789 C   0  0  0  0  0  0  0  0  0  0  0  0
    0.7220   -1.4669   -0.4140 C   0  0  0  0  0  0  0  0  0  0  0  0
    1.4178   -0.2940   -0.1225 C   0  0  0  0  0  0  0  0  0  0  0  0
    2.8029    0.0742   -0.0673 C   0  0  0  0  0  0  0  0  0  0  0  0
    3.9889   -0.6182   -0.2890 C   0  0  0  0  0  0  0  0  0  0  0  0
    5.1807    0.0628   -0.1443 C   0  0  0  0  0  0  0  0  0  0  0  0
    5.2080    1.4098    0.2144 C   0  0  0  0  0  0  0  0  0  0  0  0
    4.0430    2.1182    0.4398 C   0  0  0  0  0  0  0  0  0  0  0  0
    2.8431    1.4403    0.2961 C   0  0  0  0  0  0  0  0  0  0  0  0
    1.5570    1.8991    0.4586 N   0  0  0  0  0  0  0  0  0  0  0  0
    0.6804    0.8747    0.2123 C   0  0  0  0  0  0  0  0  0  0  0  0
   -0.7074    0.8436    0.2472 C   0  0  0  0  0  0  0  0  0  0  0  0
   -1.6154    1.8281    0.5382 N   0  0  0  0  0  0  0  0  0  0  0  0
   -2.8862    1.3120    0.4400 C   0  0  0  0  0  0  0  0  0  0  0  0
   -4.1065    1.9358    0.6444 C   0  0  0  0  0  0  0  0  0  0  0  0
   -5.2486    1.1757    0.4770 C   0  0  0  0  0  0  0  0  0  0  0  0
   -5.1790   -0.1691    0.1158 C   0  0  0  0  0  0  0  0  0  0  0  0
   -3.9668   -0.7963   -0.0893 C   0  0  0  0  0  0  0  0  0  0  0  0
   -2.8033   -0.0513    0.0734 C   0  0  0  0  0  0  0  0  0  0  0  0
   -1.4076   -0.3572   -0.0516 C   0  0  0  0  0  0  0  0  0  0  0  0
    0.0712   -4.5425   -1.2148 H   0  0  0  0  0  0  0  0  0  0  0  0
    3.9621   -1.6596   -0.5662 H   0  0  0  0  0  0  0  0  0  0  0  0
    6.1136   -0.4539   -0.3112 H   0  0  0  0  0  0  0  0  0  0  0  0
    6.1593    1.9104    0.3185 H   0  0  0  0  0  0  0  0  0  0  0  0
    4.0657    3.1617    0.7176 H   0  0  0  0  0  0  0  0  0  0  0  0
    1.3116    2.8389    0.7171 H   0  0  0  0  0  0  0  0  0  0  0  0
   -1.3996    2.7782    0.7851 H   0  0  0  0  0  0  0  0  0  0  0  0
   -4.1619    2.9775    0.9242 H   0  0  0  0  0  0  0  0  0  0  0  0
   -6.2148    1.6334    0.6292 H   0  0  0  0  0  0  0  0  0  0  0  0
   -6.0951   -0.7272   -0.0047 H   0  0  0  0  0  0  0  0  0  0  0  0
   -3.9073   -1.8357   -0.3686 H   0  0  0  0  0  0  0  0  0  0  0  0
  1  2  2  0  0  0  0
  2  3  1  0  0  0  0
  3  4  1  0  0  0  0
  4  5  2  0  0  0  0
  4  6  1  0  0  0  0
  6  7  2  0  0  0  0
  7  8  1  0  0  0  0
  8  9  1  0  0  0  0
  9 10  2  0  0  0  0
 10 11  1  0  0  0  0
 11 12  2  0  0  0  0
 12 13  1  0  0  0  0
 13 14  2  0  0  0  0
 14 15  1  0  0  0  0
 15 16  1  0  0  0  0
 16 17  1  0  0  0  0
 17 18  1  0  0  0  0
 18 19  1  0  0  0  0
 19 20  2  0  0  0  0
 20 21  1  0  0  0  0
 21 22  2  0  0  0  0
 22 23  1  0  0  0  0
 23 24  2  0  0  0  0
 24 25  1  0  0  0  0
  7  2  1  0  0  0  0
 16  8  2  0  0  0  0
 25 17  2  0  0  0  0
 25  6  1  0  0  0  0
 14  9  1  0  0  0  0
 24 19  1  0  0  0  0
  3 26  1  0  0  0  0
 10 27  1  0  0  0  0
 11 28  1  0  0  0  0
 12 29  1  0  0  0  0
 13 30  1  0  0  0  0
 15 31  1  0  0  0  0
 18 32  1  0  0  0  0
 20 33  1  0  0  0  0
 21 34  1  0  0  0  0
 22 35  1  0  0  0  0
 23 36  1  0  0  0  0
M  END
