
  xtb     03022214383D
 energy: -33.375994205214 gnorm: 0.000125247278 xtb: 6.4.1 (afa7bdf)
 19 19  0     0  0            999 V2000
   -2.7001   -1.1738   -0.0271 C   0  0  0  0  0  0  0  0  0  0  0  0
   -2.1651    0.1263   -0.0959 O   0  0  0  0  0  0  0  0  0  0  0  0
   -0.8175    0.2661   -0.0511 C   0  0  0  0  0  0  0  0  0  0  0  0
    0.0935   -0.7648    0.0644 C   0  0  0  0  0  0  0  0  0  0  0  0
    1.4703   -0.5116    0.1005 C   0  0  0  0  0  0  0  0  0  0  0  0
    2.3997   -1.6320    0.2237 C   0  0  0  0  0  0  0  0  0  0  0  0
    2.0895   -2.7958    0.3015 O   0  0  0  0  0  0  0  0  0  0  0  0
    1.9338    0.7964    0.0191 C   0  0  0  0  0  0  0  0  0  0  0  0
    1.0309    1.8365   -0.0959 C   0  0  0  0  0  0  0  0  0  0  0  0
   -0.3344    1.5935   -0.1320 C   0  0  0  0  0  0  0  0  0  0  0  0
   -1.2439    2.5874   -0.2436 O   0  0  0  0  0  0  0  0  0  0  0  0
   -2.4419   -1.6649    0.9163 H   0  0  0  0  0  0  0  0  0  0  0  0
   -3.7799   -1.0488   -0.0859 H   0  0  0  0  0  0  0  0  0  0  0  0
   -2.3597   -1.7925   -0.8634 H   0  0  0  0  0  0  0  0  0  0  0  0
   -0.2203   -1.7944    0.1306 H   0  0  0  0  0  0  0  0  0  0  0  0
    3.4654   -1.3261    0.2424 H   0  0  0  0  0  0  0  0  0  0  0  0
    2.9937    0.9989    0.0458 H   0  0  0  0  0  0  0  0  0  0  0  0
    1.3830    2.8576   -0.1595 H   0  0  0  0  0  0  0  0  0  0  0  0
   -0.7968    3.4421   -0.2899 H   0  0  0  0  0  0  0  0  0  0  0  0
  1  2  1  0  0  0  0
  2  3  1  0  0  0  0
  3  4  2  0  0  0  0
  4  5  1  0  0  0  0
  5  6  1  0  0  0  0
  6  7  2  0  0  0  0
  5  8  2  0  0  0  0
  8  9  1  0  0  0  0
  9 10  2  0  0  0  0
 10 11  1  0  0  0  0
 10  3  1  0  0  0  0
  1 12  1  0  0  0  0
  1 13  1  0  0  0  0
  1 14  1  0  0  0  0
  4 15  1  0  0  0  0
  6 16  1  0  0  0  0
  8 17  1  0  0  0  0
  9 18  1  0  0  0  0
 11 19  1  0  0  0  0
M  END
