
  xtb     03022213403D
 energy: -59.756273090950 gnorm: 0.000105394818 xtb: 6.4.1 (afa7bdf)
 40 42  0     0  0            999 V2000
    7.0617   -1.4018   -0.2878 C   0  0  0  0  0  0  0  0  0  0  0  0
    6.2558   -0.2347   -0.0301 N   0  0  0  0  0  0  0  0  0  0  0  0
    6.9135    1.0220    0.2271 C   0  0  0  0  0  0  0  0  0  0  0  0
    4.8918   -0.3191   -0.0288 C   0  0  0  0  0  0  0  0  0  0  0  0
    4.2324   -1.5503   -0.1839 C   0  0  0  0  0  0  0  0  0  0  0  0
    2.8608   -1.6252   -0.1813 C   0  0  0  0  0  0  0  0  0  0  0  0
    2.0537   -0.4904   -0.0245 C   0  0  0  0  0  0  0  0  0  0  0  0
    0.6244   -0.6352   -0.0290 C   0  0  0  0  0  0  0  0  0  0  0  0
   -0.3017    0.3390    0.1174 C   0  0  0  0  0  0  0  0  0  0  0  0
   -1.6984    0.0767    0.0973 C   0  0  0  0  0  0  0  0  0  0  0  0
   -2.6521    1.0235    0.2426 C   0  0  0  0  0  0  0  0  0  0  0  0
   -4.0429    0.7154    0.2171 C   0  0  0  0  0  0  0  0  0  0  0  0
   -4.5810   -0.4594    0.0570 N   0  0  0  0  0  0  0  0  0  0  0  0
   -5.9317   -0.2497    0.1053 C   0  0  0  0  0  0  0  0  0  0  0  0
   -7.0064   -1.1236   -0.0044 C   0  0  0  0  0  0  0  0  0  0  0  0
   -8.2732   -0.5843    0.0900 C   0  0  0  0  0  0  0  0  0  0  0  0
   -8.4794    0.7810    0.2875 C   0  0  0  0  0  0  0  0  0  0  0  0
   -7.4235    1.6685    0.3993 C   0  0  0  0  0  0  0  0  0  0  0  0
   -6.1553    1.1314    0.3051 C   0  0  0  0  0  0  0  0  0  0  0  0
   -4.9445    1.7350    0.3745 O   0  0  0  0  0  0  0  0  0  0  0  0
    2.7144    0.7351    0.1293 C   0  0  0  0  0  0  0  0  0  0  0  0
    4.0853    0.8220    0.1274 C   0  0  0  0  0  0  0  0  0  0  0  0
    6.7712   -1.8766   -1.2290 H   0  0  0  0  0  0  0  0  0  0  0  0
    8.1067   -1.1122   -0.3664 H   0  0  0  0  0  0  0  0  0  0  0  0
    6.9702   -2.1385    0.5178 H   0  0  0  0  0  0  0  0  0  0  0  0
    6.7322    1.7421   -0.5782 H   0  0  0  0  0  0  0  0  0  0  0  0
    6.5684    1.4576    1.1688 H   0  0  0  0  0  0  0  0  0  0  0  0
    7.9862    0.8618    0.3046 H   0  0  0  0  0  0  0  0  0  0  0  0
    4.7972   -2.4607   -0.3005 H   0  0  0  0  0  0  0  0  0  0  0  0
    2.3890   -2.5906   -0.3010 H   0  0  0  0  0  0  0  0  0  0  0  0
    0.2663   -1.6493   -0.1655 H   0  0  0  0  0  0  0  0  0  0  0  0
   -0.0026    1.3684    0.2579 H   0  0  0  0  0  0  0  0  0  0  0  0
   -2.0215   -0.9458   -0.0426 H   0  0  0  0  0  0  0  0  0  0  0  0
   -2.4015    2.0648    0.3863 H   0  0  0  0  0  0  0  0  0  0  0  0
   -6.8430   -2.1779   -0.1570 H   0  0  0  0  0  0  0  0  0  0  0  0
   -9.1324   -1.2338    0.0093 H   0  0  0  0  0  0  0  0  0  0  0  0
   -9.4898    1.1555    0.3549 H   0  0  0  0  0  0  0  0  0  0  0  0
   -7.5778    2.7248    0.5520 H   0  0  0  0  0  0  0  0  0  0  0  0
    2.1402    1.6409    0.2498 H   0  0  0  0  0  0  0  0  0  0  0  0
    4.5370    1.7938    0.2417 H   0  0  0  0  0  0  0  0  0  0  0  0
  1  2  1  0  0  0  0
  2  3  1  0  0  0  0
  2  4  1  0  0  0  0
  4  5  2  0  0  0  0
  5  6  1  0  0  0  0
  6  7  2  0  0  0  0
  7  8  1  0  0  0  0
  8  9  2  0  0  0  0
  9 10  1  0  0  0  0
 10 11  2  0  0  0  0
 11 12  1  0  0  0  0
 12 13  2  0  0  0  0
 13 14  1  0  0  0  0
 14 15  2  0  0  0  0
 15 16  1  0  0  0  0
 16 17  2  0  0  0  0
 17 18  1  0  0  0  0
 18 19  2  0  0  0  0
 19 20  1  0  0  0  0
  7 21  1  0  0  0  0
 21 22  2  0  0  0  0
 22  4  1  0  0  0  0
 20 12  1  0  0  0  0
 19 14  1  0  0  0  0
  1 23  1  0  0  0  0
  1 24  1  0  0  0  0
  1 25  1  0  0  0  0
  3 26  1  0  0  0  0
  3 27  1  0  0  0  0
  3 28  1  0  0  0  0
  5 29  1  0  0  0  0
  6 30  1  0  0  0  0
  8 31  1  0  0  0  0
  9 32  1  0  0  0  0
 10 33  1  0  0  0  0
 11 34  1  0  0  0  0
 15 35  1  0  0  0  0
 16 36  1  0  0  0  0
 17 37  1  0  0  0  0
 18 38  1  0  0  0  0
 21 39  1  0  0  0  0
 22 40  1  0  0  0  0
M  END
