
  xtb     03022212593D
 energy: -86.467979248087 gnorm: 0.000238028618 xtb: 6.4.1 (afa7bdf)
 54 59  0     0  0            999 V2000
   -5.6101    0.8282   -3.0015 N   0  0  0  0  0  0  0  0  0  0  0  0
   -4.5948    0.6897   -2.4884 C   0  0  0  0  0  0  0  0  0  0  0  0
   -3.3415    0.5197   -1.8547 C   0  0  0  0  0  0  0  0  0  0  0  0
   -2.7256   -0.7301   -1.8601 C   0  0  0  0  0  0  0  0  0  0  0  0
   -1.4910   -0.8996   -1.2503 C   0  0  0  0  0  0  0  0  0  0  0  0
   -0.8911   -2.2470   -1.1535 C   0  0  0  0  0  0  0  0  0  0  0  0
    0.3299   -2.5603   -1.7376 C   0  0  0  0  0  0  0  0  0  0  0  0
    0.8675   -3.8262   -1.5873 C   0  0  0  0  0  0  0  0  0  0  0  0
    0.1943   -4.7883   -0.8547 C   0  0  0  0  0  0  0  0  0  0  0  0
   -1.0286   -4.4852   -0.2800 C   0  0  0  0  0  0  0  0  0  0  0  0
   -1.5711   -3.2229   -0.4312 C   0  0  0  0  0  0  0  0  0  0  0  0
   -0.8734    0.1979   -0.6411 C   0  0  0  0  0  0  0  0  0  0  0  0
    0.3750    0.0213    0.0073 N   0  0  0  0  0  0  0  0  0  0  0  0
    1.5670    0.2003   -0.6843 C   0  0  0  0  0  0  0  0  0  0  0  0
    1.5922    0.5968   -2.0161 C   0  0  0  0  0  0  0  0  0  0  0  0
    2.7982    0.7737   -2.6792 C   0  0  0  0  0  0  0  0  0  0  0  0
    3.9906    0.5563   -2.0202 C   0  0  0  0  0  0  0  0  0  0  0  0
    3.9797    0.1587   -0.6897 C   0  0  0  0  0  0  0  0  0  0  0  0
    2.7823   -0.0189   -0.0238 C   0  0  0  0  0  0  0  0  0  0  0  0
    2.8419   -0.4129    1.2907 O   0  0  0  0  0  0  0  0  0  0  0  0
    1.6518   -0.5976    1.9529 C   0  0  0  0  0  0  0  0  0  0  0  0
    1.7159   -1.0031    3.2714 C   0  0  0  0  0  0  0  0  0  0  0  0
    0.5507   -1.2061    3.9986 C   0  0  0  0  0  0  0  0  0  0  0  0
   -0.6742   -1.0006    3.3987 C   0  0  0  0  0  0  0  0  0  0  0  0
   -0.7447   -0.5939    2.0746 C   0  0  0  0  0  0  0  0  0  0  0  0
    0.4117   -0.3886    1.3368 C   0  0  0  0  0  0  0  0  0  0  0  0
   -1.5132    1.4405   -0.5810 C   0  0  0  0  0  0  0  0  0  0  0  0
   -0.9437    2.5457    0.2165 C   0  0  0  0  0  0  0  0  0  0  0  0
   -1.6771    3.0263    1.2976 C   0  0  0  0  0  0  0  0  0  0  0  0
   -1.1674    4.0323    2.0966 C   0  0  0  0  0  0  0  0  0  0  0  0
    0.0763    4.5750    1.8204 C   0  0  0  0  0  0  0  0  0  0  0  0
    0.8034    4.1119    0.7374 C   0  0  0  0  0  0  0  0  0  0  0  0
    0.2988    3.1019   -0.0621 C   0  0  0  0  0  0  0  0  0  0  0  0
   -2.7476    1.5947   -1.1969 C   0  0  0  0  0  0  0  0  0  0  0  0
   -3.2100   -1.5705   -2.3353 H   0  0  0  0  0  0  0  0  0  0  0  0
    0.8564   -1.8200   -2.3210 H   0  0  0  0  0  0  0  0  0  0  0  0
    1.8179   -4.0585   -2.0445 H   0  0  0  0  0  0  0  0  0  0  0  0
    0.6195   -5.7735   -0.7341 H   0  0  0  0  0  0  0  0  0  0  0  0
   -1.5610   -5.2330    0.2888 H   0  0  0  0  0  0  0  0  0  0  0  0
   -2.5211   -2.9820    0.0242 H   0  0  0  0  0  0  0  0  0  0  0  0
    0.6598    0.7673   -2.5357 H   0  0  0  0  0  0  0  0  0  0  0  0
    2.7923    1.0825   -3.7134 H   0  0  0  0  0  0  0  0  0  0  0  0
    4.9313    0.6925   -2.5299 H   0  0  0  0  0  0  0  0  0  0  0  0
    4.8967   -0.0188   -0.1510 H   0  0  0  0  0  0  0  0  0  0  0  0
    2.6870   -1.1557    3.7147 H   0  0  0  0  0  0  0  0  0  0  0  0
    0.6118   -1.5227    5.0278 H   0  0  0  0  0  0  0  0  0  0  0  0
   -1.5869   -1.1541    3.9538 H   0  0  0  0  0  0  0  0  0  0  0  0
   -1.7060   -0.4341    1.6108 H   0  0  0  0  0  0  0  0  0  0  0  0
   -2.6433    2.5952    1.5183 H   0  0  0  0  0  0  0  0  0  0  0  0
   -1.7415    4.3919    2.9376 H   0  0  0  0  0  0  0  0  0  0  0  0
    0.4759    5.3590    2.4461 H   0  0  0  0  0  0  0  0  0  0  0  0
    1.7704    4.5364    0.5116 H   0  0  0  0  0  0  0  0  0  0  0  0
    0.8679    2.7579   -0.9125 H   0  0  0  0  0  0  0  0  0  0  0  0
   -3.2493    2.5506   -1.1617 H   0  0  0  0  0  0  0  0  0  0  0  0
  1  2  3  0  0  0  0
  2  3  1  0  0  0  0
  3  4  2  0  0  0  0
  4  5  1  0  0  0  0
  5  6  1  0  0  0  0
  6  7  2  0  0  0  0
  7  8  1  0  0  0  0
  8  9  2  0  0  0  0
  9 10  1  0  0  0  0
 10 11  2  0  0  0  0
  5 12  2  0  0  0  0
 12 13  1  0  0  0  0
 13 14  1  0  0  0  0
 14 15  2  0  0  0  0
 15 16  1  0  0  0  0
 16 17  2  0  0  0  0
 17 18  1  0  0  0  0
 18 19  2  0  0  0  0
 19 20  1  0  0  0  0
 20 21  1  0  0  0  0
 21 22  2  0  0  0  0
 22 23  1  0  0  0  0
 23 24  2  0  0  0  0
 24 25  1  0  0  0  0
 25 26  2  0  0  0  0
 12 27  1  0  0  0  0
 27 28  1  0  0  0  0
 28 29  2  0  0  0  0
 29 30  1  0  0  0  0
 30 31  2  0  0  0  0
 31 32  1  0  0  0  0
 32 33  2  0  0  0  0
 27 34  2  0  0  0  0
 34  3  1  0  0  0  0
 11  6  1  0  0  0  0
 26 13  1  0  0  0  0
 33 28  1  0  0  0  0
 19 14  1  0  0  0  0
 26 21  1  0  0  0  0
  4 35  1  0  0  0  0
  7 36  1  0  0  0  0
  8 37  1  0  0  0  0
  9 38  1  0  0  0  0
 10 39  1  0  0  0  0
 11 40  1  0  0  0  0
 15 41  1  0  0  0  0
 16 42  1  0  0  0  0
 17 43  1  0  0  0  0
 18 44  1  0  0  0  0
 22 45  1  0  0  0  0
 23 46  1  0  0  0  0
 24 47  1  0  0  0  0
 25 48  1  0  0  0  0
 29 49  1  0  0  0  0
 30 50  1  0  0  0  0
 31 51  1  0  0  0  0
 32 52  1  0  0  0  0
 33 53  1  0  0  0  0
 34 54  1  0  0  0  0
M  END
