
  xtb     03022214053D
 energy: -99.030389602372 gnorm: 0.000111908494 xtb: 6.4.1 (afa7bdf)
 64 67  0     0  0            999 V2000
   -7.1020    4.4936   -0.4665 C   0  0  0  0  0  0  0  0  0  0  0  0
   -6.6706    3.1594    0.0941 C   0  0  0  0  0  0  0  0  0  0  0  0
   -7.3444    2.5672    0.9123 O   0  0  0  0  0  0  0  0  0  0  0  0
   -5.3903    2.6077   -0.3928 C   0  0  0  0  0  0  0  0  0  0  0  0
   -4.5657    3.2686   -1.3458 C   0  0  0  0  0  0  0  0  0  0  0  0
   -3.4123    2.6926   -1.7670 C   0  0  0  0  0  0  0  0  0  0  0  0
   -3.0281    1.4904   -1.2674 N   0  0  0  0  0  0  0  0  0  0  0  0
   -1.9515    0.7324   -1.5507 C   0  0  0  0  0  0  0  0  0  0  0  0
   -1.9876   -0.4301   -0.7827 C   0  0  0  0  0  0  0  0  0  0  0  0
   -3.1229   -0.4028    0.0264 C   0  0  0  0  0  0  0  0  0  0  0  0
   -3.5464   -1.3947    1.0028 C   0  0  0  0  0  0  0  0  0  0  0  0
   -3.3311   -2.7525    0.7638 C   0  0  0  0  0  0  0  0  0  0  0  0
   -3.7324   -3.7076    1.6713 C   0  0  0  0  0  0  0  0  0  0  0  0
   -4.3571   -3.3372    2.8638 C   0  0  0  0  0  0  0  0  0  0  0  0
   -4.6999   -4.2843    3.8033 N   0  0  0  0  0  0  0  0  0  0  0  0
   -4.5550   -1.9783    3.1156 C   0  0  0  0  0  0  0  0  0  0  0  0
   -4.1560   -1.0268    2.2027 C   0  0  0  0  0  0  0  0  0  0  0  0
   -3.7805    0.8115   -0.2990 C   0  0  0  0  0  0  0  0  0  0  0  0
   -4.9808    1.3855    0.1077 C   0  0  0  0  0  0  0  0  0  0  0  0
   -0.7673   -1.2274   -1.0906 C   0  0  0  0  0  0  0  0  0  0  0  0
   -0.1132   -0.3997   -2.0909 N   0  0  0  0  0  0  0  0  0  0  0  0
    1.1744   -0.7274   -2.6420 C   0  0  0  0  0  0  0  0  0  0  0  0
    2.3176   -0.1218   -1.8218 C   0  0  0  0  0  0  0  0  0  0  0  0
    3.6815   -0.4723   -2.4202 C   0  0  0  0  0  0  0  0  0  0  0  0
    4.7640    0.1810   -1.7264 N   0  0  0  0  0  0  0  0  0  0  0  0
    5.4384   -0.4193   -0.7132 C   0  0  0  0  0  0  0  0  0  0  0  0
    5.3289   -1.5859   -0.4231 O   0  0  0  0  0  0  0  0  0  0  0  0
    6.2490    0.4832   -0.1303 O   0  0  0  0  0  0  0  0  0  0  0  0
    7.1460    0.0876    0.9348 C   0  0  0  0  0  0  0  0  0  0  0  0
    7.8868    1.3768    1.2930 C   0  0  0  0  0  0  0  0  0  0  0  0
    8.1272   -0.9728    0.4364 C   0  0  0  0  0  0  0  0  0  0  0  0
    6.3497   -0.4237    2.1354 C   0  0  0  0  0  0  0  0  0  0  0  0
   -0.7562    0.7759   -2.3793 C   0  0  0  0  0  0  0  0  0  0  0  0
   -0.3666    1.6198   -3.1642 O   0  0  0  0  0  0  0  0  0  0  0  0
   -8.0527    4.7761   -0.0218 H   0  0  0  0  0  0  0  0  0  0  0  0
   -7.2160    4.4276   -1.5464 H   0  0  0  0  0  0  0  0  0  0  0  0
   -6.3590    5.2548   -0.2385 H   0  0  0  0  0  0  0  0  0  0  0  0
   -4.8499    4.2244   -1.7507 H   0  0  0  0  0  0  0  0  0  0  0  0
   -2.7517    3.1311   -2.4990 H   0  0  0  0  0  0  0  0  0  0  0  0
   -2.8651   -3.0600   -0.1602 H   0  0  0  0  0  0  0  0  0  0  0  0
   -3.5679   -4.7557    1.4644 H   0  0  0  0  0  0  0  0  0  0  0  0
   -5.3745   -4.0077    4.4975 H   0  0  0  0  0  0  0  0  0  0  0  0
   -4.7911   -5.2325    3.4774 H   0  0  0  0  0  0  0  0  0  0  0  0
   -5.0238   -1.6759    4.0412 H   0  0  0  0  0  0  0  0  0  0  0  0
   -4.2959    0.0181    2.4330 H   0  0  0  0  0  0  0  0  0  0  0  0
   -5.6157    0.8737    0.8140 H   0  0  0  0  0  0  0  0  0  0  0  0
   -0.1284   -1.3678   -0.2110 H   0  0  0  0  0  0  0  0  0  0  0  0
   -0.9912   -2.2155   -1.5094 H   0  0  0  0  0  0  0  0  0  0  0  0
    1.2075   -0.3189   -3.6566 H   0  0  0  0  0  0  0  0  0  0  0  0
    1.2731   -1.8150   -2.6901 H   0  0  0  0  0  0  0  0  0  0  0  0
    2.2745   -0.4877   -0.7940 H   0  0  0  0  0  0  0  0  0  0  0  0
    2.1917    0.9629   -1.8064 H   0  0  0  0  0  0  0  0  0  0  0  0
    3.8608   -1.5469   -2.3390 H   0  0  0  0  0  0  0  0  0  0  0  0
    3.7142   -0.1810   -3.4737 H   0  0  0  0  0  0  0  0  0  0  0  0
    4.8476    1.1823   -1.8030 H   0  0  0  0  0  0  0  0  0  0  0  0
    8.5959    1.1876    2.0932 H   0  0  0  0  0  0  0  0  0  0  0  0
    8.4218    1.7519    0.4246 H   0  0  0  0  0  0  0  0  0  0  0  0
    7.1793    2.1356    1.6166 H   0  0  0  0  0  0  0  0  0  0  0  0
    8.6574   -0.6078   -0.4407 H   0  0  0  0  0  0  0  0  0  0  0  0
    7.5933   -1.8811    0.1716 H   0  0  0  0  0  0  0  0  0  0  0  0
    8.8483   -1.2001    1.2165 H   0  0  0  0  0  0  0  0  0  0  0  0
    7.0251   -0.6366    2.9592 H   0  0  0  0  0  0  0  0  0  0  0  0
    5.6297    0.3275    2.4535 H   0  0  0  0  0  0  0  0  0  0  0  0
    5.8167   -1.3324    1.8699 H   0  0  0  0  0  0  0  0  0  0  0  0
  1  2  1  0  0  0  0
  2  3  2  0  0  0  0
  2  4  1  0  0  0  0
  4  5  1  0  0  0  0
  5  6  2  0  0  0  0
  6  7  1  0  0  0  0
  7  8  1  0  0  0  0
  8  9  2  0  0  0  0
  9 10  1  0  0  0  0
 10 11  1  0  0  0  0
 11 12  2  0  0  0  0
 12 13  1  0  0  0  0
 13 14  2  0  0  0  0
 14 15  1  0  0  0  0
 14 16  1  0  0  0  0
 16 17  2  0  0  0  0
 10 18  2  0  0  0  0
 18 19  1  0  0  0  0
  9 20  1  0  0  0  0
 20 21  1  0  0  0  0
 21 22  1  0  0  0  0
 22 23  1  0  0  0  0
 23 24  1  0  0  0  0
 24 25  1  0  0  0  0
 25 26  1  0  0  0  0
 26 27  2  0  0  0  0
 26 28  1  0  0  0  0
 28 29  1  0  0  0  0
 29 30  1  0  0  0  0
 29 31  1  0  0  0  0
 29 32  1  0  0  0  0
 21 33  1  0  0  0  0
 33 34  2  0  0  0  0
 19  4  2  0  0  0  0
 18  7  1  0  0  0  0
 33  8  1  0  0  0  0
 17 11  1  0  0  0  0
  1 35  1  0  0  0  0
  1 36  1  0  0  0  0
  1 37  1  0  0  0  0
  5 38  1  0  0  0  0
  6 39  1  0  0  0  0
 12 40  1  0  0  0  0
 13 41  1  0  0  0  0
 15 42  1  0  0  0  0
 15 43  1  0  0  0  0
 16 44  1  0  0  0  0
 17 45  1  0  0  0  0
 19 46  1  0  0  0  0
 20 47  1  0  0  0  0
 20 48  1  0  0  0  0
 22 49  1  0  0  0  0
 22 50  1  0  0  0  0
 23 51  1  0  0  0  0
 23 52  1  0  0  0  0
 24 53  1  0  0  0  0
 24 54  1  0  0  0  0
 25 55  1  0  0  0  0
 30 56  1  0  0  0  0
 30 57  1  0  0  0  0
 30 58  1  0  0  0  0
 31 59  1  0  0  0  0
 31 60  1  0  0  0  0
 31 61  1  0  0  0  0
 32 62  1  0  0  0  0
 32 63  1  0  0  0  0
 32 64  1  0  0  0  0
M  END
