
  xtb     03022216123D
 energy: -160.138372917028 gnorm: 0.000088799222 xtb: 6.4.1 (afa7bdf)
125133  0     0  0            999 V2000
    0.3704   -1.3262   -0.9454 C   0  0  0  0  0  0  0  0  0  0  0  0
    0.4683    0.1108   -1.4449 C   0  0  0  0  0  0  0  0  0  0  0  0
    0.3193    1.1320   -0.3086 C   0  0  0  0  0  0  0  0  0  0  0  0
    0.5466    2.5786   -0.8072 C   0  0  0  0  0  0  0  0  0  0  0  0
   -0.4818    3.1115   -1.7959 C   0  0  0  0  0  0  0  0  0  0  0  0
   -0.9974    0.9931    0.4224 C   0  0  0  0  0  0  0  0  0  0  0  0
   -2.2783    1.0072   -0.0807 C   0  0  0  0  0  0  0  0  0  0  0  0
   -3.3657    0.8838    0.7896 C   0  0  0  0  0  0  0  0  0  0  0  0
   -4.7388    0.9228    0.2703 C   0  0  0  0  0  0  0  0  0  0  0  0
   -5.0841    1.8150   -0.7455 C   0  0  0  0  0  0  0  0  0  0  0  0
   -6.3738    1.8813   -1.2401 C   0  0  0  0  0  0  0  0  0  0  0  0
   -7.3360    1.0375   -0.7103 C   0  0  0  0  0  0  0  0  0  0  0  0
   -7.0012    0.1348    0.3092 C   0  0  0  0  0  0  0  0  0  0  0  0
   -5.7179    0.0769    0.7996 C   0  0  0  0  0  0  0  0  0  0  0  0
   -8.2205   -0.6451    0.7559 C   0  0  0  0  0  0  0  0  0  0  0  0
   -8.5229   -0.2049    2.2075 C   0  0  0  0  0  0  0  0  0  0  0  0
   -9.8306   -0.7124    2.8005 C   0  0  0  0  0  0  0  0  0  0  0  0
   -8.0093   -2.1623    0.6558 C   0  0  0  0  0  0  0  0  0  0  0  0
   -7.5892   -2.5942   -0.7445 C   0  0  0  0  0  0  0  0  0  0  0  0
   -9.2674   -0.1456   -0.2153 C   0  0  0  0  0  0  0  0  0  0  0  0
  -10.5696   -0.5694   -0.3790 C   0  0  0  0  0  0  0  0  0  0  0  0
  -11.3871    0.0327   -1.3339 C   0  0  0  0  0  0  0  0  0  0  0  0
  -12.8322   -0.3904   -1.5527 C   0  0  0  0  0  0  0  0  0  0  0  0
  -12.9933   -0.8940   -2.9942 C   0  0  0  0  0  0  0  0  0  0  0  0
  -13.7511    0.8172   -1.3179 C   0  0  0  0  0  0  0  0  0  0  0  0
  -13.2727   -1.5108   -0.6062 C   0  0  0  0  0  0  0  0  0  0  0  0
  -10.8520    1.0544   -2.1175 C   0  0  0  0  0  0  0  0  0  0  0  0
   -9.5389    1.4676   -1.9874 C   0  0  0  0  0  0  0  0  0  0  0  0
   -8.7390    0.8604   -1.0350 C   0  0  0  0  0  0  0  0  0  0  0  0
   -3.1349    0.7328    2.1571 C   0  0  0  0  0  0  0  0  0  0  0  0
   -1.8511    0.6834    2.6676 C   0  0  0  0  0  0  0  0  0  0  0  0
   -0.7806    0.8077    1.7975 C   0  0  0  0  0  0  0  0  0  0  0  0
    0.6483    0.7467    2.0379 C   0  0  0  0  0  0  0  0  0  0  0  0
    1.3704    0.5605    3.2056 C   0  0  0  0  0  0  0  0  0  0  0  0
    2.7510    0.5297    3.1375 C   0  0  0  0  0  0  0  0  0  0  0  0
    3.4219    0.6759    1.9230 C   0  0  0  0  0  0  0  0  0  0  0  0
    4.8894    0.6499    1.8732 C   0  0  0  0  0  0  0  0  0  0  0  0
    5.6392    1.3096    2.8473 C   0  0  0  0  0  0  0  0  0  0  0  0
    7.0213    1.3225    2.8062 C   0  0  0  0  0  0  0  0  0  0  0  0
    7.6643    0.6587    1.7745 C   0  0  0  0  0  0  0  0  0  0  0  0
    6.9218   -0.0180    0.7961 C   0  0  0  0  0  0  0  0  0  0  0  0
    5.5474   -0.0253    0.8413 C   0  0  0  0  0  0  0  0  0  0  0  0
    7.8411   -0.7032   -0.1941 C   0  0  0  0  0  0  0  0  0  0  0  0
    7.6674   -2.2260    0.0142 C   0  0  0  0  0  0  0  0  0  0  0  0
    8.6508   -3.1162   -0.7343 C   0  0  0  0  0  0  0  0  0  0  0  0
    7.5440   -0.2915   -1.6426 C   0  0  0  0  0  0  0  0  0  0  0  0
    7.5924    1.2203   -1.8333 C   0  0  0  0  0  0  0  0  0  0  0  0
    9.1970   -0.2235    0.2753 C   0  0  0  0  0  0  0  0  0  0  0  0
   10.4330   -0.4148   -0.3060 C   0  0  0  0  0  0  0  0  0  0  0  0
   11.5772    0.1078    0.2944 C   0  0  0  0  0  0  0  0  0  0  0  0
   12.9655   -0.0737   -0.3014 C   0  0  0  0  0  0  0  0  0  0  0  0
   12.9548   -0.8979   -1.5921 C   0  0  0  0  0  0  0  0  0  0  0  0
   13.5560    1.3067   -0.6231 C   0  0  0  0  0  0  0  0  0  0  0  0
   13.8591   -0.7972    0.7162 C   0  0  0  0  0  0  0  0  0  0  0  0
   11.4357    0.8283    1.4797 C   0  0  0  0  0  0  0  0  0  0  0  0
   10.2001    1.0551    2.0572 C   0  0  0  0  0  0  0  0  0  0  0  0
    9.0724    0.5329    1.4480 C   0  0  0  0  0  0  0  0  0  0  0  0
    2.6847    0.8591    0.7496 C   0  0  0  0  0  0  0  0  0  0  0  0
    1.3113    0.8937    0.8110 C   0  0  0  0  0  0  0  0  0  0  0  0
   -0.5929   -1.4996   -0.4706 H   0  0  0  0  0  0  0  0  0  0  0  0
    0.4762   -2.0220   -1.7751 H   0  0  0  0  0  0  0  0  0  0  0  0
    1.1517   -1.5341   -0.2176 H   0  0  0  0  0  0  0  0  0  0  0  0
    1.4344    0.2627   -1.9318 H   0  0  0  0  0  0  0  0  0  0  0  0
   -0.3124    0.2823   -2.1875 H   0  0  0  0  0  0  0  0  0  0  0  0
    1.5379    2.6200   -1.2650 H   0  0  0  0  0  0  0  0  0  0  0  0
    0.5613    3.2343    0.0677 H   0  0  0  0  0  0  0  0  0  0  0  0
   -0.5497    2.4806   -2.6785 H   0  0  0  0  0  0  0  0  0  0  0  0
   -1.4622    3.1794   -1.3327 H   0  0  0  0  0  0  0  0  0  0  0  0
   -0.1900    4.1096   -2.1167 H   0  0  0  0  0  0  0  0  0  0  0  0
   -2.4589    1.0793   -1.1428 H   0  0  0  0  0  0  0  0  0  0  0  0
   -4.3315    2.4845   -1.1366 H   0  0  0  0  0  0  0  0  0  0  0  0
   -6.6240    2.5828   -2.0224 H   0  0  0  0  0  0  0  0  0  0  0  0
   -5.4512   -0.6315    1.5707 H   0  0  0  0  0  0  0  0  0  0  0  0
   -8.5316    0.8883    2.2290 H   0  0  0  0  0  0  0  0  0  0  0  0
   -7.6931   -0.5395    2.8349 H   0  0  0  0  0  0  0  0  0  0  0  0
   -9.9084   -0.3846    3.8354 H   0  0  0  0  0  0  0  0  0  0  0  0
   -9.8782   -1.7983    2.7875 H   0  0  0  0  0  0  0  0  0  0  0  0
  -10.6816   -0.3134    2.2556 H   0  0  0  0  0  0  0  0  0  0  0  0
   -8.9361   -2.6727    0.9221 H   0  0  0  0  0  0  0  0  0  0  0  0
   -7.2427   -2.4615    1.3741 H   0  0  0  0  0  0  0  0  0  0  0  0
   -7.4629   -3.6741   -0.7843 H   0  0  0  0  0  0  0  0  0  0  0  0
   -6.6480   -2.1259   -1.0239 H   0  0  0  0  0  0  0  0  0  0  0  0
   -8.3433   -2.3067   -1.4740 H   0  0  0  0  0  0  0  0  0  0  0  0
  -10.9420   -1.3786    0.2261 H   0  0  0  0  0  0  0  0  0  0  0  0
  -12.3297   -1.7376   -3.1736 H   0  0  0  0  0  0  0  0  0  0  0  0
  -14.0178   -1.2175   -3.1667 H   0  0  0  0  0  0  0  0  0  0  0  0
  -12.7561   -0.1160   -3.7145 H   0  0  0  0  0  0  0  0  0  0  0  0
  -14.7915    0.5282   -1.4524 H   0  0  0  0  0  0  0  0  0  0  0  0
  -13.6256    1.1938   -0.3047 H   0  0  0  0  0  0  0  0  0  0  0  0
  -13.5310    1.6248   -2.0102 H   0  0  0  0  0  0  0  0  0  0  0  0
  -12.6765   -2.4082   -0.7554 H   0  0  0  0  0  0  0  0  0  0  0  0
  -13.1969   -1.1992    0.4333 H   0  0  0  0  0  0  0  0  0  0  0  0
  -14.3125   -1.7638   -0.8045 H   0  0  0  0  0  0  0  0  0  0  0  0
  -11.4681    1.5357   -2.8624 H   0  0  0  0  0  0  0  0  0  0  0  0
   -9.1465    2.2466   -2.6246 H   0  0  0  0  0  0  0  0  0  0  0  0
   -3.9782    0.6650    2.8291 H   0  0  0  0  0  0  0  0  0  0  0  0
   -1.6882    0.5503    3.7270 H   0  0  0  0  0  0  0  0  0  0  0  0
    0.8667    0.4400    4.1535 H   0  0  0  0  0  0  0  0  0  0  0  0
    3.3257    0.3683    4.0380 H   0  0  0  0  0  0  0  0  0  0  0  0
    5.1244    1.8433    3.6331 H   0  0  0  0  0  0  0  0  0  0  0  0
    7.5862    1.8474    3.5625 H   0  0  0  0  0  0  0  0  0  0  0  0
    4.9704   -0.5569    0.0981 H   0  0  0  0  0  0  0  0  0  0  0  0
    6.6492   -2.4883   -0.2833 H   0  0  0  0  0  0  0  0  0  0  0  0
    7.7593   -2.4285    1.0847 H   0  0  0  0  0  0  0  0  0  0  0  0
    8.6096   -2.9410   -1.8063 H   0  0  0  0  0  0  0  0  0  0  0  0
    8.4016   -4.1601   -0.5540 H   0  0  0  0  0  0  0  0  0  0  0  0
    9.6659   -2.9465   -0.3862 H   0  0  0  0  0  0  0  0  0  0  0  0
    6.5547   -0.6627   -1.9200 H   0  0  0  0  0  0  0  0  0  0  0  0
    8.2742   -0.7569   -2.3064 H   0  0  0  0  0  0  0  0  0  0  0  0
    6.8539    1.7106   -1.2029 H   0  0  0  0  0  0  0  0  0  0  0  0
    8.5747    1.6058   -1.5689 H   0  0  0  0  0  0  0  0  0  0  0  0
    7.3876    1.4772   -2.8705 H   0  0  0  0  0  0  0  0  0  0  0  0
   10.5024   -0.9561   -1.2344 H   0  0  0  0  0  0  0  0  0  0  0  0
   12.3631   -0.4112   -2.3640 H   0  0  0  0  0  0  0  0  0  0  0  0
   12.5623   -1.8971   -1.4166 H   0  0  0  0  0  0  0  0  0  0  0  0
   13.9723   -0.9989   -1.9650 H   0  0  0  0  0  0  0  0  0  0  0  0
   14.5455    1.1986   -1.0627 H   0  0  0  0  0  0  0  0  0  0  0  0
   12.9188    1.8320   -1.3317 H   0  0  0  0  0  0  0  0  0  0  0  0
   13.6455    1.9176    0.2708 H   0  0  0  0  0  0  0  0  0  0  0  0
   13.9625   -0.2237    1.6329 H   0  0  0  0  0  0  0  0  0  0  0  0
   14.8519   -0.9532    0.2991 H   0  0  0  0  0  0  0  0  0  0  0  0
   13.4339   -1.7669    0.9674 H   0  0  0  0  0  0  0  0  0  0  0  0
   12.3092    1.2400    1.9629 H   0  0  0  0  0  0  0  0  0  0  0  0
   10.1201    1.6373    2.9636 H   0  0  0  0  0  0  0  0  0  0  0  0
    3.2015    0.9913   -0.1901 H   0  0  0  0  0  0  0  0  0  0  0  0
  1  2  1  0  0  0  0
  2  3  1  0  0  0  0
  3  4  1  0  0  0  0
  4  5  1  0  0  0  0
  3  6  1  0  0  0  0
  6  7  2  0  0  0  0
  7  8  1  0  0  0  0
  8  9  1  0  0  0  0
  9 10  2  0  0  0  0
 10 11  1  0  0  0  0
 11 12  2  0  0  0  0
 12 13  1  0  0  0  0
 13 14  2  0  0  0  0
 13 15  1  0  0  0  0
 15 16  1  0  0  0  0
 16 17  1  0  0  0  0
 15 18  1  0  0  0  0
 18 19  1  0  0  0  0
 15 20  1  0  0  0  0
 20 21  2  0  0  0  0
 21 22  1  0  0  0  0
 22 23  1  0  0  0  0
 23 24  1  0  0  0  0
 23 25  1  0  0  0  0
 23 26  1  0  0  0  0
 22 27  2  0  0  0  0
 27 28  1  0  0  0  0
 28 29  2  0  0  0  0
  8 30  2  0  0  0  0
 30 31  1  0  0  0  0
 31 32  2  0  0  0  0
 32 33  1  0  0  0  0
 33 34  2  0  0  0  0
 34 35  1  0  0  0  0
 35 36  2  0  0  0  0
 36 37  1  0  0  0  0
 37 38  2  0  0  0  0
 38 39  1  0  0  0  0
 39 40  2  0  0  0  0
 40 41  1  0  0  0  0
 41 42  2  0  0  0  0
 41 43  1  0  0  0  0
 43 44  1  0  0  0  0
 44 45  1  0  0  0  0
 43 46  1  0  0  0  0
 46 47  1  0  0  0  0
 43 48  1  0  0  0  0
 48 49  2  0  0  0  0
 49 50  1  0  0  0  0
 50 51  1  0  0  0  0
 51 52  1  0  0  0  0
 51 53  1  0  0  0  0
 51 54  1  0  0  0  0
 50 55  2  0  0  0  0
 55 56  1  0  0  0  0
 56 57  2  0  0  0  0
 36 58  1  0  0  0  0
 58 59  2  0  0  0  0
 59  3  1  0  0  0  0
 32  6  1  0  0  0  0
 59 33  1  0  0  0  0
 14  9  1  0  0  0  0
 29 20  1  0  0  0  0
 42 37  1  0  0  0  0
 57 48  1  0  0  0  0
 29 12  1  0  0  0  0
 57 40  1  0  0  0  0
  1 60  1  0  0  0  0
  1 61  1  0  0  0  0
  1 62  1  0  0  0  0
  2 63  1  0  0  0  0
  2 64  1  0  0  0  0
  4 65  1  0  0  0  0
  4 66  1  0  0  0  0
  5 67  1  0  0  0  0
  5 68  1  0  0  0  0
  5 69  1  0  0  0  0
  7 70  1  0  0  0  0
 10 71  1  0  0  0  0
 11 72  1  0  0  0  0
 14 73  1  0  0  0  0
 16 74  1  0  0  0  0
 16 75  1  0  0  0  0
 17 76  1  0  0  0  0
 17 77  1  0  0  0  0
 17 78  1  0  0  0  0
 18 79  1  0  0  0  0
 18 80  1  0  0  0  0
 19 81  1  0  0  0  0
 19 82  1  0  0  0  0
 19 83  1  0  0  0  0
 21 84  1  0  0  0  0
 24 85  1  0  0  0  0
 24 86  1  0  0  0  0
 24 87  1  0  0  0  0
 25 88  1  0  0  0  0
 25 89  1  0  0  0  0
 25 90  1  0  0  0  0
 26 91  1  0  0  0  0
 26 92  1  0  0  0  0
 26 93  1  0  0  0  0
 27 94  1  0  0  0  0
 28 95  1  0  0  0  0
 30 96  1  0  0  0  0
 31 97  1  0  0  0  0
 34 98  1  0  0  0  0
 35 99  1  0  0  0  0
 38100  1  0  0  0  0
 39101  1  0  0  0  0
 42102  1  0  0  0  0
 44103  1  0  0  0  0
 44104  1  0  0  0  0
 45105  1  0  0  0  0
 45106  1  0  0  0  0
 45107  1  0  0  0  0
 46108  1  0  0  0  0
 46109  1  0  0  0  0
 47110  1  0  0  0  0
 47111  1  0  0  0  0
 47112  1  0  0  0  0
 49113  1  0  0  0  0
 52114  1  0  0  0  0
 52115  1  0  0  0  0
 52116  1  0  0  0  0
 53117  1  0  0  0  0
 53118  1  0  0  0  0
 53119  1  0  0  0  0
 54120  1  0  0  0  0
 54121  1  0  0  0  0
 54122  1  0  0  0  0
 55123  1  0  0  0  0
 56124  1  0  0  0  0
 58125  1  0  0  0  0
M  END
