
  xtb     03022212523D
 energy: -59.502847581707 gnorm: 0.000114698667 xtb: 6.4.1 (afa7bdf)
 35 38  0     0  0            999 V2000
   -5.1041   -1.8620    0.1833 O   0  0  0  0  0  0  0  0  0  0  0  0
   -4.2616   -1.0154   -0.0263 C   0  0  0  0  0  0  0  0  0  0  0  0
   -4.6127    0.2080   -0.5547 N   0  0  0  0  0  0  0  0  0  0  0  0
   -3.7981    1.2902   -0.8403 C   0  0  0  0  0  0  0  0  0  0  0  0
   -4.2761    2.3152   -1.2791 O   0  0  0  0  0  0  0  0  0  0  0  0
   -2.3742    1.0799   -0.5734 C   0  0  0  0  0  0  0  0  0  0  0  0
   -1.4700    2.0994   -0.8043 C   0  0  0  0  0  0  0  0  0  0  0  0
   -0.1098    1.9079   -0.6077 C   0  0  0  0  0  0  0  0  0  0  0  0
    0.3908    0.6872   -0.1772 C   0  0  0  0  0  0  0  0  0  0  0  0
    1.7476    0.4610   -0.0326 N   0  0  0  0  0  0  0  0  0  0  0  0
    2.3798   -0.6199   -0.7722 C   0  0  0  0  0  0  0  0  0  0  0  0
    3.6405   -1.0591   -0.0255 C   0  0  0  0  0  0  0  0  0  0  0  0
    4.5307    0.0214    0.1245 O   0  0  0  0  0  0  0  0  0  0  0  0
    3.9172    1.0840    0.8137 C   0  0  0  0  0  0  0  0  0  0  0  0
    2.6588    1.5812    0.0910 C   0  0  0  0  0  0  0  0  0  0  0  0
   -0.5307   -0.3494    0.1815 C   0  0  0  0  0  0  0  0  0  0  0  0
   -0.1321   -1.5300    0.8379 C   0  0  0  0  0  0  0  0  0  0  0  0
   -1.0371   -2.5135    1.1532 C   0  0  0  0  0  0  0  0  0  0  0  0
   -2.3839   -2.3608    0.8294 C   0  0  0  0  0  0  0  0  0  0  0  0
   -2.8256   -1.1892    0.2501 C   0  0  0  0  0  0  0  0  0  0  0  0
   -1.9157   -0.1533   -0.0598 C   0  0  0  0  0  0  0  0  0  0  0  0
   -5.6019    0.3411   -0.7426 H   0  0  0  0  0  0  0  0  0  0  0  0
   -1.8414    3.0416   -1.1780 H   0  0  0  0  0  0  0  0  0  0  0  0
    0.5650    2.7147   -0.8456 H   0  0  0  0  0  0  0  0  0  0  0  0
    2.6784   -0.2554   -1.7683 H   0  0  0  0  0  0  0  0  0  0  0  0
    1.6913   -1.4527   -0.9019 H   0  0  0  0  0  0  0  0  0  0  0  0
    3.3678   -1.4586    0.9638 H   0  0  0  0  0  0  0  0  0  0  0  0
    4.1772   -1.8239   -0.5887 H   0  0  0  0  0  0  0  0  0  0  0  0
    4.6619    1.8788    0.8751 H   0  0  0  0  0  0  0  0  0  0  0  0
    3.6423    0.7623    1.8300 H   0  0  0  0  0  0  0  0  0  0  0  0
    2.9458    1.9837   -0.8924 H   0  0  0  0  0  0  0  0  0  0  0  0
    2.1937    2.3674    0.6863 H   0  0  0  0  0  0  0  0  0  0  0  0
    0.8984   -1.6427    1.1359 H   0  0  0  0  0  0  0  0  0  0  0  0
   -0.7081   -3.4064    1.6629 H   0  0  0  0  0  0  0  0  0  0  0  0
   -3.1046   -3.1328    1.0522 H   0  0  0  0  0  0  0  0  0  0  0  0
  1  2  2  0  0  0  0
  2  3  1  0  0  0  0
  3  4  1  0  0  0  0
  4  5  2  0  0  0  0
  4  6  1  0  0  0  0
  6  7  1  0  0  0  0
  7  8  2  0  0  0  0
  8  9  1  0  0  0  0
  9 10  1  0  0  0  0
 10 11  1  0  0  0  0
 11 12  1  0  0  0  0
 12 13  1  0  0  0  0
 13 14  1  0  0  0  0
 14 15  1  0  0  0  0
  9 16  2  0  0  0  0
 16 17  1  0  0  0  0
 17 18  2  0  0  0  0
 18 19  1  0  0  0  0
 19 20  2  0  0  0  0
 20 21  1  0  0  0  0
 20  2  1  0  0  0  0
 21  6  2  0  0  0  0
 15 10  1  0  0  0  0
 21 16  1  0  0  0  0
  3 22  1  0  0  0  0
  7 23  1  0  0  0  0
  8 24  1  0  0  0  0
 11 25  1  0  0  0  0
 11 26  1  0  0  0  0
 12 27  1  0  0  0  0
 12 28  1  0  0  0  0
 14 29  1  0  0  0  0
 14 30  1  0  0  0  0
 15 31  1  0  0  0  0
 15 32  1  0  0  0  0
 17 33  1  0  0  0  0
 18 34  1  0  0  0  0
 19 35  1  0  0  0  0
M  END
