
  xtb     03022213463D
 energy: -81.483371281807 gnorm: 0.000132790903 xtb: 6.4.1 (afa7bdf)
 56 60  0     0  0            999 V2000
   -5.5064   -2.8194   -0.3007 C   0  0  0  0  0  0  0  0  0  0  0  0
   -4.2068   -2.1103   -0.0681 C   0  0  0  0  0  0  0  0  0  0  0  0
   -4.1734   -0.8584    0.5346 C   0  0  0  0  0  0  0  0  0  0  0  0
   -2.9825   -0.1908    0.7354 C   0  0  0  0  0  0  0  0  0  0  0  0
   -1.7803   -0.7553    0.3091 C   0  0  0  0  0  0  0  0  0  0  0  0
   -0.5654   -0.1033    0.5051 N   0  0  0  0  0  0  0  0  0  0  0  0
   -0.3469    1.2463    0.6708 C   0  0  0  0  0  0  0  0  0  0  0  0
   -1.2227    2.2578    0.0860 C   0  0  0  0  0  0  0  0  0  0  0  0
   -1.9151    1.9874   -1.0921 C   0  0  0  0  0  0  0  0  0  0  0  0
   -2.7270    2.9377   -1.6771 C   0  0  0  0  0  0  0  0  0  0  0  0
   -2.8593    4.1840   -1.0811 C   0  0  0  0  0  0  0  0  0  0  0  0
   -2.1631    4.4809    0.0702 C   0  0  0  0  0  0  0  0  0  0  0  0
   -1.3177    3.5399    0.6675 C   0  0  0  0  0  0  0  0  0  0  0  0
   -0.6588    3.8289    1.8272 N   0  0  0  0  0  0  0  0  0  0  0  0
    0.7353    1.5416    1.2955 N   0  0  0  0  0  0  0  0  0  0  0  0
    1.4364    0.3328    1.6490 C   0  0  0  0  0  0  0  0  0  0  0  0
    2.8745    0.3502    1.2003 C   0  0  0  0  0  0  0  0  0  0  0  0
    3.2912    1.1845    0.1734 C   0  0  0  0  0  0  0  0  0  0  0  0
    4.5999    1.1454   -0.2720 C   0  0  0  0  0  0  0  0  0  0  0  0
    5.5040    0.2693    0.3020 C   0  0  0  0  0  0  0  0  0  0  0  0
    5.0972   -0.5579    1.3351 C   0  0  0  0  0  0  0  0  0  0  0  0
    3.7904   -0.5154    1.7838 C   0  0  0  0  0  0  0  0  0  0  0  0
    0.6136   -0.8235    0.9663 C   0  0  0  0  0  0  0  0  0  0  0  0
    1.3826   -1.4649   -0.1581 C   0  0  0  0  0  0  0  0  0  0  0  0
    2.0690   -2.6528    0.0574 C   0  0  0  0  0  0  0  0  0  0  0  0
    2.8319   -3.2144   -0.9498 C   0  0  0  0  0  0  0  0  0  0  0  0
    2.9138   -2.5956   -2.1852 C   0  0  0  0  0  0  0  0  0  0  0  0
    2.2240   -1.4168   -2.4102 C   0  0  0  0  0  0  0  0  0  0  0  0
    1.4642   -0.8527   -1.4026 C   0  0  0  0  0  0  0  0  0  0  0  0
   -1.8039   -2.0185   -0.2791 C   0  0  0  0  0  0  0  0  0  0  0  0
   -3.0028   -2.6800   -0.4613 C   0  0  0  0  0  0  0  0  0  0  0  0
   -6.2458   -2.5271    0.4413 H   0  0  0  0  0  0  0  0  0  0  0  0
   -5.3725   -3.8981   -0.2610 H   0  0  0  0  0  0  0  0  0  0  0  0
   -5.8993   -2.5653   -1.2860 H   0  0  0  0  0  0  0  0  0  0  0  0
   -5.0951   -0.4023    0.8668 H   0  0  0  0  0  0  0  0  0  0  0  0
   -2.9800    0.7703    1.2266 H   0  0  0  0  0  0  0  0  0  0  0  0
   -1.8038    1.0205   -1.5610 H   0  0  0  0  0  0  0  0  0  0  0  0
   -3.2526    2.7110   -2.5918 H   0  0  0  0  0  0  0  0  0  0  0  0
   -3.4994    4.9311   -1.5273 H   0  0  0  0  0  0  0  0  0  0  0  0
   -2.2515    5.4582    0.5236 H   0  0  0  0  0  0  0  0  0  0  0  0
    0.1218    3.2156    2.0315 H   0  0  0  0  0  0  0  0  0  0  0  0
   -0.5582    4.8002    2.0687 H   0  0  0  0  0  0  0  0  0  0  0  0
    1.4120    0.2206    2.7427 H   0  0  0  0  0  0  0  0  0  0  0  0
    2.5822    1.8699   -0.2661 H   0  0  0  0  0  0  0  0  0  0  0  0
    4.9135    1.7985   -1.0734 H   0  0  0  0  0  0  0  0  0  0  0  0
    6.5245    0.2335   -0.0504 H   0  0  0  0  0  0  0  0  0  0  0  0
    5.8008   -1.2384    1.7923 H   0  0  0  0  0  0  0  0  0  0  0  0
    3.4762   -1.1614    2.5917 H   0  0  0  0  0  0  0  0  0  0  0  0
    0.3240   -1.5862    1.6986 H   0  0  0  0  0  0  0  0  0  0  0  0
    2.0046   -3.1389    1.0208 H   0  0  0  0  0  0  0  0  0  0  0  0
    3.3636   -4.1372   -0.7695 H   0  0  0  0  0  0  0  0  0  0  0  0
    3.5117   -3.0327   -2.9712 H   0  0  0  0  0  0  0  0  0  0  0  0
    2.2810   -0.9318   -3.3737 H   0  0  0  0  0  0  0  0  0  0  0  0
    0.9281    0.0680   -1.5813 H   0  0  0  0  0  0  0  0  0  0  0  0
   -0.8808   -2.4775   -0.6005 H   0  0  0  0  0  0  0  0  0  0  0  0
   -3.0005   -3.6574   -0.9228 H   0  0  0  0  0  0  0  0  0  0  0  0
  1  2  1  0  0  0  0
  2  3  2  0  0  0  0
  3  4  1  0  0  0  0
  4  5  2  0  0  0  0
  5  6  1  0  0  0  0
  6  7  1  0  0  0  0
  7  8  1  0  0  0  0
  8  9  2  0  0  0  0
  9 10  1  0  0  0  0
 10 11  2  0  0  0  0
 11 12  1  0  0  0  0
 12 13  2  0  0  0  0
 13 14  1  0  0  0  0
  7 15  2  0  0  0  0
 15 16  1  0  0  0  0
 16 17  1  0  0  0  0
 17 18  2  0  0  0  0
 18 19  1  0  0  0  0
 19 20  2  0  0  0  0
 20 21  1  0  0  0  0
 21 22  2  0  0  0  0
 16 23  1  0  0  0  0
 23 24  1  0  0  0  0
 24 25  2  0  0  0  0
 25 26  1  0  0  0  0
 26 27  2  0  0  0  0
 27 28  1  0  0  0  0
 28 29  2  0  0  0  0
  5 30  1  0  0  0  0
 30 31  2  0  0  0  0
 31  2  1  0  0  0  0
 23  6  1  0  0  0  0
 29 24  1  0  0  0  0
 13  8  1  0  0  0  0
 22 17  1  0  0  0  0
  1 32  1  0  0  0  0
  1 33  1  0  0  0  0
  1 34  1  0  0  0  0
  3 35  1  0  0  0  0
  4 36  1  0  0  0  0
  9 37  1  0  0  0  0
 10 38  1  0  0  0  0
 11 39  1  0  0  0  0
 12 40  1  0  0  0  0
 14 41  1  0  0  0  0
 14 42  1  0  0  0  0
 16 43  1  0  0  0  0
 18 44  1  0  0  0  0
 19 45  1  0  0  0  0
 20 46  1  0  0  0  0
 21 47  1  0  0  0  0
 22 48  1  0  0  0  0
 23 49  1  0  0  0  0
 25 50  1  0  0  0  0
 26 51  1  0  0  0  0
 27 52  1  0  0  0  0
 28 53  1  0  0  0  0
 29 54  1  0  0  0  0
 30 55  1  0  0  0  0
 31 56  1  0  0  0  0
M  END
