
  xtb     03022215383D
 energy: -123.496143340781 gnorm: 0.000298606442 xtb: 6.4.1 (afa7bdf)
 80 87  0     0  0            999 V2000
    0.5837    7.0219    0.8686 C   0  0  0  0  0  0  0  0  0  0  0  0
    0.4489    5.5340    0.7541 C   0  0  0  0  0  0  0  0  0  0  0  0
    0.5324    4.7217    1.8754 C   0  0  0  0  0  0  0  0  0  0  0  0
    0.4283    3.3423    1.7787 C   0  0  0  0  0  0  0  0  0  0  0  0
    0.5175    2.4723    2.9953 C   0  0  0  0  0  0  0  0  0  0  0  0
    0.2333    2.7666    0.5232 C   0  0  0  0  0  0  0  0  0  0  0  0
    0.1161    1.2983    0.4061 C   0  0  0  0  0  0  0  0  0  0  0  0
   -1.1405    0.7013    0.3768 C   0  0  0  0  0  0  0  0  0  0  0  0
   -2.4153    1.3016    0.3718 C   0  0  0  0  0  0  0  0  0  0  0  0
   -3.3435    0.2895    0.2141 C   0  0  0  0  0  0  0  0  0  0  0  0
   -4.7944    0.4339    0.1749 C   0  0  0  0  0  0  0  0  0  0  0  0
   -5.6285   -0.4937    0.7972 C   0  0  0  0  0  0  0  0  0  0  0  0
   -7.0008   -0.3379    0.7554 C   0  0  0  0  0  0  0  0  0  0  0  0
   -7.5623    0.7443    0.0976 C   0  0  0  0  0  0  0  0  0  0  0  0
   -6.7414    1.6776   -0.5131 C   0  0  0  0  0  0  0  0  0  0  0  0
   -5.3683    1.5260   -0.4736 C   0  0  0  0  0  0  0  0  0  0  0  0
   -2.6087   -0.9264    0.1337 C   0  0  0  0  0  0  0  0  0  0  0  0
   -3.1718   -2.2466   -0.1174 C   0  0  0  0  0  0  0  0  0  0  0  0
   -4.0947   -2.3937   -1.1547 C   0  0  0  0  0  0  0  0  0  0  0  0
   -4.6573   -3.6266   -1.4178 C   0  0  0  0  0  0  0  0  0  0  0  0
   -4.3156   -4.7262   -0.6469 C   0  0  0  0  0  0  0  0  0  0  0  0
   -3.4043   -4.5860    0.3859 C   0  0  0  0  0  0  0  0  0  0  0  0
   -2.8321   -3.3561    0.6527 C   0  0  0  0  0  0  0  0  0  0  0  0
   -1.2997   -0.6622    0.2386 N   0  0  0  0  0  4  0  0  0  0  0  0
   -0.1116   -1.6576    0.3093 B   0  0  0  0  0  4  0  0  0  0  0  0
   -0.2299   -2.6294   -0.6524 F   0  0  0  0  0  0  0  0  0  0  0  0
   -0.0951   -2.2210    1.5807 F   0  0  0  0  0  0  0  0  0  0  0  0
    1.2001   -0.8511    0.1201 N   0  0  0  0  0  0  0  0  0  0  0  0
    1.2602    0.5205    0.2555 C   0  0  0  0  0  0  0  0  0  0  0  0
    2.6025    0.9242    0.1122 C   0  0  0  0  0  0  0  0  0  0  0  0
    3.3497   -0.2151   -0.1211 C   0  0  0  0  0  0  0  0  0  0  0  0
    4.7953   -0.2898   -0.3013 C   0  0  0  0  0  0  0  0  0  0  0  0
    5.5377   -1.3288    0.2579 C   0  0  0  0  0  0  0  0  0  0  0  0
    6.9077   -1.3797    0.0862 C   0  0  0  0  0  0  0  0  0  0  0  0
    7.5586   -0.3966   -0.6410 C   0  0  0  0  0  0  0  0  0  0  0  0
    6.8309    0.6456   -1.1908 C   0  0  0  0  0  0  0  0  0  0  0  0
    5.4605    0.7011   -1.0210 C   0  0  0  0  0  0  0  0  0  0  0  0
    2.4382   -1.3077   -0.1102 C   0  0  0  0  0  0  0  0  0  0  0  0
    2.7715   -2.6975   -0.3933 C   0  0  0  0  0  0  0  0  0  0  0  0
    3.5569   -2.9836   -1.5116 C   0  0  0  0  0  0  0  0  0  0  0  0
    3.9012   -4.2876   -1.8065 C   0  0  0  0  0  0  0  0  0  0  0  0
    3.4761   -5.3219   -0.9881 C   0  0  0  0  0  0  0  0  0  0  0  0
    2.7007   -5.0443    0.1248 C   0  0  0  0  0  0  0  0  0  0  0  0
    2.3470   -3.7419    0.4244 C   0  0  0  0  0  0  0  0  0  0  0  0
    0.1480    3.5639   -0.6192 C   0  0  0  0  0  0  0  0  0  0  0  0
   -0.0542    2.9335   -1.9640 C   0  0  0  0  0  0  0  0  0  0  0  0
    0.2582    4.9389   -0.4855 C   0  0  0  0  0  0  0  0  0  0  0  0
   -0.0940    7.5252    0.1824 H   0  0  0  0  0  0  0  0  0  0  0  0
    1.6006    7.3241    0.6160 H   0  0  0  0  0  0  0  0  0  0  0  0
    0.3730    7.3553    1.8816 H   0  0  0  0  0  0  0  0  0  0  0  0
    0.6813    5.1710    2.8469 H   0  0  0  0  0  0  0  0  0  0  0  0
    0.6344    3.0744    3.8926 H   0  0  0  0  0  0  0  0  0  0  0  0
   -0.3803    1.8634    3.0955 H   0  0  0  0  0  0  0  0  0  0  0  0
    1.3666    1.7942    2.9167 H   0  0  0  0  0  0  0  0  0  0  0  0
   -2.6029    2.3515    0.4873 H   0  0  0  0  0  0  0  0  0  0  0  0
   -5.1960   -1.3311    1.3238 H   0  0  0  0  0  0  0  0  0  0  0  0
   -7.6363   -1.0639    1.2410 H   0  0  0  0  0  0  0  0  0  0  0  0
   -8.6354    0.8615    0.0637 H   0  0  0  0  0  0  0  0  0  0  0  0
   -7.1738    2.5256   -1.0244 H   0  0  0  0  0  0  0  0  0  0  0  0
   -4.7296    2.2486   -0.9608 H   0  0  0  0  0  0  0  0  0  0  0  0
   -4.3536   -1.5388   -1.7622 H   0  0  0  0  0  0  0  0  0  0  0  0
   -5.3637   -3.7310   -2.2283 H   0  0  0  0  0  0  0  0  0  0  0  0
   -4.7581   -5.6898   -0.8531 H   0  0  0  0  0  0  0  0  0  0  0  0
   -3.1356   -5.4408    0.9888 H   0  0  0  0  0  0  0  0  0  0  0  0
   -2.1314   -3.2513    1.4638 H   0  0  0  0  0  0  0  0  0  0  0  0
    2.9540    1.9348    0.1896 H   0  0  0  0  0  0  0  0  0  0  0  0
    5.0374   -2.0897    0.8378 H   0  0  0  0  0  0  0  0  0  0  0  0
    7.4717   -2.1901    0.5244 H   0  0  0  0  0  0  0  0  0  0  0  0
    8.6292   -0.4408   -0.7761 H   0  0  0  0  0  0  0  0  0  0  0  0
    7.3339    1.4169   -1.7561 H   0  0  0  0  0  0  0  0  0  0  0  0
    4.8925    1.5085   -1.4603 H   0  0  0  0  0  0  0  0  0  0  0  0
    3.8801   -2.1786   -2.1553 H   0  0  0  0  0  0  0  0  0  0  0  0
    4.5023   -4.4986   -2.6789 H   0  0  0  0  0  0  0  0  0  0  0  0
    3.7480   -6.3413   -1.2195 H   0  0  0  0  0  0  0  0  0  0  0  0
    2.3676   -5.8477    0.7650 H   0  0  0  0  0  0  0  0  0  0  0  0
    1.7521   -3.5314    1.2971 H   0  0  0  0  0  0  0  0  0  0  0  0
    0.7466    2.2263   -2.1777 H   0  0  0  0  0  0  0  0  0  0  0  0
   -0.0710    3.6895   -2.7449 H   0  0  0  0  0  0  0  0  0  0  0  0
   -0.9937    2.3823   -1.9910 H   0  0  0  0  0  0  0  0  0  0  0  0
    0.1930    5.5613   -1.3668 H   0  0  0  0  0  0  0  0  0  0  0  0
  1  2  1  0  0  0  0
  2  3  2  0  0  0  0
  3  4  1  0  0  0  0
  4  5  1  0  0  0  0
  4  6  2  0  0  0  0
  6  7  1  0  0  0  0
  7  8  2  0  0  0  0
  8  9  1  0  0  0  0
  9 10  2  0  0  0  0
 10 11  1  0  0  0  0
 11 12  2  0  0  0  0
 12 13  1  0  0  0  0
 13 14  2  0  0  0  0
 14 15  1  0  0  0  0
 15 16  2  0  0  0  0
 10 17  1  0  0  0  0
 17 18  1  0  0  0  0
 18 19  2  0  0  0  0
 19 20  1  0  0  0  0
 20 21  2  0  0  0  0
 21 22  1  0  0  0  0
 22 23  2  0  0  0  0
 17 24  2  0  0  0  0
 24 25  1  0  0  0  0
 25 26  1  0  0  0  0
 25 27  1  0  0  0  0
 25 28  1  0  0  0  0
 28 29  1  0  0  0  0
 29 30  2  0  0  0  0
 30 31  1  0  0  0  0
 31 32  1  0  0  0  0
 32 33  2  0  0  0  0
 33 34  1  0  0  0  0
 34 35  2  0  0  0  0
 35 36  1  0  0  0  0
 36 37  2  0  0  0  0
 31 38  2  0  0  0  0
 38 39  1  0  0  0  0
 39 40  2  0  0  0  0
 40 41  1  0  0  0  0
 41 42  2  0  0  0  0
 42 43  1  0  0  0  0
 43 44  2  0  0  0  0
  6 45  1  0  0  0  0
 45 46  1  0  0  0  0
 45 47  2  0  0  0  0
 47  2  1  0  0  0  0
 29  7  1  0  0  0  0
 37 32  1  0  0  0  0
 44 39  1  0  0  0  0
 24  8  1  0  0  0  0
 38 28  1  0  0  0  0
 16 11  1  0  0  0  0
 23 18  1  0  0  0  0
  1 48  1  0  0  0  0
  1 49  1  0  0  0  0
  1 50  1  0  0  0  0
  3 51  1  0  0  0  0
  5 52  1  0  0  0  0
  5 53  1  0  0  0  0
  5 54  1  0  0  0  0
  9 55  1  0  0  0  0
 12 56  1  0  0  0  0
 13 57  1  0  0  0  0
 14 58  1  0  0  0  0
 15 59  1  0  0  0  0
 16 60  1  0  0  0  0
 19 61  1  0  0  0  0
 20 62  1  0  0  0  0
 21 63  1  0  0  0  0
 22 64  1  0  0  0  0
 23 65  1  0  0  0  0
 30 66  1  0  0  0  0
 33 67  1  0  0  0  0
 34 68  1  0  0  0  0
 35 69  1  0  0  0  0
 36 70  1  0  0  0  0
 37 71  1  0  0  0  0
 40 72  1  0  0  0  0
 41 73  1  0  0  0  0
 42 74  1  0  0  0  0
 43 75  1  0  0  0  0
 44 76  1  0  0  0  0
 46 77  1  0  0  0  0
 46 78  1  0  0  0  0
 46 79  1  0  0  0  0
 47 80  1  0  0  0  0
M  CHG  1  24   1
M  CHG  1  25  -1
M  END
