
  xtb     03022214173D
 energy: -53.605745859785 gnorm: 0.000189145928 xtb: 6.4.1 (afa7bdf)
 31 35  0     0  0            999 V2000
   -1.6875    2.6935    0.0820 O   0  0  0  0  0  0  0  0  0  0  0  0
   -1.6454    1.4851    0.0863 C   0  0  0  0  0  0  0  0  0  0  0  0
   -2.7624    0.5186    0.0707 C   0  0  0  0  0  0  0  0  0  0  0  0
   -4.1268    0.7364    0.0474 C   0  0  0  0  0  0  0  0  0  0  0  0
   -4.9590   -0.3747    0.0370 C   0  0  0  0  0  0  0  0  0  0  0  0
   -4.4376   -1.6626    0.0494 C   0  0  0  0  0  0  0  0  0  0  0  0
   -3.0680   -1.8857    0.0727 C   0  0  0  0  0  0  0  0  0  0  0  0
   -2.2378   -0.7804    0.0832 C   0  0  0  0  0  0  0  0  0  0  0  0
   -0.7908   -0.6640    0.1068 C   0  0  0  0  0  0  0  0  0  0  0  0
    0.0580   -1.6131    0.1236 N   0  0  0  0  0  0  0  0  0  0  0  0
    1.3982   -1.2891    0.1449 C   0  0  0  0  0  0  0  0  0  0  0  0
    2.3426   -2.2962    0.1635 C   0  0  0  0  0  0  0  0  0  0  0  0
    3.7017   -1.9748    0.1850 C   0  0  0  0  0  0  0  0  0  0  0  0
    4.1181   -0.6687    0.1880 C   0  0  0  0  0  0  0  0  0  0  0  0
    3.1857    0.3912    0.1694 C   0  0  0  0  0  0  0  0  0  0  0  0
    3.5624    1.7499    0.1716 C   0  0  0  0  0  0  0  0  0  0  0  0
    2.6111    2.7343    0.1530 C   0  0  0  0  0  0  0  0  0  0  0  0
    1.2453    2.4295    0.1313 C   0  0  0  0  0  0  0  0  0  0  0  0
    0.8466    1.1123    0.1286 C   0  0  0  0  0  0  0  0  0  0  0  0
    1.8083    0.0723    0.1476 C   0  0  0  0  0  0  0  0  0  0  0  0
   -0.4913    0.7043    0.1077 N   0  0  0  0  0  0  0  0  0  0  0  0
   -4.5213    1.7405    0.0379 H   0  0  0  0  0  0  0  0  0  0  0  0
   -6.0298   -0.2369    0.0188 H   0  0  0  0  0  0  0  0  0  0  0  0
   -5.1125   -2.5055    0.0407 H   0  0  0  0  0  0  0  0  0  0  0  0
   -2.6544   -2.8812    0.0825 H   0  0  0  0  0  0  0  0  0  0  0  0
    2.0128   -3.3226    0.1611 H   0  0  0  0  0  0  0  0  0  0  0  0
    4.4297   -2.7726    0.1994 H   0  0  0  0  0  0  0  0  0  0  0  0
    5.1712   -0.4290    0.2047 H   0  0  0  0  0  0  0  0  0  0  0  0
    4.6130    1.9990    0.1883 H   0  0  0  0  0  0  0  0  0  0  0  0
    2.9074    3.7727    0.1548 H   0  0  0  0  0  0  0  0  0  0  0  0
    0.5124    3.2182    0.1168 H   0  0  0  0  0  0  0  0  0  0  0  0
  1  2  2  0  0  0  0
  2  3  1  0  0  0  0
  3  4  2  0  0  0  0
  4  5  1  0  0  0  0
  5  6  2  0  0  0  0
  6  7  1  0  0  0  0
  7  8  2  0  0  0  0
  8  9  1  0  0  0  0
  9 10  2  0  0  0  0
 10 11  1  0  0  0  0
 11 12  2  0  0  0  0
 12 13  1  0  0  0  0
 13 14  2  0  0  0  0
 14 15  1  0  0  0  0
 15 16  2  0  0  0  0
 16 17  1  0  0  0  0
 17 18  2  0  0  0  0
 18 19  1  0  0  0  0
 19 20  2  0  0  0  0
 19 21  1  0  0  0  0
 21  2  1  0  0  0  0
  8  3  1  0  0  0  0
 21  9  1  0  0  0  0
 20 11  1  0  0  0  0
 20 15  1  0  0  0  0
  4 22  1  0  0  0  0
  5 23  1  0  0  0  0
  6 24  1  0  0  0  0
  7 25  1  0  0  0  0
 12 26  1  0  0  0  0
 13 27  1  0  0  0  0
 14 28  1  0  0  0  0
 16 29  1  0  0  0  0
 17 30  1  0  0  0  0
 18 31  1  0  0  0  0
M  END
