
  xtb     03022214203D
 energy: -57.664741115461 gnorm: 0.000156955907 xtb: 6.4.1 (afa7bdf)
 34 36  0     0  0            999 V2000
    5.4649    0.4862    0.1229 C   0  0  0  0  0  0  0  0  0  0  0  0
    4.5773   -0.5468   -0.2372 O   0  0  0  0  0  0  0  0  0  0  0  0
    3.2419   -0.2983   -0.1863 C   0  0  0  0  0  0  0  0  0  0  0  0
    2.4288   -1.3733   -0.5498 C   0  0  0  0  0  0  0  0  0  0  0  0
    1.0388   -1.2808   -0.5468 C   0  0  0  0  0  0  0  0  0  0  0  0
    0.2012   -2.2902   -0.8896 O   0  0  0  0  0  0  0  0  0  0  0  0
    0.7537   -3.5244   -1.2828 C   0  0  0  0  0  0  0  0  0  0  0  0
    0.4705   -0.0651   -0.1641 C   0  0  0  0  0  0  0  0  0  0  0  0
    1.2978    1.0053    0.1947 C   0  0  0  0  0  0  0  0  0  0  0  0
    2.6746    0.9187    0.1931 C   0  0  0  0  0  0  0  0  0  0  0  0
    0.4530    2.1817    0.5573 C   0  0  0  0  0  0  0  0  0  0  0  0
    0.8367    3.2742    0.9126 O   0  0  0  0  0  0  0  0  0  0  0  0
   -0.9327    1.7066    0.3837 C   0  0  0  0  0  0  0  0  0  0  0  0
   -2.1266    2.3668    0.5801 C   0  0  0  0  0  0  0  0  0  0  0  0
   -3.3205    1.6936    0.3508 C   0  0  0  0  0  0  0  0  0  0  0  0
   -3.3113    0.3673   -0.0730 C   0  0  0  0  0  0  0  0  0  0  0  0
   -4.4230   -0.3703   -0.3193 O   0  0  0  0  0  0  0  0  0  0  0  0
   -5.6885    0.2182   -0.1367 C   0  0  0  0  0  0  0  0  0  0  0  0
   -2.0955   -0.3086   -0.2765 C   0  0  0  0  0  0  0  0  0  0  0  0
   -0.9202    0.3621   -0.0476 C   0  0  0  0  0  0  0  0  0  0  0  0
    5.3624    1.3518   -0.5386 H   0  0  0  0  0  0  0  0  0  0  0  0
    6.4635    0.0660    0.0150 H   0  0  0  0  0  0  0  0  0  0  0  0
    5.3140    0.8008    1.1600 H   0  0  0  0  0  0  0  0  0  0  0  0
    2.9322   -2.2831   -0.8331 H   0  0  0  0  0  0  0  0  0  0  0  0
   -0.0956   -4.1670   -1.5097 H   0  0  0  0  0  0  0  0  0  0  0  0
    1.3434   -3.9747   -0.4784 H   0  0  0  0  0  0  0  0  0  0  0  0
    1.3765   -3.4188   -2.1764 H   0  0  0  0  0  0  0  0  0  0  0  0
    3.2625    1.7749    0.4793 H   0  0  0  0  0  0  0  0  0  0  0  0
   -2.1331    3.3950    0.9092 H   0  0  0  0  0  0  0  0  0  0  0  0
   -4.2512    2.2153    0.5070 H   0  0  0  0  0  0  0  0  0  0  0  0
   -5.8327    1.0757   -0.8015 H   0  0  0  0  0  0  0  0  0  0  0  0
   -5.8396    0.5322    0.9009 H   0  0  0  0  0  0  0  0  0  0  0  0
   -6.4118   -0.5564   -0.3869 H   0  0  0  0  0  0  0  0  0  0  0  0
   -2.1117   -1.3342   -0.6050 H   0  0  0  0  0  0  0  0  0  0  0  0
  1  2  1  0  0  0  0
  2  3  1  0  0  0  0
  3  4  2  0  0  0  0
  4  5  1  0  0  0  0
  5  6  1  0  0  0  0
  6  7  1  0  0  0  0
  5  8  2  0  0  0  0
  8  9  1  0  0  0  0
  9 10  2  0  0  0  0
  9 11  1  0  0  0  0
 11 12  2  0  0  0  0
 11 13  1  0  0  0  0
 13 14  2  0  0  0  0
 14 15  1  0  0  0  0
 15 16  2  0  0  0  0
 16 17  1  0  0  0  0
 17 18  1  0  0  0  0
 16 19  1  0  0  0  0
 19 20  2  0  0  0  0
 10  3  1  0  0  0  0
 20 13  1  0  0  0  0
 20  8  1  0  0  0  0
  1 21  1  0  0  0  0
  1 22  1  0  0  0  0
  1 23  1  0  0  0  0
  4 24  1  0  0  0  0
  7 25  1  0  0  0  0
  7 26  1  0  0  0  0
  7 27  1  0  0  0  0
 10 28  1  0  0  0  0
 14 29  1  0  0  0  0
 15 30  1  0  0  0  0
 18 31  1  0  0  0  0
 18 32  1  0  0  0  0
 18 33  1  0  0  0  0
 19 34  1  0  0  0  0
M  END
