
  xtb     03022212003D
 energy: -59.453805640381 gnorm: 0.000352191854 xtb: 6.4.1 (afa7bdf)
 38 40  0     0  0            999 V2000
    6.7994    0.8146   -0.7240 C   0  0  0  0  0  0  0  0  0  0  0  0
    5.6835    0.4235   -1.4881 O   0  0  0  0  0  0  0  0  0  0  0  0
    4.4851    0.2760   -0.8663 C   0  0  0  0  0  0  0  0  0  0  0  0
    4.2627    0.4692    0.4953 C   0  0  0  0  0  0  0  0  0  0  0  0
    2.9975    0.2956    1.0230 C   0  0  0  0  0  0  0  0  0  0  0  0
    1.9438   -0.0718    0.1967 C   0  0  0  0  0  0  0  0  0  0  0  0
    0.6717   -0.2367    0.7312 N   0  0  0  0  0  0  0  0  0  0  0  0
    0.4134   -0.0698    1.9965 N   0  0  0  0  0  0  0  0  0  0  0  0
   -0.8936   -0.3061    2.1271 C   0  0  0  0  0  0  0  0  0  0  0  0
   -1.5453   -0.2427    3.3604 C   0  0  0  0  0  0  0  0  0  0  0  0
   -2.0875   -0.1925    4.3729 N   0  0  0  0  0  0  0  0  0  0  0  0
   -1.4031   -0.6258    0.8256 C   0  0  0  0  0  0  0  0  0  0  0  0
   -2.6395   -1.0068    0.4493 N   0  0  0  0  0  0  0  0  0  0  0  0
   -3.8132   -0.7162    1.2478 C   0  0  0  0  0  0  0  0  0  0  0  0
   -4.8256    0.1140    0.4421 C   0  0  0  0  0  0  0  0  0  0  0  0
   -4.0758    1.0160   -0.5347 C   0  0  0  0  0  0  0  0  0  0  0  0
   -3.3579    0.1628   -1.5884 C   0  0  0  0  0  0  0  0  0  0  0  0
   -2.9074   -1.1678   -0.9621 C   0  0  0  0  0  0  0  0  0  0  0  0
   -0.3747   -0.5676   -0.0190 N   0  0  0  0  0  0  0  0  0  0  0  0
    2.1561   -0.2709   -1.1654 C   0  0  0  0  0  0  0  0  0  0  0  0
    3.4167   -0.0981   -1.6876 C   0  0  0  0  0  0  0  0  0  0  0  0
    7.0357    0.0771    0.0495 H   0  0  0  0  0  0  0  0  0  0  0  0
    6.6448    1.7936   -0.2595 H   0  0  0  0  0  0  0  0  0  0  0  0
    7.6289    0.8770   -1.4264 H   0  0  0  0  0  0  0  0  0  0  0  0
    5.0661    0.7551    1.1548 H   0  0  0  0  0  0  0  0  0  0  0  0
    2.8139    0.4430    2.0752 H   0  0  0  0  0  0  0  0  0  0  0  0
   -3.5099   -0.1674    2.1400 H   0  0  0  0  0  0  0  0  0  0  0  0
   -4.2686   -1.6603    1.5730 H   0  0  0  0  0  0  0  0  0  0  0  0
   -5.4990   -0.5390   -0.1156 H   0  0  0  0  0  0  0  0  0  0  0  0
   -5.4291    0.7074    1.1289 H   0  0  0  0  0  0  0  0  0  0  0  0
   -3.3465    1.6081    0.0234 H   0  0  0  0  0  0  0  0  0  0  0  0
   -4.7634    1.7106   -1.0179 H   0  0  0  0  0  0  0  0  0  0  0  0
   -2.4933    0.7052   -1.9713 H   0  0  0  0  0  0  0  0  0  0  0  0
   -4.0241   -0.0451   -2.4265 H   0  0  0  0  0  0  0  0  0  0  0  0
   -3.6937   -1.9218   -1.0572 H   0  0  0  0  0  0  0  0  0  0  0  0
   -2.0027   -1.5390   -1.4426 H   0  0  0  0  0  0  0  0  0  0  0  0
    1.3262   -0.5574   -1.7905 H   0  0  0  0  0  0  0  0  0  0  0  0
    3.6081   -0.2456   -2.7383 H   0  0  0  0  0  0  0  0  0  0  0  0
  1  2  1  0  0  0  0
  2  3  1  0  0  0  0
  3  4  2  0  0  0  0
  4  5  1  0  0  0  0
  5  6  2  0  0  0  0
  6  7  1  0  0  0  0
  7  8  1  0  0  0  0
  8  9  2  0  0  0  0
  9 10  1  0  0  0  0
 10 11  3  0  0  0  0
  9 12  1  0  0  0  0
 12 13  1  0  0  0  0
 13 14  1  0  0  0  0
 14 15  1  0  0  0  0
 15 16  1  0  0  0  0
 16 17  1  0  0  0  0
 17 18  1  0  0  0  0
 12 19  2  0  0  0  0
  6 20  1  0  0  0  0
 20 21  2  0  0  0  0
 21  3  1  0  0  0  0
 19  7  1  0  0  0  0
 18 13  1  0  0  0  0
  1 22  1  0  0  0  0
  1 23  1  0  0  0  0
  1 24  1  0  0  0  0
  4 25  1  0  0  0  0
  5 26  1  0  0  0  0
 14 27  1  0  0  0  0
 14 28  1  0  0  0  0
 15 29  1  0  0  0  0
 15 30  1  0  0  0  0
 16 31  1  0  0  0  0
 16 32  1  0  0  0  0
 17 33  1  0  0  0  0
 17 34  1  0  0  0  0
 18 35  1  0  0  0  0
 18 36  1  0  0  0  0
 20 37  1  0  0  0  0
 21 38  1  0  0  0  0
M  END
