
  xtb     03022214503D
 energy: -38.216290344122 gnorm: 0.000078188808 xtb: 6.4.1 (afa7bdf)
 27 29  0     0  0            999 V2000
    0.7891   -1.4179   -1.3768 C   0  0  0  0  0  0  0  0  0  0  0  0
   -0.2197   -0.7665   -1.9730 C   0  0  0  0  0  0  0  0  0  0  0  0
   -1.0563    0.2647   -1.3824 C   0  0  0  0  0  0  0  0  0  0  0  0
   -2.4118    0.3028   -1.7159 C   0  0  0  0  0  0  0  0  0  0  0  0
   -3.2616    1.2208   -1.1339 C   0  0  0  0  0  0  0  0  0  0  0  0
   -2.7678    2.1291   -0.2109 C   0  0  0  0  0  0  0  0  0  0  0  0
   -1.4214    2.1231    0.1052 C   0  0  0  0  0  0  0  0  0  0  0  0
   -0.5563    1.2120   -0.4815 C   0  0  0  0  0  0  0  0  0  0  0  0
    0.9163    1.2422   -0.1933 C   0  0  0  0  0  0  0  0  0  0  0  0
    1.2821    0.0250    0.6050 C   0  0  0  0  0  0  0  0  0  0  0  0
    1.6700    0.1270    1.9323 C   0  0  0  0  0  0  0  0  0  0  0  0
    2.0641   -0.9908    2.6450 C   0  0  0  0  0  0  0  0  0  0  0  0
    2.0830   -2.2303    2.0250 C   0  0  0  0  0  0  0  0  0  0  0  0
    1.6889   -2.3451    0.7078 C   0  0  0  0  0  0  0  0  0  0  0  0
    1.2585   -1.2300   -0.0142 C   0  0  0  0  0  0  0  0  0  0  0  0
    1.2487   -2.2429   -1.9083 H   0  0  0  0  0  0  0  0  0  0  0  0
   -0.5280   -1.0956   -2.9585 H   0  0  0  0  0  0  0  0  0  0  0  0
   -2.7978   -0.4150   -2.4262 H   0  0  0  0  0  0  0  0  0  0  0  0
   -4.3090    1.2307   -1.3976 H   0  0  0  0  0  0  0  0  0  0  0  0
   -3.4280    2.8499    0.2485 H   0  0  0  0  0  0  0  0  0  0  0  0
   -1.0317    2.8469    0.8073 H   0  0  0  0  0  0  0  0  0  0  0  0
    1.4662    1.2272   -1.1400 H   0  0  0  0  0  0  0  0  0  0  0  0
    1.1778    2.1484    0.3543 H   0  0  0  0  0  0  0  0  0  0  0  0
    1.6778    1.0973    2.4087 H   0  0  0  0  0  0  0  0  0  0  0  0
    2.3710   -0.8945    3.6760 H   0  0  0  0  0  0  0  0  0  0  0  0
    2.4053   -3.1049    2.5709 H   0  0  0  0  0  0  0  0  0  0  0  0
    1.6905   -3.3132    0.2267 H   0  0  0  0  0  0  0  0  0  0  0  0
  1  2  2  0  0  0  0
  2  3  1  0  0  0  0
  3  4  2  0  0  0  0
  4  5  1  0  0  0  0
  5  6  2  0  0  0  0
  6  7  1  0  0  0  0
  7  8  2  0  0  0  0
  8  9  1  0  0  0  0
  9 10  1  0  0  0  0
 10 11  2  0  0  0  0
 11 12  1  0  0  0  0
 12 13  2  0  0  0  0
 13 14  1  0  0  0  0
 14 15  2  0  0  0  0
 15  1  1  0  0  0  0
  8  3  1  0  0  0  0
 15 10  1  0  0  0  0
  1 16  1  0  0  0  0
  2 17  1  0  0  0  0
  4 18  1  0  0  0  0
  5 19  1  0  0  0  0
  6 20  1  0  0  0  0
  7 21  1  0  0  0  0
  9 22  1  0  0  0  0
  9 23  1  0  0  0  0
 11 24  1  0  0  0  0
 12 25  1  0  0  0  0
 13 26  1  0  0  0  0
 14 27  1  0  0  0  0
M  END
