
  xtb     03022212573D
 energy: -57.147944017234 gnorm: 0.000122896342 xtb: 6.4.1 (afa7bdf)
 31 33  0     0  0            999 V2000
   -2.1056    3.6897    0.9553 N   0  0  0  0  0  0  0  0  0  0  0  0
   -1.3747    2.8264    0.7553 C   0  0  0  0  0  0  0  0  0  0  0  0
   -0.5118    1.7578    0.5036 C   0  0  0  0  0  0  0  0  0  0  0  0
    0.8082    1.8271    0.6412 N   0  0  0  0  0  0  0  0  0  0  0  0
    1.2515    0.6421    0.3296 N   0  0  0  0  0  0  0  0  0  0  0  0
    2.6050    0.3165    0.3563 C   0  0  0  0  0  0  0  0  0  0  0  0
    3.0335   -0.9269    0.8330 C   0  0  0  0  0  0  0  0  0  0  0  0
    1.8975   -2.0624    1.4418 Cl  0  0  0  0  0  0  0  0  0  0  0  0
    4.3800   -1.2523    0.8514 C   0  0  0  0  0  0  0  0  0  0  0  0
    5.3160   -0.3368    0.4049 C   0  0  0  0  0  0  0  0  0  0  0  0
    4.9147    0.9011   -0.0645 C   0  0  0  0  0  0  0  0  0  0  0  0
    3.5681    1.2266   -0.0949 C   0  0  0  0  0  0  0  0  0  0  0  0
    3.0909    2.7541   -0.7245 Cl  0  0  0  0  0  0  0  0  0  0  0  0
    0.3185   -0.2413   -0.0194 N   0  0  0  0  0  0  0  0  0  0  0  0
   -0.8287    0.4240    0.0764 C   0  0  0  0  0  0  0  0  0  0  0  0
   -2.0170   -0.1149   -0.2092 N   0  0  0  0  0  0  0  0  0  0  0  0
   -2.1632   -1.5241   -0.5135 C   0  0  0  0  0  0  0  0  0  0  0  0
   -3.6237   -1.8129   -0.1786 C   0  0  0  0  0  0  0  0  0  0  0  0
   -4.3065   -0.4800   -0.4858 C   0  0  0  0  0  0  0  0  0  0  0  0
   -3.2863    0.5488   -0.0015 C   0  0  0  0  0  0  0  0  0  0  0  0
    4.6831   -2.2167    1.2255 H   0  0  0  0  0  0  0  0  0  0  0  0
    6.3642   -0.5894    0.4238 H   0  0  0  0  0  0  0  0  0  0  0  0
    5.6362    1.6191   -0.4185 H   0  0  0  0  0  0  0  0  0  0  0  0
   -1.9552   -1.6972   -1.5765 H   0  0  0  0  0  0  0  0  0  0  0  0
   -1.4525   -2.1112    0.0721 H   0  0  0  0  0  0  0  0  0  0  0  0
   -4.0273   -2.6370   -0.7623 H   0  0  0  0  0  0  0  0  0  0  0  0
   -3.7264   -2.0500    0.8810 H   0  0  0  0  0  0  0  0  0  0  0  0
   -4.4570   -0.3782   -1.5610 H   0  0  0  0  0  0  0  0  0  0  0  0
   -5.2662   -0.3707    0.0135 H   0  0  0  0  0  0  0  0  0  0  0  0
   -3.4312    0.7821    1.0619 H   0  0  0  0  0  0  0  0  0  0  0  0
   -3.3341    1.4865   -0.5618 H   0  0  0  0  0  0  0  0  0  0  0  0
  1  2  3  0  0  0  0
  2  3  1  0  0  0  0
  3  4  2  0  0  0  0
  4  5  1  0  0  0  0
  5  6  1  0  0  0  0
  6  7  2  0  0  0  0
  7  8  1  0  0  0  0
  7  9  1  0  0  0  0
  9 10  2  0  0  0  0
 10 11  1  0  0  0  0
 11 12  2  0  0  0  0
 12 13  1  0  0  0  0
  5 14  1  0  0  0  0
 14 15  2  0  0  0  0
 15 16  1  0  0  0  0
 16 17  1  0  0  0  0
 17 18  1  0  0  0  0
 18 19  1  0  0  0  0
 19 20  1  0  0  0  0
 15  3  1  0  0  0  0
 20 16  1  0  0  0  0
 12  6  1  0  0  0  0
  9 21  1  0  0  0  0
 10 22  1  0  0  0  0
 11 23  1  0  0  0  0
 17 24  1  0  0  0  0
 17 25  1  0  0  0  0
 18 26  1  0  0  0  0
 18 27  1  0  0  0  0
 19 28  1  0  0  0  0
 19 29  1  0  0  0  0
 20 30  1  0  0  0  0
 20 31  1  0  0  0  0
M  END
