
  xtb     03022215503D
 energy: -134.735511380800 gnorm: 0.000233905502 xtb: 6.4.1 (afa7bdf)
 88 93  0     0  0            999 V2000
    0.8247    0.4502    6.1860 C   0  0  0  0  0  0  0  0  0  0  0  0
    2.2302    0.0491    5.7645 C   0  0  0  0  0  0  0  0  0  0  0  0
    2.1960   -0.8061    4.6181 O   0  0  0  0  0  0  0  0  0  0  0  0
    2.0873   -0.2205    3.4286 C   0  0  0  0  0  0  0  0  0  0  0  0
    2.0883    0.9665    3.2433 O   0  0  0  0  0  0  0  0  0  0  0  0
    1.9910   -1.2721    2.3252 C   0  0  0  0  0  0  0  0  0  0  0  0
    1.2199   -0.7998    1.2119 N   0  0  0  0  0  0  0  0  0  0  0  0
   -0.1890   -0.8794    1.2776 C   0  0  0  0  0  0  0  0  0  0  0  0
   -0.7646   -1.2712    2.2779 O   0  0  0  0  0  0  0  0  0  0  0  0
   -0.6296   -0.4790   -0.0299 C   0  0  0  0  0  0  0  0  0  0  0  0
   -1.7522   -0.1913   -0.7898 C   0  0  0  0  0  0  0  0  0  0  0  0
   -3.1313   -0.2892   -0.3872 C   0  0  0  0  0  0  0  0  0  0  0  0
   -4.1722    0.4673   -0.9393 C   0  0  0  0  0  0  0  0  0  0  0  0
   -5.4696    0.3223   -0.5093 C   0  0  0  0  0  0  0  0  0  0  0  0
   -5.8137   -0.5978    0.4955 C   0  0  0  0  0  0  0  0  0  0  0  0
   -7.1093   -0.7261    0.9057 N   0  0  0  0  0  0  0  0  0  0  0  0
   -8.2209   -0.4340    0.0240 C   0  0  0  0  0  0  0  0  0  0  0  0
   -9.3036   -1.5180    0.1424 C   0  0  0  0  0  0  0  0  0  0  0  0
   -8.6383   -2.8690    0.3908 C   0  0  0  0  0  0  0  0  0  0  0  0
   -7.9573   -2.8674    1.7653 C   0  0  0  0  0  0  0  0  0  0  0  0
   -7.4940   -1.4396    2.0972 C   0  0  0  0  0  0  0  0  0  0  0  0
   -4.7624   -1.3302    1.0726 C   0  0  0  0  0  0  0  0  0  0  0  0
   -3.4664   -1.1724    0.6508 C   0  0  0  0  0  0  0  0  0  0  0  0
   -1.3022    0.1921   -2.0368 N   0  0  0  0  0  0  0  0  0  0  0  0
   -2.0600    0.5120   -3.2087 C   0  0  0  0  0  0  0  0  0  0  0  0
   -2.4591    1.9827   -3.2968 C   0  0  0  0  0  0  0  0  0  0  0  0
   -3.2833    2.4050   -4.0659 O   0  0  0  0  0  0  0  0  0  0  0  0
   -1.7721    2.7172   -2.4309 O   0  0  0  0  0  0  0  0  0  0  0  0
   -1.9611    4.1317   -2.4659 C   0  0  0  0  0  0  0  0  0  0  0  0
   -1.0678    4.7715   -3.5180 C   0  0  0  0  0  0  0  0  0  0  0  0
    0.1091    0.1925   -2.1218 C   0  0  0  0  0  0  0  0  0  0  0  0
    0.6951    0.4471   -3.1581 O   0  0  0  0  0  0  0  0  0  0  0  0
    0.5407   -0.2165   -0.8164 C   0  0  0  0  0  0  0  0  0  0  0  0
    1.6618   -0.3852   -0.0263 C   0  0  0  0  0  0  0  0  0  0  0  0
    3.0400   -0.1722   -0.3882 C   0  0  0  0  0  0  0  0  0  0  0  0
    3.4438   -0.4069   -1.7093 C   0  0  0  0  0  0  0  0  0  0  0  0
    4.7466   -0.2197   -2.0981 C   0  0  0  0  0  0  0  0  0  0  0  0
    5.7246    0.2311   -1.1932 C   0  0  0  0  0  0  0  0  0  0  0  0
    7.0136    0.4238   -1.6038 N   0  0  0  0  0  0  0  0  0  0  0  0
    7.9976    1.1309   -0.8245 C   0  0  0  0  0  0  0  0  0  0  0  0
    8.8960    0.1558   -0.0458 C   0  0  0  0  0  0  0  0  0  0  0  0
    9.0692   -1.1297   -0.8645 C   0  0  0  0  0  0  0  0  0  0  0  0
    9.0010   -0.8056   -2.3544 C   0  0  0  0  0  0  0  0  0  0  0  0
    7.5837   -0.3251   -2.7048 C   0  0  0  0  0  0  0  0  0  0  0  0
    5.3021    0.5144    0.1153 C   0  0  0  0  0  0  0  0  0  0  0  0
    3.9977    0.3179    0.5058 C   0  0  0  0  0  0  0  0  0  0  0  0
    0.8708    1.0579    7.0852 H   0  0  0  0  0  0  0  0  0  0  0  0
    0.2254   -0.4354    6.3808 H   0  0  0  0  0  0  0  0  0  0  0  0
    0.3509    1.0239    5.3934 H   0  0  0  0  0  0  0  0  0  0  0  0
    2.7264   -0.5372    6.5405 H   0  0  0  0  0  0  0  0  0  0  0  0
    2.8258    0.9370    5.5272 H   0  0  0  0  0  0  0  0  0  0  0  0
    2.9961   -1.5518    1.9993 H   0  0  0  0  0  0  0  0  0  0  0  0
    1.4851   -2.1458    2.7506 H   0  0  0  0  0  0  0  0  0  0  0  0
   -3.9683    1.2240   -1.6787 H   0  0  0  0  0  0  0  0  0  0  0  0
   -6.2270    0.9604   -0.9371 H   0  0  0  0  0  0  0  0  0  0  0  0
   -7.8544   -0.4157   -1.0046 H   0  0  0  0  0  0  0  0  0  0  0  0
   -8.6484    0.5522    0.2552 H   0  0  0  0  0  0  0  0  0  0  0  0
   -9.8856   -1.5407   -0.7795 H   0  0  0  0  0  0  0  0  0  0  0  0
   -9.9899   -1.2949    0.9608 H   0  0  0  0  0  0  0  0  0  0  0  0
   -7.8938   -3.0399   -0.3898 H   0  0  0  0  0  0  0  0  0  0  0  0
   -9.3724   -3.6731    0.3327 H   0  0  0  0  0  0  0  0  0  0  0  0
   -8.6504   -3.2063    2.5365 H   0  0  0  0  0  0  0  0  0  0  0  0
   -7.1076   -3.5508    1.7544 H   0  0  0  0  0  0  0  0  0  0  0  0
   -6.6735   -1.4424    2.8133 H   0  0  0  0  0  0  0  0  0  0  0  0
   -8.3205   -0.8828    2.5531 H   0  0  0  0  0  0  0  0  0  0  0  0
   -4.9610   -2.0486    1.8515 H   0  0  0  0  0  0  0  0  0  0  0  0
   -2.6870   -1.7490    1.1206 H   0  0  0  0  0  0  0  0  0  0  0  0
   -2.9457   -0.1198   -3.3105 H   0  0  0  0  0  0  0  0  0  0  0  0
   -1.3913    0.3327   -4.0637 H   0  0  0  0  0  0  0  0  0  0  0  0
   -3.0150    4.3453   -2.6751 H   0  0  0  0  0  0  0  0  0  0  0  0
   -1.7009    4.4760   -1.4629 H   0  0  0  0  0  0  0  0  0  0  0  0
   -1.1581    5.8528   -3.4675 H   0  0  0  0  0  0  0  0  0  0  0  0
   -1.3634    4.4372   -4.5097 H   0  0  0  0  0  0  0  0  0  0  0  0
   -0.0322    4.4886   -3.3459 H   0  0  0  0  0  0  0  0  0  0  0  0
    2.7128   -0.7304   -2.4324 H   0  0  0  0  0  0  0  0  0  0  0  0
    5.0077   -0.3900   -3.1305 H   0  0  0  0  0  0  0  0  0  0  0  0
    7.5101    1.8425   -0.1594 H   0  0  0  0  0  0  0  0  0  0  0  0
    8.6086    1.7104   -1.5258 H   0  0  0  0  0  0  0  0  0  0  0  0
    8.4525   -0.0821    0.9218 H   0  0  0  0  0  0  0  0  0  0  0  0
    9.8628    0.6275    0.1355 H   0  0  0  0  0  0  0  0  0  0  0  0
    8.2679   -1.8316   -0.6235 H   0  0  0  0  0  0  0  0  0  0  0  0
   10.0173   -1.6097   -0.6200 H   0  0  0  0  0  0  0  0  0  0  0  0
    9.2344   -1.6888   -2.9499 H   0  0  0  0  0  0  0  0  0  0  0  0
    9.7418   -0.0410   -2.5938 H   0  0  0  0  0  0  0  0  0  0  0  0
    7.6085    0.2875   -3.6172 H   0  0  0  0  0  0  0  0  0  0  0  0
    6.9549   -1.1974   -2.8952 H   0  0  0  0  0  0  0  0  0  0  0  0
    6.0011    0.8890    0.8465 H   0  0  0  0  0  0  0  0  0  0  0  0
    3.7051    0.6037    1.5035 H   0  0  0  0  0  0  0  0  0  0  0  0
  1  2  1  0  0  0  0
  2  3  1  0  0  0  0
  3  4  1  0  0  0  0
  4  5  2  0  0  0  0
  4  6  1  0  0  0  0
  6  7  1  0  0  0  0
  7  8  1  0  0  0  0
  8  9  2  0  0  0  0
  8 10  1  0  0  0  0
 10 11  2  0  0  0  0
 11 12  1  0  0  0  0
 12 13  2  0  0  0  0
 13 14  1  0  0  0  0
 14 15  2  0  0  0  0
 15 16  1  0  0  0  0
 16 17  1  0  0  0  0
 17 18  1  0  0  0  0
 18 19  1  0  0  0  0
 19 20  1  0  0  0  0
 20 21  1  0  0  0  0
 15 22  1  0  0  0  0
 22 23  2  0  0  0  0
 11 24  1  0  0  0  0
 24 25  1  0  0  0  0
 25 26  1  0  0  0  0
 26 27  2  0  0  0  0
 26 28  1  0  0  0  0
 28 29  1  0  0  0  0
 29 30  1  0  0  0  0
 24 31  1  0  0  0  0
 31 32  2  0  0  0  0
 31 33  1  0  0  0  0
 33 34  2  0  0  0  0
 34 35  1  0  0  0  0
 35 36  2  0  0  0  0
 36 37  1  0  0  0  0
 37 38  2  0  0  0  0
 38 39  1  0  0  0  0
 39 40  1  0  0  0  0
 40 41  1  0  0  0  0
 41 42  1  0  0  0  0
 42 43  1  0  0  0  0
 43 44  1  0  0  0  0
 38 45  1  0  0  0  0
 45 46  2  0  0  0  0
 34  7  1  0  0  0  0
 46 35  1  0  0  0  0
 33 10  1  0  0  0  0
 44 39  1  0  0  0  0
 23 12  1  0  0  0  0
 21 16  1  0  0  0  0
  1 47  1  0  0  0  0
  1 48  1  0  0  0  0
  1 49  1  0  0  0  0
  2 50  1  0  0  0  0
  2 51  1  0  0  0  0
  6 52  1  0  0  0  0
  6 53  1  0  0  0  0
 13 54  1  0  0  0  0
 14 55  1  0  0  0  0
 17 56  1  0  0  0  0
 17 57  1  0  0  0  0
 18 58  1  0  0  0  0
 18 59  1  0  0  0  0
 19 60  1  0  0  0  0
 19 61  1  0  0  0  0
 20 62  1  0  0  0  0
 20 63  1  0  0  0  0
 21 64  1  0  0  0  0
 21 65  1  0  0  0  0
 22 66  1  0  0  0  0
 23 67  1  0  0  0  0
 25 68  1  0  0  0  0
 25 69  1  0  0  0  0
 29 70  1  0  0  0  0
 29 71  1  0  0  0  0
 30 72  1  0  0  0  0
 30 73  1  0  0  0  0
 30 74  1  0  0  0  0
 36 75  1  0  0  0  0
 37 76  1  0  0  0  0
 40 77  1  0  0  0  0
 40 78  1  0  0  0  0
 41 79  1  0  0  0  0
 41 80  1  0  0  0  0
 42 81  1  0  0  0  0
 42 82  1  0  0  0  0
 43 83  1  0  0  0  0
 43 84  1  0  0  0  0
 44 85  1  0  0  0  0
 44 86  1  0  0  0  0
 45 87  1  0  0  0  0
 46 88  1  0  0  0  0
M  END
