
  xtb     03022213193D
 energy: -121.036907970214 gnorm: 0.000168361725 xtb: 6.4.1 (afa7bdf)
 65 70  0     0  0            999 V2000
   -5.5746   -1.4702   -1.4297 N   0  0  0  0  0  0  0  0  0  0  0  0
   -5.5509   -0.4922   -0.8322 C   0  0  0  0  0  0  0  0  0  0  0  0
   -5.5006    0.9232    0.0803 S   0  0  0  0  0  0  0  0  0  0  0  0
   -3.7394    1.0055    0.2422 C   0  0  0  0  0  0  0  0  0  0  0  0
   -2.9250    2.0307   -0.1714 C   0  0  0  0  0  0  0  0  0  0  0  0
   -1.6173    1.6757    0.2049 C   0  0  0  0  0  0  0  0  0  0  0  0
   -0.4474    2.4103    0.0455 C   0  0  0  0  0  0  0  0  0  0  0  0
   -0.4809    3.7250   -0.6246 C   0  0  0  0  0  0  0  0  0  0  0  0
    0.1096    3.9028   -1.8760 C   0  0  0  0  0  0  0  0  0  0  0  0
    0.8565    2.5536   -2.6512 Cl  0  0  0  0  0  0  0  0  0  0  0  0
    0.0929    5.1351   -2.5098 C   0  0  0  0  0  0  0  0  0  0  0  0
   -0.5169    6.2119   -1.8906 C   0  0  0  0  0  0  0  0  0  0  0  0
   -1.1068    6.0664   -0.6471 C   0  0  0  0  0  0  0  0  0  0  0  0
   -1.0847    4.8290   -0.0246 C   0  0  0  0  0  0  0  0  0  0  0  0
   -1.7928    4.6505    1.5400 Cl  0  0  0  0  0  0  0  0  0  0  0  0
    0.7611    1.9150    0.5202 C   0  0  0  0  0  0  0  0  0  0  0  0
    2.0540    2.4633    0.4966 C   0  0  0  0  0  0  0  0  0  0  0  0
    2.8920    1.5377    1.0854 C   0  0  0  0  0  0  0  0  0  0  0  0
    4.6352    1.7634    1.3091 S   0  0  0  0  0  0  0  0  0  0  0  0
    5.0115    1.8535   -0.3262 C   0  0  0  0  0  0  0  0  0  0  0  0
    5.2501    1.9203   -1.4449 N   0  0  0  0  0  0  0  0  0  0  0  0
    2.1005    0.4235    1.4809 C   0  0  0  0  0  0  0  0  0  0  0  0
    2.4414   -0.7094    2.1124 N   0  0  0  0  0  0  0  0  0  0  0  0
    3.7869   -1.2337    2.1555 C   0  0  0  0  0  0  0  0  0  0  0  0
    4.4112   -1.4087    0.7863 C   0  0  0  0  0  0  0  0  0  0  0  0
    3.6289   -1.6064   -0.3432 C   0  0  0  0  0  0  0  0  0  0  0  0
    4.2219   -1.7287   -1.5882 C   0  0  0  0  0  0  0  0  0  0  0  0
    5.5977   -1.6648   -1.7156 C   0  0  0  0  0  0  0  0  0  0  0  0
    6.3836   -1.4845   -0.5903 C   0  0  0  0  0  0  0  0  0  0  0  0
    5.7931   -1.3541    0.6530 C   0  0  0  0  0  0  0  0  0  0  0  0
    0.8237    0.6817    1.1416 N   0  0  0  0  0  0  0  0  0  0  0  0
   -0.3643   -0.2794    1.3090 B   0  0  0  0  0  4  0  0  0  0  0  0
   -0.4788   -0.6596    2.6369 F   0  0  0  0  0  0  0  0  0  0  0  0
   -0.1012   -1.4224    0.5550 F   0  0  0  0  0  0  0  0  0  0  0  0
   -1.6475    0.4239    0.8198 N   0  0  0  0  0  4  0  0  0  0  0  0
   -2.9280    0.0095    0.8662 C   0  0  0  0  0  0  0  0  0  0  0  0
   -3.4457   -1.0763    1.4532 N   0  0  0  0  0  0  0  0  0  0  0  0
   -2.8533   -2.3835    1.6794 C   0  0  0  0  0  0  0  0  0  0  0  0
   -3.3282   -3.3159    0.5933 C   0  0  0  0  0  0  0  0  0  0  0  0
   -4.4965   -4.0478    0.7556 C   0  0  0  0  0  0  0  0  0  0  0  0
   -4.9726   -4.8407   -0.2730 C   0  0  0  0  0  0  0  0  0  0  0  0
   -4.2886   -4.8996   -1.4746 C   0  0  0  0  0  0  0  0  0  0  0  0
   -3.1249   -4.1691   -1.6433 C   0  0  0  0  0  0  0  0  0  0  0  0
   -2.6470   -3.3774   -0.6150 C   0  0  0  0  0  0  0  0  0  0  0  0
   -3.2147    2.9308   -0.6756 H   0  0  0  0  0  0  0  0  0  0  0  0
    0.5551    5.2415   -3.4776 H   0  0  0  0  0  0  0  0  0  0  0  0
   -0.5309    7.1731   -2.3797 H   0  0  0  0  0  0  0  0  0  0  0  0
   -1.5787    6.9020   -0.1561 H   0  0  0  0  0  0  0  0  0  0  0  0
    2.3337    3.4131    0.0854 H   0  0  0  0  0  0  0  0  0  0  0  0
    1.6856   -1.3682    2.2272 H   0  0  0  0  0  0  0  0  0  0  0  0
    3.7436   -2.1987    2.6678 H   0  0  0  0  0  0  0  0  0  0  0  0
    4.4158   -0.5675    2.7574 H   0  0  0  0  0  0  0  0  0  0  0  0
    2.5531   -1.6603   -0.2609 H   0  0  0  0  0  0  0  0  0  0  0  0
    3.6023   -1.8707   -2.4608 H   0  0  0  0  0  0  0  0  0  0  0  0
    6.0568   -1.7511   -2.6884 H   0  0  0  0  0  0  0  0  0  0  0  0
    7.4581   -1.4327   -0.6816 H   0  0  0  0  0  0  0  0  0  0  0  0
    6.4067   -1.1979    1.5291 H   0  0  0  0  0  0  0  0  0  0  0  0
   -4.4553   -1.1281    1.3705 H   0  0  0  0  0  0  0  0  0  0  0  0
   -1.7731   -2.3062    1.6784 H   0  0  0  0  0  0  0  0  0  0  0  0
   -3.1838   -2.7292    2.6631 H   0  0  0  0  0  0  0  0  0  0  0  0
   -5.0338   -3.9998    1.6932 H   0  0  0  0  0  0  0  0  0  0  0  0
   -5.8819   -5.4074   -0.1382 H   0  0  0  0  0  0  0  0  0  0  0  0
   -4.6646   -5.5122   -2.2802 H   0  0  0  0  0  0  0  0  0  0  0  0
   -2.5905   -4.2117   -2.5806 H   0  0  0  0  0  0  0  0  0  0  0  0
   -1.7409   -2.8048   -0.7430 H   0  0  0  0  0  0  0  0  0  0  0  0
  1  2  3  0  0  0  0
  2  3  1  0  0  0  0
  3  4  1  0  0  0  0
  4  5  2  0  0  0  0
  5  6  1  0  0  0  0
  6  7  2  0  0  0  0
  7  8  1  0  0  0  0
  8  9  2  0  0  0  0
  9 10  1  0  0  0  0
  9 11  1  0  0  0  0
 11 12  2  0  0  0  0
 12 13  1  0  0  0  0
 13 14  2  0  0  0  0
 14 15  1  0  0  0  0
  7 16  1  0  0  0  0
 16 17  2  0  0  0  0
 17 18  1  0  0  0  0
 18 19  1  0  0  0  0
 19 20  1  0  0  0  0
 20 21  3  0  0  0  0
 18 22  2  0  0  0  0
 22 23  1  0  0  0  0
 23 24  1  0  0  0  0
 24 25  1  0  0  0  0
 25 26  2  0  0  0  0
 26 27  1  0  0  0  0
 27 28  2  0  0  0  0
 28 29  1  0  0  0  0
 29 30  2  0  0  0  0
 22 31  1  0  0  0  0
 31 32  1  0  0  0  0
 32 33  1  0  0  0  0
 32 34  1  0  0  0  0
 32 35  1  0  0  0  0
 35 36  2  0  0  0  0
 36 37  1  0  0  0  0
 37 38  1  0  0  0  0
 38 39  1  0  0  0  0
 39 40  2  0  0  0  0
 40 41  1  0  0  0  0
 41 42  2  0  0  0  0
 42 43  1  0  0  0  0
 43 44  2  0  0  0  0
 36  4  1  0  0  0  0
 44 39  1  0  0  0  0
 35  6  1  0  0  0  0
 14  8  1  0  0  0  0
 31 16  1  0  0  0  0
 30 25  1  0  0  0  0
  5 45  1  0  0  0  0
 11 46  1  0  0  0  0
 12 47  1  0  0  0  0
 13 48  1  0  0  0  0
 17 49  1  0  0  0  0
 23 50  1  0  0  0  0
 24 51  1  0  0  0  0
 24 52  1  0  0  0  0
 26 53  1  0  0  0  0
 27 54  1  0  0  0  0
 28 55  1  0  0  0  0
 29 56  1  0  0  0  0
 30 57  1  0  0  0  0
 37 58  1  0  0  0  0
 38 59  1  0  0  0  0
 38 60  1  0  0  0  0
 40 61  1  0  0  0  0
 41 62  1  0  0  0  0
 42 63  1  0  0  0  0
 43 64  1  0  0  0  0
 44 65  1  0  0  0  0
M  CHG  1  32  -1
M  CHG  1  35   1
M  END
