
  xtb     03022213373D
 energy: -62.273408057926 gnorm: 0.000450511935 xtb: 6.4.1 (afa7bdf)
 33 35  0     0  0            999 V2000
    1.0727    2.1162    2.2785 C   0  0  0  0  0  0  0  0  0  0  0  0
   -0.1614    1.2983    2.3786 C   0  0  0  0  0  0  0  0  0  0  0  0
   -1.1934    1.6630    3.1173 N   0  0  0  0  0  0  0  0  0  0  0  0
   -2.1319    0.7143    2.9744 N   0  0  0  0  0  0  0  0  0  0  0  0
   -1.7015   -0.2552    2.1453 C   0  0  0  0  0  0  0  0  0  0  0  0
   -0.4315    0.0704    1.7347 C   0  0  0  0  0  0  0  0  0  0  0  0
    0.3422   -0.7910    0.7924 C   0  0  0  0  0  0  0  0  0  0  0  0
    0.6634   -0.0790   -0.5023 C   0  0  0  0  0  0  0  0  0  0  0  0
    1.9164   -0.2155   -1.0902 C   0  0  0  0  0  0  0  0  0  0  0  0
    2.1996    0.4066   -2.2893 C   0  0  0  0  0  0  0  0  0  0  0  0
    1.2175    1.1736   -2.9038 C   0  0  0  0  0  0  0  0  0  0  0  0
    1.5071    1.8313   -4.1512 N   0  0  0  0  0  4  0  0  0  0  0  0
    2.6241    1.7091   -4.6077 O   0  0  0  0  0  0  0  0  0  0  0  0
    0.6165    2.4705   -4.6714 O   0  0  0  0  0  1  0  0  0  0  0  0
   -0.0418    1.3161   -2.3324 C   0  0  0  0  0  0  0  0  0  0  0  0
   -0.3122    0.6862   -1.1359 C   0  0  0  0  0  0  0  0  0  0  0  0
   -0.5278   -2.0055    0.4839 C   0  0  0  0  0  0  0  0  0  0  0  0
    0.0301   -2.9709   -0.3631 C   0  0  0  0  0  0  0  0  0  0  0  0
    0.5078   -3.7678   -1.0405 N   0  0  0  0  0  0  0  0  0  0  0  0
   -1.7906   -2.1927    0.9483 C   0  0  0  0  0  0  0  0  0  0  0  0
   -2.5934   -3.2300    0.5809 N   0  0  0  0  0  0  0  0  0  0  0  0
   -2.4355   -1.3473    1.8110 O   0  0  0  0  0  0  0  0  0  0  0  0
    1.9409    1.5292    2.5735 H   0  0  0  0  0  0  0  0  0  0  0  0
    0.9846    2.9820    2.9268 H   0  0  0  0  0  0  0  0  0  0  0  0
    1.2220    2.4476    1.2515 H   0  0  0  0  0  0  0  0  0  0  0  0
   -3.0123    0.7869    3.4568 H   0  0  0  0  0  0  0  0  0  0  0  0
    1.2840   -1.1221    1.2521 H   0  0  0  0  0  0  0  0  0  0  0  0
    2.6717   -0.8174   -0.6079 H   0  0  0  0  0  0  0  0  0  0  0  0
    3.1660    0.3097   -2.7596 H   0  0  0  0  0  0  0  0  0  0  0  0
   -0.7850    1.9162   -2.8346 H   0  0  0  0  0  0  0  0  0  0  0  0
   -1.2874    0.7903   -0.6835 H   0  0  0  0  0  0  0  0  0  0  0  0
   -2.1655   -4.0081    0.1084 H   0  0  0  0  0  0  0  0  0  0  0  0
   -3.3953   -3.4147    1.1593 H   0  0  0  0  0  0  0  0  0  0  0  0
  1  2  1  0  0  0  0
  2  3  2  0  0  0  0
  3  4  1  0  0  0  0
  4  5  1  0  0  0  0
  5  6  2  0  0  0  0
  6  7  1  0  0  0  0
  7  8  1  0  0  0  0
  8  9  2  0  0  0  0
  9 10  1  0  0  0  0
 10 11  2  0  0  0  0
 11 12  1  0  0  0  0
 12 13  2  0  0  0  0
 12 14  1  0  0  0  0
 11 15  1  0  0  0  0
 15 16  2  0  0  0  0
  7 17  1  0  0  0  0
 17 18  1  0  0  0  0
 18 19  3  0  0  0  0
 17 20  2  0  0  0  0
 20 21  1  0  0  0  0
 20 22  1  0  0  0  0
  6  2  1  0  0  0  0
 16  8  1  0  0  0  0
 22  5  1  0  0  0  0
  1 23  1  0  0  0  0
  1 24  1  0  0  0  0
  1 25  1  0  0  0  0
  4 26  1  0  0  0  0
  7 27  1  0  0  0  0
  9 28  1  0  0  0  0
 10 29  1  0  0  0  0
 15 30  1  0  0  0  0
 16 31  1  0  0  0  0
 21 32  1  0  0  0  0
 21 33  1  0  0  0  0
M  CHG  1  12   1
M  CHG  1  14  -1
M  END
