
  xtb     03022213413D
 energy: -96.673228567092 gnorm: 0.000389555300 xtb: 6.4.1 (afa7bdf)
 54 57  0     0  0            999 V2000
   -5.9541   -1.6302    0.8503 C   0  0  0  0  0  0  0  0  0  0  0  0
   -4.9340   -1.6847   -0.2715 C   0  0  0  0  0  0  0  0  0  0  0  0
   -3.7787   -0.9551    0.1395 O   0  0  0  0  0  0  0  0  0  0  0  0
   -2.8188   -0.8067   -0.7696 C   0  0  0  0  0  0  0  0  0  0  0  0
   -2.8604   -1.2698   -1.8808 O   0  0  0  0  0  0  0  0  0  0  0  0
   -1.7129    0.0322   -0.2432 C   0  0  0  0  0  0  0  0  0  0  0  0
   -1.9573    1.2553    0.3597 C   0  0  0  0  0  0  0  0  0  0  0  0
   -3.1669    1.7721    0.5369 N   0  0  0  0  0  0  0  0  0  0  0  0
   -3.4047    2.8623    1.1735 C   0  0  0  0  0  0  0  0  0  0  0  0
   -4.7339    3.3457    1.2899 C   0  0  0  0  0  0  0  0  0  0  0  0
   -5.8873    2.8025    0.7654 C   0  0  0  0  0  0  0  0  0  0  0  0
   -7.0319    3.5468    1.0783 C   0  0  0  0  0  0  0  0  0  0  0  0
   -6.7525    4.6478    1.8347 C   0  0  0  0  0  0  0  0  0  0  0  0
   -5.0822    4.7988    2.1804 S   0  0  0  0  0  0  0  0  0  0  0  0
   -0.4382    2.0570    0.7907 S   0  0  0  0  0  0  0  0  0  0  0  0
    0.4965    0.7002    0.1348 C   0  0  0  0  0  0  0  0  0  0  0  0
    1.8150    0.6133    0.1556 N   0  0  0  0  0  0  0  0  0  0  0  0
    2.6101    1.5623    0.5064 C   0  0  0  0  0  0  0  0  0  0  0  0
    4.0069    1.3681    0.4921 C   0  0  0  0  0  0  0  0  0  0  0  0
    4.9993    2.2770    0.8188 C   0  0  0  0  0  0  0  0  0  0  0  0
    6.2811    1.7609    0.6787 C   0  0  0  0  0  0  0  0  0  0  0  0
    6.2925    0.4457    0.2419 C   0  0  0  0  0  0  0  0  0  0  0  0
    7.4394   -0.3654   -0.0047 C   0  0  0  0  0  0  0  0  0  0  0  0
    8.7659   -0.0218    0.1224 C   0  0  0  0  0  0  0  0  0  0  0  0
    9.6404   -1.0693   -0.2082 C   0  0  0  0  0  0  0  0  0  0  0  0
    8.9846   -2.2017   -0.5839 C   0  0  0  0  0  0  0  0  0  0  0  0
    7.2809   -2.0129   -0.5424 S   0  0  0  0  0  0  0  0  0  0  0  0
    4.6839   -0.1557    0.0032 S   0  0  0  0  0  0  0  0  0  0  0  0
   -0.3477   -0.2804   -0.3654 C   0  0  0  0  0  0  0  0  0  0  0  0
    0.1648   -1.5377   -0.9597 C   0  0  0  0  0  0  0  0  0  0  0  0
    1.1624   -1.6340   -1.6235 O   0  0  0  0  0  0  0  0  0  0  0  0
   -0.6338   -2.5598   -0.6315 O   0  0  0  0  0  0  0  0  0  0  0  0
   -0.3396   -3.8223   -1.2298 C   0  0  0  0  0  0  0  0  0  0  0  0
   -0.8032   -3.8643   -2.6789 C   0  0  0  0  0  0  0  0  0  0  0  0
   -6.8567   -2.1559    0.5519 H   0  0  0  0  0  0  0  0  0  0  0  0
   -5.5496   -2.0947    1.7452 H   0  0  0  0  0  0  0  0  0  0  0  0
   -6.1996   -0.5971    1.0809 H   0  0  0  0  0  0  0  0  0  0  0  0
   -4.6413   -2.7174   -0.4945 H   0  0  0  0  0  0  0  0  0  0  0  0
   -5.3250   -1.2375   -1.1928 H   0  0  0  0  0  0  0  0  0  0  0  0
   -2.6083    3.4474    1.6471 H   0  0  0  0  0  0  0  0  0  0  0  0
   -5.8733    1.9039    0.1772 H   0  0  0  0  0  0  0  0  0  0  0  0
   -8.0253    3.2859    0.7597 H   0  0  0  0  0  0  0  0  0  0  0  0
   -7.4364    5.3832    2.2102 H   0  0  0  0  0  0  0  0  0  0  0  0
    2.2417    2.5495    0.8123 H   0  0  0  0  0  0  0  0  0  0  0  0
    4.7847    3.2793    1.1451 H   0  0  0  0  0  0  0  0  0  0  0  0
    7.1757    2.3194    0.8850 H   0  0  0  0  0  0  0  0  0  0  0  0
    9.0967    0.9496    0.4408 H   0  0  0  0  0  0  0  0  0  0  0  0
   10.7118   -0.9870   -0.1699 H   0  0  0  0  0  0  0  0  0  0  0  0
    9.4040   -3.1410   -0.8850 H   0  0  0  0  0  0  0  0  0  0  0  0
    0.7387   -4.0044   -1.1644 H   0  0  0  0  0  0  0  0  0  0  0  0
   -0.8780   -4.5500   -0.6185 H   0  0  0  0  0  0  0  0  0  0  0  0
   -0.7335   -4.8794   -3.0597 H   0  0  0  0  0  0  0  0  0  0  0  0
   -1.8317   -3.5179   -2.7453 H   0  0  0  0  0  0  0  0  0  0  0  0
   -0.1803   -3.2119   -3.2850 H   0  0  0  0  0  0  0  0  0  0  0  0
  1  2  1  0  0  0  0
  2  3  1  0  0  0  0
  3  4  1  0  0  0  0
  4  5  2  0  0  0  0
  4  6  1  0  0  0  0
  6  7  2  0  0  0  0
  7  8  1  0  0  0  0
  8  9  2  0  0  0  0
  9 10  1  0  0  0  0
 10 11  2  0  0  0  0
 11 12  1  0  0  0  0
 12 13  2  0  0  0  0
 13 14  1  0  0  0  0
  7 15  1  0  0  0  0
 15 16  1  0  0  0  0
 16 17  1  0  0  0  0
 17 18  2  0  0  0  0
 18 19  1  0  0  0  0
 19 20  2  0  0  0  0
 20 21  1  0  0  0  0
 21 22  2  0  0  0  0
 22 23  1  0  0  0  0
 23 24  2  0  0  0  0
 24 25  1  0  0  0  0
 25 26  2  0  0  0  0
 26 27  1  0  0  0  0
 22 28  1  0  0  0  0
 16 29  2  0  0  0  0
 29 30  1  0  0  0  0
 30 31  2  0  0  0  0
 30 32  1  0  0  0  0
 32 33  1  0  0  0  0
 33 34  1  0  0  0  0
 29  6  1  0  0  0  0
 14 10  1  0  0  0  0
 28 19  1  0  0  0  0
 27 23  1  0  0  0  0
  1 35  1  0  0  0  0
  1 36  1  0  0  0  0
  1 37  1  0  0  0  0
  2 38  1  0  0  0  0
  2 39  1  0  0  0  0
  9 40  1  0  0  0  0
 11 41  1  0  0  0  0
 12 42  1  0  0  0  0
 13 43  1  0  0  0  0
 18 44  1  0  0  0  0
 20 45  1  0  0  0  0
 21 46  1  0  0  0  0
 24 47  1  0  0  0  0
 25 48  1  0  0  0  0
 26 49  1  0  0  0  0
 33 50  1  0  0  0  0
 33 51  1  0  0  0  0
 34 52  1  0  0  0  0
 34 53  1  0  0  0  0
 34 54  1  0  0  0  0
M  END
