
  xtb     03022213593D
 energy: -106.876419251511 gnorm: 0.000483048721 xtb: 6.4.1 (afa7bdf)
 74 78  0     0  0            999 V2000
   -5.9522   -3.2746   -2.3133 C   0  0  0  0  0  0  0  0  0  0  0  0
   -5.1964   -3.7916   -1.0809 C   0  0  0  0  0  0  0  0  0  0  0  0
   -4.7134   -5.2126   -1.3833 C   0  0  0  0  0  0  0  0  0  0  0  0
   -6.1484   -3.8588    0.1218 C   0  0  0  0  0  0  0  0  0  0  0  0
   -4.0576   -2.8336   -0.7603 C   0  0  0  0  0  0  0  0  0  0  0  0
   -2.7211   -3.2398   -0.7327 C   0  0  0  0  0  0  0  0  0  0  0  0
   -1.6825   -2.3711   -0.4490 C   0  0  0  0  0  0  0  0  0  0  0  0
   -1.9875   -1.0454   -0.1934 C   0  0  0  0  0  0  0  0  0  0  0  0
   -3.3319   -0.6155   -0.1855 C   0  0  0  0  0  0  0  0  0  0  0  0
   -4.3525   -1.5072   -0.4722 C   0  0  0  0  0  0  0  0  0  0  0  0
   -3.3135    0.7785    0.1676 C   0  0  0  0  0  0  0  0  0  0  0  0
   -4.3135    1.7314    0.3063 C   0  0  0  0  0  0  0  0  0  0  0  0
   -3.9803    3.0355    0.6345 C   0  0  0  0  0  0  0  0  0  0  0  0
   -5.0220    4.1310    0.8087 C   0  0  0  0  0  0  0  0  0  0  0  0
   -6.4512    3.6217    0.6028 C   0  0  0  0  0  0  0  0  0  0  0  0
   -4.7606    5.2432   -0.2168 C   0  0  0  0  0  0  0  0  0  0  0  0
   -4.9204    4.7002    2.2309 C   0  0  0  0  0  0  0  0  0  0  0  0
   -2.6270    3.3578    0.7994 C   0  0  0  0  0  0  0  0  0  0  0  0
   -1.6130    2.4308    0.6677 C   0  0  0  0  0  0  0  0  0  0  0  0
   -1.9613    1.1233    0.3679 C   0  0  0  0  0  0  0  0  0  0  0  0
   -1.1638    0.0139    0.1462 N   0  0  0  0  0  0  0  0  0  0  0  0
    0.2264   -0.0245    0.2380 C   0  0  0  0  0  0  0  0  0  0  0  0
    0.9838   -0.6098   -0.7779 C   0  0  0  0  0  0  0  0  0  0  0  0
    2.3577   -0.6439   -0.6897 C   0  0  0  0  0  0  0  0  0  0  0  0
    3.0082   -0.0896    0.4170 C   0  0  0  0  0  0  0  0  0  0  0  0
    4.4118   -0.1176    0.5061 C   0  0  0  0  0  0  0  0  0  0  0  0
    5.6191   -0.1377    0.5811 C   0  0  0  0  0  0  0  0  0  0  0  0
    7.0206   -0.1570    0.6701 C   0  0  0  0  0  0  0  0  0  0  0  0
    7.6652    0.3180    1.8194 C   0  0  0  0  0  0  0  0  0  0  0  0
    9.0360    0.2960    1.9002 C   0  0  0  0  0  0  0  0  0  0  0  0
    9.8201   -0.1951    0.8420 C   0  0  0  0  0  0  0  0  0  0  0  0
   11.2459   -0.1816    1.0013 C   0  0  0  0  0  0  0  0  0  0  0  0
   12.2138   -0.5694    0.1286 C   0  0  0  0  0  0  0  0  0  0  0  0
   13.5728   -0.4626    0.5122 C   0  0  0  0  0  0  0  0  0  0  0  0
   14.6695   -0.3755    0.8340 N   0  0  0  0  0  0  0  0  0  0  0  0
   12.0487   -1.0851   -1.1746 C   0  0  0  0  0  0  0  0  0  0  0  0
   11.9953   -1.5072   -2.2407 N   0  0  0  0  0  0  0  0  0  0  0  0
    9.1646   -0.6697   -0.3047 C   0  0  0  0  0  0  0  0  0  0  0  0
    7.7928   -0.6521   -0.3885 C   0  0  0  0  0  0  0  0  0  0  0  0
    2.2475    0.4949    1.4344 C   0  0  0  0  0  0  0  0  0  0  0  0
    0.8736    0.5249    1.3461 C   0  0  0  0  0  0  0  0  0  0  0  0
   -6.7628   -3.9538   -2.5689 H   0  0  0  0  0  0  0  0  0  0  0  0
   -5.2785   -3.2050   -3.1650 H   0  0  0  0  0  0  0  0  0  0  0  0
   -6.3768   -2.2907   -2.1347 H   0  0  0  0  0  0  0  0  0  0  0  0
   -4.0496   -5.2262   -2.2448 H   0  0  0  0  0  0  0  0  0  0  0  0
   -5.5699   -5.8445   -1.6103 H   0  0  0  0  0  0  0  0  0  0  0  0
   -4.1983   -5.6428   -0.5275 H   0  0  0  0  0  0  0  0  0  0  0  0
   -6.5769   -2.8855    0.3436 H   0  0  0  0  0  0  0  0  0  0  0  0
   -6.9628   -4.5508   -0.0824 H   0  0  0  0  0  0  0  0  0  0  0  0
   -5.6144   -4.2048    1.0045 H   0  0  0  0  0  0  0  0  0  0  0  0
   -2.4668   -4.2674   -0.9329 H   0  0  0  0  0  0  0  0  0  0  0  0
   -0.6654   -2.7323   -0.4170 H   0  0  0  0  0  0  0  0  0  0  0  0
   -5.3720   -1.1537   -0.4612 H   0  0  0  0  0  0  0  0  0  0  0  0
   -5.3360    1.4323    0.1473 H   0  0  0  0  0  0  0  0  0  0  0  0
   -6.5883    3.2372   -0.4052 H   0  0  0  0  0  0  0  0  0  0  0  0
   -7.1522    4.4414    0.7469 H   0  0  0  0  0  0  0  0  0  0  0  0
   -6.6954    2.8413    1.3199 H   0  0  0  0  0  0  0  0  0  0  0  0
   -3.7821    5.6932   -0.0747 H   0  0  0  0  0  0  0  0  0  0  0  0
   -5.5113    6.0250   -0.1214 H   0  0  0  0  0  0  0  0  0  0  0  0
   -4.8070    4.8412   -1.2268 H   0  0  0  0  0  0  0  0  0  0  0  0
   -5.6717    5.4731    2.3800 H   0  0  0  0  0  0  0  0  0  0  0  0
   -5.0853    3.9125    2.9632 H   0  0  0  0  0  0  0  0  0  0  0  0
   -3.9430    5.1372    2.4154 H   0  0  0  0  0  0  0  0  0  0  0  0
   -2.3499    4.3740    1.0351 H   0  0  0  0  0  0  0  0  0  0  0  0
   -0.5815    2.7287    0.7816 H   0  0  0  0  0  0  0  0  0  0  0  0
    0.4842   -1.0155   -1.6447 H   0  0  0  0  0  0  0  0  0  0  0  0
    2.9434   -1.0900   -1.4798 H   0  0  0  0  0  0  0  0  0  0  0  0
    7.0732    0.6990    2.6385 H   0  0  0  0  0  0  0  0  0  0  0  0
    9.5246    0.6639    2.7914 H   0  0  0  0  0  0  0  0  0  0  0  0
   11.5990    0.1951    1.9556 H   0  0  0  0  0  0  0  0  0  0  0  0
    9.7386   -1.0552   -1.1317 H   0  0  0  0  0  0  0  0  0  0  0  0
    7.2980   -1.0202   -1.2748 H   0  0  0  0  0  0  0  0  0  0  0  0
    2.7475    0.9154    2.2946 H   0  0  0  0  0  0  0  0  0  0  0  0
    0.2865    0.9552    2.1433 H   0  0  0  0  0  0  0  0  0  0  0  0
  1  2  1  0  0  0  0
  2  3  1  0  0  0  0
  2  4  1  0  0  0  0
  2  5  1  0  0  0  0
  5  6  2  0  0  0  0
  6  7  1  0  0  0  0
  7  8  2  0  0  0  0
  8  9  1  0  0  0  0
  9 10  2  0  0  0  0
  9 11  1  0  0  0  0
 11 12  2  0  0  0  0
 12 13  1  0  0  0  0
 13 14  1  0  0  0  0
 14 15  1  0  0  0  0
 14 16  1  0  0  0  0
 14 17  1  0  0  0  0
 13 18  2  0  0  0  0
 18 19  1  0  0  0  0
 19 20  2  0  0  0  0
 20 21  1  0  0  0  0
 21 22  1  0  0  0  0
 22 23  2  0  0  0  0
 23 24  1  0  0  0  0
 24 25  2  0  0  0  0
 25 26  1  0  0  0  0
 26 27  3  0  0  0  0
 27 28  1  0  0  0  0
 28 29  2  0  0  0  0
 29 30  1  0  0  0  0
 30 31  2  0  0  0  0
 31 32  1  0  0  0  0
 32 33  2  0  0  0  0
 33 34  1  0  0  0  0
 34 35  3  0  0  0  0
 33 36  1  0  0  0  0
 36 37  3  0  0  0  0
 31 38  1  0  0  0  0
 38 39  2  0  0  0  0
 25 40  1  0  0  0  0
 40 41  2  0  0  0  0
 10  5  1  0  0  0  0
 20 11  1  0  0  0  0
 41 22  1  0  0  0  0
 21  8  1  0  0  0  0
 39 28  1  0  0  0  0
  1 42  1  0  0  0  0
  1 43  1  0  0  0  0
  1 44  1  0  0  0  0
  3 45  1  0  0  0  0
  3 46  1  0  0  0  0
  3 47  1  0  0  0  0
  4 48  1  0  0  0  0
  4 49  1  0  0  0  0
  4 50  1  0  0  0  0
  6 51  1  0  0  0  0
  7 52  1  0  0  0  0
 10 53  1  0  0  0  0
 12 54  1  0  0  0  0
 15 55  1  0  0  0  0
 15 56  1  0  0  0  0
 15 57  1  0  0  0  0
 16 58  1  0  0  0  0
 16 59  1  0  0  0  0
 16 60  1  0  0  0  0
 17 61  1  0  0  0  0
 17 62  1  0  0  0  0
 17 63  1  0  0  0  0
 18 64  1  0  0  0  0
 19 65  1  0  0  0  0
 23 66  1  0  0  0  0
 24 67  1  0  0  0  0
 29 68  1  0  0  0  0
 30 69  1  0  0  0  0
 32 70  1  0  0  0  0
 38 71  1  0  0  0  0
 39 72  1  0  0  0  0
 40 73  1  0  0  0  0
 41 74  1  0  0  0  0
M  END
