
  xtb     03022213423D
 energy: -61.817380809448 gnorm: 0.000160532897 xtb: 6.4.1 (afa7bdf)
 38 40  0     0  0            999 V2000
    8.1900   -0.1135   -0.1004 C   0  0  0  0  0  0  0  0  0  0  0  0
    6.7816   -0.2054    0.0380 O   0  0  0  0  0  0  0  0  0  0  0  0
    6.0631    0.5533   -0.8078 C   0  0  0  0  0  0  0  0  0  0  0  0
    6.5716    1.2703   -1.6362 O   0  0  0  0  0  0  0  0  0  0  0  0
    4.6049    0.4096   -0.6062 C   0  0  0  0  0  0  0  0  0  0  0  0
    4.0691   -0.4326    0.3687 C   0  0  0  0  0  0  0  0  0  0  0  0
    2.7042   -0.5323    0.5205 C   0  0  0  0  0  0  0  0  0  0  0  0
    1.8433    0.2076   -0.2988 C   0  0  0  0  0  0  0  0  0  0  0  0
    0.4191    0.0867   -0.1166 C   0  0  0  0  0  0  0  0  0  0  0  0
   -0.1475   -0.6645    0.7570 N   0  0  0  0  0  0  0  0  0  0  0  0
   -1.4984   -0.5918    0.7197 C   0  0  0  0  0  0  0  0  0  0  0  0
   -2.3970   -1.2806    1.5335 C   0  0  0  0  0  0  0  0  0  0  0  0
   -3.7461   -1.0934    1.3690 C   0  0  0  0  0  0  0  0  0  0  0  0
   -4.2725   -0.2180    0.3905 C   0  0  0  0  0  0  0  0  0  0  0  0
   -5.6229   -0.0507    0.2529 N   0  0  0  0  0  0  0  0  0  0  0  0
   -6.5496   -0.8577    1.0068 C   0  0  0  0  0  0  0  0  0  0  0  0
   -6.1451    0.9325   -0.6628 C   0  0  0  0  0  0  0  0  0  0  0  0
   -3.3757    0.4759   -0.4317 C   0  0  0  0  0  0  0  0  0  0  0  0
   -2.0214    0.2856   -0.2595 C   0  0  0  0  0  0  0  0  0  0  0  0
   -0.7159    1.0171   -1.1370 S   0  0  0  0  0  0  0  0  0  0  0  0
    2.3847    1.0487   -1.2740 C   0  0  0  0  0  0  0  0  0  0  0  0
    3.7498    1.1475   -1.4248 C   0  0  0  0  0  0  0  0  0  0  0  0
    8.4933   -0.4110   -1.1067 H   0  0  0  0  0  0  0  0  0  0  0  0
    8.6141   -0.7854    0.6414 H   0  0  0  0  0  0  0  0  0  0  0  0
    8.5229    0.9119    0.0751 H   0  0  0  0  0  0  0  0  0  0  0  0
    4.7331   -1.0020    0.9999 H   0  0  0  0  0  0  0  0  0  0  0  0
    2.2717   -1.1776    1.2687 H   0  0  0  0  0  0  0  0  0  0  0  0
   -2.0177   -1.9516    2.2877 H   0  0  0  0  0  0  0  0  0  0  0  0
   -4.4163   -1.6297    2.0194 H   0  0  0  0  0  0  0  0  0  0  0  0
   -6.5219   -0.6127    2.0742 H   0  0  0  0  0  0  0  0  0  0  0  0
   -7.5595   -0.6819    0.6442 H   0  0  0  0  0  0  0  0  0  0  0  0
   -6.3294   -1.9216    0.8859 H   0  0  0  0  0  0  0  0  0  0  0  0
   -5.6986    1.9127   -0.4755 H   0  0  0  0  0  0  0  0  0  0  0  0
   -5.9530    0.6545   -1.7050 H   0  0  0  0  0  0  0  0  0  0  0  0
   -7.2200    1.0217   -0.5262 H   0  0  0  0  0  0  0  0  0  0  0  0
   -3.7149    1.1478   -1.2009 H   0  0  0  0  0  0  0  0  0  0  0  0
    1.7244    1.6215   -1.9091 H   0  0  0  0  0  0  0  0  0  0  0  0
    4.1825    1.7933   -2.1737 H   0  0  0  0  0  0  0  0  0  0  0  0
  1  2  1  0  0  0  0
  2  3  1  0  0  0  0
  3  4  2  0  0  0  0
  3  5  1  0  0  0  0
  5  6  2  0  0  0  0
  6  7  1  0  0  0  0
  7  8  2  0  0  0  0
  8  9  1  0  0  0  0
  9 10  2  0  0  0  0
 10 11  1  0  0  0  0
 11 12  2  0  0  0  0
 12 13  1  0  0  0  0
 13 14  2  0  0  0  0
 14 15  1  0  0  0  0
 15 16  1  0  0  0  0
 15 17  1  0  0  0  0
 14 18  1  0  0  0  0
 18 19  2  0  0  0  0
 19 20  1  0  0  0  0
  8 21  1  0  0  0  0
 21 22  2  0  0  0  0
 22  5  1  0  0  0  0
 20  9  1  0  0  0  0
 19 11  1  0  0  0  0
  1 23  1  0  0  0  0
  1 24  1  0  0  0  0
  1 25  1  0  0  0  0
  6 26  1  0  0  0  0
  7 27  1  0  0  0  0
 12 28  1  0  0  0  0
 13 29  1  0  0  0  0
 16 30  1  0  0  0  0
 16 31  1  0  0  0  0
 16 32  1  0  0  0  0
 17 33  1  0  0  0  0
 17 34  1  0  0  0  0
 17 35  1  0  0  0  0
 18 36  1  0  0  0  0
 21 37  1  0  0  0  0
 22 38  1  0  0  0  0
M  END
