
  xtb     03022214553D
 energy: -122.735510289647 gnorm: 0.000079443704 xtb: 6.4.1 (afa7bdf)
 86 92  0     0  0            999 V2000
   -0.1629    5.1898   -3.0639 C   0  0  0  0  0  0  0  0  0  0  0  0
    0.2409    3.7289   -3.2190 C   0  0  0  0  0  0  0  0  0  0  0  0
    0.8098    3.1616   -1.9217 C   0  0  0  0  0  0  0  0  0  0  0  0
    1.2267    1.6987   -2.0894 C   0  0  0  0  0  0  0  0  0  0  0  0
    1.7300    1.1267   -0.9028 O   0  0  0  0  0  0  0  0  0  0  0  0
    0.8634    0.6361    0.0285 C   0  0  0  0  0  0  0  0  0  0  0  0
   -0.5127    0.7629   -0.0329 C   0  0  0  0  0  0  0  0  0  0  0  0
   -1.3466    0.2583    0.9642 C   0  0  0  0  0  0  0  0  0  0  0  0
   -2.7837    0.3985    0.8750 C   0  0  0  0  0  0  0  0  0  0  0  0
   -3.5615    0.3081   -0.2241 C   0  0  0  0  0  0  0  0  0  0  0  0
   -3.2517   -0.1379   -1.5865 C   0  0  0  0  0  0  0  0  0  0  0  0
   -2.1364   -0.7622   -2.1229 C   0  0  0  0  0  0  0  0  0  0  0  0
   -2.1374   -1.1091   -3.4657 C   0  0  0  0  0  0  0  0  0  0  0  0
   -3.2375   -0.8575   -4.2719 C   0  0  0  0  0  0  0  0  0  0  0  0
   -4.3823   -0.2867   -3.7385 C   0  0  0  0  0  0  0  0  0  0  0  0
   -4.3913    0.0583   -2.3992 C   0  0  0  0  0  0  0  0  0  0  0  0
   -5.4593    0.5897   -1.5708 C   0  0  0  0  0  0  0  0  0  0  0  0
   -6.7593    0.9472   -1.8782 C   0  0  0  0  0  0  0  0  0  0  0  0
   -7.5804    1.4046   -0.8589 C   0  0  0  0  0  0  0  0  0  0  0  0
   -7.1078    1.5045    0.4418 C   0  0  0  0  0  0  0  0  0  0  0  0
   -5.8025    1.1572    0.7559 C   0  0  0  0  0  0  0  0  0  0  0  0
   -4.9741    0.6949   -0.2514 C   0  0  0  0  0  0  0  0  0  0  0  0
   -0.7670   -0.3083    2.1146 C   0  0  0  0  0  0  0  0  0  0  0  0
   -1.6335   -0.7243    3.0807 O   0  0  0  0  0  0  0  0  0  0  0  0
   -1.1163   -1.2797    4.2715 C   0  0  0  0  0  0  0  0  0  0  0  0
   -2.3034   -1.5851    5.1804 C   0  0  0  0  0  0  0  0  0  0  0  0
   -1.9121   -2.3638    6.4347 C   0  0  0  0  0  0  0  0  0  0  0  0
   -1.0361   -1.5615    7.3905 C   0  0  0  0  0  0  0  0  0  0  0  0
    0.6112   -0.4415    2.1747 C   0  0  0  0  0  0  0  0  0  0  0  0
    1.4350   -0.0250    1.1317 C   0  0  0  0  0  0  0  0  0  0  0  0
    2.8682   -0.2909    1.2257 C   0  0  0  0  0  0  0  0  0  0  0  0
    3.6333   -0.7958    0.2479 C   0  0  0  0  0  0  0  0  0  0  0  0
    3.0732   -1.2352   -1.0385 C   0  0  0  0  0  0  0  0  0  0  0  0
    1.9787   -2.0965   -1.0238 C   0  0  0  0  0  0  0  0  0  0  0  0
    1.3653   -2.4959   -2.1946 C   0  0  0  0  0  0  0  0  0  0  0  0
    1.8415   -2.0306   -3.4111 C   0  0  0  0  0  0  0  0  0  0  0  0
    2.9313   -1.1866   -3.4399 C   0  0  0  0  0  0  0  0  0  0  0  0
    3.5801   -0.7909   -2.2664 C   0  0  0  0  0  0  0  0  0  0  0  0
    4.7192    0.0976   -2.3849 C   0  0  0  0  0  0  0  0  0  0  0  0
    5.7791    0.1951   -1.5717 C   0  0  0  0  0  0  0  0  0  0  0  0
    6.0576   -0.5682   -0.3706 C   0  0  0  0  0  0  0  0  0  0  0  0
    7.3961   -0.7919   -0.0338 C   0  0  0  0  0  0  0  0  0  0  0  0
    7.7468   -1.5178    1.0848 C   0  0  0  0  0  0  0  0  0  0  0  0
    6.7564   -2.0268    1.9110 C   0  0  0  0  0  0  0  0  0  0  0  0
    5.4293   -1.7912    1.6103 C   0  0  0  0  0  0  0  0  0  0  0  0
    5.0610   -1.0624    0.4823 C   0  0  0  0  0  0  0  0  0  0  0  0
   -0.5652    5.5763   -3.9972 H   0  0  0  0  0  0  0  0  0  0  0  0
    0.6961    5.7948   -2.7827 H   0  0  0  0  0  0  0  0  0  0  0  0
   -0.9228    5.2949   -2.2929 H   0  0  0  0  0  0  0  0  0  0  0  0
    0.9882    3.6385   -4.0105 H   0  0  0  0  0  0  0  0  0  0  0  0
   -0.6300    3.1403   -3.5180 H   0  0  0  0  0  0  0  0  0  0  0  0
    0.0652    3.2447   -1.1277 H   0  0  0  0  0  0  0  0  0  0  0  0
    1.6841    3.7383   -1.6133 H   0  0  0  0  0  0  0  0  0  0  0  0
    2.0583    1.6360   -2.7977 H   0  0  0  0  0  0  0  0  0  0  0  0
    0.3972    1.1006   -2.4878 H   0  0  0  0  0  0  0  0  0  0  0  0
   -0.9856    1.2740   -0.8548 H   0  0  0  0  0  0  0  0  0  0  0  0
   -3.2702    0.6100    1.8193 H   0  0  0  0  0  0  0  0  0  0  0  0
   -1.2766   -0.9943   -1.5130 H   0  0  0  0  0  0  0  0  0  0  0  0
   -1.2635   -1.5847   -3.8870 H   0  0  0  0  0  0  0  0  0  0  0  0
   -3.2086   -1.1282   -5.3176 H   0  0  0  0  0  0  0  0  0  0  0  0
   -5.2546   -0.1254   -4.3550 H   0  0  0  0  0  0  0  0  0  0  0  0
   -7.1302    0.8723   -2.8899 H   0  0  0  0  0  0  0  0  0  0  0  0
   -8.6005    1.6855   -1.0780 H   0  0  0  0  0  0  0  0  0  0  0  0
   -7.7672    1.8594    1.2208 H   0  0  0  0  0  0  0  0  0  0  0  0
   -5.4498    1.2421    1.7733 H   0  0  0  0  0  0  0  0  0  0  0  0
   -0.5668   -2.2063    4.0506 H   0  0  0  0  0  0  0  0  0  0  0  0
   -0.4316   -0.5686    4.7517 H   0  0  0  0  0  0  0  0  0  0  0  0
   -2.7831   -0.6456    5.4604 H   0  0  0  0  0  0  0  0  0  0  0  0
   -3.0233   -2.1655    4.6002 H   0  0  0  0  0  0  0  0  0  0  0  0
   -2.8265   -2.6559    6.9552 H   0  0  0  0  0  0  0  0  0  0  0  0
   -1.3910   -3.2789    6.1444 H   0  0  0  0  0  0  0  0  0  0  0  0
   -0.8625   -2.1253    8.3042 H   0  0  0  0  0  0  0  0  0  0  0  0
   -1.5205   -0.6240    7.6541 H   0  0  0  0  0  0  0  0  0  0  0  0
   -0.0710   -1.3375    6.9438 H   0  0  0  0  0  0  0  0  0  0  0  0
    1.0805   -0.9118    3.0255 H   0  0  0  0  0  0  0  0  0  0  0  0
    3.3235   -0.0773    2.1856 H   0  0  0  0  0  0  0  0  0  0  0  0
    1.6035   -2.4484   -0.0736 H   0  0  0  0  0  0  0  0  0  0  0  0
    0.5130   -3.1589   -2.1598 H   0  0  0  0  0  0  0  0  0  0  0  0
    1.3641   -2.3280   -4.3336 H   0  0  0  0  0  0  0  0  0  0  0  0
    3.3070   -0.8293   -4.3890 H   0  0  0  0  0  0  0  0  0  0  0  0
    4.7319    0.6895   -3.2932 H   0  0  0  0  0  0  0  0  0  0  0  0
    6.5808    0.8603   -1.8714 H   0  0  0  0  0  0  0  0  0  0  0  0
    8.1677   -0.3963   -0.6794 H   0  0  0  0  0  0  0  0  0  0  0  0
    8.7881   -1.6863    1.3167 H   0  0  0  0  0  0  0  0  0  0  0  0
    7.0203   -2.5960    2.7901 H   0  0  0  0  0  0  0  0  0  0  0  0
    4.6535   -2.1806    2.2540 H   0  0  0  0  0  0  0  0  0  0  0  0
  1  2  1  0  0  0  0
  2  3  1  0  0  0  0
  3  4  1  0  0  0  0
  4  5  1  0  0  0  0
  5  6  1  0  0  0  0
  6  7  2  0  0  0  0
  7  8  1  0  0  0  0
  8  9  1  0  0  0  0
  9 10  2  0  0  0  0
 10 11  1  0  0  0  0
 11 12  2  0  0  0  0
 12 13  1  0  0  0  0
 13 14  2  0  0  0  0
 14 15  1  0  0  0  0
 15 16  2  0  0  0  0
 16 17  1  0  0  0  0
 17 18  2  0  0  0  0
 18 19  1  0  0  0  0
 19 20  2  0  0  0  0
 20 21  1  0  0  0  0
 21 22  2  0  0  0  0
  8 23  2  0  0  0  0
 23 24  1  0  0  0  0
 24 25  1  0  0  0  0
 25 26  1  0  0  0  0
 26 27  1  0  0  0  0
 27 28  1  0  0  0  0
 23 29  1  0  0  0  0
 29 30  2  0  0  0  0
 30 31  1  0  0  0  0
 31 32  2  0  0  0  0
 32 33  1  0  0  0  0
 33 34  2  0  0  0  0
 34 35  1  0  0  0  0
 35 36  2  0  0  0  0
 36 37  1  0  0  0  0
 37 38  2  0  0  0  0
 38 39  1  0  0  0  0
 39 40  2  0  0  0  0
 40 41  1  0  0  0  0
 41 42  2  0  0  0  0
 42 43  1  0  0  0  0
 43 44  2  0  0  0  0
 44 45  1  0  0  0  0
 45 46  2  0  0  0  0
 30  6  1  0  0  0  0
 46 32  1  0  0  0  0
 22 10  1  0  0  0  0
 38 33  1  0  0  0  0
 46 41  1  0  0  0  0
 16 11  1  0  0  0  0
 22 17  1  0  0  0  0
  1 47  1  0  0  0  0
  1 48  1  0  0  0  0
  1 49  1  0  0  0  0
  2 50  1  0  0  0  0
  2 51  1  0  0  0  0
  3 52  1  0  0  0  0
  3 53  1  0  0  0  0
  4 54  1  0  0  0  0
  4 55  1  0  0  0  0
  7 56  1  0  0  0  0
  9 57  1  0  0  0  0
 12 58  1  0  0  0  0
 13 59  1  0  0  0  0
 14 60  1  0  0  0  0
 15 61  1  0  0  0  0
 18 62  1  0  0  0  0
 19 63  1  0  0  0  0
 20 64  1  0  0  0  0
 21 65  1  0  0  0  0
 25 66  1  0  0  0  0
 25 67  1  0  0  0  0
 26 68  1  0  0  0  0
 26 69  1  0  0  0  0
 27 70  1  0  0  0  0
 27 71  1  0  0  0  0
 28 72  1  0  0  0  0
 28 73  1  0  0  0  0
 28 74  1  0  0  0  0
 29 75  1  0  0  0  0
 31 76  1  0  0  0  0
 34 77  1  0  0  0  0
 35 78  1  0  0  0  0
 36 79  1  0  0  0  0
 37 80  1  0  0  0  0
 39 81  1  0  0  0  0
 40 82  1  0  0  0  0
 42 83  1  0  0  0  0
 43 84  1  0  0  0  0
 44 85  1  0  0  0  0
 45 86  1  0  0  0  0
M  END
