
  xtb     03022213463D
 energy: -51.373885163730 gnorm: 0.000133324890 xtb: 6.4.1 (afa7bdf)
 37 38  0     0  0            999 V2000
   -6.1538   -1.3435    0.3229 C   0  0  0  0  0  0  0  0  0  0  0  0
   -5.0227   -1.2200    1.2076 N   0  0  0  0  0  0  0  0  0  0  0  0
   -5.2113   -1.4481    2.6183 C   0  0  0  0  0  0  0  0  0  0  0  0
   -3.7864   -0.9067    0.7139 C   0  0  0  0  0  0  0  0  0  0  0  0
   -3.5642   -0.7461   -0.6639 C   0  0  0  0  0  0  0  0  0  0  0  0
   -2.3183   -0.4285   -1.1493 C   0  0  0  0  0  0  0  0  0  0  0  0
   -1.2145   -0.2503   -0.3060 C   0  0  0  0  0  0  0  0  0  0  0  0
    0.0652    0.0824   -0.8734 C   0  0  0  0  0  0  0  0  0  0  0  0
    1.2235    0.2849   -0.2107 C   0  0  0  0  0  0  0  0  0  0  0  0
    2.4487    0.6139   -0.8618 C   0  0  0  0  0  0  0  0  0  0  0  0
    3.6071    0.8159   -0.2018 C   0  0  0  0  0  0  0  0  0  0  0  0
    4.8850    1.1511   -0.7834 C   0  0  0  0  0  0  0  0  0  0  0  0
    6.0003    1.3178    0.0486 C   0  0  0  0  0  0  0  0  0  0  0  0
    7.2229    1.6383   -0.5080 C   0  0  0  0  0  0  0  0  0  0  0  0
    7.4168    1.8032   -1.8074 N   0  0  0  0  0  0  0  0  0  0  0  0
    6.3688    1.6483   -2.6021 C   0  0  0  0  0  0  0  0  0  0  0  0
    5.1012    1.3280   -2.1558 C   0  0  0  0  0  0  0  0  0  0  0  0
   -1.4395   -0.4121    1.0662 C   0  0  0  0  0  0  0  0  0  0  0  0
   -2.6807   -0.7292    1.5631 C   0  0  0  0  0  0  0  0  0  0  0  0
   -6.0293   -2.1810   -0.3719 H   0  0  0  0  0  0  0  0  0  0  0  0
   -7.0547   -1.5179    0.9062 H   0  0  0  0  0  0  0  0  0  0  0  0
   -6.2989   -0.4277   -0.2575 H   0  0  0  0  0  0  0  0  0  0  0  0
   -5.0183   -0.5397    3.1986 H   0  0  0  0  0  0  0  0  0  0  0  0
   -6.2375   -1.7563    2.8031 H   0  0  0  0  0  0  0  0  0  0  0  0
   -4.5495   -2.2404    2.9806 H   0  0  0  0  0  0  0  0  0  0  0  0
   -4.3718   -0.8752   -1.3656 H   0  0  0  0  0  0  0  0  0  0  0  0
   -2.1866   -0.3144   -2.2166 H   0  0  0  0  0  0  0  0  0  0  0  0
    0.0765    0.1757   -1.9539 H   0  0  0  0  0  0  0  0  0  0  0  0
    1.2608    0.2020    0.8667 H   0  0  0  0  0  0  0  0  0  0  0  0
    2.4118    0.6976   -1.9398 H   0  0  0  0  0  0  0  0  0  0  0  0
    3.6055    0.7219    0.8780 H   0  0  0  0  0  0  0  0  0  0  0  0
    5.9019    1.1956    1.1175 H   0  0  0  0  0  0  0  0  0  0  0  0
    8.0996    1.7720    0.1137 H   0  0  0  0  0  0  0  0  0  0  0  0
    6.5640    1.7909   -3.6578 H   0  0  0  0  0  0  0  0  0  0  0  0
    4.2950    1.2185   -2.8638 H   0  0  0  0  0  0  0  0  0  0  0  0
   -0.6240   -0.2849    1.7615 H   0  0  0  0  0  0  0  0  0  0  0  0
   -2.7926   -0.8359    2.6297 H   0  0  0  0  0  0  0  0  0  0  0  0
  1  2  1  0  0  0  0
  2  3  1  0  0  0  0
  2  4  1  0  0  0  0
  4  5  2  0  0  0  0
  5  6  1  0  0  0  0
  6  7  2  0  0  0  0
  7  8  1  0  0  0  0
  8  9  2  0  0  0  0
  9 10  1  0  0  0  0
 10 11  2  0  0  0  0
 11 12  1  0  0  0  0
 12 13  2  0  0  0  0
 13 14  1  0  0  0  0
 14 15  2  0  0  0  0
 15 16  1  0  0  0  0
 16 17  2  0  0  0  0
  7 18  1  0  0  0  0
 18 19  2  0  0  0  0
 19  4  1  0  0  0  0
 17 12  1  0  0  0  0
  1 20  1  0  0  0  0
  1 21  1  0  0  0  0
  1 22  1  0  0  0  0
  3 23  1  0  0  0  0
  3 24  1  0  0  0  0
  3 25  1  0  0  0  0
  5 26  1  0  0  0  0
  6 27  1  0  0  0  0
  8 28  1  0  0  0  0
  9 29  1  0  0  0  0
 10 30  1  0  0  0  0
 11 31  1  0  0  0  0
 13 32  1  0  0  0  0
 14 33  1  0  0  0  0
 16 34  1  0  0  0  0
 17 35  1  0  0  0  0
 18 36  1  0  0  0  0
 19 37  1  0  0  0  0
M  END
