
  xtb     03022215083D
 energy: -94.302478964049 gnorm: 0.000130103209 xtb: 6.4.1 (afa7bdf)
 62 67  0     0  0            999 V2000
    4.4739    0.9172   -0.1094 C   0  0  0  0  0  0  0  0  0  0  0  0
    5.4228   -0.0020    0.1300 C   0  0  0  0  0  0  0  0  0  0  0  0
    6.8340    0.3108    0.1137 C   0  0  0  0  0  0  0  0  0  0  0  0
    7.1960    1.5912   -0.1629 N   0  0  0  0  0  0  0  0  0  0  0  0
    8.4647    1.8680   -0.1799 C   0  0  0  0  0  0  0  0  0  0  0  0
    9.4669    0.9036    0.0751 C   0  0  0  0  0  0  0  0  0  0  0  0
   10.8491    1.1566    0.0675 C   0  0  0  0  0  0  0  0  0  0  0  0
   11.7265    0.1404    0.3309 C   0  0  0  0  0  0  0  0  0  0  0  0
   11.2563   -1.1547    0.6090 C   0  0  0  0  0  0  0  0  0  0  0  0
    9.9178   -1.4321    0.6232 C   0  0  0  0  0  0  0  0  0  0  0  0
    8.9870   -0.4058    0.3555 C   0  0  0  0  0  0  0  0  0  0  0  0
    7.6700   -0.6728    0.3676 N   0  0  0  0  0  0  0  0  0  0  0  0
    3.0441    0.7056   -0.1223 C   0  0  0  0  0  0  0  0  0  0  0  0
    2.1993    1.7893   -0.3876 C   0  0  0  0  0  0  0  0  0  0  0  0
    0.8303    1.6386   -0.4187 C   0  0  0  0  0  0  0  0  0  0  0  0
    0.2431    0.3957   -0.1796 C   0  0  0  0  0  0  0  0  0  0  0  0
   -1.2119    0.2266   -0.2127 C   0  0  0  0  0  0  0  0  0  0  0  0
   -1.9921    0.8923   -1.1582 C   0  0  0  0  0  0  0  0  0  0  0  0
   -3.3586    0.7196   -1.2040 C   0  0  0  0  0  0  0  0  0  0  0  0
   -3.9980   -0.1181   -0.2887 C   0  0  0  0  0  0  0  0  0  0  0  0
   -5.3820   -0.2970   -0.3304 N   0  0  0  0  0  0  0  0  0  0  0  0
   -5.9363   -1.5468   -0.0278 C   0  0  0  0  0  0  0  0  0  0  0  0
   -7.1384   -1.6355    0.6736 C   0  0  0  0  0  0  0  0  0  0  0  0
   -7.6842   -2.8703    0.9653 C   0  0  0  0  0  0  0  0  0  0  0  0
   -7.0411   -4.0328    0.5730 C   0  0  0  0  0  0  0  0  0  0  0  0
   -5.8450   -3.9503   -0.1209 C   0  0  0  0  0  0  0  0  0  0  0  0
   -5.2955   -2.7201   -0.4251 C   0  0  0  0  0  0  0  0  0  0  0  0
   -6.2187    0.7691   -0.6814 C   0  0  0  0  0  0  0  0  0  0  0  0
   -5.9267    2.0661   -0.2598 C   0  0  0  0  0  0  0  0  0  0  0  0
   -6.7539    3.1148   -0.6116 C   0  0  0  0  0  0  0  0  0  0  0  0
   -7.8856    2.8899   -1.3782 C   0  0  0  0  0  0  0  0  0  0  0  0
   -8.1829    1.6027   -1.7952 C   0  0  0  0  0  0  0  0  0  0  0  0
   -7.3573    0.5486   -1.4559 C   0  0  0  0  0  0  0  0  0  0  0  0
   -3.2245   -0.7763    0.6690 C   0  0  0  0  0  0  0  0  0  0  0  0
   -1.8569   -0.6110    0.6977 C   0  0  0  0  0  0  0  0  0  0  0  0
    1.0820   -0.6876    0.0892 C   0  0  0  0  0  0  0  0  0  0  0  0
    2.4508   -0.5389    0.1151 C   0  0  0  0  0  0  0  0  0  0  0  0
    4.8051    1.9267   -0.3176 H   0  0  0  0  0  0  0  0  0  0  0  0
    5.1988   -1.0346    0.3495 H   0  0  0  0  0  0  0  0  0  0  0  0
    8.7352    2.8951   -0.4034 H   0  0  0  0  0  0  0  0  0  0  0  0
   11.1982    2.1567   -0.1478 H   0  0  0  0  0  0  0  0  0  0  0  0
   12.7906    0.3256    0.3275 H   0  0  0  0  0  0  0  0  0  0  0  0
   11.9723   -1.9377    0.8136 H   0  0  0  0  0  0  0  0  0  0  0  0
    9.5413   -2.4204    0.8345 H   0  0  0  0  0  0  0  0  0  0  0  0
    2.6344    2.7621   -0.5683 H   0  0  0  0  0  0  0  0  0  0  0  0
    0.2012    2.4962   -0.6086 H   0  0  0  0  0  0  0  0  0  0  0  0
   -1.5153    1.5267   -1.8910 H   0  0  0  0  0  0  0  0  0  0  0  0
   -3.9435    1.2264   -1.9576 H   0  0  0  0  0  0  0  0  0  0  0  0
   -7.6370   -0.7306    0.9890 H   0  0  0  0  0  0  0  0  0  0  0  0
   -8.6149   -2.9249    1.5109 H   0  0  0  0  0  0  0  0  0  0  0  0
   -7.4691   -4.9960    0.8059 H   0  0  0  0  0  0  0  0  0  0  0  0
   -5.3393   -4.8511   -0.4363 H   0  0  0  0  0  0  0  0  0  0  0  0
   -4.3683   -2.6583   -0.9760 H   0  0  0  0  0  0  0  0  0  0  0  0
   -5.0508    2.2424    0.3474 H   0  0  0  0  0  0  0  0  0  0  0  0
   -6.5173    4.1141   -0.2768 H   0  0  0  0  0  0  0  0  0  0  0  0
   -8.5313    3.7116   -1.6484 H   0  0  0  0  0  0  0  0  0  0  0  0
   -9.0605    1.4183   -2.3972 H   0  0  0  0  0  0  0  0  0  0  0  0
   -7.5861   -0.4527   -1.7904 H   0  0  0  0  0  0  0  0  0  0  0  0
   -3.7082   -1.4147    1.3938 H   0  0  0  0  0  0  0  0  0  0  0  0
   -1.2802   -1.1137    1.4600 H   0  0  0  0  0  0  0  0  0  0  0  0
    0.6489   -1.6632    0.2560 H   0  0  0  0  0  0  0  0  0  0  0  0
    3.0710   -1.3983    0.3173 H   0  0  0  0  0  0  0  0  0  0  0  0
  1  2  2  0  0  0  0
  2  3  1  0  0  0  0
  3  4  2  0  0  0  0
  4  5  1  0  0  0  0
  5  6  2  0  0  0  0
  6  7  1  0  0  0  0
  7  8  2  0  0  0  0
  8  9  1  0  0  0  0
  9 10  2  0  0  0  0
 10 11  1  0  0  0  0
 11 12  2  0  0  0  0
  1 13  1  0  0  0  0
 13 14  2  0  0  0  0
 14 15  1  0  0  0  0
 15 16  2  0  0  0  0
 16 17  1  0  0  0  0
 17 18  2  0  0  0  0
 18 19  1  0  0  0  0
 19 20  2  0  0  0  0
 20 21  1  0  0  0  0
 21 22  1  0  0  0  0
 22 23  2  0  0  0  0
 23 24  1  0  0  0  0
 24 25  2  0  0  0  0
 25 26  1  0  0  0  0
 26 27  2  0  0  0  0
 21 28  1  0  0  0  0
 28 29  2  0  0  0  0
 29 30  1  0  0  0  0
 30 31  2  0  0  0  0
 31 32  1  0  0  0  0
 32 33  2  0  0  0  0
 20 34  1  0  0  0  0
 34 35  2  0  0  0  0
 16 36  1  0  0  0  0
 36 37  2  0  0  0  0
 12  3  1  0  0  0  0
 37 13  1  0  0  0  0
 11  6  1  0  0  0  0
 35 17  1  0  0  0  0
 27 22  1  0  0  0  0
 33 28  1  0  0  0  0
  1 38  1  0  0  0  0
  2 39  1  0  0  0  0
  5 40  1  0  0  0  0
  7 41  1  0  0  0  0
  8 42  1  0  0  0  0
  9 43  1  0  0  0  0
 10 44  1  0  0  0  0
 14 45  1  0  0  0  0
 15 46  1  0  0  0  0
 18 47  1  0  0  0  0
 19 48  1  0  0  0  0
 23 49  1  0  0  0  0
 24 50  1  0  0  0  0
 25 51  1  0  0  0  0
 26 52  1  0  0  0  0
 27 53  1  0  0  0  0
 29 54  1  0  0  0  0
 30 55  1  0  0  0  0
 31 56  1  0  0  0  0
 32 57  1  0  0  0  0
 33 58  1  0  0  0  0
 34 59  1  0  0  0  0
 35 60  1  0  0  0  0
 36 61  1  0  0  0  0
 37 62  1  0  0  0  0
M  END
