
  xtb     03022214483D
 energy: -91.116239333691 gnorm: 0.000170033786 xtb: 6.4.1 (afa7bdf)
 64 67  0     0  0            999 V2000
    8.6561    2.1846   -0.0098 C   0  0  0  0  0  0  0  0  0  0  0  0
    7.3291    2.4618    0.6856 C   0  0  0  0  0  0  0  0  0  0  0  0
    6.3172    1.3436    0.4445 C   0  0  0  0  0  0  0  0  0  0  0  0
    4.9855    1.6252    1.1373 C   0  0  0  0  0  0  0  0  0  0  0  0
    3.9986    0.4622    1.0514 C   0  0  0  0  0  0  0  0  0  0  0  0
    3.5197    0.1911   -0.3807 C   0  0  0  0  0  0  0  0  0  0  0  0
    2.4823   -0.8181   -0.4256 N   0  0  0  0  0  0  0  0  0  0  0  0
    2.8847   -2.1538   -0.2452 C   0  0  0  0  0  0  0  0  0  0  0  0
    2.3038   -2.9357    0.7536 C   0  0  0  0  0  0  0  0  0  0  0  0
    2.7093   -4.2417    0.9463 C   0  0  0  0  0  0  0  0  0  0  0  0
    3.7058   -4.7891    0.1547 C   0  0  0  0  0  0  0  0  0  0  0  0
    4.2893   -4.0185   -0.8363 C   0  0  0  0  0  0  0  0  0  0  0  0
    3.8839   -2.7124   -1.0387 C   0  0  0  0  0  0  0  0  0  0  0  0
    1.1484   -0.4766   -0.3682 C   0  0  0  0  0  0  0  0  0  0  0  0
    0.7088    0.8002    0.0056 C   0  0  0  0  0  0  0  0  0  0  0  0
   -0.6290    1.1235   -0.0072 C   0  0  0  0  0  0  0  0  0  0  0  0
   -1.6031    0.1983   -0.3926 C   0  0  0  0  0  0  0  0  0  0  0  0
   -3.0179    0.4861   -0.4216 C   0  0  0  0  0  0  0  0  0  0  0  0
   -3.5985    1.6744   -0.1870 C   0  0  0  0  0  0  0  0  0  0  0  0
   -5.0212    1.9361   -0.2929 C   0  0  0  0  0  0  0  0  0  0  0  0
   -5.4447    3.1147   -0.8286 C   0  0  0  0  0  0  0  0  0  0  0  0
   -6.8300    3.4051   -1.1054 C   0  0  0  0  0  0  0  0  0  0  0  0
   -7.2477    4.4250   -1.6000 O   0  0  0  0  0  0  0  0  0  0  0  0
   -7.7363    2.4171   -0.8093 O   0  0  0  0  0  0  0  0  0  0  0  0
   -7.3671    1.2800   -0.1803 C   0  0  0  0  0  0  0  0  0  0  0  0
   -8.3886    0.3966    0.1645 C   0  0  0  0  0  0  0  0  0  0  0  0
   -8.1121   -0.7652    0.8576 C   0  0  0  0  0  0  0  0  0  0  0  0
   -9.2001   -1.7193    1.2378 C   0  0  0  0  0  0  0  0  0  0  0  0
   -6.7901   -1.0233    1.2316 C   0  0  0  0  0  0  0  0  0  0  0  0
   -5.7737   -0.1674    0.8814 C   0  0  0  0  0  0  0  0  0  0  0  0
   -6.0295    0.9870    0.1311 C   0  0  0  0  0  0  0  0  0  0  0  0
   -1.1589   -1.0766   -0.7677 C   0  0  0  0  0  0  0  0  0  0  0  0
    0.1735   -1.4067   -0.7614 C   0  0  0  0  0  0  0  0  0  0  0  0
    9.0903    1.2558    0.3539 H   0  0  0  0  0  0  0  0  0  0  0  0
    8.5134    2.0972   -1.0848 H   0  0  0  0  0  0  0  0  0  0  0  0
    9.3623    2.9899    0.1777 H   0  0  0  0  0  0  0  0  0  0  0  0
    6.9173    3.4051    0.3194 H   0  0  0  0  0  0  0  0  0  0  0  0
    7.4983    2.5702    1.7594 H   0  0  0  0  0  0  0  0  0  0  0  0
    6.7258    0.4019    0.8189 H   0  0  0  0  0  0  0  0  0  0  0  0
    6.1620    1.2363   -0.6306 H   0  0  0  0  0  0  0  0  0  0  0  0
    4.5325    2.5189    0.7009 H   0  0  0  0  0  0  0  0  0  0  0  0
    5.1783    1.8374    2.1917 H   0  0  0  0  0  0  0  0  0  0  0  0
    3.1317    0.6818    1.6787 H   0  0  0  0  0  0  0  0  0  0  0  0
    4.4641   -0.4459    1.4424 H   0  0  0  0  0  0  0  0  0  0  0  0
    4.3625   -0.1569   -0.9800 H   0  0  0  0  0  0  0  0  0  0  0  0
    3.1413    1.1075   -0.8387 H   0  0  0  0  0  0  0  0  0  0  0  0
    1.5341   -2.5067    1.3785 H   0  0  0  0  0  0  0  0  0  0  0  0
    2.2517   -4.8326    1.7260 H   0  0  0  0  0  0  0  0  0  0  0  0
    4.0246   -5.8087    0.3091 H   0  0  0  0  0  0  0  0  0  0  0  0
    5.0619   -4.4388   -1.4632 H   0  0  0  0  0  0  0  0  0  0  0  0
    4.3341   -2.1315   -1.8298 H   0  0  0  0  0  0  0  0  0  0  0  0
    1.4141    1.5504    0.3256 H   0  0  0  0  0  0  0  0  0  0  0  0
   -0.9217    2.1156    0.3008 H   0  0  0  0  0  0  0  0  0  0  0  0
   -3.6428   -0.3512   -0.7073 H   0  0  0  0  0  0  0  0  0  0  0  0
   -2.9901    2.5491   -0.0036 H   0  0  0  0  0  0  0  0  0  0  0  0
   -4.7430    3.8741   -1.1371 H   0  0  0  0  0  0  0  0  0  0  0  0
   -9.3986    0.6562   -0.1125 H   0  0  0  0  0  0  0  0  0  0  0  0
   -9.3096   -1.7515    2.3212 H   0  0  0  0  0  0  0  0  0  0  0  0
  -10.1496   -1.4220    0.8021 H   0  0  0  0  0  0  0  0  0  0  0  0
   -8.9569   -2.7254    0.8999 H   0  0  0  0  0  0  0  0  0  0  0  0
   -6.5696   -1.9084    1.8103 H   0  0  0  0  0  0  0  0  0  0  0  0
   -4.7660   -0.3693    1.2086 H   0  0  0  0  0  0  0  0  0  0  0  0
   -1.8831   -1.8149   -1.0827 H   0  0  0  0  0  0  0  0  0  0  0  0
    0.4826   -2.3919   -1.0775 H   0  0  0  0  0  0  0  0  0  0  0  0
  1  2  1  0  0  0  0
  2  3  1  0  0  0  0
  3  4  1  0  0  0  0
  4  5  1  0  0  0  0
  5  6  1  0  0  0  0
  6  7  1  0  0  0  0
  7  8  1  0  0  0  0
  8  9  2  0  0  0  0
  9 10  1  0  0  0  0
 10 11  2  0  0  0  0
 11 12  1  0  0  0  0
 12 13  2  0  0  0  0
  7 14  1  0  0  0  0
 14 15  2  0  0  0  0
 15 16  1  0  0  0  0
 16 17  2  0  0  0  0
 17 18  1  0  0  0  0
 18 19  2  0  0  0  0
 19 20  1  0  0  0  0
 20 21  2  0  0  0  0
 21 22  1  0  0  0  0
 22 23  2  0  0  0  0
 22 24  1  0  0  0  0
 24 25  1  0  0  0  0
 25 26  2  0  0  0  0
 26 27  1  0  0  0  0
 27 28  1  0  0  0  0
 27 29  2  0  0  0  0
 29 30  1  0  0  0  0
 30 31  2  0  0  0  0
 17 32  1  0  0  0  0
 32 33  2  0  0  0  0
 13  8  1  0  0  0  0
 33 14  1  0  0  0  0
 31 20  1  0  0  0  0
 31 25  1  0  0  0  0
  1 34  1  0  0  0  0
  1 35  1  0  0  0  0
  1 36  1  0  0  0  0
  2 37  1  0  0  0  0
  2 38  1  0  0  0  0
  3 39  1  0  0  0  0
  3 40  1  0  0  0  0
  4 41  1  0  0  0  0
  4 42  1  0  0  0  0
  5 43  1  0  0  0  0
  5 44  1  0  0  0  0
  6 45  1  0  0  0  0
  6 46  1  0  0  0  0
  9 47  1  0  0  0  0
 10 48  1  0  0  0  0
 11 49  1  0  0  0  0
 12 50  1  0  0  0  0
 13 51  1  0  0  0  0
 15 52  1  0  0  0  0
 16 53  1  0  0  0  0
 18 54  1  0  0  0  0
 19 55  1  0  0  0  0
 21 56  1  0  0  0  0
 26 57  1  0  0  0  0
 28 58  1  0  0  0  0
 28 59  1  0  0  0  0
 28 60  1  0  0  0  0
 29 61  1  0  0  0  0
 30 62  1  0  0  0  0
 32 63  1  0  0  0  0
 33 64  1  0  0  0  0
M  END
