
  xtb     03022215003D
 energy: -50.139231453959 gnorm: 0.000136798632 xtb: 6.4.1 (afa7bdf)
 29 31  0     0  0            999 V2000
    0.1057    1.8280   -0.7445 F   0  0  0  0  0  0  0  0  0  0  0  0
   -0.3778    0.5412   -0.8145 B   0  0  0  0  0  4  0  0  0  0  0  0
   -0.4468    0.1426   -2.1404 F   0  0  0  0  0  0  0  0  0  0  0  0
    0.4844   -0.4161    0.0238 N   0  0  0  0  0  0  0  0  0  0  0  0
    1.8856   -0.3364   -0.0595 C   0  0  0  0  0  0  0  0  0  0  0  0
    2.6790   -0.5609    1.0645 C   0  0  0  0  0  0  0  0  0  0  0  0
    4.0560   -0.4860    0.9700 C   0  0  0  0  0  0  0  0  0  0  0  0
    4.6591   -0.1760   -0.2369 C   0  0  0  0  0  0  0  0  0  0  0  0
    3.8724    0.0704   -1.3499 C   0  0  0  0  0  0  0  0  0  0  0  0
    2.4953   -0.0070   -1.2672 C   0  0  0  0  0  0  0  0  0  0  0  0
   -0.0826   -1.3153    0.8236 C   0  0  0  0  0  0  0  0  0  0  0  0
   -1.4254   -1.3676    1.0835 C   0  0  0  0  0  0  0  0  0  0  0  0
   -2.3209   -0.4089    0.5717 C   0  0  0  0  0  0  0  0  0  0  0  0
   -3.6882   -0.3915    0.9273 C   0  0  0  0  0  0  0  0  0  0  0  0
   -4.5206    0.5731    0.4306 C   0  0  0  0  0  0  0  0  0  0  0  0
   -3.9986    1.5471   -0.4320 C   0  0  0  0  0  0  0  0  0  0  0  0
   -2.6695    1.4886   -0.7550 C   0  0  0  0  0  0  0  0  0  0  0  0
   -1.8552    0.5417   -0.2729 N   0  0  0  0  0  4  0  0  0  0  0  0
    2.2188   -0.7655    2.0203 H   0  0  0  0  0  0  0  0  0  0  0  0
    4.6599   -0.6602    1.8487 H   0  0  0  0  0  0  0  0  0  0  0  0
    5.7350   -0.1165   -0.3060 H   0  0  0  0  0  0  0  0  0  0  0  0
    4.3345    0.3225   -2.2927 H   0  0  0  0  0  0  0  0  0  0  0  0
    1.8868    0.1815   -2.1353 H   0  0  0  0  0  0  0  0  0  0  0  0
    0.5725   -2.0450    1.2841 H   0  0  0  0  0  0  0  0  0  0  0  0
   -1.8132   -2.1407    1.7240 H   0  0  0  0  0  0  0  0  0  0  0  0
   -4.0501   -1.1553    1.5974 H   0  0  0  0  0  0  0  0  0  0  0  0
   -5.5668    0.5893    0.6968 H   0  0  0  0  0  0  0  0  0  0  0  0
   -4.6247    2.3219   -0.8409 H   0  0  0  0  0  0  0  0  0  0  0  0
   -2.2047    2.2012   -1.4187 H   0  0  0  0  0  0  0  0  0  0  0  0
  1  2  1  0  0  0  0
  2  3  1  0  0  0  0
  2  4  1  0  0  0  0
  4  5  1  0  0  0  0
  5  6  2  0  0  0  0
  6  7  1  0  0  0  0
  7  8  2  0  0  0  0
  8  9  1  0  0  0  0
  9 10  2  0  0  0  0
  4 11  1  0  0  0  0
 11 12  2  0  0  0  0
 12 13  1  0  0  0  0
 13 14  2  0  0  0  0
 14 15  1  0  0  0  0
 15 16  2  0  0  0  0
 16 17  1  0  0  0  0
 17 18  2  0  0  0  0
 18  2  1  0  0  0  0
 10  5  1  0  0  0  0
 18 13  1  0  0  0  0
  6 19  1  0  0  0  0
  7 20  1  0  0  0  0
  8 21  1  0  0  0  0
  9 22  1  0  0  0  0
 10 23  1  0  0  0  0
 11 24  1  0  0  0  0
 12 25  1  0  0  0  0
 14 26  1  0  0  0  0
 15 27  1  0  0  0  0
 16 28  1  0  0  0  0
 17 29  1  0  0  0  0
M  CHG  1   2  -1
M  CHG  1  18   1
M  END
