
  xtb     03022213413D
 energy: -48.785232150356 gnorm: 0.000315527910 xtb: 6.4.1 (afa7bdf)
 29 31  0     0  0            999 V2000
    3.8219   -1.1713    0.1871 C   0  0  0  0  0  0  0  0  0  0  0  0
    2.4323   -0.9306    0.3582 O   0  0  0  0  0  0  0  0  0  0  0  0
    1.8518   -0.1388   -0.5535 C   0  0  0  0  0  0  0  0  0  0  0  0
    2.4435    0.3573   -1.4771 O   0  0  0  0  0  0  0  0  0  0  0  0
    0.4013    0.0500   -0.2544 C   0  0  0  0  0  0  0  0  0  0  0  0
   -0.0966    1.3413   -0.0289 C   0  0  0  0  0  0  0  0  0  0  0  0
    0.6973    2.5145   -0.0785 C   0  0  0  0  0  0  0  0  0  0  0  0
    0.1457    3.7353    0.1671 C   0  0  0  0  0  0  0  0  0  0  0  0
   -1.2237    3.8598    0.4849 C   0  0  0  0  0  0  0  0  0  0  0  0
   -2.0215    2.7594    0.5460 C   0  0  0  0  0  0  0  0  0  0  0  0
   -1.4900    1.4687    0.2917 C   0  0  0  0  0  0  0  0  0  0  0  0
   -2.3088    0.4273    0.3664 N   0  0  0  0  0  0  0  0  0  0  0  0
   -1.8423   -0.7910    0.1243 C   0  0  0  0  0  0  0  0  0  0  0  0
   -2.7489   -1.8804    0.1929 C   0  0  0  0  0  0  0  0  0  0  0  0
   -2.3263   -3.1489   -0.0584 C   0  0  0  0  0  0  0  0  0  0  0  0
   -0.9798   -3.4005   -0.3970 C   0  0  0  0  0  0  0  0  0  0  0  0
   -0.0766   -2.3837   -0.4684 C   0  0  0  0  0  0  0  0  0  0  0  0
   -0.4677   -1.0485   -0.1993 C   0  0  0  0  0  0  0  0  0  0  0  0
    4.0882   -1.9409    0.9066 H   0  0  0  0  0  0  0  0  0  0  0  0
    4.0274   -1.5048   -0.8321 H   0  0  0  0  0  0  0  0  0  0  0  0
    4.3899   -0.2586    0.3782 H   0  0  0  0  0  0  0  0  0  0  0  0
    1.7424    2.4271   -0.3324 H   0  0  0  0  0  0  0  0  0  0  0  0
    0.7567    4.6246    0.1203 H   0  0  0  0  0  0  0  0  0  0  0  0
   -1.6304    4.8416    0.6779 H   0  0  0  0  0  0  0  0  0  0  0  0
   -3.0711    2.8249    0.7852 H   0  0  0  0  0  0  0  0  0  0  0  0
   -3.7740   -1.6568    0.4426 H   0  0  0  0  0  0  0  0  0  0  0  0
   -3.0183   -3.9767   -0.0081 H   0  0  0  0  0  0  0  0  0  0  0  0
   -0.6714   -4.4146   -0.6045 H   0  0  0  0  0  0  0  0  0  0  0  0
    0.9490   -2.5861   -0.7366 H   0  0  0  0  0  0  0  0  0  0  0  0
  1  2  1  0  0  0  0
  2  3  1  0  0  0  0
  3  4  2  0  0  0  0
  3  5  1  0  0  0  0
  5  6  2  0  0  0  0
  6  7  1  0  0  0  0
  7  8  2  0  0  0  0
  8  9  1  0  0  0  0
  9 10  2  0  0  0  0
 10 11  1  0  0  0  0
 11 12  2  0  0  0  0
 12 13  1  0  0  0  0
 13 14  2  0  0  0  0
 14 15  1  0  0  0  0
 15 16  2  0  0  0  0
 16 17  1  0  0  0  0
 17 18  2  0  0  0  0
 18  5  1  0  0  0  0
 11  6  1  0  0  0  0
 18 13  1  0  0  0  0
  1 19  1  0  0  0  0
  1 20  1  0  0  0  0
  1 21  1  0  0  0  0
  7 22  1  0  0  0  0
  8 23  1  0  0  0  0
  9 24  1  0  0  0  0
 10 25  1  0  0  0  0
 14 26  1  0  0  0  0
 15 27  1  0  0  0  0
 16 28  1  0  0  0  0
 17 29  1  0  0  0  0
M  END
