
  xtb     03022213143D
 energy: -56.285320263063 gnorm: 0.000261623941 xtb: 6.4.1 (afa7bdf)
 34 37  0     0  0            999 V2000
    3.3457   -7.2357   -3.4192 N   0  0  0  0  0  0  0  0  0  0  0  0
    2.8768   -6.2935   -2.9634 C   0  0  0  0  0  0  0  0  0  0  0  0
    2.2973   -5.1356   -2.3993 C   0  0  0  0  0  0  0  0  0  0  0  0
    1.2991   -5.2580   -1.4309 C   0  0  0  0  0  0  0  0  0  0  0  0
    0.7336   -4.1283   -0.8796 C   0  0  0  0  0  0  0  0  0  0  0  0
    1.1512   -2.8586   -1.2819 C   0  0  0  0  0  0  0  0  0  0  0  0
    0.5715   -1.6549   -0.7141 C   0  0  0  0  0  0  0  0  0  0  0  0
   -0.4240   -1.5432    0.2483 C   0  0  0  0  0  0  0  0  0  0  0  0
   -0.5965   -0.2066    0.4280 N   0  0  0  0  0  0  0  0  0  0  0  0
   -1.2850    0.7262    1.1124 C   0  0  0  0  0  0  0  0  0  0  0  0
   -0.8312    1.9722    0.6779 C   0  0  0  0  0  0  0  0  0  0  0  0
   -1.2989    3.2718    1.1447 C   0  0  0  0  0  0  0  0  0  0  0  0
   -1.1702    4.4041    0.3423 C   0  0  0  0  0  0  0  0  0  0  0  0
   -1.6168    5.6342    0.7862 C   0  0  0  0  0  0  0  0  0  0  0  0
   -2.1993    5.7558    2.0369 C   0  0  0  0  0  0  0  0  0  0  0  0
   -2.3311    4.6372    2.8427 C   0  0  0  0  0  0  0  0  0  0  0  0
   -1.8850    3.4058    2.4023 C   0  0  0  0  0  0  0  0  0  0  0  0
    0.1534    1.7409   -0.2866 C   0  0  0  0  0  0  0  0  0  0  0  0
    0.2741    0.4106   -0.4094 N   0  0  0  0  0  4  0  0  0  0  0  0
    0.9897   -0.4315   -1.1071 N   0  0  0  0  0  2  0  0  0  0  0  0
    2.1503   -2.7450   -2.2514 C   0  0  0  0  0  0  0  0  0  0  0  0
    2.7206   -3.8685   -2.8075 C   0  0  0  0  0  0  0  0  0  0  0  0
    0.9768   -6.2411   -1.1199 H   0  0  0  0  0  0  0  0  0  0  0  0
   -0.0370   -4.2316   -0.1315 H   0  0  0  0  0  0  0  0  0  0  0  0
   -0.9886   -2.2723    0.7851 H   0  0  0  0  0  0  0  0  0  0  0  0
   -2.0474    0.4670    1.8154 H   0  0  0  0  0  0  0  0  0  0  0  0
   -0.7300    4.3142   -0.6392 H   0  0  0  0  0  0  0  0  0  0  0  0
   -1.5129    6.5029    0.1526 H   0  0  0  0  0  0  0  0  0  0  0  0
   -2.5485    6.7175    2.3821 H   0  0  0  0  0  0  0  0  0  0  0  0
   -2.7815    4.7260    3.8206 H   0  0  0  0  0  0  0  0  0  0  0  0
   -1.9778    2.5415    3.0424 H   0  0  0  0  0  0  0  0  0  0  0  0
    0.7666    2.4144   -0.8436 H   0  0  0  0  0  0  0  0  0  0  0  0
    2.4619   -1.7573   -2.5513 H   0  0  0  0  0  0  0  0  0  0  0  0
    3.4932   -3.7811   -3.5572 H   0  0  0  0  0  0  0  0  0  0  0  0
  1  2  3  0  0  0  0
  2  3  1  0  0  0  0
  3  4  2  0  0  0  0
  4  5  1  0  0  0  0
  5  6  2  0  0  0  0
  6  7  1  0  0  0  0
  7  8  2  0  0  0  0
  8  9  1  0  0  0  0
  9 10  1  0  0  0  0
 10 11  2  0  0  0  0
 11 12  1  0  0  0  0
 12 13  2  0  0  0  0
 13 14  1  0  0  0  0
 14 15  2  0  0  0  0
 15 16  1  0  0  0  0
 16 17  2  0  0  0  0
 11 18  1  0  0  0  0
 18 19  2  0  0  0  0
 19 20  1  0  0  0  0
  6 21  1  0  0  0  0
 21 22  2  0  0  0  0
 22  3  1  0  0  0  0
 20  7  1  0  0  0  0
 19  9  1  0  0  0  0
 17 12  1  0  0  0  0
  4 23  1  0  0  0  0
  5 24  1  0  0  0  0
  8 25  1  0  0  0  0
 10 26  1  0  0  0  0
 13 27  1  0  0  0  0
 14 28  1  0  0  0  0
 15 29  1  0  0  0  0
 16 30  1  0  0  0  0
 17 31  1  0  0  0  0
 18 32  1  0  0  0  0
 21 33  1  0  0  0  0
 22 34  1  0  0  0  0
M  CHG  1  19   1
M  CHG  1  20  -1
M  END
