
  xtb     03022213343D
 energy: -101.213329984433 gnorm: 0.000264780702 xtb: 6.4.1 (afa7bdf)
 65 72  0     0  0            999 V2000
   -2.7942   -4.1357   -0.9741 C   0  0  0  0  0  0  0  0  0  0  0  0
   -2.4610   -2.7122   -0.7458 C   0  0  0  0  0  0  0  0  0  0  0  0
   -1.1929   -2.2835   -0.6458 N   0  0  0  0  0  4  0  0  0  0  0  0
   -1.1819   -0.9173   -0.4291 C   0  0  0  0  0  0  0  0  0  0  0  0
    0.0054   -0.2682   -0.0752 C   0  0  0  0  0  0  0  0  0  0  0  0
   -0.0234    1.1459    0.3259 C   0  0  0  0  0  0  0  0  0  0  0  0
   -0.8517    1.5662    1.3632 C   0  0  0  0  0  0  0  0  0  0  0  0
   -0.8724    2.8948    1.7424 C   0  0  0  0  0  0  0  0  0  0  0  0
   -0.0780    3.8186    1.0842 C   0  0  0  0  0  0  0  0  0  0  0  0
    0.7436    3.4087    0.0477 C   0  0  0  0  0  0  0  0  0  0  0  0
    0.7773    2.0791   -0.3273 C   0  0  0  0  0  0  0  0  0  0  0  0
    1.2200   -0.9613   -0.1022 C   0  0  0  0  0  0  0  0  0  0  0  0
    2.5574   -0.5579    0.1833 C   0  0  0  0  0  0  0  0  0  0  0  0
    3.3864   -1.5737   -0.2924 C   0  0  0  0  0  0  0  0  0  0  0  0
    2.5686   -2.6060   -0.7613 C   0  0  0  0  0  0  0  0  0  0  0  0
    2.9571   -3.9236   -1.3110 C   0  0  0  0  0  0  0  0  0  0  0  0
    1.2844   -2.2365   -0.6344 N   0  0  0  0  0  0  0  0  0  0  0  0
    0.0635   -3.1376   -0.8877 B   0  0  0  0  0  4  0  0  0  0  0  0
    0.0960   -4.2176   -0.0186 F   0  0  0  0  0  0  0  0  0  0  0  0
    0.0624   -3.6050   -2.1931 F   0  0  0  0  0  0  0  0  0  0  0  0
    4.8706   -1.4334   -0.2755 C   0  0  0  0  0  0  0  0  0  0  0  0
    5.1920    0.0528   -0.4689 C   0  0  0  0  0  0  0  0  0  0  0  0
    4.4841    0.8710    0.5756 C   0  0  0  0  0  0  0  0  0  0  0  0
    5.1168    1.9074    1.2389 C   0  0  0  0  0  0  0  0  0  0  0  0
    4.4650    2.6125    2.2377 C   0  0  0  0  0  0  0  0  0  0  0  0
    3.1810    2.2513    2.6080 C   0  0  0  0  0  0  0  0  0  0  0  0
    2.5326    1.2246    1.9488 C   0  0  0  0  0  0  0  0  0  0  0  0
    3.1522    0.5577    0.8957 C   0  0  0  0  0  0  0  0  0  0  0  0
   -2.5363   -0.4743   -0.4753 C   0  0  0  0  0  0  0  0  0  0  0  0
   -3.3217   -1.6187   -0.6126 C   0  0  0  0  0  0  0  0  0  0  0  0
   -4.8103   -1.5458   -0.5703 C   0  0  0  0  0  0  0  0  0  0  0  0
   -5.1855   -0.3951    0.3703 C   0  0  0  0  0  0  0  0  0  0  0  0
   -4.5194    0.8751   -0.0820 C   0  0  0  0  0  0  0  0  0  0  0  0
   -5.1974    2.0808   -0.1109 C   0  0  0  0  0  0  0  0  0  0  0  0
   -4.5826    3.2287   -0.5843 C   0  0  0  0  0  0  0  0  0  0  0  0
   -3.2895    3.1636   -1.0740 C   0  0  0  0  0  0  0  0  0  0  0  0
   -2.5963    1.9688   -1.0435 C   0  0  0  0  0  0  0  0  0  0  0  0
   -3.1798    0.8262   -0.5035 C   0  0  0  0  0  0  0  0  0  0  0  0
   -2.3928   -4.7452   -0.1654 H   0  0  0  0  0  0  0  0  0  0  0  0
   -3.8691   -4.2755   -1.0431 H   0  0  0  0  0  0  0  0  0  0  0  0
   -2.3206   -4.4766   -1.8938 H   0  0  0  0  0  0  0  0  0  0  0  0
   -1.4635    0.8417    1.8800 H   0  0  0  0  0  0  0  0  0  0  0  0
   -1.5130    3.2108    2.5522 H   0  0  0  0  0  0  0  0  0  0  0  0
   -0.0993    4.8571    1.3789 H   0  0  0  0  0  0  0  0  0  0  0  0
    1.3631    4.1267   -0.4688 H   0  0  0  0  0  0  0  0  0  0  0  0
    1.4105    1.7576   -1.1409 H   0  0  0  0  0  0  0  0  0  0  0  0
    2.5811   -4.0270   -2.3281 H   0  0  0  0  0  0  0  0  0  0  0  0
    2.4964   -4.7141   -0.7203 H   0  0  0  0  0  0  0  0  0  0  0  0
    4.0366   -4.0433   -1.3032 H   0  0  0  0  0  0  0  0  0  0  0  0
    5.3293   -2.0277   -1.0671 H   0  0  0  0  0  0  0  0  0  0  0  0
    5.2734   -1.7762    0.6836 H   0  0  0  0  0  0  0  0  0  0  0  0
    4.8500    0.3595   -1.4633 H   0  0  0  0  0  0  0  0  0  0  0  0
    6.2681    0.2238   -0.4150 H   0  0  0  0  0  0  0  0  0  0  0  0
    6.1355    2.1607    0.9802 H   0  0  0  0  0  0  0  0  0  0  0  0
    4.9697    3.4223    2.7435 H   0  0  0  0  0  0  0  0  0  0  0  0
    2.6832    2.7661    3.4162 H   0  0  0  0  0  0  0  0  0  0  0  0
    1.5480    0.9215    2.2664 H   0  0  0  0  0  0  0  0  0  0  0  0
   -5.2385   -2.4835   -0.2135 H   0  0  0  0  0  0  0  0  0  0  0  0
   -5.2092   -1.3491   -1.5712 H   0  0  0  0  0  0  0  0  0  0  0  0
   -4.8452   -0.6431    1.3815 H   0  0  0  0  0  0  0  0  0  0  0  0
   -6.2677   -0.2616    0.4021 H   0  0  0  0  0  0  0  0  0  0  0  0
   -6.2223    2.1226    0.2305 H   0  0  0  0  0  0  0  0  0  0  0  0
   -5.1226    4.1638   -0.5964 H   0  0  0  0  0  0  0  0  0  0  0  0
   -2.8195    4.0439   -1.4867 H   0  0  0  0  0  0  0  0  0  0  0  0
   -1.6041    1.9143   -1.4615 H   0  0  0  0  0  0  0  0  0  0  0  0
  1  2  1  0  0  0  0
  2  3  2  0  0  0  0
  3  4  1  0  0  0  0
  4  5  2  0  0  0  0
  5  6  1  0  0  0  0
  6  7  2  0  0  0  0
  7  8  1  0  0  0  0
  8  9  2  0  0  0  0
  9 10  1  0  0  0  0
 10 11  2  0  0  0  0
  5 12  1  0  0  0  0
 12 13  2  0  0  0  0
 13 14  1  0  0  0  0
 14 15  2  0  0  0  0
 15 16  1  0  0  0  0
 15 17  1  0  0  0  0
 17 18  1  0  0  0  0
 18 19  1  0  0  0  0
 18 20  1  0  0  0  0
 14 21  1  0  0  0  0
 21 22  1  0  0  0  0
 22 23  1  0  0  0  0
 23 24  2  0  0  0  0
 24 25  1  0  0  0  0
 25 26  2  0  0  0  0
 26 27  1  0  0  0  0
 27 28  2  0  0  0  0
  4 29  1  0  0  0  0
 29 30  2  0  0  0  0
 30 31  1  0  0  0  0
 31 32  1  0  0  0  0
 32 33  1  0  0  0  0
 33 34  2  0  0  0  0
 34 35  1  0  0  0  0
 35 36  2  0  0  0  0
 36 37  1  0  0  0  0
 37 38  2  0  0  0  0
 30  2  1  0  0  0  0
 38 33  1  0  0  0  0
 18  3  1  0  0  0  0
 28 23  1  0  0  0  0
 38 29  1  0  0  0  0
 11  6  1  0  0  0  0
 17 12  1  0  0  0  0
 28 13  1  0  0  0  0
  1 39  1  0  0  0  0
  1 40  1  0  0  0  0
  1 41  1  0  0  0  0
  7 42  1  0  0  0  0
  8 43  1  0  0  0  0
  9 44  1  0  0  0  0
 10 45  1  0  0  0  0
 11 46  1  0  0  0  0
 16 47  1  0  0  0  0
 16 48  1  0  0  0  0
 16 49  1  0  0  0  0
 21 50  1  0  0  0  0
 21 51  1  0  0  0  0
 22 52  1  0  0  0  0
 22 53  1  0  0  0  0
 24 54  1  0  0  0  0
 25 55  1  0  0  0  0
 26 56  1  0  0  0  0
 27 57  1  0  0  0  0
 31 58  1  0  0  0  0
 31 59  1  0  0  0  0
 32 60  1  0  0  0  0
 32 61  1  0  0  0  0
 34 62  1  0  0  0  0
 35 63  1  0  0  0  0
 36 64  1  0  0  0  0
 37 65  1  0  0  0  0
M  CHG  1   3   1
M  CHG  1  18  -1
M  END
