
  xtb     03022213303D
 energy: -78.365450886562 gnorm: 0.000202227514 xtb: 6.4.1 (afa7bdf)
 49 51  0     0  0            999 V2000
    6.7546    2.9512    1.1375 C   0  0  0  0  0  0  0  0  0  0  0  0
    5.8391    1.9741    0.4243 C   0  0  0  0  0  0  0  0  0  0  0  0
    6.1602    1.3626   -0.5644 O   0  0  0  0  0  0  0  0  0  0  0  0
    4.6193    1.8781    1.0366 N   0  0  0  0  0  0  0  0  0  0  0  0
    3.5183    1.0943    0.6821 C   0  0  0  0  0  0  0  0  0  0  0  0
    2.3565    1.2155    1.4507 C   0  0  0  0  0  0  0  0  0  0  0  0
    1.2308    0.4778    1.1700 C   0  0  0  0  0  0  0  0  0  0  0  0
    1.2052   -0.4289    0.1001 C   0  0  0  0  0  0  0  0  0  0  0  0
    2.3720   -0.5394   -0.6781 C   0  0  0  0  0  0  0  0  0  0  0  0
    3.5086    0.2129   -0.3826 C   0  0  0  0  0  0  0  0  0  0  0  0
    2.4301   -1.4503   -1.8278 C   0  0  0  0  0  0  0  0  0  0  0  0
    3.4550   -1.6661   -2.4541 O   0  0  0  0  0  0  0  0  0  0  0  0
    1.1457   -2.0648   -2.1755 C   0  0  0  0  0  0  0  0  0  0  0  0
    1.0707   -2.8171   -3.3497 C   0  0  0  0  0  0  0  0  0  0  0  0
   -0.1042   -3.4130   -3.7403 C   0  0  0  0  0  0  0  0  0  0  0  0
   -1.2332   -3.2498   -2.9459 C   0  0  0  0  0  0  0  0  0  0  0  0
   -1.1823   -2.5156   -1.7815 C   0  0  0  0  0  0  0  0  0  0  0  0
    0.0110   -1.9097   -1.3586 C   0  0  0  0  0  0  0  0  0  0  0  0
    0.0869   -1.1870   -0.1861 N   0  0  0  0  0  0  0  0  0  0  0  0
   -1.0113   -1.2322    0.7587 C   0  0  0  0  0  0  0  0  0  0  0  0
   -2.0591   -0.1418    0.5079 C   0  0  0  0  0  0  0  0  0  0  0  0
   -3.2091   -0.2442    1.5077 C   0  0  0  0  0  0  0  0  0  0  0  0
   -4.2185    0.8942    1.3769 C   0  0  0  0  0  0  0  0  0  0  0  0
   -4.9849    0.8644    0.0578 C   0  0  0  0  0  0  0  0  0  0  0  0
   -6.1312    1.8441    0.0564 C   0  0  0  0  0  0  0  0  0  0  0  0
   -6.5287    2.4695    1.0004 O   0  0  0  0  0  0  0  0  0  0  0  0
   -6.6897    1.9406   -1.1586 O   0  0  0  0  0  0  0  0  0  0  0  0
    7.7081    2.9857    0.6194 H   0  0  0  0  0  0  0  0  0  0  0  0
    6.3142    3.9463    1.1411 H   0  0  0  0  0  0  0  0  0  0  0  0
    6.9177    2.6338    2.1654 H   0  0  0  0  0  0  0  0  0  0  0  0
    4.4748    2.4559    1.8532 H   0  0  0  0  0  0  0  0  0  0  0  0
    2.3363    1.9087    2.2810 H   0  0  0  0  0  0  0  0  0  0  0  0
    0.3644    0.6357    1.7902 H   0  0  0  0  0  0  0  0  0  0  0  0
    4.3751    0.0845   -1.0115 H   0  0  0  0  0  0  0  0  0  0  0  0
    1.9746   -2.9069   -3.9334 H   0  0  0  0  0  0  0  0  0  0  0  0
   -0.1556   -3.9925   -4.6487 H   0  0  0  0  0  0  0  0  0  0  0  0
   -2.1700   -3.6984   -3.2433 H   0  0  0  0  0  0  0  0  0  0  0  0
   -2.0921   -2.4068   -1.2147 H   0  0  0  0  0  0  0  0  0  0  0  0
   -0.6058   -1.1391    1.7689 H   0  0  0  0  0  0  0  0  0  0  0  0
   -1.4780   -2.2184    0.7012 H   0  0  0  0  0  0  0  0  0  0  0  0
   -1.5885    0.8397    0.5897 H   0  0  0  0  0  0  0  0  0  0  0  0
   -2.4349   -0.2392   -0.5112 H   0  0  0  0  0  0  0  0  0  0  0  0
   -3.7210   -1.2005    1.3769 H   0  0  0  0  0  0  0  0  0  0  0  0
   -2.7989   -0.2287    2.5201 H   0  0  0  0  0  0  0  0  0  0  0  0
   -3.7062    1.8531    1.4724 H   0  0  0  0  0  0  0  0  0  0  0  0
   -4.9403    0.8300    2.1929 H   0  0  0  0  0  0  0  0  0  0  0  0
   -4.3442    1.1005   -0.7926 H   0  0  0  0  0  0  0  0  0  0  0  0
   -5.4089   -0.1280   -0.1164 H   0  0  0  0  0  0  0  0  0  0  0  0
   -7.4321    2.5650   -1.1423 H   0  0  0  0  0  0  0  0  0  0  0  0
  1  2  1  0  0  0  0
  2  3  2  0  0  0  0
  2  4  1  0  0  0  0
  4  5  1  0  0  0  0
  5  6  2  0  0  0  0
  6  7  1  0  0  0  0
  7  8  2  0  0  0  0
  8  9  1  0  0  0  0
  9 10  2  0  0  0  0
  9 11  1  0  0  0  0
 11 12  2  0  0  0  0
 11 13  1  0  0  0  0
 13 14  2  0  0  0  0
 14 15  1  0  0  0  0
 15 16  2  0  0  0  0
 16 17  1  0  0  0  0
 17 18  2  0  0  0  0
 18 19  1  0  0  0  0
 19 20  1  0  0  0  0
 20 21  1  0  0  0  0
 21 22  1  0  0  0  0
 22 23  1  0  0  0  0
 23 24  1  0  0  0  0
 24 25  1  0  0  0  0
 25 26  2  0  0  0  0
 25 27  1  0  0  0  0
 10  5  1  0  0  0  0
 18 13  1  0  0  0  0
 19  8  1  0  0  0  0
  1 28  1  0  0  0  0
  1 29  1  0  0  0  0
  1 30  1  0  0  0  0
  4 31  1  0  0  0  0
  6 32  1  0  0  0  0
  7 33  1  0  0  0  0
 10 34  1  0  0  0  0
 14 35  1  0  0  0  0
 15 36  1  0  0  0  0
 16 37  1  0  0  0  0
 17 38  1  0  0  0  0
 20 39  1  0  0  0  0
 20 40  1  0  0  0  0
 21 41  1  0  0  0  0
 21 42  1  0  0  0  0
 22 43  1  0  0  0  0
 22 44  1  0  0  0  0
 23 45  1  0  0  0  0
 23 46  1  0  0  0  0
 24 47  1  0  0  0  0
 24 48  1  0  0  0  0
 27 49  1  0  0  0  0
M  END
