
  xtb     03022212023D
 energy: -158.777603597099 gnorm: 0.000720645027 xtb: 6.4.1 (afa7bdf)
110118  0     0  0            999 V2000
    3.4379    2.8478   -6.2901 C   0  0  0  0  0  0  0  0  0  0  0  0
    2.7208    2.2770   -5.1046 C   0  0  0  0  0  0  0  0  0  0  0  0
    1.7104    2.9863   -4.4682 C   0  0  0  0  0  0  0  0  0  0  0  0
    1.0640    2.4648   -3.3636 C   0  0  0  0  0  0  0  0  0  0  0  0
    1.4180    1.2181   -2.8564 C   0  0  0  0  0  0  0  0  0  0  0  0
    0.7156    0.6594   -1.6895 C   0  0  0  0  0  0  0  0  0  0  0  0
   -0.6692    0.6327   -1.6874 C   0  0  0  0  0  0  0  0  0  0  0  0
   -1.4118    0.0873   -0.6400 C   0  0  0  0  0  0  0  0  0  0  0  0
   -2.8601    0.1788   -0.7135 C   0  0  0  0  0  0  0  0  0  0  0  0
   -3.6898    0.3040    0.3316 C   0  0  0  0  0  0  0  0  0  0  0  0
   -5.1338    0.3909    0.2734 C   0  0  0  0  0  0  0  0  0  0  0  0
   -5.8643    0.2678    1.4602 C   0  0  0  0  0  0  0  0  0  0  0  0
   -7.2403    0.3114    1.4671 C   0  0  0  0  0  0  0  0  0  0  0  0
   -7.9465    0.4987    0.2774 C   0  0  0  0  0  0  0  0  0  0  0  0
   -9.3423    0.5480    0.2735 N   0  0  0  0  0  0  0  0  0  0  0  0
  -10.0574    0.0087   -0.8026 C   0  0  0  0  0  0  0  0  0  0  0  0
  -11.2085    0.6391   -1.2743 C   0  0  0  0  0  0  0  0  0  0  0  0
  -11.9125    0.1005   -2.3335 C   0  0  0  0  0  0  0  0  0  0  0  0
  -11.4798   -1.0654   -2.9439 C   0  0  0  0  0  0  0  0  0  0  0  0
  -10.3348   -1.6935   -2.4817 C   0  0  0  0  0  0  0  0  0  0  0  0
   -9.6284   -1.1673   -1.4179 C   0  0  0  0  0  0  0  0  0  0  0  0
  -10.0293    1.1442    1.3368 C   0  0  0  0  0  0  0  0  0  0  0  0
  -11.2412    0.6143    1.7798 C   0  0  0  0  0  0  0  0  0  0  0  0
  -11.9211    1.2098    2.8241 C   0  0  0  0  0  0  0  0  0  0  0  0
  -11.4042    2.3329    3.4490 C   0  0  0  0  0  0  0  0  0  0  0  0
  -10.1984    2.8601    3.0164 C   0  0  0  0  0  0  0  0  0  0  0  0
   -9.5151    2.2773    1.9670 C   0  0  0  0  0  0  0  0  0  0  0  0
   -7.2271    0.6388   -0.9112 C   0  0  0  0  0  0  0  0  0  0  0  0
   -5.8518    0.5811   -0.9110 C   0  0  0  0  0  0  0  0  0  0  0  0
   -0.7122   -0.4982    0.4305 C   0  0  0  0  0  0  0  0  0  0  0  0
   -1.3869   -1.2202    1.5245 C   0  0  0  0  0  0  0  0  0  0  0  0
   -2.2596   -2.2706    1.2493 C   0  0  0  0  0  0  0  0  0  0  0  0
   -2.8661   -2.9650    2.2755 C   0  0  0  0  0  0  0  0  0  0  0  0
   -2.6204   -2.6373    3.6053 C   0  0  0  0  0  0  0  0  0  0  0  0
   -3.3045   -3.3876    4.7077 C   0  0  0  0  0  0  0  0  0  0  0  0
   -1.7394   -1.6005    3.8775 C   0  0  0  0  0  0  0  0  0  0  0  0
   -1.1242   -0.9041    2.8525 C   0  0  0  0  0  0  0  0  0  0  0  0
    0.6724   -0.4521    0.4389 C   0  0  0  0  0  0  0  0  0  0  0  0
    1.4145    0.1227   -0.5918 C   0  0  0  0  0  0  0  0  0  0  0  0
    2.8615    0.2082   -0.5338 C   0  0  0  0  0  0  0  0  0  0  0  0
    3.6635   -0.6014    0.1733 C   0  0  0  0  0  0  0  0  0  0  0  0
    5.1089   -0.5317    0.2285 C   0  0  0  0  0  0  0  0  0  0  0  0
    5.8745    0.2678   -0.6264 C   0  0  0  0  0  0  0  0  0  0  0  0
    7.2484    0.2930   -0.5401 C   0  0  0  0  0  0  0  0  0  0  0  0
    7.9171   -0.4834    0.4082 C   0  0  0  0  0  0  0  0  0  0  0  0
    9.3121   -0.4598    0.4954 N   0  0  0  0  0  0  0  0  0  0  0  0
   10.0842   -0.3751   -0.6680 C   0  0  0  0  0  0  0  0  0  0  0  0
   11.2676    0.3632   -0.6816 C   0  0  0  0  0  0  0  0  0  0  0  0
   12.0294    0.4360   -1.8313 C   0  0  0  0  0  0  0  0  0  0  0  0
   11.6237   -0.2143   -2.9853 C   0  0  0  0  0  0  0  0  0  0  0  0
   10.4461   -0.9438   -2.9791 C   0  0  0  0  0  0  0  0  0  0  0  0
    9.6817   -1.0301   -1.8321 C   0  0  0  0  0  0  0  0  0  0  0  0
    9.9325   -0.5242    1.7478 C   0  0  0  0  0  0  0  0  0  0  0  0
    9.3672    0.1190    2.8490 C   0  0  0  0  0  0  0  0  0  0  0  0
    9.9805    0.0519    4.0846 C   0  0  0  0  0  0  0  0  0  0  0  0
   11.1663   -0.6465    4.2432 C   0  0  0  0  0  0  0  0  0  0  0  0
   11.7331   -1.2852    3.1524 C   0  0  0  0  0  0  0  0  0  0  0  0
   11.1231   -1.2315    1.9144 C   0  0  0  0  0  0  0  0  0  0  0  0
    7.1645   -1.2887    1.2642 C   0  0  0  0  0  0  0  0  0  0  0  0
    5.7914   -1.3114    1.1688 C   0  0  0  0  0  0  0  0  0  0  0  0
    2.4268    0.5028   -3.4979 C   0  0  0  0  0  0  0  0  0  0  0  0
    3.0661    1.0267   -4.6042 C   0  0  0  0  0  0  0  0  0  0  0  0
    3.6517    2.0719   -7.0225 H   0  0  0  0  0  0  0  0  0  0  0  0
    4.3880    3.2834   -5.9779 H   0  0  0  0  0  0  0  0  0  0  0  0
    2.8472    3.6280   -6.7641 H   0  0  0  0  0  0  0  0  0  0  0  0
    1.4263    3.9601   -4.8422 H   0  0  0  0  0  0  0  0  0  0  0  0
    0.2873    3.0355   -2.8746 H   0  0  0  0  0  0  0  0  0  0  0  0
   -1.1966    1.0531   -2.5332 H   0  0  0  0  0  0  0  0  0  0  0  0
   -3.2583    0.1965   -1.7202 H   0  0  0  0  0  0  0  0  0  0  0  0
   -3.2764    0.3254    1.3308 H   0  0  0  0  0  0  0  0  0  0  0  0
   -5.3329    0.1133    2.3888 H   0  0  0  0  0  0  0  0  0  0  0  0
   -7.7833    0.1964    2.3940 H   0  0  0  0  0  0  0  0  0  0  0  0
  -11.5424    1.5538   -0.8064 H   0  0  0  0  0  0  0  0  0  0  0  0
  -12.8010    0.6003   -2.6907 H   0  0  0  0  0  0  0  0  0  0  0  0
  -12.0309   -1.4814   -3.7736 H   0  0  0  0  0  0  0  0  0  0  0  0
   -9.9929   -2.6060   -2.9478 H   0  0  0  0  0  0  0  0  0  0  0  0
   -8.7411   -1.6636   -1.0529 H   0  0  0  0  0  0  0  0  0  0  0  0
  -11.6418   -0.2671    1.3006 H   0  0  0  0  0  0  0  0  0  0  0  0
  -12.8581    0.7883    3.1577 H   0  0  0  0  0  0  0  0  0  0  0  0
  -11.9371    2.7938    4.2667 H   0  0  0  0  0  0  0  0  0  0  0  0
   -9.7899    3.7386    3.4939 H   0  0  0  0  0  0  0  0  0  0  0  0
   -8.5807    2.6973    1.6245 H   0  0  0  0  0  0  0  0  0  0  0  0
   -7.7615    0.8008   -1.8363 H   0  0  0  0  0  0  0  0  0  0  0  0
   -5.3265    0.7073   -1.8452 H   0  0  0  0  0  0  0  0  0  0  0  0
   -2.4581   -2.5389    0.2219 H   0  0  0  0  0  0  0  0  0  0  0  0
   -3.5418   -3.7769    2.0462 H   0  0  0  0  0  0  0  0  0  0  0  0
   -2.8815   -3.1313    5.6759 H   0  0  0  0  0  0  0  0  0  0  0  0
   -4.3679   -3.1477    4.7224 H   0  0  0  0  0  0  0  0  0  0  0  0
   -3.2095   -4.4617    4.5567 H   0  0  0  0  0  0  0  0  0  0  0  0
   -1.5301   -1.3326    4.9040 H   0  0  0  0  0  0  0  0  0  0  0  0
   -0.4476   -0.0926    3.0817 H   0  0  0  0  0  0  0  0  0  0  0  0
    1.1910   -0.8811    1.2838 H   0  0  0  0  0  0  0  0  0  0  0  0
    3.2953    0.9975   -1.1324 H   0  0  0  0  0  0  0  0  0  0  0  0
    3.2277   -1.3988    0.7622 H   0  0  0  0  0  0  0  0  0  0  0  0
    5.3891    0.8756   -1.3747 H   0  0  0  0  0  0  0  0  0  0  0  0
    7.8210    0.9200   -1.2082 H   0  0  0  0  0  0  0  0  0  0  0  0
   11.5814    0.8798    0.2137 H   0  0  0  0  0  0  0  0  0  0  0  0
   12.9431    1.0122   -1.8281 H   0  0  0  0  0  0  0  0  0  0  0  0
   12.2208   -0.1529   -3.8825 H   0  0  0  0  0  0  0  0  0  0  0  0
   10.1241   -1.4584   -3.8726 H   0  0  0  0  0  0  0  0  0  0  0  0
    8.7696   -1.6087   -1.8271 H   0  0  0  0  0  0  0  0  0  0  0  0
    8.4481    0.6730    2.7256 H   0  0  0  0  0  0  0  0  0  0  0  0
    9.5333    0.5570    4.9281 H   0  0  0  0  0  0  0  0  0  0  0  0
   11.6449   -0.6930    5.2096 H   0  0  0  0  0  0  0  0  0  0  0  0
   12.6542   -1.8376    3.2677 H   0  0  0  0  0  0  0  0  0  0  0  0
   11.5619   -1.7394    1.0679 H   0  0  0  0  0  0  0  0  0  0  0  0
    7.6695   -1.9015    1.9968 H   0  0  0  0  0  0  0  0  0  0  0  0
    5.2261   -1.9478    1.8351 H   0  0  0  0  0  0  0  0  0  0  0  0
    2.6973   -0.4776   -3.1323 H   0  0  0  0  0  0  0  0  0  0  0  0
    3.8451    0.4563   -5.0905 H   0  0  0  0  0  0  0  0  0  0  0  0
  1  2  1  0  0  0  0
  2  3  2  0  0  0  0
  3  4  1  0  0  0  0
  4  5  2  0  0  0  0
  5  6  1  0  0  0  0
  6  7  2  0  0  0  0
  7  8  1  0  0  0  0
  8  9  1  0  0  0  0
  9 10  2  0  0  0  0
 10 11  1  0  0  0  0
 11 12  2  0  0  0  0
 12 13  1  0  0  0  0
 13 14  2  0  0  0  0
 14 15  1  0  0  0  0
 15 16  1  0  0  0  0
 16 17  2  0  0  0  0
 17 18  1  0  0  0  0
 18 19  2  0  0  0  0
 19 20  1  0  0  0  0
 20 21  2  0  0  0  0
 15 22  1  0  0  0  0
 22 23  2  0  0  0  0
 23 24  1  0  0  0  0
 24 25  2  0  0  0  0
 25 26  1  0  0  0  0
 26 27  2  0  0  0  0
 14 28  1  0  0  0  0
 28 29  2  0  0  0  0
  8 30  2  0  0  0  0
 30 31  1  0  0  0  0
 31 32  2  0  0  0  0
 32 33  1  0  0  0  0
 33 34  2  0  0  0  0
 34 35  1  0  0  0  0
 34 36  1  0  0  0  0
 36 37  2  0  0  0  0
 30 38  1  0  0  0  0
 38 39  2  0  0  0  0
 39 40  1  0  0  0  0
 40 41  2  0  0  0  0
 41 42  1  0  0  0  0
 42 43  2  0  0  0  0
 43 44  1  0  0  0  0
 44 45  2  0  0  0  0
 45 46  1  0  0  0  0
 46 47  1  0  0  0  0
 47 48  2  0  0  0  0
 48 49  1  0  0  0  0
 49 50  2  0  0  0  0
 50 51  1  0  0  0  0
 51 52  2  0  0  0  0
 46 53  1  0  0  0  0
 53 54  2  0  0  0  0
 54 55  1  0  0  0  0
 55 56  2  0  0  0  0
 56 57  1  0  0  0  0
 57 58  2  0  0  0  0
 45 59  1  0  0  0  0
 59 60  2  0  0  0  0
  5 61  1  0  0  0  0
 61 62  2  0  0  0  0
 62  2  1  0  0  0  0
 39  6  1  0  0  0  0
 60 42  1  0  0  0  0
 29 11  1  0  0  0  0
 37 31  1  0  0  0  0
 52 47  1  0  0  0  0
 58 53  1  0  0  0  0
 21 16  1  0  0  0  0
 27 22  1  0  0  0  0
  1 63  1  0  0  0  0
  1 64  1  0  0  0  0
  1 65  1  0  0  0  0
  3 66  1  0  0  0  0
  4 67  1  0  0  0  0
  7 68  1  0  0  0  0
  9 69  1  0  0  0  0
 10 70  1  0  0  0  0
 12 71  1  0  0  0  0
 13 72  1  0  0  0  0
 17 73  1  0  0  0  0
 18 74  1  0  0  0  0
 19 75  1  0  0  0  0
 20 76  1  0  0  0  0
 21 77  1  0  0  0  0
 23 78  1  0  0  0  0
 24 79  1  0  0  0  0
 25 80  1  0  0  0  0
 26 81  1  0  0  0  0
 27 82  1  0  0  0  0
 28 83  1  0  0  0  0
 29 84  1  0  0  0  0
 32 85  1  0  0  0  0
 33 86  1  0  0  0  0
 35 87  1  0  0  0  0
 35 88  1  0  0  0  0
 35 89  1  0  0  0  0
 36 90  1  0  0  0  0
 37 91  1  0  0  0  0
 38 92  1  0  0  0  0
 40 93  1  0  0  0  0
 41 94  1  0  0  0  0
 43 95  1  0  0  0  0
 44 96  1  0  0  0  0
 48 97  1  0  0  0  0
 49 98  1  0  0  0  0
 50 99  1  0  0  0  0
 51100  1  0  0  0  0
 52101  1  0  0  0  0
 54102  1  0  0  0  0
 55103  1  0  0  0  0
 56104  1  0  0  0  0
 57105  1  0  0  0  0
 58106  1  0  0  0  0
 59107  1  0  0  0  0
 60108  1  0  0  0  0
 61109  1  0  0  0  0
 62110  1  0  0  0  0
M  END
