
  xtb     03022215233D
 energy: -77.540707347484 gnorm: 0.000232684367 xtb: 6.4.1 (afa7bdf)
 41 44  0     0  0            999 V2000
    6.6649    0.3638    1.3280 C   0  0  0  0  0  0  0  0  0  0  0  0
    6.2962   -0.5604    0.3299 O   0  0  0  0  0  0  0  0  0  0  0  0
    5.0074   -0.6289   -0.0634 C   0  0  0  0  0  0  0  0  0  0  0  0
    4.7233   -1.5717   -1.0609 C   0  0  0  0  0  0  0  0  0  0  0  0
    3.4420   -1.7175   -1.5281 C   0  0  0  0  0  0  0  0  0  0  0  0
    2.4028   -0.9384   -1.0072 C   0  0  0  0  0  0  0  0  0  0  0  0
    2.6794    0.0095   -0.0131 C   0  0  0  0  0  0  0  0  0  0  0  0
    3.9755    0.1589    0.4468 C   0  0  0  0  0  0  0  0  0  0  0  0
    1.5691    0.8850    0.4890 C   0  0  0  0  0  0  0  0  0  0  0  0
    0.2608    0.1014    0.5645 C   0  0  0  0  0  0  0  0  0  0  0  0
   -0.0204   -0.5637   -0.7535 C   0  0  0  0  0  0  0  0  0  0  0  0
   -1.3047   -0.7111   -1.2745 C   0  0  0  0  0  0  0  0  0  0  0  0
   -2.4177   -0.1814   -0.5779 C   0  0  0  0  0  0  0  0  0  0  0  0
   -3.4097    0.2433   -0.0311 C   0  0  0  0  0  0  0  0  0  0  0  0
   -4.5420    0.7500    0.6342 C   0  0  0  0  0  0  0  0  0  0  0  0
   -4.4312    1.2718    1.9263 C   0  0  0  0  0  0  0  0  0  0  0  0
   -5.5452    1.7644    2.5739 C   0  0  0  0  0  0  0  0  0  0  0  0
   -6.7768    1.7408    1.9324 C   0  0  0  0  0  0  0  0  0  0  0  0
   -8.1686    2.3591    2.7422 Cl  0  0  0  0  0  0  0  0  0  0  0  0
   -6.9024    1.2255    0.6488 C   0  0  0  0  0  0  0  0  0  0  0  0
   -5.7888    0.7304    0.0022 C   0  0  0  0  0  0  0  0  0  0  0  0
   -1.5607   -1.3085   -2.3922 O   0  0  0  0  0  0  0  0  0  0  0  0
   -0.4897   -1.9813   -3.1953 B   0  0  0  0  0  4  0  0  0  0  0  0
   -0.5124   -1.4799   -4.4606 F   0  0  0  0  0  0  0  0  0  0  0  0
   -0.7112   -3.3290   -3.1701 F   0  0  0  0  0  0  0  0  0  0  0  0
    0.8752   -1.7239   -2.6087 O   0  0  0  0  0  3  0  0  0  0  0  0
    1.0438   -1.0955   -1.4986 C   0  0  0  0  0  0  0  0  0  0  0  0
    6.4699    1.3932    1.0123 H   0  0  0  0  0  0  0  0  0  0  0  0
    7.7354    0.2284    1.4717 H   0  0  0  0  0  0  0  0  0  0  0  0
    6.1455    0.1645    2.2702 H   0  0  0  0  0  0  0  0  0  0  0  0
    5.5344   -2.1687   -1.4448 H   0  0  0  0  0  0  0  0  0  0  0  0
    3.2086   -2.4381   -2.2960 H   0  0  0  0  0  0  0  0  0  0  0  0
    4.1732    0.9005    1.2055 H   0  0  0  0  0  0  0  0  0  0  0  0
    1.8205    1.2973    1.4672 H   0  0  0  0  0  0  0  0  0  0  0  0
    1.4482    1.7233   -0.2052 H   0  0  0  0  0  0  0  0  0  0  0  0
   -0.5661    0.7611    0.8308 H   0  0  0  0  0  0  0  0  0  0  0  0
    0.3444   -0.6644    1.3433 H   0  0  0  0  0  0  0  0  0  0  0  0
   -3.4690    1.2833    2.4158 H   0  0  0  0  0  0  0  0  0  0  0  0
   -5.4666    2.1664    3.5718 H   0  0  0  0  0  0  0  0  0  0  0  0
   -7.8666    1.2143    0.1656 H   0  0  0  0  0  0  0  0  0  0  0  0
   -5.8706    0.3260   -0.9949 H   0  0  0  0  0  0  0  0  0  0  0  0
  1  2  1  0  0  0  0
  2  3  1  0  0  0  0
  3  4  2  0  0  0  0
  4  5  1  0  0  0  0
  5  6  2  0  0  0  0
  6  7  1  0  0  0  0
  7  8  2  0  0  0  0
  7  9  1  0  0  0  0
  9 10  1  0  0  0  0
 10 11  1  0  0  0  0
 11 12  2  0  0  0  0
 12 13  1  0  0  0  0
 13 14  3  0  0  0  0
 14 15  1  0  0  0  0
 15 16  2  0  0  0  0
 16 17  1  0  0  0  0
 17 18  2  0  0  0  0
 18 19  1  0  0  0  0
 18 20  1  0  0  0  0
 20 21  2  0  0  0  0
 12 22  1  0  0  0  0
 22 23  1  0  0  0  0
 23 24  1  0  0  0  0
 23 25  1  0  0  0  0
 23 26  1  0  0  0  0
 26 27  2  0  0  0  0
  8  3  1  0  0  0  0
 27 11  1  0  0  0  0
 27  6  1  0  0  0  0
 21 15  1  0  0  0  0
  1 28  1  0  0  0  0
  1 29  1  0  0  0  0
  1 30  1  0  0  0  0
  4 31  1  0  0  0  0
  5 32  1  0  0  0  0
  8 33  1  0  0  0  0
  9 34  1  0  0  0  0
  9 35  1  0  0  0  0
 10 36  1  0  0  0  0
 10 37  1  0  0  0  0
 16 38  1  0  0  0  0
 17 39  1  0  0  0  0
 20 40  1  0  0  0  0
 21 41  1  0  0  0  0
M  CHG  1  23  -1
M  CHG  1  26   1
M  END
