
  xtb     03022213513D
 energy: -58.602877701959 gnorm: 0.000190984626 xtb: 6.4.1 (afa7bdf)
 38 40  0     0  0            999 V2000
   -4.8300    1.2919   -0.5301 C   0  0  0  0  0  0  0  0  0  0  0  0
   -3.8354    0.4124    0.2161 C   0  0  0  0  0  0  0  0  0  0  0  0
   -3.6387   -0.9232   -0.4964 C   0  0  0  0  0  0  0  0  0  0  0  0
   -2.6800   -1.8663    0.2333 C   0  0  0  0  0  0  0  0  0  0  0  0
   -1.3423   -1.3047    0.3551 N   0  0  0  0  0  0  0  0  0  0  0  0
   -0.9560   -0.7533    1.5472 C   0  0  0  0  0  0  0  0  0  0  0  0
   -1.9474   -0.7848    2.8745 S   0  0  0  0  0  0  0  0  0  0  0  0
    0.3545   -0.1407    1.6461 C   0  0  0  0  0  0  0  0  0  0  0  0
    0.7855    0.4578    2.8200 C   0  0  0  0  0  0  0  0  0  0  0  0
    2.0438    1.0462    2.8987 C   0  0  0  0  0  0  0  0  0  0  0  0
    2.8840    1.0472    1.8125 C   0  0  0  0  0  0  0  0  0  0  0  0
    2.4850    0.4514    0.6031 C   0  0  0  0  0  0  0  0  0  0  0  0
    3.3356    0.4314   -0.5437 C   0  0  0  0  0  0  0  0  0  0  0  0
    4.5355    1.0281   -0.3881 O   0  0  0  0  0  0  0  0  0  0  0  0
    5.4339    1.0530   -1.4739 C   0  0  0  0  0  0  0  0  0  0  0  0
    2.8973   -0.1761   -1.7056 C   0  0  0  0  0  0  0  0  0  0  0  0
    1.6402   -0.7628   -1.7701 C   0  0  0  0  0  0  0  0  0  0  0  0
    0.7825   -0.7620   -0.6817 C   0  0  0  0  0  0  0  0  0  0  0  0
    1.2071   -0.1489    0.5192 C   0  0  0  0  0  0  0  0  0  0  0  0
   -0.5270   -1.3643   -0.7458 C   0  0  0  0  0  0  0  0  0  0  0  0
   -1.0285   -2.1288   -2.1286 S   0  0  0  0  0  0  0  0  0  0  0  0
   -5.7997    0.8030   -0.5910 H   0  0  0  0  0  0  0  0  0  0  0  0
   -4.9561    2.2434   -0.0192 H   0  0  0  0  0  0  0  0  0  0  0  0
   -4.4816    1.4880   -1.5421 H   0  0  0  0  0  0  0  0  0  0  0  0
   -4.1944    0.2352    1.2318 H   0  0  0  0  0  0  0  0  0  0  0  0
   -2.8790    0.9374    0.2893 H   0  0  0  0  0  0  0  0  0  0  0  0
   -4.5989   -1.4353   -0.5791 H   0  0  0  0  0  0  0  0  0  0  0  0
   -3.2705   -0.7439   -1.5087 H   0  0  0  0  0  0  0  0  0  0  0  0
   -2.5997   -2.8037   -0.3223 H   0  0  0  0  0  0  0  0  0  0  0  0
   -3.0504   -2.0737    1.2375 H   0  0  0  0  0  0  0  0  0  0  0  0
    0.1294    0.4620    3.6768 H   0  0  0  0  0  0  0  0  0  0  0  0
    2.3550    1.5046    3.8249 H   0  0  0  0  0  0  0  0  0  0  0  0
    3.8608    1.5011    1.8651 H   0  0  0  0  0  0  0  0  0  0  0  0
    6.3150    1.5806   -1.1129 H   0  0  0  0  0  0  0  0  0  0  0  0
    5.0133    1.5917   -2.3281 H   0  0  0  0  0  0  0  0  0  0  0  0
    5.7170    0.0421   -1.7816 H   0  0  0  0  0  0  0  0  0  0  0  0
    3.5218   -0.2052   -2.5839 H   0  0  0  0  0  0  0  0  0  0  0  0
    1.3181   -1.2306   -2.6878 H   0  0  0  0  0  0  0  0  0  0  0  0
  1  2  1  0  0  0  0
  2  3  1  0  0  0  0
  3  4  1  0  0  0  0
  4  5  1  0  0  0  0
  5  6  1  0  0  0  0
  6  7  2  0  0  0  0
  6  8  1  0  0  0  0
  8  9  1  0  0  0  0
  9 10  2  0  0  0  0
 10 11  1  0  0  0  0
 11 12  2  0  0  0  0
 12 13  1  0  0  0  0
 13 14  1  0  0  0  0
 14 15  1  0  0  0  0
 13 16  2  0  0  0  0
 16 17  1  0  0  0  0
 17 18  2  0  0  0  0
 18 19  1  0  0  0  0
 18 20  1  0  0  0  0
 20 21  2  0  0  0  0
 20  5  1  0  0  0  0
 19  8  2  0  0  0  0
 19 12  1  0  0  0  0
  1 22  1  0  0  0  0
  1 23  1  0  0  0  0
  1 24  1  0  0  0  0
  2 25  1  0  0  0  0
  2 26  1  0  0  0  0
  3 27  1  0  0  0  0
  3 28  1  0  0  0  0
  4 29  1  0  0  0  0
  4 30  1  0  0  0  0
  9 31  1  0  0  0  0
 10 32  1  0  0  0  0
 11 33  1  0  0  0  0
 15 34  1  0  0  0  0
 15 35  1  0  0  0  0
 15 36  1  0  0  0  0
 16 37  1  0  0  0  0
 17 38  1  0  0  0  0
M  END
