
  xtb     03022213593D
 energy: -98.004754925628 gnorm: 0.000184399526 xtb: 6.4.1 (afa7bdf)
 70 75  0     0  0            999 V2000
   -4.5687    1.4877   -2.5484 C   0  0  0  0  0  0  0  0  0  0  0  0
   -5.2281    0.2429   -1.9668 C   0  0  0  0  0  0  0  0  0  0  0  0
   -4.2894   -0.5912   -1.0971 C   0  0  0  0  0  0  0  0  0  0  0  0
   -3.7925    0.1643    0.1450 C   0  0  0  0  0  0  0  0  0  0  0  0
   -3.1899   -0.7343    1.1029 N   0  0  0  0  0  0  0  0  0  0  0  0
   -3.9661   -1.7412    1.6507 C   0  0  0  0  0  0  0  0  0  0  0  0
   -5.3301   -1.7532    1.9077 C   0  0  0  0  0  0  0  0  0  0  0  0
   -5.8696   -2.8819    2.4942 C   0  0  0  0  0  0  0  0  0  0  0  0
   -5.0788   -3.9835    2.8128 C   0  0  0  0  0  0  0  0  0  0  0  0
   -3.7237   -3.9817    2.5521 C   0  0  0  0  0  0  0  0  0  0  0  0
   -3.1611   -2.8543    1.9674 C   0  0  0  0  0  0  0  0  0  0  0  0
   -1.8277   -2.5171    1.5638 C   0  0  0  0  0  0  0  0  0  0  0  0
   -0.6626   -3.2849    1.5799 C   0  0  0  0  0  0  0  0  0  0  0  0
    0.5010   -2.7321    1.1102 C   0  0  0  0  0  0  0  0  0  0  0  0
    0.5050   -1.3888    0.7316 C   0  0  0  0  0  0  0  0  0  0  0  0
    1.6011   -0.5418    0.3675 C   0  0  0  0  0  0  0  0  0  0  0  0
    2.9551   -0.7762    0.1824 C   0  0  0  0  0  0  0  0  0  0  0  0
    3.7965    0.2912   -0.0998 C   0  0  0  0  0  0  0  0  0  0  0  0
    5.2361    0.0724   -0.2980 C   0  0  0  0  0  0  0  0  0  0  0  0
    5.6996   -1.0320   -1.0042 C   0  0  0  0  0  0  0  0  0  0  0  0
    7.0520   -1.2543   -1.1945 C   0  0  0  0  0  0  0  0  0  0  0  0
    7.9819   -0.3644   -0.6703 C   0  0  0  0  0  0  0  0  0  0  0  0
    9.3363   -0.4815   -0.7916 O   0  0  0  0  0  0  0  0  0  0  0  0
    9.8532   -1.5869   -1.4888 C   0  0  0  0  0  0  0  0  0  0  0  0
    7.5277    0.7464    0.0418 C   0  0  0  0  0  0  0  0  0  0  0  0
    6.1794    0.9597    0.2211 C   0  0  0  0  0  0  0  0  0  0  0  0
    3.2616    1.5842   -0.1805 C   0  0  0  0  0  0  0  0  0  0  0  0
    1.9165    1.8358   -0.0050 C   0  0  0  0  0  0  0  0  0  0  0  0
    1.0751    0.7624    0.2564 C   0  0  0  0  0  0  0  0  0  0  0  0
   -0.2861    0.7372    0.4754 N   0  0  0  0  0  0  0  0  0  0  0  0
   -1.0061    1.9432    0.8054 C   0  0  0  0  0  0  0  0  0  0  0  0
   -1.3572    2.7896   -0.4258 C   0  0  0  0  0  0  0  0  0  0  0  0
   -2.2802    3.9489   -0.0585 C   0  0  0  0  0  0  0  0  0  0  0  0
   -2.5480    4.8578   -1.2520 C   0  0  0  0  0  0  0  0  0  0  0  0
   -0.6540   -0.5727    0.7623 C   0  0  0  0  0  0  0  0  0  0  0  0
   -1.8714   -1.1885    1.0730 C   0  0  0  0  0  0  0  0  0  0  0  0
   -3.6540    1.2238   -3.0757 H   0  0  0  0  0  0  0  0  0  0  0  0
   -4.3292    2.2018   -1.7651 H   0  0  0  0  0  0  0  0  0  0  0  0
   -5.2392    1.9742   -3.2533 H   0  0  0  0  0  0  0  0  0  0  0  0
   -5.5851   -0.3861   -2.7852 H   0  0  0  0  0  0  0  0  0  0  0  0
   -6.0987    0.5381   -1.3762 H   0  0  0  0  0  0  0  0  0  0  0  0
   -4.8200   -1.4892   -0.7720 H   0  0  0  0  0  0  0  0  0  0  0  0
   -3.4259   -0.9122   -1.6848 H   0  0  0  0  0  0  0  0  0  0  0  0
   -4.6323    0.6727    0.6299 H   0  0  0  0  0  0  0  0  0  0  0  0
   -3.0645    0.9056   -0.1611 H   0  0  0  0  0  0  0  0  0  0  0  0
   -5.9594   -0.9091    1.6683 H   0  0  0  0  0  0  0  0  0  0  0  0
   -6.9279   -2.9110    2.7092 H   0  0  0  0  0  0  0  0  0  0  0  0
   -5.5375   -4.8478    3.2702 H   0  0  0  0  0  0  0  0  0  0  0  0
   -3.1098   -4.8347    2.7992 H   0  0  0  0  0  0  0  0  0  0  0  0
   -0.6957   -4.2988    1.9467 H   0  0  0  0  0  0  0  0  0  0  0  0
    1.4176   -3.2998    1.0715 H   0  0  0  0  0  0  0  0  0  0  0  0
    3.3528   -1.7744    0.2846 H   0  0  0  0  0  0  0  0  0  0  0  0
    4.9905   -1.7252   -1.4328 H   0  0  0  0  0  0  0  0  0  0  0  0
    7.3654   -2.1217   -1.7546 H   0  0  0  0  0  0  0  0  0  0  0  0
    9.5235   -1.5953   -2.5331 H   0  0  0  0  0  0  0  0  0  0  0  0
   10.9361   -1.4771   -1.4557 H   0  0  0  0  0  0  0  0  0  0  0  0
    9.5717   -2.5318   -1.0120 H   0  0  0  0  0  0  0  0  0  0  0  0
    8.2591    1.4271    0.4488 H   0  0  0  0  0  0  0  0  0  0  0  0
    5.8499    1.8153    0.7919 H   0  0  0  0  0  0  0  0  0  0  0  0
    3.9231    2.4077   -0.4059 H   0  0  0  0  0  0  0  0  0  0  0  0
    1.5483    2.8481   -0.0690 H   0  0  0  0  0  0  0  0  0  0  0  0
   -0.3797    2.5454    1.4765 H   0  0  0  0  0  0  0  0  0  0  0  0
   -1.9068    1.6751    1.3615 H   0  0  0  0  0  0  0  0  0  0  0  0
   -0.4415    3.1853   -0.8666 H   0  0  0  0  0  0  0  0  0  0  0  0
   -1.8274    2.1668   -1.1899 H   0  0  0  0  0  0  0  0  0  0  0  0
   -1.8217    4.5314    0.7439 H   0  0  0  0  0  0  0  0  0  0  0  0
   -3.2268    3.5564    0.3222 H   0  0  0  0  0  0  0  0  0  0  0  0
   -3.0014    4.2989   -2.0677 H   0  0  0  0  0  0  0  0  0  0  0  0
   -3.2206    5.6652   -0.9732 H   0  0  0  0  0  0  0  0  0  0  0  0
   -1.6198    5.2944   -1.6135 H   0  0  0  0  0  0  0  0  0  0  0  0
  1  2  1  0  0  0  0
  2  3  1  0  0  0  0
  3  4  1  0  0  0  0
  4  5  1  0  0  0  0
  5  6  1  0  0  0  0
  6  7  2  0  0  0  0
  7  8  1  0  0  0  0
  8  9  2  0  0  0  0
  9 10  1  0  0  0  0
 10 11  2  0  0  0  0
 11 12  1  0  0  0  0
 12 13  2  0  0  0  0
 13 14  1  0  0  0  0
 14 15  2  0  0  0  0
 15 16  1  0  0  0  0
 16 17  2  0  0  0  0
 17 18  1  0  0  0  0
 18 19  1  0  0  0  0
 19 20  2  0  0  0  0
 20 21  1  0  0  0  0
 21 22  2  0  0  0  0
 22 23  1  0  0  0  0
 23 24  1  0  0  0  0
 22 25  1  0  0  0  0
 25 26  2  0  0  0  0
 18 27  2  0  0  0  0
 27 28  1  0  0  0  0
 28 29  2  0  0  0  0
 29 30  1  0  0  0  0
 30 31  1  0  0  0  0
 31 32  1  0  0  0  0
 32 33  1  0  0  0  0
 33 34  1  0  0  0  0
 30 35  1  0  0  0  0
 35 36  2  0  0  0  0
 36  5  1  0  0  0  0
 11  6  1  0  0  0  0
 36 12  1  0  0  0  0
 35 15  1  0  0  0  0
 29 16  1  0  0  0  0
 26 19  1  0  0  0  0
  1 37  1  0  0  0  0
  1 38  1  0  0  0  0
  1 39  1  0  0  0  0
  2 40  1  0  0  0  0
  2 41  1  0  0  0  0
  3 42  1  0  0  0  0
  3 43  1  0  0  0  0
  4 44  1  0  0  0  0
  4 45  1  0  0  0  0
  7 46  1  0  0  0  0
  8 47  1  0  0  0  0
  9 48  1  0  0  0  0
 10 49  1  0  0  0  0
 13 50  1  0  0  0  0
 14 51  1  0  0  0  0
 17 52  1  0  0  0  0
 20 53  1  0  0  0  0
 21 54  1  0  0  0  0
 24 55  1  0  0  0  0
 24 56  1  0  0  0  0
 24 57  1  0  0  0  0
 25 58  1  0  0  0  0
 26 59  1  0  0  0  0
 27 60  1  0  0  0  0
 28 61  1  0  0  0  0
 31 62  1  0  0  0  0
 31 63  1  0  0  0  0
 32 64  1  0  0  0  0
 32 65  1  0  0  0  0
 33 66  1  0  0  0  0
 33 67  1  0  0  0  0
 34 68  1  0  0  0  0
 34 69  1  0  0  0  0
 34 70  1  0  0  0  0
M  END
