
  xtb     03022214163D
 energy: -72.635116743018 gnorm: 0.000191157802 xtb: 6.4.1 (afa7bdf)
 47 50  0     0  0            999 V2000
   -5.8231   -1.4885    1.5711 C   0  0  0  0  0  0  0  0  0  0  0  0
   -5.6511   -0.1108    0.9297 C   0  0  0  0  0  0  0  0  0  0  0  0
   -4.9568   -0.1727   -0.3380 N   0  0  0  0  0  0  0  0  0  0  0  0
   -5.7936   -0.3150   -1.5086 C   0  0  0  0  0  0  0  0  0  0  0  0
   -6.1803    1.0339   -2.1184 C   0  0  0  0  0  0  0  0  0  0  0  0
   -3.5965   -0.1121   -0.4171 C   0  0  0  0  0  0  0  0  0  0  0  0
   -2.9359   -0.0032   -1.6630 C   0  0  0  0  0  0  0  0  0  0  0  0
   -1.5707    0.0578   -1.7461 C   0  0  0  0  0  0  0  0  0  0  0  0
   -0.7672    0.0261   -0.5996 C   0  0  0  0  0  0  0  0  0  0  0  0
    0.6522    0.0609   -0.6025 C   0  0  0  0  0  0  0  0  0  0  0  0
    1.3555    0.0091    0.5595 C   0  0  0  0  0  0  0  0  0  0  0  0
    2.8091    0.0179    0.5707 C   0  0  0  0  0  0  0  0  0  0  0  0
    3.6396    0.7119   -0.2986 C   0  0  0  0  0  0  0  0  0  0  0  0
    4.9080    0.4205    0.0782 N   0  0  0  0  0  0  0  0  0  0  0  0
    6.1074    0.8204   -0.4094 C   0  0  0  0  0  0  0  0  0  0  0  0
    7.2622    0.3652    0.1549 C   0  0  0  0  0  0  0  0  0  0  0  0
    8.6008    0.7889   -0.3655 C   0  0  0  0  0  0  0  0  0  0  0  0
    7.1860   -0.5261    1.2550 C   0  0  0  0  0  0  0  0  0  0  0  0
    5.9824   -0.9322    1.7531 C   0  0  0  0  0  0  0  0  0  0  0  0
    4.8027   -0.4557    1.1635 C   0  0  0  0  0  0  0  0  0  0  0  0
    3.5409   -0.6946    1.4541 N   0  0  0  0  0  0  0  0  0  0  0  0
    0.6575   -0.0356    1.8464 C   0  0  0  0  0  0  0  0  0  0  0  0
    1.1642    0.0164    2.9357 O   0  0  0  0  0  0  0  0  0  0  0  0
   -0.7159   -0.1025    1.7990 O   0  0  0  0  0  0  0  0  0  0  0  0
   -1.4166   -0.0741    0.6424 C   0  0  0  0  0  0  0  0  0  0  0  0
   -2.7960   -0.1491    0.7313 C   0  0  0  0  0  0  0  0  0  0  0  0
   -4.8562   -1.9483    1.7556 H   0  0  0  0  0  0  0  0  0  0  0  0
   -6.3534   -1.3966    2.5152 H   0  0  0  0  0  0  0  0  0  0  0  0
   -6.3923   -2.1443    0.9161 H   0  0  0  0  0  0  0  0  0  0  0  0
   -6.6355    0.3311    0.7519 H   0  0  0  0  0  0  0  0  0  0  0  0
   -5.1139    0.5561    1.6073 H   0  0  0  0  0  0  0  0  0  0  0  0
   -5.2860   -0.9340   -2.2519 H   0  0  0  0  0  0  0  0  0  0  0  0
   -6.7004   -0.8484   -1.2105 H   0  0  0  0  0  0  0  0  0  0  0  0
   -6.8114    0.8832   -2.9903 H   0  0  0  0  0  0  0  0  0  0  0  0
   -5.2942    1.5876   -2.4173 H   0  0  0  0  0  0  0  0  0  0  0  0
   -6.7266    1.6340   -1.3946 H   0  0  0  0  0  0  0  0  0  0  0  0
   -3.5031    0.0436   -2.5772 H   0  0  0  0  0  0  0  0  0  0  0  0
   -1.0939    0.1386   -2.7121 H   0  0  0  0  0  0  0  0  0  0  0  0
    1.1685    0.1034   -1.5519 H   0  0  0  0  0  0  0  0  0  0  0  0
    3.4146    1.3879   -1.0981 H   0  0  0  0  0  0  0  0  0  0  0  0
    6.0913    1.5018   -1.2479 H   0  0  0  0  0  0  0  0  0  0  0  0
    9.1729   -0.0807   -0.6857 H   0  0  0  0  0  0  0  0  0  0  0  0
    8.4952    1.4668   -1.2084 H   0  0  0  0  0  0  0  0  0  0  0  0
    9.1680    1.2904    0.4173 H   0  0  0  0  0  0  0  0  0  0  0  0
    8.1058   -0.8792    1.6957 H   0  0  0  0  0  0  0  0  0  0  0  0
    5.8977   -1.6051    2.5895 H   0  0  0  0  0  0  0  0  0  0  0  0
   -3.2113   -0.2447    1.7191 H   0  0  0  0  0  0  0  0  0  0  0  0
  1  2  1  0  0  0  0
  2  3  1  0  0  0  0
  3  4  1  0  0  0  0
  4  5  1  0  0  0  0
  3  6  1  0  0  0  0
  6  7  2  0  0  0  0
  7  8  1  0  0  0  0
  8  9  2  0  0  0  0
  9 10  1  0  0  0  0
 10 11  2  0  0  0  0
 11 12  1  0  0  0  0
 12 13  2  0  0  0  0
 13 14  1  0  0  0  0
 14 15  1  0  0  0  0
 15 16  2  0  0  0  0
 16 17  1  0  0  0  0
 16 18  1  0  0  0  0
 18 19  2  0  0  0  0
 19 20  1  0  0  0  0
 20 21  2  0  0  0  0
 11 22  1  0  0  0  0
 22 23  2  0  0  0  0
 22 24  1  0  0  0  0
 24 25  1  0  0  0  0
 25 26  2  0  0  0  0
 26  6  1  0  0  0  0
 25  9  1  0  0  0  0
 21 12  1  0  0  0  0
 20 14  1  0  0  0  0
  1 27  1  0  0  0  0
  1 28  1  0  0  0  0
  1 29  1  0  0  0  0
  2 30  1  0  0  0  0
  2 31  1  0  0  0  0
  4 32  1  0  0  0  0
  4 33  1  0  0  0  0
  5 34  1  0  0  0  0
  5 35  1  0  0  0  0
  5 36  1  0  0  0  0
  7 37  1  0  0  0  0
  8 38  1  0  0  0  0
 10 39  1  0  0  0  0
 13 40  1  0  0  0  0
 15 41  1  0  0  0  0
 17 42  1  0  0  0  0
 17 43  1  0  0  0  0
 17 44  1  0  0  0  0
 18 45  1  0  0  0  0
 19 46  1  0  0  0  0
 26 47  1  0  0  0  0
M  END
