
  xtb     03022212213D
 energy: -61.259187251680 gnorm: 0.000074945260 xtb: 6.4.1 (afa7bdf)
 32 34  0     0  0            999 V2000
   -2.1021    2.5260    0.5566 C   0  0  0  0  0  0  0  0  0  0  0  0
   -3.8459    2.0737    0.6891 S   0  0  0  0  0  0  0  0  0  0  0  0
   -3.9806    0.3406    0.5777 C   0  0  0  0  0  0  0  0  0  0  0  0
   -5.2911   -0.1309    0.7294 C   0  0  0  0  0  0  0  0  0  0  0  0
   -5.5822   -1.4714    0.6628 C   0  0  0  0  0  0  0  0  0  0  0  0
   -4.5630   -2.4024    0.4377 C   0  0  0  0  0  0  0  0  0  0  0  0
   -3.2758   -1.9694    0.2825 C   0  0  0  0  0  0  0  0  0  0  0  0
   -2.9445   -0.5945    0.3461 C   0  0  0  0  0  0  0  0  0  0  0  0
   -1.6707   -0.1505    0.2064 N   0  0  0  0  0  0  0  0  0  0  0  0
   -0.7710   -1.0239   -0.0698 N   0  0  0  0  0  0  0  0  0  0  0  0
    0.4868   -0.6324   -0.1202 C   0  0  0  0  0  0  0  0  0  0  0  0
    1.4574   -1.3868   -0.5038 N   0  0  0  0  0  0  0  0  0  0  0  0
    2.6587   -0.7891   -0.4250 C   0  0  0  0  0  0  0  0  0  0  0  0
    3.8788   -1.3732   -0.7846 C   0  0  0  0  0  0  0  0  0  0  0  0
    5.0357   -0.6505   -0.6361 C   0  0  0  0  0  0  0  0  0  0  0  0
    4.9928    0.6559   -0.1303 C   0  0  0  0  0  0  0  0  0  0  0  0
    6.2213    1.3883    0.0172 N   0  0  0  0  0  4  0  0  0  0  0  0
    7.2516    0.8346   -0.3056 O   0  0  0  0  0  0  0  0  0  0  0  0
    6.1556    2.5179    0.4567 O   0  0  0  0  0  1  0  0  0  0  0  0
    3.8023    1.2684    0.2329 C   0  0  0  0  0  0  0  0  0  0  0  0
    2.6364    0.5440    0.0809 C   0  0  0  0  0  0  0  0  0  0  0  0
    1.0228    1.0349    0.4389 S   0  0  0  0  0  0  0  0  0  0  0  0
   -1.7079    2.2109   -0.4034 H   0  0  0  0  0  0  0  0  0  0  0  0
   -1.5400    2.0643    1.3611 H   0  0  0  0  0  0  0  0  0  0  0  0
   -2.0786    3.6087    0.6448 H   0  0  0  0  0  0  0  0  0  0  0  0
   -6.0729    0.5930    0.9037 H   0  0  0  0  0  0  0  0  0  0  0  0
   -6.6007   -1.8062    0.7866 H   0  0  0  0  0  0  0  0  0  0  0  0
   -4.7952   -3.4550    0.3876 H   0  0  0  0  0  0  0  0  0  0  0  0
   -2.4614   -2.6559    0.1068 H   0  0  0  0  0  0  0  0  0  0  0  0
    3.8828   -2.3788   -1.1711 H   0  0  0  0  0  0  0  0  0  0  0  0
    5.9951   -1.0667   -0.9015 H   0  0  0  0  0  0  0  0  0  0  0  0
    3.8048    2.2768    0.6163 H   0  0  0  0  0  0  0  0  0  0  0  0
  1  2  1  0  0  0  0
  2  3  1  0  0  0  0
  3  4  2  0  0  0  0
  4  5  1  0  0  0  0
  5  6  2  0  0  0  0
  6  7  1  0  0  0  0
  7  8  2  0  0  0  0
  8  9  1  0  0  0  0
  9 10  2  0  0  0  0
 10 11  1  0  0  0  0
 11 12  2  0  0  0  0
 12 13  1  0  0  0  0
 13 14  2  0  0  0  0
 14 15  1  0  0  0  0
 15 16  2  0  0  0  0
 16 17  1  0  0  0  0
 17 18  2  0  0  0  0
 17 19  1  0  0  0  0
 16 20  1  0  0  0  0
 20 21  2  0  0  0  0
 21 22  1  0  0  0  0
  8  3  1  0  0  0  0
 22 11  1  0  0  0  0
 21 13  1  0  0  0  0
  1 23  1  0  0  0  0
  1 24  1  0  0  0  0
  1 25  1  0  0  0  0
  4 26  1  0  0  0  0
  5 27  1  0  0  0  0
  6 28  1  0  0  0  0
  7 29  1  0  0  0  0
 14 30  1  0  0  0  0
 15 31  1  0  0  0  0
 20 32  1  0  0  0  0
M  CHG  1  17   1
M  CHG  1  19  -1
M  END
