
  xtb     03022215573D
 energy: -94.557332406565 gnorm: 0.000173313353 xtb: 6.4.1 (afa7bdf)
 64 70  0     0  0            999 V2000
   -5.8961   -1.6679   -1.3559 C   0  0  0  0  0  0  0  0  0  0  0  0
   -5.4677   -1.9391   -0.1160 C   0  0  0  0  0  0  0  0  0  0  0  0
   -4.8673   -1.0175    0.8304 C   0  0  0  0  0  0  0  0  0  0  0  0
   -5.0965   -1.2253    2.1938 C   0  0  0  0  0  0  0  0  0  0  0  0
   -4.5812   -0.3714    3.1456 C   0  0  0  0  0  0  0  0  0  0  0  0
   -3.8058    0.7102    2.7535 C   0  0  0  0  0  0  0  0  0  0  0  0
   -3.5413    0.9129    1.4142 C   0  0  0  0  0  0  0  0  0  0  0  0
   -4.0507    0.0530    0.4438 C   0  0  0  0  0  0  0  0  0  0  0  0
   -3.7079    0.3011   -0.9650 C   0  0  0  0  0  0  0  0  0  0  0  0
   -2.4528    0.4213   -1.4217 C   0  0  0  0  0  0  0  0  0  0  0  0
   -1.2194    0.1939   -0.6835 C   0  0  0  0  0  0  0  0  0  0  0  0
   -1.1102   -0.7463    0.3422 C   0  0  0  0  0  0  0  0  0  0  0  0
    0.0819   -0.9228    1.0099 C   0  0  0  0  0  0  0  0  0  0  0  0
    1.2210   -0.1887    0.6705 C   0  0  0  0  0  0  0  0  0  0  0  0
    2.4542   -0.4131    1.4102 C   0  0  0  0  0  0  0  0  0  0  0  0
    3.7090   -0.2975    0.9514 C   0  0  0  0  0  0  0  0  0  0  0  0
    4.8509   -0.5486    1.8472 C   0  0  0  0  0  0  0  0  0  0  0  0
    4.8977   -1.7405    2.5644 C   0  0  0  0  0  0  0  0  0  0  0  0
    5.9196   -1.9977    3.4571 C   0  0  0  0  0  0  0  0  0  0  0  0
    6.9104   -1.0485    3.6572 C   0  0  0  0  0  0  0  0  0  0  0  0
    6.8723    0.1385    2.9564 C   0  0  0  0  0  0  0  0  0  0  0  0
    5.8629    0.4042    2.0267 C   0  0  0  0  0  0  0  0  0  0  0  0
    5.9015    1.6717    1.3206 C   0  0  0  0  0  0  0  0  0  0  0  0
    5.4722    1.9317    0.0786 C   0  0  0  0  0  0  0  0  0  0  0  0
    4.8678    1.0029   -0.8581 C   0  0  0  0  0  0  0  0  0  0  0  0
    5.0949    1.1977   -2.2237 C   0  0  0  0  0  0  0  0  0  0  0  0
    4.5750    0.3370   -3.1669 C   0  0  0  0  0  0  0  0  0  0  0  0
    3.7970   -0.7386   -2.7634 C   0  0  0  0  0  0  0  0  0  0  0  0
    3.5349   -0.9286   -1.4218 C   0  0  0  0  0  0  0  0  0  0  0  0
    4.0492   -0.0619   -0.4601 C   0  0  0  0  0  0  0  0  0  0  0  0
    1.1122    0.7507   -0.3560 C   0  0  0  0  0  0  0  0  0  0  0  0
   -0.0800    0.9275   -1.0233 C   0  0  0  0  0  0  0  0  0  0  0  0
   -4.8493    0.5592   -1.8595 C   0  0  0  0  0  0  0  0  0  0  0  0
   -4.8975    1.7583   -2.5646 C   0  0  0  0  0  0  0  0  0  0  0  0
   -5.9195    2.0229   -3.4550 C   0  0  0  0  0  0  0  0  0  0  0  0
   -6.9087    1.0743   -3.6652 C   0  0  0  0  0  0  0  0  0  0  0  0
   -6.8690   -0.1199   -2.9766 C   0  0  0  0  0  0  0  0  0  0  0  0
   -5.8596   -0.3934   -2.0492 C   0  0  0  0  0  0  0  0  0  0  0  0
   -6.4111   -2.4551   -1.8942 H   0  0  0  0  0  0  0  0  0  0  0  0
   -5.6609   -2.9295    0.2796 H   0  0  0  0  0  0  0  0  0  0  0  0
   -5.7077   -2.0641    2.4970 H   0  0  0  0  0  0  0  0  0  0  0  0
   -4.7809   -0.5453    4.1928 H   0  0  0  0  0  0  0  0  0  0  0  0
   -3.4006    1.3852    3.4926 H   0  0  0  0  0  0  0  0  0  0  0  0
   -2.9221    1.7414    1.1024 H   0  0  0  0  0  0  0  0  0  0  0  0
   -2.3178    0.7128   -2.4573 H   0  0  0  0  0  0  0  0  0  0  0  0
   -1.9635   -1.3530    0.6044 H   0  0  0  0  0  0  0  0  0  0  0  0
    0.1450   -1.6577    1.8006 H   0  0  0  0  0  0  0  0  0  0  0  0
    2.3192   -0.6963    2.4481 H   0  0  0  0  0  0  0  0  0  0  0  0
    4.1175   -2.4720    2.4094 H   0  0  0  0  0  0  0  0  0  0  0  0
    5.9396   -2.9289    4.0038 H   0  0  0  0  0  0  0  0  0  0  0  0
    7.7076   -1.2355    4.3616 H   0  0  0  0  0  0  0  0  0  0  0  0
    7.6451    0.8785    3.1113 H   0  0  0  0  0  0  0  0  0  0  0  0
    6.4189    2.4629    1.8504 H   0  0  0  0  0  0  0  0  0  0  0  0
    5.6674    2.9177   -0.3268 H   0  0  0  0  0  0  0  0  0  0  0  0
    5.7078    2.0319   -2.5358 H   0  0  0  0  0  0  0  0  0  0  0  0
    4.7732    0.5008   -4.2160 H   0  0  0  0  0  0  0  0  0  0  0  0
    3.3880   -1.4189   -3.4956 H   0  0  0  0  0  0  0  0  0  0  0  0
    2.9141   -1.7526   -1.1014 H   0  0  0  0  0  0  0  0  0  0  0  0
    1.9659    1.3567   -0.6186 H   0  0  0  0  0  0  0  0  0  0  0  0
   -0.1430    1.6625   -1.8140 H   0  0  0  0  0  0  0  0  0  0  0  0
   -4.1184    2.4893   -2.4018 H   0  0  0  0  0  0  0  0  0  0  0  0
   -5.9407    2.9597   -3.9921 H   0  0  0  0  0  0  0  0  0  0  0  0
   -7.7060    1.2673   -4.3678 H   0  0  0  0  0  0  0  0  0  0  0  0
   -7.6405   -0.8594   -3.1394 H   0  0  0  0  0  0  0  0  0  0  0  0
  1  2  2  0  0  0  0
  2  3  1  0  0  0  0
  3  4  2  0  0  0  0
  4  5  1  0  0  0  0
  5  6  2  0  0  0  0
  6  7  1  0  0  0  0
  7  8  2  0  0  0  0
  8  9  1  0  0  0  0
  9 10  2  0  0  0  0
 10 11  1  0  0  0  0
 11 12  2  0  0  0  0
 12 13  1  0  0  0  0
 13 14  2  0  0  0  0
 14 15  1  0  0  0  0
 15 16  2  0  0  0  0
 16 17  1  0  0  0  0
 17 18  2  0  0  0  0
 18 19  1  0  0  0  0
 19 20  2  0  0  0  0
 20 21  1  0  0  0  0
 21 22  2  0  0  0  0
 22 23  1  0  0  0  0
 23 24  2  0  0  0  0
 24 25  1  0  0  0  0
 25 26  2  0  0  0  0
 26 27  1  0  0  0  0
 27 28  2  0  0  0  0
 28 29  1  0  0  0  0
 29 30  2  0  0  0  0
 14 31  1  0  0  0  0
 31 32  2  0  0  0  0
  9 33  1  0  0  0  0
 33 34  2  0  0  0  0
 34 35  1  0  0  0  0
 35 36  2  0  0  0  0
 36 37  1  0  0  0  0
 37 38  2  0  0  0  0
 38  1  1  0  0  0  0
  8  3  1  0  0  0  0
 32 11  1  0  0  0  0
 38 33  1  0  0  0  0
 30 16  1  0  0  0  0
 22 17  1  0  0  0  0
 30 25  1  0  0  0  0
  1 39  1  0  0  0  0
  2 40  1  0  0  0  0
  4 41  1  0  0  0  0
  5 42  1  0  0  0  0
  6 43  1  0  0  0  0
  7 44  1  0  0  0  0
 10 45  1  0  0  0  0
 12 46  1  0  0  0  0
 13 47  1  0  0  0  0
 15 48  1  0  0  0  0
 18 49  1  0  0  0  0
 19 50  1  0  0  0  0
 20 51  1  0  0  0  0
 21 52  1  0  0  0  0
 23 53  1  0  0  0  0
 24 54  1  0  0  0  0
 26 55  1  0  0  0  0
 27 56  1  0  0  0  0
 28 57  1  0  0  0  0
 29 58  1  0  0  0  0
 31 59  1  0  0  0  0
 32 60  1  0  0  0  0
 34 61  1  0  0  0  0
 35 62  1  0  0  0  0
 36 63  1  0  0  0  0
 37 64  1  0  0  0  0
M  END
