
  xtb     03022214593D
 energy: -43.422039843393 gnorm: 0.000108594441 xtb: 6.4.1 (afa7bdf)
 26 28  0     0  0            999 V2000
   -3.0592    0.6429   -2.4733 O   0  0  0  0  0  0  0  0  0  0  0  0
   -3.7957    0.2058   -1.6098 C   0  0  0  0  0  0  0  0  0  0  0  0
   -3.4057   -0.2499   -0.3109 C   0  0  0  0  0  0  0  0  0  0  0  0
   -2.2215   -0.3597    0.3765 C   0  0  0  0  0  0  0  0  0  0  0  0
   -0.8698   -0.0730    0.1083 C   0  0  0  0  0  0  0  0  0  0  0  0
   -0.3147    0.4529   -1.0440 C   0  0  0  0  0  0  0  0  0  0  0  0
    1.0655    0.6084   -0.9674 C   0  0  0  0  0  0  0  0  0  0  0  0
    1.6011    0.2067    0.2426 C   0  0  0  0  0  0  0  0  0  0  0  0
    2.9709    0.2361    0.6383 C   0  0  0  0  0  0  0  0  0  0  0  0
    4.0525    0.6688   -0.0923 C   0  0  0  0  0  0  0  0  0  0  0  0
    5.2675    0.5590    0.6046 C   0  0  0  0  0  0  0  0  0  0  0  0
    5.1128    0.0470    1.8555 C   0  0  0  0  0  0  0  0  0  0  0  0
    3.4743   -0.3140    2.2120 S   0  0  0  0  0  0  0  0  0  0  0  0
    0.3638   -0.3763    1.3071 S   0  0  0  0  0  0  0  0  0  0  0  0
   -2.8855   -0.9279    1.6008 C   0  0  0  0  0  0  0  0  0  0  0  0
   -4.2223   -0.8061    0.8297 C   0  0  0  0  0  0  0  0  0  0  0  0
   -4.8874    0.1296   -1.7911 H   0  0  0  0  0  0  0  0  0  0  0  0
   -0.9189    0.7057   -1.8974 H   0  0  0  0  0  0  0  0  0  0  0  0
    1.6652    1.0022   -1.7674 H   0  0  0  0  0  0  0  0  0  0  0  0
    3.9738    1.0512   -1.0932 H   0  0  0  0  0  0  0  0  0  0  0  0
    6.2182    0.8484    0.1940 H   0  0  0  0  0  0  0  0  0  0  0  0
    5.8654   -0.1419    2.5949 H   0  0  0  0  0  0  0  0  0  0  0  0
   -2.8056   -0.3061    2.4907 H   0  0  0  0  0  0  0  0  0  0  0  0
   -2.5852   -1.9443    1.8496 H   0  0  0  0  0  0  0  0  0  0  0  0
   -4.7193   -1.7527    0.6232 H   0  0  0  0  0  0  0  0  0  0  0  0
   -4.9399   -0.1125    1.2650 H   0  0  0  0  0  0  0  0  0  0  0  0
  1  2  2  0  0  0  0
  2  3  1  0  0  0  0
  3  4  2  0  0  0  0
  4  5  1  0  0  0  0
  5  6  2  0  0  0  0
  6  7  1  0  0  0  0
  7  8  2  0  0  0  0
  8  9  1  0  0  0  0
  9 10  2  0  0  0  0
 10 11  1  0  0  0  0
 11 12  2  0  0  0  0
 12 13  1  0  0  0  0
  8 14  1  0  0  0  0
  4 15  1  0  0  0  0
 15 16  1  0  0  0  0
 16  3  1  0  0  0  0
 14  5  1  0  0  0  0
 13  9  1  0  0  0  0
  2 17  1  0  0  0  0
  6 18  1  0  0  0  0
  7 19  1  0  0  0  0
 10 20  1  0  0  0  0
 11 21  1  0  0  0  0
 12 22  1  0  0  0  0
 15 23  1  0  0  0  0
 15 24  1  0  0  0  0
 16 25  1  0  0  0  0
 16 26  1  0  0  0  0
M  END
