
  xtb     03022213573D
 energy: -103.713579183442 gnorm: 0.000153759207 xtb: 6.4.1 (afa7bdf)
 72 75  0     0  0            999 V2000
   -1.0597    9.4888   -1.1352 C   0  0  0  0  0  0  0  0  0  0  0  0
   -2.0887    8.5394   -1.0051 O   0  0  0  0  0  0  0  0  0  0  0  0
   -1.7506    7.2272   -0.8637 C   0  0  0  0  0  0  0  0  0  0  0  0
   -0.4498    6.7337   -0.8357 C   0  0  0  0  0  0  0  0  0  0  0  0
   -0.2245    5.3790   -0.6869 C   0  0  0  0  0  0  0  0  0  0  0  0
   -1.2772    4.4719   -0.5614 C   0  0  0  0  0  0  0  0  0  0  0  0
   -1.0839    3.0462   -0.4033 C   0  0  0  0  0  0  0  0  0  0  0  0
    0.0824    2.3889   -0.3538 C   0  0  0  0  0  0  0  0  0  0  0  0
    0.1677    0.9479   -0.1897 C   0  0  0  0  0  0  0  0  0  0  0  0
   -0.9628    0.2552   -0.0887 N   0  0  0  0  0  0  0  0  0  0  0  0
   -0.8666   -1.0683    0.0633 C   0  0  0  0  0  0  0  0  0  0  0  0
   -2.0845   -1.8415    0.1769 C   0  0  0  0  0  0  0  0  0  0  0  0
   -3.3050   -1.2819    0.1343 C   0  0  0  0  0  0  0  0  0  0  0  0
   -4.5773   -1.9502    0.2411 C   0  0  0  0  0  0  0  0  0  0  0  0
   -4.7182   -3.3314    0.4109 C   0  0  0  0  0  0  0  0  0  0  0  0
   -5.9541   -3.9252    0.5109 C   0  0  0  0  0  0  0  0  0  0  0  0
   -7.1365   -3.1693    0.4500 C   0  0  0  0  0  0  0  0  0  0  0  0
   -8.3669   -3.7598    0.5816 N   0  0  0  0  0  0  0  0  0  0  0  0
   -9.5684   -2.9729    0.4598 C   0  0  0  0  0  0  0  0  0  0  0  0
   -8.4848   -5.1971    0.5483 C   0  0  0  0  0  0  0  0  0  0  0  0
   -6.9981   -1.7836    0.2718 C   0  0  0  0  0  0  0  0  0  0  0  0
   -5.7566   -1.2005    0.1736 C   0  0  0  0  0  0  0  0  0  0  0  0
    0.3845   -1.6889    0.1125 C   0  0  0  0  0  0  0  0  0  0  0  0
    1.5187   -0.8822   -0.0020 C   0  0  0  0  0  0  0  0  0  0  0  0
    2.8472   -1.4536    0.0410 C   0  0  0  0  0  0  0  0  0  0  0  0
    3.9592   -0.7069   -0.0651 C   0  0  0  0  0  0  0  0  0  0  0  0
    5.3255   -1.1638   -0.0353 C   0  0  0  0  0  0  0  0  0  0  0  0
    5.6947   -2.5038    0.1226 C   0  0  0  0  0  0  0  0  0  0  0  0
    7.0132   -2.8926    0.1441 C   0  0  0  0  0  0  0  0  0  0  0  0
    8.0536   -1.9583    0.0088 C   0  0  0  0  0  0  0  0  0  0  0  0
    9.3672   -2.3451    0.0473 N   0  0  0  0  0  0  0  0  0  0  0  0
    9.7142   -3.7444    0.0199 C   0  0  0  0  0  0  0  0  0  0  0  0
   10.4207   -1.3698   -0.0759 C   0  0  0  0  0  0  0  0  0  0  0  0
    7.6860   -0.6128   -0.1519 C   0  0  0  0  0  0  0  0  0  0  0  0
    6.3639   -0.2358   -0.1707 C   0  0  0  0  0  0  0  0  0  0  0  0
    1.3964    0.4406   -0.1536 N   0  0  0  0  0  0  0  0  0  0  0  0
   -2.5796    4.9855   -0.5916 C   0  0  0  0  0  0  0  0  0  0  0  0
   -2.8154    6.3320   -0.7393 C   0  0  0  0  0  0  0  0  0  0  0  0
   -1.5576   10.4523   -1.2339 H   0  0  0  0  0  0  0  0  0  0  0  0
   -0.4131    9.5057   -0.2516 H   0  0  0  0  0  0  0  0  0  0  0  0
   -0.4515    9.3040   -2.0268 H   0  0  0  0  0  0  0  0  0  0  0  0
    0.3963    7.3970   -0.9290 H   0  0  0  0  0  0  0  0  0  0  0  0
    0.7936    5.0230   -0.6684 H   0  0  0  0  0  0  0  0  0  0  0  0
   -1.9860    2.4546   -0.3159 H   0  0  0  0  0  0  0  0  0  0  0  0
    1.0389    2.8833   -0.4310 H   0  0  0  0  0  0  0  0  0  0  0  0
   -1.9497   -2.9071    0.3005 H   0  0  0  0  0  0  0  0  0  0  0  0
   -3.3425   -0.2076    0.0074 H   0  0  0  0  0  0  0  0  0  0  0  0
   -3.8400   -3.9566    0.4660 H   0  0  0  0  0  0  0  0  0  0  0  0
   -5.9988   -4.9940    0.6432 H   0  0  0  0  0  0  0  0  0  0  0  0
  -10.4317   -3.5933    0.6899 H   0  0  0  0  0  0  0  0  0  0  0  0
   -9.6952   -2.5654   -0.5505 H   0  0  0  0  0  0  0  0  0  0  0  0
   -9.5538   -2.1445    1.1710 H   0  0  0  0  0  0  0  0  0  0  0  0
   -9.5354   -5.4762    0.5749 H   0  0  0  0  0  0  0  0  0  0  0  0
   -8.0418   -5.6186   -0.3605 H   0  0  0  0  0  0  0  0  0  0  0  0
   -7.9945   -5.6471    1.4161 H   0  0  0  0  0  0  0  0  0  0  0  0
   -7.8685   -1.1518    0.2022 H   0  0  0  0  0  0  0  0  0  0  0  0
   -5.6895   -0.1304    0.0358 H   0  0  0  0  0  0  0  0  0  0  0  0
    0.4713   -2.7579    0.2355 H   0  0  0  0  0  0  0  0  0  0  0  0
    2.8893   -2.5268    0.1649 H   0  0  0  0  0  0  0  0  0  0  0  0
    3.8173    0.3593   -0.1874 H   0  0  0  0  0  0  0  0  0  0  0  0
    4.9323   -3.2598    0.2329 H   0  0  0  0  0  0  0  0  0  0  0  0
    7.2370   -3.9388    0.2753 H   0  0  0  0  0  0  0  0  0  0  0  0
   10.7918   -3.8502   -0.0797 H   0  0  0  0  0  0  0  0  0  0  0  0
    9.4078   -4.2448    0.9440 H   0  0  0  0  0  0  0  0  0  0  0  0
    9.2429   -4.2553   -0.8257 H   0  0  0  0  0  0  0  0  0  0  0  0
   10.3014   -0.5811    0.6707 H   0  0  0  0  0  0  0  0  0  0  0  0
   10.4395   -0.9094   -1.0710 H   0  0  0  0  0  0  0  0  0  0  0  0
   11.3812   -1.8500    0.0970 H   0  0  0  0  0  0  0  0  0  0  0  0
    8.4395    0.1485   -0.2716 H   0  0  0  0  0  0  0  0  0  0  0  0
    6.1180    0.8091   -0.2987 H   0  0  0  0  0  0  0  0  0  0  0  0
   -3.4153    4.3073   -0.4966 H   0  0  0  0  0  0  0  0  0  0  0  0
   -3.8194    6.7262   -0.7623 H   0  0  0  0  0  0  0  0  0  0  0  0
  1  2  1  0  0  0  0
  2  3  1  0  0  0  0
  3  4  2  0  0  0  0
  4  5  1  0  0  0  0
  5  6  2  0  0  0  0
  6  7  1  0  0  0  0
  7  8  2  0  0  0  0
  8  9  1  0  0  0  0
  9 10  2  0  0  0  0
 10 11  1  0  0  0  0
 11 12  1  0  0  0  0
 12 13  2  0  0  0  0
 13 14  1  0  0  0  0
 14 15  2  0  0  0  0
 15 16  1  0  0  0  0
 16 17  2  0  0  0  0
 17 18  1  0  0  0  0
 18 19  1  0  0  0  0
 18 20  1  0  0  0  0
 17 21  1  0  0  0  0
 21 22  2  0  0  0  0
 11 23  2  0  0  0  0
 23 24  1  0  0  0  0
 24 25  1  0  0  0  0
 25 26  2  0  0  0  0
 26 27  1  0  0  0  0
 27 28  2  0  0  0  0
 28 29  1  0  0  0  0
 29 30  2  0  0  0  0
 30 31  1  0  0  0  0
 31 32  1  0  0  0  0
 31 33  1  0  0  0  0
 30 34  1  0  0  0  0
 34 35  2  0  0  0  0
 24 36  2  0  0  0  0
  6 37  1  0  0  0  0
 37 38  2  0  0  0  0
 38  3  1  0  0  0  0
 36  9  1  0  0  0  0
 22 14  1  0  0  0  0
 35 27  1  0  0  0  0
  1 39  1  0  0  0  0
  1 40  1  0  0  0  0
  1 41  1  0  0  0  0
  4 42  1  0  0  0  0
  5 43  1  0  0  0  0
  7 44  1  0  0  0  0
  8 45  1  0  0  0  0
 12 46  1  0  0  0  0
 13 47  1  0  0  0  0
 15 48  1  0  0  0  0
 16 49  1  0  0  0  0
 19 50  1  0  0  0  0
 19 51  1  0  0  0  0
 19 52  1  0  0  0  0
 20 53  1  0  0  0  0
 20 54  1  0  0  0  0
 20 55  1  0  0  0  0
 21 56  1  0  0  0  0
 22 57  1  0  0  0  0
 23 58  1  0  0  0  0
 25 59  1  0  0  0  0
 26 60  1  0  0  0  0
 28 61  1  0  0  0  0
 29 62  1  0  0  0  0
 32 63  1  0  0  0  0
 32 64  1  0  0  0  0
 32 65  1  0  0  0  0
 33 66  1  0  0  0  0
 33 67  1  0  0  0  0
 33 68  1  0  0  0  0
 34 69  1  0  0  0  0
 35 70  1  0  0  0  0
 37 71  1  0  0  0  0
 38 72  1  0  0  0  0
M  END
