
  xtb     03022215583D
 energy: -79.404828670140 gnorm: 0.000067048099 xtb: 6.4.1 (afa7bdf)
 51 54  0     0  0            999 V2000
    4.2374    2.0569   -1.5176 C   0  0  0  0  0  0  0  0  0  0  0  0
    3.1912    1.3913   -0.6312 C   0  0  0  0  0  0  0  0  0  0  0  0
    3.7064    1.0833    0.7754 C   0  0  0  0  0  0  0  0  0  0  0  0
    4.8994    0.1240    0.8445 C   0  0  0  0  0  0  0  0  0  0  0  0
    4.7306   -1.2231    0.1380 C   0  0  0  0  0  0  0  0  0  0  0  0
    3.8239   -2.2211    0.8592 C   0  0  0  0  0  0  0  0  0  0  0  0
    2.4251   -1.8101    0.8854 N   0  0  0  0  0  0  0  0  0  0  0  0
    1.8840   -1.4362    2.1039 C   0  0  0  0  0  0  0  0  0  0  0  0
    2.5388   -1.4897    3.1265 O   0  0  0  0  0  0  0  0  0  0  0  0
    0.4855   -0.9717    2.0889 C   0  0  0  0  0  0  0  0  0  0  0  0
   -0.0998   -0.5686    3.2706 C   0  0  0  0  0  0  0  0  0  0  0  0
   -1.4286   -0.1452    3.2809 C   0  0  0  0  0  0  0  0  0  0  0  0
   -2.1547   -0.0954    2.1179 C   0  0  0  0  0  0  0  0  0  0  0  0
   -1.5850   -0.4608    0.8820 C   0  0  0  0  0  0  0  0  0  0  0  0
   -2.2950   -0.4235   -0.3557 C   0  0  0  0  0  0  0  0  0  0  0  0
   -3.6419    0.0973   -0.4884 C   0  0  0  0  0  0  0  0  0  0  0  0
   -4.6242   -0.3891   -1.3051 C   0  0  0  0  0  0  0  0  0  0  0  0
   -5.8129    0.3673   -1.2978 C   0  0  0  0  0  0  0  0  0  0  0  0
   -5.7233    1.4597   -0.4857 C   0  0  0  0  0  0  0  0  0  0  0  0
   -6.6100    2.4324   -0.2006 O   0  0  0  0  0  0  0  0  0  0  0  0
   -7.8664    2.3466   -0.8374 C   0  0  0  0  0  0  0  0  0  0  0  0
   -4.1855    1.5643    0.3036 S   0  0  0  0  0  0  0  0  0  0  0  0
   -1.6773   -0.9060   -1.5004 C   0  0  0  0  0  0  0  0  0  0  0  0
   -0.3766   -1.3922   -1.4805 C   0  0  0  0  0  0  0  0  0  0  0  0
    0.3504   -1.3953   -0.3067 C   0  0  0  0  0  0  0  0  0  0  0  0
   -0.2464   -0.9364    0.8838 C   0  0  0  0  0  0  0  0  0  0  0  0
    1.7372   -1.8802   -0.3132 C   0  0  0  0  0  0  0  0  0  0  0  0
    2.2728   -2.3235   -1.3111 O   0  0  0  0  0  0  0  0  0  0  0  0
    5.0665    1.3827   -1.7148 H   0  0  0  0  0  0  0  0  0  0  0  0
    3.7978    2.3405   -2.4713 H   0  0  0  0  0  0  0  0  0  0  0  0
    4.6269    2.9533   -1.0390 H   0  0  0  0  0  0  0  0  0  0  0  0
    2.3291    2.0576   -0.5362 H   0  0  0  0  0  0  0  0  0  0  0  0
    2.8365    0.4781   -1.1122 H   0  0  0  0  0  0  0  0  0  0  0  0
    4.0136    2.0228    1.2437 H   0  0  0  0  0  0  0  0  0  0  0  0
    2.8813    0.6909    1.3718 H   0  0  0  0  0  0  0  0  0  0  0  0
    5.7688    0.6230    0.4110 H   0  0  0  0  0  0  0  0  0  0  0  0
    5.1217   -0.0594    1.8986 H   0  0  0  0  0  0  0  0  0  0  0  0
    4.3659   -1.0810   -0.8786 H   0  0  0  0  0  0  0  0  0  0  0  0
    5.7140   -1.6942    0.0679 H   0  0  0  0  0  0  0  0  0  0  0  0
    3.8756   -3.1835    0.3422 H   0  0  0  0  0  0  0  0  0  0  0  0
    4.1376   -2.3419    1.8974 H   0  0  0  0  0  0  0  0  0  0  0  0
    0.4834   -0.6035    4.1783 H   0  0  0  0  0  0  0  0  0  0  0  0
   -1.8888    0.1398    4.2148 H   0  0  0  0  0  0  0  0  0  0  0  0
   -3.1863    0.2147    2.1544 H   0  0  0  0  0  0  0  0  0  0  0  0
   -4.5158   -1.2939   -1.8760 H   0  0  0  0  0  0  0  0  0  0  0  0
   -6.6812    0.1058   -1.8737 H   0  0  0  0  0  0  0  0  0  0  0  0
   -8.3848    1.4232   -0.5628 H   0  0  0  0  0  0  0  0  0  0  0  0
   -7.7608    2.3942   -1.9252 H   0  0  0  0  0  0  0  0  0  0  0  0
   -8.4351    3.2050   -0.4862 H   0  0  0  0  0  0  0  0  0  0  0  0
   -2.2128   -0.8749   -2.4370 H   0  0  0  0  0  0  0  0  0  0  0  0
    0.0924   -1.7541   -2.3831 H   0  0  0  0  0  0  0  0  0  0  0  0
  1  2  1  0  0  0  0
  2  3  1  0  0  0  0
  3  4  1  0  0  0  0
  4  5  1  0  0  0  0
  5  6  1  0  0  0  0
  6  7  1  0  0  0  0
  7  8  1  0  0  0  0
  8  9  2  0  0  0  0
  8 10  1  0  0  0  0
 10 11  1  0  0  0  0
 11 12  2  0  0  0  0
 12 13  1  0  0  0  0
 13 14  2  0  0  0  0
 14 15  1  0  0  0  0
 15 16  1  0  0  0  0
 16 17  2  0  0  0  0
 17 18  1  0  0  0  0
 18 19  2  0  0  0  0
 19 20  1  0  0  0  0
 20 21  1  0  0  0  0
 19 22  1  0  0  0  0
 15 23  2  0  0  0  0
 23 24  1  0  0  0  0
 24 25  2  0  0  0  0
 25 26  1  0  0  0  0
 25 27  1  0  0  0  0
 27 28  2  0  0  0  0
 27  7  1  0  0  0  0
 26 10  2  0  0  0  0
 26 14  1  0  0  0  0
 22 16  1  0  0  0  0
  1 29  1  0  0  0  0
  1 30  1  0  0  0  0
  1 31  1  0  0  0  0
  2 32  1  0  0  0  0
  2 33  1  0  0  0  0
  3 34  1  0  0  0  0
  3 35  1  0  0  0  0
  4 36  1  0  0  0  0
  4 37  1  0  0  0  0
  5 38  1  0  0  0  0
  5 39  1  0  0  0  0
  6 40  1  0  0  0  0
  6 41  1  0  0  0  0
 11 42  1  0  0  0  0
 12 43  1  0  0  0  0
 13 44  1  0  0  0  0
 17 45  1  0  0  0  0
 18 46  1  0  0  0  0
 21 47  1  0  0  0  0
 21 48  1  0  0  0  0
 21 49  1  0  0  0  0
 23 50  1  0  0  0  0
 24 51  1  0  0  0  0
M  END
