
  xtb     03022214343D
 energy: -73.606648397340 gnorm: 0.000075492525 xtb: 6.4.1 (afa7bdf)
 50 55  0     0  0            999 V2000
   -2.3648    2.7660   -2.5574 C   0  0  0  0  0  0  0  0  0  0  0  0
   -1.0885    2.9444   -2.0554 C   0  0  0  0  0  0  0  0  0  0  0  0
   -0.5516    2.0199   -1.1852 C   0  0  0  0  0  0  0  0  0  0  0  0
   -1.2584    0.8750   -0.7905 C   0  0  0  0  0  0  0  0  0  0  0  0
   -2.5714    0.7264   -1.2638 C   0  0  0  0  0  0  0  0  0  0  0  0
   -3.0943    1.6721   -2.1336 C   0  0  0  0  0  0  0  0  0  0  0  0
   -3.4670   -0.3565   -0.7517 C   0  0  0  0  0  0  0  0  0  0  0  0
   -3.4755   -0.2928    0.7856 C   0  0  0  0  0  0  0  0  0  0  0  0
   -2.3844   -1.1746    1.3052 C   0  0  0  0  0  0  0  0  0  0  0  0
   -2.7131   -2.1869    2.1953 C   0  0  0  0  0  0  0  0  0  0  0  0
   -1.7875   -3.1144    2.6323 C   0  0  0  0  0  0  0  0  0  0  0  0
   -0.5039   -3.0578    2.1207 C   0  0  0  0  0  0  0  0  0  0  0  0
   -0.1572   -2.0645    1.2302 C   0  0  0  0  0  0  0  0  0  0  0  0
   -1.0686   -1.0784    0.8252 C   0  0  0  0  0  0  0  0  0  0  0  0
   -0.5842   -0.0531    0.0084 N   0  0  0  0  0  0  0  0  0  0  0  0
    0.8376    0.0735   -0.0099 C   0  0  0  0  0  0  0  0  0  0  0  0
    1.5015    0.5653    1.1250 C   0  0  0  0  0  0  0  0  0  0  0  0
    0.8086    0.9716    2.2936 C   0  0  0  0  0  0  0  0  0  0  0  0
    1.4831    1.4425    3.3782 C   0  0  0  0  0  0  0  0  0  0  0  0
    2.8901    1.5353    3.3636 C   0  0  0  0  0  0  0  0  0  0  0  0
    3.5895    1.1681    2.2559 C   0  0  0  0  0  0  0  0  0  0  0  0
    2.9262    0.6791    1.1015 C   0  0  0  0  0  0  0  0  0  0  0  0
    3.6246    0.3182   -0.0470 C   0  0  0  0  0  0  0  0  0  0  0  0
    2.9695   -0.1602   -1.1778 C   0  0  0  0  0  0  0  0  0  0  0  0
    3.6773   -0.5292   -2.3503 C   0  0  0  0  0  0  0  0  0  0  0  0
    3.0237   -1.0143   -3.4404 C   0  0  0  0  0  0  0  0  0  0  0  0
    1.6220   -1.1663   -3.4184 C   0  0  0  0  0  0  0  0  0  0  0  0
    0.9045   -0.8178   -2.3154 C   0  0  0  0  0  0  0  0  0  0  0  0
    1.5465   -0.2958   -1.1637 C   0  0  0  0  0  0  0  0  0  0  0  0
   -2.7930    3.4761   -3.2480 H   0  0  0  0  0  0  0  0  0  0  0  0
   -0.5057    3.8095   -2.3348 H   0  0  0  0  0  0  0  0  0  0  0  0
    0.4390    2.1950   -0.7951 H   0  0  0  0  0  0  0  0  0  0  0  0
   -4.1062    1.5371   -2.4894 H   0  0  0  0  0  0  0  0  0  0  0  0
   -4.4738   -0.2105   -1.1462 H   0  0  0  0  0  0  0  0  0  0  0  0
   -3.1241   -1.3456   -1.0681 H   0  0  0  0  0  0  0  0  0  0  0  0
   -3.3388    0.7450    1.1022 H   0  0  0  0  0  0  0  0  0  0  0  0
   -4.4343   -0.6367    1.1769 H   0  0  0  0  0  0  0  0  0  0  0  0
   -3.7307   -2.2404    2.5567 H   0  0  0  0  0  0  0  0  0  0  0  0
   -2.0694   -3.8791    3.3395 H   0  0  0  0  0  0  0  0  0  0  0  0
    0.2339   -3.7920    2.4085 H   0  0  0  0  0  0  0  0  0  0  0  0
    0.8458   -2.0579    0.8329 H   0  0  0  0  0  0  0  0  0  0  0  0
   -0.2687    0.9053    2.3117 H   0  0  0  0  0  0  0  0  0  0  0  0
    0.9439    1.7508    4.2616 H   0  0  0  0  0  0  0  0  0  0  0  0
    3.4034    1.9059    4.2387 H   0  0  0  0  0  0  0  0  0  0  0  0
    4.6674    1.2417    2.2319 H   0  0  0  0  0  0  0  0  0  0  0  0
    4.7014    0.4119   -0.0610 H   0  0  0  0  0  0  0  0  0  0  0  0
    4.7519   -0.4149   -2.3543 H   0  0  0  0  0  0  0  0  0  0  0  0
    3.5706   -1.2922   -4.3294 H   0  0  0  0  0  0  0  0  0  0  0  0
    1.1215   -1.5645   -4.2886 H   0  0  0  0  0  0  0  0  0  0  0  0
   -0.1682   -0.9389   -2.3058 H   0  0  0  0  0  0  0  0  0  0  0  0
  1  2  2  0  0  0  0
  2  3  1  0  0  0  0
  3  4  2  0  0  0  0
  4  5  1  0  0  0  0
  5  6  2  0  0  0  0
  5  7  1  0  0  0  0
  7  8  1  0  0  0  0
  8  9  1  0  0  0  0
  9 10  2  0  0  0  0
 10 11  1  0  0  0  0
 11 12  2  0  0  0  0
 12 13  1  0  0  0  0
 13 14  2  0  0  0  0
 14 15  1  0  0  0  0
 15 16  1  0  0  0  0
 16 17  1  0  0  0  0
 17 18  2  0  0  0  0
 18 19  1  0  0  0  0
 19 20  2  0  0  0  0
 20 21  1  0  0  0  0
 21 22  2  0  0  0  0
 22 23  1  0  0  0  0
 23 24  2  0  0  0  0
 24 25  1  0  0  0  0
 25 26  2  0  0  0  0
 26 27  1  0  0  0  0
 27 28  2  0  0  0  0
 28 29  1  0  0  0  0
  6  1  1  0  0  0  0
 14  9  1  0  0  0  0
 29 16  2  0  0  0  0
 15  4  1  0  0  0  0
 22 17  1  0  0  0  0
 29 24  1  0  0  0  0
  1 30  1  0  0  0  0
  2 31  1  0  0  0  0
  3 32  1  0  0  0  0
  6 33  1  0  0  0  0
  7 34  1  0  0  0  0
  7 35  1  0  0  0  0
  8 36  1  0  0  0  0
  8 37  1  0  0  0  0
 10 38  1  0  0  0  0
 11 39  1  0  0  0  0
 12 40  1  0  0  0  0
 13 41  1  0  0  0  0
 18 42  1  0  0  0  0
 19 43  1  0  0  0  0
 20 44  1  0  0  0  0
 21 45  1  0  0  0  0
 23 46  1  0  0  0  0
 25 47  1  0  0  0  0
 26 48  1  0  0  0  0
 27 49  1  0  0  0  0
 28 50  1  0  0  0  0
M  END
