
  xtb     03022215583D
 energy: -65.115829103481 gnorm: 0.000106586556 xtb: 6.4.1 (afa7bdf)
 39 41  0     0  0            999 V2000
   -8.0852   -0.0485    0.5891 C   0  0  0  0  0  0  0  0  0  0  0  0
   -6.6026   -0.1818    0.4562 C   0  0  0  0  0  0  0  0  0  0  0  0
   -5.9814   -1.4148    0.2888 C   0  0  0  0  0  0  0  0  0  0  0  0
   -4.6047   -1.4770    0.1851 C   0  0  0  0  0  0  0  0  0  0  0  0
   -3.8724   -0.2911    0.2525 C   0  0  0  0  0  0  0  0  0  0  0  0
   -2.4120   -0.2986    0.1483 C   0  0  0  0  0  0  0  0  0  0  0  0
   -1.6834    0.8934    0.2168 C   0  0  0  0  0  0  0  0  0  0  0  0
   -0.3113    0.8485    0.1152 C   0  0  0  0  0  0  0  0  0  0  0  0
    0.3295   -0.3863   -0.0545 C   0  0  0  0  0  0  0  0  0  0  0  0
    1.7591   -0.5594   -0.1734 C   0  0  0  0  0  0  0  0  0  0  0  0
    2.6767    0.4220   -0.1390 C   0  0  0  0  0  0  0  0  0  0  0  0
    4.1097    0.2655   -0.2563 C   0  0  0  0  0  0  0  0  0  0  0  0
    4.7400   -0.9751   -0.4264 C   0  0  0  0  0  0  0  0  0  0  0  0
    6.1092   -1.0643   -0.5321 C   0  0  0  0  0  0  0  0  0  0  0  0
    6.8817    0.0922   -0.4695 C   0  0  0  0  0  0  0  0  0  0  0  0
    8.3090    0.0004   -0.5794 N   0  0  0  0  0  4  0  0  0  0  0  0
    8.7958   -1.1029   -0.7253 O   0  0  0  0  0  0  0  0  0  0  0  0
    8.9485    1.0316   -0.5201 O   0  0  0  0  0  1  0  0  0  0  0  0
    6.2823    1.3368   -0.3013 C   0  0  0  0  0  0  0  0  0  0  0  0
    4.9125    1.4146   -0.1967 C   0  0  0  0  0  0  0  0  0  0  0  0
   -0.5041   -1.5134   -0.1088 C   0  0  0  0  0  0  0  0  0  0  0  0
   -1.8126   -1.4793   -0.0127 N   0  0  0  0  0  0  0  0  0  0  0  0
   -4.4624    0.8943    0.4121 N   0  0  0  0  0  0  0  0  0  0  0  0
   -5.7730    0.9385    0.5088 C   0  0  0  0  0  0  0  0  0  0  0  0
   -8.5855   -0.9702    0.3020 H   0  0  0  0  0  0  0  0  0  0  0  0
   -8.3481    0.1783    1.6226 H   0  0  0  0  0  0  0  0  0  0  0  0
   -8.4543    0.7648   -0.0329 H   0  0  0  0  0  0  0  0  0  0  0  0
   -6.5749   -2.3174    0.2392 H   0  0  0  0  0  0  0  0  0  0  0  0
   -4.0823   -2.4103    0.0533 H   0  0  0  0  0  0  0  0  0  0  0  0
   -2.2169    1.8206    0.3479 H   0  0  0  0  0  0  0  0  0  0  0  0
    0.2608    1.7628    0.1667 H   0  0  0  0  0  0  0  0  0  0  0  0
    2.0735   -1.5870   -0.2996 H   0  0  0  0  0  0  0  0  0  0  0  0
    2.3499    1.4453   -0.0123 H   0  0  0  0  0  0  0  0  0  0  0  0
    4.1524   -1.8774   -0.4763 H   0  0  0  0  0  0  0  0  0  0  0  0
    6.6016   -2.0158   -0.6632 H   0  0  0  0  0  0  0  0  0  0  0  0
    6.9032    2.2183   -0.2559 H   0  0  0  0  0  0  0  0  0  0  0  0
    4.4437    2.3788   -0.0660 H   0  0  0  0  0  0  0  0  0  0  0  0
   -0.0762   -2.5009   -0.2383 H   0  0  0  0  0  0  0  0  0  0  0  0
   -6.1959    1.9280    0.6355 H   0  0  0  0  0  0  0  0  0  0  0  0
  1  2  1  0  0  0  0
  2  3  2  0  0  0  0
  3  4  1  0  0  0  0
  4  5  2  0  0  0  0
  5  6  1  0  0  0  0
  6  7  2  0  0  0  0
  7  8  1  0  0  0  0
  8  9  2  0  0  0  0
  9 10  1  0  0  0  0
 10 11  2  0  0  0  0
 11 12  1  0  0  0  0
 12 13  2  0  0  0  0
 13 14  1  0  0  0  0
 14 15  2  0  0  0  0
 15 16  1  0  0  0  0
 16 17  2  0  0  0  0
 16 18  1  0  0  0  0
 15 19  1  0  0  0  0
 19 20  2  0  0  0  0
  9 21  1  0  0  0  0
 21 22  2  0  0  0  0
  5 23  1  0  0  0  0
 23 24  2  0  0  0  0
 24  2  1  0  0  0  0
 22  6  1  0  0  0  0
 20 12  1  0  0  0  0
  1 25  1  0  0  0  0
  1 26  1  0  0  0  0
  1 27  1  0  0  0  0
  3 28  1  0  0  0  0
  4 29  1  0  0  0  0
  7 30  1  0  0  0  0
  8 31  1  0  0  0  0
 10 32  1  0  0  0  0
 11 33  1  0  0  0  0
 13 34  1  0  0  0  0
 14 35  1  0  0  0  0
 19 36  1  0  0  0  0
 20 37  1  0  0  0  0
 21 38  1  0  0  0  0
 24 39  1  0  0  0  0
M  CHG  1  16   1
M  CHG  1  18  -1
M  END
