
  xtb     03022215203D
 energy: -123.490433086538 gnorm: 0.000104330142 xtb: 6.4.1 (afa7bdf)
 83 89  0     0  0            999 V2000
    1.4233    0.1007    3.0352 C   0  0  0  0  0  0  0  0  0  0  0  0
    0.5149   -0.9931    2.4862 C   0  0  0  0  0  0  0  0  0  0  0  0
    0.9185   -1.5112    1.1036 C   0  0  0  0  0  0  0  0  0  0  0  0
    0.5918   -0.5842   -0.0874 C   0  0  0  0  0  0  0  0  0  0  0  0
    0.8610   -1.3764   -1.3855 C   0  0  0  0  0  0  0  0  0  0  0  0
    0.7973   -0.5726   -2.6865 C   0  0  0  0  0  0  0  0  0  0  0  0
   -0.6159   -0.2346   -3.1466 C   0  0  0  0  0  0  0  0  0  0  0  0
   -0.8247   -0.0686   -0.0060 C   0  0  0  0  0  0  0  0  0  0  0  0
   -1.9975   -0.7832    0.0234 C   0  0  0  0  0  0  0  0  0  0  0  0
   -3.2155   -0.0960    0.1113 C   0  0  0  0  0  0  0  0  0  0  0  0
   -4.4673   -0.8178    0.1390 C   0  0  0  0  0  0  0  0  0  0  0  0
   -4.7480   -2.1649    0.0829 C   0  0  0  0  0  0  0  0  0  0  0  0
   -6.1457   -2.2867    0.1477 C   0  0  0  0  0  0  0  0  0  0  0  0
   -6.6476   -1.0080    0.2404 C   0  0  0  0  0  0  0  0  0  0  0  0
   -8.0024   -0.5109    0.3362 C   0  0  0  0  0  0  0  0  0  0  0  0
   -9.0951   -1.3759    0.3254 C   0  0  0  0  0  0  0  0  0  0  0  0
  -10.3879   -0.8966    0.4160 C   0  0  0  0  0  0  0  0  0  0  0  0
  -10.6203    0.4714    0.5209 C   0  0  0  0  0  0  0  0  0  0  0  0
  -11.8482    1.0521    0.6152 O   0  0  0  0  0  0  0  0  0  0  0  0
  -12.9867    0.2265    0.6064 C   0  0  0  0  0  0  0  0  0  0  0  0
   -9.5302    1.3451    0.5331 C   0  0  0  0  0  0  0  0  0  0  0  0
   -8.2464    0.8628    0.4423 C   0  0  0  0  0  0  0  0  0  0  0  0
   -5.6250   -0.1242    0.2347 O   0  0  0  0  0  0  0  0  0  0  0  0
   -3.2159    1.3022    0.1735 C   0  0  0  0  0  0  0  0  0  0  0  0
   -2.0379    2.0219    0.1516 C   0  0  0  0  0  0  0  0  0  0  0  0
   -0.8361    1.3358    0.0630 C   0  0  0  0  0  0  0  0  0  0  0  0
    0.5316    1.8100    0.0185 C   0  0  0  0  0  0  0  0  0  0  0  0
    1.0544    3.0944    0.0480 C   0  0  0  0  0  0  0  0  0  0  0  0
    2.4244    3.2607   -0.0003 C   0  0  0  0  0  0  0  0  0  0  0  0
    3.2851    2.1605   -0.0809 C   0  0  0  0  0  0  0  0  0  0  0  0
    4.7175    2.3468   -0.1290 C   0  0  0  0  0  0  0  0  0  0  0  0
    5.4938    3.4842   -0.1244 C   0  0  0  0  0  0  0  0  0  0  0  0
    6.8307    3.0583   -0.1848 C   0  0  0  0  0  0  0  0  0  0  0  0
    6.8036    1.6824   -0.2230 C   0  0  0  0  0  0  0  0  0  0  0  0
    7.8661    0.7033   -0.2875 C   0  0  0  0  0  0  0  0  0  0  0  0
    9.2094    1.0909   -0.3257 C   0  0  0  0  0  0  0  0  0  0  0  0
   10.2092    0.1492   -0.3858 C   0  0  0  0  0  0  0  0  0  0  0  0
    9.9057   -1.2147   -0.4099 C   0  0  0  0  0  0  0  0  0  0  0  0
   10.9722   -2.0590   -0.4695 O   0  0  0  0  0  0  0  0  0  0  0  0
   10.7327   -3.4446   -0.4961 C   0  0  0  0  0  0  0  0  0  0  0  0
    8.5725   -1.6100   -0.3726 C   0  0  0  0  0  0  0  0  0  0  0  0
    7.5720   -0.6593   -0.3123 C   0  0  0  0  0  0  0  0  0  0  0  0
    5.5201    1.2583   -0.1892 O   0  0  0  0  0  0  0  0  0  0  0  0
    2.7498    0.8655   -0.1143 C   0  0  0  0  0  0  0  0  0  0  0  0
    1.3878    0.6980   -0.0589 C   0  0  0  0  0  0  0  0  0  0  0  0
    1.1573    0.3203    4.0671 H   0  0  0  0  0  0  0  0  0  0  0  0
    2.4636   -0.2178    3.0108 H   0  0  0  0  0  0  0  0  0  0  0  0
    1.3328    1.0166    2.4597 H   0  0  0  0  0  0  0  0  0  0  0  0
    0.5427   -1.8411    3.1761 H   0  0  0  0  0  0  0  0  0  0  0  0
   -0.5144   -0.6304    2.4550 H   0  0  0  0  0  0  0  0  0  0  0  0
    1.9912   -1.7168    1.1004 H   0  0  0  0  0  0  0  0  0  0  0  0
    0.3997   -2.4580    0.9323 H   0  0  0  0  0  0  0  0  0  0  0  0
    1.8622   -1.8068   -1.3023 H   0  0  0  0  0  0  0  0  0  0  0  0
    0.1493   -2.2031   -1.4433 H   0  0  0  0  0  0  0  0  0  0  0  0
    1.3746    0.3475   -2.5770 H   0  0  0  0  0  0  0  0  0  0  0  0
    1.2782   -1.1700   -3.4661 H   0  0  0  0  0  0  0  0  0  0  0  0
   -0.5856    0.2164   -4.1363 H   0  0  0  0  0  0  0  0  0  0  0  0
   -1.0962    0.4650   -2.4699 H   0  0  0  0  0  0  0  0  0  0  0  0
   -1.2266   -1.1337   -3.1992 H   0  0  0  0  0  0  0  0  0  0  0  0
   -1.9900   -1.8610   -0.0216 H   0  0  0  0  0  0  0  0  0  0  0  0
   -4.0447   -2.9685    0.0051 H   0  0  0  0  0  0  0  0  0  0  0  0
   -6.7052   -3.1994    0.1293 H   0  0  0  0  0  0  0  0  0  0  0  0
   -8.9353   -2.4397    0.2439 H   0  0  0  0  0  0  0  0  0  0  0  0
  -11.2065   -1.5990    0.4036 H   0  0  0  0  0  0  0  0  0  0  0  0
  -13.8391    0.8990    0.6901 H   0  0  0  0  0  0  0  0  0  0  0  0
  -13.0651   -0.3412   -0.3265 H   0  0  0  0  0  0  0  0  0  0  0  0
  -12.9886   -0.4658    1.4547 H   0  0  0  0  0  0  0  0  0  0  0  0
   -9.7243    2.4029    0.6153 H   0  0  0  0  0  0  0  0  0  0  0  0
   -7.4113    1.5457    0.4526 H   0  0  0  0  0  0  0  0  0  0  0  0
   -4.1623    1.8167    0.2409 H   0  0  0  0  0  0  0  0  0  0  0  0
   -2.0552    3.1004    0.2029 H   0  0  0  0  0  0  0  0  0  0  0  0
    0.4024    3.9531    0.1086 H   0  0  0  0  0  0  0  0  0  0  0  0
    2.8411    4.2553    0.0245 H   0  0  0  0  0  0  0  0  0  0  0  0
    5.1527    4.4982   -0.0836 H   0  0  0  0  0  0  0  0  0  0  0  0
    7.6974    3.6866   -0.1979 H   0  0  0  0  0  0  0  0  0  0  0  0
    9.4659    2.1381   -0.3080 H   0  0  0  0  0  0  0  0  0  0  0  0
   11.2473    0.4404   -0.4155 H   0  0  0  0  0  0  0  0  0  0  0  0
   10.1513   -3.7359   -1.3770 H   0  0  0  0  0  0  0  0  0  0  0  0
   11.7147   -3.9128   -0.5433 H   0  0  0  0  0  0  0  0  0  0  0  0
   10.2156   -3.7812    0.4085 H   0  0  0  0  0  0  0  0  0  0  0  0
    8.3012   -2.6540   -0.3897 H   0  0  0  0  0  0  0  0  0  0  0  0
    6.5402   -0.9747   -0.2838 H   0  0  0  0  0  0  0  0  0  0  0  0
    3.4176    0.0202   -0.1805 H   0  0  0  0  0  0  0  0  0  0  0  0
  1  2  1  0  0  0  0
  2  3  1  0  0  0  0
  3  4  1  0  0  0  0
  4  5  1  0  0  0  0
  5  6  1  0  0  0  0
  6  7  1  0  0  0  0
  4  8  1  0  0  0  0
  8  9  2  0  0  0  0
  9 10  1  0  0  0  0
 10 11  1  0  0  0  0
 11 12  2  0  0  0  0
 12 13  1  0  0  0  0
 13 14  2  0  0  0  0
 14 15  1  0  0  0  0
 15 16  2  0  0  0  0
 16 17  1  0  0  0  0
 17 18  2  0  0  0  0
 18 19  1  0  0  0  0
 19 20  1  0  0  0  0
 18 21  1  0  0  0  0
 21 22  2  0  0  0  0
 14 23  1  0  0  0  0
 10 24  2  0  0  0  0
 24 25  1  0  0  0  0
 25 26  2  0  0  0  0
 26 27  1  0  0  0  0
 27 28  2  0  0  0  0
 28 29  1  0  0  0  0
 29 30  2  0  0  0  0
 30 31  1  0  0  0  0
 31 32  2  0  0  0  0
 32 33  1  0  0  0  0
 33 34  2  0  0  0  0
 34 35  1  0  0  0  0
 35 36  2  0  0  0  0
 36 37  1  0  0  0  0
 37 38  2  0  0  0  0
 38 39  1  0  0  0  0
 39 40  1  0  0  0  0
 38 41  1  0  0  0  0
 41 42  2  0  0  0  0
 34 43  1  0  0  0  0
 30 44  1  0  0  0  0
 44 45  2  0  0  0  0
 45  4  1  0  0  0  0
 26  8  1  0  0  0  0
 45 27  1  0  0  0  0
 23 11  1  0  0  0  0
 43 31  1  0  0  0  0
 22 15  1  0  0  0  0
 42 35  1  0  0  0  0
  1 46  1  0  0  0  0
  1 47  1  0  0  0  0
  1 48  1  0  0  0  0
  2 49  1  0  0  0  0
  2 50  1  0  0  0  0
  3 51  1  0  0  0  0
  3 52  1  0  0  0  0
  5 53  1  0  0  0  0
  5 54  1  0  0  0  0
  6 55  1  0  0  0  0
  6 56  1  0  0  0  0
  7 57  1  0  0  0  0
  7 58  1  0  0  0  0
  7 59  1  0  0  0  0
  9 60  1  0  0  0  0
 12 61  1  0  0  0  0
 13 62  1  0  0  0  0
 16 63  1  0  0  0  0
 17 64  1  0  0  0  0
 20 65  1  0  0  0  0
 20 66  1  0  0  0  0
 20 67  1  0  0  0  0
 21 68  1  0  0  0  0
 22 69  1  0  0  0  0
 24 70  1  0  0  0  0
 25 71  1  0  0  0  0
 28 72  1  0  0  0  0
 29 73  1  0  0  0  0
 32 74  1  0  0  0  0
 33 75  1  0  0  0  0
 36 76  1  0  0  0  0
 37 77  1  0  0  0  0
 40 78  1  0  0  0  0
 40 79  1  0  0  0  0
 40 80  1  0  0  0  0
 41 81  1  0  0  0  0
 42 82  1  0  0  0  0
 44 83  1  0  0  0  0
M  END
