
  xtb     03022214023D
 energy: -116.124025453354 gnorm: 0.000234351279 xtb: 6.4.1 (afa7bdf)
 77 83  0     0  0            999 V2000
    9.1047    1.0213    2.8150 C   0  0  0  0  0  0  0  0  0  0  0  0
    8.2781    1.6968    1.7269 C   0  0  0  0  0  0  0  0  0  0  0  0
    8.1616    0.8568    0.4561 C   0  0  0  0  0  0  0  0  0  0  0  0
    7.3585   -0.4318    0.6718 C   0  0  0  0  0  0  0  0  0  0  0  0
    7.0800   -1.0973   -0.5731 N   0  0  0  0  0  0  0  0  0  0  0  0
    5.9090   -1.1599   -1.2931 C   0  0  0  0  0  0  0  0  0  0  0  0
    4.6606   -0.4922   -0.9562 C   0  0  0  0  0  0  0  0  0  0  0  0
    3.4732   -1.1546   -1.2817 C   0  0  0  0  0  0  0  0  0  0  0  0
    2.2502   -0.5848   -1.0084 C   0  0  0  0  0  0  0  0  0  0  0  0
    2.1871    0.6698   -0.4001 C   0  0  0  0  0  0  0  0  0  0  0  0
    0.9189    1.2860   -0.1001 C   0  0  0  0  0  0  0  0  0  0  0  0
    0.7248    2.4284    0.4962 N   0  0  0  0  0  0  0  0  0  0  0  0
   -0.5957    2.6235    0.5648 N   0  0  0  0  0  0  0  0  0  0  0  0
   -1.1703    1.5953    0.0082 C   0  0  0  0  0  0  0  0  0  0  0  0
   -2.5863    1.3782   -0.1577 C   0  0  0  0  0  0  0  0  0  0  0  0
   -3.0655    0.2189   -0.7679 C   0  0  0  0  0  0  0  0  0  0  0  0
   -4.4226    0.0324   -0.9198 C   0  0  0  0  0  0  0  0  0  0  0  0
   -5.3243    0.9914   -0.4598 C   0  0  0  0  0  0  0  0  0  0  0  0
   -6.7515    0.7589   -0.6475 C   0  0  0  0  0  0  0  0  0  0  0  0
   -7.2508    0.3429   -1.7814 N   0  0  0  0  0  0  0  0  0  0  0  0
   -8.6030    0.2744   -1.5943 C   0  0  0  0  0  0  0  0  0  0  0  0
   -9.6173   -0.0940   -2.4721 C   0  0  0  0  0  0  0  0  0  0  0  0
  -10.9107   -0.0731   -1.9977 C   0  0  0  0  0  0  0  0  0  0  0  0
  -11.2050    0.3071   -0.6859 C   0  0  0  0  0  0  0  0  0  0  0  0
  -10.2147    0.6777    0.2007 C   0  0  0  0  0  0  0  0  0  0  0  0
   -8.9096    0.6579   -0.2670 C   0  0  0  0  0  0  0  0  0  0  0  0
   -7.7072    0.9756    0.3177 N   0  0  0  0  0  0  0  0  0  0  0  0
   -7.5195    1.1848    1.7293 C   0  0  0  0  0  0  0  0  0  0  0  0
   -7.6584   -0.1266    2.5139 C   0  0  0  0  0  0  0  0  0  0  0  0
   -6.5693   -1.1473    2.1819 C   0  0  0  0  0  0  0  0  0  0  0  0
   -5.1950   -0.7561    2.7133 C   0  0  0  0  0  0  0  0  0  0  0  0
   -4.8389    2.1636    0.1226 C   0  0  0  0  0  0  0  0  0  0  0  0
   -3.4825    2.3555    0.2769 C   0  0  0  0  0  0  0  0  0  0  0  0
   -0.2554    0.7011   -0.4351 O   0  0  0  0  0  0  0  0  0  0  0  0
    3.3666    1.3490   -0.0956 C   0  0  0  0  0  0  0  0  0  0  0  0
    4.5889    0.7762   -0.3768 C   0  0  0  0  0  0  0  0  0  0  0  0
    6.0026   -1.9361   -2.3448 N   0  0  0  0  0  0  0  0  0  0  0  0
    7.2815   -2.4091   -2.3574 C   0  0  0  0  0  0  0  0  0  0  0  0
    7.9203   -3.2645   -3.2506 C   0  0  0  0  0  0  0  0  0  0  0  0
    9.2345   -3.5881   -2.9949 C   0  0  0  0  0  0  0  0  0  0  0  0
    9.9113   -3.0842   -1.8807 C   0  0  0  0  0  0  0  0  0  0  0  0
    9.2987   -2.2327   -0.9845 C   0  0  0  0  0  0  0  0  0  0  0  0
    7.9779   -1.8947   -1.2379 C   0  0  0  0  0  0  0  0  0  0  0  0
    9.2341    1.6940    3.6593 H   0  0  0  0  0  0  0  0  0  0  0  0
    8.6180    0.1187    3.1758 H   0  0  0  0  0  0  0  0  0  0  0  0
   10.0896    0.7571    2.4362 H   0  0  0  0  0  0  0  0  0  0  0  0
    7.2786    1.9135    2.1116 H   0  0  0  0  0  0  0  0  0  0  0  0
    8.7456    2.6491    1.4678 H   0  0  0  0  0  0  0  0  0  0  0  0
    7.6769    1.4495   -0.3240 H   0  0  0  0  0  0  0  0  0  0  0  0
    9.1587    0.6012    0.0919 H   0  0  0  0  0  0  0  0  0  0  0  0
    7.9284   -1.1234    1.2999 H   0  0  0  0  0  0  0  0  0  0  0  0
    6.4127   -0.2131    1.1741 H   0  0  0  0  0  0  0  0  0  0  0  0
    3.5414   -2.1204   -1.7566 H   0  0  0  0  0  0  0  0  0  0  0  0
    1.3369   -1.1025   -1.2602 H   0  0  0  0  0  0  0  0  0  0  0  0
   -2.3681   -0.5265   -1.1191 H   0  0  0  0  0  0  0  0  0  0  0  0
   -4.8077   -0.8551   -1.3967 H   0  0  0  0  0  0  0  0  0  0  0  0
   -9.3851   -0.3823   -3.4845 H   0  0  0  0  0  0  0  0  0  0  0  0
  -11.7226   -0.3544   -2.6520 H   0  0  0  0  0  0  0  0  0  0  0  0
  -12.2346    0.3117   -0.3596 H   0  0  0  0  0  0  0  0  0  0  0  0
  -10.4526    0.9757    1.2114 H   0  0  0  0  0  0  0  0  0  0  0  0
   -6.5320    1.6123    1.9006 H   0  0  0  0  0  0  0  0  0  0  0  0
   -8.2737    1.8997    2.0743 H   0  0  0  0  0  0  0  0  0  0  0  0
   -7.6268    0.1062    3.5800 H   0  0  0  0  0  0  0  0  0  0  0  0
   -8.6343   -0.5640    2.2919 H   0  0  0  0  0  0  0  0  0  0  0  0
   -6.8549   -2.1067    2.6188 H   0  0  0  0  0  0  0  0  0  0  0  0
   -6.5172   -1.2852    1.0995 H   0  0  0  0  0  0  0  0  0  0  0  0
   -5.2344   -0.5971    3.7890 H   0  0  0  0  0  0  0  0  0  0  0  0
   -4.8271    0.1523    2.2425 H   0  0  0  0  0  0  0  0  0  0  0  0
   -4.4778   -1.5479    2.5109 H   0  0  0  0  0  0  0  0  0  0  0  0
   -5.5253    2.9421    0.4229 H   0  0  0  0  0  0  0  0  0  0  0  0
   -3.0900    3.2553    0.7230 H   0  0  0  0  0  0  0  0  0  0  0  0
    3.2979    2.3279    0.3516 H   0  0  0  0  0  0  0  0  0  0  0  0
    5.4856    1.3399   -0.1767 H   0  0  0  0  0  0  0  0  0  0  0  0
    7.3924   -3.6542   -4.1058 H   0  0  0  0  0  0  0  0  0  0  0  0
    9.7609   -4.2496   -3.6670 H   0  0  0  0  0  0  0  0  0  0  0  0
   10.9405   -3.3694   -1.7195 H   0  0  0  0  0  0  0  0  0  0  0  0
    9.8304   -1.8512   -0.1253 H   0  0  0  0  0  0  0  0  0  0  0  0
  1  2  1  0  0  0  0
  2  3  1  0  0  0  0
  3  4  1  0  0  0  0
  4  5  1  0  0  0  0
  5  6  1  0  0  0  0
  6  7  1  0  0  0  0
  7  8  2  0  0  0  0
  8  9  1  0  0  0  0
  9 10  2  0  0  0  0
 10 11  1  0  0  0  0
 11 12  2  0  0  0  0
 12 13  1  0  0  0  0
 13 14  2  0  0  0  0
 14 15  1  0  0  0  0
 15 16  2  0  0  0  0
 16 17  1  0  0  0  0
 17 18  2  0  0  0  0
 18 19  1  0  0  0  0
 19 20  2  0  0  0  0
 20 21  1  0  0  0  0
 21 22  2  0  0  0  0
 22 23  1  0  0  0  0
 23 24  2  0  0  0  0
 24 25  1  0  0  0  0
 25 26  2  0  0  0  0
 26 27  1  0  0  0  0
 27 28  1  0  0  0  0
 28 29  1  0  0  0  0
 29 30  1  0  0  0  0
 30 31  1  0  0  0  0
 18 32  1  0  0  0  0
 32 33  2  0  0  0  0
 14 34  1  0  0  0  0
 10 35  1  0  0  0  0
 35 36  2  0  0  0  0
  6 37  2  0  0  0  0
 37 38  1  0  0  0  0
 38 39  2  0  0  0  0
 39 40  1  0  0  0  0
 40 41  2  0  0  0  0
 41 42  1  0  0  0  0
 42 43  2  0  0  0  0
 43  5  1  0  0  0  0
 36  7  1  0  0  0  0
 43 38  1  0  0  0  0
 34 11  1  0  0  0  0
 33 15  1  0  0  0  0
 27 19  1  0  0  0  0
 26 21  1  0  0  0  0
  1 44  1  0  0  0  0
  1 45  1  0  0  0  0
  1 46  1  0  0  0  0
  2 47  1  0  0  0  0
  2 48  1  0  0  0  0
  3 49  1  0  0  0  0
  3 50  1  0  0  0  0
  4 51  1  0  0  0  0
  4 52  1  0  0  0  0
  8 53  1  0  0  0  0
  9 54  1  0  0  0  0
 16 55  1  0  0  0  0
 17 56  1  0  0  0  0
 22 57  1  0  0  0  0
 23 58  1  0  0  0  0
 24 59  1  0  0  0  0
 25 60  1  0  0  0  0
 28 61  1  0  0  0  0
 28 62  1  0  0  0  0
 29 63  1  0  0  0  0
 29 64  1  0  0  0  0
 30 65  1  0  0  0  0
 30 66  1  0  0  0  0
 31 67  1  0  0  0  0
 31 68  1  0  0  0  0
 31 69  1  0  0  0  0
 32 70  1  0  0  0  0
 33 71  1  0  0  0  0
 35 72  1  0  0  0  0
 36 73  1  0  0  0  0
 39 74  1  0  0  0  0
 40 75  1  0  0  0  0
 41 76  1  0  0  0  0
 42 77  1  0  0  0  0
M  END
