
  xtb     03022212443D
 energy: -90.772229065445 gnorm: 0.000084542801 xtb: 6.4.1 (afa7bdf)
 57 62  0     0  0            999 V2000
   -6.0800    0.0936    1.0348 C   0  0  0  0  0  0  0  0  0  0  0  0
   -5.0501    0.4052   -0.0666 C   0  0  0  0  0  0  0  0  0  0  0  0
   -5.7569    0.9590   -1.3172 C   0  0  0  0  0  0  0  0  0  0  0  0
   -4.0887    1.4539    0.4583 C   0  0  0  0  0  0  0  0  0  0  0  0
   -4.5798    2.6925    0.8489 C   0  0  0  0  0  0  0  0  0  0  0  0
   -3.7614    3.6766    1.3705 C   0  0  0  0  0  0  0  0  0  0  0  0
   -2.4124    3.4171    1.5303 C   0  0  0  0  0  0  0  0  0  0  0  0
   -1.8981    2.1958    1.1494 C   0  0  0  0  0  0  0  0  0  0  0  0
   -2.7178    1.2108    0.5905 C   0  0  0  0  0  0  0  0  0  0  0  0
   -2.1695   -0.0056    0.2049 N   0  0  0  0  0  0  0  0  0  0  0  0
   -0.7750   -0.2076    0.3439 C   0  0  0  0  0  0  0  0  0  0  0  0
    0.1132    0.4522   -0.5013 C   0  0  0  0  0  0  0  0  0  0  0  0
    1.4726    0.2605   -0.3649 C   0  0  0  0  0  0  0  0  0  0  0  0
    1.9594   -0.5974    0.6211 C   0  0  0  0  0  0  0  0  0  0  0  0
    3.3770   -0.8063    0.7821 C   0  0  0  0  0  0  0  0  0  0  0  0
    3.9575   -1.5710    1.6583 N   0  0  0  0  0  0  0  0  0  0  0  0
    5.2783   -1.4661    1.4583 N   0  0  0  0  0  0  0  0  0  0  0  0
    5.4630   -0.6385    0.4632 C   0  0  0  0  0  0  0  0  0  0  0  0
    6.7321   -0.2394   -0.0832 C   0  0  0  0  0  0  0  0  0  0  0  0
    6.7926    0.6526   -1.1570 C   0  0  0  0  0  0  0  0  0  0  0  0
    8.0068    1.0354   -1.6807 C   0  0  0  0  0  0  0  0  0  0  0  0
    9.1805    0.5288   -1.1343 C   0  0  0  0  0  0  0  0  0  0  0  0
    9.1396   -0.3518   -0.0746 C   0  0  0  0  0  0  0  0  0  0  0  0
    7.9201   -0.7545    0.4724 C   0  0  0  0  0  0  0  0  0  0  0  0
    7.9342   -1.6106    1.4993 O   0  0  0  0  0  0  0  0  0  0  0  0
    4.2849   -0.1822   -0.0123 O   0  0  0  0  0  0  0  0  0  0  0  0
    1.0698   -1.2620    1.4672 C   0  0  0  0  0  0  0  0  0  0  0  0
   -0.2874   -1.0662    1.3276 C   0  0  0  0  0  0  0  0  0  0  0  0
   -2.9527   -1.0305   -0.3104 C   0  0  0  0  0  0  0  0  0  0  0  0
   -2.3493   -2.2180   -0.7351 C   0  0  0  0  0  0  0  0  0  0  0  0
   -3.1020   -3.2558   -1.2426 C   0  0  0  0  0  0  0  0  0  0  0  0
   -4.4748   -3.1246   -1.3464 C   0  0  0  0  0  0  0  0  0  0  0  0
   -5.0703   -1.9400   -0.9559 C   0  0  0  0  0  0  0  0  0  0  0  0
   -4.3364   -0.8786   -0.4434 C   0  0  0  0  0  0  0  0  0  0  0  0
   -5.5724   -0.2923    1.9170 H   0  0  0  0  0  0  0  0  0  0  0  0
   -6.6278    0.9878    1.3188 H   0  0  0  0  0  0  0  0  0  0  0  0
   -6.7953   -0.6514    0.6975 H   0  0  0  0  0  0  0  0  0  0  0  0
   -5.0236    1.1713   -2.0932 H   0  0  0  0  0  0  0  0  0  0  0  0
   -6.4724    0.2417   -1.7092 H   0  0  0  0  0  0  0  0  0  0  0  0
   -6.2890    1.8780   -1.0877 H   0  0  0  0  0  0  0  0  0  0  0  0
   -5.6343    2.9000    0.7483 H   0  0  0  0  0  0  0  0  0  0  0  0
   -4.1759    4.6299    1.6603 H   0  0  0  0  0  0  0  0  0  0  0  0
   -1.7572    4.1623    1.9561 H   0  0  0  0  0  0  0  0  0  0  0  0
   -0.8473    1.9982    1.2949 H   0  0  0  0  0  0  0  0  0  0  0  0
   -0.2735    1.1151   -1.2610 H   0  0  0  0  0  0  0  0  0  0  0  0
    2.1632    0.7685   -1.0208 H   0  0  0  0  0  0  0  0  0  0  0  0
    5.8698    1.0347   -1.5671 H   0  0  0  0  0  0  0  0  0  0  0  0
    8.0464    1.7241   -2.5101 H   0  0  0  0  0  0  0  0  0  0  0  0
   10.1346    0.8266   -1.5423 H   0  0  0  0  0  0  0  0  0  0  0  0
   10.0430   -0.7513    0.3576 H   0  0  0  0  0  0  0  0  0  0  0  0
    7.0173   -1.8123    1.7874 H   0  0  0  0  0  0  0  0  0  0  0  0
    1.4666   -1.9180    2.2252 H   0  0  0  0  0  0  0  0  0  0  0  0
   -0.9849   -1.5741    1.9766 H   0  0  0  0  0  0  0  0  0  0  0  0
   -1.2775   -2.3260   -0.6723 H   0  0  0  0  0  0  0  0  0  0  0  0
   -2.6122   -4.1644   -1.5594 H   0  0  0  0  0  0  0  0  0  0  0  0
   -5.0761   -3.9311   -1.7372 H   0  0  0  0  0  0  0  0  0  0  0  0
   -6.1406   -1.8439   -1.0577 H   0  0  0  0  0  0  0  0  0  0  0  0
  1  2  1  0  0  0  0
  2  3  1  0  0  0  0
  2  4  1  0  0  0  0
  4  5  2  0  0  0  0
  5  6  1  0  0  0  0
  6  7  2  0  0  0  0
  7  8  1  0  0  0  0
  8  9  2  0  0  0  0
  9 10  1  0  0  0  0
 10 11  1  0  0  0  0
 11 12  2  0  0  0  0
 12 13  1  0  0  0  0
 13 14  2  0  0  0  0
 14 15  1  0  0  0  0
 15 16  2  0  0  0  0
 16 17  1  0  0  0  0
 17 18  2  0  0  0  0
 18 19  1  0  0  0  0
 19 20  2  0  0  0  0
 20 21  1  0  0  0  0
 21 22  2  0  0  0  0
 22 23  1  0  0  0  0
 23 24  2  0  0  0  0
 24 25  1  0  0  0  0
 18 26  1  0  0  0  0
 14 27  1  0  0  0  0
 27 28  2  0  0  0  0
 10 29  1  0  0  0  0
 29 30  2  0  0  0  0
 30 31  1  0  0  0  0
 31 32  2  0  0  0  0
 32 33  1  0  0  0  0
 33 34  2  0  0  0  0
 34  2  1  0  0  0  0
  9  4  1  0  0  0  0
 28 11  1  0  0  0  0
 34 29  1  0  0  0  0
 26 15  1  0  0  0  0
 24 19  1  0  0  0  0
  1 35  1  0  0  0  0
  1 36  1  0  0  0  0
  1 37  1  0  0  0  0
  3 38  1  0  0  0  0
  3 39  1  0  0  0  0
  3 40  1  0  0  0  0
  5 41  1  0  0  0  0
  6 42  1  0  0  0  0
  7 43  1  0  0  0  0
  8 44  1  0  0  0  0
 12 45  1  0  0  0  0
 13 46  1  0  0  0  0
 20 47  1  0  0  0  0
 21 48  1  0  0  0  0
 22 49  1  0  0  0  0
 23 50  1  0  0  0  0
 25 51  1  0  0  0  0
 27 52  1  0  0  0  0
 28 53  1  0  0  0  0
 30 54  1  0  0  0  0
 31 55  1  0  0  0  0
 32 56  1  0  0  0  0
 33 57  1  0  0  0  0
M  END
