
  xtb     03022216183D
 energy: -52.307052123744 gnorm: 0.000123334848 xtb: 6.4.1 (afa7bdf)
 26 28  0     0  0            999 V2000
   -5.0224   -0.9906   -0.9485 F   0  0  0  0  0  0  0  0  0  0  0  0
   -4.3171   -1.0668    0.1964 C   0  0  0  0  0  0  0  0  0  0  0  0
   -4.1439   -2.3740    0.4432 F   0  0  0  0  0  0  0  0  0  0  0  0
   -5.1355   -0.6072    1.1622 F   0  0  0  0  0  0  0  0  0  0  0  0
   -3.0330   -0.2963    0.1251 C   0  0  0  0  0  0  0  0  0  0  0  0
   -3.0859    1.0654   -0.1328 C   0  0  0  0  0  0  0  0  0  0  0  0
   -1.9026    1.7800   -0.1988 C   0  0  0  0  0  0  0  0  0  0  0  0
   -0.6809    1.1537   -0.0106 C   0  0  0  0  0  0  0  0  0  0  0  0
   -0.6224   -0.2214    0.2494 C   0  0  0  0  0  0  0  0  0  0  0  0
   -1.8160   -0.9359    0.3141 C   0  0  0  0  0  0  0  0  0  0  0  0
    0.5612   -0.8909    0.4441 N   0  0  0  0  0  0  0  0  0  0  0  0
    1.8375   -0.3597    0.3917 C   0  0  0  0  0  0  0  0  0  0  0  0
    2.9269   -1.2038    0.5882 C   0  0  0  0  0  0  0  0  0  0  0  0
    4.2220   -0.7182    0.5462 C   0  0  0  0  0  0  0  0  0  0  0  0
    4.4506    0.6240    0.3047 C   0  0  0  0  0  0  0  0  0  0  0  0
    3.3759    1.4753    0.1067 C   0  0  0  0  0  0  0  0  0  0  0  0
    2.0792    0.9925    0.1498 C   0  0  0  0  0  0  0  0  0  0  0  0
    0.7665    2.1639   -0.1103 S   0  0  0  0  0  0  0  0  0  0  0  0
   -4.0341    1.5566   -0.2790 H   0  0  0  0  0  0  0  0  0  0  0  0
   -1.9173    2.8400   -0.3977 H   0  0  0  0  0  0  0  0  0  0  0  0
   -1.7874   -1.9964    0.5141 H   0  0  0  0  0  0  0  0  0  0  0  0
    0.4957   -1.8818    0.6222 H   0  0  0  0  0  0  0  0  0  0  0  0
    2.7451   -2.2523    0.7763 H   0  0  0  0  0  0  0  0  0  0  0  0
    5.0488   -1.3936    0.7027 H   0  0  0  0  0  0  0  0  0  0  0  0
    5.4561    1.0119    0.2697 H   0  0  0  0  0  0  0  0  0  0  0  0
    3.5328    2.5260   -0.0827 H   0  0  0  0  0  0  0  0  0  0  0  0
  1  2  1  0  0  0  0
  2  3  1  0  0  0  0
  2  4  1  0  0  0  0
  2  5  1  0  0  0  0
  5  6  2  0  0  0  0
  6  7  1  0  0  0  0
  7  8  2  0  0  0  0
  8  9  1  0  0  0  0
  9 10  2  0  0  0  0
  9 11  1  0  0  0  0
 11 12  1  0  0  0  0
 12 13  2  0  0  0  0
 13 14  1  0  0  0  0
 14 15  2  0  0  0  0
 15 16  1  0  0  0  0
 16 17  2  0  0  0  0
 17 18  1  0  0  0  0
 10  5  1  0  0  0  0
 17 12  1  0  0  0  0
 18  8  1  0  0  0  0
  6 19  1  0  0  0  0
  7 20  1  0  0  0  0
 10 21  1  0  0  0  0
 11 22  1  0  0  0  0
 13 23  1  0  0  0  0
 14 24  1  0  0  0  0
 15 25  1  0  0  0  0
 16 26  1  0  0  0  0
M  END
