
  xtb     03022213443D
 energy: -120.183679263300 gnorm: 0.000081730811 xtb: 6.4.1 (afa7bdf)
 77 84  0     0  0            999 V2000
    9.3386   -3.1652   -1.2157 C   0  0  0  0  0  0  0  0  0  0  0  0
    9.7441   -1.9162   -1.6569 C   0  0  0  0  0  0  0  0  0  0  0  0
    9.0107   -0.7898   -1.3390 C   0  0  0  0  0  0  0  0  0  0  0  0
    7.8571   -0.8982   -0.5630 C   0  0  0  0  0  0  0  0  0  0  0  0
    7.1160    0.2442   -0.2351 N   0  0  0  0  0  0  0  0  0  0  0  0
    7.7875    1.4379    0.0585 C   0  0  0  0  0  0  0  0  0  0  0  0
    8.9765    1.4151    0.7870 C   0  0  0  0  0  0  0  0  0  0  0  0
    9.6408    2.5921    1.0719 C   0  0  0  0  0  0  0  0  0  0  0  0
    9.1304    3.8070    0.6446 C   0  0  0  0  0  0  0  0  0  0  0  0
    7.9489    3.8351   -0.0782 C   0  0  0  0  0  0  0  0  0  0  0  0
    7.2815    2.6629   -0.3754 C   0  0  0  0  0  0  0  0  0  0  0  0
    5.7222    0.1949   -0.2064 C   0  0  0  0  0  0  0  0  0  0  0  0
    4.9990    0.9694    0.7029 C   0  0  0  0  0  0  0  0  0  0  0  0
    3.6229    0.9197    0.7268 C   0  0  0  0  0  0  0  0  0  0  0  0
    2.9112    0.0936   -0.1467 C   0  0  0  0  0  0  0  0  0  0  0  0
    1.4521    0.0354   -0.1024 C   0  0  0  0  0  0  0  0  0  0  0  0
    0.7404    0.2500    1.0612 C   0  0  0  0  0  0  0  0  0  0  0  0
   -0.6561    0.2039    1.1258 C   0  0  0  0  0  0  0  0  0  0  0  0
   -1.4564   -0.0589    0.0318 C   0  0  0  0  0  0  0  0  0  0  0  0
   -2.9137   -0.1069    0.1244 C   0  0  0  0  0  0  0  0  0  0  0  0
   -3.5445   -0.4980    1.3081 C   0  0  0  0  0  0  0  0  0  0  0  0
   -4.9176   -0.5313    1.4097 C   0  0  0  0  0  0  0  0  0  0  0  0
   -5.7192   -0.1790    0.3220 C   0  0  0  0  0  0  0  0  0  0  0  0
   -7.1103   -0.2136    0.4205 N   0  0  0  0  0  0  0  0  0  0  0  0
   -7.7389   -1.1759    1.2210 C   0  0  0  0  0  0  0  0  0  0  0  0
   -8.8700   -0.8416    1.9652 C   0  0  0  0  0  0  0  0  0  0  0  0
   -9.4923   -1.7924    2.7504 C   0  0  0  0  0  0  0  0  0  0  0  0
   -8.9962   -3.0842    2.8137 C   0  0  0  0  0  0  0  0  0  0  0  0
   -7.8719   -3.4209    2.0776 C   0  0  0  0  0  0  0  0  0  0  0  0
   -7.2475   -2.4796    1.2827 C   0  0  0  0  0  0  0  0  0  0  0  0
   -7.8919    0.7104   -0.2846 C   0  0  0  0  0  0  0  0  0  0  0  0
   -7.4792    2.0360   -0.4158 C   0  0  0  0  0  0  0  0  0  0  0  0
   -8.2552    2.9398   -1.1150 C   0  0  0  0  0  0  0  0  0  0  0  0
   -9.4540    2.5433   -1.6847 C   0  0  0  0  0  0  0  0  0  0  0  0
   -9.8716    1.2292   -1.5516 C   0  0  0  0  0  0  0  0  0  0  0  0
   -9.0987    0.3159   -0.8616 C   0  0  0  0  0  0  0  0  0  0  0  0
   -5.0953    0.2040   -0.8668 C   0  0  0  0  0  0  0  0  0  0  0  0
   -3.7218    0.2403   -0.9602 C   0  0  0  0  0  0  0  0  0  0  0  0
   -0.7697   -0.2804   -1.1892 C   0  0  0  0  0  0  0  0  0  0  0  0
   -1.3094   -0.5564   -2.3767 N   0  0  0  0  0  0  0  0  0  0  0  0
   -0.1367   -0.7359   -3.4600 S   0  0  0  0  0  0  0  0  0  0  0  0
    1.1168   -0.4809   -2.4880 N   0  0  0  0  0  0  0  0  0  0  0  0
    0.6722   -0.2447   -1.2534 C   0  0  0  0  0  0  0  0  0  0  0  0
    3.6410   -0.6752   -1.0558 C   0  0  0  0  0  0  0  0  0  0  0  0
    5.0169   -0.6260   -1.0885 C   0  0  0  0  0  0  0  0  0  0  0  0
    7.4568   -2.1570   -0.1158 C   0  0  0  0  0  0  0  0  0  0  0  0
    8.1923   -3.2785   -0.4461 C   0  0  0  0  0  0  0  0  0  0  0  0
    9.9119   -4.0438   -1.4696 H   0  0  0  0  0  0  0  0  0  0  0  0
   10.6340   -1.8186   -2.2612 H   0  0  0  0  0  0  0  0  0  0  0  0
    9.3235    0.1821   -1.6919 H   0  0  0  0  0  0  0  0  0  0  0  0
    9.3713    0.4693    1.1286 H   0  0  0  0  0  0  0  0  0  0  0  0
   10.5594    2.5606    1.6392 H   0  0  0  0  0  0  0  0  0  0  0  0
    9.6502    4.7251    0.8725 H   0  0  0  0  0  0  0  0  0  0  0  0
    7.5473    4.7773   -0.4214 H   0  0  0  0  0  0  0  0  0  0  0  0
    6.3662    2.6860   -0.9486 H   0  0  0  0  0  0  0  0  0  0  0  0
    5.5270    1.6118    1.3926 H   0  0  0  0  0  0  0  0  0  0  0  0
    3.0919    1.5487    1.4256 H   0  0  0  0  0  0  0  0  0  0  0  0
    1.2794    0.4459    1.9761 H   0  0  0  0  0  0  0  0  0  0  0  0
   -1.1217    0.4031    2.0794 H   0  0  0  0  0  0  0  0  0  0  0  0
   -2.9526   -0.7991    2.1595 H   0  0  0  0  0  0  0  0  0  0  0  0
   -5.3820   -0.8316    2.3377 H   0  0  0  0  0  0  0  0  0  0  0  0
   -9.2531    0.1676    1.9238 H   0  0  0  0  0  0  0  0  0  0  0  0
  -10.3661   -1.5197    3.3239 H   0  0  0  0  0  0  0  0  0  0  0  0
   -9.4828   -3.8235    3.4316 H   0  0  0  0  0  0  0  0  0  0  0  0
   -7.4824   -4.4276    2.1154 H   0  0  0  0  0  0  0  0  0  0  0  0
   -6.3776   -2.7470    0.7009 H   0  0  0  0  0  0  0  0  0  0  0  0
   -6.5498    2.3500    0.0362 H   0  0  0  0  0  0  0  0  0  0  0  0
   -7.9248    3.9640   -1.2084 H   0  0  0  0  0  0  0  0  0  0  0  0
  -10.0587    3.2533   -2.2283 H   0  0  0  0  0  0  0  0  0  0  0  0
  -10.8028    0.9098   -1.9962 H   0  0  0  0  0  0  0  0  0  0  0  0
   -9.4216   -0.7107   -0.7670 H   0  0  0  0  0  0  0  0  0  0  0  0
   -5.6995    0.4687   -1.7220 H   0  0  0  0  0  0  0  0  0  0  0  0
   -3.2611    0.5363   -1.8885 H   0  0  0  0  0  0  0  0  0  0  0  0
    3.1167   -1.3138   -1.7478 H   0  0  0  0  0  0  0  0  0  0  0  0
    5.5593   -1.2234   -1.8064 H   0  0  0  0  0  0  0  0  0  0  0  0
    6.5690   -2.2467    0.4930 H   0  0  0  0  0  0  0  0  0  0  0  0
    7.8721   -4.2476   -0.0924 H   0  0  0  0  0  0  0  0  0  0  0  0
  1  2  2  0  0  0  0
  2  3  1  0  0  0  0
  3  4  2  0  0  0  0
  4  5  1  0  0  0  0
  5  6  1  0  0  0  0
  6  7  2  0  0  0  0
  7  8  1  0  0  0  0
  8  9  2  0  0  0  0
  9 10  1  0  0  0  0
 10 11  2  0  0  0  0
  5 12  1  0  0  0  0
 12 13  2  0  0  0  0
 13 14  1  0  0  0  0
 14 15  2  0  0  0  0
 15 16  1  0  0  0  0
 16 17  2  0  0  0  0
 17 18  1  0  0  0  0
 18 19  2  0  0  0  0
 19 20  1  0  0  0  0
 20 21  2  0  0  0  0
 21 22  1  0  0  0  0
 22 23  2  0  0  0  0
 23 24  1  0  0  0  0
 24 25  1  0  0  0  0
 25 26  2  0  0  0  0
 26 27  1  0  0  0  0
 27 28  2  0  0  0  0
 28 29  1  0  0  0  0
 29 30  2  0  0  0  0
 24 31  1  0  0  0  0
 31 32  2  0  0  0  0
 32 33  1  0  0  0  0
 33 34  2  0  0  0  0
 34 35  1  0  0  0  0
 35 36  2  0  0  0  0
 23 37  1  0  0  0  0
 37 38  2  0  0  0  0
 19 39  1  0  0  0  0
 39 40  2  0  0  0  0
 40 41  1  0  0  0  0
 41 42  1  0  0  0  0
 42 43  2  0  0  0  0
 15 44  1  0  0  0  0
 44 45  2  0  0  0  0
  4 46  1  0  0  0  0
 46 47  2  0  0  0  0
 47  1  1  0  0  0  0
 11  6  1  0  0  0  0
 45 12  1  0  0  0  0
 43 16  1  0  0  0  0
 38 20  1  0  0  0  0
 43 39  1  0  0  0  0
 30 25  1  0  0  0  0
 36 31  1  0  0  0  0
  1 48  1  0  0  0  0
  2 49  1  0  0  0  0
  3 50  1  0  0  0  0
  7 51  1  0  0  0  0
  8 52  1  0  0  0  0
  9 53  1  0  0  0  0
 10 54  1  0  0  0  0
 11 55  1  0  0  0  0
 13 56  1  0  0  0  0
 14 57  1  0  0  0  0
 17 58  1  0  0  0  0
 18 59  1  0  0  0  0
 21 60  1  0  0  0  0
 22 61  1  0  0  0  0
 26 62  1  0  0  0  0
 27 63  1  0  0  0  0
 28 64  1  0  0  0  0
 29 65  1  0  0  0  0
 30 66  1  0  0  0  0
 32 67  1  0  0  0  0
 33 68  1  0  0  0  0
 34 69  1  0  0  0  0
 35 70  1  0  0  0  0
 36 71  1  0  0  0  0
 37 72  1  0  0  0  0
 38 73  1  0  0  0  0
 44 74  1  0  0  0  0
 45 75  1  0  0  0  0
 46 76  1  0  0  0  0
 47 77  1  0  0  0  0
M  END
