
  xtb     03022213033D
 energy: -85.451382759085 gnorm: 0.000116795289 xtb: 6.4.1 (afa7bdf)
 47 53  0     0  0            999 V2000
   -0.1945    5.5590    0.2465 F   0  0  0  0  0  0  0  0  0  0  0  0
   -0.8786    4.7949    1.1113 C   0  0  0  0  0  0  0  0  0  0  0  0
   -2.1410    5.2669    1.1131 F   0  0  0  0  0  0  0  0  0  0  0  0
   -0.3812    5.0650    2.3311 F   0  0  0  0  0  0  0  0  0  0  0  0
   -0.8428    3.3469    0.7746 C   0  0  0  0  0  0  0  0  0  0  0  0
   -1.9366    2.4991    0.5942 C   0  0  0  0  0  0  0  0  0  0  0  0
   -1.3430    1.2710    0.3084 C   0  0  0  0  0  0  0  0  0  0  0  0
    0.0078    1.4665    0.3383 N   0  0  0  0  0  0  0  0  0  0  0  0
    0.3186    2.6969    0.6150 N   0  0  0  0  0  0  0  0  0  0  0  0
    0.7620    0.1911    0.0380 B   0  0  0  0  0  4  0  0  0  0  0  0
    1.7478    0.2011   -1.2383 C   0  0  0  0  0  0  0  0  0  0  0  0
    1.5246    0.5553   -2.5521 C   0  0  0  0  0  0  0  0  0  0  0  0
    2.5593    0.4659   -3.4762 C   0  0  0  0  0  0  0  0  0  0  0  0
    3.8099    0.0204   -3.0850 C   0  0  0  0  0  0  0  0  0  0  0  0
    4.0494   -0.3412   -1.7682 C   0  0  0  0  0  0  0  0  0  0  0  0
    3.0194   -0.2506   -0.8465 C   0  0  0  0  0  0  0  0  0  0  0  0
    3.0416   -0.5735    0.5777 C   0  0  0  0  0  0  0  0  0  0  0  0
    4.0985   -1.0445    1.3392 C   0  0  0  0  0  0  0  0  0  0  0  0
    3.9012   -1.2871    2.6898 C   0  0  0  0  0  0  0  0  0  0  0  0
    2.6657   -1.0631    3.2718 C   0  0  0  0  0  0  0  0  0  0  0  0
    1.6040   -0.5923    2.5078 C   0  0  0  0  0  0  0  0  0  0  0  0
    1.7850   -0.3444    1.1634 C   0  0  0  0  0  0  0  0  0  0  0  0
   -0.4538   -0.7401   -0.1580 N   0  0  0  0  0  4  0  0  0  0  0  0
   -0.4118   -2.0509   -0.4569 C   0  0  0  0  0  0  0  0  0  0  0  0
   -1.5509   -2.7780   -0.6107 C   0  0  0  0  0  0  0  0  0  0  0  0
   -2.8154   -2.1544   -0.4555 C   0  0  0  0  0  0  0  0  0  0  0  0
   -4.0249   -2.8559   -0.6030 C   0  0  0  0  0  0  0  0  0  0  0  0
   -5.2247   -2.2139   -0.4442 C   0  0  0  0  0  0  0  0  0  0  0  0
   -5.2629   -0.8483   -0.1324 C   0  0  0  0  0  0  0  0  0  0  0  0
   -4.1024   -0.1363    0.0178 C   0  0  0  0  0  0  0  0  0  0  0  0
   -2.8560   -0.7696   -0.1396 C   0  0  0  0  0  0  0  0  0  0  0  0
   -1.6178   -0.0931    0.0013 C   0  0  0  0  0  0  0  0  0  0  0  0
   -2.9694    2.7671    0.6652 H   0  0  0  0  0  0  0  0  0  0  0  0
    0.5516    0.9074   -2.8682 H   0  0  0  0  0  0  0  0  0  0  0  0
    2.3865    0.7478   -4.5049 H   0  0  0  0  0  0  0  0  0  0  0  0
    4.6069   -0.0442   -3.8120 H   0  0  0  0  0  0  0  0  0  0  0  0
    5.0285   -0.6861   -1.4691 H   0  0  0  0  0  0  0  0  0  0  0  0
    5.0661   -1.2191    0.8916 H   0  0  0  0  0  0  0  0  0  0  0  0
    4.7195   -1.6522    3.2939 H   0  0  0  0  0  0  0  0  0  0  0  0
    2.5259   -1.2529    4.3264 H   0  0  0  0  0  0  0  0  0  0  0  0
    0.6432   -0.4179    2.9738 H   0  0  0  0  0  0  0  0  0  0  0  0
    0.5753   -2.4739   -0.5635 H   0  0  0  0  0  0  0  0  0  0  0  0
   -1.5036   -3.8279   -0.8504 H   0  0  0  0  0  0  0  0  0  0  0  0
   -3.9891   -3.9080   -0.8433 H   0  0  0  0  0  0  0  0  0  0  0  0
   -6.1502   -2.7577   -0.5587 H   0  0  0  0  0  0  0  0  0  0  0  0
   -6.2170   -0.3586   -0.0107 H   0  0  0  0  0  0  0  0  0  0  0  0
   -4.1309    0.9132    0.2574 H   0  0  0  0  0  0  0  0  0  0  0  0
  1  2  1  0  0  0  0
  2  3  1  0  0  0  0
  2  4  1  0  0  0  0
  2  5  1  0  0  0  0
  5  6  1  0  0  0  0
  6  7  2  0  0  0  0
  7  8  1  0  0  0  0
  8  9  1  0  0  0  0
  8 10  1  0  0  0  0
 10 11  1  0  0  0  0
 11 12  2  0  0  0  0
 12 13  1  0  0  0  0
 13 14  2  0  0  0  0
 14 15  1  0  0  0  0
 15 16  2  0  0  0  0
 16 17  1  0  0  0  0
 17 18  2  0  0  0  0
 18 19  1  0  0  0  0
 19 20  2  0  0  0  0
 20 21  1  0  0  0  0
 21 22  2  0  0  0  0
 10 23  1  0  0  0  0
 23 24  2  0  0  0  0
 24 25  1  0  0  0  0
 25 26  2  0  0  0  0
 26 27  1  0  0  0  0
 27 28  2  0  0  0  0
 28 29  1  0  0  0  0
 29 30  2  0  0  0  0
 30 31  1  0  0  0  0
 31 32  2  0  0  0  0
  9  5  2  0  0  0  0
 22 10  1  0  0  0  0
 32 23  1  0  0  0  0
 32  7  1  0  0  0  0
 16 11  1  0  0  0  0
 22 17  1  0  0  0  0
 31 26  1  0  0  0  0
  6 33  1  0  0  0  0
 12 34  1  0  0  0  0
 13 35  1  0  0  0  0
 14 36  1  0  0  0  0
 15 37  1  0  0  0  0
 18 38  1  0  0  0  0
 19 39  1  0  0  0  0
 20 40  1  0  0  0  0
 21 41  1  0  0  0  0
 24 42  1  0  0  0  0
 25 43  1  0  0  0  0
 27 44  1  0  0  0  0
 28 45  1  0  0  0  0
 29 46  1  0  0  0  0
 30 47  1  0  0  0  0
M  CHG  1  10  -1
M  CHG  1  23   1
M  END
