
  xtb     03022215153D
 energy: -41.397738278943 gnorm: 0.000152801662 xtb: 6.4.1 (afa7bdf)
 24 26  0     0  0            999 V2000
   -6.2912   -0.4141   -0.1994 N   0  0  0  0  0  0  0  0  0  0  0  0
   -5.1470   -0.3437   -0.1629 C   0  0  0  0  0  0  0  0  0  0  0  0
   -3.7378   -0.2605   -0.1179 C   0  0  0  0  0  0  0  0  0  0  0  0
   -3.0985    0.9576   -0.3598 C   0  0  0  0  0  0  0  0  0  0  0  0
   -1.7238    1.0294   -0.3137 C   0  0  0  0  0  0  0  0  0  0  0  0
   -0.9604   -0.1046   -0.0273 C   0  0  0  0  0  0  0  0  0  0  0  0
    0.4872    0.0052    0.0139 C   0  0  0  0  0  0  0  0  0  0  0  0
    1.4251   -0.9850    0.2765 C   0  0  0  0  0  0  0  0  0  0  0  0
    2.6319   -0.3631    0.1930 N   0  0  0  0  0  0  0  0  0  0  0  0
    3.9655   -0.5375    0.2923 C   0  0  0  0  0  0  0  0  0  0  0  0
    4.5461    0.6957    0.0445 C   0  0  0  0  0  0  0  0  0  0  0  0
    3.5338    1.6110   -0.2049 C   0  0  0  0  0  0  0  0  0  0  0  0
    2.3768    0.9348   -0.1071 N   0  0  0  0  0  4  0  0  0  0  0  0
    1.0991    1.1866   -0.2210 N   0  0  0  0  0  2  0  0  0  0  0  0
   -1.6067   -1.3181    0.2131 C   0  0  0  0  0  0  0  0  0  0  0  0
   -2.9821   -1.3988    0.1691 C   0  0  0  0  0  0  0  0  0  0  0  0
   -3.6891    1.8344   -0.5812 H   0  0  0  0  0  0  0  0  0  0  0  0
   -1.2095    1.9593   -0.4971 H   0  0  0  0  0  0  0  0  0  0  0  0
    1.3290   -2.0233    0.5030 H   0  0  0  0  0  0  0  0  0  0  0  0
    4.4041   -1.4847    0.5228 H   0  0  0  0  0  0  0  0  0  0  0  0
    5.5960    0.9062    0.0454 H   0  0  0  0  0  0  0  0  0  0  0  0
    3.5648    2.6531   -0.4351 H   0  0  0  0  0  0  0  0  0  0  0  0
   -1.0299   -2.2023    0.4356 H   0  0  0  0  0  0  0  0  0  0  0  0
   -3.4833   -2.3375    0.3550 H   0  0  0  0  0  0  0  0  0  0  0  0
  1  2  3  0  0  0  0
  2  3  1  0  0  0  0
  3  4  2  0  0  0  0
  4  5  1  0  0  0  0
  5  6  2  0  0  0  0
  6  7  1  0  0  0  0
  7  8  2  0  0  0  0
  8  9  1  0  0  0  0
  9 10  1  0  0  0  0
 10 11  2  0  0  0  0
 11 12  1  0  0  0  0
 12 13  2  0  0  0  0
 13 14  1  0  0  0  0
  6 15  1  0  0  0  0
 15 16  2  0  0  0  0
 16  3  1  0  0  0  0
 14  7  1  0  0  0  0
 13  9  1  0  0  0  0
  4 17  1  0  0  0  0
  5 18  1  0  0  0  0
  8 19  1  0  0  0  0
 10 20  1  0  0  0  0
 11 21  1  0  0  0  0
 12 22  1  0  0  0  0
 15 23  1  0  0  0  0
 16 24  1  0  0  0  0
M  CHG  1  13   1
M  CHG  1  14  -1
M  END
