
  xtb     03022212363D
 energy: -142.383503183191 gnorm: 0.000194428878 xtb: 6.4.1 (afa7bdf)
101105  0     0  0            999 V2000
   -8.6142   -0.4478   -0.0850 C   0  0  0  0  0  0  0  0  0  0  0  0
   -8.5779   -1.7842    0.6445 C   0  0  0  0  0  0  0  0  0  0  0  0
   -7.6023   -1.7798    1.8312 C   0  0  0  0  0  0  0  0  0  0  0  0
   -6.1904   -1.6231    1.3797 C   0  0  0  0  0  0  0  0  0  0  0  0
   -5.3869   -2.6016    0.8804 C   0  0  0  0  0  0  0  0  0  0  0  0
   -4.1354   -1.9797    0.5453 C   0  0  0  0  0  0  0  0  0  0  0  0
   -4.1806   -0.6684    0.8317 N   0  0  0  0  0  0  0  0  0  0  0  0
   -5.3994   -0.3983    1.3386 C   0  0  0  0  0  0  0  0  0  0  0  0
   -5.8460    0.8584    1.7650 C   0  0  0  0  0  0  0  0  0  0  0  0
   -5.2178    2.0881    1.7920 C   0  0  0  0  0  0  0  0  0  0  0  0
   -3.9237    2.4511    1.4071 C   0  0  0  0  0  0  0  0  0  0  0  0
   -2.9983    1.6085    0.8852 N   0  0  0  0  0  0  0  0  0  0  0  0
   -1.8481    2.2720    0.6321 C   0  0  0  0  0  0  0  0  0  0  0  0
   -2.0454    3.6265    1.0116 C   0  0  0  0  0  0  0  0  0  0  0  0
   -3.3255    3.7515    1.4870 C   0  0  0  0  0  0  0  0  0  0  0  0
   -3.9613    4.9825    2.0356 C   0  0  0  0  0  0  0  0  0  0  0  0
   -3.9002    4.9997    3.5690 C   0  0  0  0  0  0  0  0  0  0  0  0
   -4.5548    6.2499    4.1415 C   0  0  0  0  0  0  0  0  0  0  0  0
   -0.6970    1.6762    0.0931 C   0  0  0  0  0  0  0  0  0  0  0  0
   -0.6296    0.3785   -0.2507 N   0  0  0  0  0  0  0  0  0  0  0  0
    0.6156    0.1405   -0.7186 C   0  0  0  0  0  0  0  0  0  0  0  0
    1.0271   -1.1326   -1.1651 C   0  0  0  0  0  0  0  0  0  0  0  0
    2.3343   -1.1765   -1.6743 O   0  0  0  0  0  0  0  0  0  0  0  0
    3.2207   -2.0628   -1.2018 C   0  0  0  0  0  0  0  0  0  0  0  0
    3.0088   -2.8434   -0.3126 O   0  0  0  0  0  0  0  0  0  0  0  0
    4.5329   -1.9238   -1.9412 C   0  0  0  0  0  0  0  0  0  0  0  0
    5.7181   -2.2704   -1.0413 C   0  0  0  0  0  0  0  0  0  0  0  0
    7.0504   -1.8617   -1.6828 C   0  0  0  0  0  0  0  0  0  0  0  0
    7.1265   -0.3482   -1.7356 C   0  0  0  0  0  0  0  0  0  0  0  0
    6.6216    0.3199   -2.6032 O   0  0  0  0  0  0  0  0  0  0  0  0
    7.7784    0.1132   -0.6776 O   0  0  0  0  0  0  0  0  0  0  0  0
    7.9132    1.5373   -0.4267 C   0  0  0  0  0  0  0  0  0  0  0  0
    6.5321    2.1708   -0.2642 C   0  0  0  0  0  0  0  0  0  0  0  0
    8.6949    2.2001   -1.5598 C   0  0  0  0  0  0  0  0  0  0  0  0
    8.6967    1.6114    0.8837 C   0  0  0  0  0  0  0  0  0  0  0  0
    0.3495   -2.3384   -1.2273 C   0  0  0  0  0  0  0  0  0  0  0  0
   -0.9291   -2.7099   -0.8150 C   0  0  0  0  0  0  0  0  0  0  0  0
   -1.8622   -1.8847   -0.2857 N   0  0  0  0  0  0  0  0  0  0  0  0
   -2.9923   -2.5761   -0.0037 C   0  0  0  0  0  0  0  0  0  0  0  0
   -2.7671   -3.9296   -0.3685 C   0  0  0  0  0  0  0  0  0  0  0  0
   -1.4962   -4.0259   -0.8747 C   0  0  0  0  0  0  0  0  0  0  0  0
   -0.7981   -5.2571   -1.3394 C   0  0  0  0  0  0  0  0  0  0  0  0
    0.2247   -5.7555   -0.3061 C   0  0  0  0  0  0  0  0  0  0  0  0
   -0.4470   -6.1930    0.9885 C   0  0  0  0  0  0  0  0  0  0  0  0
    1.3965    1.3712   -0.6739 C   0  0  0  0  0  0  0  0  0  0  0  0
    2.7973    1.6455   -1.1084 C   0  0  0  0  0  0  0  0  0  0  0  0
    2.8386    2.3028   -2.4964 C   0  0  0  0  0  0  0  0  0  0  0  0
    2.2318    1.4235   -3.5811 C   0  0  0  0  0  0  0  0  0  0  0  0
    0.5579    2.3168   -0.1644 C   0  0  0  0  0  0  0  0  0  0  0  0
   -7.6262   -0.1890   -0.4592 H   0  0  0  0  0  0  0  0  0  0  0  0
   -8.9480    0.3449    0.5816 H   0  0  0  0  0  0  0  0  0  0  0  0
   -9.3001   -0.4950   -0.9280 H   0  0  0  0  0  0  0  0  0  0  0  0
   -8.2790   -2.5694   -0.0532 H   0  0  0  0  0  0  0  0  0  0  0  0
   -9.5783   -2.0247    1.0122 H   0  0  0  0  0  0  0  0  0  0  0  0
   -7.8782   -0.9817    2.5231 H   0  0  0  0  0  0  0  0  0  0  0  0
   -7.6975   -2.7311    2.3614 H   0  0  0  0  0  0  0  0  0  0  0  0
   -5.6178   -3.6420    0.7570 H   0  0  0  0  0  0  0  0  0  0  0  0
   -6.8628    0.8614    2.1369 H   0  0  0  0  0  0  0  0  0  0  0  0
   -5.8135    2.9059    2.1774 H   0  0  0  0  0  0  0  0  0  0  0  0
   -3.2416    0.5921    0.7513 H   0  0  0  0  0  0  0  0  0  0  0  0
   -1.3146    4.4070    0.9280 H   0  0  0  0  0  0  0  0  0  0  0  0
   -5.0046    5.0415    1.7166 H   0  0  0  0  0  0  0  0  0  0  0  0
   -3.4394    5.8603    1.6488 H   0  0  0  0  0  0  0  0  0  0  0  0
   -2.8549    4.9554    3.8819 H   0  0  0  0  0  0  0  0  0  0  0  0
   -4.3991    4.1103    3.9596 H   0  0  0  0  0  0  0  0  0  0  0  0
   -4.0566    7.1447    3.7743 H   0  0  0  0  0  0  0  0  0  0  0  0
   -5.6027    6.3002    3.8529 H   0  0  0  0  0  0  0  0  0  0  0  0
   -4.4981    6.2471    5.2275 H   0  0  0  0  0  0  0  0  0  0  0  0
    4.5036   -2.6015   -2.7986 H   0  0  0  0  0  0  0  0  0  0  0  0
    4.6218   -0.9086   -2.3301 H   0  0  0  0  0  0  0  0  0  0  0  0
    5.6092   -1.7592   -0.0823 H   0  0  0  0  0  0  0  0  0  0  0  0
    5.7212   -3.3424   -0.8404 H   0  0  0  0  0  0  0  0  0  0  0  0
    7.1115   -2.2568   -2.6969 H   0  0  0  0  0  0  0  0  0  0  0  0
    7.8792   -2.2381   -1.0850 H   0  0  0  0  0  0  0  0  0  0  0  0
    6.6398    3.2119    0.0268 H   0  0  0  0  0  0  0  0  0  0  0  0
    5.9809    2.1225   -1.1991 H   0  0  0  0  0  0  0  0  0  0  0  0
    5.9680    1.6465    0.5046 H   0  0  0  0  0  0  0  0  0  0  0  0
    8.8701    3.2449   -1.3194 H   0  0  0  0  0  0  0  0  0  0  0  0
    8.1371    2.1411   -2.4902 H   0  0  0  0  0  0  0  0  0  0  0  0
    9.6536    1.7032   -1.6927 H   0  0  0  0  0  0  0  0  0  0  0  0
    8.8576    2.6484    1.1628 H   0  0  0  0  0  0  0  0  0  0  0  0
    8.1462    1.1115    1.6763 H   0  0  0  0  0  0  0  0  0  0  0  0
    9.6596    1.1207    0.7703 H   0  0  0  0  0  0  0  0  0  0  0  0
    0.9239   -3.1474   -1.6591 H   0  0  0  0  0  0  0  0  0  0  0  0
   -1.6271   -0.8701   -0.1584 H   0  0  0  0  0  0  0  0  0  0  0  0
   -3.4775   -4.7260   -0.2615 H   0  0  0  0  0  0  0  0  0  0  0  0
   -1.5368   -6.0416   -1.5173 H   0  0  0  0  0  0  0  0  0  0  0  0
   -0.2840   -5.0561   -2.2827 H   0  0  0  0  0  0  0  0  0  0  0  0
    0.9437   -4.9635   -0.0902 H   0  0  0  0  0  0  0  0  0  0  0  0
    0.7708   -6.5990   -0.7347 H   0  0  0  0  0  0  0  0  0  0  0  0
   -1.1552   -6.9978    0.8004 H   0  0  0  0  0  0  0  0  0  0  0  0
   -0.9835   -5.3611    1.4389 H   0  0  0  0  0  0  0  0  0  0  0  0
    0.2958   -6.5477    1.6989 H   0  0  0  0  0  0  0  0  0  0  0  0
    3.2489    2.3362   -0.3898 H   0  0  0  0  0  0  0  0  0  0  0  0
    3.3933    0.7366   -1.1229 H   0  0  0  0  0  0  0  0  0  0  0  0
    2.2969    3.2508   -2.4541 H   0  0  0  0  0  0  0  0  0  0  0  0
    3.8792    2.5197   -2.7481 H   0  0  0  0  0  0  0  0  0  0  0  0
    2.7651    0.4791   -3.6491 H   0  0  0  0  0  0  0  0  0  0  0  0
    1.1875    1.2115   -3.3621 H   0  0  0  0  0  0  0  0  0  0  0  0
    2.2878    1.9226   -4.5463 H   0  0  0  0  0  0  0  0  0  0  0  0
    0.7836    3.3484    0.0232 H   0  0  0  0  0  0  0  0  0  0  0  0
  1  2  1  0  0  0  0
  2  3  1  0  0  0  0
  3  4  1  0  0  0  0
  4  5  2  0  0  0  0
  5  6  1  0  0  0  0
  6  7  2  0  0  0  0
  7  8  1  0  0  0  0
  8  9  2  0  0  0  0
  9 10  1  0  0  0  0
 10 11  2  0  0  0  0
 11 12  1  0  0  0  0
 12 13  1  0  0  0  0
 13 14  1  0  0  0  0
 14 15  2  0  0  0  0
 15 16  1  0  0  0  0
 16 17  1  0  0  0  0
 17 18  1  0  0  0  0
 13 19  2  0  0  0  0
 19 20  1  0  0  0  0
 20 21  2  0  0  0  0
 21 22  1  0  0  0  0
 22 23  1  0  0  0  0
 23 24  1  0  0  0  0
 24 25  2  0  0  0  0
 24 26  1  0  0  0  0
 26 27  1  0  0  0  0
 27 28  1  0  0  0  0
 28 29  1  0  0  0  0
 29 30  2  0  0  0  0
 29 31  1  0  0  0  0
 31 32  1  0  0  0  0
 32 33  1  0  0  0  0
 32 34  1  0  0  0  0
 32 35  1  0  0  0  0
 22 36  2  0  0  0  0
 36 37  1  0  0  0  0
 37 38  1  0  0  0  0
 38 39  1  0  0  0  0
 39 40  2  0  0  0  0
 40 41  1  0  0  0  0
 41 42  1  0  0  0  0
 42 43  1  0  0  0  0
 43 44  1  0  0  0  0
 21 45  1  0  0  0  0
 45 46  1  0  0  0  0
 46 47  1  0  0  0  0
 47 48  1  0  0  0  0
 45 49  2  0  0  0  0
  8  4  1  0  0  0  0
 15 11  1  0  0  0  0
 49 19  1  0  0  0  0
 39  6  1  0  0  0  0
 41 37  2  0  0  0  0
  1 50  1  0  0  0  0
  1 51  1  0  0  0  0
  1 52  1  0  0  0  0
  2 53  1  0  0  0  0
  2 54  1  0  0  0  0
  3 55  1  0  0  0  0
  3 56  1  0  0  0  0
  5 57  1  0  0  0  0
  9 58  1  0  0  0  0
 10 59  1  0  0  0  0
 12 60  1  0  0  0  0
 14 61  1  0  0  0  0
 16 62  1  0  0  0  0
 16 63  1  0  0  0  0
 17 64  1  0  0  0  0
 17 65  1  0  0  0  0
 18 66  1  0  0  0  0
 18 67  1  0  0  0  0
 18 68  1  0  0  0  0
 26 69  1  0  0  0  0
 26 70  1  0  0  0  0
 27 71  1  0  0  0  0
 27 72  1  0  0  0  0
 28 73  1  0  0  0  0
 28 74  1  0  0  0  0
 33 75  1  0  0  0  0
 33 76  1  0  0  0  0
 33 77  1  0  0  0  0
 34 78  1  0  0  0  0
 34 79  1  0  0  0  0
 34 80  1  0  0  0  0
 35 81  1  0  0  0  0
 35 82  1  0  0  0  0
 35 83  1  0  0  0  0
 36 84  1  0  0  0  0
 38 85  1  0  0  0  0
 40 86  1  0  0  0  0
 42 87  1  0  0  0  0
 42 88  1  0  0  0  0
 43 89  1  0  0  0  0
 43 90  1  0  0  0  0
 44 91  1  0  0  0  0
 44 92  1  0  0  0  0
 44 93  1  0  0  0  0
 46 94  1  0  0  0  0
 46 95  1  0  0  0  0
 47 96  1  0  0  0  0
 47 97  1  0  0  0  0
 48 98  1  0  0  0  0
 48 99  1  0  0  0  0
 48100  1  0  0  0  0
 49101  1  0  0  0  0
M  END
