
  xtb     03022213223D
 energy: -102.394155064946 gnorm: 0.000055933222 xtb: 6.4.1 (afa7bdf)
 46 49  0     0  0            999 V2000
    7.1454   -0.8817    0.2625 C   0  0  0  0  0  0  0  0  0  0  0  0
    6.3979    0.3384    0.0734 N   0  0  0  0  0  0  0  0  0  0  0  0
    7.1283    1.5703   -0.1090 C   0  0  0  0  0  0  0  0  0  0  0  0
    5.0420    0.3288    0.0676 C   0  0  0  0  0  0  0  0  0  0  0  0
    4.3149   -0.8797    0.1417 C   0  0  0  0  0  0  0  0  0  0  0  0
    2.9452   -0.8867    0.1344 C   0  0  0  0  0  0  0  0  0  0  0  0
    2.2190    0.3100    0.0549 C   0  0  0  0  0  0  0  0  0  0  0  0
    0.7779    0.3110    0.0480 C   0  0  0  0  0  0  0  0  0  0  0  0
    0.1651   -0.8670    0.1233 N   0  0  0  0  0  0  0  0  0  0  0  0
   -1.1533   -0.9386    0.1230 C   0  0  0  0  0  0  0  0  0  0  0  0
   -1.7363   -2.2440    0.2028 C   0  0  0  0  0  0  0  0  0  0  0  0
   -3.0777   -2.4092    0.2097 C   0  0  0  0  0  0  0  0  0  0  0  0
   -3.9209   -1.2628    0.1366 C   0  0  0  0  0  0  0  0  0  0  0  0
   -5.3256   -1.2900    0.1353 C   0  0  0  0  0  0  0  0  0  0  0  0
   -6.0520   -2.6104    0.2158 C   0  0  0  0  0  0  0  0  0  0  0  0
   -5.7440   -3.4230   -0.8103 F   0  0  0  0  0  0  0  0  0  0  0  0
   -5.7484   -3.2897    1.3358 F   0  0  0  0  0  0  0  0  0  0  0  0
   -7.3791   -2.4714    0.2045 F   0  0  0  0  0  0  0  0  0  0  0  0
   -6.0484   -0.1147    0.0606 C   0  0  0  0  0  0  0  0  0  0  0  0
   -5.3219    1.0778   -0.0117 C   0  0  0  0  0  0  0  0  0  0  0  0
   -6.0340    2.4141   -0.0972 C   0  0  0  0  0  0  0  0  0  0  0  0
   -5.7483    3.0671   -1.2246 F   0  0  0  0  0  0  0  0  0  0  0  0
   -5.7304    3.2154    0.9244 F   0  0  0  0  0  0  0  0  0  0  0  0
   -7.3717    2.2641   -0.0759 F   0  0  0  0  0  0  0  0  0  0  0  0
   -4.0158    1.1420   -0.0131 N   0  0  0  0  0  0  0  0  0  0  0  0
   -3.3047    0.0208    0.0579 C   0  0  0  0  0  0  0  0  0  0  0  0
   -1.9588    0.1436    0.0528 N   0  0  0  0  0  4  0  0  0  0  0  0
   -1.2981    1.6050   -0.0411 B   0  0  0  0  0  4  0  0  0  0  0  0
   -1.6733    2.1757   -1.2176 F   0  0  0  0  0  0  0  0  0  0  0  0
   -1.6722    2.3211    1.0536 F   0  0  0  0  0  0  0  0  0  0  0  0
    0.1757    1.4477   -0.0316 O   0  0  0  0  0  0  0  0  0  0  0  0
    2.9321    1.5159   -0.0177 C   0  0  0  0  0  0  0  0  0  0  0  0
    4.3012    1.5280   -0.0128 C   0  0  0  0  0  0  0  0  0  0  0  0
    6.8128   -1.4049    1.1618 H   0  0  0  0  0  0  0  0  0  0  0  0
    8.2000   -0.6469    0.3813 H   0  0  0  0  0  0  0  0  0  0  0  0
    7.0374   -1.5528   -0.5951 H   0  0  0  0  0  0  0  0  0  0  0  0
    7.0013    2.2397    0.7471 H   0  0  0  0  0  0  0  0  0  0  0  0
    6.7961    2.0880   -1.0116 H   0  0  0  0  0  0  0  0  0  0  0  0
    8.1875    1.3521   -0.2175 H   0  0  0  0  0  0  0  0  0  0  0  0
    4.8357   -1.8211    0.1944 H   0  0  0  0  0  0  0  0  0  0  0  0
    2.3993   -1.8145    0.1866 H   0  0  0  0  0  0  0  0  0  0  0  0
   -1.0512   -3.0735    0.2563 H   0  0  0  0  0  0  0  0  0  0  0  0
   -3.5094   -3.3959    0.2700 H   0  0  0  0  0  0  0  0  0  0  0  0
   -7.1264   -0.1137    0.0583 H   0  0  0  0  0  0  0  0  0  0  0  0
    2.3778    2.4396   -0.0748 H   0  0  0  0  0  0  0  0  0  0  0  0
    4.8086    2.4766   -0.0606 H   0  0  0  0  0  0  0  0  0  0  0  0
  1  2  1  0  0  0  0
  2  3  1  0  0  0  0
  2  4  1  0  0  0  0
  4  5  2  0  0  0  0
  5  6  1  0  0  0  0
  6  7  2  0  0  0  0
  7  8  1  0  0  0  0
  8  9  2  0  0  0  0
  9 10  1  0  0  0  0
 10 11  2  0  0  0  0
 11 12  1  0  0  0  0
 12 13  2  0  0  0  0
 13 14  1  0  0  0  0
 14 15  1  0  0  0  0
 15 16  1  0  0  0  0
 15 17  1  0  0  0  0
 15 18  1  0  0  0  0
 14 19  2  0  0  0  0
 19 20  1  0  0  0  0
 20 21  1  0  0  0  0
 21 22  1  0  0  0  0
 21 23  1  0  0  0  0
 21 24  1  0  0  0  0
 20 25  2  0  0  0  0
 25 26  1  0  0  0  0
 26 27  2  0  0  0  0
 27 28  1  0  0  0  0
 28 29  1  0  0  0  0
 28 30  1  0  0  0  0
 28 31  1  0  0  0  0
  7 32  1  0  0  0  0
 32 33  2  0  0  0  0
 33  4  1  0  0  0  0
 31  8  1  0  0  0  0
 27 10  1  0  0  0  0
 26 13  1  0  0  0  0
  1 34  1  0  0  0  0
  1 35  1  0  0  0  0
  1 36  1  0  0  0  0
  3 37  1  0  0  0  0
  3 38  1  0  0  0  0
  3 39  1  0  0  0  0
  5 40  1  0  0  0  0
  6 41  1  0  0  0  0
 11 42  1  0  0  0  0
 12 43  1  0  0  0  0
 19 44  1  0  0  0  0
 32 45  1  0  0  0  0
 33 46  1  0  0  0  0
M  CHG  1  27   1
M  CHG  1  28  -1
M  END
