
  xtb     03022212323D
 energy: -109.444950914160 gnorm: 0.000100636748 xtb: 6.4.1 (afa7bdf)
 74 81  0     0  0            999 V2000
   -6.6077   -2.5708   -1.1243 C   0  0  0  0  0  0  0  0  0  0  0  0
   -7.6568   -2.3476   -0.3217 C   0  0  0  0  0  0  0  0  0  0  0  0
   -8.1552   -1.0721    0.1590 C   0  0  0  0  0  0  0  0  0  0  0  0
   -9.5266   -0.9523    0.4008 C   0  0  0  0  0  0  0  0  0  0  0  0
  -10.0781    0.2303    0.8467 C   0  0  0  0  0  0  0  0  0  0  0  0
   -9.2600    1.3248    1.0824 C   0  0  0  0  0  0  0  0  0  0  0  0
   -7.8984    1.2166    0.8777 C   0  0  0  0  0  0  0  0  0  0  0  0
   -7.3305    0.0302    0.4227 C   0  0  0  0  0  0  0  0  0  0  0  0
   -5.8676   -0.0533    0.2773 C   0  0  0  0  0  0  0  0  0  0  0  0
   -5.0639    0.2835    1.2961 C   0  0  0  0  0  0  0  0  0  0  0  0
   -3.6078    0.2356    1.3075 C   0  0  0  0  0  0  0  0  0  0  0  0
   -2.8832   -0.7471    0.6319 C   0  0  0  0  0  0  0  0  0  0  0  0
   -1.5053   -0.7591    0.6690 C   0  0  0  0  0  0  0  0  0  0  0  0
   -0.7955    0.2054    1.3841 C   0  0  0  0  0  0  0  0  0  0  0  0
    0.6710    0.1887    1.4191 C   0  0  0  0  0  0  0  0  0  0  0  0
    1.4121   -0.1419    0.2848 C   0  0  0  0  0  0  0  0  0  0  0  0
    2.7904   -0.1582    0.3133 C   0  0  0  0  0  0  0  0  0  0  0  0
    3.4851    0.1544    1.4828 C   0  0  0  0  0  0  0  0  0  0  0  0
    4.9377    0.1375    1.5733 C   0  0  0  0  0  0  0  0  0  0  0  0
    5.8208    0.3957    0.5980 C   0  0  0  0  0  0  0  0  0  0  0  0
    7.2664    0.3100    0.8681 C   0  0  0  0  0  0  0  0  0  0  0  0
    7.7987    1.0209    1.9396 C   0  0  0  0  0  0  0  0  0  0  0  0
    9.1379    0.9268    2.2641 C   0  0  0  0  0  0  0  0  0  0  0  0
    9.9668    0.0988    1.5225 C   0  0  0  0  0  0  0  0  0  0  0  0
    9.4498   -0.6149    0.4617 C   0  0  0  0  0  0  0  0  0  0  0  0
    8.1042   -0.5090    0.0990 C   0  0  0  0  0  0  0  0  0  0  0  0
    7.6393   -1.2816   -1.0384 C   0  0  0  0  0  0  0  0  0  0  0  0
    6.6667   -0.9629   -1.9027 C   0  0  0  0  0  0  0  0  0  0  0  0
    5.8485    0.2355   -1.9064 C   0  0  0  0  0  0  0  0  0  0  0  0
    5.4107    0.7362   -3.1359 C   0  0  0  0  0  0  0  0  0  0  0  0
    4.6543    1.8864   -3.2131 C   0  0  0  0  0  0  0  0  0  0  0  0
    4.3035    2.5598   -2.0519 C   0  0  0  0  0  0  0  0  0  0  0  0
    4.6991    2.0629   -0.8265 C   0  0  0  0  0  0  0  0  0  0  0  0
    5.4568    0.8978   -0.7358 C   0  0  0  0  0  0  0  0  0  0  0  0
    2.7408    0.4562    2.6253 C   0  0  0  0  0  0  0  0  0  0  0  0
    1.3630    0.4854    2.5925 C   0  0  0  0  0  0  0  0  0  0  0  0
   -1.5192    1.1744    2.0775 C   0  0  0  0  0  0  0  0  0  0  0  0
   -2.8978    1.1832    2.0463 C   0  0  0  0  0  0  0  0  0  0  0  0
   -5.3736   -0.3884   -1.0673 C   0  0  0  0  0  0  0  0  0  0  0  0
   -4.5315    0.5165   -1.7093 C   0  0  0  0  0  0  0  0  0  0  0  0
   -4.0045    0.2383   -2.9541 C   0  0  0  0  0  0  0  0  0  0  0  0
   -4.3076   -0.9642   -3.5759 C   0  0  0  0  0  0  0  0  0  0  0  0
   -5.1469   -1.8640   -2.9541 C   0  0  0  0  0  0  0  0  0  0  0  0
   -5.7150   -1.5869   -1.7071 C   0  0  0  0  0  0  0  0  0  0  0  0
   -6.4375   -3.5872   -1.4600 H   0  0  0  0  0  0  0  0  0  0  0  0
   -8.2740   -3.1973   -0.0539 H   0  0  0  0  0  0  0  0  0  0  0  0
  -10.1641   -1.8058    0.2162 H   0  0  0  0  0  0  0  0  0  0  0  0
  -11.1426    0.3014    1.0148 H   0  0  0  0  0  0  0  0  0  0  0  0
   -9.6826    2.2542    1.4347 H   0  0  0  0  0  0  0  0  0  0  0  0
   -7.2540    2.0630    1.0673 H   0  0  0  0  0  0  0  0  0  0  0  0
   -5.5224    0.6202    2.2189 H   0  0  0  0  0  0  0  0  0  0  0  0
   -3.4091   -1.5210    0.0937 H   0  0  0  0  0  0  0  0  0  0  0  0
   -0.9673   -1.5441    0.1577 H   0  0  0  0  0  0  0  0  0  0  0  0
    0.8976   -0.3733   -0.6367 H   0  0  0  0  0  0  0  0  0  0  0  0
    3.3372   -0.4354   -0.5747 H   0  0  0  0  0  0  0  0  0  0  0  0
    5.3295   -0.1275    2.5490 H   0  0  0  0  0  0  0  0  0  0  0  0
    7.1446    1.6569    2.5188 H   0  0  0  0  0  0  0  0  0  0  0  0
    9.5337    1.4871    3.0983 H   0  0  0  0  0  0  0  0  0  0  0  0
   11.0128    0.0094    1.7760 H   0  0  0  0  0  0  0  0  0  0  0  0
   10.0958   -1.2601   -0.1172 H   0  0  0  0  0  0  0  0  0  0  0  0
    8.2189   -2.1749   -1.2394 H   0  0  0  0  0  0  0  0  0  0  0  0
    6.5148   -1.6152   -2.7548 H   0  0  0  0  0  0  0  0  0  0  0  0
    5.6917    0.2147   -4.0404 H   0  0  0  0  0  0  0  0  0  0  0  0
    4.3362    2.2606   -4.1750 H   0  0  0  0  0  0  0  0  0  0  0  0
    3.7134    3.4626   -2.1043 H   0  0  0  0  0  0  0  0  0  0  0  0
    4.4131    2.5704    0.0833 H   0  0  0  0  0  0  0  0  0  0  0  0
    3.2582    0.6797    3.5483 H   0  0  0  0  0  0  0  0  0  0  0  0
    0.8118    0.7125    3.4937 H   0  0  0  0  0  0  0  0  0  0  0  0
   -0.9928    1.9384    2.6314 H   0  0  0  0  0  0  0  0  0  0  0  0
   -3.4408    1.9464    2.5868 H   0  0  0  0  0  0  0  0  0  0  0  0
   -4.2856    1.4430   -1.2111 H   0  0  0  0  0  0  0  0  0  0  0  0
   -3.3497    0.9497   -3.4350 H   0  0  0  0  0  0  0  0  0  0  0  0
   -3.8875   -1.1963   -4.5436 H   0  0  0  0  0  0  0  0  0  0  0  0
   -5.3903   -2.7981   -3.4411 H   0  0  0  0  0  0  0  0  0  0  0  0
  1  2  2  0  0  0  0
  2  3  1  0  0  0  0
  3  4  2  0  0  0  0
  4  5  1  0  0  0  0
  5  6  2  0  0  0  0
  6  7  1  0  0  0  0
  7  8  2  0  0  0  0
  8  9  1  0  0  0  0
  9 10  2  0  0  0  0
 10 11  1  0  0  0  0
 11 12  2  0  0  0  0
 12 13  1  0  0  0  0
 13 14  2  0  0  0  0
 14 15  1  0  0  0  0
 15 16  2  0  0  0  0
 16 17  1  0  0  0  0
 17 18  2  0  0  0  0
 18 19  1  0  0  0  0
 19 20  2  0  0  0  0
 20 21  1  0  0  0  0
 21 22  2  0  0  0  0
 22 23  1  0  0  0  0
 23 24  2  0  0  0  0
 24 25  1  0  0  0  0
 25 26  2  0  0  0  0
 26 27  1  0  0  0  0
 27 28  2  0  0  0  0
 28 29  1  0  0  0  0
 29 30  2  0  0  0  0
 30 31  1  0  0  0  0
 31 32  2  0  0  0  0
 32 33  1  0  0  0  0
 33 34  2  0  0  0  0
 18 35  1  0  0  0  0
 35 36  2  0  0  0  0
 14 37  1  0  0  0  0
 37 38  2  0  0  0  0
  9 39  1  0  0  0  0
 39 40  2  0  0  0  0
 40 41  1  0  0  0  0
 41 42  2  0  0  0  0
 42 43  1  0  0  0  0
 43 44  2  0  0  0  0
 44  1  1  0  0  0  0
  8  3  1  0  0  0  0
 38 11  1  0  0  0  0
 44 39  1  0  0  0  0
 36 15  1  0  0  0  0
 34 20  1  0  0  0  0
 26 21  1  0  0  0  0
 34 29  1  0  0  0  0
  1 45  1  0  0  0  0
  2 46  1  0  0  0  0
  4 47  1  0  0  0  0
  5 48  1  0  0  0  0
  6 49  1  0  0  0  0
  7 50  1  0  0  0  0
 10 51  1  0  0  0  0
 12 52  1  0  0  0  0
 13 53  1  0  0  0  0
 16 54  1  0  0  0  0
 17 55  1  0  0  0  0
 19 56  1  0  0  0  0
 22 57  1  0  0  0  0
 23 58  1  0  0  0  0
 24 59  1  0  0  0  0
 25 60  1  0  0  0  0
 27 61  1  0  0  0  0
 28 62  1  0  0  0  0
 30 63  1  0  0  0  0
 31 64  1  0  0  0  0
 32 65  1  0  0  0  0
 33 66  1  0  0  0  0
 35 67  1  0  0  0  0
 36 68  1  0  0  0  0
 37 69  1  0  0  0  0
 38 70  1  0  0  0  0
 40 71  1  0  0  0  0
 41 72  1  0  0  0  0
 42 73  1  0  0  0  0
 43 74  1  0  0  0  0
M  END
