
  xtb     03022212403D
 energy: -41.748028426216 gnorm: 0.000135586928 xtb: 6.4.1 (afa7bdf)
 25 27  0     0  0            999 V2000
   -4.7566   -0.5785    1.5046 N   0  0  0  0  0  0  0  0  0  0  0  0
   -4.1189    0.2291    0.9883 C   0  0  0  0  0  0  0  0  0  0  0  0
   -3.3489    1.2019    0.3662 C   0  0  0  0  0  0  0  0  0  0  0  0
   -2.0519    1.2607   -0.0541 C   0  0  0  0  0  0  0  0  0  0  0  0
   -0.9657    0.3582   -0.0281 C   0  0  0  0  0  0  0  0  0  0  0  0
   -0.9411   -0.9276    0.4742 C   0  0  0  0  0  0  0  0  0  0  0  0
    0.2998   -1.5475    0.3407 C   0  0  0  0  0  0  0  0  0  0  0  0
    1.2505   -0.7512   -0.2655 C   0  0  0  0  0  0  0  0  0  0  0  0
    2.6094   -1.0791   -0.5508 C   0  0  0  0  0  0  0  0  0  0  0  0
    3.2682   -2.2565   -0.2881 C   0  0  0  0  0  0  0  0  0  0  0  0
    4.6107   -2.2409   -0.7033 C   0  0  0  0  0  0  0  0  0  0  0  0
    4.9711   -1.0618   -1.2773 C   0  0  0  0  0  0  0  0  0  0  0  0
    3.6746    0.0609   -1.3237 S   0  0  0  0  0  0  0  0  0  0  0  0
    0.5901    0.7991   -0.6782 S   0  0  0  0  0  0  0  0  0  0  0  0
   -2.1884    2.6674   -0.5710 C   0  0  0  0  0  0  0  0  0  0  0  0
   -3.6611    2.6055   -0.0958 C   0  0  0  0  0  0  0  0  0  0  0  0
   -1.8048   -1.3876    0.9205 H   0  0  0  0  0  0  0  0  0  0  0  0
    0.5031   -2.5481    0.6754 H   0  0  0  0  0  0  0  0  0  0  0  0
    2.8023   -3.1006    0.1860 H   0  0  0  0  0  0  0  0  0  0  0  0
    5.2818   -3.0720   -0.5807 H   0  0  0  0  0  0  0  0  0  0  0  0
    5.9241   -0.7800   -1.6785 H   0  0  0  0  0  0  0  0  0  0  0  0
   -2.0541    2.7731   -1.6463 H   0  0  0  0  0  0  0  0  0  0  0  0
   -1.5688    3.4029   -0.0606 H   0  0  0  0  0  0  0  0  0  0  0  0
   -3.9199    3.3017    0.7006 H   0  0  0  0  0  0  0  0  0  0  0  0
   -4.4058    2.6708   -0.8876 H   0  0  0  0  0  0  0  0  0  0  0  0
  1  2  3  0  0  0  0
  2  3  1  0  0  0  0
  3  4  2  0  0  0  0
  4  5  1  0  0  0  0
  5  6  2  0  0  0  0
  6  7  1  0  0  0  0
  7  8  2  0  0  0  0
  8  9  1  0  0  0  0
  9 10  2  0  0  0  0
 10 11  1  0  0  0  0
 11 12  2  0  0  0  0
 12 13  1  0  0  0  0
  8 14  1  0  0  0  0
  4 15  1  0  0  0  0
 15 16  1  0  0  0  0
 16  3  1  0  0  0  0
 14  5  1  0  0  0  0
 13  9  1  0  0  0  0
  6 17  1  0  0  0  0
  7 18  1  0  0  0  0
 10 19  1  0  0  0  0
 11 20  1  0  0  0  0
 12 21  1  0  0  0  0
 15 22  1  0  0  0  0
 15 23  1  0  0  0  0
 16 24  1  0  0  0  0
 16 25  1  0  0  0  0
M  END
