
  xtb     03022213233D
 energy: -60.262112077559 gnorm: 0.000388949709 xtb: 6.4.1 (afa7bdf)
 37 39  0     0  0            999 V2000
   -3.7192   -0.1734    2.6797 C   0  0  0  0  0  0  0  0  0  0  0  0
   -2.5741   -0.6687    1.9643 N   0  0  0  0  0  0  0  0  0  0  0  0
   -1.8634   -1.7606    2.5739 C   0  0  0  0  0  0  0  0  0  0  0  0
   -2.1705   -0.1259    0.8001 C   0  0  0  0  0  0  0  0  0  0  0  0
   -2.9073    0.9000    0.3294 N   0  0  0  0  0  0  0  0  0  0  0  0
   -2.5762    1.4842   -0.8097 C   0  0  0  0  0  0  0  0  0  0  0  0
   -3.3407    2.4871   -1.2796 N   0  0  0  0  0  0  0  0  0  0  0  0
   -1.4402    1.0205   -1.5072 C   0  0  0  0  0  0  0  0  0  0  0  0
   -0.8262    1.3891   -2.6608 N   0  0  0  0  0  0  0  0  0  0  0  0
    0.1972    0.5723   -2.7770 C   0  0  0  0  0  0  0  0  0  0  0  0
    1.1228    0.5820   -3.8277 C   0  0  0  0  0  0  0  0  0  0  0  0
    1.8935    0.5649   -4.6790 N   0  0  0  0  0  0  0  0  0  0  0  0
    0.2817   -0.3432   -1.7431 N   0  0  0  0  0  0  0  0  0  0  0  0
    1.3210   -1.3191   -1.5199 C   0  0  0  0  0  0  0  0  0  0  0  0
    2.4633   -0.6921   -0.7588 C   0  0  0  0  0  0  0  0  0  0  0  0
    3.6304   -0.3147   -1.4073 C   0  0  0  0  0  0  0  0  0  0  0  0
    4.6495    0.3006   -0.7004 C   0  0  0  0  0  0  0  0  0  0  0  0
    4.5046    0.5493    0.6535 C   0  0  0  0  0  0  0  0  0  0  0  0
    3.3364    0.1835    1.3019 C   0  0  0  0  0  0  0  0  0  0  0  0
    2.3183   -0.4345    0.5989 C   0  0  0  0  0  0  0  0  0  0  0  0
   -0.7524   -0.0570   -0.9128 C   0  0  0  0  0  0  0  0  0  0  0  0
   -1.0813   -0.6534    0.2259 N   0  0  0  0  0  0  0  0  0  0  0  0
   -4.4529   -0.9731    2.8145 H   0  0  0  0  0  0  0  0  0  0  0  0
   -4.1608    0.6356    2.1055 H   0  0  0  0  0  0  0  0  0  0  0  0
   -3.4200    0.1953    3.6652 H   0  0  0  0  0  0  0  0  0  0  0  0
   -2.5403   -2.6037    2.7376 H   0  0  0  0  0  0  0  0  0  0  0  0
   -1.4485   -1.4542    3.5390 H   0  0  0  0  0  0  0  0  0  0  0  0
   -1.0577   -2.0649    1.9118 H   0  0  0  0  0  0  0  0  0  0  0  0
   -3.0403    2.9777   -2.1019 H   0  0  0  0  0  0  0  0  0  0  0  0
   -4.0981    2.8339   -0.7200 H   0  0  0  0  0  0  0  0  0  0  0  0
    1.6611   -1.6965   -2.4886 H   0  0  0  0  0  0  0  0  0  0  0  0
    0.8755   -2.1319   -0.9392 H   0  0  0  0  0  0  0  0  0  0  0  0
    3.7407   -0.4985   -2.4664 H   0  0  0  0  0  0  0  0  0  0  0  0
    5.5562    0.5897   -1.2107 H   0  0  0  0  0  0  0  0  0  0  0  0
    5.2997    1.0312    1.2030 H   0  0  0  0  0  0  0  0  0  0  0  0
    3.2183    0.3812    2.3573 H   0  0  0  0  0  0  0  0  0  0  0  0
    1.3993   -0.7128    1.0942 H   0  0  0  0  0  0  0  0  0  0  0  0
  1  2  1  0  0  0  0
  2  3  1  0  0  0  0
  2  4  1  0  0  0  0
  4  5  2  0  0  0  0
  5  6  1  0  0  0  0
  6  7  1  0  0  0  0
  6  8  2  0  0  0  0
  8  9  1  0  0  0  0
  9 10  2  0  0  0  0
 10 11  1  0  0  0  0
 11 12  3  0  0  0  0
 10 13  1  0  0  0  0
 13 14  1  0  0  0  0
 14 15  1  0  0  0  0
 15 16  2  0  0  0  0
 16 17  1  0  0  0  0
 17 18  2  0  0  0  0
 18 19  1  0  0  0  0
 19 20  2  0  0  0  0
 13 21  1  0  0  0  0
 21 22  2  0  0  0  0
 22  4  1  0  0  0  0
 21  8  1  0  0  0  0
 20 15  1  0  0  0  0
  1 23  1  0  0  0  0
  1 24  1  0  0  0  0
  1 25  1  0  0  0  0
  3 26  1  0  0  0  0
  3 27  1  0  0  0  0
  3 28  1  0  0  0  0
  7 29  1  0  0  0  0
  7 30  1  0  0  0  0
 14 31  1  0  0  0  0
 14 32  1  0  0  0  0
 16 33  1  0  0  0  0
 17 34  1  0  0  0  0
 18 35  1  0  0  0  0
 19 36  1  0  0  0  0
 20 37  1  0  0  0  0
M  END
