
  xtb     03022215563D
 energy: -74.410580770081 gnorm: 0.000137933345 xtb: 6.4.1 (afa7bdf)
 44 49  0     0  0            999 V2000
    0.1533   -3.5262   -0.5386 O   0  0  0  0  0  0  0  0  0  0  0  0
   -0.4050   -2.4829   -0.2483 C   0  0  0  0  0  0  0  0  0  0  0  0
   -1.8431   -2.3900    0.0430 C   0  0  0  0  0  0  0  0  0  0  0  0
   -2.5614   -3.5603    0.2944 C   0  0  0  0  0  0  0  0  0  0  0  0
   -3.8793   -3.5093    0.6870 C   0  0  0  0  0  0  0  0  0  0  0  0
   -4.4851   -2.2718    0.8741 C   0  0  0  0  0  0  0  0  0  0  0  0
   -3.7993   -1.1046    0.6125 C   0  0  0  0  0  0  0  0  0  0  0  0
   -2.4817   -1.1453    0.1481 C   0  0  0  0  0  0  0  0  0  0  0  0
   -1.7762    0.0216   -0.1378 N   0  0  0  0  0  0  0  0  0  0  0  0
   -2.4009    1.2047   -0.5270 C   0  0  0  0  0  0  0  0  0  0  0  0
   -3.6316    1.1947   -1.1893 C   0  0  0  0  0  0  0  0  0  0  0  0
   -4.2405    2.3776   -1.5515 C   0  0  0  0  0  0  0  0  0  0  0  0
   -3.6413    3.6004   -1.2709 C   0  0  0  0  0  0  0  0  0  0  0  0
   -2.3990    3.6206   -0.6795 C   0  0  0  0  0  0  0  0  0  0  0  0
   -1.7564    2.4338   -0.3223 C   0  0  0  0  0  0  0  0  0  0  0  0
   -0.3787    2.4927    0.1877 C   0  0  0  0  0  0  0  0  0  0  0  0
    0.1530    3.5228    0.5625 O   0  0  0  0  0  0  0  0  0  0  0  0
    0.3193    1.1998    0.1291 C   0  0  0  0  0  0  0  0  0  0  0  0
    1.7039    1.1652    0.2476 C   0  0  0  0  0  0  0  0  0  0  0  0
    2.4140   -0.0290    0.1875 C   0  0  0  0  0  0  0  0  0  0  0  0
    3.8791   -0.0469    0.3012 C   0  0  0  0  0  0  0  0  0  0  0  0
    4.5225   -1.0596    1.0090 C   0  0  0  0  0  0  0  0  0  0  0  0
    5.9005   -1.0736    1.1174 C   0  0  0  0  0  0  0  0  0  0  0  0
    6.6568   -0.0811    0.5165 C   0  0  0  0  0  0  0  0  0  0  0  0
    6.0266    0.9284   -0.1918 C   0  0  0  0  0  0  0  0  0  0  0  0
    4.6485    0.9485   -0.2970 C   0  0  0  0  0  0  0  0  0  0  0  0
    1.6932   -1.2059    0.0163 C   0  0  0  0  0  0  0  0  0  0  0  0
    0.3064   -1.2070   -0.0803 C   0  0  0  0  0  0  0  0  0  0  0  0
   -0.4030    0.0050   -0.0312 C   0  0  0  0  0  0  0  0  0  0  0  0
   -2.0378   -4.4982    0.1857 H   0  0  0  0  0  0  0  0  0  0  0  0
   -4.4301   -4.4172    0.8771 H   0  0  0  0  0  0  0  0  0  0  0  0
   -5.5001   -2.2175    1.2378 H   0  0  0  0  0  0  0  0  0  0  0  0
   -4.2728   -0.1530    0.7992 H   0  0  0  0  0  0  0  0  0  0  0  0
   -4.0933    0.2544   -1.4486 H   0  0  0  0  0  0  0  0  0  0  0  0
   -5.1883    2.3469   -2.0677 H   0  0  0  0  0  0  0  0  0  0  0  0
   -4.1343    4.5209   -1.5420 H   0  0  0  0  0  0  0  0  0  0  0  0
   -1.8761    4.5458   -0.4895 H   0  0  0  0  0  0  0  0  0  0  0  0
    2.2101    2.1061    0.4060 H   0  0  0  0  0  0  0  0  0  0  0  0
    3.9373   -1.8273    1.4936 H   0  0  0  0  0  0  0  0  0  0  0  0
    6.3868   -1.8612    1.6741 H   0  0  0  0  0  0  0  0  0  0  0  0
    7.7333   -0.0944    0.5998 H   0  0  0  0  0  0  0  0  0  0  0  0
    6.6120    1.7029   -0.6655 H   0  0  0  0  0  0  0  0  0  0  0  0
    4.1639    1.7293   -0.8645 H   0  0  0  0  0  0  0  0  0  0  0  0
    2.1950   -2.1590   -0.0638 H   0  0  0  0  0  0  0  0  0  0  0  0
  1  2  2  0  0  0  0
  2  3  1  0  0  0  0
  3  4  2  0  0  0  0
  4  5  1  0  0  0  0
  5  6  2  0  0  0  0
  6  7  1  0  0  0  0
  7  8  2  0  0  0  0
  8  9  1  0  0  0  0
  9 10  1  0  0  0  0
 10 11  2  0  0  0  0
 11 12  1  0  0  0  0
 12 13  2  0  0  0  0
 13 14  1  0  0  0  0
 14 15  2  0  0  0  0
 15 16  1  0  0  0  0
 16 17  2  0  0  0  0
 16 18  1  0  0  0  0
 18 19  1  0  0  0  0
 19 20  2  0  0  0  0
 20 21  1  0  0  0  0
 21 22  2  0  0  0  0
 22 23  1  0  0  0  0
 23 24  2  0  0  0  0
 24 25  1  0  0  0  0
 25 26  2  0  0  0  0
 20 27  1  0  0  0  0
 27 28  2  0  0  0  0
 28 29  1  0  0  0  0
 28  2  1  0  0  0  0
  8  3  1  0  0  0  0
 29  9  1  0  0  0  0
 15 10  1  0  0  0  0
 29 18  2  0  0  0  0
 26 21  1  0  0  0  0
  4 30  1  0  0  0  0
  5 31  1  0  0  0  0
  6 32  1  0  0  0  0
  7 33  1  0  0  0  0
 11 34  1  0  0  0  0
 12 35  1  0  0  0  0
 13 36  1  0  0  0  0
 14 37  1  0  0  0  0
 19 38  1  0  0  0  0
 22 39  1  0  0  0  0
 23 40  1  0  0  0  0
 24 41  1  0  0  0  0
 25 42  1  0  0  0  0
 26 43  1  0  0  0  0
 27 44  1  0  0  0  0
M  END
