
  xtb     03022212193D
 energy: -81.411351481318 gnorm: 0.000066382894 xtb: 6.4.1 (afa7bdf)
 46 48  0     0  0            999 V2000
   -6.1383   -1.5215   -1.0142 C   0  0  0  0  0  0  0  0  0  0  0  0
   -5.5927   -0.1120   -1.2474 C   0  0  0  0  0  0  0  0  0  0  0  0
   -4.6243    0.2774   -0.2442 N   0  0  0  0  0  0  0  0  0  0  0  0
   -5.1662    0.9575    0.9137 C   0  0  0  0  0  0  0  0  0  0  0  0
   -5.1626    2.4778    0.7494 C   0  0  0  0  0  0  0  0  0  0  0  0
   -3.3022   -0.0023   -0.3670 C   0  0  0  0  0  0  0  0  0  0  0  0
   -2.3523    0.5107    0.5460 C   0  0  0  0  0  0  0  0  0  0  0  0
   -1.0206    0.2229    0.4308 C   0  0  0  0  0  0  0  0  0  0  0  0
   -0.5503   -0.6073   -0.6017 C   0  0  0  0  0  0  0  0  0  0  0  0
    0.7473   -0.9830   -0.7647 N   0  0  0  0  0  0  0  0  0  0  0  0
    1.6222   -0.5853    0.0103 N   0  0  0  0  0  0  0  0  0  0  0  0
    2.9310   -0.5608    0.0635 C   0  0  0  0  0  0  0  0  0  0  0  0
    3.7109    0.1803   -0.8599 C   0  0  0  0  0  0  0  0  0  0  0  0
    5.0617    0.3386   -0.6795 C   0  0  0  0  0  0  0  0  0  0  0  0
    5.8212    1.0906   -1.7015 C   0  0  0  0  0  0  0  0  0  0  0  0
    5.3443    1.6024   -2.6955 O   0  0  0  0  0  0  0  0  0  0  0  0
    7.1538    1.1816   -1.4523 N   0  0  0  0  0  0  0  0  0  0  0  0
    7.7915    0.6445   -0.3409 N   0  0  0  0  0  0  0  0  0  0  0  0
    7.1629   -0.0612    0.6484 C   0  0  0  0  0  0  0  0  0  0  0  0
    7.8056   -0.4965    1.5825 O   0  0  0  0  0  0  0  0  0  0  0  0
    5.7187   -0.2124    0.4512 C   0  0  0  0  0  0  0  0  0  0  0  0
    4.9708   -0.9064    1.3864 C   0  0  0  0  0  0  0  0  0  0  0  0
    3.6077   -1.0809    1.2098 C   0  0  0  0  0  0  0  0  0  0  0  0
    2.8277   -1.7461    2.1710 N   0  0  0  0  0  4  0  0  0  0  0  0
    3.3594   -2.1568    3.1884 O   0  0  0  0  0  0  0  0  0  0  0  0
    1.6226   -1.8466    1.9392 O   0  0  0  0  0  1  0  0  0  0  0  0
   -1.4811   -1.1184   -1.5184 C   0  0  0  0  0  0  0  0  0  0  0  0
   -2.8129   -0.8210   -1.4091 C   0  0  0  0  0  0  0  0  0  0  0  0
   -6.8629   -1.7717   -1.7843 H   0  0  0  0  0  0  0  0  0  0  0  0
   -5.3354   -2.2534   -1.0365 H   0  0  0  0  0  0  0  0  0  0  0  0
   -6.6277   -1.5844   -0.0452 H   0  0  0  0  0  0  0  0  0  0  0  0
   -6.4167    0.6055   -1.2119 H   0  0  0  0  0  0  0  0  0  0  0  0
   -5.1432   -0.0387   -2.2400 H   0  0  0  0  0  0  0  0  0  0  0  0
   -6.1937    0.6120    1.0540 H   0  0  0  0  0  0  0  0  0  0  0  0
   -4.6047    0.6709    1.8053 H   0  0  0  0  0  0  0  0  0  0  0  0
   -4.1510    2.8471    0.6033 H   0  0  0  0  0  0  0  0  0  0  0  0
   -5.7583    2.7688   -0.1126 H   0  0  0  0  0  0  0  0  0  0  0  0
   -5.5827    2.9477    1.6345 H   0  0  0  0  0  0  0  0  0  0  0  0
   -2.6648    1.1512    1.3538 H   0  0  0  0  0  0  0  0  0  0  0  0
   -0.3120    0.6124    1.1461 H   0  0  0  0  0  0  0  0  0  0  0  0
    3.2384    0.6144   -1.7275 H   0  0  0  0  0  0  0  0  0  0  0  0
    7.7296    1.6930   -2.1073 H   0  0  0  0  0  0  0  0  0  0  0  0
    8.7899    0.7825   -0.2720 H   0  0  0  0  0  0  0  0  0  0  0  0
    5.4536   -1.3194    2.2600 H   0  0  0  0  0  0  0  0  0  0  0  0
   -1.1250   -1.7563   -2.3122 H   0  0  0  0  0  0  0  0  0  0  0  0
   -3.4894   -1.2476   -2.1304 H   0  0  0  0  0  0  0  0  0  0  0  0
  1  2  1  0  0  0  0
  2  3  1  0  0  0  0
  3  4  1  0  0  0  0
  4  5  1  0  0  0  0
  3  6  1  0  0  0  0
  6  7  2  0  0  0  0
  7  8  1  0  0  0  0
  8  9  2  0  0  0  0
  9 10  1  0  0  0  0
 10 11  2  0  0  0  0
 11 12  1  0  0  0  0
 12 13  2  0  0  0  0
 13 14  1  0  0  0  0
 14 15  1  0  0  0  0
 15 16  2  0  0  0  0
 15 17  1  0  0  0  0
 17 18  1  0  0  0  0
 18 19  1  0  0  0  0
 19 20  2  0  0  0  0
 19 21  1  0  0  0  0
 21 22  1  0  0  0  0
 22 23  2  0  0  0  0
 23 24  1  0  0  0  0
 24 25  2  0  0  0  0
 24 26  1  0  0  0  0
  9 27  1  0  0  0  0
 27 28  2  0  0  0  0
 28  6  1  0  0  0  0
 23 12  1  0  0  0  0
 21 14  2  0  0  0  0
  1 29  1  0  0  0  0
  1 30  1  0  0  0  0
  1 31  1  0  0  0  0
  2 32  1  0  0  0  0
  2 33  1  0  0  0  0
  4 34  1  0  0  0  0
  4 35  1  0  0  0  0
  5 36  1  0  0  0  0
  5 37  1  0  0  0  0
  5 38  1  0  0  0  0
  7 39  1  0  0  0  0
  8 40  1  0  0  0  0
 13 41  1  0  0  0  0
 17 42  1  0  0  0  0
 18 43  1  0  0  0  0
 22 44  1  0  0  0  0
 27 45  1  0  0  0  0
 28 46  1  0  0  0  0
M  CHG  1  24   1
M  CHG  1  26  -1
M  END
