
  xtb     03022215223D
 energy: -128.524854665989 gnorm: 0.000150294419 xtb: 6.4.1 (afa7bdf)
 86 93  0     0  0            999 V2000
   -8.1043    1.1245   -2.5283 C   0  0  0  0  0  0  0  0  0  0  0  0
   -6.9215    0.2168   -2.9129 C   0  0  0  0  0  0  0  0  0  0  0  0
   -7.0818   -0.2863   -4.3591 C   0  0  0  0  0  0  0  0  0  0  0  0
   -6.9035   -0.9827   -1.9860 C   0  0  0  0  0  0  0  0  0  0  0  0
   -7.9992   -1.8359   -1.9601 C   0  0  0  0  0  0  0  0  0  0  0  0
   -8.0293   -2.9693   -1.1704 C   0  0  0  0  0  0  0  0  0  0  0  0
   -6.9250   -3.2828   -0.3992 C   0  0  0  0  0  0  0  0  0  0  0  0
   -5.8247   -2.4519   -0.4054 C   0  0  0  0  0  0  0  0  0  0  0  0
   -5.8083   -1.2817   -1.1703 C   0  0  0  0  0  0  0  0  0  0  0  0
   -4.6894   -0.4533   -1.1458 N   0  0  0  0  0  0  0  0  0  0  0  0
   -3.6213   -0.7701   -0.2796 C   0  0  0  0  0  0  0  0  0  0  0  0
   -3.7999   -0.7232    1.1013 C   0  0  0  0  0  0  0  0  0  0  0  0
   -2.7628   -1.0463    1.9498 C   0  0  0  0  0  0  0  0  0  0  0  0
   -1.5158   -1.4112    1.4388 C   0  0  0  0  0  0  0  0  0  0  0  0
   -0.4062   -1.7634    2.3235 C   0  0  0  0  0  0  0  0  0  0  0  0
   -0.6183   -2.5458    3.4243 C   0  0  0  0  0  0  0  0  0  0  0  0
    0.3637   -2.8124    4.4036 C   0  0  0  0  0  0  0  0  0  0  0  0
    1.1145   -3.0273    5.2441 N   0  0  0  0  0  0  0  0  0  0  0  0
   -1.8549   -3.1744    3.6940 C   0  0  0  0  0  0  0  0  0  0  0  0
   -2.8282   -3.7349    3.9277 N   0  0  0  0  0  0  0  0  0  0  0  0
    0.9180   -1.2443    1.9926 C   0  0  0  0  0  0  0  0  0  0  0  0
    2.0753   -2.0017    2.1850 C   0  0  0  0  0  0  0  0  0  0  0  0
    3.3142   -1.4795    1.8774 C   0  0  0  0  0  0  0  0  0  0  0  0
    3.4273   -0.1855    1.3755 C   0  0  0  0  0  0  0  0  0  0  0  0
    4.6963    0.3576    1.0744 N   0  0  0  0  0  0  0  0  0  0  0  0
    5.1808    1.4072    1.8481 C   0  0  0  0  0  0  0  0  0  0  0  0
    4.4476    1.8527    2.9519 C   0  0  0  0  0  0  0  0  0  0  0  0
    4.8943    2.9026    3.7260 C   0  0  0  0  0  0  0  0  0  0  0  0
    6.0917    3.5231    3.4200 C   0  0  0  0  0  0  0  0  0  0  0  0
    6.8388    3.0574    2.3549 C   0  0  0  0  0  0  0  0  0  0  0  0
    6.4142    1.9998    1.5614 C   0  0  0  0  0  0  0  0  0  0  0  0
    7.3086    1.5078    0.4405 C   0  0  0  0  0  0  0  0  0  0  0  0
    8.6486    1.0559    1.0491 C   0  0  0  0  0  0  0  0  0  0  0  0
    7.5354    2.6589   -0.5567 C   0  0  0  0  0  0  0  0  0  0  0  0
    6.6905    0.3418   -0.3057 C   0  0  0  0  0  0  0  0  0  0  0  0
    7.3825   -0.2291   -1.3657 C   0  0  0  0  0  0  0  0  0  0  0  0
    6.8564   -1.2642   -2.1151 C   0  0  0  0  0  0  0  0  0  0  0  0
    5.5895   -1.7332   -1.8201 C   0  0  0  0  0  0  0  0  0  0  0  0
    4.8814   -1.1852   -0.7716 C   0  0  0  0  0  0  0  0  0  0  0  0
    5.4274   -0.1661    0.0147 C   0  0  0  0  0  0  0  0  0  0  0  0
    2.2758    0.5715    1.1695 C   0  0  0  0  0  0  0  0  0  0  0  0
    1.0372    0.0456    1.4665 C   0  0  0  0  0  0  0  0  0  0  0  0
   -1.3345   -1.4322    0.0535 C   0  0  0  0  0  0  0  0  0  0  0  0
   -2.3768   -1.1277   -0.7953 C   0  0  0  0  0  0  0  0  0  0  0  0
   -4.6081    0.6860   -1.9384 C   0  0  0  0  0  0  0  0  0  0  0  0
   -3.4990    1.5312   -1.8333 C   0  0  0  0  0  0  0  0  0  0  0  0
   -3.3842    2.6589   -2.6183 C   0  0  0  0  0  0  0  0  0  0  0  0
   -4.3847    2.9760   -3.5186 C   0  0  0  0  0  0  0  0  0  0  0  0
   -5.5022    2.1666   -3.5945 C   0  0  0  0  0  0  0  0  0  0  0  0
   -5.6440    1.0268   -2.8141 C   0  0  0  0  0  0  0  0  0  0  0  0
   -7.9801    1.4812   -1.5074 H   0  0  0  0  0  0  0  0  0  0  0  0
   -8.1639    1.9862   -3.1872 H   0  0  0  0  0  0  0  0  0  0  0  0
   -9.0444    0.5838   -2.5903 H   0  0  0  0  0  0  0  0  0  0  0  0
   -7.1063    0.5443   -5.0590 H   0  0  0  0  0  0  0  0  0  0  0  0
   -8.0010   -0.8538   -4.4734 H   0  0  0  0  0  0  0  0  0  0  0  0
   -6.2455   -0.9319   -4.6211 H   0  0  0  0  0  0  0  0  0  0  0  0
   -8.8574   -1.6144   -2.5761 H   0  0  0  0  0  0  0  0  0  0  0  0
   -8.8997   -3.6072   -1.1695 H   0  0  0  0  0  0  0  0  0  0  0  0
   -6.9131   -4.1759    0.2069 H   0  0  0  0  0  0  0  0  0  0  0  0
   -4.9643   -2.7211    0.1871 H   0  0  0  0  0  0  0  0  0  0  0  0
   -4.7589   -0.4306    1.5013 H   0  0  0  0  0  0  0  0  0  0  0  0
   -2.9092   -0.9800    3.0174 H   0  0  0  0  0  0  0  0  0  0  0  0
    2.0045   -3.0121    2.5579 H   0  0  0  0  0  0  0  0  0  0  0  0
    4.2054   -2.0701    2.0271 H   0  0  0  0  0  0  0  0  0  0  0  0
    3.5224    1.3637    3.2147 H   0  0  0  0  0  0  0  0  0  0  0  0
    4.3067    3.2293    4.5708 H   0  0  0  0  0  0  0  0  0  0  0  0
    6.4493    4.3506    4.0133 H   0  0  0  0  0  0  0  0  0  0  0  0
    7.7833    3.5341    2.1410 H   0  0  0  0  0  0  0  0  0  0  0  0
    8.4790    0.2469    1.7573 H   0  0  0  0  0  0  0  0  0  0  0  0
    9.1328    1.8744    1.5741 H   0  0  0  0  0  0  0  0  0  0  0  0
    9.3256    0.7000    0.2775 H   0  0  0  0  0  0  0  0  0  0  0  0
    6.5848    2.9682   -0.9874 H   0  0  0  0  0  0  0  0  0  0  0  0
    7.9836    3.5168   -0.0633 H   0  0  0  0  0  0  0  0  0  0  0  0
    8.1927    2.3495   -1.3645 H   0  0  0  0  0  0  0  0  0  0  0  0
    8.3623    0.1447   -1.6209 H   0  0  0  0  0  0  0  0  0  0  0  0
    7.4242   -1.6886   -2.9287 H   0  0  0  0  0  0  0  0  0  0  0  0
    5.1465   -2.5237   -2.4074 H   0  0  0  0  0  0  0  0  0  0  0  0
    3.8865   -1.5475   -0.5639 H   0  0  0  0  0  0  0  0  0  0  0  0
    2.3643    1.5735    0.7768 H   0  0  0  0  0  0  0  0  0  0  0  0
    0.1494    0.6415    1.3124 H   0  0  0  0  0  0  0  0  0  0  0  0
   -0.3764   -1.7218   -0.3531 H   0  0  0  0  0  0  0  0  0  0  0  0
   -2.2383   -1.1658   -1.8655 H   0  0  0  0  0  0  0  0  0  0  0  0
   -2.7203    1.3082   -1.1205 H   0  0  0  0  0  0  0  0  0  0  0  0
   -2.5140    3.2906   -2.5201 H   0  0  0  0  0  0  0  0  0  0  0  0
   -4.3047    3.8518   -4.1439 H   0  0  0  0  0  0  0  0  0  0  0  0
   -6.2882    2.4381   -4.2825 H   0  0  0  0  0  0  0  0  0  0  0  0
  1  2  1  0  0  0  0
  2  3  1  0  0  0  0
  2  4  1  0  0  0  0
  4  5  2  0  0  0  0
  5  6  1  0  0  0  0
  6  7  2  0  0  0  0
  7  8  1  0  0  0  0
  8  9  2  0  0  0  0
  9 10  1  0  0  0  0
 10 11  1  0  0  0  0
 11 12  2  0  0  0  0
 12 13  1  0  0  0  0
 13 14  2  0  0  0  0
 14 15  1  0  0  0  0
 15 16  2  0  0  0  0
 16 17  1  0  0  0  0
 17 18  3  0  0  0  0
 16 19  1  0  0  0  0
 19 20  3  0  0  0  0
 15 21  1  0  0  0  0
 21 22  2  0  0  0  0
 22 23  1  0  0  0  0
 23 24  2  0  0  0  0
 24 25  1  0  0  0  0
 25 26  1  0  0  0  0
 26 27  2  0  0  0  0
 27 28  1  0  0  0  0
 28 29  2  0  0  0  0
 29 30  1  0  0  0  0
 30 31  2  0  0  0  0
 31 32  1  0  0  0  0
 32 33  1  0  0  0  0
 32 34  1  0  0  0  0
 32 35  1  0  0  0  0
 35 36  2  0  0  0  0
 36 37  1  0  0  0  0
 37 38  2  0  0  0  0
 38 39  1  0  0  0  0
 39 40  2  0  0  0  0
 24 41  1  0  0  0  0
 41 42  2  0  0  0  0
 14 43  1  0  0  0  0
 43 44  2  0  0  0  0
 10 45  1  0  0  0  0
 45 46  2  0  0  0  0
 46 47  1  0  0  0  0
 47 48  2  0  0  0  0
 48 49  1  0  0  0  0
 49 50  2  0  0  0  0
 50  2  1  0  0  0  0
  9  4  1  0  0  0  0
 44 11  1  0  0  0  0
 50 45  1  0  0  0  0
 42 21  1  0  0  0  0
 40 25  1  0  0  0  0
 31 26  1  0  0  0  0
 40 35  1  0  0  0  0
  1 51  1  0  0  0  0
  1 52  1  0  0  0  0
  1 53  1  0  0  0  0
  3 54  1  0  0  0  0
  3 55  1  0  0  0  0
  3 56  1  0  0  0  0
  5 57  1  0  0  0  0
  6 58  1  0  0  0  0
  7 59  1  0  0  0  0
  8 60  1  0  0  0  0
 12 61  1  0  0  0  0
 13 62  1  0  0  0  0
 22 63  1  0  0  0  0
 23 64  1  0  0  0  0
 27 65  1  0  0  0  0
 28 66  1  0  0  0  0
 29 67  1  0  0  0  0
 30 68  1  0  0  0  0
 33 69  1  0  0  0  0
 33 70  1  0  0  0  0
 33 71  1  0  0  0  0
 34 72  1  0  0  0  0
 34 73  1  0  0  0  0
 34 74  1  0  0  0  0
 36 75  1  0  0  0  0
 37 76  1  0  0  0  0
 38 77  1  0  0  0  0
 39 78  1  0  0  0  0
 41 79  1  0  0  0  0
 42 80  1  0  0  0  0
 43 81  1  0  0  0  0
 44 82  1  0  0  0  0
 46 83  1  0  0  0  0
 47 84  1  0  0  0  0
 48 85  1  0  0  0  0
 49 86  1  0  0  0  0
M  END
