
  xtb     03022215033D
 energy: -95.293774574919 gnorm: 0.000076217315 xtb: 6.4.1 (afa7bdf)
 60 66  0     0  0            999 V2000
   -0.0483    2.1184   -0.9569 O   0  0  0  0  0  0  0  0  0  0  0  0
   -0.6363    1.0345   -0.4390 C   0  0  0  0  0  0  0  0  0  0  0  0
   -2.0239    0.9713   -0.4556 C   0  0  0  0  0  0  0  0  0  0  0  0
   -2.7035   -0.1179    0.0775 C   0  0  0  0  0  0  0  0  0  0  0  0
   -4.0950   -0.1703    0.0432 N   0  0  0  0  0  0  0  0  0  0  0  0
   -4.8027   -0.7438    1.1066 C   0  0  0  0  0  0  0  0  0  0  0  0
   -5.9503   -1.4991    0.8674 C   0  0  0  0  0  0  0  0  0  0  0  0
   -6.6494   -2.0548    1.9212 C   0  0  0  0  0  0  0  0  0  0  0  0
   -6.2151   -1.8754    3.2244 C   0  0  0  0  0  0  0  0  0  0  0  0
   -5.0736   -1.1289    3.4671 C   0  0  0  0  0  0  0  0  0  0  0  0
   -4.3722   -0.5622    2.4207 C   0  0  0  0  0  0  0  0  0  0  0  0
   -4.7940    0.3591   -1.0504 C   0  0  0  0  0  0  0  0  0  0  0  0
   -4.2938    0.2161   -2.3439 C   0  0  0  0  0  0  0  0  0  0  0  0
   -4.9892    0.7338   -3.4191 C   0  0  0  0  0  0  0  0  0  0  0  0
   -6.1930    1.3913   -3.2257 C   0  0  0  0  0  0  0  0  0  0  0  0
   -6.6957    1.5324   -1.9428 C   0  0  0  0  0  0  0  0  0  0  0  0
   -6.0034    1.0257   -0.8600 C   0  0  0  0  0  0  0  0  0  0  0  0
   -1.9695   -1.1654    0.6463 C   0  0  0  0  0  0  0  0  0  0  0  0
   -0.5965   -1.1140    0.6620 C   0  0  0  0  0  0  0  0  0  0  0  0
    0.1037   -0.0309    0.1230 C   0  0  0  0  0  0  0  0  0  0  0  0
    1.5446    0.0271    0.1173 C   0  0  0  0  0  0  0  0  0  0  0  0
    2.2412    1.0626   -0.3173 N   0  0  0  0  0  0  0  0  0  0  0  0
    3.5535    0.7336   -0.1717 C   0  0  0  0  0  0  0  0  0  0  0  0
    4.7103    1.5025   -0.4820 C   0  0  0  0  0  0  0  0  0  0  0  0
    4.6093    2.7949   -1.0079 C   0  0  0  0  0  0  0  0  0  0  0  0
    5.7396    3.5199   -1.2916 C   0  0  0  0  0  0  0  0  0  0  0  0
    6.9917    2.9580   -1.0515 C   0  0  0  0  0  0  0  0  0  0  0  0
    7.1042    1.6879   -0.5364 C   0  0  0  0  0  0  0  0  0  0  0  0
    5.9740    0.9133   -0.2335 C   0  0  0  0  0  0  0  0  0  0  0  0
    6.0721   -0.4305    0.3111 C   0  0  0  0  0  0  0  0  0  0  0  0
    7.3032   -1.0565    0.5534 C   0  0  0  0  0  0  0  0  0  0  0  0
    7.3815   -2.3293    1.0687 C   0  0  0  0  0  0  0  0  0  0  0  0
    6.2247   -3.0438    1.3702 C   0  0  0  0  0  0  0  0  0  0  0  0
    4.9991   -2.4681    1.1473 C   0  0  0  0  0  0  0  0  0  0  0  0
    4.9024   -1.1729    0.6209 C   0  0  0  0  0  0  0  0  0  0  0  0
    3.6584   -0.5447    0.3654 C   0  0  0  0  0  0  0  0  0  0  0  0
    2.3709   -0.9753    0.5444 N   0  0  0  0  0  0  0  0  0  0  0  0
    0.9328    2.0179   -0.8534 H   0  0  0  0  0  0  0  0  0  0  0  0
   -2.5649    1.7980   -0.8885 H   0  0  0  0  0  0  0  0  0  0  0  0
   -6.2860   -1.6470   -0.1486 H   0  0  0  0  0  0  0  0  0  0  0  0
   -7.5359   -2.6389    1.7224 H   0  0  0  0  0  0  0  0  0  0  0  0
   -6.7631   -2.3129    4.0450 H   0  0  0  0  0  0  0  0  0  0  0  0
   -4.7317   -0.9777    4.4805 H   0  0  0  0  0  0  0  0  0  0  0  0
   -3.4896    0.0302    2.6120 H   0  0  0  0  0  0  0  0  0  0  0  0
   -3.3601   -0.3041   -2.4976 H   0  0  0  0  0  0  0  0  0  0  0  0
   -4.5916    0.6153   -4.4163 H   0  0  0  0  0  0  0  0  0  0  0  0
   -6.7353    1.7913   -4.0689 H   0  0  0  0  0  0  0  0  0  0  0  0
   -7.6308    2.0485   -1.7819 H   0  0  0  0  0  0  0  0  0  0  0  0
   -6.3928    1.1450    0.1405 H   0  0  0  0  0  0  0  0  0  0  0  0
   -2.4867   -2.0172    1.0604 H   0  0  0  0  0  0  0  0  0  0  0  0
   -0.0551   -1.9394    1.1012 H   0  0  0  0  0  0  0  0  0  0  0  0
    3.6237    3.1998   -1.1793 H   0  0  0  0  0  0  0  0  0  0  0  0
    5.6636    4.5182   -1.6962 H   0  0  0  0  0  0  0  0  0  0  0  0
    7.8842    3.5257   -1.2714 H   0  0  0  0  0  0  0  0  0  0  0  0
    8.0934    1.2940   -0.3650 H   0  0  0  0  0  0  0  0  0  0  0  0
    8.2233   -0.5398    0.3327 H   0  0  0  0  0  0  0  0  0  0  0  0
    8.3480   -2.7797    1.2405 H   0  0  0  0  0  0  0  0  0  0  0  0
    6.2943   -4.0427    1.7745 H   0  0  0  0  0  0  0  0  0  0  0  0
    4.0953   -3.0155    1.3763 H   0  0  0  0  0  0  0  0  0  0  0  0
    2.0865   -1.8669    0.9102 H   0  0  0  0  0  0  0  0  0  0  0  0
  1  2  1  0  0  0  0
  2  3  2  0  0  0  0
  3  4  1  0  0  0  0
  4  5  1  0  0  0  0
  5  6  1  0  0  0  0
  6  7  2  0  0  0  0
  7  8  1  0  0  0  0
  8  9  2  0  0  0  0
  9 10  1  0  0  0  0
 10 11  2  0  0  0  0
  5 12  1  0  0  0  0
 12 13  2  0  0  0  0
 13 14  1  0  0  0  0
 14 15  2  0  0  0  0
 15 16  1  0  0  0  0
 16 17  2  0  0  0  0
  4 18  2  0  0  0  0
 18 19  1  0  0  0  0
 19 20  2  0  0  0  0
 20 21  1  0  0  0  0
 21 22  2  0  0  0  0
 22 23  1  0  0  0  0
 23 24  2  0  0  0  0
 24 25  1  0  0  0  0
 25 26  2  0  0  0  0
 26 27  1  0  0  0  0
 27 28  2  0  0  0  0
 28 29  1  0  0  0  0
 29 30  2  0  0  0  0
 30 31  1  0  0  0  0
 31 32  2  0  0  0  0
 32 33  1  0  0  0  0
 33 34  2  0  0  0  0
 34 35  1  0  0  0  0
 35 36  2  0  0  0  0
 36 37  1  0  0  0  0
 20  2  1  0  0  0  0
 37 21  1  0  0  0  0
 11  6  1  0  0  0  0
 17 12  1  0  0  0  0
 36 23  1  0  0  0  0
 29 24  1  0  0  0  0
 35 30  1  0  0  0  0
  1 38  1  0  0  0  0
  3 39  1  0  0  0  0
  7 40  1  0  0  0  0
  8 41  1  0  0  0  0
  9 42  1  0  0  0  0
 10 43  1  0  0  0  0
 11 44  1  0  0  0  0
 13 45  1  0  0  0  0
 14 46  1  0  0  0  0
 15 47  1  0  0  0  0
 16 48  1  0  0  0  0
 17 49  1  0  0  0  0
 18 50  1  0  0  0  0
 19 51  1  0  0  0  0
 25 52  1  0  0  0  0
 26 53  1  0  0  0  0
 27 54  1  0  0  0  0
 28 55  1  0  0  0  0
 31 56  1  0  0  0  0
 32 57  1  0  0  0  0
 33 58  1  0  0  0  0
 34 59  1  0  0  0  0
 37 60  1  0  0  0  0
M  END
