
  xtb     03022213363D
 energy: -99.092333601532 gnorm: 0.000125591837 xtb: 6.4.1 (afa7bdf)
 61 67  0     0  0            999 V2000
   -0.3185   -2.5576    0.8856 F   0  0  0  0  0  0  0  0  0  0  0  0
   -0.2920   -1.6439   -0.1390 B   0  0  0  0  0  4  0  0  0  0  0  0
   -0.5496   -2.2644   -1.3589 F   0  0  0  0  0  0  0  0  0  0  0  0
    1.0979   -0.9618   -0.2368 N   0  0  0  0  0  0  0  0  0  0  0  0
    2.3250   -1.5047   -0.1576 C   0  0  0  0  0  0  0  0  0  0  0  0
    2.6341   -2.8931    0.1441 C   0  0  0  0  0  0  0  0  0  0  0  0
    3.7235   -3.1674    0.9751 C   0  0  0  0  0  0  0  0  0  0  0  0
    4.0655   -4.4705    1.2766 C   0  0  0  0  0  0  0  0  0  0  0  0
    3.3352   -5.5214    0.7450 C   0  0  0  0  0  0  0  0  0  0  0  0
    2.2629   -5.2590   -0.0910 C   0  0  0  0  0  0  0  0  0  0  0  0
    1.9114   -3.9570   -0.3934 C   0  0  0  0  0  0  0  0  0  0  0  0
    3.2879   -0.5067   -0.4013 C   0  0  0  0  0  0  0  0  0  0  0  0
    2.6218    0.6736   -0.6740 C   0  0  0  0  0  0  0  0  0  0  0  0
    3.2054    1.9604   -1.0146 C   0  0  0  0  0  0  0  0  0  0  0  0
    2.6148    2.7911   -1.9676 C   0  0  0  0  0  0  0  0  0  0  0  0
    3.1837    4.0108   -2.2822 C   0  0  0  0  0  0  0  0  0  0  0  0
    4.3495    4.4203   -1.6562 C   0  0  0  0  0  0  0  0  0  0  0  0
    4.9515    3.5971   -0.7181 C   0  0  0  0  0  0  0  0  0  0  0  0
    4.3876    2.3766   -0.4012 C   0  0  0  0  0  0  0  0  0  0  0  0
    1.2336    0.3770   -0.5339 C   0  0  0  0  0  0  0  0  0  0  0  0
    0.1512    1.2381   -0.4885 C   0  0  0  0  0  0  0  0  0  0  0  0
   -1.1076    0.7918   -0.1253 C   0  0  0  0  0  0  0  0  0  0  0  0
   -2.3052    1.5278    0.1127 C   0  0  0  0  0  0  0  0  0  0  0  0
   -2.4872    2.9675    0.0058 C   0  0  0  0  0  0  0  0  0  0  0  0
   -1.5303    3.8613    0.4862 C   0  0  0  0  0  0  0  0  0  0  0  0
   -1.7281    5.2250    0.3755 C   0  0  0  0  0  0  0  0  0  0  0  0
   -2.8817    5.7187   -0.2108 C   0  0  0  0  0  0  0  0  0  0  0  0
   -3.8454    4.8394   -0.6773 C   0  0  0  0  0  0  0  0  0  0  0  0
   -3.6532    3.4758   -0.5673 C   0  0  0  0  0  0  0  0  0  0  0  0
   -3.2553    0.5937    0.4798 C   0  0  0  0  0  0  0  0  0  0  0  0
   -2.6491   -0.6769    0.4599 C   0  0  0  0  0  0  0  0  0  0  0  0
   -3.3240   -1.9157    0.8142 C   0  0  0  0  0  0  0  0  0  0  0  0
   -4.2153   -1.9004    1.8905 C   0  0  0  0  0  0  0  0  0  0  0  0
   -4.8945   -3.0456    2.2556 C   0  0  0  0  0  0  0  0  0  0  0  0
   -4.7069   -4.2212    1.5464 C   0  0  0  0  0  0  0  0  0  0  0  0
   -3.8354   -4.2420    0.4706 C   0  0  0  0  0  0  0  0  0  0  0  0
   -3.1472   -3.1011    0.1028 C   0  0  0  0  0  0  0  0  0  0  0  0
   -1.3637   -0.5451    0.0889 N   0  0  0  0  0  4  0  0  0  0  0  0
    4.2834   -2.3499    1.4052 H   0  0  0  0  0  0  0  0  0  0  0  0
    4.9030   -4.6689    1.9297 H   0  0  0  0  0  0  0  0  0  0  0  0
    3.6032   -6.5406    0.9817 H   0  0  0  0  0  0  0  0  0  0  0  0
    1.6950   -6.0752   -0.5120 H   0  0  0  0  0  0  0  0  0  0  0  0
    1.0874   -3.7659   -1.0582 H   0  0  0  0  0  0  0  0  0  0  0  0
    4.3476   -0.6688   -0.4314 H   0  0  0  0  0  0  0  0  0  0  0  0
    1.7262    2.4611   -2.4850 H   0  0  0  0  0  0  0  0  0  0  0  0
    2.7181    4.6434   -3.0239 H   0  0  0  0  0  0  0  0  0  0  0  0
    4.7910    5.3744   -1.9030 H   0  0  0  0  0  0  0  0  0  0  0  0
    5.8640    3.9099   -0.2319 H   0  0  0  0  0  0  0  0  0  0  0  0
    4.8497    1.7415    0.3399 H   0  0  0  0  0  0  0  0  0  0  0  0
    0.3026    2.2873   -0.6856 H   0  0  0  0  0  0  0  0  0  0  0  0
   -0.6463    3.4844    0.9789 H   0  0  0  0  0  0  0  0  0  0  0  0
   -0.9801    5.9064    0.7539 H   0  0  0  0  0  0  0  0  0  0  0  0
   -3.0323    6.7844   -0.2974 H   0  0  0  0  0  0  0  0  0  0  0  0
   -4.7498    5.2195   -1.1293 H   0  0  0  0  0  0  0  0  0  0  0  0
   -4.3980    2.7899   -0.9427 H   0  0  0  0  0  0  0  0  0  0  0  0
   -4.2780    0.7856    0.7395 H   0  0  0  0  0  0  0  0  0  0  0  0
   -4.3502   -0.9903    2.4564 H   0  0  0  0  0  0  0  0  0  0  0  0
   -5.5719   -3.0230    3.0970 H   0  0  0  0  0  0  0  0  0  0  0  0
   -5.2397   -5.1163    1.8319 H   0  0  0  0  0  0  0  0  0  0  0  0
   -3.6903   -5.1545   -0.0883 H   0  0  0  0  0  0  0  0  0  0  0  0
   -2.4864   -3.1258   -0.7456 H   0  0  0  0  0  0  0  0  0  0  0  0
  1  2  1  0  0  0  0
  2  3  1  0  0  0  0
  2  4  1  0  0  0  0
  4  5  1  0  0  0  0
  5  6  1  0  0  0  0
  6  7  2  0  0  0  0
  7  8  1  0  0  0  0
  8  9  2  0  0  0  0
  9 10  1  0  0  0  0
 10 11  2  0  0  0  0
  5 12  2  0  0  0  0
 12 13  1  0  0  0  0
 13 14  1  0  0  0  0
 14 15  2  0  0  0  0
 15 16  1  0  0  0  0
 16 17  2  0  0  0  0
 17 18  1  0  0  0  0
 18 19  2  0  0  0  0
 13 20  2  0  0  0  0
 20 21  1  0  0  0  0
 21 22  2  0  0  0  0
 22 23  1  0  0  0  0
 23 24  1  0  0  0  0
 24 25  2  0  0  0  0
 25 26  1  0  0  0  0
 26 27  2  0  0  0  0
 27 28  1  0  0  0  0
 28 29  2  0  0  0  0
 23 30  2  0  0  0  0
 30 31  1  0  0  0  0
 31 32  1  0  0  0  0
 32 33  2  0  0  0  0
 33 34  1  0  0  0  0
 34 35  2  0  0  0  0
 35 36  1  0  0  0  0
 36 37  2  0  0  0  0
 31 38  2  0  0  0  0
 38  2  1  0  0  0  0
 20  4  1  0  0  0  0
 38 22  1  0  0  0  0
 11  6  1  0  0  0  0
 19 14  1  0  0  0  0
 29 24  1  0  0  0  0
 37 32  1  0  0  0  0
  7 39  1  0  0  0  0
  8 40  1  0  0  0  0
  9 41  1  0  0  0  0
 10 42  1  0  0  0  0
 11 43  1  0  0  0  0
 12 44  1  0  0  0  0
 15 45  1  0  0  0  0
 16 46  1  0  0  0  0
 17 47  1  0  0  0  0
 18 48  1  0  0  0  0
 19 49  1  0  0  0  0
 21 50  1  0  0  0  0
 25 51  1  0  0  0  0
 26 52  1  0  0  0  0
 27 53  1  0  0  0  0
 28 54  1  0  0  0  0
 29 55  1  0  0  0  0
 30 56  1  0  0  0  0
 33 57  1  0  0  0  0
 34 58  1  0  0  0  0
 35 59  1  0  0  0  0
 36 60  1  0  0  0  0
 37 61  1  0  0  0  0
M  CHG  1   2  -1
M  CHG  1  38   1
M  END
