
  xtb     03022212393D
 energy: -50.457397291070 gnorm: 0.000204511656 xtb: 6.4.1 (afa7bdf)
 30 32  0     0  0            999 V2000
    5.4754   -0.1135   -0.0127 C   0  0  0  0  0  0  0  0  0  0  0  0
    4.3896    0.5736   -0.5877 O   0  0  0  0  0  0  0  0  0  0  0  0
    3.1239    0.2105   -0.2558 C   0  0  0  0  0  0  0  0  0  0  0  0
    2.8095   -0.8380    0.6379 C   0  0  0  0  0  0  0  0  0  0  0  0
    1.5071   -1.1355    0.9174 C   0  0  0  0  0  0  0  0  0  0  0  0
    0.4447   -0.4145    0.3312 C   0  0  0  0  0  0  0  0  0  0  0  0
   -0.8964   -0.7046    0.6102 C   0  0  0  0  0  0  0  0  0  0  0  0
   -1.9286    0.0100    0.0314 C   0  0  0  0  0  0  0  0  0  0  0  0
   -3.3298   -0.2420    0.2837 C   0  0  0  0  0  0  0  0  0  0  0  0
   -3.7355   -1.3321    1.2213 C   0  0  0  0  0  0  0  0  0  0  0  0
   -4.2458    0.5255   -0.3431 C   0  0  0  0  0  0  0  0  0  0  0  0
   -3.8911    1.5937   -1.2608 C   0  0  0  0  0  0  0  0  0  0  0  0
   -4.6819    2.2980   -1.8381 O   0  0  0  0  0  0  0  0  0  0  0  0
   -2.5598    1.8061   -1.4764 O   0  0  0  0  0  0  0  0  0  0  0  0
   -1.6017    1.0617   -0.8694 C   0  0  0  0  0  0  0  0  0  0  0  0
   -0.2929    1.3645   -1.1593 C   0  0  0  0  0  0  0  0  0  0  0  0
    0.7596    0.6419   -0.5715 C   0  0  0  0  0  0  0  0  0  0  0  0
    2.1063    0.9296   -0.8447 C   0  0  0  0  0  0  0  0  0  0  0  0
    5.4841   -0.0145    1.0775 H   0  0  0  0  0  0  0  0  0  0  0  0
    6.3679    0.3574   -0.4214 H   0  0  0  0  0  0  0  0  0  0  0  0
    5.4723   -1.1739   -0.2843 H   0  0  0  0  0  0  0  0  0  0  0  0
    3.5962   -1.4096    1.1043 H   0  0  0  0  0  0  0  0  0  0  0  0
    1.2739   -1.9386    1.6017 H   0  0  0  0  0  0  0  0  0  0  0  0
   -1.1151   -1.5082    1.2966 H   0  0  0  0  0  0  0  0  0  0  0  0
   -4.8180   -1.3816    1.2992 H   0  0  0  0  0  0  0  0  0  0  0  0
   -3.3652   -2.2929    0.8668 H   0  0  0  0  0  0  0  0  0  0  0  0
   -3.3205   -1.1528    2.2121 H   0  0  0  0  0  0  0  0  0  0  0  0
   -5.3049    0.3846   -0.1939 H   0  0  0  0  0  0  0  0  0  0  0  0
   -0.0814    2.1684   -1.8464 H   0  0  0  0  0  0  0  0  0  0  0  0
    2.3584    1.7268   -1.5257 H   0  0  0  0  0  0  0  0  0  0  0  0
  1  2  1  0  0  0  0
  2  3  1  0  0  0  0
  3  4  2  0  0  0  0
  4  5  1  0  0  0  0
  5  6  2  0  0  0  0
  6  7  1  0  0  0  0
  7  8  2  0  0  0  0
  8  9  1  0  0  0  0
  9 10  1  0  0  0  0
  9 11  2  0  0  0  0
 11 12  1  0  0  0  0
 12 13  2  0  0  0  0
 12 14  1  0  0  0  0
 14 15  1  0  0  0  0
 15 16  2  0  0  0  0
 16 17  1  0  0  0  0
 17 18  2  0  0  0  0
 18  3  1  0  0  0  0
 17  6  1  0  0  0  0
 15  8  1  0  0  0  0
  1 19  1  0  0  0  0
  1 20  1  0  0  0  0
  1 21  1  0  0  0  0
  4 22  1  0  0  0  0
  5 23  1  0  0  0  0
  7 24  1  0  0  0  0
 10 25  1  0  0  0  0
 10 26  1  0  0  0  0
 10 27  1  0  0  0  0
 11 28  1  0  0  0  0
 16 29  1  0  0  0  0
 18 30  1  0  0  0  0
M  END
