
  xtb     03022215543D
 energy: -73.051633868048 gnorm: 0.000059869667 xtb: 6.4.1 (afa7bdf)
 43 47  0     0  0            999 V2000
   -3.1138    2.6321    3.4373 C   0  0  0  0  0  0  0  0  0  0  0  0
   -4.0847    1.6036    3.3679 O   0  0  0  0  0  0  0  0  0  0  0  0
   -3.8176    0.5844    2.5708 C   0  0  0  0  0  0  0  0  0  0  0  0
   -2.6751    0.5812    1.8917 N   0  0  0  0  0  0  0  0  0  0  0  0
   -2.4831   -0.4824    1.1174 C   0  0  0  0  0  0  0  0  0  0  0  0
   -1.3712   -0.6399    0.3686 N   0  0  0  0  0  0  0  0  0  0  0  0
   -0.2474    0.1550    0.1933 C   0  0  0  0  0  0  0  0  0  0  0  0
   -0.1412    1.3945    0.8202 C   0  0  0  0  0  0  0  0  0  0  0  0
    0.9684    2.1894    0.6413 C   0  0  0  0  0  0  0  0  0  0  0  0
    2.0235    1.7808   -0.1752 C   0  0  0  0  0  0  0  0  0  0  0  0
    3.1768    2.5919   -0.3743 C   0  0  0  0  0  0  0  0  0  0  0  0
    4.1937    2.1854   -1.1683 C   0  0  0  0  0  0  0  0  0  0  0  0
    4.1446    0.9260   -1.8335 C   0  0  0  0  0  0  0  0  0  0  0  0
    5.1826    0.4860   -2.6566 C   0  0  0  0  0  0  0  0  0  0  0  0
    5.1135   -0.7403   -3.2916 C   0  0  0  0  0  0  0  0  0  0  0  0
    4.0106   -1.5557   -3.1215 C   0  0  0  0  0  0  0  0  0  0  0  0
    2.9499   -1.1547   -2.3076 C   0  0  0  0  0  0  0  0  0  0  0  0
    1.7992   -1.9666   -2.1068 C   0  0  0  0  0  0  0  0  0  0  0  0
    0.7777   -1.5628   -1.3152 C   0  0  0  0  0  0  0  0  0  0  0  0
    0.7981   -0.3053   -0.6406 C   0  0  0  0  0  0  0  0  0  0  0  0
    1.9384    0.5223   -0.8215 C   0  0  0  0  0  0  0  0  0  0  0  0
    3.0073    0.0988   -1.6518 C   0  0  0  0  0  0  0  0  0  0  0  0
   -3.3528   -1.4952    1.0008 N   0  0  0  0  0  0  0  0  0  0  0  0
   -4.4566   -1.3785    1.7229 C   0  0  0  0  0  0  0  0  0  0  0  0
   -5.3714   -2.3309    1.6667 O   0  0  0  0  0  0  0  0  0  0  0  0
   -5.0901   -3.4274    0.8161 C   0  0  0  0  0  0  0  0  0  0  0  0
   -4.7427   -0.3614    2.5266 N   0  0  0  0  0  0  0  0  0  0  0  0
   -3.5043    3.3575    4.1477 H   0  0  0  0  0  0  0  0  0  0  0  0
   -2.9731    3.0983    2.4594 H   0  0  0  0  0  0  0  0  0  0  0  0
   -2.1559    2.2383    3.7847 H   0  0  0  0  0  0  0  0  0  0  0  0
   -1.3957   -1.5094   -0.1471 H   0  0  0  0  0  0  0  0  0  0  0  0
   -0.9509    1.7177    1.4503 H   0  0  0  0  0  0  0  0  0  0  0  0
    1.0259    3.1470    1.1381 H   0  0  0  0  0  0  0  0  0  0  0  0
    3.2164    3.5472    0.1297 H   0  0  0  0  0  0  0  0  0  0  0  0
    5.0657    2.8065   -1.3151 H   0  0  0  0  0  0  0  0  0  0  0  0
    6.0479    1.1188   -2.7934 H   0  0  0  0  0  0  0  0  0  0  0  0
    5.9273   -1.0632   -3.9247 H   0  0  0  0  0  0  0  0  0  0  0  0
    3.9600   -2.5137   -3.6189 H   0  0  0  0  0  0  0  0  0  0  0  0
    1.7579   -2.9248   -2.6052 H   0  0  0  0  0  0  0  0  0  0  0  0
   -0.0685   -2.2258   -1.1990 H   0  0  0  0  0  0  0  0  0  0  0  0
   -4.1762   -3.9358    1.1308 H   0  0  0  0  0  0  0  0  0  0  0  0
   -4.9691   -3.0940   -0.2167 H   0  0  0  0  0  0  0  0  0  0  0  0
   -5.9447   -4.0947    0.9021 H   0  0  0  0  0  0  0  0  0  0  0  0
  1  2  1  0  0  0  0
  2  3  1  0  0  0  0
  3  4  2  0  0  0  0
  4  5  1  0  0  0  0
  5  6  1  0  0  0  0
  6  7  1  0  0  0  0
  7  8  2  0  0  0  0
  8  9  1  0  0  0  0
  9 10  2  0  0  0  0
 10 11  1  0  0  0  0
 11 12  2  0  0  0  0
 12 13  1  0  0  0  0
 13 14  2  0  0  0  0
 14 15  1  0  0  0  0
 15 16  2  0  0  0  0
 16 17  1  0  0  0  0
 17 18  2  0  0  0  0
 18 19  1  0  0  0  0
 19 20  2  0  0  0  0
 20 21  1  0  0  0  0
 21 22  2  0  0  0  0
  5 23  2  0  0  0  0
 23 24  1  0  0  0  0
 24 25  1  0  0  0  0
 25 26  1  0  0  0  0
 24 27  2  0  0  0  0
 27  3  1  0  0  0  0
 20  7  1  0  0  0  0
 21 10  1  0  0  0  0
 22 13  1  0  0  0  0
 22 17  1  0  0  0  0
  1 28  1  0  0  0  0
  1 29  1  0  0  0  0
  1 30  1  0  0  0  0
  6 31  1  0  0  0  0
  8 32  1  0  0  0  0
  9 33  1  0  0  0  0
 11 34  1  0  0  0  0
 12 35  1  0  0  0  0
 14 36  1  0  0  0  0
 15 37  1  0  0  0  0
 16 38  1  0  0  0  0
 18 39  1  0  0  0  0
 19 40  1  0  0  0  0
 26 41  1  0  0  0  0
 26 42  1  0  0  0  0
 26 43  1  0  0  0  0
M  END
