
  xtb     03022212483D
 energy: -64.350476569816 gnorm: 0.000281137771 xtb: 6.4.1 (afa7bdf)
 42 44  0     0  0            999 V2000
   -7.6988    0.4555    0.1952 C   0  0  0  0  0  0  0  0  0  0  0  0
   -6.2788    0.2415    0.0455 N   0  0  0  0  0  0  0  0  0  0  0  0
   -5.9018   -1.0398   -0.4930 C   0  0  0  0  0  0  0  0  0  0  0  0
   -5.4215    1.2488    0.3384 C   0  0  0  0  0  0  0  0  0  0  0  0
   -5.8056    2.3530    0.6813 O   0  0  0  0  0  0  0  0  0  0  0  0
   -3.9602    0.9392    0.2454 C   0  0  0  0  0  0  0  0  0  0  0  0
   -3.1572    1.6884   -0.6077 C   0  0  0  0  0  0  0  0  0  0  0  0
   -1.7952    1.4725   -0.6534 C   0  0  0  0  0  0  0  0  0  0  0  0
   -1.2045    0.5140    0.1704 C   0  0  0  0  0  0  0  0  0  0  0  0
    0.2168    0.2701    0.1485 C   0  0  0  0  0  0  0  0  0  0  0  0
    0.8187   -0.6117    0.8599 N   0  0  0  0  0  0  0  0  0  0  0  0
    2.1577   -0.6331    0.6534 C   0  0  0  0  0  0  0  0  0  0  0  0
    3.0857   -1.4712    1.2687 C   0  0  0  0  0  0  0  0  0  0  0  0
    4.4164   -1.3640    0.9502 C   0  0  0  0  0  0  0  0  0  0  0  0
    4.8916   -0.4251    0.0063 C   0  0  0  0  0  0  0  0  0  0  0  0
    6.2265   -0.3384   -0.2837 N   0  0  0  0  0  0  0  0  0  0  0  0
    7.1562   -1.3275    0.2014 C   0  0  0  0  0  0  0  0  0  0  0  0
    6.7264    0.7253   -1.1178 C   0  0  0  0  0  0  0  0  0  0  0  0
    3.9644    0.4173   -0.6192 C   0  0  0  0  0  0  0  0  0  0  0  0
    2.6297    0.3070   -0.2917 C   0  0  0  0  0  0  0  0  0  0  0  0
    1.2927    1.2222   -0.9144 S   0  0  0  0  0  0  0  0  0  0  0  0
   -2.0107   -0.2199    1.0460 C   0  0  0  0  0  0  0  0  0  0  0  0
   -3.3722   -0.0085    1.0809 C   0  0  0  0  0  0  0  0  0  0  0  0
   -8.1218   -0.2875    0.8751 H   0  0  0  0  0  0  0  0  0  0  0  0
   -8.2037    0.3806   -0.7712 H   0  0  0  0  0  0  0  0  0  0  0  0
   -7.8484    1.4527    0.6042 H   0  0  0  0  0  0  0  0  0  0  0  0
   -6.4889   -1.2430   -1.3928 H   0  0  0  0  0  0  0  0  0  0  0  0
   -6.0988   -1.8366    0.2310 H   0  0  0  0  0  0  0  0  0  0  0  0
   -4.8467   -1.0513   -0.7538 H   0  0  0  0  0  0  0  0  0  0  0  0
   -3.6118    2.4409   -1.2345 H   0  0  0  0  0  0  0  0  0  0  0  0
   -1.1775    2.0512   -1.3250 H   0  0  0  0  0  0  0  0  0  0  0  0
    2.7450   -2.1921    1.9948 H   0  0  0  0  0  0  0  0  0  0  0  0
    5.1139   -2.0129    1.4528 H   0  0  0  0  0  0  0  0  0  0  0  0
    7.3326   -1.2241    1.2781 H   0  0  0  0  0  0  0  0  0  0  0  0
    6.7892   -2.3375    0.0025 H   0  0  0  0  0  0  0  0  0  0  0  0
    8.1078   -1.2105   -0.3121 H   0  0  0  0  0  0  0  0  0  0  0  0
    6.4441    0.5867   -2.1680 H   0  0  0  0  0  0  0  0  0  0  0  0
    7.8118    0.7543   -1.0558 H   0  0  0  0  0  0  0  0  0  0  0  0
    6.3443    1.6910   -0.7787 H   0  0  0  0  0  0  0  0  0  0  0  0
    4.2642    1.1412   -1.3571 H   0  0  0  0  0  0  0  0  0  0  0  0
   -1.5432   -0.9484    1.6893 H   0  0  0  0  0  0  0  0  0  0  0  0
   -3.9880   -0.5706    1.7682 H   0  0  0  0  0  0  0  0  0  0  0  0
  1  2  1  0  0  0  0
  2  3  1  0  0  0  0
  2  4  1  0  0  0  0
  4  5  2  0  0  0  0
  4  6  1  0  0  0  0
  6  7  2  0  0  0  0
  7  8  1  0  0  0  0
  8  9  2  0  0  0  0
  9 10  1  0  0  0  0
 10 11  2  0  0  0  0
 11 12  1  0  0  0  0
 12 13  2  0  0  0  0
 13 14  1  0  0  0  0
 14 15  2  0  0  0  0
 15 16  1  0  0  0  0
 16 17  1  0  0  0  0
 16 18  1  0  0  0  0
 15 19  1  0  0  0  0
 19 20  2  0  0  0  0
 20 21  1  0  0  0  0
  9 22  1  0  0  0  0
 22 23  2  0  0  0  0
 23  6  1  0  0  0  0
 21 10  1  0  0  0  0
 20 12  1  0  0  0  0
  1 24  1  0  0  0  0
  1 25  1  0  0  0  0
  1 26  1  0  0  0  0
  3 27  1  0  0  0  0
  3 28  1  0  0  0  0
  3 29  1  0  0  0  0
  7 30  1  0  0  0  0
  8 31  1  0  0  0  0
 13 32  1  0  0  0  0
 14 33  1  0  0  0  0
 17 34  1  0  0  0  0
 17 35  1  0  0  0  0
 17 36  1  0  0  0  0
 18 37  1  0  0  0  0
 18 38  1  0  0  0  0
 18 39  1  0  0  0  0
 19 40  1  0  0  0  0
 22 41  1  0  0  0  0
 23 42  1  0  0  0  0
M  END
