
  xtb     03022213113D
 energy: -75.255600517989 gnorm: 0.000096353537 xtb: 6.4.1 (afa7bdf)
 47 52  0     0  0            999 V2000
    6.5437    2.6257    3.9370 N   0  0  0  0  0  0  0  0  0  0  0  0
    5.6811    2.2768    3.2664 C   0  0  0  0  0  0  0  0  0  0  0  0
    4.6195    1.8477    2.4406 C   0  0  0  0  0  0  0  0  0  0  0  0
    4.2582    2.5980    1.3197 C   0  0  0  0  0  0  0  0  0  0  0  0
    3.2199    2.1809    0.5153 C   0  0  0  0  0  0  0  0  0  0  0  0
    2.5298    1.0043    0.8127 C   0  0  0  0  0  0  0  0  0  0  0  0
    1.4762    0.5754    0.0127 N   0  0  0  0  0  0  0  0  0  0  0  0
    1.4470    0.5240   -1.3715 C   0  0  0  0  0  0  0  0  0  0  0  0
    2.4462    0.8353   -2.2825 C   0  0  0  0  0  0  0  0  0  0  0  0
    2.1727    0.6880   -3.6279 C   0  0  0  0  0  0  0  0  0  0  0  0
    0.9314    0.2337   -4.0714 C   0  0  0  0  0  0  0  0  0  0  0  0
   -0.0580   -0.1195   -3.1795 C   0  0  0  0  0  0  0  0  0  0  0  0
    0.1954    0.0044   -1.8155 C   0  0  0  0  0  0  0  0  0  0  0  0
   -0.5260   -0.2774   -0.6248 C   0  0  0  0  0  0  0  0  0  0  0  0
    0.2660    0.0802    0.4607 C   0  0  0  0  0  0  0  0  0  0  0  0
   -0.4984   -0.0960    1.6434 C   0  0  0  0  0  0  0  0  0  0  0  0
   -0.2897    0.1086    3.0068 C   0  0  0  0  0  0  0  0  0  0  0  0
   -1.2962   -0.2182    3.8882 C   0  0  0  0  0  0  0  0  0  0  0  0
   -2.5021   -0.7590    3.4404 C   0  0  0  0  0  0  0  0  0  0  0  0
   -2.7458   -0.9550    2.0970 C   0  0  0  0  0  0  0  0  0  0  0  0
   -1.7559   -0.5981    1.1911 C   0  0  0  0  0  0  0  0  0  0  0  0
   -1.7620   -0.6940   -0.1862 N   0  0  0  0  0  0  0  0  0  0  0  0
   -2.8125   -1.1470   -0.9940 C   0  0  0  0  0  0  0  0  0  0  0  0
   -2.5578   -2.0809   -1.9942 C   0  0  0  0  0  0  0  0  0  0  0  0
   -3.5868   -2.5212   -2.8053 C   0  0  0  0  0  0  0  0  0  0  0  0
   -4.8742   -2.0443   -2.6206 C   0  0  0  0  0  0  0  0  0  0  0  0
   -5.1289   -1.1173   -1.6236 C   0  0  0  0  0  0  0  0  0  0  0  0
   -4.1045   -0.6625   -0.8139 C   0  0  0  0  0  0  0  0  0  0  0  0
    2.8932    0.2563    1.9346 C   0  0  0  0  0  0  0  0  0  0  0  0
    3.9264    0.6735    2.7442 C   0  0  0  0  0  0  0  0  0  0  0  0
    4.7896    3.5112    1.0959 H   0  0  0  0  0  0  0  0  0  0  0  0
    2.9183    2.7756   -0.3331 H   0  0  0  0  0  0  0  0  0  0  0  0
    3.4178    1.1719   -1.9542 H   0  0  0  0  0  0  0  0  0  0  0  0
    2.9365    0.9300   -4.3516 H   0  0  0  0  0  0  0  0  0  0  0  0
    0.7506    0.1461   -5.1322 H   0  0  0  0  0  0  0  0  0  0  0  0
   -1.0129   -0.4840   -3.5269 H   0  0  0  0  0  0  0  0  0  0  0  0
    0.6415    0.5221    3.3641 H   0  0  0  0  0  0  0  0  0  0  0  0
   -1.1494   -0.0632    4.9466 H   0  0  0  0  0  0  0  0  0  0  0  0
   -3.2602   -1.0267    4.1611 H   0  0  0  0  0  0  0  0  0  0  0  0
   -3.6781   -1.3822    1.7601 H   0  0  0  0  0  0  0  0  0  0  0  0
   -1.5550   -2.4610   -2.1208 H   0  0  0  0  0  0  0  0  0  0  0  0
   -3.3838   -3.2453   -3.5804 H   0  0  0  0  0  0  0  0  0  0  0  0
   -5.6764   -2.3927   -3.2533 H   0  0  0  0  0  0  0  0  0  0  0  0
   -6.1299   -0.7378   -1.4812 H   0  0  0  0  0  0  0  0  0  0  0  0
   -4.2948    0.0800   -0.0537 H   0  0  0  0  0  0  0  0  0  0  0  0
    2.3658   -0.6604    2.1504 H   0  0  0  0  0  0  0  0  0  0  0  0
    4.2123    0.0939    3.6095 H   0  0  0  0  0  0  0  0  0  0  0  0
  1  2  3  0  0  0  0
  2  3  1  0  0  0  0
  3  4  2  0  0  0  0
  4  5  1  0  0  0  0
  5  6  2  0  0  0  0
  6  7  1  0  0  0  0
  7  8  1  0  0  0  0
  8  9  2  0  0  0  0
  9 10  1  0  0  0  0
 10 11  2  0  0  0  0
 11 12  1  0  0  0  0
 12 13  2  0  0  0  0
 13 14  1  0  0  0  0
 14 15  2  0  0  0  0
 15 16  1  0  0  0  0
 16 17  2  0  0  0  0
 17 18  1  0  0  0  0
 18 19  2  0  0  0  0
 19 20  1  0  0  0  0
 20 21  2  0  0  0  0
 21 22  1  0  0  0  0
 22 23  1  0  0  0  0
 23 24  2  0  0  0  0
 24 25  1  0  0  0  0
 25 26  2  0  0  0  0
 26 27  1  0  0  0  0
 27 28  2  0  0  0  0
  6 29  1  0  0  0  0
 29 30  2  0  0  0  0
 30  3  1  0  0  0  0
 15  7  1  0  0  0  0
 21 16  1  0  0  0  0
 28 23  1  0  0  0  0
 13  8  1  0  0  0  0
 22 14  1  0  0  0  0
  4 31  1  0  0  0  0
  5 32  1  0  0  0  0
  9 33  1  0  0  0  0
 10 34  1  0  0  0  0
 11 35  1  0  0  0  0
 12 36  1  0  0  0  0
 17 37  1  0  0  0  0
 18 38  1  0  0  0  0
 19 39  1  0  0  0  0
 20 40  1  0  0  0  0
 24 41  1  0  0  0  0
 25 42  1  0  0  0  0
 26 43  1  0  0  0  0
 27 44  1  0  0  0  0
 28 45  1  0  0  0  0
 29 46  1  0  0  0  0
 30 47  1  0  0  0  0
M  END
