
  xtb     03022212323D
 energy: -60.917953733907 gnorm: 0.000203441205 xtb: 6.4.1 (afa7bdf)
 33 35  0     0  0            999 V2000
    2.0262    3.7540   -1.0160 F   0  0  0  0  0  0  0  0  0  0  0  0
    1.8211    2.9228    0.0401 B   0  0  0  0  0  4  0  0  0  0  0  0
    2.0731    3.5298    1.2363 F   0  0  0  0  0  0  0  0  0  0  0  0
    0.3835    2.4791    0.0295 O   0  0  0  0  0  0  0  0  0  0  0  0
    0.0659    1.2334    0.0325 C   0  0  0  0  0  0  0  0  0  0  0  0
   -1.3106    0.9147    0.0795 C   0  0  0  0  0  0  0  0  0  0  0  0
   -2.4962    0.6766    0.1208 C   0  0  0  0  0  0  0  0  0  0  0  0
   -3.8698    0.3730    0.1696 C   0  0  0  0  0  0  0  0  0  0  0  0
   -4.8138    1.3973    0.0538 C   0  0  0  0  0  0  0  0  0  0  0  0
   -6.1607    1.0969    0.1025 C   0  0  0  0  0  0  0  0  0  0  0  0
   -6.5778   -0.2153    0.2690 C   0  0  0  0  0  0  0  0  0  0  0  0
   -5.6441   -1.2341    0.3859 C   0  0  0  0  0  0  0  0  0  0  0  0
   -4.2942   -0.9484    0.3356 C   0  0  0  0  0  0  0  0  0  0  0  0
    1.0000    0.1958   -0.0174 C   0  0  0  0  0  0  0  0  0  0  0  0
    2.3521    0.5260   -0.0938 C   0  0  0  0  0  0  0  0  0  0  0  0
    3.4021   -0.4986   -0.1678 C   0  0  0  0  0  0  0  0  0  0  0  0
    4.6989   -0.1558    0.2214 C   0  0  0  0  0  0  0  0  0  0  0  0
    5.7135   -1.0912    0.1711 C   0  0  0  0  0  0  0  0  0  0  0  0
    5.4512   -2.3757   -0.2787 C   0  0  0  0  0  0  0  0  0  0  0  0
    4.1701   -2.7201   -0.6815 C   0  0  0  0  0  0  0  0  0  0  0  0
    3.1478   -1.7921   -0.6261 C   0  0  0  0  0  0  0  0  0  0  0  0
    2.7557    1.7482   -0.0906 O   0  0  0  0  0  3  0  0  0  0  0  0
   -4.4770    2.4148   -0.0747 H   0  0  0  0  0  0  0  0  0  0  0  0
   -6.8904    1.8874    0.0114 H   0  0  0  0  0  0  0  0  0  0  0  0
   -7.6322   -0.4446    0.3082 H   0  0  0  0  0  0  0  0  0  0  0  0
   -5.9724   -2.2546    0.5165 H   0  0  0  0  0  0  0  0  0  0  0  0
   -3.5594   -1.7346    0.4265 H   0  0  0  0  0  0  0  0  0  0  0  0
    0.6647   -0.8241    0.0138 H   0  0  0  0  0  0  0  0  0  0  0  0
    4.8863    0.8487    0.5680 H   0  0  0  0  0  0  0  0  0  0  0  0
    6.7114   -0.8194    0.4802 H   0  0  0  0  0  0  0  0  0  0  0  0
    6.2444   -3.1071   -0.3211 H   0  0  0  0  0  0  0  0  0  0  0  0
    3.9691   -3.7171   -1.0442 H   0  0  0  0  0  0  0  0  0  0  0  0
    2.1616   -2.0660   -0.9665 H   0  0  0  0  0  0  0  0  0  0  0  0
  1  2  1  0  0  0  0
  2  3  1  0  0  0  0
  2  4  1  0  0  0  0
  4  5  1  0  0  0  0
  5  6  1  0  0  0  0
  6  7  3  0  0  0  0
  7  8  1  0  0  0  0
  8  9  2  0  0  0  0
  9 10  1  0  0  0  0
 10 11  2  0  0  0  0
 11 12  1  0  0  0  0
 12 13  2  0  0  0  0
  5 14  2  0  0  0  0
 14 15  1  0  0  0  0
 15 16  1  0  0  0  0
 16 17  2  0  0  0  0
 17 18  1  0  0  0  0
 18 19  2  0  0  0  0
 19 20  1  0  0  0  0
 20 21  2  0  0  0  0
 15 22  2  0  0  0  0
 22  2  1  0  0  0  0
 13  8  1  0  0  0  0
 21 16  1  0  0  0  0
  9 23  1  0  0  0  0
 10 24  1  0  0  0  0
 11 25  1  0  0  0  0
 12 26  1  0  0  0  0
 13 27  1  0  0  0  0
 14 28  1  0  0  0  0
 17 29  1  0  0  0  0
 18 30  1  0  0  0  0
 19 31  1  0  0  0  0
 20 32  1  0  0  0  0
 21 33  1  0  0  0  0
M  CHG  1   2  -1
M  CHG  1  22   1
M  END
