
  xtb     03022213523D
 energy: -113.954635925660 gnorm: 0.000145380399 xtb: 6.4.1 (afa7bdf)
 69 73  0     0  0            999 V2000
   -1.9438    4.1699    2.1749 C   0  0  0  0  0  0  0  0  0  0  0  0
   -2.5077    2.8613    2.7096 C   0  0  0  0  0  0  0  0  0  0  0  0
   -2.5886    1.8746    1.6833 O   0  0  0  0  0  0  0  0  0  0  0  0
   -1.5011    1.1163    1.4803 C   0  0  0  0  0  0  0  0  0  0  0  0
   -0.4680    1.2498    2.0917 O   0  0  0  0  0  0  0  0  0  0  0  0
   -1.7615    0.1272    0.4311 C   0  0  0  0  0  0  0  0  0  0  0  0
   -0.8756   -0.4843   -0.5036 C   0  0  0  0  0  0  0  0  0  0  0  0
    0.5598   -0.3211   -0.6660 C   0  0  0  0  0  0  0  0  0  0  0  0
    1.4207   -0.2328    0.3788 C   0  0  0  0  0  0  0  0  0  0  0  0
    2.8186   -0.0856    0.1516 C   0  0  0  0  0  0  0  0  0  0  0  0
    3.7641    0.0247    1.1755 C   0  0  0  0  0  0  0  0  0  0  0  0
    5.1095    0.1498    0.9110 C   0  0  0  0  0  0  0  0  0  0  0  0
    5.5446    0.1585   -0.4281 C   0  0  0  0  0  0  0  0  0  0  0  0
    4.6184    0.0654   -1.4624 C   0  0  0  0  0  0  0  0  0  0  0  0
    3.2672   -0.0523   -1.1799 C   0  0  0  0  0  0  0  0  0  0  0  0
    2.4032   -0.1329   -2.2168 O   0  0  0  0  0  0  0  0  0  0  0  0
    1.0503   -0.2530   -2.0490 C   0  0  0  0  0  0  0  0  0  0  0  0
    0.3671   -0.2676   -3.0406 O   0  0  0  0  0  0  0  0  0  0  0  0
    6.8352    0.2786   -0.7985 O   0  0  0  0  0  0  0  0  0  0  0  0
    7.8494    0.1700    0.2068 C   0  0  0  0  0  0  0  0  0  0  0  0
    8.1337   -1.3139    0.4633 C   0  0  0  0  0  0  0  0  0  0  0  0
    9.0850    0.8459   -0.3880 C   0  0  0  0  0  0  0  0  0  0  0  0
    7.4033    0.8956    1.4811 C   0  0  0  0  0  0  0  0  0  0  0  0
    6.1109    0.2946    2.0233 C   0  0  0  0  0  0  0  0  0  0  0  0
   -1.5625   -1.2460   -1.3342 N   0  0  0  0  0  0  0  0  0  0  0  0
   -2.8394   -1.1618   -0.9928 N   0  0  0  0  0  0  0  0  0  0  0  0
   -3.8016   -1.8961   -1.7025 C   0  0  0  0  0  0  0  0  0  0  0  0
   -3.5781   -2.1413   -3.0514 C   0  0  0  0  0  0  0  0  0  0  0  0
   -4.5207   -2.8563   -3.7670 C   0  0  0  0  0  0  0  0  0  0  0  0
   -5.6684   -3.3179   -3.1472 C   0  0  0  0  0  0  0  0  0  0  0  0
   -5.8872   -3.0918   -1.7917 C   0  0  0  0  0  0  0  0  0  0  0  0
   -7.1239   -3.6148   -1.1273 C   0  0  0  0  0  0  0  0  0  0  0  0
   -4.9382   -2.3837   -1.0702 C   0  0  0  0  0  0  0  0  0  0  0  0
   -3.0214   -0.3372    0.0643 C   0  0  0  0  0  0  0  0  0  0  0  0
   -4.3399    0.0212    0.6398 C   0  0  0  0  0  0  0  0  0  0  0  0
   -4.6679   -0.1684    1.7816 O   0  0  0  0  0  0  0  0  0  0  0  0
   -5.1105    0.5761   -0.2978 O   0  0  0  0  0  0  0  0  0  0  0  0
   -6.4103    1.0098    0.1049 C   0  0  0  0  0  0  0  0  0  0  0  0
   -6.3538    2.3842    0.7544 C   0  0  0  0  0  0  0  0  0  0  0  0
   -0.9210    4.0213    1.8369 H   0  0  0  0  0  0  0  0  0  0  0  0
   -1.9502    4.9187    2.9619 H   0  0  0  0  0  0  0  0  0  0  0  0
   -2.5429    4.5247    1.3396 H   0  0  0  0  0  0  0  0  0  0  0  0
   -3.5323    2.9878    3.0663 H   0  0  0  0  0  0  0  0  0  0  0  0
   -1.8777    2.4787    3.5192 H   0  0  0  0  0  0  0  0  0  0  0  0
    1.0587   -0.2704    1.3945 H   0  0  0  0  0  0  0  0  0  0  0  0
    3.4187    0.0202    2.1989 H   0  0  0  0  0  0  0  0  0  0  0  0
    4.9584    0.0875   -2.4842 H   0  0  0  0  0  0  0  0  0  0  0  0
    8.8453   -1.4268    1.2767 H   0  0  0  0  0  0  0  0  0  0  0  0
    7.2179   -1.8435    0.7134 H   0  0  0  0  0  0  0  0  0  0  0  0
    8.5491   -1.7657   -0.4341 H   0  0  0  0  0  0  0  0  0  0  0  0
    9.9290    0.7467    0.2883 H   0  0  0  0  0  0  0  0  0  0  0  0
    9.3330    0.3831   -1.3391 H   0  0  0  0  0  0  0  0  0  0  0  0
    8.8889    1.9008   -0.5610 H   0  0  0  0  0  0  0  0  0  0  0  0
    7.2340    1.9462    1.2329 H   0  0  0  0  0  0  0  0  0  0  0  0
    8.1963    0.8442    2.2273 H   0  0  0  0  0  0  0  0  0  0  0  0
    5.6989    0.9343    2.8063 H   0  0  0  0  0  0  0  0  0  0  0  0
    6.3082   -0.6815    2.4758 H   0  0  0  0  0  0  0  0  0  0  0  0
   -2.6739   -1.7696   -3.5062 H   0  0  0  0  0  0  0  0  0  0  0  0
   -4.3603   -3.0503   -4.8166 H   0  0  0  0  0  0  0  0  0  0  0  0
   -6.4033   -3.8699   -3.7147 H   0  0  0  0  0  0  0  0  0  0  0  0
   -8.0120   -3.1908   -1.5945 H   0  0  0  0  0  0  0  0  0  0  0  0
   -7.1341   -3.3655   -0.0695 H   0  0  0  0  0  0  0  0  0  0  0  0
   -7.1800   -4.6975   -1.2303 H   0  0  0  0  0  0  0  0  0  0  0  0
   -5.0757   -2.2305   -0.0098 H   0  0  0  0  0  0  0  0  0  0  0  0
   -6.9983    1.0265   -0.8149 H   0  0  0  0  0  0  0  0  0  0  0  0
   -6.8281    0.2769    0.8033 H   0  0  0  0  0  0  0  0  0  0  0  0
   -7.3581    2.7126    1.0062 H   0  0  0  0  0  0  0  0  0  0  0  0
   -5.7572    2.3361    1.6618 H   0  0  0  0  0  0  0  0  0  0  0  0
   -5.9020    3.1014    0.0737 H   0  0  0  0  0  0  0  0  0  0  0  0
  1  2  1  0  0  0  0
  2  3  1  0  0  0  0
  3  4  1  0  0  0  0
  4  5  2  0  0  0  0
  4  6  1  0  0  0  0
  6  7  1  0  0  0  0
  7  8  1  0  0  0  0
  8  9  2  0  0  0  0
  9 10  1  0  0  0  0
 10 11  2  0  0  0  0
 11 12  1  0  0  0  0
 12 13  2  0  0  0  0
 13 14  1  0  0  0  0
 14 15  2  0  0  0  0
 15 16  1  0  0  0  0
 16 17  1  0  0  0  0
 17 18  2  0  0  0  0
 13 19  1  0  0  0  0
 19 20  1  0  0  0  0
 20 21  1  0  0  0  0
 20 22  1  0  0  0  0
 20 23  1  0  0  0  0
 23 24  1  0  0  0  0
  7 25  2  0  0  0  0
 25 26  1  0  0  0  0
 26 27  1  0  0  0  0
 27 28  2  0  0  0  0
 28 29  1  0  0  0  0
 29 30  2  0  0  0  0
 30 31  1  0  0  0  0
 31 32  1  0  0  0  0
 31 33  2  0  0  0  0
 26 34  1  0  0  0  0
 34 35  1  0  0  0  0
 35 36  2  0  0  0  0
 35 37  1  0  0  0  0
 37 38  1  0  0  0  0
 38 39  1  0  0  0  0
 34  6  2  0  0  0  0
 17  8  1  0  0  0  0
 33 27  1  0  0  0  0
 15 10  1  0  0  0  0
 24 12  1  0  0  0  0
  1 40  1  0  0  0  0
  1 41  1  0  0  0  0
  1 42  1  0  0  0  0
  2 43  1  0  0  0  0
  2 44  1  0  0  0  0
  9 45  1  0  0  0  0
 11 46  1  0  0  0  0
 14 47  1  0  0  0  0
 21 48  1  0  0  0  0
 21 49  1  0  0  0  0
 21 50  1  0  0  0  0
 22 51  1  0  0  0  0
 22 52  1  0  0  0  0
 22 53  1  0  0  0  0
 23 54  1  0  0  0  0
 23 55  1  0  0  0  0
 24 56  1  0  0  0  0
 24 57  1  0  0  0  0
 28 58  1  0  0  0  0
 29 59  1  0  0  0  0
 30 60  1  0  0  0  0
 32 61  1  0  0  0  0
 32 62  1  0  0  0  0
 32 63  1  0  0  0  0
 33 64  1  0  0  0  0
 38 65  1  0  0  0  0
 38 66  1  0  0  0  0
 39 67  1  0  0  0  0
 39 68  1  0  0  0  0
 39 69  1  0  0  0  0
M  END
