
  xtb     03022214323D
 energy: -98.641306597116 gnorm: 0.000088677509 xtb: 6.4.1 (afa7bdf)
 64 67  0     0  0            999 V2000
   -2.4391   -9.2247   -0.0708 C   0  0  0  0  0  0  0  0  0  0  0  0
   -3.3628   -8.1636   -0.0857 O   0  0  0  0  0  0  0  0  0  0  0  0
   -2.8930   -6.8883   -0.0557 C   0  0  0  0  0  0  0  0  0  0  0  0
   -3.8603   -5.8804   -0.0708 C   0  0  0  0  0  0  0  0  0  0  0  0
   -3.4878   -4.5578   -0.0416 C   0  0  0  0  0  0  0  0  0  0  0  0
   -2.1400   -4.1795    0.0045 C   0  0  0  0  0  0  0  0  0  0  0  0
   -1.8076   -2.7705    0.0371 C   0  0  0  0  0  0  0  0  0  0  0  0
   -0.5777   -2.2396    0.0895 C   0  0  0  0  0  0  0  0  0  0  0  0
   -0.2614   -0.8234    0.1217 C   0  0  0  0  0  0  0  0  0  0  0  0
   -1.2127    0.1996    0.1338 C   0  0  0  0  0  0  0  0  0  0  0  0
   -0.7458    1.5151    0.1625 C   0  0  0  0  0  0  0  0  0  0  0  0
   -1.5960    2.6909    0.1764 C   0  0  0  0  0  0  0  0  0  0  0  0
   -2.9368    2.6928    0.1684 C   0  0  0  0  0  0  0  0  0  0  0  0
   -3.7988    3.8561    0.1806 C   0  0  0  0  0  0  0  0  0  0  0  0
   -3.3230    5.1676    0.2098 C   0  0  0  0  0  0  0  0  0  0  0  0
   -4.1824    6.2484    0.2198 C   0  0  0  0  0  0  0  0  0  0  0  0
   -5.5601    6.0484    0.2006 C   0  0  0  0  0  0  0  0  0  0  0  0
   -6.4951    7.0351    0.2077 O   0  0  0  0  0  0  0  0  0  0  0  0
   -6.0643    8.3741    0.2389 C   0  0  0  0  0  0  0  0  0  0  0  0
   -6.0517    4.7410    0.1715 C   0  0  0  0  0  0  0  0  0  0  0  0
   -5.1874    3.6725    0.1621 C   0  0  0  0  0  0  0  0  0  0  0  0
    0.5651    1.7710    0.1788 N   0  0  0  0  0  0  0  0  0  0  0  0
    1.4044    0.7386    0.1691 C   0  0  0  0  0  0  0  0  0  0  0  0
    2.8181    1.0622    0.1903 C   0  0  0  0  0  0  0  0  0  0  0  0
    3.7744    0.1226    0.1891 C   0  0  0  0  0  0  0  0  0  0  0  0
    5.2051    0.3342    0.2081 C   0  0  0  0  0  0  0  0  0  0  0  0
    6.0564   -0.7719    0.1879 C   0  0  0  0  0  0  0  0  0  0  0  0
    7.4311   -0.6357    0.2020 C   0  0  0  0  0  0  0  0  0  0  0  0
    8.0005    0.6331    0.2382 C   0  0  0  0  0  0  0  0  0  0  0  0
    9.3360    0.8931    0.2543 O   0  0  0  0  0  0  0  0  0  0  0  0
   10.2338   -0.1893    0.2319 C   0  0  0  0  0  0  0  0  0  0  0  0
    7.1610    1.7507    0.2606 C   0  0  0  0  0  0  0  0  0  0  0  0
    5.7947    1.6039    0.2458 C   0  0  0  0  0  0  0  0  0  0  0  0
    1.0429   -0.5419    0.1413 N   0  0  0  0  0  0  0  0  0  0  0  0
   -1.1855   -5.1973    0.0174 C   0  0  0  0  0  0  0  0  0  0  0  0
   -1.5485   -6.5293   -0.0122 C   0  0  0  0  0  0  0  0  0  0  0  0
   -1.8301   -9.2153    0.8389 H   0  0  0  0  0  0  0  0  0  0  0  0
   -1.7840   -9.2000   -0.9477 H   0  0  0  0  0  0  0  0  0  0  0  0
   -3.0359  -10.1352   -0.0939 H   0  0  0  0  0  0  0  0  0  0  0  0
   -4.8991   -6.1690   -0.1055 H   0  0  0  0  0  0  0  0  0  0  0  0
   -4.2517   -3.7934   -0.0537 H   0  0  0  0  0  0  0  0  0  0  0  0
   -2.6676   -2.1129    0.0157 H   0  0  0  0  0  0  0  0  0  0  0  0
    0.3011   -2.8676    0.1084 H   0  0  0  0  0  0  0  0  0  0  0  0
   -2.2664   -0.0185    0.1226 H   0  0  0  0  0  0  0  0  0  0  0  0
   -1.0359    3.6143    0.1944 H   0  0  0  0  0  0  0  0  0  0  0  0
   -3.4678    1.7492    0.1504 H   0  0  0  0  0  0  0  0  0  0  0  0
   -2.2606    5.3535    0.2254 H   0  0  0  0  0  0  0  0  0  0  0  0
   -3.7681    7.2444    0.2427 H   0  0  0  0  0  0  0  0  0  0  0  0
   -5.4878    8.5901    1.1442 H   0  0  0  0  0  0  0  0  0  0  0  0
   -6.9720    8.9757    0.2391 H   0  0  0  0  0  0  0  0  0  0  0  0
   -5.4653    8.6247   -0.6426 H   0  0  0  0  0  0  0  0  0  0  0  0
   -7.1206    4.5967    0.1568 H   0  0  0  0  0  0  0  0  0  0  0  0
   -5.5881    2.6690    0.1397 H   0  0  0  0  0  0  0  0  0  0  0  0
    3.0324    2.1196    0.2071 H   0  0  0  0  0  0  0  0  0  0  0  0
    3.4493   -0.9098    0.1703 H   0  0  0  0  0  0  0  0  0  0  0  0
    5.6289   -1.7641    0.1595 H   0  0  0  0  0  0  0  0  0  0  0  0
    8.0471   -1.5214    0.1847 H   0  0  0  0  0  0  0  0  0  0  0  0
   10.1102   -0.8329    1.1090 H   0  0  0  0  0  0  0  0  0  0  0  0
   10.1195   -0.7882   -0.6775 H   0  0  0  0  0  0  0  0  0  0  0  0
   11.2290    0.2524    0.2481 H   0  0  0  0  0  0  0  0  0  0  0  0
    7.6171    2.7280    0.2897 H   0  0  0  0  0  0  0  0  0  0  0  0
    5.1716    2.4838    0.2642 H   0  0  0  0  0  0  0  0  0  0  0  0
   -0.1363   -4.9496    0.0509 H   0  0  0  0  0  0  0  0  0  0  0  0
   -0.7751   -7.2815   -0.0011 H   0  0  0  0  0  0  0  0  0  0  0  0
  1  2  1  0  0  0  0
  2  3  1  0  0  0  0
  3  4  2  0  0  0  0
  4  5  1  0  0  0  0
  5  6  2  0  0  0  0
  6  7  1  0  0  0  0
  7  8  2  0  0  0  0
  8  9  1  0  0  0  0
  9 10  2  0  0  0  0
 10 11  1  0  0  0  0
 11 12  1  0  0  0  0
 12 13  2  0  0  0  0
 13 14  1  0  0  0  0
 14 15  2  0  0  0  0
 15 16  1  0  0  0  0
 16 17  2  0  0  0  0
 17 18  1  0  0  0  0
 18 19  1  0  0  0  0
 17 20  1  0  0  0  0
 20 21  2  0  0  0  0
 11 22  2  0  0  0  0
 22 23  1  0  0  0  0
 23 24  1  0  0  0  0
 24 25  2  0  0  0  0
 25 26  1  0  0  0  0
 26 27  2  0  0  0  0
 27 28  1  0  0  0  0
 28 29  2  0  0  0  0
 29 30  1  0  0  0  0
 30 31  1  0  0  0  0
 29 32  1  0  0  0  0
 32 33  2  0  0  0  0
 23 34  2  0  0  0  0
  6 35  1  0  0  0  0
 35 36  2  0  0  0  0
 36  3  1  0  0  0  0
 34  9  1  0  0  0  0
 21 14  1  0  0  0  0
 33 26  1  0  0  0  0
  1 37  1  0  0  0  0
  1 38  1  0  0  0  0
  1 39  1  0  0  0  0
  4 40  1  0  0  0  0
  5 41  1  0  0  0  0
  7 42  1  0  0  0  0
  8 43  1  0  0  0  0
 10 44  1  0  0  0  0
 12 45  1  0  0  0  0
 13 46  1  0  0  0  0
 15 47  1  0  0  0  0
 16 48  1  0  0  0  0
 19 49  1  0  0  0  0
 19 50  1  0  0  0  0
 19 51  1  0  0  0  0
 20 52  1  0  0  0  0
 21 53  1  0  0  0  0
 24 54  1  0  0  0  0
 25 55  1  0  0  0  0
 27 56  1  0  0  0  0
 28 57  1  0  0  0  0
 31 58  1  0  0  0  0
 31 59  1  0  0  0  0
 31 60  1  0  0  0  0
 32 61  1  0  0  0  0
 33 62  1  0  0  0  0
 35 63  1  0  0  0  0
 36 64  1  0  0  0  0
M  END
