
  xtb     03022214093D
 energy: -55.763358942718 gnorm: 0.000102905490 xtb: 6.4.1 (afa7bdf)
 29 31  0     0  0            999 V2000
    5.2805    0.1432    0.2857 C   0  0  0  0  0  0  0  0  0  0  0  0
    4.2681   -0.6273    1.5817 S   0  0  0  0  0  0  0  0  0  0  0  0
    2.6321   -0.3005    1.0896 C   0  0  0  0  0  0  0  0  0  0  0  0
    1.5226    0.0873    2.3623 S   0  0  0  0  0  0  0  0  0  0  0  0
    0.1849    0.2034    1.2691 C   0  0  0  0  0  0  0  0  0  0  0  0
   -1.1117    0.6006    1.8205 C   0  0  0  0  0  0  0  0  0  0  0  0
   -1.1758    1.1130    2.9222 O   0  0  0  0  0  0  0  0  0  0  0  0
   -2.3020    0.3627    0.9730 C   0  0  0  0  0  0  0  0  0  0  0  0
   -2.4627   -0.8148    0.2481 C   0  0  0  0  0  0  0  0  0  0  0  0
   -3.6054   -1.0098   -0.5041 C   0  0  0  0  0  0  0  0  0  0  0  0
   -4.5878   -0.0336   -0.5461 C   0  0  0  0  0  0  0  0  0  0  0  0
   -4.4399    1.1324    0.1875 C   0  0  0  0  0  0  0  0  0  0  0  0
   -3.3076    1.3256    0.9552 C   0  0  0  0  0  0  0  0  0  0  0  0
    0.6002   -0.0050   -0.0333 C   0  0  0  0  0  0  0  0  0  0  0  0
   -0.2109    0.1016   -1.1318 N   0  0  0  0  0  0  0  0  0  0  0  0
    0.2358   -0.1421   -2.2593 N   0  0  0  0  0  0  0  0  0  0  0  0
    1.4995   -0.5375   -2.4278 N   0  0  0  0  0  0  0  0  0  0  0  0
    2.4909   -0.6854   -1.4581 C   0  0  0  0  0  0  0  0  0  0  0  0
    3.5863   -1.0971   -1.7792 O   0  0  0  0  0  0  0  0  0  0  0  0
    1.9978   -0.3195   -0.1431 C   0  0  0  0  0  0  0  0  0  0  0  0
    6.3089   -0.0205    0.5902 H   0  0  0  0  0  0  0  0  0  0  0  0
    5.0610    1.2058    0.2537 H   0  0  0  0  0  0  0  0  0  0  0  0
    5.0850   -0.3324   -0.6707 H   0  0  0  0  0  0  0  0  0  0  0  0
   -1.7116   -1.5885    0.2995 H   0  0  0  0  0  0  0  0  0  0  0  0
   -3.7312   -1.9262   -1.0611 H   0  0  0  0  0  0  0  0  0  0  0  0
   -5.4739   -0.1862   -1.1444 H   0  0  0  0  0  0  0  0  0  0  0  0
   -5.2103    1.8887    0.1640 H   0  0  0  0  0  0  0  0  0  0  0  0
   -3.1792    2.2242    1.5398 H   0  0  0  0  0  0  0  0  0  0  0  0
    1.7561   -0.7623   -3.3829 H   0  0  0  0  0  0  0  0  0  0  0  0
  1  2  1  0  0  0  0
  2  3  1  0  0  0  0
  3  4  1  0  0  0  0
  4  5  1  0  0  0  0
  5  6  1  0  0  0  0
  6  7  2  0  0  0  0
  6  8  1  0  0  0  0
  8  9  2  0  0  0  0
  9 10  1  0  0  0  0
 10 11  2  0  0  0  0
 11 12  1  0  0  0  0
 12 13  2  0  0  0  0
  5 14  2  0  0  0  0
 14 15  1  0  0  0  0
 15 16  2  0  0  0  0
 16 17  1  0  0  0  0
 17 18  1  0  0  0  0
 18 19  2  0  0  0  0
 18 20  1  0  0  0  0
 20  3  2  0  0  0  0
 13  8  1  0  0  0  0
 20 14  1  0  0  0  0
  1 21  1  0  0  0  0
  1 22  1  0  0  0  0
  1 23  1  0  0  0  0
  9 24  1  0  0  0  0
 10 25  1  0  0  0  0
 11 26  1  0  0  0  0
 12 27  1  0  0  0  0
 13 28  1  0  0  0  0
 17 29  1  0  0  0  0
M  END
