
  xtb     03022212453D
 energy: -130.884957705199 gnorm: 0.000180595491 xtb: 6.4.1 (afa7bdf)
 84 94  0     0  0            999 V2000
   -1.6922   -0.9425   -2.1101 C   0  0  0  0  0  0  0  0  0  0  0  0
   -1.4314    0.1566   -1.1334 C   0  0  0  0  0  0  0  0  0  0  0  0
   -0.1500    0.6807   -1.0522 C   0  0  0  0  0  0  0  0  0  0  0  0
    0.1738    1.7074   -0.1718 C   0  0  0  0  0  0  0  0  0  0  0  0
    1.4800    2.1998   -0.1164 N   0  0  0  0  0  0  0  0  0  0  0  0
    1.8465    3.5319   -0.1509 C   0  0  0  0  0  0  0  0  0  0  0  0
    1.0575    4.6638   -0.2955 C   0  0  0  0  0  0  0  0  0  0  0  0
    1.6907    5.8915   -0.3318 C   0  0  0  0  0  0  0  0  0  0  0  0
    3.0764    5.9988   -0.2380 C   0  0  0  0  0  0  0  0  0  0  0  0
    3.8686    4.8744   -0.1216 C   0  0  0  0  0  0  0  0  0  0  0  0
    3.2551    3.6292   -0.0820 C   0  0  0  0  0  0  0  0  0  0  0  0
    3.7549    2.2864    0.0064 C   0  0  0  0  0  0  0  0  0  0  0  0
    5.0366    1.7557    0.1197 C   0  0  0  0  0  0  0  0  0  0  0  0
    5.1611    0.3887    0.2099 C   0  0  0  0  0  0  0  0  0  0  0  0
    4.0343   -0.4474    0.2076 C   0  0  0  0  0  0  0  0  0  0  0  0
    2.7570    0.0561    0.0980 C   0  0  0  0  0  0  0  0  0  0  0  0
    2.6276    1.4352   -0.0226 C   0  0  0  0  0  0  0  0  0  0  0  0
    4.3783   -1.9121    0.3373 C   0  0  0  0  0  0  0  0  0  0  0  0
    5.2051   -2.0202    1.5961 C   0  0  0  0  0  0  0  0  0  0  0  0
    4.9404   -2.8363    2.6762 C   0  0  0  0  0  0  0  0  0  0  0  0
    5.8049   -2.8214    3.7620 C   0  0  0  0  0  0  0  0  0  0  0  0
    6.9172   -1.9989    3.7616 C   0  0  0  0  0  0  0  0  0  0  0  0
    7.1843   -1.1770    2.6756 C   0  0  0  0  0  0  0  0  0  0  0  0
    6.3263   -1.1909    1.5956 C   0  0  0  0  0  0  0  0  0  0  0  0
    6.4630   -0.3683    0.3369 C   0  0  0  0  0  0  0  0  0  0  0  0
    6.4573   -1.3680   -0.7943 C   0  0  0  0  0  0  0  0  0  0  0  0
    7.4275   -1.5058   -1.7651 C   0  0  0  0  0  0  0  0  0  0  0  0
    7.2734   -2.4800   -2.7416 C   0  0  0  0  0  0  0  0  0  0  0  0
    6.1611   -3.3027   -2.7421 C   0  0  0  0  0  0  0  0  0  0  0  0
    5.1839   -3.1652   -1.7660 C   0  0  0  0  0  0  0  0  0  0  0  0
    5.3362   -2.1977   -0.7946 C   0  0  0  0  0  0  0  0  0  0  0  0
   -0.8186    2.2343    0.6525 C   0  0  0  0  0  0  0  0  0  0  0  0
   -2.0947    1.7273    0.5787 C   0  0  0  0  0  0  0  0  0  0  0  0
   -2.4283    0.6910   -0.2995 C   0  0  0  0  0  0  0  0  0  0  0  0
   -3.8179    0.2309   -0.2816 C   0  0  0  0  0  0  0  0  0  0  0  0
   -4.2175   -0.7437   -1.0935 N   0  0  0  0  0  0  0  0  0  0  0  0
   -5.4982   -1.0963   -1.0062 C   0  0  0  0  0  0  0  0  0  0  0  0
   -5.9839   -2.1623   -1.8853 C   0  0  0  0  0  0  0  0  0  0  0  0
   -5.1319   -2.7668   -2.8071 C   0  0  0  0  0  0  0  0  0  0  0  0
   -5.6035   -3.7692   -3.6325 C   0  0  0  0  0  0  0  0  0  0  0  0
   -6.9250   -4.1780   -3.5467 C   0  0  0  0  0  0  0  0  0  0  0  0
   -7.7772   -3.5808   -2.6308 C   0  0  0  0  0  0  0  0  0  0  0  0
   -7.3118   -2.5777   -1.8034 C   0  0  0  0  0  0  0  0  0  0  0  0
   -6.3700   -0.5424   -0.1710 N   0  0  0  0  0  0  0  0  0  0  0  0
   -5.8910    0.4254    0.6075 C   0  0  0  0  0  0  0  0  0  0  0  0
   -6.8106    1.0699    1.5466 C   0  0  0  0  0  0  0  0  0  0  0  0
   -6.3608    2.0913    2.3807 C   0  0  0  0  0  0  0  0  0  0  0  0
   -7.2321    2.6968    3.2650 C   0  0  0  0  0  0  0  0  0  0  0  0
   -8.5558    2.2899    3.3255 C   0  0  0  0  0  0  0  0  0  0  0  0
   -9.0085    1.2741    2.4981 C   0  0  0  0  0  0  0  0  0  0  0  0
   -8.1421    0.6649    1.6113 C   0  0  0  0  0  0  0  0  0  0  0  0
   -4.6320    0.8407    0.5830 N   0  0  0  0  0  0  0  0  0  0  0  0
   -2.4518   -0.6343   -2.8254 H   0  0  0  0  0  0  0  0  0  0  0  0
   -2.0706   -1.8219   -1.5932 H   0  0  0  0  0  0  0  0  0  0  0  0
   -0.7813   -1.2031   -2.6449 H   0  0  0  0  0  0  0  0  0  0  0  0
    0.6201    0.2968   -1.7059 H   0  0  0  0  0  0  0  0  0  0  0  0
   -0.0154    4.5915   -0.3901 H   0  0  0  0  0  0  0  0  0  0  0  0
    1.0976    6.7877   -0.4397 H   0  0  0  0  0  0  0  0  0  0  0  0
    3.5331    6.9769   -0.2677 H   0  0  0  0  0  0  0  0  0  0  0  0
    4.9437    4.9557   -0.0672 H   0  0  0  0  0  0  0  0  0  0  0  0
    5.9020    2.4007    0.1406 H   0  0  0  0  0  0  0  0  0  0  0  0
    1.8962   -0.5948    0.1207 H   0  0  0  0  0  0  0  0  0  0  0  0
    3.5028   -2.5615    0.3380 H   0  0  0  0  0  0  0  0  0  0  0  0
    4.0718   -3.4790    2.6768 H   0  0  0  0  0  0  0  0  0  0  0  0
    5.6064   -3.4575    4.6120 H   0  0  0  0  0  0  0  0  0  0  0  0
    7.5837   -1.9953    4.6115 H   0  0  0  0  0  0  0  0  0  0  0  0
    8.0533   -0.5348    2.6757 H   0  0  0  0  0  0  0  0  0  0  0  0
    7.3390    0.2799    0.3370 H   0  0  0  0  0  0  0  0  0  0  0  0
    8.2965   -0.8637   -1.7649 H   0  0  0  0  0  0  0  0  0  0  0  0
    8.0283   -2.5957   -3.5053 H   0  0  0  0  0  0  0  0  0  0  0  0
    6.0511   -4.0581   -3.5061 H   0  0  0  0  0  0  0  0  0  0  0  0
    4.3157   -3.8086   -1.7663 H   0  0  0  0  0  0  0  0  0  0  0  0
   -0.5763    3.0169    1.3548 H   0  0  0  0  0  0  0  0  0  0  0  0
   -2.8725    2.1188    1.2141 H   0  0  0  0  0  0  0  0  0  0  0  0
   -4.1066   -2.4395   -2.8643 H   0  0  0  0  0  0  0  0  0  0  0  0
   -4.9401   -4.2349   -4.3467 H   0  0  0  0  0  0  0  0  0  0  0  0
   -7.2910   -4.9619   -4.1937 H   0  0  0  0  0  0  0  0  0  0  0  0
   -8.8069   -3.9002   -2.5645 H   0  0  0  0  0  0  0  0  0  0  0  0
   -7.9609   -2.1019   -1.0853 H   0  0  0  0  0  0  0  0  0  0  0  0
   -5.3278    2.3954    2.3211 H   0  0  0  0  0  0  0  0  0  0  0  0
   -6.8812    3.4886    3.9107 H   0  0  0  0  0  0  0  0  0  0  0  0
   -9.2353    2.7650    4.0182 H   0  0  0  0  0  0  0  0  0  0  0  0
  -10.0404    0.9584    2.5468 H   0  0  0  0  0  0  0  0  0  0  0  0
   -8.4766   -0.1269    0.9596 H   0  0  0  0  0  0  0  0  0  0  0  0
  1  2  1  0  0  0  0
  2  3  2  0  0  0  0
  3  4  1  0  0  0  0
  4  5  1  0  0  0  0
  5  6  1  0  0  0  0
  6  7  2  0  0  0  0
  7  8  1  0  0  0  0
  8  9  2  0  0  0  0
  9 10  1  0  0  0  0
 10 11  2  0  0  0  0
 11 12  1  0  0  0  0
 12 13  2  0  0  0  0
 13 14  1  0  0  0  0
 14 15  2  0  0  0  0
 15 16  1  0  0  0  0
 16 17  2  0  0  0  0
 15 18  1  0  0  0  0
 18 19  1  0  0  0  0
 19 20  2  0  0  0  0
 20 21  1  0  0  0  0
 21 22  2  0  0  0  0
 22 23  1  0  0  0  0
 23 24  2  0  0  0  0
 24 25  1  0  0  0  0
 25 26  1  0  0  0  0
 26 27  2  0  0  0  0
 27 28  1  0  0  0  0
 28 29  2  0  0  0  0
 29 30  1  0  0  0  0
 30 31  2  0  0  0  0
  4 32  2  0  0  0  0
 32 33  1  0  0  0  0
 33 34  2  0  0  0  0
 34 35  1  0  0  0  0
 35 36  2  0  0  0  0
 36 37  1  0  0  0  0
 37 38  1  0  0  0  0
 38 39  2  0  0  0  0
 39 40  1  0  0  0  0
 40 41  2  0  0  0  0
 41 42  1  0  0  0  0
 42 43  2  0  0  0  0
 37 44  2  0  0  0  0
 44 45  1  0  0  0  0
 45 46  1  0  0  0  0
 46 47  2  0  0  0  0
 47 48  1  0  0  0  0
 48 49  2  0  0  0  0
 49 50  1  0  0  0  0
 50 51  2  0  0  0  0
 45 52  2  0  0  0  0
 34  2  1  0  0  0  0
 52 35  1  0  0  0  0
 17  5  1  0  0  0  0
 31 18  1  0  0  0  0
 43 38  1  0  0  0  0
 51 46  1  0  0  0  0
 11  6  1  0  0  0  0
 17 12  1  0  0  0  0
 24 19  1  0  0  0  0
 31 26  1  0  0  0  0
 25 14  1  0  0  0  0
  1 53  1  0  0  0  0
  1 54  1  0  0  0  0
  1 55  1  0  0  0  0
  3 56  1  0  0  0  0
  7 57  1  0  0  0  0
  8 58  1  0  0  0  0
  9 59  1  0  0  0  0
 10 60  1  0  0  0  0
 13 61  1  0  0  0  0
 16 62  1  0  0  0  0
 18 63  1  0  0  0  0
 20 64  1  0  0  0  0
 21 65  1  0  0  0  0
 22 66  1  0  0  0  0
 23 67  1  0  0  0  0
 25 68  1  0  0  0  0
 27 69  1  0  0  0  0
 28 70  1  0  0  0  0
 29 71  1  0  0  0  0
 30 72  1  0  0  0  0
 32 73  1  0  0  0  0
 33 74  1  0  0  0  0
 39 75  1  0  0  0  0
 40 76  1  0  0  0  0
 41 77  1  0  0  0  0
 42 78  1  0  0  0  0
 43 79  1  0  0  0  0
 47 80  1  0  0  0  0
 48 81  1  0  0  0  0
 49 82  1  0  0  0  0
 50 83  1  0  0  0  0
 51 84  1  0  0  0  0
M  END
