
  xtb     03022215443D
 energy: -160.390981052436 gnorm: 0.000181032760 xtb: 6.4.1 (afa7bdf)
106113  0     0  0            999 V2000
   12.1312   -1.7609    3.3342 C   0  0  0  0  0  0  0  0  0  0  0  0
   11.0663   -0.7026    3.0701 C   0  0  0  0  0  0  0  0  0  0  0  0
   10.2676   -0.9549    1.7899 C   0  0  0  0  0  0  0  0  0  0  0  0
    9.3085   -2.1377    1.9073 C   0  0  0  0  0  0  0  0  0  0  0  0
    8.6117   -2.4841    0.5903 C   0  0  0  0  0  0  0  0  0  0  0  0
    7.7241   -1.3789    0.0156 C   0  0  0  0  0  0  0  0  0  0  0  0
    6.5581   -1.0057    0.9298 C   0  0  0  0  0  0  0  0  0  0  0  0
    5.5244   -0.1152    0.2390 C   0  0  0  0  0  0  0  0  0  0  0  0
    6.0258    1.3080   -0.0042 C   0  0  0  0  0  0  0  0  0  0  0  0
    5.0227    2.1541   -0.7902 C   0  0  0  0  0  0  0  0  0  0  0  0
    5.0311    1.8153   -2.2795 C   0  0  0  0  0  0  0  0  0  0  0  0
    3.9244    2.5339   -3.0496 C   0  0  0  0  0  0  0  0  0  0  0  0
    2.6092    2.1351   -2.5960 N   0  0  0  0  0  0  0  0  0  0  0  0
    2.1173    0.8422   -2.6813 C   0  0  0  0  0  0  0  0  0  0  0  0
    2.7071   -0.0910   -3.1699 O   0  0  0  0  0  0  0  0  0  0  0  0
    0.7660    0.8952   -2.0751 C   0  0  0  0  0  0  0  0  0  0  0  0
    0.5061    2.1993   -1.7112 C   0  0  0  0  0  0  0  0  0  0  0  0
   -0.7642    2.5947   -1.2529 C   0  0  0  0  0  0  0  0  0  0  0  0
   -1.0679    3.9480   -0.9495 C   0  0  0  0  0  0  0  0  0  0  0  0
   -2.3288    4.3094   -0.6083 C   0  0  0  0  0  0  0  0  0  0  0  0
   -3.3946    3.3751   -0.7075 C   0  0  0  0  0  0  0  0  0  0  0  0
   -4.7312    3.7787   -0.5617 C   0  0  0  0  0  0  0  0  0  0  0  0
   -5.7862    2.9302   -0.8032 C   0  0  0  0  0  0  0  0  0  0  0  0
   -7.1679    3.4040   -0.6338 C   0  0  0  0  0  0  0  0  0  0  0  0
   -7.5204    4.1034    0.5207 C   0  0  0  0  0  0  0  0  0  0  0  0
   -8.8036    4.5774    0.6954 C   0  0  0  0  0  0  0  0  0  0  0  0
   -9.7613    4.3622   -0.2964 C   0  0  0  0  0  0  0  0  0  0  0  0
  -11.0776    4.8473   -0.1263 C   0  0  0  0  0  0  0  0  0  0  0  0
  -12.1450    5.2424    0.0119 N   0  0  0  0  0  0  0  0  0  0  0  0
   -9.4162    3.6693   -1.4576 C   0  0  0  0  0  0  0  0  0  0  0  0
   -8.1314    3.1952   -1.6193 C   0  0  0  0  0  0  0  0  0  0  0  0
   -5.5072    1.6096   -1.2472 C   0  0  0  0  0  0  0  0  0  0  0  0
   -6.5856    0.8201   -1.5023 O   0  0  0  0  0  0  0  0  0  0  0  0
   -6.3757   -0.5287   -1.8442 C   0  0  0  0  0  0  0  0  0  0  0  0
   -4.2019    1.1905   -1.3650 C   0  0  0  0  0  0  0  0  0  0  0  0
   -3.1206    2.0269   -1.0345 C   0  0  0  0  0  0  0  0  0  0  0  0
   -1.7540    1.5871   -1.1248 C   0  0  0  0  0  0  0  0  0  0  0  0
   -1.3606    0.2120   -1.1592 C   0  0  0  0  0  0  0  0  0  0  0  0
   -0.1376   -0.1431   -1.7831 C   0  0  0  0  0  0  0  0  0  0  0  0
    0.1540   -1.5002   -2.0814 C   0  0  0  0  0  0  0  0  0  0  0  0
   -0.7014   -2.4843   -1.7114 C   0  0  0  0  0  0  0  0  0  0  0  0
   -1.8162   -2.1915   -0.8811 C   0  0  0  0  0  0  0  0  0  0  0  0
   -2.6000   -3.2164   -0.3279 C   0  0  0  0  0  0  0  0  0  0  0  0
   -3.5896   -2.9686    0.5942 C   0  0  0  0  0  0  0  0  0  0  0  0
   -4.3901   -4.0777    1.1342 C   0  0  0  0  0  0  0  0  0  0  0  0
   -4.9386   -5.0186    0.2624 C   0  0  0  0  0  0  0  0  0  0  0  0
   -5.6789   -6.0787    0.7419 C   0  0  0  0  0  0  0  0  0  0  0  0
   -5.8766   -6.2181    2.1163 C   0  0  0  0  0  0  0  0  0  0  0  0
   -6.6319   -7.3028    2.6161 C   0  0  0  0  0  0  0  0  0  0  0  0
   -7.2432   -8.1843    3.0209 N   0  0  0  0  0  0  0  0  0  0  0  0
   -5.3255   -5.2858    2.9964 C   0  0  0  0  0  0  0  0  0  0  0  0
   -4.5918   -4.2264    2.5053 C   0  0  0  0  0  0  0  0  0  0  0  0
   -3.7960   -1.6307    1.0260 C   0  0  0  0  0  0  0  0  0  0  0  0
   -4.7636   -1.4448    1.9644 O   0  0  0  0  0  0  0  0  0  0  0  0
   -5.0914   -0.1325    2.3527 C   0  0  0  0  0  0  0  0  0  0  0  0
   -3.0565   -0.6122    0.4700 C   0  0  0  0  0  0  0  0  0  0  0  0
   -2.1081   -0.8502   -0.5411 C   0  0  0  0  0  0  0  0  0  0  0  0
    1.7058    3.0132   -2.0159 C   0  0  0  0  0  0  0  0  0  0  0  0
    1.9139    4.1878   -1.8323 O   0  0  0  0  0  0  0  0  0  0  0  0
   12.7080   -1.5035    4.2197 H   0  0  0  0  0  0  0  0  0  0  0  0
   11.6833   -2.7379    3.4962 H   0  0  0  0  0  0  0  0  0  0  0  0
   12.8135   -1.8316    2.4896 H   0  0  0  0  0  0  0  0  0  0  0  0
   11.5558    0.2712    2.9897 H   0  0  0  0  0  0  0  0  0  0  0  0
   10.3801   -0.6572    3.9191 H   0  0  0  0  0  0  0  0  0  0  0  0
   10.9610   -1.1321    0.9641 H   0  0  0  0  0  0  0  0  0  0  0  0
    9.6970   -0.0538    1.5577 H   0  0  0  0  0  0  0  0  0  0  0  0
    9.8648   -3.0200    2.2297 H   0  0  0  0  0  0  0  0  0  0  0  0
    8.5627   -1.9236    2.6749 H   0  0  0  0  0  0  0  0  0  0  0  0
    9.3741   -2.7358   -0.1516 H   0  0  0  0  0  0  0  0  0  0  0  0
    8.0002   -3.3767    0.7475 H   0  0  0  0  0  0  0  0  0  0  0  0
    8.3318   -0.4986   -0.1940 H   0  0  0  0  0  0  0  0  0  0  0  0
    7.3205   -1.7315   -0.9372 H   0  0  0  0  0  0  0  0  0  0  0  0
    6.0644   -1.9248    1.2557 H   0  0  0  0  0  0  0  0  0  0  0  0
    6.9304   -0.4943    1.8193 H   0  0  0  0  0  0  0  0  0  0  0  0
    5.2387   -0.5768   -0.7080 H   0  0  0  0  0  0  0  0  0  0  0  0
    4.6269   -0.0646    0.8616 H   0  0  0  0  0  0  0  0  0  0  0  0
    6.2161    1.7803    0.9625 H   0  0  0  0  0  0  0  0  0  0  0  0
    6.9689    1.2820   -0.5520 H   0  0  0  0  0  0  0  0  0  0  0  0
    5.2608    3.2134   -0.6683 H   0  0  0  0  0  0  0  0  0  0  0  0
    4.0224    1.9936   -0.3794 H   0  0  0  0  0  0  0  0  0  0  0  0
    4.9058    0.7418   -2.4214 H   0  0  0  0  0  0  0  0  0  0  0  0
    5.9906    2.1019   -2.7137 H   0  0  0  0  0  0  0  0  0  0  0  0
    3.9852    3.6156   -2.9044 H   0  0  0  0  0  0  0  0  0  0  0  0
    4.0088    2.3044   -4.1166 H   0  0  0  0  0  0  0  0  0  0  0  0
   -0.2652    4.6664   -0.9940 H   0  0  0  0  0  0  0  0  0  0  0  0
   -2.5598    5.3274   -0.3320 H   0  0  0  0  0  0  0  0  0  0  0  0
   -4.9326    4.8051   -0.2905 H   0  0  0  0  0  0  0  0  0  0  0  0
   -6.7812    4.2609    1.2927 H   0  0  0  0  0  0  0  0  0  0  0  0
   -9.0752    5.1134    1.5930 H   0  0  0  0  0  0  0  0  0  0  0  0
  -10.1601    3.5114   -2.2246 H   0  0  0  0  0  0  0  0  0  0  0  0
   -7.8645    2.6691   -2.5219 H   0  0  0  0  0  0  0  0  0  0  0  0
   -7.3699   -0.9628   -1.9369 H   0  0  0  0  0  0  0  0  0  0  0  0
   -5.8485   -0.6263   -2.7985 H   0  0  0  0  0  0  0  0  0  0  0  0
   -5.8189   -1.0621   -1.0665 H   0  0  0  0  0  0  0  0  0  0  0  0
   -3.9880    0.2023   -1.7351 H   0  0  0  0  0  0  0  0  0  0  0  0
    1.0655   -1.7136   -2.6162 H   0  0  0  0  0  0  0  0  0  0  0  0
   -0.5117   -3.5140   -1.9754 H   0  0  0  0  0  0  0  0  0  0  0  0
   -2.3880   -4.2374   -0.6111 H   0  0  0  0  0  0  0  0  0  0  0  0
   -4.7934   -4.9041   -0.8021 H   0  0  0  0  0  0  0  0  0  0  0  0
   -6.1080   -6.8020    0.0642 H   0  0  0  0  0  0  0  0  0  0  0  0
   -5.4764   -5.4030    4.0595 H   0  0  0  0  0  0  0  0  0  0  0  0
   -4.1589   -3.5125    3.1876 H   0  0  0  0  0  0  0  0  0  0  0  0
   -4.2542    0.3609    2.8565 H   0  0  0  0  0  0  0  0  0  0  0  0
   -5.9209   -0.2348    3.0504 H   0  0  0  0  0  0  0  0  0  0  0  0
   -5.4093    0.4751    1.4988 H   0  0  0  0  0  0  0  0  0  0  0  0
   -3.1882    0.3980    0.8185 H   0  0  0  0  0  0  0  0  0  0  0  0
  1  2  1  0  0  0  0
  2  3  1  0  0  0  0
  3  4  1  0  0  0  0
  4  5  1  0  0  0  0
  5  6  1  0  0  0  0
  6  7  1  0  0  0  0
  7  8  1  0  0  0  0
  8  9  1  0  0  0  0
  9 10  1  0  0  0  0
 10 11  1  0  0  0  0
 11 12  1  0  0  0  0
 12 13  1  0  0  0  0
 13 14  1  0  0  0  0
 14 15  2  0  0  0  0
 14 16  1  0  0  0  0
 16 17  2  0  0  0  0
 17 18  1  0  0  0  0
 18 19  2  0  0  0  0
 19 20  1  0  0  0  0
 20 21  2  0  0  0  0
 21 22  1  0  0  0  0
 22 23  2  0  0  0  0
 23 24  1  0  0  0  0
 24 25  2  0  0  0  0
 25 26  1  0  0  0  0
 26 27  2  0  0  0  0
 27 28  1  0  0  0  0
 28 29  3  0  0  0  0
 27 30  1  0  0  0  0
 30 31  2  0  0  0  0
 23 32  1  0  0  0  0
 32 33  1  0  0  0  0
 33 34  1  0  0  0  0
 32 35  2  0  0  0  0
 35 36  1  0  0  0  0
 36 37  2  0  0  0  0
 37 38  1  0  0  0  0
 38 39  2  0  0  0  0
 39 40  1  0  0  0  0
 40 41  2  0  0  0  0
 41 42  1  0  0  0  0
 42 43  2  0  0  0  0
 43 44  1  0  0  0  0
 44 45  1  0  0  0  0
 45 46  2  0  0  0  0
 46 47  1  0  0  0  0
 47 48  2  0  0  0  0
 48 49  1  0  0  0  0
 49 50  3  0  0  0  0
 48 51  1  0  0  0  0
 51 52  2  0  0  0  0
 44 53  2  0  0  0  0
 53 54  1  0  0  0  0
 54 55  1  0  0  0  0
 53 56  1  0  0  0  0
 56 57  2  0  0  0  0
 17 58  1  0  0  0  0
 58 59  2  0  0  0  0
 58 13  1  0  0  0  0
 39 16  1  0  0  0  0
 57 42  1  0  0  0  0
 37 18  1  0  0  0  0
 57 38  1  0  0  0  0
 36 21  1  0  0  0  0
 52 45  1  0  0  0  0
 31 24  1  0  0  0  0
  1 60  1  0  0  0  0
  1 61  1  0  0  0  0
  1 62  1  0  0  0  0
  2 63  1  0  0  0  0
  2 64  1  0  0  0  0
  3 65  1  0  0  0  0
  3 66  1  0  0  0  0
  4 67  1  0  0  0  0
  4 68  1  0  0  0  0
  5 69  1  0  0  0  0
  5 70  1  0  0  0  0
  6 71  1  0  0  0  0
  6 72  1  0  0  0  0
  7 73  1  0  0  0  0
  7 74  1  0  0  0  0
  8 75  1  0  0  0  0
  8 76  1  0  0  0  0
  9 77  1  0  0  0  0
  9 78  1  0  0  0  0
 10 79  1  0  0  0  0
 10 80  1  0  0  0  0
 11 81  1  0  0  0  0
 11 82  1  0  0  0  0
 12 83  1  0  0  0  0
 12 84  1  0  0  0  0
 19 85  1  0  0  0  0
 20 86  1  0  0  0  0
 22 87  1  0  0  0  0
 25 88  1  0  0  0  0
 26 89  1  0  0  0  0
 30 90  1  0  0  0  0
 31 91  1  0  0  0  0
 34 92  1  0  0  0  0
 34 93  1  0  0  0  0
 34 94  1  0  0  0  0
 35 95  1  0  0  0  0
 40 96  1  0  0  0  0
 41 97  1  0  0  0  0
 43 98  1  0  0  0  0
 46 99  1  0  0  0  0
 47100  1  0  0  0  0
 51101  1  0  0  0  0
 52102  1  0  0  0  0
 55103  1  0  0  0  0
 55104  1  0  0  0  0
 55105  1  0  0  0  0
 56106  1  0  0  0  0
M  END
