
  xtb     03022212573D
 energy: -106.340774239251 gnorm: 0.000062562861 xtb: 6.4.1 (afa7bdf)
 69 75  0     0  0            999 V2000
   -3.6841   -1.8701   -2.4089 C   0  0  0  0  0  0  0  0  0  0  0  0
   -3.6876   -0.9586   -1.3004 N   0  0  0  0  0  0  0  0  0  0  0  0
   -2.5997   -0.4321   -0.6575 C   0  0  0  0  0  0  0  0  0  0  0  0
   -1.2243   -0.5663   -1.0207 C   0  0  0  0  0  0  0  0  0  0  0  0
   -0.5879   -1.0683   -2.1306 C   0  0  0  0  0  0  0  0  0  0  0  0
    0.8054   -0.9760   -2.0545 C   0  0  0  0  0  0  0  0  0  0  0  0
    1.2559   -0.3997   -0.8893 C   0  0  0  0  0  0  0  0  0  0  0  0
    2.6357   -0.1843   -0.5886 C   0  0  0  0  0  0  0  0  0  0  0  0
    3.5948   -0.5533   -1.4158 N   0  0  0  0  0  0  0  0  0  0  0  0
    4.7689   -0.1905   -0.8450 C   0  0  0  0  0  0  0  0  0  0  0  0
    6.0340   -0.4379   -1.5199 C   0  0  0  0  0  0  0  0  0  0  0  0
    6.1154   -1.4898   -2.4316 C   0  0  0  0  0  0  0  0  0  0  0  0
    7.2998   -1.7580   -3.0891 C   0  0  0  0  0  0  0  0  0  0  0  0
    8.4200   -0.9782   -2.8505 C   0  0  0  0  0  0  0  0  0  0  0  0
    8.3427    0.0798   -1.9598 C   0  0  0  0  0  0  0  0  0  0  0  0
    7.1594    0.3539   -1.3001 C   0  0  0  0  0  0  0  0  0  0  0  0
    4.5169    0.4221    0.3768 C   0  0  0  0  0  0  0  0  0  0  0  0
    5.4383    0.9544    1.3729 C   0  0  0  0  0  0  0  0  0  0  0  0
    6.4800    0.1585    1.8487 C   0  0  0  0  0  0  0  0  0  0  0  0
    7.3669    0.6554    2.7837 C   0  0  0  0  0  0  0  0  0  0  0  0
    7.2279    1.9500    3.2589 C   0  0  0  0  0  0  0  0  0  0  0  0
    6.1999    2.7490    2.7884 C   0  0  0  0  0  0  0  0  0  0  0  0
    5.3089    2.2574    1.8515 C   0  0  0  0  0  0  0  0  0  0  0  0
    3.1537    0.4192    0.5258 N   0  0  0  0  0  0  0  0  0  0  0  0
    2.4282    0.8624    1.6816 C   0  0  0  0  0  0  0  0  0  0  0  0
   -0.0796    0.0411    0.1341 S   0  0  0  0  0  0  0  0  0  0  0  0
   -2.9651    0.2586    0.4026 N   0  0  0  0  0  0  0  0  0  0  0  0
   -4.3176    0.1978    0.4713 C   0  0  0  0  0  0  0  0  0  0  0  0
   -5.0403    0.8923    1.5256 C   0  0  0  0  0  0  0  0  0  0  0  0
   -6.3559    1.3224    1.3651 C   0  0  0  0  0  0  0  0  0  0  0  0
   -7.0048    1.9751    2.3963 C   0  0  0  0  0  0  0  0  0  0  0  0
   -6.3524    2.2150    3.5945 C   0  0  0  0  0  0  0  0  0  0  0  0
   -5.0373    1.8089    3.7537 C   0  0  0  0  0  0  0  0  0  0  0  0
   -4.3841    1.1550    2.7277 C   0  0  0  0  0  0  0  0  0  0  0  0
   -4.7949   -0.5649   -0.5866 C   0  0  0  0  0  0  0  0  0  0  0  0
   -6.1536   -0.9604   -0.9331 C   0  0  0  0  0  0  0  0  0  0  0  0
   -6.6585   -0.7586   -2.2169 C   0  0  0  0  0  0  0  0  0  0  0  0
   -7.9532   -1.1343   -2.5258 C   0  0  0  0  0  0  0  0  0  0  0  0
   -8.7588   -1.7159   -1.5618 C   0  0  0  0  0  0  0  0  0  0  0  0
   -8.2661   -1.9157   -0.2816 C   0  0  0  0  0  0  0  0  0  0  0  0
   -6.9740   -1.5430    0.0330 C   0  0  0  0  0  0  0  0  0  0  0  0
   -4.6611   -2.3471   -2.4830 H   0  0  0  0  0  0  0  0  0  0  0  0
   -3.4750   -1.3471   -3.3457 H   0  0  0  0  0  0  0  0  0  0  0  0
   -2.9257   -2.6389   -2.2525 H   0  0  0  0  0  0  0  0  0  0  0  0
   -1.0927   -1.4726   -2.9880 H   0  0  0  0  0  0  0  0  0  0  0  0
    1.4833   -1.3077   -2.8185 H   0  0  0  0  0  0  0  0  0  0  0  0
    5.2329   -2.0848   -2.6084 H   0  0  0  0  0  0  0  0  0  0  0  0
    7.3528   -2.5785   -3.7903 H   0  0  0  0  0  0  0  0  0  0  0  0
    9.3480   -1.1894   -3.3616 H   0  0  0  0  0  0  0  0  0  0  0  0
    9.2099    0.6995   -1.7813 H   0  0  0  0  0  0  0  0  0  0  0  0
    7.1041    1.1924   -0.6220 H   0  0  0  0  0  0  0  0  0  0  0  0
    6.5857   -0.8489    1.4741 H   0  0  0  0  0  0  0  0  0  0  0  0
    8.1699    0.0305    3.1457 H   0  0  0  0  0  0  0  0  0  0  0  0
    7.9222    2.3363    3.9902 H   0  0  0  0  0  0  0  0  0  0  0  0
    6.0931    3.7619    3.1484 H   0  0  0  0  0  0  0  0  0  0  0  0
    4.5246    2.8943    1.4673 H   0  0  0  0  0  0  0  0  0  0  0  0
    3.1338    1.1289    2.4672 H   0  0  0  0  0  0  0  0  0  0  0  0
    1.8085    1.7296    1.4428 H   0  0  0  0  0  0  0  0  0  0  0  0
    1.7764    0.0655    2.0445 H   0  0  0  0  0  0  0  0  0  0  0  0
   -6.8667    1.1571    0.4282 H   0  0  0  0  0  0  0  0  0  0  0  0
   -8.0256    2.3034    2.2622 H   0  0  0  0  0  0  0  0  0  0  0  0
   -6.8654    2.7232    4.3980 H   0  0  0  0  0  0  0  0  0  0  0  0
   -4.5211    2.0033    4.6830 H   0  0  0  0  0  0  0  0  0  0  0  0
   -3.3585    0.8367    2.8331 H   0  0  0  0  0  0  0  0  0  0  0  0
   -6.0427   -0.2815   -2.9661 H   0  0  0  0  0  0  0  0  0  0  0  0
   -8.3353   -0.9679   -3.5225 H   0  0  0  0  0  0  0  0  0  0  0  0
   -9.7691   -2.0087   -1.8055 H   0  0  0  0  0  0  0  0  0  0  0  0
   -8.8925   -2.3664    0.4740 H   0  0  0  0  0  0  0  0  0  0  0  0
   -6.5867   -1.6958    1.0295 H   0  0  0  0  0  0  0  0  0  0  0  0
  1  2  1  0  0  0  0
  2  3  1  0  0  0  0
  3  4  1  0  0  0  0
  4  5  2  0  0  0  0
  5  6  1  0  0  0  0
  6  7  2  0  0  0  0
  7  8  1  0  0  0  0
  8  9  2  0  0  0  0
  9 10  1  0  0  0  0
 10 11  1  0  0  0  0
 11 12  2  0  0  0  0
 12 13  1  0  0  0  0
 13 14  2  0  0  0  0
 14 15  1  0  0  0  0
 15 16  2  0  0  0  0
 10 17  2  0  0  0  0
 17 18  1  0  0  0  0
 18 19  2  0  0  0  0
 19 20  1  0  0  0  0
 20 21  2  0  0  0  0
 21 22  1  0  0  0  0
 22 23  2  0  0  0  0
 17 24  1  0  0  0  0
 24 25  1  0  0  0  0
  7 26  1  0  0  0  0
  3 27  2  0  0  0  0
 27 28  1  0  0  0  0
 28 29  1  0  0  0  0
 29 30  2  0  0  0  0
 30 31  1  0  0  0  0
 31 32  2  0  0  0  0
 32 33  1  0  0  0  0
 33 34  2  0  0  0  0
 28 35  2  0  0  0  0
 35 36  1  0  0  0  0
 36 37  2  0  0  0  0
 37 38  1  0  0  0  0
 38 39  2  0  0  0  0
 39 40  1  0  0  0  0
 40 41  2  0  0  0  0
 35  2  1  0  0  0  0
 41 36  1  0  0  0  0
 26  4  1  0  0  0  0
 34 29  1  0  0  0  0
 24  8  1  0  0  0  0
 16 11  1  0  0  0  0
 23 18  1  0  0  0  0
  1 42  1  0  0  0  0
  1 43  1  0  0  0  0
  1 44  1  0  0  0  0
  5 45  1  0  0  0  0
  6 46  1  0  0  0  0
 12 47  1  0  0  0  0
 13 48  1  0  0  0  0
 14 49  1  0  0  0  0
 15 50  1  0  0  0  0
 16 51  1  0  0  0  0
 19 52  1  0  0  0  0
 20 53  1  0  0  0  0
 21 54  1  0  0  0  0
 22 55  1  0  0  0  0
 23 56  1  0  0  0  0
 25 57  1  0  0  0  0
 25 58  1  0  0  0  0
 25 59  1  0  0  0  0
 30 60  1  0  0  0  0
 31 61  1  0  0  0  0
 32 62  1  0  0  0  0
 33 63  1  0  0  0  0
 34 64  1  0  0  0  0
 37 65  1  0  0  0  0
 38 66  1  0  0  0  0
 39 67  1  0  0  0  0
 40 68  1  0  0  0  0
 41 69  1  0  0  0  0
M  END
