
  xtb     03022214433D
 energy: -40.457167174135 gnorm: 0.000026440783 xtb: 6.4.1 (afa7bdf)
 21 23  0     0  0            999 V2000
   -0.3992   -2.9381   -0.1888 O   0  0  0  0  0  0  0  0  0  0  0  0
   -0.3105   -1.7383   -0.1153 C   0  0  0  0  0  0  0  0  0  0  0  0
    0.9246   -0.9137   -0.0078 C   0  0  0  0  0  0  0  0  0  0  0  0
    2.2398   -1.3271    0.0322 C   0  0  0  0  0  0  0  0  0  0  0  0
    3.2063   -0.3341    0.1364 C   0  0  0  0  0  0  0  0  0  0  0  0
    4.5023   -0.6941    0.1786 F   0  0  0  0  0  0  0  0  0  0  0  0
    2.8912    1.0126    0.1988 C   0  0  0  0  0  0  0  0  0  0  0  0
    1.5614    1.4161    0.1575 C   0  0  0  0  0  0  0  0  0  0  0  0
    0.5807    0.4499    0.0541 C   0  0  0  0  0  0  0  0  0  0  0  0
   -0.8762    0.5580   -0.0104 C   0  0  0  0  0  0  0  0  0  0  0  0
   -1.7433    1.6342    0.0096 C   0  0  0  0  0  0  0  0  0  0  0  0
   -3.0587    1.4692   -0.0638 N   0  0  0  0  0  0  0  0  0  0  0  0
   -3.5586    0.2536   -0.1582 C   0  0  0  0  0  0  0  0  0  0  0  0
   -2.7841   -0.9095   -0.1876 C   0  0  0  0  0  0  0  0  0  0  0  0
   -1.4191   -0.7371   -0.1114 C   0  0  0  0  0  0  0  0  0  0  0  0
    2.5118   -2.3696   -0.0147 H   0  0  0  0  0  0  0  0  0  0  0  0
    3.6881    1.7352    0.2791 H   0  0  0  0  0  0  0  0  0  0  0  0
    1.3103    2.4641    0.2057 H   0  0  0  0  0  0  0  0  0  0  0  0
   -1.4002    2.6571    0.0852 H   0  0  0  0  0  0  0  0  0  0  0  0
   -4.6376    0.2007   -0.2136 H   0  0  0  0  0  0  0  0  0  0  0  0
   -3.2287   -1.8889   -0.2657 H   0  0  0  0  0  0  0  0  0  0  0  0
  1  2  2  0  0  0  0
  2  3  1  0  0  0  0
  3  4  2  0  0  0  0
  4  5  1  0  0  0  0
  5  6  1  0  0  0  0
  5  7  2  0  0  0  0
  7  8  1  0  0  0  0
  8  9  2  0  0  0  0
  9 10  1  0  0  0  0
 10 11  2  0  0  0  0
 11 12  1  0  0  0  0
 12 13  2  0  0  0  0
 13 14  1  0  0  0  0
 14 15  2  0  0  0  0
 15  2  1  0  0  0  0
  9  3  1  0  0  0  0
 15 10  1  0  0  0  0
  4 16  1  0  0  0  0
  7 17  1  0  0  0  0
  8 18  1  0  0  0  0
 11 19  1  0  0  0  0
 13 20  1  0  0  0  0
 14 21  1  0  0  0  0
M  END
