
  xtb     03022212503D
 energy: -113.980686102270 gnorm: 0.000070250434 xtb: 6.4.1 (afa7bdf)
 71 78  0     0  0            999 V2000
   -0.2582   -2.0185   -0.8729 F   0  0  0  0  0  0  0  0  0  0  0  0
   -0.1188   -1.1004    0.1478 B   0  0  0  0  0  4  0  0  0  0  0  0
   -0.1464   -1.7285    1.3760 F   0  0  0  0  0  0  0  0  0  0  0  0
   -1.2710   -0.0670    0.0257 N   0  0  0  0  0  0  0  0  0  0  0  0
   -1.0763    1.2879   -0.1499 C   0  0  0  0  0  0  0  0  0  0  0  0
   -2.3390    1.9091   -0.2362 C   0  0  0  0  0  0  0  0  0  0  0  0
   -3.2936    0.9132   -0.1514 C   0  0  0  0  0  0  0  0  0  0  0  0
   -4.7414    1.0835   -0.1750 C   0  0  0  0  0  0  0  0  0  0  0  0
   -5.5729    0.3006    0.6245 C   0  0  0  0  0  0  0  0  0  0  0  0
   -6.9426    0.4798    0.5948 C   0  0  0  0  0  0  0  0  0  0  0  0
   -7.5047    1.4422   -0.2280 C   0  0  0  0  0  0  0  0  0  0  0  0
   -6.6864    2.2319   -1.0184 C   0  0  0  0  0  0  0  0  0  0  0  0
   -5.3159    2.0563   -0.9916 C   0  0  0  0  0  0  0  0  0  0  0  0
   -2.5879   -0.3119    0.0018 C   0  0  0  0  0  0  0  0  0  0  0  0
   -3.1943   -1.6383    0.0001 C   0  0  0  0  0  0  0  0  0  0  0  0
   -4.0833   -1.9474   -1.0317 C   0  0  0  0  0  0  0  0  0  0  0  0
   -4.6883   -3.1871   -1.0839 C   0  0  0  0  0  0  0  0  0  0  0  0
   -4.4258   -4.1307   -0.1036 C   0  0  0  0  0  0  0  0  0  0  0  0
   -3.5536   -3.8265    0.9273 C   0  0  0  0  0  0  0  0  0  0  0  0
   -2.9386   -2.5889    0.9839 C   0  0  0  0  0  0  0  0  0  0  0  0
    0.1991    1.8437   -0.2472 C   0  0  0  0  0  0  0  0  0  0  0  0
    0.3555    3.2916   -0.4413 C   0  0  0  0  0  0  0  0  0  0  0  0
   -0.2545    3.9287   -1.5191 C   0  0  0  0  0  0  0  0  0  0  0  0
   -0.1017    5.2906   -1.7024 C   0  0  0  0  0  0  0  0  0  0  0  0
    0.6516    6.0341   -0.8090 C   0  0  0  0  0  0  0  0  0  0  0  0
    1.2571    5.4081    0.2680 C   0  0  0  0  0  0  0  0  0  0  0  0
    1.1156    4.0448    0.4501 C   0  0  0  0  0  0  0  0  0  0  0  0
    1.3263    1.0270   -0.1605 C   0  0  0  0  0  0  0  0  0  0  0  0
    2.6931    1.3701   -0.2035 C   0  0  0  0  0  0  0  0  0  0  0  0
    3.4149    0.2092    0.0008 C   0  0  0  0  0  0  0  0  0  0  0  0
    4.8663    0.0721    0.0199 C   0  0  0  0  0  0  0  0  0  0  0  0
    5.4921   -1.0485   -0.5243 C   0  0  0  0  0  0  0  0  0  0  0  0
    6.8693   -1.1590   -0.5038 C   0  0  0  0  0  0  0  0  0  0  0  0
    7.6436   -0.1557    0.0552 C   0  0  0  0  0  0  0  0  0  0  0  0
    7.0318    0.9662    0.5892 C   0  0  0  0  0  0  0  0  0  0  0  0
    5.6548    1.0812    0.5706 C   0  0  0  0  0  0  0  0  0  0  0  0
    2.4638   -0.8373    0.1523 C   0  0  0  0  0  0  0  0  0  0  0  0
    2.7783   -2.2140    0.5165 C   0  0  0  0  0  0  0  0  0  0  0  0
    3.6112   -2.4231    1.6179 C   0  0  0  0  0  0  0  0  0  0  0  0
    3.9439   -3.7046    2.0082 C   0  0  0  0  0  0  0  0  0  0  0  0
    3.4620   -4.7942    1.3005 C   0  0  0  0  0  0  0  0  0  0  0  0
    2.6445   -4.5931    0.2017 C   0  0  0  0  0  0  0  0  0  0  0  0
    2.3015   -3.3125   -0.1926 C   0  0  0  0  0  0  0  0  0  0  0  0
    1.2275   -0.3364    0.0285 N   0  0  0  0  0  4  0  0  0  0  0  0
   -2.5086    2.9643   -0.3221 H   0  0  0  0  0  0  0  0  0  0  0  0
   -5.1400   -0.4407    1.2792 H   0  0  0  0  0  0  0  0  0  0  0  0
   -7.5756   -0.1333    1.2194 H   0  0  0  0  0  0  0  0  0  0  0  0
   -8.5758    1.5781   -0.2510 H   0  0  0  0  0  0  0  0  0  0  0  0
   -7.1190    2.9860   -1.6599 H   0  0  0  0  0  0  0  0  0  0  0  0
   -4.6804    2.6649   -1.6184 H   0  0  0  0  0  0  0  0  0  0  0  0
   -4.2808   -1.2145   -1.8002 H   0  0  0  0  0  0  0  0  0  0  0  0
   -5.3660   -3.4189   -1.8924 H   0  0  0  0  0  0  0  0  0  0  0  0
   -4.9007   -5.1000   -0.1449 H   0  0  0  0  0  0  0  0  0  0  0  0
   -3.3480   -4.5578    1.6950 H   0  0  0  0  0  0  0  0  0  0  0  0
   -2.2688   -2.3566    1.7946 H   0  0  0  0  0  0  0  0  0  0  0  0
   -0.8270    3.3445   -2.2241 H   0  0  0  0  0  0  0  0  0  0  0  0
   -0.5720    5.7739   -2.5460 H   0  0  0  0  0  0  0  0  0  0  0  0
    0.7665    7.0981   -0.9517 H   0  0  0  0  0  0  0  0  0  0  0  0
    1.8418    5.9846    0.9695 H   0  0  0  0  0  0  0  0  0  0  0  0
    1.5724    3.5577    1.2986 H   0  0  0  0  0  0  0  0  0  0  0  0
    3.0827    2.3513   -0.3908 H   0  0  0  0  0  0  0  0  0  0  0  0
    4.8951   -1.8268   -0.9751 H   0  0  0  0  0  0  0  0  0  0  0  0
    7.3417   -2.0324   -0.9291 H   0  0  0  0  0  0  0  0  0  0  0  0
    8.7197   -0.2463    0.0721 H   0  0  0  0  0  0  0  0  0  0  0  0
    7.6309    1.7532    1.0240 H   0  0  0  0  0  0  0  0  0  0  0  0
    5.1790    1.9513    0.9991 H   0  0  0  0  0  0  0  0  0  0  0  0
    3.9795   -1.5736    2.1742 H   0  0  0  0  0  0  0  0  0  0  0  0
    4.5802   -3.8547    2.8680 H   0  0  0  0  0  0  0  0  0  0  0  0
    3.7239   -5.7966    1.6062 H   0  0  0  0  0  0  0  0  0  0  0  0
    2.2687   -5.4391   -0.3546 H   0  0  0  0  0  0  0  0  0  0  0  0
    1.6729   -3.1642   -1.0545 H   0  0  0  0  0  0  0  0  0  0  0  0
  1  2  1  0  0  0  0
  2  3  1  0  0  0  0
  2  4  1  0  0  0  0
  4  5  1  0  0  0  0
  5  6  2  0  0  0  0
  6  7  1  0  0  0  0
  7  8  1  0  0  0  0
  8  9  2  0  0  0  0
  9 10  1  0  0  0  0
 10 11  2  0  0  0  0
 11 12  1  0  0  0  0
 12 13  2  0  0  0  0
  7 14  2  0  0  0  0
 14 15  1  0  0  0  0
 15 16  2  0  0  0  0
 16 17  1  0  0  0  0
 17 18  2  0  0  0  0
 18 19  1  0  0  0  0
 19 20  2  0  0  0  0
  5 21  1  0  0  0  0
 21 22  1  0  0  0  0
 22 23  2  0  0  0  0
 23 24  1  0  0  0  0
 24 25  2  0  0  0  0
 25 26  1  0  0  0  0
 26 27  2  0  0  0  0
 21 28  2  0  0  0  0
 28 29  1  0  0  0  0
 29 30  2  0  0  0  0
 30 31  1  0  0  0  0
 31 32  2  0  0  0  0
 32 33  1  0  0  0  0
 33 34  2  0  0  0  0
 34 35  1  0  0  0  0
 35 36  2  0  0  0  0
 30 37  1  0  0  0  0
 37 38  1  0  0  0  0
 38 39  2  0  0  0  0
 39 40  1  0  0  0  0
 40 41  2  0  0  0  0
 41 42  1  0  0  0  0
 42 43  2  0  0  0  0
 37 44  2  0  0  0  0
 44  2  1  0  0  0  0
 14  4  1  0  0  0  0
 20 15  1  0  0  0  0
 27 22  1  0  0  0  0
 44 28  1  0  0  0  0
 13  8  1  0  0  0  0
 36 31  1  0  0  0  0
 43 38  1  0  0  0  0
  6 45  1  0  0  0  0
  9 46  1  0  0  0  0
 10 47  1  0  0  0  0
 11 48  1  0  0  0  0
 12 49  1  0  0  0  0
 13 50  1  0  0  0  0
 16 51  1  0  0  0  0
 17 52  1  0  0  0  0
 18 53  1  0  0  0  0
 19 54  1  0  0  0  0
 20 55  1  0  0  0  0
 23 56  1  0  0  0  0
 24 57  1  0  0  0  0
 25 58  1  0  0  0  0
 26 59  1  0  0  0  0
 27 60  1  0  0  0  0
 29 61  1  0  0  0  0
 32 62  1  0  0  0  0
 33 63  1  0  0  0  0
 34 64  1  0  0  0  0
 35 65  1  0  0  0  0
 36 66  1  0  0  0  0
 39 67  1  0  0  0  0
 40 68  1  0  0  0  0
 41 69  1  0  0  0  0
 42 70  1  0  0  0  0
 43 71  1  0  0  0  0
M  CHG  1   2  -1
M  CHG  1  44   1
M  END
