
  xtb     03022213023D
 energy: -86.689044342171 gnorm: 0.000107085077 xtb: 6.4.1 (afa7bdf)
 56 61  0     0  0            999 V2000
   -5.6353   -1.2180    1.0249 C   0  0  0  0  0  0  0  0  0  0  0  0
   -4.9269   -0.0946    0.2463 C   0  0  0  0  0  0  0  0  0  0  0  0
   -5.9632    0.8590   -0.3762 C   0  0  0  0  0  0  0  0  0  0  0  0
   -4.0606    0.6912    1.2117 C   0  0  0  0  0  0  0  0  0  0  0  0
   -4.6488    1.3089    2.3072 C   0  0  0  0  0  0  0  0  0  0  0  0
   -3.9095    2.0158    3.2368 C   0  0  0  0  0  0  0  0  0  0  0  0
   -2.5375    2.1005    3.0849 C   0  0  0  0  0  0  0  0  0  0  0  0
   -1.9278    1.4984    2.0046 C   0  0  0  0  0  0  0  0  0  0  0  0
   -2.6767    0.8066    1.0480 C   0  0  0  0  0  0  0  0  0  0  0  0
   -2.0353    0.2167   -0.0328 N   0  0  0  0  0  0  0  0  0  0  0  0
   -0.6363    0.3879   -0.1783 C   0  0  0  0  0  0  0  0  0  0  0  0
   -0.1223    1.6194   -0.5796 C   0  0  0  0  0  0  0  0  0  0  0  0
    1.2382    1.7906   -0.7204 C   0  0  0  0  0  0  0  0  0  0  0  0
    2.1039    0.7268   -0.4610 C   0  0  0  0  0  0  0  0  0  0  0  0
    3.5254    0.9205   -0.6127 C   0  0  0  0  0  0  0  0  0  0  0  0
    4.1297    2.0108   -0.9892 N   0  0  0  0  0  0  0  0  0  0  0  0
    5.4423    1.7576   -0.9961 N   0  0  0  0  0  0  0  0  0  0  0  0
    5.6024    0.5203   -0.6231 C   0  0  0  0  0  0  0  0  0  0  0  0
    6.8524   -0.1882   -0.4824 C   0  0  0  0  0  0  0  0  0  0  0  0
    8.0461    0.4697   -0.7799 C   0  0  0  0  0  0  0  0  0  0  0  0
    9.2469   -0.1985   -0.6472 C   0  0  0  0  0  0  0  0  0  0  0  0
    9.2681   -1.5178   -0.2196 C   0  0  0  0  0  0  0  0  0  0  0  0
    8.0831   -2.1725    0.0763 C   0  0  0  0  0  0  0  0  0  0  0  0
    6.8752   -1.5142   -0.0533 C   0  0  0  0  0  0  0  0  0  0  0  0
    4.4123   -0.0724   -0.3629 O   0  0  0  0  0  0  0  0  0  0  0  0
    1.5901   -0.5062   -0.0601 C   0  0  0  0  0  0  0  0  0  0  0  0
    0.2275   -0.6725    0.0804 C   0  0  0  0  0  0  0  0  0  0  0  0
   -2.7283   -0.5263   -0.9786 C   0  0  0  0  0  0  0  0  0  0  0  0
   -2.0447   -1.0718   -2.0694 C   0  0  0  0  0  0  0  0  0  0  0  0
   -2.7050   -1.8225   -3.0189 C   0  0  0  0  0  0  0  0  0  0  0  0
   -4.0666   -2.0354   -2.9040 C   0  0  0  0  0  0  0  0  0  0  0  0
   -4.7498   -1.4727   -1.8423 C   0  0  0  0  0  0  0  0  0  0  0  0
   -4.1102   -0.7132   -0.8720 C   0  0  0  0  0  0  0  0  0  0  0  0
   -6.2495   -0.8107    1.8231 H   0  0  0  0  0  0  0  0  0  0  0  0
   -6.2751   -1.8017    0.3690 H   0  0  0  0  0  0  0  0  0  0  0  0
   -4.8967   -1.8845    1.4664 H   0  0  0  0  0  0  0  0  0  0  0  0
   -6.6186    0.3274   -1.0606 H   0  0  0  0  0  0  0  0  0  0  0  0
   -6.5760    1.3212    0.3929 H   0  0  0  0  0  0  0  0  0  0  0  0
   -5.4552    1.6465   -0.9298 H   0  0  0  0  0  0  0  0  0  0  0  0
   -5.7171    1.2382    2.4452 H   0  0  0  0  0  0  0  0  0  0  0  0
   -4.3996    2.4865    4.0753 H   0  0  0  0  0  0  0  0  0  0  0  0
   -1.9372    2.6322    3.8079 H   0  0  0  0  0  0  0  0  0  0  0  0
   -0.8553    1.5597    1.9021 H   0  0  0  0  0  0  0  0  0  0  0  0
   -0.8021    2.4350   -0.7759 H   0  0  0  0  0  0  0  0  0  0  0  0
    1.6563    2.7338   -1.0330 H   0  0  0  0  0  0  0  0  0  0  0  0
    8.0029    1.4952   -1.1100 H   0  0  0  0  0  0  0  0  0  0  0  0
   10.1721    0.3084   -0.8770 H   0  0  0  0  0  0  0  0  0  0  0  0
   10.2096   -2.0366   -0.1167 H   0  0  0  0  0  0  0  0  0  0  0  0
    8.1015   -3.1996    0.4094 H   0  0  0  0  0  0  0  0  0  0  0  0
    5.9480   -2.0179    0.1758 H   0  0  0  0  0  0  0  0  0  0  0  0
    2.2629   -1.3255    0.1432 H   0  0  0  0  0  0  0  0  0  0  0  0
   -0.1804   -1.6232    0.3902 H   0  0  0  0  0  0  0  0  0  0  0  0
   -0.9852   -0.8979   -2.1774 H   0  0  0  0  0  0  0  0  0  0  0  0
   -2.1535   -2.2360   -3.8500 H   0  0  0  0  0  0  0  0  0  0  0  0
   -4.5949   -2.6236   -3.6387 H   0  0  0  0  0  0  0  0  0  0  0  0
   -5.8156   -1.6306   -1.7745 H   0  0  0  0  0  0  0  0  0  0  0  0
  1  2  1  0  0  0  0
  2  3  1  0  0  0  0
  2  4  1  0  0  0  0
  4  5  2  0  0  0  0
  5  6  1  0  0  0  0
  6  7  2  0  0  0  0
  7  8  1  0  0  0  0
  8  9  2  0  0  0  0
  9 10  1  0  0  0  0
 10 11  1  0  0  0  0
 11 12  2  0  0  0  0
 12 13  1  0  0  0  0
 13 14  2  0  0  0  0
 14 15  1  0  0  0  0
 15 16  2  0  0  0  0
 16 17  1  0  0  0  0
 17 18  2  0  0  0  0
 18 19  1  0  0  0  0
 19 20  2  0  0  0  0
 20 21  1  0  0  0  0
 21 22  2  0  0  0  0
 22 23  1  0  0  0  0
 23 24  2  0  0  0  0
 18 25  1  0  0  0  0
 14 26  1  0  0  0  0
 26 27  2  0  0  0  0
 10 28  1  0  0  0  0
 28 29  2  0  0  0  0
 29 30  1  0  0  0  0
 30 31  2  0  0  0  0
 31 32  1  0  0  0  0
 32 33  2  0  0  0  0
 33  2  1  0  0  0  0
  9  4  1  0  0  0  0
 27 11  1  0  0  0  0
 33 28  1  0  0  0  0
 25 15  1  0  0  0  0
 24 19  1  0  0  0  0
  1 34  1  0  0  0  0
  1 35  1  0  0  0  0
  1 36  1  0  0  0  0
  3 37  1  0  0  0  0
  3 38  1  0  0  0  0
  3 39  1  0  0  0  0
  5 40  1  0  0  0  0
  6 41  1  0  0  0  0
  7 42  1  0  0  0  0
  8 43  1  0  0  0  0
 12 44  1  0  0  0  0
 13 45  1  0  0  0  0
 20 46  1  0  0  0  0
 21 47  1  0  0  0  0
 22 48  1  0  0  0  0
 23 49  1  0  0  0  0
 24 50  1  0  0  0  0
 26 51  1  0  0  0  0
 27 52  1  0  0  0  0
 29 53  1  0  0  0  0
 30 54  1  0  0  0  0
 31 55  1  0  0  0  0
 32 56  1  0  0  0  0
M  END
