
  xtb     03022215173D
 energy: -25.391629931041 gnorm: 0.000098084606 xtb: 6.4.1 (afa7bdf)
 21 21  0     0  0            999 V2000
   -1.2738   -2.5944   -0.1416 C   0  0  0  0  0  0  0  0  0  0  0  0
   -0.6158   -1.2482   -0.0778 C   0  0  0  0  0  0  0  0  0  0  0  0
   -1.3735   -0.0966    0.0764 C   0  0  0  0  0  0  0  0  0  0  0  0
   -0.7728    1.1521    0.1602 C   0  0  0  0  0  0  0  0  0  0  0  0
   -1.6101    2.3879    0.3043 C   0  0  0  0  0  0  0  0  0  0  0  0
    0.6098    1.2364    0.0867 C   0  0  0  0  0  0  0  0  0  0  0  0
    1.3910    0.0993   -0.0655 C   0  0  0  0  0  0  0  0  0  0  0  0
    2.8836    0.2060   -0.1653 C   0  0  0  0  0  0  0  0  0  0  0  0
    0.7660   -1.1366   -0.1467 C   0  0  0  0  0  0  0  0  0  0  0  0
   -1.3132   -3.0372    0.8544 H   0  0  0  0  0  0  0  0  0  0  0  0
   -0.7148   -3.2689   -0.7865 H   0  0  0  0  0  0  0  0  0  0  0  0
   -2.2921   -2.5121   -0.5146 H   0  0  0  0  0  0  0  0  0  0  0  0
   -2.4506   -0.1720    0.1339 H   0  0  0  0  0  0  0  0  0  0  0  0
   -1.9683    2.7115   -0.6737 H   0  0  0  0  0  0  0  0  0  0  0  0
   -1.0329    3.2007    0.7388 H   0  0  0  0  0  0  0  0  0  0  0  0
   -2.4780    2.1964    0.9319 H   0  0  0  0  0  0  0  0  0  0  0  0
    1.0877    2.2043    0.1501 H   0  0  0  0  0  0  0  0  0  0  0  0
    3.2464    1.0853    0.3620 H   0  0  0  0  0  0  0  0  0  0  0  0
    3.3643   -0.6776    0.2486 H   0  0  0  0  0  0  0  0  0  0  0  0
    3.1815    0.2926   -1.2110 H   0  0  0  0  0  0  0  0  0  0  0  0
    1.3656   -2.0287   -0.2643 H   0  0  0  0  0  0  0  0  0  0  0  0
  1  2  1  0  0  0  0
  2  3  2  0  0  0  0
  3  4  1  0  0  0  0
  4  5  1  0  0  0  0
  4  6  2  0  0  0  0
  6  7  1  0  0  0  0
  7  8  1  0  0  0  0
  7  9  2  0  0  0  0
  9  2  1  0  0  0  0
  1 10  1  0  0  0  0
  1 11  1  0  0  0  0
  1 12  1  0  0  0  0
  3 13  1  0  0  0  0
  5 14  1  0  0  0  0
  5 15  1  0  0  0  0
  5 16  1  0  0  0  0
  6 17  1  0  0  0  0
  8 18  1  0  0  0  0
  8 19  1  0  0  0  0
  8 20  1  0  0  0  0
  9 21  1  0  0  0  0
M  END
