
  xtb     03022212303D
 energy: -104.742187652816 gnorm: 0.000173118771 xtb: 6.4.1 (afa7bdf)
 64 69  0     0  0            999 V2000
   -7.1831    5.0911   -0.2386 C   0  0  0  0  0  0  0  0  0  0  0  0
   -5.9074    4.9821   -0.8196 O   0  0  0  0  0  0  0  0  0  0  0  0
   -5.2223    3.8130   -0.6703 C   0  0  0  0  0  0  0  0  0  0  0  0
   -5.6791    2.7000    0.0265 C   0  0  0  0  0  0  0  0  0  0  0  0
   -4.8930    1.5653    0.1164 C   0  0  0  0  0  0  0  0  0  0  0  0
   -3.6440    1.5091   -0.4924 C   0  0  0  0  0  0  0  0  0  0  0  0
   -2.8613    0.3472   -0.4121 N   0  0  0  0  0  0  0  0  0  0  0  0
   -3.4913   -0.9048   -0.4920 C   0  0  0  0  0  0  0  0  0  0  0  0
   -4.5517   -1.1095   -1.3762 C   0  0  0  0  0  0  0  0  0  0  0  0
   -5.1790   -2.3325   -1.4421 C   0  0  0  0  0  0  0  0  0  0  0  0
   -4.7624   -3.3933   -0.6351 C   0  0  0  0  0  0  0  0  0  0  0  0
   -5.4506   -4.5605   -0.7838 O   0  0  0  0  0  0  0  0  0  0  0  0
   -5.0761   -5.6651    0.0018 C   0  0  0  0  0  0  0  0  0  0  0  0
   -3.7034   -3.1946    0.2437 C   0  0  0  0  0  0  0  0  0  0  0  0
   -3.0824   -1.9606    0.3158 C   0  0  0  0  0  0  0  0  0  0  0  0
   -1.4846    0.4343   -0.2590 C   0  0  0  0  0  0  0  0  0  0  0  0
   -0.9083    1.4904    0.4536 C   0  0  0  0  0  0  0  0  0  0  0  0
    0.4581    1.5784    0.5949 C   0  0  0  0  0  0  0  0  0  0  0  0
    1.3058    0.6135    0.0468 C   0  0  0  0  0  0  0  0  0  0  0  0
    2.7572    0.7083    0.1988 C   0  0  0  0  0  0  0  0  0  0  0  0
    3.4047    1.9482    0.1975 C   0  0  0  0  0  0  0  0  0  0  0  0
    4.7734    2.0294    0.3368 C   0  0  0  0  0  0  0  0  0  0  0  0
    5.5512    0.8809    0.4804 C   0  0  0  0  0  0  0  0  0  0  0  0
    4.9153   -0.3691    0.4847 C   0  0  0  0  0  0  0  0  0  0  0  0
    3.5359   -0.4389    0.3459 C   0  0  0  0  0  0  0  0  0  0  0  0
    5.6738   -1.6295    0.6334 C   0  0  0  0  0  0  0  0  0  0  0  0
    5.1243   -2.7160    0.6498 O   0  0  0  0  0  0  0  0  0  0  0  0
    7.1419   -1.4944    0.7544 C   0  0  0  0  0  0  0  0  0  0  0  0
    7.9120   -2.6485    0.8772 C   0  0  0  0  0  0  0  0  0  0  0  0
    9.2875   -2.5703    0.9905 C   0  0  0  0  0  0  0  0  0  0  0  0
    9.9130   -1.3320    0.9842 C   0  0  0  0  0  0  0  0  0  0  0  0
    9.1594   -0.1790    0.8645 C   0  0  0  0  0  0  0  0  0  0  0  0
    7.7734   -0.2445    0.7481 C   0  0  0  0  0  0  0  0  0  0  0  0
    7.0104    1.0183    0.6198 C   0  0  0  0  0  0  0  0  0  0  0  0
    7.5632    2.1047    0.6273 O   0  0  0  0  0  0  0  0  0  0  0  0
    0.7251   -0.4450   -0.6556 C   0  0  0  0  0  0  0  0  0  0  0  0
   -0.6393   -0.5322   -0.8131 C   0  0  0  0  0  0  0  0  0  0  0  0
   -3.1927    2.6256   -1.1988 C   0  0  0  0  0  0  0  0  0  0  0  0
   -3.9670    3.7600   -1.2799 C   0  0  0  0  0  0  0  0  0  0  0  0
   -7.8769    4.3497   -0.6486 H   0  0  0  0  0  0  0  0  0  0  0  0
   -7.5365    6.0902   -0.4888 H   0  0  0  0  0  0  0  0  0  0  0  0
   -7.1407    4.9858    0.8505 H   0  0  0  0  0  0  0  0  0  0  0  0
   -6.6425    2.7027    0.5113 H   0  0  0  0  0  0  0  0  0  0  0  0
   -5.2557    0.7090    0.6656 H   0  0  0  0  0  0  0  0  0  0  0  0
   -4.8781   -0.2994   -2.0110 H   0  0  0  0  0  0  0  0  0  0  0  0
   -5.9984   -2.4989   -2.1230 H   0  0  0  0  0  0  0  0  0  0  0  0
   -5.7504   -6.4713   -0.2828 H   0  0  0  0  0  0  0  0  0  0  0  0
   -4.0438   -5.9704   -0.1983 H   0  0  0  0  0  0  0  0  0  0  0  0
   -5.1929   -5.4576    1.0707 H   0  0  0  0  0  0  0  0  0  0  0  0
   -3.3553   -3.9880    0.8858 H   0  0  0  0  0  0  0  0  0  0  0  0
   -2.2685   -1.8151    1.0107 H   0  0  0  0  0  0  0  0  0  0  0  0
   -1.5469    2.2355    0.9044 H   0  0  0  0  0  0  0  0  0  0  0  0
    0.8753    2.3889    1.1740 H   0  0  0  0  0  0  0  0  0  0  0  0
    2.8272    2.8507    0.0633 H   0  0  0  0  0  0  0  0  0  0  0  0
    5.2766    2.9852    0.3308 H   0  0  0  0  0  0  0  0  0  0  0  0
    3.0762   -1.4159    0.3757 H   0  0  0  0  0  0  0  0  0  0  0  0
    7.4042   -3.6018    0.8802 H   0  0  0  0  0  0  0  0  0  0  0  0
    9.8736   -3.4725    1.0837 H   0  0  0  0  0  0  0  0  0  0  0  0
   10.9873   -1.2676    1.0724 H   0  0  0  0  0  0  0  0  0  0  0  0
    9.6250    0.7955    0.8577 H   0  0  0  0  0  0  0  0  0  0  0  0
    1.3570   -1.1890   -1.1169 H   0  0  0  0  0  0  0  0  0  0  0  0
   -1.0666   -1.3456   -1.3805 H   0  0  0  0  0  0  0  0  0  0  0  0
   -2.2301    2.5934   -1.6870 H   0  0  0  0  0  0  0  0  0  0  0  0
   -3.6252    4.6260   -1.8239 H   0  0  0  0  0  0  0  0  0  0  0  0
  1  2  1  0  0  0  0
  2  3  1  0  0  0  0
  3  4  2  0  0  0  0
  4  5  1  0  0  0  0
  5  6  2  0  0  0  0
  6  7  1  0  0  0  0
  7  8  1  0  0  0  0
  8  9  2  0  0  0  0
  9 10  1  0  0  0  0
 10 11  2  0  0  0  0
 11 12  1  0  0  0  0
 12 13  1  0  0  0  0
 11 14  1  0  0  0  0
 14 15  2  0  0  0  0
  7 16  1  0  0  0  0
 16 17  2  0  0  0  0
 17 18  1  0  0  0  0
 18 19  2  0  0  0  0
 19 20  1  0  0  0  0
 20 21  2  0  0  0  0
 21 22  1  0  0  0  0
 22 23  2  0  0  0  0
 23 24  1  0  0  0  0
 24 25  2  0  0  0  0
 24 26  1  0  0  0  0
 26 27  2  0  0  0  0
 26 28  1  0  0  0  0
 28 29  2  0  0  0  0
 29 30  1  0  0  0  0
 30 31  2  0  0  0  0
 31 32  1  0  0  0  0
 32 33  2  0  0  0  0
 33 34  1  0  0  0  0
 34 35  2  0  0  0  0
 19 36  1  0  0  0  0
 36 37  2  0  0  0  0
  6 38  1  0  0  0  0
 38 39  2  0  0  0  0
 39  3  1  0  0  0  0
 15  8  1  0  0  0  0
 37 16  1  0  0  0  0
 25 20  1  0  0  0  0
 33 28  1  0  0  0  0
 34 23  1  0  0  0  0
  1 40  1  0  0  0  0
  1 41  1  0  0  0  0
  1 42  1  0  0  0  0
  4 43  1  0  0  0  0
  5 44  1  0  0  0  0
  9 45  1  0  0  0  0
 10 46  1  0  0  0  0
 13 47  1  0  0  0  0
 13 48  1  0  0  0  0
 13 49  1  0  0  0  0
 14 50  1  0  0  0  0
 15 51  1  0  0  0  0
 17 52  1  0  0  0  0
 18 53  1  0  0  0  0
 21 54  1  0  0  0  0
 22 55  1  0  0  0  0
 25 56  1  0  0  0  0
 29 57  1  0  0  0  0
 30 58  1  0  0  0  0
 31 59  1  0  0  0  0
 32 60  1  0  0  0  0
 36 61  1  0  0  0  0
 37 62  1  0  0  0  0
 38 63  1  0  0  0  0
 39 64  1  0  0  0  0
M  END
