
  xtb     03022214293D
 energy: -45.092083665676 gnorm: 0.000186175944 xtb: 6.4.1 (afa7bdf)
 31 33  0     0  0            999 V2000
   -2.5843    2.1527    0.2758 C   0  0  0  0  0  0  0  0  0  0  0  0
   -2.6988    1.0616    1.3424 C   0  0  0  0  0  0  0  0  0  0  0  0
   -2.5977   -0.2974    0.7416 C   0  0  0  0  0  0  0  0  0  0  0  0
   -3.5578   -1.2787    0.5525 C   0  0  0  0  0  0  0  0  0  0  0  0
   -2.9653   -2.3740   -0.0768 C   0  0  0  0  0  0  0  0  0  0  0  0
   -1.6314   -2.0561   -0.2755 C   0  0  0  0  0  0  0  0  0  0  0  0
   -0.5114   -2.6940   -0.8246 C   0  0  0  0  0  0  0  0  0  0  0  0
    0.6819   -2.0288   -0.8454 C   0  0  0  0  0  0  0  0  0  0  0  0
    0.7536   -0.7128   -0.3069 C   0  0  0  0  0  0  0  0  0  0  0  0
    2.0056    0.0551   -0.3022 C   0  0  0  0  0  0  0  0  0  0  0  0
    2.9934   -0.1506   -1.2623 C   0  0  0  0  0  0  0  0  0  0  0  0
    4.1608    0.5901   -1.2344 C   0  0  0  0  0  0  0  0  0  0  0  0
    4.3595    1.5444   -0.2511 C   0  0  0  0  0  0  0  0  0  0  0  0
    3.3779    1.7634    0.7022 C   0  0  0  0  0  0  0  0  0  0  0  0
    2.2099    1.0271    0.6765 C   0  0  0  0  0  0  0  0  0  0  0  0
   -0.2830   -0.1174    0.2241 N   0  0  0  0  0  0  0  0  0  0  0  0
   -1.4365   -0.7673    0.2384 N   0  0  0  0  0  0  0  0  0  0  0  0
   -1.6222    2.0799   -0.2251 H   0  0  0  0  0  0  0  0  0  0  0  0
   -2.6669    3.1368    0.7306 H   0  0  0  0  0  0  0  0  0  0  0  0
   -3.3741    2.0439   -0.4644 H   0  0  0  0  0  0  0  0  0  0  0  0
   -1.8917    1.1919    2.0680 H   0  0  0  0  0  0  0  0  0  0  0  0
   -3.6531    1.1469    1.8644 H   0  0  0  0  0  0  0  0  0  0  0  0
   -4.5859   -1.1992    0.8493 H   0  0  0  0  0  0  0  0  0  0  0  0
   -3.4412   -3.2921   -0.3587 H   0  0  0  0  0  0  0  0  0  0  0  0
   -0.6117   -3.6959   -1.2146 H   0  0  0  0  0  0  0  0  0  0  0  0
    1.5695   -2.4964   -1.2375 H   0  0  0  0  0  0  0  0  0  0  0  0
    2.8436   -0.8745   -2.0496 H   0  0  0  0  0  0  0  0  0  0  0  0
    4.9184    0.4237   -1.9865 H   0  0  0  0  0  0  0  0  0  0  0  0
    5.2743    2.1183   -0.2307 H   0  0  0  0  0  0  0  0  0  0  0  0
    3.5265    2.5107    1.4680 H   0  0  0  0  0  0  0  0  0  0  0  0
    1.4381    1.1887    1.4126 H   0  0  0  0  0  0  0  0  0  0  0  0
  1  2  1  0  0  0  0
  2  3  1  0  0  0  0
  3  4  2  0  0  0  0
  4  5  1  0  0  0  0
  5  6  2  0  0  0  0
  6  7  1  0  0  0  0
  7  8  2  0  0  0  0
  8  9  1  0  0  0  0
  9 10  1  0  0  0  0
 10 11  2  0  0  0  0
 11 12  1  0  0  0  0
 12 13  2  0  0  0  0
 13 14  1  0  0  0  0
 14 15  2  0  0  0  0
  9 16  2  0  0  0  0
 16 17  1  0  0  0  0
 17  3  1  0  0  0  0
 17  6  1  0  0  0  0
 15 10  1  0  0  0  0
  1 18  1  0  0  0  0
  1 19  1  0  0  0  0
  1 20  1  0  0  0  0
  2 21  1  0  0  0  0
  2 22  1  0  0  0  0
  4 23  1  0  0  0  0
  5 24  1  0  0  0  0
  7 25  1  0  0  0  0
  8 26  1  0  0  0  0
 11 27  1  0  0  0  0
 12 28  1  0  0  0  0
 13 29  1  0  0  0  0
 14 30  1  0  0  0  0
 15 31  1  0  0  0  0
M  END
