
  xtb     03022213453D
 energy: -55.183613305443 gnorm: 0.000196269013 xtb: 6.4.1 (afa7bdf)
 39 40  0     0  0            999 V2000
   -6.2368    1.6228   -0.7742 C   0  0  0  0  0  0  0  0  0  0  0  0
   -5.2181    0.6832   -0.2053 C   0  0  0  0  0  0  0  0  0  0  0  0
   -4.1198    1.1604    0.4996 C   0  0  0  0  0  0  0  0  0  0  0  0
   -3.1644    0.2955    1.0001 C   0  0  0  0  0  0  0  0  0  0  0  0
   -3.2925   -1.0771    0.8086 C   0  0  0  0  0  0  0  0  0  0  0  0
   -2.3105   -2.0489    1.3648 C   0  0  0  0  0  0  0  0  0  0  0  0
   -2.6854   -3.0940    1.8732 O   0  0  0  0  0  0  0  0  0  0  0  0
   -0.8914   -1.7140    1.2698 C   0  0  0  0  0  0  0  0  0  0  0  0
   -0.3708   -0.8484    0.3815 C   0  0  0  0  0  0  0  0  0  0  0  0
    1.0210   -0.5201    0.2073 C   0  0  0  0  0  0  0  0  0  0  0  0
    2.0509   -1.0515    0.9924 C   0  0  0  0  0  0  0  0  0  0  0  0
    3.3643   -0.7042    0.7897 C   0  0  0  0  0  0  0  0  0  0  0  0
    3.7348    0.2032   -0.2188 C   0  0  0  0  0  0  0  0  0  0  0  0
    5.0406    0.5449   -0.4251 N   0  0  0  0  0  0  0  0  0  0  0  0
    5.3893    1.5762   -1.3702 C   0  0  0  0  0  0  0  0  0  0  0  0
    6.0969   -0.1137    0.3024 C   0  0  0  0  0  0  0  0  0  0  0  0
    2.7018    0.7416   -1.0052 C   0  0  0  0  0  0  0  0  0  0  0  0
    1.3916    0.3865   -0.7935 C   0  0  0  0  0  0  0  0  0  0  0  0
   -4.4069   -1.5606    0.1279 C   0  0  0  0  0  0  0  0  0  0  0  0
   -5.3491   -0.6904   -0.3817 C   0  0  0  0  0  0  0  0  0  0  0  0
   -6.2073    2.5842   -0.2672 H   0  0  0  0  0  0  0  0  0  0  0  0
   -6.0376    1.7907   -1.8334 H   0  0  0  0  0  0  0  0  0  0  0  0
   -7.2379    1.2063   -0.6855 H   0  0  0  0  0  0  0  0  0  0  0  0
   -4.0128    2.2240    0.6619 H   0  0  0  0  0  0  0  0  0  0  0  0
   -2.3293    0.6842    1.5650 H   0  0  0  0  0  0  0  0  0  0  0  0
   -0.2557   -2.2971    1.9214 H   0  0  0  0  0  0  0  0  0  0  0  0
   -1.0441   -0.3414   -0.3003 H   0  0  0  0  0  0  0  0  0  0  0  0
    1.8166   -1.7493    1.7812 H   0  0  0  0  0  0  0  0  0  0  0  0
    4.1138   -1.1374    1.4314 H   0  0  0  0  0  0  0  0  0  0  0  0
    6.4456    1.8154   -1.2733 H   0  0  0  0  0  0  0  0  0  0  0  0
    4.8182    2.4883   -1.1785 H   0  0  0  0  0  0  0  0  0  0  0  0
    5.2029    1.2572   -2.4016 H   0  0  0  0  0  0  0  0  0  0  0  0
    7.0588    0.1707   -0.1176 H   0  0  0  0  0  0  0  0  0  0  0  0
    6.0898    0.1623    1.3626 H   0  0  0  0  0  0  0  0  0  0  0  0
    6.0030   -1.1998    0.2237 H   0  0  0  0  0  0  0  0  0  0  0  0
    2.9257    1.4370   -1.7975 H   0  0  0  0  0  0  0  0  0  0  0  0
    0.6234    0.8179   -1.4205 H   0  0  0  0  0  0  0  0  0  0  0  0
   -4.5154   -2.6277    0.0022 H   0  0  0  0  0  0  0  0  0  0  0  0
   -6.2038   -1.0778   -0.9181 H   0  0  0  0  0  0  0  0  0  0  0  0
  1  2  1  0  0  0  0
  2  3  2  0  0  0  0
  3  4  1  0  0  0  0
  4  5  2  0  0  0  0
  5  6  1  0  0  0  0
  6  7  2  0  0  0  0
  6  8  1  0  0  0  0
  8  9  2  0  0  0  0
  9 10  1  0  0  0  0
 10 11  2  0  0  0  0
 11 12  1  0  0  0  0
 12 13  2  0  0  0  0
 13 14  1  0  0  0  0
 14 15  1  0  0  0  0
 14 16  1  0  0  0  0
 13 17  1  0  0  0  0
 17 18  2  0  0  0  0
  5 19  1  0  0  0  0
 19 20  2  0  0  0  0
 20  2  1  0  0  0  0
 18 10  1  0  0  0  0
  1 21  1  0  0  0  0
  1 22  1  0  0  0  0
  1 23  1  0  0  0  0
  3 24  1  0  0  0  0
  4 25  1  0  0  0  0
  8 26  1  0  0  0  0
  9 27  1  0  0  0  0
 11 28  1  0  0  0  0
 12 29  1  0  0  0  0
 15 30  1  0  0  0  0
 15 31  1  0  0  0  0
 15 32  1  0  0  0  0
 16 33  1  0  0  0  0
 16 34  1  0  0  0  0
 16 35  1  0  0  0  0
 17 36  1  0  0  0  0
 18 37  1  0  0  0  0
 19 38  1  0  0  0  0
 20 39  1  0  0  0  0
M  END
