
  xtb     03022214213D
 energy: -88.996538414333 gnorm: 0.000101040234 xtb: 6.4.1 (afa7bdf)
 45 49  0     0  0            999 V2000
   -4.0701   -1.0017   -2.3455 O   0  0  0  0  0  0  0  0  0  0  0  0
   -3.4640   -0.5790   -1.3831 C   0  0  0  0  0  0  0  0  0  0  0  0
   -4.0556   -0.1817   -0.2094 N   0  0  0  0  0  0  0  0  0  0  0  0
   -5.3864   -0.1980    0.1400 C   0  0  0  0  0  0  0  0  0  0  0  0
   -6.3760   -0.6636   -0.7362 C   0  0  0  0  0  0  0  0  0  0  0  0
   -7.7056   -0.6704   -0.3788 C   0  0  0  0  0  0  0  0  0  0  0  0
   -8.1101   -0.2116    0.8708 C   0  0  0  0  0  0  0  0  0  0  0  0
   -7.1624    0.2495    1.7519 C   0  0  0  0  0  0  0  0  0  0  0  0
   -5.8059    0.2644    1.4105 C   0  0  0  0  0  0  0  0  0  0  0  0
   -4.9123    0.7625    2.4054 N   0  0  0  0  0  4  0  0  0  0  0  0
   -3.7063    0.7624    2.1781 O   0  0  0  0  0  0  0  0  0  0  0  0
   -5.3813    1.1700    3.4458 O   0  0  0  0  0  1  0  0  0  0  0  0
   -1.9793   -0.4302   -1.3950 C   0  0  0  0  0  0  0  0  0  0  0  0
   -1.3887   -0.4095   -2.6711 C   0  0  0  0  0  0  0  0  0  0  0  0
   -0.0278   -0.2970   -2.8603 C   0  0  0  0  0  0  0  0  0  0  0  0
    0.7434   -0.2181   -1.7153 C   0  0  0  0  0  0  0  0  0  0  0  0
    2.0810   -0.1162   -1.5679 O   0  0  0  0  0  0  0  0  0  0  0  0
    2.2739   -0.0927   -0.2065 C   0  0  0  0  0  0  0  0  0  0  0  0
    3.6280    0.0057    0.2805 C   0  0  0  0  0  0  0  0  0  0  0  0
    4.6794    0.0182   -0.5821 C   0  0  0  0  0  0  0  0  0  0  0  0
    6.0170    0.1075   -0.1010 C   0  0  0  0  0  0  0  0  0  0  0  0
    7.1428    0.1191   -0.9350 C   0  0  0  0  0  0  0  0  0  0  0  0
    8.4047    0.2037   -0.3956 C   0  0  0  0  0  0  0  0  0  0  0  0
    8.5719    0.2791    0.9863 C   0  0  0  0  0  0  0  0  0  0  0  0
    7.4808    0.2697    1.8292 C   0  0  0  0  0  0  0  0  0  0  0  0
    6.1983    0.1835    1.2908 C   0  0  0  0  0  0  0  0  0  0  0  0
    5.1511    0.1754    2.1413 O   0  0  0  0  0  0  0  0  0  0  0  0
    3.8427    0.0908    1.7362 C   0  0  0  0  0  0  0  0  0  0  0  0
    2.9968    0.0957    2.5827 O   0  0  0  0  0  0  0  0  0  0  0  0
    1.1890   -0.1709    0.4886 N   0  0  0  0  0  0  0  0  0  0  0  0
    0.1721   -0.2516   -0.4219 C   0  0  0  0  0  0  0  0  0  0  0  0
   -1.2012   -0.3555   -0.2465 C   0  0  0  0  0  0  0  0  0  0  0  0
   -3.4470    0.1921    0.5208 H   0  0  0  0  0  0  0  0  0  0  0  0
   -6.0707   -1.0193   -1.7058 H   0  0  0  0  0  0  0  0  0  0  0  0
   -8.4387   -1.0372   -1.0809 H   0  0  0  0  0  0  0  0  0  0  0  0
   -9.1521   -0.2176    1.1473 H   0  0  0  0  0  0  0  0  0  0  0  0
   -7.4397    0.6103    2.7307 H   0  0  0  0  0  0  0  0  0  0  0  0
   -2.0481   -0.4883   -3.5220 H   0  0  0  0  0  0  0  0  0  0  0  0
    0.4131   -0.2768   -3.8435 H   0  0  0  0  0  0  0  0  0  0  0  0
    4.5090   -0.0436   -1.6477 H   0  0  0  0  0  0  0  0  0  0  0  0
    6.9996    0.0600   -2.0035 H   0  0  0  0  0  0  0  0  0  0  0  0
    9.2696    0.2116   -1.0407 H   0  0  0  0  0  0  0  0  0  0  0  0
    9.5656    0.3454    1.4017 H   0  0  0  0  0  0  0  0  0  0  0  0
    7.5912    0.3272    2.9000 H   0  0  0  0  0  0  0  0  0  0  0  0
   -1.5924   -0.3953    0.7573 H   0  0  0  0  0  0  0  0  0  0  0  0
  1  2  2  0  0  0  0
  2  3  1  0  0  0  0
  3  4  1  0  0  0  0
  4  5  2  0  0  0  0
  5  6  1  0  0  0  0
  6  7  2  0  0  0  0
  7  8  1  0  0  0  0
  8  9  2  0  0  0  0
  9 10  1  0  0  0  0
 10 11  2  0  0  0  0
 10 12  1  0  0  0  0
  2 13  1  0  0  0  0
 13 14  2  0  0  0  0
 14 15  1  0  0  0  0
 15 16  2  0  0  0  0
 16 17  1  0  0  0  0
 17 18  1  0  0  0  0
 18 19  1  0  0  0  0
 19 20  2  0  0  0  0
 20 21  1  0  0  0  0
 21 22  2  0  0  0  0
 22 23  1  0  0  0  0
 23 24  2  0  0  0  0
 24 25  1  0  0  0  0
 25 26  2  0  0  0  0
 26 27  1  0  0  0  0
 27 28  1  0  0  0  0
 28 29  2  0  0  0  0
 18 30  2  0  0  0  0
 30 31  1  0  0  0  0
 31 32  2  0  0  0  0
  9  4  1  0  0  0  0
 32 13  1  0  0  0  0
 31 16  1  0  0  0  0
 28 19  1  0  0  0  0
 26 21  1  0  0  0  0
  3 33  1  0  0  0  0
  5 34  1  0  0  0  0
  6 35  1  0  0  0  0
  7 36  1  0  0  0  0
  8 37  1  0  0  0  0
 14 38  1  0  0  0  0
 15 39  1  0  0  0  0
 20 40  1  0  0  0  0
 22 41  1  0  0  0  0
 23 42  1  0  0  0  0
 24 43  1  0  0  0  0
 25 44  1  0  0  0  0
 32 45  1  0  0  0  0
M  CHG  1  10   1
M  CHG  1  12  -1
M  END
