
  xtb     03022214593D
 energy: -87.558151294558 gnorm: 0.000263276898 xtb: 6.4.1 (afa7bdf)
 52 55  0     0  0            999 V2000
   -4.4277   -4.7760    1.6655 C   0  0  0  0  0  0  0  0  0  0  0  0
   -3.1329   -4.7981    1.1155 O   0  0  0  0  0  0  0  0  0  0  0  0
   -2.5208   -3.6162    0.8379 C   0  0  0  0  0  0  0  0  0  0  0  0
   -1.2325   -3.7079    0.3057 C   0  0  0  0  0  0  0  0  0  0  0  0
   -0.5255   -2.5713   -0.0113 C   0  0  0  0  0  0  0  0  0  0  0  0
   -1.0871   -1.3082    0.1795 C   0  0  0  0  0  0  0  0  0  0  0  0
   -0.2987   -0.1193   -0.1359 C   0  0  0  0  0  0  0  0  0  0  0  0
    1.0238   -0.1492    0.1255 N   0  0  0  0  0  0  0  0  0  0  0  0
    1.6171    0.9745   -0.1140 C   0  0  0  0  0  0  0  0  0  0  0  0
    3.0234    1.2146    0.0995 C   0  0  0  0  0  0  0  0  0  0  0  0
    3.4493    2.5240   -0.2160 C   0  0  0  0  0  0  0  0  0  0  0  0
    3.7214    3.6040   -0.4937 N   0  0  0  0  0  0  0  0  0  0  0  0
    3.8128    0.2107    0.5698 C   0  0  0  0  0  0  0  0  0  0  0  0
    5.2206    0.2013    0.8614 C   0  0  0  0  0  0  0  0  0  0  0  0
    5.7776   -0.9978    1.3368 C   0  0  0  0  0  0  0  0  0  0  0  0
    7.1154   -1.0927    1.6420 C   0  0  0  0  0  0  0  0  0  0  0  0
    7.9435    0.0212    1.4795 C   0  0  0  0  0  0  0  0  0  0  0  0
    9.3180   -0.0684    1.7914 C   0  0  0  0  0  0  0  0  0  0  0  0
   10.4333   -0.1442    2.0468 N   0  0  0  0  0  0  0  0  0  0  0  0
    7.4068    1.2218    1.0081 C   0  0  0  0  0  0  0  0  0  0  0  0
    6.0664    1.3085    0.7041 C   0  0  0  0  0  0  0  0  0  0  0  0
    0.5444    2.2255   -0.7250 S   0  0  0  0  0  0  0  0  0  0  0  0
   -0.7644    1.0898   -0.6323 C   0  0  0  0  0  0  0  0  0  0  0  0
   -2.0823    1.4569   -1.1087 C   0  0  0  0  0  0  0  0  0  0  0  0
   -2.5504    2.7599   -0.9568 C   0  0  0  0  0  0  0  0  0  0  0  0
   -3.7973    3.1346   -1.4192 C   0  0  0  0  0  0  0  0  0  0  0  0
   -4.6072    2.2045   -2.0637 C   0  0  0  0  0  0  0  0  0  0  0  0
   -5.8466    2.4566   -2.5570 O   0  0  0  0  0  0  0  0  0  0  0  0
   -6.3718    3.7570   -2.4348 C   0  0  0  0  0  0  0  0  0  0  0  0
   -4.1345    0.8999   -2.2387 C   0  0  0  0  0  0  0  0  0  0  0  0
   -2.8954    0.5317   -1.7725 C   0  0  0  0  0  0  0  0  0  0  0  0
   -2.3632   -1.2201    0.7246 C   0  0  0  0  0  0  0  0  0  0  0  0
   -3.0772   -2.3582    1.0504 C   0  0  0  0  0  0  0  0  0  0  0  0
   -4.7076   -5.8195    1.8011 H   0  0  0  0  0  0  0  0  0  0  0  0
   -4.4439   -4.2689    2.6356 H   0  0  0  0  0  0  0  0  0  0  0  0
   -5.1434   -4.2947    0.9912 H   0  0  0  0  0  0  0  0  0  0  0  0
   -0.8106   -4.6888    0.1542 H   0  0  0  0  0  0  0  0  0  0  0  0
    0.4713   -2.6447   -0.4175 H   0  0  0  0  0  0  0  0  0  0  0  0
    3.2914   -0.7210    0.7515 H   0  0  0  0  0  0  0  0  0  0  0  0
    5.1391   -1.8598    1.4639 H   0  0  0  0  0  0  0  0  0  0  0  0
    7.5335   -2.0194    2.0066 H   0  0  0  0  0  0  0  0  0  0  0  0
    8.0502    2.0802    0.8844 H   0  0  0  0  0  0  0  0  0  0  0  0
    5.6693    2.2422    0.3422 H   0  0  0  0  0  0  0  0  0  0  0  0
   -1.9301    3.4907   -0.4577 H   0  0  0  0  0  0  0  0  0  0  0  0
   -4.1235    4.1521   -1.2733 H   0  0  0  0  0  0  0  0  0  0  0  0
   -5.7503    4.4917   -2.9562 H   0  0  0  0  0  0  0  0  0  0  0  0
   -7.3550    3.7221   -2.9012 H   0  0  0  0  0  0  0  0  0  0  0  0
   -6.4799    4.0498   -1.3855 H   0  0  0  0  0  0  0  0  0  0  0  0
   -4.7646    0.1940   -2.7560 H   0  0  0  0  0  0  0  0  0  0  0  0
   -2.5388   -0.4743   -1.9311 H   0  0  0  0  0  0  0  0  0  0  0  0
   -2.8027   -0.2512    0.9091 H   0  0  0  0  0  0  0  0  0  0  0  0
   -4.0629   -2.2504    1.4747 H   0  0  0  0  0  0  0  0  0  0  0  0
  1  2  1  0  0  0  0
  2  3  1  0  0  0  0
  3  4  2  0  0  0  0
  4  5  1  0  0  0  0
  5  6  2  0  0  0  0
  6  7  1  0  0  0  0
  7  8  1  0  0  0  0
  8  9  2  0  0  0  0
  9 10  1  0  0  0  0
 10 11  1  0  0  0  0
 11 12  3  0  0  0  0
 10 13  2  0  0  0  0
 13 14  1  0  0  0  0
 14 15  2  0  0  0  0
 15 16  1  0  0  0  0
 16 17  2  0  0  0  0
 17 18  1  0  0  0  0
 18 19  3  0  0  0  0
 17 20  1  0  0  0  0
 20 21  2  0  0  0  0
  9 22  1  0  0  0  0
 22 23  1  0  0  0  0
 23 24  1  0  0  0  0
 24 25  2  0  0  0  0
 25 26  1  0  0  0  0
 26 27  2  0  0  0  0
 27 28  1  0  0  0  0
 28 29  1  0  0  0  0
 27 30  1  0  0  0  0
 30 31  2  0  0  0  0
  6 32  1  0  0  0  0
 32 33  2  0  0  0  0
 33  3  1  0  0  0  0
 23  7  2  0  0  0  0
 31 24  1  0  0  0  0
 21 14  1  0  0  0  0
  1 34  1  0  0  0  0
  1 35  1  0  0  0  0
  1 36  1  0  0  0  0
  4 37  1  0  0  0  0
  5 38  1  0  0  0  0
 13 39  1  0  0  0  0
 15 40  1  0  0  0  0
 16 41  1  0  0  0  0
 20 42  1  0  0  0  0
 21 43  1  0  0  0  0
 25 44  1  0  0  0  0
 26 45  1  0  0  0  0
 29 46  1  0  0  0  0
 29 47  1  0  0  0  0
 29 48  1  0  0  0  0
 30 49  1  0  0  0  0
 31 50  1  0  0  0  0
 32 51  1  0  0  0  0
 33 52  1  0  0  0  0
M  END
