
  xtb     03022215033D
 energy: -63.606865319033 gnorm: 0.000215394503 xtb: 6.4.1 (afa7bdf)
 42 45  0     0  0            999 V2000
   -0.7362   -3.5929   -0.2009 C   0  0  0  0  0  0  0  0  0  0  0  0
   -0.8874   -2.5699   -1.1637 O   0  0  0  0  0  0  0  0  0  0  0  0
   -1.0758   -1.3174   -0.6065 C   0  0  0  0  0  0  0  0  0  0  0  0
   -2.3870   -0.8247   -0.4161 C   0  0  0  0  0  0  0  0  0  0  0  0
   -3.5173   -1.5866   -0.7865 C   0  0  0  0  0  0  0  0  0  0  0  0
   -4.7823   -1.1164   -0.5841 C   0  0  0  0  0  0  0  0  0  0  0  0
   -4.9786    0.1413    0.0093 C   0  0  0  0  0  0  0  0  0  0  0  0
   -3.9091    0.9104    0.3663 C   0  0  0  0  0  0  0  0  0  0  0  0
   -2.5839    0.4652    0.1560 C   0  0  0  0  0  0  0  0  0  0  0  0
   -1.4767    1.2676    0.5197 C   0  0  0  0  0  0  0  0  0  0  0  0
   -1.6963    2.5408    1.0407 O   0  0  0  0  0  0  0  0  0  0  0  0
   -1.8560    3.5300    0.0427 C   0  0  0  0  0  0  0  0  0  0  0  0
   -0.2037    0.7615    0.3437 C   0  0  0  0  0  0  0  0  0  0  0  0
   -0.0046   -0.5338   -0.2340 C   0  0  0  0  0  0  0  0  0  0  0  0
    1.4186   -0.7289   -0.3065 C   0  0  0  0  0  0  0  0  0  0  0  0
    2.2274   -1.7441   -0.7985 C   0  0  0  0  0  0  0  0  0  0  0  0
    3.5970   -1.5992   -0.7101 C   0  0  0  0  0  0  0  0  0  0  0  0
    4.1829   -0.4625   -0.1452 C   0  0  0  0  0  0  0  0  0  0  0  0
    5.6773   -0.3544   -0.0880 C   0  0  0  0  0  0  0  0  0  0  0  0
    3.3841    0.5637    0.3349 C   0  0  0  0  0  0  0  0  0  0  0  0
    2.0068    0.4271    0.2491 C   0  0  0  0  0  0  0  0  0  0  0  0
    1.0241    1.3066    0.6385 N   0  0  0  0  0  0  0  0  0  0  0  0
    1.2856    2.5507    1.3079 C   0  0  0  0  0  0  0  0  0  0  0  0
    0.1149   -3.3978    0.4604 H   0  0  0  0  0  0  0  0  0  0  0  0
   -0.5637   -4.5126   -0.7577 H   0  0  0  0  0  0  0  0  0  0  0  0
   -1.6402   -3.6990    0.4101 H   0  0  0  0  0  0  0  0  0  0  0  0
   -3.3516   -2.5504   -1.2445 H   0  0  0  0  0  0  0  0  0  0  0  0
   -5.6384   -1.7086   -0.8723 H   0  0  0  0  0  0  0  0  0  0  0  0
   -5.9843    0.4961    0.1820 H   0  0  0  0  0  0  0  0  0  0  0  0
   -4.0586    1.8703    0.8379 H   0  0  0  0  0  0  0  0  0  0  0  0
   -0.9454    3.6378   -0.5578 H   0  0  0  0  0  0  0  0  0  0  0  0
   -2.0593    4.4629    0.5666 H   0  0  0  0  0  0  0  0  0  0  0  0
   -2.6901    3.2944   -0.6257 H   0  0  0  0  0  0  0  0  0  0  0  0
    1.7919   -2.6195   -1.2535 H   0  0  0  0  0  0  0  0  0  0  0  0
    4.2407   -2.3795   -1.0895 H   0  0  0  0  0  0  0  0  0  0  0  0
    6.1126   -1.2692    0.3108 H   0  0  0  0  0  0  0  0  0  0  0  0
    5.9863    0.4816    0.5348 H   0  0  0  0  0  0  0  0  0  0  0  0
    6.0809   -0.2043   -1.0897 H   0  0  0  0  0  0  0  0  0  0  0  0
    3.8322    1.4503    0.7586 H   0  0  0  0  0  0  0  0  0  0  0  0
    1.7024    3.2884    0.6145 H   0  0  0  0  0  0  0  0  0  0  0  0
    0.3596    2.9339    1.7283 H   0  0  0  0  0  0  0  0  0  0  0  0
    2.0012    2.3909    2.1174 H   0  0  0  0  0  0  0  0  0  0  0  0
  1  2  1  0  0  0  0
  2  3  1  0  0  0  0
  3  4  2  0  0  0  0
  4  5  1  0  0  0  0
  5  6  2  0  0  0  0
  6  7  1  0  0  0  0
  7  8  2  0  0  0  0
  8  9  1  0  0  0  0
  9 10  2  0  0  0  0
 10 11  1  0  0  0  0
 11 12  1  0  0  0  0
 10 13  1  0  0  0  0
 13 14  2  0  0  0  0
 14 15  1  0  0  0  0
 15 16  2  0  0  0  0
 16 17  1  0  0  0  0
 17 18  2  0  0  0  0
 18 19  1  0  0  0  0
 18 20  1  0  0  0  0
 20 21  2  0  0  0  0
 21 22  1  0  0  0  0
 22 23  1  0  0  0  0
 14  3  1  0  0  0  0
 21 15  1  0  0  0  0
  9  4  1  0  0  0  0
 22 13  1  0  0  0  0
  1 24  1  0  0  0  0
  1 25  1  0  0  0  0
  1 26  1  0  0  0  0
  5 27  1  0  0  0  0
  6 28  1  0  0  0  0
  7 29  1  0  0  0  0
  8 30  1  0  0  0  0
 12 31  1  0  0  0  0
 12 32  1  0  0  0  0
 12 33  1  0  0  0  0
 16 34  1  0  0  0  0
 17 35  1  0  0  0  0
 19 36  1  0  0  0  0
 19 37  1  0  0  0  0
 19 38  1  0  0  0  0
 20 39  1  0  0  0  0
 23 40  1  0  0  0  0
 23 41  1  0  0  0  0
 23 42  1  0  0  0  0
M  END
