
  xtb     03022212233D
 energy: -60.493273049532 gnorm: 0.000358581412 xtb: 6.4.1 (afa7bdf)
 36 39  0     0  0            999 V2000
    6.7395   -0.5929    0.6899 N   0  0  0  0  0  0  0  0  0  0  0  0
    5.4032   -0.3522    0.4868 C   0  0  0  0  0  0  0  0  0  0  0  0
    4.9566    0.9106    0.0892 C   0  0  0  0  0  0  0  0  0  0  0  0
    3.6257    1.1292   -0.1878 C   0  0  0  0  0  0  0  0  0  0  0  0
    2.6854    0.1052   -0.0634 C   0  0  0  0  0  0  0  0  0  0  0  0
    1.2704    0.3410   -0.3514 C   0  0  0  0  0  0  0  0  0  0  0  0
    0.8766    1.1933   -1.3878 C   0  0  0  0  0  0  0  0  0  0  0  0
   -0.4583    1.4079   -1.6565 C   0  0  0  0  0  0  0  0  0  0  0  0
   -1.4526    0.7846   -0.9034 C   0  0  0  0  0  0  0  0  0  0  0  0
   -1.0723   -0.0705    0.1410 C   0  0  0  0  0  0  0  0  0  0  0  0
    0.2751   -0.2810    0.4010 C   0  0  0  0  0  0  0  0  0  0  0  0
   -2.0696   -0.7608    0.9862 C   0  0  0  0  0  0  0  0  0  0  0  0
   -1.7441   -1.4981    1.8988 O   0  0  0  0  0  0  0  0  0  0  0  0
   -3.4893   -0.5065    0.6564 C   0  0  0  0  0  0  0  0  0  0  0  0
   -4.4747   -1.1350    1.4139 C   0  0  0  0  0  0  0  0  0  0  0  0
   -5.8140   -0.9286    1.1402 C   0  0  0  0  0  0  0  0  0  0  0  0
   -6.1863   -0.0877    0.1016 C   0  0  0  0  0  0  0  0  0  0  0  0
   -5.2173    0.5430   -0.6567 C   0  0  0  0  0  0  0  0  0  0  0  0
   -3.8652    0.3435   -0.3910 C   0  0  0  0  0  0  0  0  0  0  0  0
   -2.8647    1.0428   -1.2301 C   0  0  0  0  0  0  0  0  0  0  0  0
   -3.1969    1.7862   -2.1370 O   0  0  0  0  0  0  0  0  0  0  0  0
    3.1338   -1.1524    0.3442 C   0  0  0  0  0  0  0  0  0  0  0  0
    4.4656   -1.3812    0.6072 C   0  0  0  0  0  0  0  0  0  0  0  0
    7.3361    0.2038    0.8365 H   0  0  0  0  0  0  0  0  0  0  0  0
    6.9868   -1.4213    1.2046 H   0  0  0  0  0  0  0  0  0  0  0  0
    5.6688    1.7186    0.0011 H   0  0  0  0  0  0  0  0  0  0  0  0
    3.3023    2.1193   -0.4729 H   0  0  0  0  0  0  0  0  0  0  0  0
    1.6283    1.6709   -1.9985 H   0  0  0  0  0  0  0  0  0  0  0  0
   -0.7649    2.0602   -2.4610 H   0  0  0  0  0  0  0  0  0  0  0  0
    0.5335   -0.9299    1.2250 H   0  0  0  0  0  0  0  0  0  0  0  0
   -4.1618   -1.7855    2.2174 H   0  0  0  0  0  0  0  0  0  0  0  0
   -6.5686   -1.4221    1.7346 H   0  0  0  0  0  0  0  0  0  0  0  0
   -7.2316    0.0750   -0.1151 H   0  0  0  0  0  0  0  0  0  0  0  0
   -5.4842    1.2025   -1.4694 H   0  0  0  0  0  0  0  0  0  0  0  0
    2.4308   -1.9674    0.4301 H   0  0  0  0  0  0  0  0  0  0  0  0
    4.7975   -2.3645    0.9086 H   0  0  0  0  0  0  0  0  0  0  0  0
  1  2  1  0  0  0  0
  2  3  2  0  0  0  0
  3  4  1  0  0  0  0
  4  5  2  0  0  0  0
  5  6  1  0  0  0  0
  6  7  2  0  0  0  0
  7  8  1  0  0  0  0
  8  9  2  0  0  0  0
  9 10  1  0  0  0  0
 10 11  2  0  0  0  0
 10 12  1  0  0  0  0
 12 13  2  0  0  0  0
 12 14  1  0  0  0  0
 14 15  2  0  0  0  0
 15 16  1  0  0  0  0
 16 17  2  0  0  0  0
 17 18  1  0  0  0  0
 18 19  2  0  0  0  0
 19 20  1  0  0  0  0
 20 21  2  0  0  0  0
  5 22  1  0  0  0  0
 22 23  2  0  0  0  0
 23  2  1  0  0  0  0
 11  6  1  0  0  0  0
 19 14  1  0  0  0  0
 20  9  1  0  0  0  0
  1 24  1  0  0  0  0
  1 25  1  0  0  0  0
  3 26  1  0  0  0  0
  4 27  1  0  0  0  0
  7 28  1  0  0  0  0
  8 29  1  0  0  0  0
 11 30  1  0  0  0  0
 15 31  1  0  0  0  0
 16 32  1  0  0  0  0
 17 33  1  0  0  0  0
 18 34  1  0  0  0  0
 22 35  1  0  0  0  0
 23 36  1  0  0  0  0
M  END
