
  xtb     03022215453D
 energy: -69.564846214743 gnorm: 0.000068528845 xtb: 6.4.1 (afa7bdf)
 45 47  0     0  0            999 V2000
   -7.0341    1.2065   -1.6910 C   0  0  0  0  0  0  0  0  0  0  0  0
   -6.6620    0.4589   -0.5159 N   0  0  0  0  0  0  0  0  0  0  0  0
   -7.7007   -0.0202    0.3616 C   0  0  0  0  0  0  0  0  0  0  0  0
   -5.3472    0.2185   -0.2327 C   0  0  0  0  0  0  0  0  0  0  0  0
   -4.9666   -0.5825    0.8584 C   0  0  0  0  0  0  0  0  0  0  0  0
   -3.6445   -0.8256    1.1414 C   0  0  0  0  0  0  0  0  0  0  0  0
   -2.6140   -0.2896    0.3597 C   0  0  0  0  0  0  0  0  0  0  0  0
   -1.2175   -0.5173    0.6153 C   0  0  0  0  0  0  0  0  0  0  0  0
   -0.6878   -1.2487    1.6173 C   0  0  0  0  0  0  0  0  0  0  0  0
    0.7113   -1.4339    1.8086 C   0  0  0  0  0  0  0  0  0  0  0  0
    1.4057   -2.1427    2.7729 C   0  0  0  0  0  0  0  0  0  0  0  0
    2.7274   -2.0293    2.5444 N   0  0  0  0  0  0  0  0  0  0  0  0
    2.8384   -1.2763    1.4758 C   0  0  0  0  0  0  0  0  0  0  0  0
    4.0678   -0.8924    0.8673 C   0  0  0  0  0  0  0  0  0  0  0  0
    4.1459   -0.1180   -0.2319 C   0  0  0  0  0  0  0  0  0  0  0  0
    5.3549    0.3050   -0.8977 C   0  0  0  0  0  0  0  0  0  0  0  0
    6.6359   -0.0592   -0.4613 C   0  0  0  0  0  0  0  0  0  0  0  0
    7.7609    0.3679   -1.1290 C   0  0  0  0  0  0  0  0  0  0  0  0
    7.6387    1.1779   -2.2614 C   0  0  0  0  0  0  0  0  0  0  0  0
    8.7914    1.6165   -2.9470 C   0  0  0  0  0  0  0  0  0  0  0  0
    9.7283    1.9734   -3.5047 N   0  0  0  0  0  0  0  0  0  0  0  0
    6.3698    1.5508   -2.7108 C   0  0  0  0  0  0  0  0  0  0  0  0
    5.2514    1.1177   -2.0353 C   0  0  0  0  0  0  0  0  0  0  0  0
    1.6376   -0.8832    0.9835 O   0  0  0  0  0  0  0  0  0  0  0  0
   -2.9958    0.5080   -0.7264 C   0  0  0  0  0  0  0  0  0  0  0  0
   -4.3149    0.7584   -1.0185 C   0  0  0  0  0  0  0  0  0  0  0  0
   -6.7168    2.2525   -1.6190 H   0  0  0  0  0  0  0  0  0  0  0  0
   -8.1149    1.1864   -1.8076 H   0  0  0  0  0  0  0  0  0  0  0  0
   -6.5897    0.7681   -2.5887 H   0  0  0  0  0  0  0  0  0  0  0  0
   -8.6616    0.3696    0.0346 H   0  0  0  0  0  0  0  0  0  0  0  0
   -7.7561   -1.1141    0.3573 H   0  0  0  0  0  0  0  0  0  0  0  0
   -7.5315    0.3165    1.3882 H   0  0  0  0  0  0  0  0  0  0  0  0
   -5.7158   -1.0290    1.4914 H   0  0  0  0  0  0  0  0  0  0  0  0
   -3.4053   -1.4499    1.9886 H   0  0  0  0  0  0  0  0  0  0  0  0
   -0.5330   -0.0450   -0.0789 H   0  0  0  0  0  0  0  0  0  0  0  0
   -1.3061   -1.7473    2.3482 H   0  0  0  0  0  0  0  0  0  0  0  0
    1.0227   -2.7112    3.5951 H   0  0  0  0  0  0  0  0  0  0  0  0
    4.9381   -1.2821    1.3712 H   0  0  0  0  0  0  0  0  0  0  0  0
    3.2214    0.2312   -0.6742 H   0  0  0  0  0  0  0  0  0  0  0  0
    6.7485   -0.6840    0.4105 H   0  0  0  0  0  0  0  0  0  0  0  0
    8.7443    0.0819   -0.7854 H   0  0  0  0  0  0  0  0  0  0  0  0
    6.2774    2.1769   -3.5863 H   0  0  0  0  0  0  0  0  0  0  0  0
    4.2718    1.4086   -2.3865 H   0  0  0  0  0  0  0  0  0  0  0  0
   -2.2294    0.9428   -1.3529 H   0  0  0  0  0  0  0  0  0  0  0  0
   -4.5445    1.3871   -1.8631 H   0  0  0  0  0  0  0  0  0  0  0  0
  1  2  1  0  0  0  0
  2  3  1  0  0  0  0
  2  4  1  0  0  0  0
  4  5  2  0  0  0  0
  5  6  1  0  0  0  0
  6  7  2  0  0  0  0
  7  8  1  0  0  0  0
  8  9  2  0  0  0  0
  9 10  1  0  0  0  0
 10 11  2  0  0  0  0
 11 12  1  0  0  0  0
 12 13  2  0  0  0  0
 13 14  1  0  0  0  0
 14 15  2  0  0  0  0
 15 16  1  0  0  0  0
 16 17  2  0  0  0  0
 17 18  1  0  0  0  0
 18 19  2  0  0  0  0
 19 20  1  0  0  0  0
 20 21  3  0  0  0  0
 19 22  1  0  0  0  0
 22 23  2  0  0  0  0
 13 24  1  0  0  0  0
  7 25  1  0  0  0  0
 25 26  2  0  0  0  0
 26  4  1  0  0  0  0
 24 10  1  0  0  0  0
 23 16  1  0  0  0  0
  1 27  1  0  0  0  0
  1 28  1  0  0  0  0
  1 29  1  0  0  0  0
  3 30  1  0  0  0  0
  3 31  1  0  0  0  0
  3 32  1  0  0  0  0
  5 33  1  0  0  0  0
  6 34  1  0  0  0  0
  8 35  1  0  0  0  0
  9 36  1  0  0  0  0
 11 37  1  0  0  0  0
 14 38  1  0  0  0  0
 15 39  1  0  0  0  0
 17 40  1  0  0  0  0
 18 41  1  0  0  0  0
 22 42  1  0  0  0  0
 23 43  1  0  0  0  0
 25 44  1  0  0  0  0
 26 45  1  0  0  0  0
M  END
