
  xtb     03022212063D
 energy: -55.209326321824 gnorm: 0.000347590264 xtb: 6.4.1 (afa7bdf)
 32 35  0     0  0            999 V2000
    1.1350   -2.5612   -0.8255 O   0  0  0  0  0  0  0  0  0  0  0  0
    0.6961   -1.5128   -0.4208 C   0  0  0  0  0  0  0  0  0  0  0  0
   -0.6646   -1.3704   -0.4349 O   0  0  0  0  0  0  0  0  0  0  0  0
   -1.2678   -0.2416   -0.0023 C   0  0  0  0  0  0  0  0  0  0  0  0
   -0.4964    0.8141    0.4737 C   0  0  0  0  0  0  0  0  0  0  0  0
   -1.1319    1.9962    0.9284 C   0  0  0  0  0  0  0  0  0  0  0  0
   -2.4863    2.0958    0.8978 C   0  0  0  0  0  0  0  0  0  0  0  0
   -3.2938    1.0329    0.4156 C   0  0  0  0  0  0  0  0  0  0  0  0
   -4.6971    1.1222    0.3771 C   0  0  0  0  0  0  0  0  0  0  0  0
   -5.4547    0.0819   -0.0934 C   0  0  0  0  0  0  0  0  0  0  0  0
   -4.8439   -1.0949   -0.5464 C   0  0  0  0  0  0  0  0  0  0  0  0
   -3.4808   -1.2179   -0.5239 C   0  0  0  0  0  0  0  0  0  0  0  0
   -2.6828   -0.1618   -0.0450 C   0  0  0  0  0  0  0  0  0  0  0  0
    0.8588    0.7226    0.5049 N   0  0  0  0  0  0  0  0  0  0  0  0
    1.4607   -0.3518    0.0931 C   0  0  0  0  0  0  0  0  0  0  0  0
    2.9220   -0.3633    0.1601 C   0  0  0  0  0  0  0  0  0  0  0  0
    3.5654    0.7710    0.6722 C   0  0  0  0  0  0  0  0  0  0  0  0
    4.9401    0.8222    0.7604 C   0  0  0  0  0  0  0  0  0  0  0  0
    5.7051   -0.2560    0.3401 C   0  0  0  0  0  0  0  0  0  0  0  0
    5.0805   -1.3825   -0.1679 C   0  0  0  0  0  0  0  0  0  0  0  0
    3.7020   -1.4429   -0.2602 C   0  0  0  0  0  0  0  0  0  0  0  0
   -0.5047    2.7945    1.2911 H   0  0  0  0  0  0  0  0  0  0  0  0
   -2.9770    2.9939    1.2428 H   0  0  0  0  0  0  0  0  0  0  0  0
   -5.1685    2.0293    0.7264 H   0  0  0  0  0  0  0  0  0  0  0  0
   -6.5313    0.1635   -0.1177 H   0  0  0  0  0  0  0  0  0  0  0  0
   -5.4562   -1.9047   -0.9138 H   0  0  0  0  0  0  0  0  0  0  0  0
   -2.9940   -2.1169   -0.8689 H   0  0  0  0  0  0  0  0  0  0  0  0
    2.9593    1.6022    0.9956 H   0  0  0  0  0  0  0  0  0  0  0  0
    5.4216    1.7039    1.1576 H   0  0  0  0  0  0  0  0  0  0  0  0
    6.7824   -0.2166    0.4089 H   0  0  0  0  0  0  0  0  0  0  0  0
    5.6714   -2.2247   -0.4966 H   0  0  0  0  0  0  0  0  0  0  0  0
    3.2314   -2.3261   -0.6576 H   0  0  0  0  0  0  0  0  0  0  0  0
  1  2  2  0  0  0  0
  2  3  1  0  0  0  0
  3  4  1  0  0  0  0
  4  5  2  0  0  0  0
  5  6  1  0  0  0  0
  6  7  2  0  0  0  0
  7  8  1  0  0  0  0
  8  9  2  0  0  0  0
  9 10  1  0  0  0  0
 10 11  2  0  0  0  0
 11 12  1  0  0  0  0
 12 13  2  0  0  0  0
  5 14  1  0  0  0  0
 14 15  2  0  0  0  0
 15 16  1  0  0  0  0
 16 17  2  0  0  0  0
 17 18  1  0  0  0  0
 18 19  2  0  0  0  0
 19 20  1  0  0  0  0
 20 21  2  0  0  0  0
 15  2  1  0  0  0  0
 21 16  1  0  0  0  0
 13  4  1  0  0  0  0
 13  8  1  0  0  0  0
  6 22  1  0  0  0  0
  7 23  1  0  0  0  0
  9 24  1  0  0  0  0
 10 25  1  0  0  0  0
 11 26  1  0  0  0  0
 12 27  1  0  0  0  0
 17 28  1  0  0  0  0
 18 29  1  0  0  0  0
 19 30  1  0  0  0  0
 20 31  1  0  0  0  0
 21 32  1  0  0  0  0
M  END
