
  xtb     03022213413D
 energy: -62.079002854373 gnorm: 0.000076922714 xtb: 6.4.1 (afa7bdf)
 32 34  0     0  0            999 V2000
   -3.8420    2.9543    0.3270 C   0  0  0  0  0  0  0  0  0  0  0  0
   -3.0055    1.8202    0.2858 O   0  0  0  0  0  0  0  0  0  0  0  0
   -3.5495    0.5980    0.3123 C   0  0  0  0  0  0  0  0  0  0  0  0
   -4.9164    0.3302    0.3787 C   0  0  0  0  0  0  0  0  0  0  0  0
   -5.3767   -0.9725    0.4014 C   0  0  0  0  0  0  0  0  0  0  0  0
   -4.4943   -2.0486    0.3588 C   0  0  0  0  0  0  0  0  0  0  0  0
   -3.1435   -1.8136    0.2932 C   0  0  0  0  0  0  0  0  0  0  0  0
   -2.6438   -0.4993    0.2685 C   0  0  0  0  0  0  0  0  0  0  0  0
   -1.3220   -0.1883    0.2042 N   0  0  0  0  0  0  0  0  0  0  0  0
   -0.4890   -1.1573    0.1628 N   0  0  0  0  0  0  0  0  0  0  0  0
    0.7979   -0.8353    0.1089 C   0  0  0  0  0  0  0  0  0  0  0  0
    1.7482   -1.7023    0.0467 N   0  0  0  0  0  0  0  0  0  0  0  0
    2.9688   -1.1380    0.0056 C   0  0  0  0  0  0  0  0  0  0  0  0
    4.1806   -1.8343   -0.0656 C   0  0  0  0  0  0  0  0  0  0  0  0
    5.3559   -1.1274   -0.0995 C   0  0  0  0  0  0  0  0  0  0  0  0
    5.3375    0.2741   -0.0630 C   0  0  0  0  0  0  0  0  0  0  0  0
    6.5859    0.9879   -0.1000 N   0  0  0  0  0  4  0  0  0  0  0  0
    7.6077    0.3364   -0.1615 O   0  0  0  0  0  0  0  0  0  0  0  0
    6.5446    2.2003   -0.0675 O   0  0  0  0  0  1  0  0  0  0  0  0
    4.1561    0.9965    0.0072 C   0  0  0  0  0  0  0  0  0  0  0  0
    2.9696    0.2877    0.0413 C   0  0  0  0  0  0  0  0  0  0  0  0
    1.3583    0.8995    0.1273 S   0  0  0  0  0  0  0  0  0  0  0  0
   -4.4280    2.9872    1.2505 H   0  0  0  0  0  0  0  0  0  0  0  0
   -4.5151    2.9878   -0.5350 H   0  0  0  0  0  0  0  0  0  0  0  0
   -3.1717    3.8113    0.2946 H   0  0  0  0  0  0  0  0  0  0  0  0
   -5.6288    1.1392    0.4131 H   0  0  0  0  0  0  0  0  0  0  0  0
   -6.4401   -1.1535    0.4529 H   0  0  0  0  0  0  0  0  0  0  0  0
   -4.8738   -3.0584    0.3773 H   0  0  0  0  0  0  0  0  0  0  0  0
   -2.4254   -2.6186    0.2583 H   0  0  0  0  0  0  0  0  0  0  0  0
    4.1644   -2.9112   -0.0925 H   0  0  0  0  0  0  0  0  0  0  0  0
    6.3105   -1.6271   -0.1543 H   0  0  0  0  0  0  0  0  0  0  0  0
    4.1795    2.0748    0.0332 H   0  0  0  0  0  0  0  0  0  0  0  0
  1  2  1  0  0  0  0
  2  3  1  0  0  0  0
  3  4  2  0  0  0  0
  4  5  1  0  0  0  0
  5  6  2  0  0  0  0
  6  7  1  0  0  0  0
  7  8  2  0  0  0  0
  8  9  1  0  0  0  0
  9 10  2  0  0  0  0
 10 11  1  0  0  0  0
 11 12  2  0  0  0  0
 12 13  1  0  0  0  0
 13 14  2  0  0  0  0
 14 15  1  0  0  0  0
 15 16  2  0  0  0  0
 16 17  1  0  0  0  0
 17 18  2  0  0  0  0
 17 19  1  0  0  0  0
 16 20  1  0  0  0  0
 20 21  2  0  0  0  0
 21 22  1  0  0  0  0
  8  3  1  0  0  0  0
 22 11  1  0  0  0  0
 21 13  1  0  0  0  0
  1 23  1  0  0  0  0
  1 24  1  0  0  0  0
  1 25  1  0  0  0  0
  4 26  1  0  0  0  0
  5 27  1  0  0  0  0
  6 28  1  0  0  0  0
  7 29  1  0  0  0  0
 14 30  1  0  0  0  0
 15 31  1  0  0  0  0
 20 32  1  0  0  0  0
M  CHG  1  17   1
M  CHG  1  19  -1
M  END
