
  xtb     03022215533D
 energy: -67.386346520614 gnorm: 0.000142570829 xtb: 6.4.1 (afa7bdf)
 33 36  0     0  0            999 V2000
   -1.0716    0.2308   -2.7283 O   0  0  0  0  0  0  0  0  0  0  0  0
   -0.3716    0.1607   -1.7435 C   0  0  0  0  0  0  0  0  0  0  0  0
    1.0238    0.2114   -1.7694 N   0  0  0  0  0  0  0  0  0  0  0  0
    1.6044    0.1124   -0.5246 C   0  0  0  0  0  0  0  0  0  0  0  0
    3.0293    0.1386   -0.3086 C   0  0  0  0  0  0  0  0  0  0  0  0
    3.9366    0.2671   -1.3683 C   0  0  0  0  0  0  0  0  0  0  0  0
    5.2955    0.2884   -1.1366 C   0  0  0  0  0  0  0  0  0  0  0  0
    5.7724    0.1812    0.1634 C   0  0  0  0  0  0  0  0  0  0  0  0
    7.4696    0.2077    0.4509 Cl  0  0  0  0  0  0  0  0  0  0  0  0
    4.8911    0.0531    1.2295 C   0  0  0  0  0  0  0  0  0  0  0  0
    3.5327    0.0320    0.9956 C   0  0  0  0  0  0  0  0  0  0  0  0
    0.5709   -0.0096    0.3847 C   0  0  0  0  0  0  0  0  0  0  0  0
    0.2409   -0.1549    1.7830 C   0  0  0  0  0  0  0  0  0  0  0  0
    0.9105   -0.2261    2.7797 O   0  0  0  0  0  0  0  0  0  0  0  0
   -1.1496   -0.2096    1.8391 O   0  0  0  0  0  0  0  0  0  0  0  0
   -1.6845   -0.1092    0.5884 C   0  0  0  0  0  0  0  0  0  0  0  0
   -3.1125   -0.1477    0.4339 C   0  0  0  0  0  0  0  0  0  0  0  0
   -3.9400   -0.2870    1.5548 C   0  0  0  0  0  0  0  0  0  0  0  0
   -5.3099   -0.3260    1.4099 C   0  0  0  0  0  0  0  0  0  0  0  0
   -5.8654   -0.2259    0.1400 C   0  0  0  0  0  0  0  0  0  0  0  0
   -7.5768   -0.2750   -0.0437 Cl  0  0  0  0  0  0  0  0  0  0  0  0
   -5.0583   -0.0867   -0.9833 C   0  0  0  0  0  0  0  0  0  0  0  0
   -3.6881   -0.0475   -0.8398 C   0  0  0  0  0  0  0  0  0  0  0  0
   -0.6745    0.0151   -0.3301 C   0  0  0  0  0  0  0  0  0  0  0  0
    1.5322    0.3117   -2.6337 H   0  0  0  0  0  0  0  0  0  0  0  0
    3.5892    0.3517   -2.3868 H   0  0  0  0  0  0  0  0  0  0  0  0
    5.9885    0.3875   -1.9572 H   0  0  0  0  0  0  0  0  0  0  0  0
    5.2709   -0.0294    2.2353 H   0  0  0  0  0  0  0  0  0  0  0  0
    2.8498   -0.0677    1.8247 H   0  0  0  0  0  0  0  0  0  0  0  0
   -3.4913   -0.3635    2.5328 H   0  0  0  0  0  0  0  0  0  0  0  0
   -5.9508   -0.4334    2.2708 H   0  0  0  0  0  0  0  0  0  0  0  0
   -5.5071   -0.0103   -1.9610 H   0  0  0  0  0  0  0  0  0  0  0  0
   -3.0561    0.0601   -1.7078 H   0  0  0  0  0  0  0  0  0  0  0  0
  1  2  2  0  0  0  0
  2  3  1  0  0  0  0
  3  4  1  0  0  0  0
  4  5  1  0  0  0  0
  5  6  2  0  0  0  0
  6  7  1  0  0  0  0
  7  8  2  0  0  0  0
  8  9  1  0  0  0  0
  8 10  1  0  0  0  0
 10 11  2  0  0  0  0
  4 12  2  0  0  0  0
 12 13  1  0  0  0  0
 13 14  2  0  0  0  0
 13 15  1  0  0  0  0
 15 16  1  0  0  0  0
 16 17  1  0  0  0  0
 17 18  2  0  0  0  0
 18 19  1  0  0  0  0
 19 20  2  0  0  0  0
 20 21  1  0  0  0  0
 20 22  1  0  0  0  0
 22 23  2  0  0  0  0
 16 24  2  0  0  0  0
 24  2  1  0  0  0  0
 11  5  1  0  0  0  0
 24 12  1  0  0  0  0
 23 17  1  0  0  0  0
  3 25  1  0  0  0  0
  6 26  1  0  0  0  0
  7 27  1  0  0  0  0
 10 28  1  0  0  0  0
 11 29  1  0  0  0  0
 18 30  1  0  0  0  0
 19 31  1  0  0  0  0
 22 32  1  0  0  0  0
 23 33  1  0  0  0  0
M  END
