
  xtb     03022213353D
 energy: -74.130290285382 gnorm: 0.000089520566 xtb: 6.4.1 (afa7bdf)
 48 52  0     0  0            999 V2000
   -3.6395    3.8213    0.5965 C   0  0  0  0  0  0  0  0  0  0  0  0
   -2.5344    3.3467    1.2839 C   0  0  0  0  0  0  0  0  0  0  0  0
   -2.0589    2.0713    1.0488 C   0  0  0  0  0  0  0  0  0  0  0  0
   -2.6827    1.2521    0.1086 C   0  0  0  0  0  0  0  0  0  0  0  0
   -2.2058   -0.0435   -0.1355 N   0  0  0  0  0  0  0  0  0  0  0  0
   -3.1246   -1.0803   -0.3561 C   0  0  0  0  0  0  0  0  0  0  0  0
   -2.8729   -2.0578   -1.3176 C   0  0  0  0  0  0  0  0  0  0  0  0
   -3.7852   -3.0733   -1.5298 C   0  0  0  0  0  0  0  0  0  0  0  0
   -4.9602   -3.1256   -0.7979 C   0  0  0  0  0  0  0  0  0  0  0  0
   -5.2166   -2.1530    0.1545 C   0  0  0  0  0  0  0  0  0  0  0  0
   -4.3070   -1.1380    0.3799 C   0  0  0  0  0  0  0  0  0  0  0  0
   -0.8381   -0.2952   -0.1598 C   0  0  0  0  0  0  0  0  0  0  0  0
    0.0546    0.6760   -0.6219 C   0  0  0  0  0  0  0  0  0  0  0  0
    1.4116    0.4396   -0.6227 C   0  0  0  0  0  0  0  0  0  0  0  0
    1.9223   -0.7788   -0.1737 C   0  0  0  0  0  0  0  0  0  0  0  0
    3.3564   -1.0643   -0.1771 C   0  0  0  0  0  0  0  0  0  0  0  0
    3.7173   -2.2671   -0.5804 N   0  0  0  0  0  0  0  0  0  0  0  0
    5.0212   -2.5255   -0.6933 C   0  0  0  0  0  0  0  0  0  0  0  0
    6.0077   -1.7023   -0.4839 N   0  0  0  0  0  0  0  0  0  0  0  0
    5.6881   -0.4829    0.0024 C   0  0  0  0  0  0  0  0  0  0  0  0
    6.7198    0.4237    0.3176 C   0  0  0  0  0  0  0  0  0  0  0  0
    6.4176    1.6348    0.8752 C   0  0  0  0  0  0  0  0  0  0  0  0
    5.0867    1.9793    1.1580 C   0  0  0  0  0  0  0  0  0  0  0  0
    4.0625    1.1269    0.8457 C   0  0  0  0  0  0  0  0  0  0  0  0
    4.3344   -0.1075    0.2264 C   0  0  0  0  0  0  0  0  0  0  0  0
    1.0271   -1.7643    0.2443 C   0  0  0  0  0  0  0  0  0  0  0  0
   -0.3280   -1.5254    0.2666 C   0  0  0  0  0  0  0  0  0  0  0  0
   -3.7941    1.7344   -0.5811 C   0  0  0  0  0  0  0  0  0  0  0  0
   -4.2671    3.0083   -0.3331 C   0  0  0  0  0  0  0  0  0  0  0  0
   -4.0097    4.8175    0.7849 H   0  0  0  0  0  0  0  0  0  0  0  0
   -2.0438    3.9710    2.0162 H   0  0  0  0  0  0  0  0  0  0  0  0
   -1.2048    1.6981    1.5948 H   0  0  0  0  0  0  0  0  0  0  0  0
   -1.9623   -2.0123   -1.8967 H   0  0  0  0  0  0  0  0  0  0  0  0
   -3.5805   -3.8238   -2.2789 H   0  0  0  0  0  0  0  0  0  0  0  0
   -5.6718   -3.9189   -0.9691 H   0  0  0  0  0  0  0  0  0  0  0  0
   -6.1281   -2.1886    0.7328 H   0  0  0  0  0  0  0  0  0  0  0  0
   -4.5041   -0.3842    1.1282 H   0  0  0  0  0  0  0  0  0  0  0  0
   -0.3293    1.6154   -0.9919 H   0  0  0  0  0  0  0  0  0  0  0  0
    2.0797    1.1888   -1.0218 H   0  0  0  0  0  0  0  0  0  0  0  0
    5.2751   -3.5247   -1.0262 H   0  0  0  0  0  0  0  0  0  0  0  0
    7.7365    0.1198    0.1253 H   0  0  0  0  0  0  0  0  0  0  0  0
    7.2061    2.3299    1.1242 H   0  0  0  0  0  0  0  0  0  0  0  0
    4.8755    2.9254    1.6347 H   0  0  0  0  0  0  0  0  0  0  0  0
    3.0428    1.3817    1.0936 H   0  0  0  0  0  0  0  0  0  0  0  0
    1.4198   -2.7139    0.5729 H   0  0  0  0  0  0  0  0  0  0  0  0
   -1.0065   -2.2872    0.6208 H   0  0  0  0  0  0  0  0  0  0  0  0
   -4.2796    1.1044   -1.3121 H   0  0  0  0  0  0  0  0  0  0  0  0
   -5.1272    3.3715   -0.8760 H   0  0  0  0  0  0  0  0  0  0  0  0
  1  2  2  0  0  0  0
  2  3  1  0  0  0  0
  3  4  2  0  0  0  0
  4  5  1  0  0  0  0
  5  6  1  0  0  0  0
  6  7  2  0  0  0  0
  7  8  1  0  0  0  0
  8  9  2  0  0  0  0
  9 10  1  0  0  0  0
 10 11  2  0  0  0  0
  5 12  1  0  0  0  0
 12 13  2  0  0  0  0
 13 14  1  0  0  0  0
 14 15  2  0  0  0  0
 15 16  1  0  0  0  0
 16 17  2  0  0  0  0
 17 18  1  0  0  0  0
 18 19  2  0  0  0  0
 19 20  1  0  0  0  0
 20 21  2  0  0  0  0
 21 22  1  0  0  0  0
 22 23  2  0  0  0  0
 23 24  1  0  0  0  0
 24 25  2  0  0  0  0
 15 26  1  0  0  0  0
 26 27  2  0  0  0  0
  4 28  1  0  0  0  0
 28 29  2  0  0  0  0
 29  1  1  0  0  0  0
 11  6  1  0  0  0  0
 27 12  1  0  0  0  0
 25 16  1  0  0  0  0
 25 20  1  0  0  0  0
  1 30  1  0  0  0  0
  2 31  1  0  0  0  0
  3 32  1  0  0  0  0
  7 33  1  0  0  0  0
  8 34  1  0  0  0  0
  9 35  1  0  0  0  0
 10 36  1  0  0  0  0
 11 37  1  0  0  0  0
 13 38  1  0  0  0  0
 14 39  1  0  0  0  0
 18 40  1  0  0  0  0
 21 41  1  0  0  0  0
 22 42  1  0  0  0  0
 23 43  1  0  0  0  0
 24 44  1  0  0  0  0
 26 45  1  0  0  0  0
 27 46  1  0  0  0  0
 28 47  1  0  0  0  0
 29 48  1  0  0  0  0
M  END
