
  xtb     03022215573D
 energy: -107.634851128811 gnorm: 0.000126539037 xtb: 6.4.1 (afa7bdf)
 74 79  0     0  0            999 V2000
   -9.0788   -2.2956    1.5083 C   0  0  0  0  0  0  0  0  0  0  0  0
   -8.0846   -1.4536    0.9769 O   0  0  0  0  0  0  0  0  0  0  0  0
   -6.7778   -1.7821    1.1712 C   0  0  0  0  0  0  0  0  0  0  0  0
   -6.3341   -2.9135    1.8619 C   0  0  0  0  0  0  0  0  0  0  0  0
   -4.9845   -3.1407    2.0080 C   0  0  0  0  0  0  0  0  0  0  0  0
   -4.0356   -2.2646    1.4729 C   0  0  0  0  0  0  0  0  0  0  0  0
   -4.4925   -1.1266    0.7578 C   0  0  0  0  0  0  0  0  0  0  0  0
   -5.8544   -0.8963    0.6258 C   0  0  0  0  0  0  0  0  0  0  0  0
   -3.5512   -0.2718    0.2280 N   0  0  0  0  0  0  0  0  0  0  0  0
   -3.9757    0.8738   -0.5043 C   0  0  0  0  0  0  0  0  0  0  0  0
   -3.9156    2.1319    0.0784 C   0  0  0  0  0  0  0  0  0  0  0  0
   -4.3316    3.2388   -0.6366 C   0  0  0  0  0  0  0  0  0  0  0  0
   -4.8140    3.1120   -1.9345 C   0  0  0  0  0  0  0  0  0  0  0  0
   -5.2863    4.3150   -2.6908 C   0  0  0  0  0  0  0  0  0  0  0  0
   -4.8683    1.8457   -2.5040 C   0  0  0  0  0  0  0  0  0  0  0  0
   -4.4517    0.7313   -1.7996 C   0  0  0  0  0  0  0  0  0  0  0  0
   -2.2067   -0.5086    0.3969 C   0  0  0  0  0  0  0  0  0  0  0  0
   -1.2450    0.3064   -0.1337 C   0  0  0  0  0  0  0  0  0  0  0  0
    0.1312    0.0461    0.0624 C   0  0  0  0  0  0  0  0  0  0  0  0
    0.4897   -1.1210    0.8400 C   0  0  0  0  0  0  0  0  0  0  0  0
   -0.4587   -1.9476    1.3575 C   0  0  0  0  0  0  0  0  0  0  0  0
   -1.8395   -1.6900    1.1595 C   0  0  0  0  0  0  0  0  0  0  0  0
   -2.7186   -2.5204    1.6599 N   0  0  0  0  0  0  0  0  0  0  0  0
    1.7946   -1.4038    1.0557 O   0  0  0  0  0  0  0  0  0  0  0  0
    2.7497   -0.5736    0.5285 C   0  0  0  0  0  0  0  0  0  0  0  0
    2.3499    0.5491   -0.2240 C   0  0  0  0  0  0  0  0  0  0  0  0
    3.3211    1.3946   -0.7610 C   0  0  0  0  0  0  0  0  0  0  0  0
    4.6657    1.1466   -0.5654 C   0  0  0  0  0  0  0  0  0  0  0  0
    5.6948    2.0934   -1.1662 C   0  0  0  0  0  0  0  0  0  0  0  0
    7.1380    1.6821   -0.8621 C   0  0  0  0  0  0  0  0  0  0  0  0
    5.5164    2.1182   -2.6906 C   0  0  0  0  0  0  0  0  0  0  0  0
    5.4682    3.4997   -0.5942 C   0  0  0  0  0  0  0  0  0  0  0  0
    5.0248    0.0268    0.1841 C   0  0  0  0  0  0  0  0  0  0  0  0
    4.1028   -0.8496    0.7428 C   0  0  0  0  0  0  0  0  0  0  0  0
    4.5334   -2.0632    1.5578 C   0  0  0  0  0  0  0  0  0  0  0  0
    4.0131   -3.3402    0.8824 C   0  0  0  0  0  0  0  0  0  0  0  0
    3.9657   -1.9474    2.9797 C   0  0  0  0  0  0  0  0  0  0  0  0
    6.0566   -2.1853    1.6731 C   0  0  0  0  0  0  0  0  0  0  0  0
    1.0365    0.8459   -0.4491 N   0  0  0  0  0  0  0  0  0  0  0  0
   -9.0278   -3.3009    1.0780 H   0  0  0  0  0  0  0  0  0  0  0  0
   -9.0094   -2.3622    2.5987 H   0  0  0  0  0  0  0  0  0  0  0  0
  -10.0280   -1.8365    1.2363 H   0  0  0  0  0  0  0  0  0  0  0  0
   -7.0353   -3.6121    2.2887 H   0  0  0  0  0  0  0  0  0  0  0  0
   -4.6240   -4.0033    2.5447 H   0  0  0  0  0  0  0  0  0  0  0  0
   -6.2250   -0.0288    0.1035 H   0  0  0  0  0  0  0  0  0  0  0  0
   -3.5401    2.2355    1.0855 H   0  0  0  0  0  0  0  0  0  0  0  0
   -4.2818    4.2166   -0.1802 H   0  0  0  0  0  0  0  0  0  0  0  0
   -5.2447    4.1419   -3.7632 H   0  0  0  0  0  0  0  0  0  0  0  0
   -6.3195    4.5388   -2.4233 H   0  0  0  0  0  0  0  0  0  0  0  0
   -4.6819    5.1861   -2.4485 H   0  0  0  0  0  0  0  0  0  0  0  0
   -5.2383    1.7292   -3.5121 H   0  0  0  0  0  0  0  0  0  0  0  0
   -4.4935   -0.2506   -2.2471 H   0  0  0  0  0  0  0  0  0  0  0  0
   -1.4993    1.1754   -0.7188 H   0  0  0  0  0  0  0  0  0  0  0  0
   -0.1833   -2.8192    1.9287 H   0  0  0  0  0  0  0  0  0  0  0  0
    2.9646    2.2389   -1.3278 H   0  0  0  0  0  0  0  0  0  0  0  0
    7.3276    1.6764    0.2088 H   0  0  0  0  0  0  0  0  0  0  0  0
    7.3609    0.6994   -1.2711 H   0  0  0  0  0  0  0  0  0  0  0  0
    7.8202    2.3967   -1.3185 H   0  0  0  0  0  0  0  0  0  0  0  0
    6.2457    2.7870   -3.1431 H   0  0  0  0  0  0  0  0  0  0  0  0
    4.5227    2.4594   -2.9651 H   0  0  0  0  0  0  0  0  0  0  0  0
    5.6600    1.1211   -3.1016 H   0  0  0  0  0  0  0  0  0  0  0  0
    4.4739    3.8658   -0.8322 H   0  0  0  0  0  0  0  0  0  0  0  0
    6.1972    4.1946   -1.0060 H   0  0  0  0  0  0  0  0  0  0  0  0
    5.5764    3.4866    0.4884 H   0  0  0  0  0  0  0  0  0  0  0  0
    6.0685   -0.1709    0.3394 H   0  0  0  0  0  0  0  0  0  0  0  0
    4.3474   -4.2154    1.4356 H   0  0  0  0  0  0  0  0  0  0  0  0
    4.3942   -3.4080   -0.1350 H   0  0  0  0  0  0  0  0  0  0  0  0
    2.9288   -3.3532    0.8473 H   0  0  0  0  0  0  0  0  0  0  0  0
    4.2990   -2.7896    3.5825 H   0  0  0  0  0  0  0  0  0  0  0  0
    2.8807   -1.9431    2.9712 H   0  0  0  0  0  0  0  0  0  0  0  0
    4.3129   -1.0283    3.4482 H   0  0  0  0  0  0  0  0  0  0  0  0
    6.5191   -2.3015    0.6956 H   0  0  0  0  0  0  0  0  0  0  0  0
    6.2988   -3.0668    2.2634 H   0  0  0  0  0  0  0  0  0  0  0  0
    6.4858   -1.3207    2.1744 H   0  0  0  0  0  0  0  0  0  0  0  0
  1  2  1  0  0  0  0
  2  3  1  0  0  0  0
  3  4  2  0  0  0  0
  4  5  1  0  0  0  0
  5  6  2  0  0  0  0
  6  7  1  0  0  0  0
  7  8  2  0  0  0  0
  7  9  1  0  0  0  0
  9 10  1  0  0  0  0
 10 11  2  0  0  0  0
 11 12  1  0  0  0  0
 12 13  2  0  0  0  0
 13 14  1  0  0  0  0
 13 15  1  0  0  0  0
 15 16  2  0  0  0  0
  9 17  1  0  0  0  0
 17 18  2  0  0  0  0
 18 19  1  0  0  0  0
 19 20  1  0  0  0  0
 20 21  2  0  0  0  0
 21 22  1  0  0  0  0
 22 23  2  0  0  0  0
 20 24  1  0  0  0  0
 24 25  1  0  0  0  0
 25 26  2  0  0  0  0
 26 27  1  0  0  0  0
 27 28  2  0  0  0  0
 28 29  1  0  0  0  0
 29 30  1  0  0  0  0
 29 31  1  0  0  0  0
 29 32  1  0  0  0  0
 28 33  1  0  0  0  0
 33 34  2  0  0  0  0
 34 35  1  0  0  0  0
 35 36  1  0  0  0  0
 35 37  1  0  0  0  0
 35 38  1  0  0  0  0
 26 39  1  0  0  0  0
  8  3  1  0  0  0  0
 16 10  1  0  0  0  0
 22 17  1  0  0  0  0
 34 25  1  0  0  0  0
 23  6  1  0  0  0  0
 39 19  2  0  0  0  0
  1 40  1  0  0  0  0
  1 41  1  0  0  0  0
  1 42  1  0  0  0  0
  4 43  1  0  0  0  0
  5 44  1  0  0  0  0
  8 45  1  0  0  0  0
 11 46  1  0  0  0  0
 12 47  1  0  0  0  0
 14 48  1  0  0  0  0
 14 49  1  0  0  0  0
 14 50  1  0  0  0  0
 15 51  1  0  0  0  0
 16 52  1  0  0  0  0
 18 53  1  0  0  0  0
 21 54  1  0  0  0  0
 27 55  1  0  0  0  0
 30 56  1  0  0  0  0
 30 57  1  0  0  0  0
 30 58  1  0  0  0  0
 31 59  1  0  0  0  0
 31 60  1  0  0  0  0
 31 61  1  0  0  0  0
 32 62  1  0  0  0  0
 32 63  1  0  0  0  0
 32 64  1  0  0  0  0
 33 65  1  0  0  0  0
 36 66  1  0  0  0  0
 36 67  1  0  0  0  0
 36 68  1  0  0  0  0
 37 69  1  0  0  0  0
 37 70  1  0  0  0  0
 37 71  1  0  0  0  0
 38 72  1  0  0  0  0
 38 73  1  0  0  0  0
 38 74  1  0  0  0  0
M  END
