
  xtb     03022213063D
 energy: -74.596460589891 gnorm: 0.000159779398 xtb: 6.4.1 (afa7bdf)
 45 49  0     0  0            999 V2000
   -5.5661    1.7831   -0.2895 C   0  0  0  0  0  0  0  0  0  0  0  0
   -4.1197    2.0575   -0.4949 C   0  0  0  0  0  0  0  0  0  0  0  0
   -3.5298    3.2256   -0.9381 C   0  0  0  0  0  0  0  0  0  0  0  0
   -2.1427    3.0215   -0.9773 C   0  0  0  0  0  0  0  0  0  0  0  0
   -1.0832    3.9697   -1.3839 C   0  0  0  0  0  0  0  0  0  0  0  0
   -1.8701    1.7735   -0.5746 N   0  0  0  0  0  4  0  0  0  0  0  0
   -3.0587    1.1419   -0.2669 C   0  0  0  0  0  0  0  0  0  0  0  0
   -3.0803   -0.1718    0.1792 C   0  0  0  0  0  0  0  0  0  0  0  0
   -1.9115   -0.8908    0.3281 C   0  0  0  0  0  0  0  0  0  0  0  0
   -1.6901   -2.2375    0.7614 C   0  0  0  0  0  0  0  0  0  0  0  0
   -2.5376   -3.2618    1.1733 C   0  0  0  0  0  0  0  0  0  0  0  0
   -1.9746   -4.4683    1.5307 C   0  0  0  0  0  0  0  0  0  0  0  0
   -0.5913   -4.6731    1.4859 C   0  0  0  0  0  0  0  0  0  0  0  0
    0.2649   -3.6730    1.0816 C   0  0  0  0  0  0  0  0  0  0  0  0
   -0.2894   -2.4484    0.7174 C   0  0  0  0  0  0  0  0  0  0  0  0
    0.2883   -1.2232    0.2601 C   0  0  0  0  0  0  0  0  0  0  0  0
    1.6315   -0.9454    0.0564 C   0  0  0  0  0  0  0  0  0  0  0  0
    2.8002   -0.6836   -0.1285 C   0  0  0  0  0  0  0  0  0  0  0  0
    4.1454   -0.3486   -0.3538 C   0  0  0  0  0  0  0  0  0  0  0  0
    4.4647    0.9417   -0.7888 C   0  0  0  0  0  0  0  0  0  0  0  0
    5.7831    1.2825   -1.0141 C   0  0  0  0  0  0  0  0  0  0  0  0
    6.7908    0.3509   -0.8113 C   0  0  0  0  0  0  0  0  0  0  0  0
    6.4781   -0.9296   -0.3802 C   0  0  0  0  0  0  0  0  0  0  0  0
    5.1636   -1.2843   -0.1504 C   0  0  0  0  0  0  0  0  0  0  0  0
   -0.6871   -0.3332    0.0417 N   0  0  0  0  0  0  0  0  0  0  0  0
   -0.4779    1.1218   -0.4615 B   0  0  0  0  0  4  0  0  0  0  0  0
    0.3077    1.8155    0.4409 F   0  0  0  0  0  0  0  0  0  0  0  0
    0.1464    1.1007   -1.6951 F   0  0  0  0  0  0  0  0  0  0  0  0
   -5.8926    0.9571   -0.9210 H   0  0  0  0  0  0  0  0  0  0  0  0
   -5.7608    1.5093    0.7472 H   0  0  0  0  0  0  0  0  0  0  0  0
   -6.1544    2.6633   -0.5345 H   0  0  0  0  0  0  0  0  0  0  0  0
   -4.0289    4.1359   -1.2085 H   0  0  0  0  0  0  0  0  0  0  0  0
   -1.5098    4.9316   -1.6532 H   0  0  0  0  0  0  0  0  0  0  0  0
   -0.5303    3.5620   -2.2295 H   0  0  0  0  0  0  0  0  0  0  0  0
   -0.3707    4.0957   -0.5698 H   0  0  0  0  0  0  0  0  0  0  0  0
   -4.0243   -0.6388    0.4120 H   0  0  0  0  0  0  0  0  0  0  0  0
   -3.6066   -3.1151    1.2118 H   0  0  0  0  0  0  0  0  0  0  0  0
   -2.6116   -5.2786    1.8537 H   0  0  0  0  0  0  0  0  0  0  0  0
   -0.1949   -5.6350    1.7751 H   0  0  0  0  0  0  0  0  0  0  0  0
    1.3334   -3.8228    1.0444 H   0  0  0  0  0  0  0  0  0  0  0  0
    3.6677    1.6534   -0.9419 H   0  0  0  0  0  0  0  0  0  0  0  0
    6.0307    2.2787   -1.3500 H   0  0  0  0  0  0  0  0  0  0  0  0
    7.8209    0.6225   -0.9892 H   0  0  0  0  0  0  0  0  0  0  0  0
    7.2650   -1.6530   -0.2233 H   0  0  0  0  0  0  0  0  0  0  0  0
    4.9122   -2.2798    0.1854 H   0  0  0  0  0  0  0  0  0  0  0  0
  1  2  1  0  0  0  0
  2  3  2  0  0  0  0
  3  4  1  0  0  0  0
  4  5  1  0  0  0  0
  4  6  2  0  0  0  0
  6  7  1  0  0  0  0
  7  8  2  0  0  0  0
  8  9  1  0  0  0  0
  9 10  2  0  0  0  0
 10 11  1  0  0  0  0
 11 12  2  0  0  0  0
 12 13  1  0  0  0  0
 13 14  2  0  0  0  0
 14 15  1  0  0  0  0
 15 16  2  0  0  0  0
 16 17  1  0  0  0  0
 17 18  3  0  0  0  0
 18 19  1  0  0  0  0
 19 20  2  0  0  0  0
 20 21  1  0  0  0  0
 21 22  2  0  0  0  0
 22 23  1  0  0  0  0
 23 24  2  0  0  0  0
 16 25  1  0  0  0  0
 25 26  1  0  0  0  0
 26 27  1  0  0  0  0
 26 28  1  0  0  0  0
  7  2  1  0  0  0  0
 25  9  1  0  0  0  0
 26  6  1  0  0  0  0
 15 10  1  0  0  0  0
 24 19  1  0  0  0  0
  1 29  1  0  0  0  0
  1 30  1  0  0  0  0
  1 31  1  0  0  0  0
  3 32  1  0  0  0  0
  5 33  1  0  0  0  0
  5 34  1  0  0  0  0
  5 35  1  0  0  0  0
  8 36  1  0  0  0  0
 11 37  1  0  0  0  0
 12 38  1  0  0  0  0
 13 39  1  0  0  0  0
 14 40  1  0  0  0  0
 20 41  1  0  0  0  0
 21 42  1  0  0  0  0
 22 43  1  0  0  0  0
 23 44  1  0  0  0  0
 24 45  1  0  0  0  0
M  CHG  1   6   1
M  CHG  1  26  -1
M  END
