
  xtb     03022215433D
 energy: -127.481806563591 gnorm: 0.000369480956 xtb: 6.4.1 (afa7bdf)
 74 80  0     0  0            999 V2000
   11.0003    1.5339    0.6979 O   0  0  0  0  0  0  0  0  0  0  0  0
    9.9364    1.4460    0.1476 C   0  0  0  0  0  0  0  0  0  0  0  0
    9.0286    2.4180    0.1409 O   0  0  0  0  0  0  0  0  0  0  0  0
    9.4915    0.2230   -0.6464 C   0  0  0  0  0  0  0  0  0  0  0  0
    8.1106    0.1336   -0.8550 O   0  0  0  0  0  0  0  0  0  0  0  0
    7.2955   -0.0350    0.2321 C   0  0  0  0  0  0  0  0  0  0  0  0
    7.7332   -0.1488    1.5456 C   0  0  0  0  0  0  0  0  0  0  0  0
    6.8041   -0.3223    2.5601 C   0  0  0  0  0  0  0  0  0  0  0  0
    5.4536   -0.3853    2.2840 C   0  0  0  0  0  0  0  0  0  0  0  0
    5.0065   -0.2705    0.9684 C   0  0  0  0  0  0  0  0  0  0  0  0
    3.5638   -0.3205    0.6626 C   0  0  0  0  0  0  0  0  0  0  0  0
    2.8434   -1.4744    1.0010 C   0  0  0  0  0  0  0  0  0  0  0  0
    1.5150   -1.6446    0.8224 N   0  0  0  0  0  0  0  0  0  0  0  0
    1.2344   -2.8921    1.2581 C   0  0  0  0  0  0  0  0  0  0  0  0
   -0.0094   -3.5136    1.2858 C   0  0  0  0  0  0  0  0  0  0  0  0
   -1.2286   -3.0151    0.8639 C   0  0  0  0  0  0  0  0  0  0  0  0
   -2.4828   -3.6838    0.9256 C   0  0  0  0  0  0  0  0  0  0  0  0
   -3.4300   -2.8491    0.4079 C   0  0  0  0  0  0  0  0  0  0  0  0
   -2.7775   -1.6493    0.0105 C   0  0  0  0  0  0  0  0  0  0  0  0
   -1.4611   -1.7905    0.3054 N   0  0  0  0  0  0  0  0  0  0  0  0
   -3.3696   -0.5209   -0.5709 C   0  0  0  0  0  0  0  0  0  0  0  0
   -4.8306   -0.5829   -0.8239 C   0  0  0  0  0  0  0  0  0  0  0  0
   -5.3315   -1.3877   -1.8442 C   0  0  0  0  0  0  0  0  0  0  0  0
   -6.6912   -1.4387   -2.0756 C   0  0  0  0  0  0  0  0  0  0  0  0
   -7.5750   -0.6989   -1.3049 C   0  0  0  0  0  0  0  0  0  0  0  0
   -7.0825    0.1027   -0.2827 C   0  0  0  0  0  0  0  0  0  0  0  0
   -7.8449    0.8754    0.5478 O   0  0  0  0  0  0  0  0  0  0  0  0
   -9.2333    0.8845    0.3675 C   0  0  0  0  0  0  0  0  0  0  0  0
   -9.8830    1.8535    1.3421 C   0  0  0  0  0  0  0  0  0  0  0  0
  -11.0679    1.8955    1.5337 O   0  0  0  0  0  0  0  0  0  0  0  0
   -9.0130    2.6566    1.9374 O   0  0  0  0  0  0  0  0  0  0  0  0
   -5.7098    0.1525   -0.0479 C   0  0  0  0  0  0  0  0  0  0  0  0
   -2.6835    0.6218   -0.9475 C   0  0  0  0  0  0  0  0  0  0  0  0
   -1.3710    0.8212   -0.8055 N   0  0  0  0  0  0  0  0  0  0  0  0
   -1.0438    2.0137   -1.3065 C   0  0  0  0  0  0  0  0  0  0  0  0
    0.2056    2.5934   -1.3263 C   0  0  0  0  0  0  0  0  0  0  0  0
    1.4193    2.0991   -0.8511 C   0  0  0  0  0  0  0  0  0  0  0  0
    2.6524    2.8106   -0.8744 C   0  0  0  0  0  0  0  0  0  0  0  0
    3.6112    2.0161   -0.3168 C   0  0  0  0  0  0  0  0  0  0  0  0
    2.9900    0.7913    0.0512 C   0  0  0  0  0  0  0  0  0  0  0  0
    1.6692    0.8932   -0.2861 N   0  0  0  0  0  0  0  0  0  0  0  0
   -2.2376    2.7508   -1.8913 C   0  0  0  0  0  0  0  0  0  0  0  0
   -3.3884    1.7883   -1.6174 C   0  0  0  0  0  0  0  0  0  0  0  0
    2.4377   -3.5531    1.7231 C   0  0  0  0  0  0  0  0  0  0  0  0
    3.4440   -2.6698    1.5606 C   0  0  0  0  0  0  0  0  0  0  0  0
    5.9328   -0.0957   -0.0480 C   0  0  0  0  0  0  0  0  0  0  0  0
    9.3438    3.1874    0.6413 H   0  0  0  0  0  0  0  0  0  0  0  0
    9.9015   -0.6747   -0.1638 H   0  0  0  0  0  0  0  0  0  0  0  0
    9.9329    0.3057   -1.6458 H   0  0  0  0  0  0  0  0  0  0  0  0
    8.7821   -0.1011    1.7958 H   0  0  0  0  0  0  0  0  0  0  0  0
    7.1496   -0.4065    3.5799 H   0  0  0  0  0  0  0  0  0  0  0  0
    4.7367   -0.5091    3.0814 H   0  0  0  0  0  0  0  0  0  0  0  0
   -0.0262   -4.5166    1.6907 H   0  0  0  0  0  0  0  0  0  0  0  0
   -2.6292   -4.6711    1.3190 H   0  0  0  0  0  0  0  0  0  0  0  0
   -4.4814   -3.0351    0.3083 H   0  0  0  0  0  0  0  0  0  0  0  0
   -0.7626   -1.0797    0.1348 H   0  0  0  0  0  0  0  0  0  0  0  0
   -4.6498   -1.9662   -2.4493 H   0  0  0  0  0  0  0  0  0  0  0  0
   -7.0797   -2.0626   -2.8671 H   0  0  0  0  0  0  0  0  0  0  0  0
   -8.6320   -0.7622   -1.5100 H   0  0  0  0  0  0  0  0  0  0  0  0
   -9.6775   -0.1076    0.5342 H   0  0  0  0  0  0  0  0  0  0  0  0
   -9.5089    1.2163   -0.6460 H   0  0  0  0  0  0  0  0  0  0  0  0
   -9.4665    3.2587    2.5497 H   0  0  0  0  0  0  0  0  0  0  0  0
   -5.3513    0.7688    0.7617 H   0  0  0  0  0  0  0  0  0  0  0  0
    0.2589    3.5811   -1.7645 H   0  0  0  0  0  0  0  0  0  0  0  0
    2.7746    3.8030   -1.2632 H   0  0  0  0  0  0  0  0  0  0  0  0
    4.6464    2.2515   -0.1672 H   0  0  0  0  0  0  0  0  0  0  0  0
    1.0167    0.1393   -0.1017 H   0  0  0  0  0  0  0  0  0  0  0  0
   -2.3684    3.7168   -1.4021 H   0  0  0  0  0  0  0  0  0  0  0  0
   -2.0842    2.9306   -2.9566 H   0  0  0  0  0  0  0  0  0  0  0  0
   -3.8948    1.4551   -2.5246 H   0  0  0  0  0  0  0  0  0  0  0  0
   -4.1413    2.2146   -0.9547 H   0  0  0  0  0  0  0  0  0  0  0  0
    2.4762   -4.5542    2.1085 H   0  0  0  0  0  0  0  0  0  0  0  0
    4.4878   -2.7966    1.7719 H   0  0  0  0  0  0  0  0  0  0  0  0
    5.6141   -0.0173   -1.0754 H   0  0  0  0  0  0  0  0  0  0  0  0
  1  2  2  0  0  0  0
  2  3  1  0  0  0  0
  2  4  1  0  0  0  0
  4  5  1  0  0  0  0
  5  6  1  0  0  0  0
  6  7  2  0  0  0  0
  7  8  1  0  0  0  0
  8  9  2  0  0  0  0
  9 10  1  0  0  0  0
 10 11  1  0  0  0  0
 11 12  1  0  0  0  0
 12 13  2  0  0  0  0
 13 14  1  0  0  0  0
 14 15  2  0  0  0  0
 15 16  1  0  0  0  0
 16 17  2  0  0  0  0
 17 18  1  0  0  0  0
 18 19  2  0  0  0  0
 19 20  1  0  0  0  0
 19 21  1  0  0  0  0
 21 22  1  0  0  0  0
 22 23  2  0  0  0  0
 23 24  1  0  0  0  0
 24 25  2  0  0  0  0
 25 26  1  0  0  0  0
 26 27  1  0  0  0  0
 27 28  1  0  0  0  0
 28 29  1  0  0  0  0
 29 30  2  0  0  0  0
 29 31  1  0  0  0  0
 26 32  2  0  0  0  0
 21 33  2  0  0  0  0
 33 34  1  0  0  0  0
 34 35  2  0  0  0  0
 35 36  1  0  0  0  0
 36 37  2  0  0  0  0
 37 38  1  0  0  0  0
 38 39  2  0  0  0  0
 39 40  1  0  0  0  0
 40 41  1  0  0  0  0
 35 42  1  0  0  0  0
 42 43  1  0  0  0  0
 14 44  1  0  0  0  0
 44 45  2  0  0  0  0
 10 46  2  0  0  0  0
 46  6  1  0  0  0  0
 40 11  2  0  0  0  0
 45 12  1  0  0  0  0
 20 16  1  0  0  0  0
 32 22  1  0  0  0  0
 43 33  1  0  0  0  0
 41 37  1  0  0  0  0
  3 47  1  0  0  0  0
  4 48  1  0  0  0  0
  4 49  1  0  0  0  0
  7 50  1  0  0  0  0
  8 51  1  0  0  0  0
  9 52  1  0  0  0  0
 15 53  1  0  0  0  0
 17 54  1  0  0  0  0
 18 55  1  0  0  0  0
 20 56  1  0  0  0  0
 23 57  1  0  0  0  0
 24 58  1  0  0  0  0
 25 59  1  0  0  0  0
 28 60  1  0  0  0  0
 28 61  1  0  0  0  0
 31 62  1  0  0  0  0
 32 63  1  0  0  0  0
 36 64  1  0  0  0  0
 38 65  1  0  0  0  0
 39 66  1  0  0  0  0
 41 67  1  0  0  0  0
 42 68  1  0  0  0  0
 42 69  1  0  0  0  0
 43 70  1  0  0  0  0
 43 71  1  0  0  0  0
 44 72  1  0  0  0  0
 45 73  1  0  0  0  0
 46 74  1  0  0  0  0
M  END
