
  xtb     03022214003D
 energy: -76.994346676856 gnorm: 0.000353596083 xtb: 6.4.1 (afa7bdf)
 42 44  0     0  0            999 V2000
    5.0971    0.2864    0.5219 C   0  0  0  0  0  0  0  0  0  0  0  0
    4.4533    0.6210   -0.8160 C   0  0  0  0  0  0  0  0  0  0  0  0
    3.0497    0.3637   -0.7765 O   0  0  0  0  0  0  0  0  0  0  0  0
    2.2655    1.3380   -0.2870 C   0  0  0  0  0  0  0  0  0  0  0  0
    2.6449    2.4453   -0.0083 O   0  0  0  0  0  0  0  0  0  0  0  0
    0.8957    0.8309   -0.1425 C   0  0  0  0  0  0  0  0  0  0  0  0
    0.4828   -0.4866   -0.0911 C   0  0  0  0  0  0  0  0  0  0  0  0
    1.3963   -1.6583   -0.1890 C   0  0  0  0  0  0  0  0  0  0  0  0
    2.0873   -2.0619    0.7065 O   0  0  0  0  0  0  0  0  0  0  0  0
    1.3604   -2.1857   -1.4132 O   0  0  0  0  0  0  0  0  0  0  0  0
    2.2131   -3.3006   -1.6278 C   0  0  0  0  0  0  0  0  0  0  0  0
   -0.9174   -0.5056    0.1045 C   0  0  0  0  0  0  0  0  0  0  0  0
   -1.6683   -1.7580    0.2121 C   0  0  0  0  0  0  0  0  0  0  0  0
   -2.8696   -1.8975    0.1985 O   0  0  0  0  0  0  0  0  0  0  0  0
   -0.8293   -2.8000    0.3298 O   0  0  0  0  0  0  0  0  0  0  0  0
   -1.4268   -4.0827    0.4197 C   0  0  0  0  0  0  0  0  0  0  0  0
   -1.3377    0.8357    0.1699 C   0  0  0  0  0  0  0  0  0  0  0  0
   -2.5826    1.5156    0.3628 C   0  0  0  0  0  0  0  0  0  0  0  0
   -3.8197    0.8805    0.5398 C   0  0  0  0  0  0  0  0  0  0  0  0
   -4.9598    1.6253    0.7307 C   0  0  0  0  0  0  0  0  0  0  0  0
   -4.9151    3.0208    0.7487 C   0  0  0  0  0  0  0  0  0  0  0  0
   -3.7179    3.6688    0.5697 C   0  0  0  0  0  0  0  0  0  0  0  0
   -2.5411    2.9341    0.3755 C   0  0  0  0  0  0  0  0  0  0  0  0
   -1.2808    3.5745    0.1792 C   0  0  0  0  0  0  0  0  0  0  0  0
   -0.1733    2.9440    0.0074 N   0  0  0  0  0  0  0  0  0  0  0  0
   -0.2105    1.6184    0.0219 N   0  0  0  0  0  0  0  0  0  0  0  0
    6.1779    0.3575    0.4397 H   0  0  0  0  0  0  0  0  0  0  0  0
    4.7523    0.9820    1.2829 H   0  0  0  0  0  0  0  0  0  0  0  0
    4.8216   -0.7220    0.8218 H   0  0  0  0  0  0  0  0  0  0  0  0
    4.6163    1.6731   -1.0722 H   0  0  0  0  0  0  0  0  0  0  0  0
    4.8377   -0.0202   -1.6123 H   0  0  0  0  0  0  0  0  0  0  0  0
    3.2581   -2.9929   -1.5538 H   0  0  0  0  0  0  0  0  0  0  0  0
    2.0196   -4.0735   -0.8812 H   0  0  0  0  0  0  0  0  0  0  0  0
    1.9929   -3.6666   -2.6274 H   0  0  0  0  0  0  0  0  0  0  0  0
   -0.6434   -4.7604    0.7496 H   0  0  0  0  0  0  0  0  0  0  0  0
   -2.2508   -4.0687    1.1361 H   0  0  0  0  0  0  0  0  0  0  0  0
   -1.8120   -4.3886   -0.5557 H   0  0  0  0  0  0  0  0  0  0  0  0
   -3.8659   -0.1948    0.5174 H   0  0  0  0  0  0  0  0  0  0  0  0
   -5.9055    1.1227    0.8672 H   0  0  0  0  0  0  0  0  0  0  0  0
   -5.8224    3.5863    0.8995 H   0  0  0  0  0  0  0  0  0  0  0  0
   -3.6632    4.7474    0.5758 H   0  0  0  0  0  0  0  0  0  0  0  0
   -1.2094    4.6520    0.1650 H   0  0  0  0  0  0  0  0  0  0  0  0
  1  2  1  0  0  0  0
  2  3  1  0  0  0  0
  3  4  1  0  0  0  0
  4  5  2  0  0  0  0
  4  6  1  0  0  0  0
  6  7  2  0  0  0  0
  7  8  1  0  0  0  0
  8  9  2  0  0  0  0
  8 10  1  0  0  0  0
 10 11  1  0  0  0  0
  7 12  1  0  0  0  0
 12 13  1  0  0  0  0
 13 14  2  0  0  0  0
 13 15  1  0  0  0  0
 15 16  1  0  0  0  0
 12 17  2  0  0  0  0
 17 18  1  0  0  0  0
 18 19  2  0  0  0  0
 19 20  1  0  0  0  0
 20 21  2  0  0  0  0
 21 22  1  0  0  0  0
 22 23  2  0  0  0  0
 23 24  1  0  0  0  0
 24 25  2  0  0  0  0
 25 26  1  0  0  0  0
 26  6  1  0  0  0  0
 26 17  1  0  0  0  0
 23 18  1  0  0  0  0
  1 27  1  0  0  0  0
  1 28  1  0  0  0  0
  1 29  1  0  0  0  0
  2 30  1  0  0  0  0
  2 31  1  0  0  0  0
 11 32  1  0  0  0  0
 11 33  1  0  0  0  0
 11 34  1  0  0  0  0
 16 35  1  0  0  0  0
 16 36  1  0  0  0  0
 16 37  1  0  0  0  0
 19 38  1  0  0  0  0
 20 39  1  0  0  0  0
 21 40  1  0  0  0  0
 22 41  1  0  0  0  0
 24 42  1  0  0  0  0
M  END
