
  xtb     03022213093D
 energy: -63.489548199751 gnorm: 0.000183165936 xtb: 6.4.1 (afa7bdf)
 40 43  0     0  0            999 V2000
    6.7365   -2.1649   -1.5009 N   0  0  0  0  0  0  0  0  0  0  0  0
    6.0532   -1.5197   -0.8444 C   0  0  0  0  0  0  0  0  0  0  0  0
    5.1993   -0.7275   -0.0418 C   0  0  0  0  0  0  0  0  0  0  0  0
    5.7319    0.0594    0.9793 C   0  0  0  0  0  0  0  0  0  0  0  0
    4.8805    0.8286    1.7538 C   0  0  0  0  0  0  0  0  0  0  0  0
    3.5197    0.8176    1.5190 C   0  0  0  0  0  0  0  0  0  0  0  0
    2.9760    0.0310    0.4975 C   0  0  0  0  0  0  0  0  0  0  0  0
    1.5446    0.0546    0.2943 C   0  0  0  0  0  0  0  0  0  0  0  0
    0.7036    0.7598    1.0180 N   0  0  0  0  0  0  0  0  0  0  0  0
   -0.5402    0.5269    0.5291 C   0  0  0  0  0  0  0  0  0  0  0  0
   -1.6945    1.2161    1.0894 C   0  0  0  0  0  0  0  0  0  0  0  0
   -1.6863    1.5696    2.4372 C   0  0  0  0  0  0  0  0  0  0  0  0
   -2.7627    2.2341    2.9925 C   0  0  0  0  0  0  0  0  0  0  0  0
   -3.8576    2.5613    2.2094 C   0  0  0  0  0  0  0  0  0  0  0  0
   -3.8644    2.2309    0.8640 C   0  0  0  0  0  0  0  0  0  0  0  0
   -2.7905    1.5660    0.3032 C   0  0  0  0  0  0  0  0  0  0  0  0
   -0.4600   -0.3678   -0.5338 C   0  0  0  0  0  0  0  0  0  0  0  0
   -1.4614   -1.0106   -1.3658 C   0  0  0  0  0  0  0  0  0  0  0  0
   -2.6884   -1.4006   -0.8273 C   0  0  0  0  0  0  0  0  0  0  0  0
   -3.6296   -2.0278   -1.6195 C   0  0  0  0  0  0  0  0  0  0  0  0
   -3.3637   -2.2807   -2.9562 C   0  0  0  0  0  0  0  0  0  0  0  0
   -2.1467   -1.9032   -3.4979 C   0  0  0  0  0  0  0  0  0  0  0  0
   -1.1999   -1.2755   -2.7104 C   0  0  0  0  0  0  0  0  0  0  0  0
    0.8751   -0.6408   -0.6690 N   0  0  0  0  0  0  0  0  0  0  0  0
    3.8278   -0.7444   -0.2844 C   0  0  0  0  0  0  0  0  0  0  0  0
    6.7973    0.0603    1.1537 H   0  0  0  0  0  0  0  0  0  0  0  0
    5.2854    1.4408    2.5455 H   0  0  0  0  0  0  0  0  0  0  0  0
    2.8431    1.4122    2.1114 H   0  0  0  0  0  0  0  0  0  0  0  0
   -0.8247    1.3125    3.0340 H   0  0  0  0  0  0  0  0  0  0  0  0
   -2.7496    2.4992    4.0398 H   0  0  0  0  0  0  0  0  0  0  0  0
   -4.7005    3.0788    2.6437 H   0  0  0  0  0  0  0  0  0  0  0  0
   -4.7101    2.4976    0.2466 H   0  0  0  0  0  0  0  0  0  0  0  0
   -2.7940    1.3267   -0.7502 H   0  0  0  0  0  0  0  0  0  0  0  0
   -2.8908   -1.2130    0.2164 H   0  0  0  0  0  0  0  0  0  0  0  0
   -4.5753   -2.3256   -1.1914 H   0  0  0  0  0  0  0  0  0  0  0  0
   -4.1022   -2.7704   -3.5730 H   0  0  0  0  0  0  0  0  0  0  0  0
   -1.9342   -2.0961   -4.5394 H   0  0  0  0  0  0  0  0  0  0  0  0
   -0.2611   -0.9653   -3.1487 H   0  0  0  0  0  0  0  0  0  0  0  0
    1.2635   -1.2825   -1.3402 H   0  0  0  0  0  0  0  0  0  0  0  0
    3.4510   -1.3674   -1.0832 H   0  0  0  0  0  0  0  0  0  0  0  0
  1  2  3  0  0  0  0
  2  3  1  0  0  0  0
  3  4  2  0  0  0  0
  4  5  1  0  0  0  0
  5  6  2  0  0  0  0
  6  7  1  0  0  0  0
  7  8  1  0  0  0  0
  8  9  2  0  0  0  0
  9 10  1  0  0  0  0
 10 11  1  0  0  0  0
 11 12  2  0  0  0  0
 12 13  1  0  0  0  0
 13 14  2  0  0  0  0
 14 15  1  0  0  0  0
 15 16  2  0  0  0  0
 10 17  2  0  0  0  0
 17 18  1  0  0  0  0
 18 19  2  0  0  0  0
 19 20  1  0  0  0  0
 20 21  2  0  0  0  0
 21 22  1  0  0  0  0
 22 23  2  0  0  0  0
 17 24  1  0  0  0  0
  7 25  2  0  0  0  0
 25  3  1  0  0  0  0
 24  8  1  0  0  0  0
 16 11  1  0  0  0  0
 23 18  1  0  0  0  0
  4 26  1  0  0  0  0
  5 27  1  0  0  0  0
  6 28  1  0  0  0  0
 12 29  1  0  0  0  0
 13 30  1  0  0  0  0
 14 31  1  0  0  0  0
 15 32  1  0  0  0  0
 16 33  1  0  0  0  0
 19 34  1  0  0  0  0
 20 35  1  0  0  0  0
 21 36  1  0  0  0  0
 22 37  1  0  0  0  0
 23 38  1  0  0  0  0
 24 39  1  0  0  0  0
 25 40  1  0  0  0  0
M  END
