
  xtb     03022214413D
 energy: -118.413816729450 gnorm: 0.000079361602 xtb: 6.4.1 (afa7bdf)
 74 83  0     0  0            999 V2000
   -9.5172   -2.6598   -2.7941 C   0  0  0  0  0  0  0  0  0  0  0  0
   -8.1327   -2.5427   -2.8927 C   0  0  0  0  0  0  0  0  0  0  0  0
   -7.4010   -1.8255   -1.9655 C   0  0  0  0  0  0  0  0  0  0  0  0
   -8.0892   -1.2281   -0.9194 C   0  0  0  0  0  0  0  0  0  0  0  0
   -9.4965   -1.3196   -0.8258 C   0  0  0  0  0  0  0  0  0  0  0  0
  -10.2101   -2.0459   -1.7699 C   0  0  0  0  0  0  0  0  0  0  0  0
   -9.8803   -0.5532    0.3268 C   0  0  0  0  0  0  0  0  0  0  0  0
  -11.1009   -0.2884    0.9334 C   0  0  0  0  0  0  0  0  0  0  0  0
  -11.1176    0.4870    2.0755 C   0  0  0  0  0  0  0  0  0  0  0  0
   -9.9360    0.9827    2.6216 C   0  0  0  0  0  0  0  0  0  0  0  0
   -8.7095    0.7326    2.0360 C   0  0  0  0  0  0  0  0  0  0  0  0
   -8.6888   -0.0249    0.8739 C   0  0  0  0  0  0  0  0  0  0  0  0
   -7.6131   -0.4415    0.1129 N   0  0  0  0  0  0  0  0  0  0  0  0
   -6.2715   -0.1260    0.3472 C   0  0  0  0  0  0  0  0  0  0  0  0
   -5.8841    1.1949    0.5606 C   0  0  0  0  0  0  0  0  0  0  0  0
   -4.5592    1.5011    0.7943 C   0  0  0  0  0  0  0  0  0  0  0  0
   -3.5854    0.5036    0.8052 C   0  0  0  0  0  0  0  0  0  0  0  0
   -2.1730    0.8308    1.0323 C   0  0  0  0  0  0  0  0  0  0  0  0
   -1.8167    1.8253    1.9772 C   0  0  0  0  0  0  0  0  0  0  0  0
   -0.5126    2.1474    2.2032 C   0  0  0  0  0  0  0  0  0  0  0  0
    0.4439    1.5075    1.5082 N   0  0  0  0  0  0  0  0  0  0  0  0
    1.7570    1.6761    1.5766 N   0  0  0  0  0  0  0  0  0  0  0  0
    2.2391    0.7987    0.6930 C   0  0  0  0  0  0  0  0  0  0  0  0
    3.6540    0.6321    0.4369 C   0  0  0  0  0  0  0  0  0  0  0  0
    4.5934    1.4238    1.0957 C   0  0  0  0  0  0  0  0  0  0  0  0
    5.9394    1.2524    0.8510 C   0  0  0  0  0  0  0  0  0  0  0  0
    6.3682    0.2889   -0.0609 C   0  0  0  0  0  0  0  0  0  0  0  0
    7.7348    0.1123   -0.3080 N   0  0  0  0  0  0  0  0  0  0  0  0
    8.6373    1.1107   -0.6182 C   0  0  0  0  0  0  0  0  0  0  0  0
    8.4227    2.4683   -0.8085 C   0  0  0  0  0  0  0  0  0  0  0  0
    9.5092    3.2517   -1.1474 C   0  0  0  0  0  0  0  0  0  0  0  0
   10.7808    2.7044   -1.3039 C   0  0  0  0  0  0  0  0  0  0  0  0
   10.9958    1.3507   -1.1399 C   0  0  0  0  0  0  0  0  0  0  0  0
    9.9192    0.5425   -0.7993 C   0  0  0  0  0  0  0  0  0  0  0  0
    9.7750   -0.8691   -0.5780 C   0  0  0  0  0  0  0  0  0  0  0  0
   10.6662   -1.9340   -0.5921 C   0  0  0  0  0  0  0  0  0  0  0  0
   10.1913   -3.1977   -0.3040 C   0  0  0  0  0  0  0  0  0  0  0  0
    8.8499   -3.4042    0.0103 C   0  0  0  0  0  0  0  0  0  0  0  0
    7.9441   -2.3610    0.0305 C   0  0  0  0  0  0  0  0  0  0  0  0
    8.4106   -1.0922   -0.2823 C   0  0  0  0  0  0  0  0  0  0  0  0
    5.4295   -0.4999   -0.7241 C   0  0  0  0  0  0  0  0  0  0  0  0
    4.0843   -0.3307   -0.4749 C   0  0  0  0  0  0  0  0  0  0  0  0
    1.2924    0.0783    0.0623 N   0  0  0  0  0  0  0  0  0  0  0  0
    0.1538    0.5209    0.5719 C   0  0  0  0  0  0  0  0  0  0  0  0
   -1.1785    0.1812    0.3344 C   0  0  0  0  0  0  0  0  0  0  0  0
   -3.9813   -0.8154    0.5864 C   0  0  0  0  0  0  0  0  0  0  0  0
   -5.3061   -1.1304    0.3678 C   0  0  0  0  0  0  0  0  0  0  0  0
  -10.0526   -3.2315   -3.5374 H   0  0  0  0  0  0  0  0  0  0  0  0
   -7.6195   -3.0196   -3.7147 H   0  0  0  0  0  0  0  0  0  0  0  0
   -6.3305   -1.7249   -2.0629 H   0  0  0  0  0  0  0  0  0  0  0  0
  -11.2849   -2.1216   -1.7027 H   0  0  0  0  0  0  0  0  0  0  0  0
  -12.0146   -0.6873    0.5193 H   0  0  0  0  0  0  0  0  0  0  0  0
  -12.0563    0.7067    2.5617 H   0  0  0  0  0  0  0  0  0  0  0  0
   -9.9784    1.5724    3.5254 H   0  0  0  0  0  0  0  0  0  0  0  0
   -7.7981    1.1052    2.4790 H   0  0  0  0  0  0  0  0  0  0  0  0
   -6.6250    1.9792    0.5217 H   0  0  0  0  0  0  0  0  0  0  0  0
   -4.2711    2.5324    0.9340 H   0  0  0  0  0  0  0  0  0  0  0  0
   -2.5877    2.3205    2.5443 H   0  0  0  0  0  0  0  0  0  0  0  0
   -0.1839    2.8894    2.9133 H   0  0  0  0  0  0  0  0  0  0  0  0
    4.2488    2.1619    1.8028 H   0  0  0  0  0  0  0  0  0  0  0  0
    6.6710    1.8489    1.3754 H   0  0  0  0  0  0  0  0  0  0  0  0
    7.4379    2.8990   -0.7079 H   0  0  0  0  0  0  0  0  0  0  0  0
    9.3686    4.3119   -1.2984 H   0  0  0  0  0  0  0  0  0  0  0  0
   11.6048    3.3510   -1.5669 H   0  0  0  0  0  0  0  0  0  0  0  0
   11.9777    0.9234   -1.2776 H   0  0  0  0  0  0  0  0  0  0  0  0
   11.7090   -1.7707   -0.8192 H   0  0  0  0  0  0  0  0  0  0  0  0
   10.8672   -4.0400   -0.3115 H   0  0  0  0  0  0  0  0  0  0  0  0
    8.5106   -4.4019    0.2473 H   0  0  0  0  0  0  0  0  0  0  0  0
    6.9106   -2.5287    0.2933 H   0  0  0  0  0  0  0  0  0  0  0  0
    5.7650   -1.2309   -1.4446 H   0  0  0  0  0  0  0  0  0  0  0  0
    3.3448   -0.9300   -0.9822 H   0  0  0  0  0  0  0  0  0  0  0  0
   -1.3933   -0.5678   -0.4091 H   0  0  0  0  0  0  0  0  0  0  0  0
   -3.2452   -1.6046    0.6187 H   0  0  0  0  0  0  0  0  0  0  0  0
   -5.6056   -2.1582    0.2288 H   0  0  0  0  0  0  0  0  0  0  0  0
  1  2  2  0  0  0  0
  2  3  1  0  0  0  0
  3  4  2  0  0  0  0
  4  5  1  0  0  0  0
  5  6  2  0  0  0  0
  5  7  1  0  0  0  0
  7  8  2  0  0  0  0
  8  9  1  0  0  0  0
  9 10  2  0  0  0  0
 10 11  1  0  0  0  0
 11 12  2  0  0  0  0
 12 13  1  0  0  0  0
 13 14  1  0  0  0  0
 14 15  2  0  0  0  0
 15 16  1  0  0  0  0
 16 17  2  0  0  0  0
 17 18  1  0  0  0  0
 18 19  1  0  0  0  0
 19 20  2  0  0  0  0
 20 21  1  0  0  0  0
 21 22  1  0  0  0  0
 22 23  2  0  0  0  0
 23 24  1  0  0  0  0
 24 25  2  0  0  0  0
 25 26  1  0  0  0  0
 26 27  2  0  0  0  0
 27 28  1  0  0  0  0
 28 29  1  0  0  0  0
 29 30  2  0  0  0  0
 30 31  1  0  0  0  0
 31 32  2  0  0  0  0
 32 33  1  0  0  0  0
 33 34  2  0  0  0  0
 34 35  1  0  0  0  0
 35 36  2  0  0  0  0
 36 37  1  0  0  0  0
 37 38  2  0  0  0  0
 38 39  1  0  0  0  0
 39 40  2  0  0  0  0
 27 41  1  0  0  0  0
 41 42  2  0  0  0  0
 23 43  1  0  0  0  0
 43 44  2  0  0  0  0
 44 45  1  0  0  0  0
 17 46  1  0  0  0  0
 46 47  2  0  0  0  0
  6  1  1  0  0  0  0
 12  7  1  0  0  0  0
 47 14  1  0  0  0  0
 13  4  1  0  0  0  0
 45 18  2  0  0  0  0
 44 21  1  0  0  0  0
 42 24  1  0  0  0  0
 40 28  1  0  0  0  0
 34 29  1  0  0  0  0
 40 35  1  0  0  0  0
  1 48  1  0  0  0  0
  2 49  1  0  0  0  0
  3 50  1  0  0  0  0
  6 51  1  0  0  0  0
  8 52  1  0  0  0  0
  9 53  1  0  0  0  0
 10 54  1  0  0  0  0
 11 55  1  0  0  0  0
 15 56  1  0  0  0  0
 16 57  1  0  0  0  0
 19 58  1  0  0  0  0
 20 59  1  0  0  0  0
 25 60  1  0  0  0  0
 26 61  1  0  0  0  0
 30 62  1  0  0  0  0
 31 63  1  0  0  0  0
 32 64  1  0  0  0  0
 33 65  1  0  0  0  0
 36 66  1  0  0  0  0
 37 67  1  0  0  0  0
 38 68  1  0  0  0  0
 39 69  1  0  0  0  0
 41 70  1  0  0  0  0
 42 71  1  0  0  0  0
 45 72  1  0  0  0  0
 46 73  1  0  0  0  0
 47 74  1  0  0  0  0
M  END
