
  xtb     03022212543D
 energy: -103.164687030029 gnorm: 0.000098716503 xtb: 6.4.1 (afa7bdf)
 56 59  0     0  0            999 V2000
   -4.5073   -2.2182   -0.8756 C   0  0  0  0  0  0  0  0  0  0  0  0
   -3.2627   -2.6362   -0.1149 C   0  0  0  0  0  0  0  0  0  0  0  0
   -2.2912   -1.6025   -0.2586 O   0  0  0  0  0  0  0  0  0  0  0  0
   -1.1072   -1.8035    0.3359 C   0  0  0  0  0  0  0  0  0  0  0  0
   -0.8425   -2.7944    0.9741 O   0  0  0  0  0  0  0  0  0  0  0  0
   -0.1828   -0.6973    0.0883 C   0  0  0  0  0  0  0  0  0  0  0  0
   -0.3596    0.4579   -0.7182 C   0  0  0  0  0  0  0  0  0  0  0  0
   -1.5783    0.8687   -1.4133 C   0  0  0  0  0  0  0  0  0  0  0  0
   -2.7128    1.2180   -0.7609 C   0  0  0  0  0  0  0  0  0  0  0  0
   -2.7406    1.2613    0.9558 Cl  0  0  0  0  0  0  0  0  0  0  0  0
   -3.9075    1.5547   -1.4828 C   0  0  0  0  0  0  0  0  0  0  0  0
   -5.1218    1.9069   -0.8849 C   0  0  0  0  0  0  0  0  0  0  0  0
   -6.2204    2.2000   -1.6601 C   0  0  0  0  0  0  0  0  0  0  0  0
   -6.1315    2.1506   -3.0484 C   0  0  0  0  0  0  0  0  0  0  0  0
   -4.9449    1.8081   -3.6609 C   0  0  0  0  0  0  0  0  0  0  0  0
   -3.8272    1.5080   -2.8846 C   0  0  0  0  0  0  0  0  0  0  0  0
   -2.6887    1.1760   -3.5295 O   0  0  0  0  0  0  0  0  0  0  0  0
   -1.5344    0.8432   -2.8789 C   0  0  0  0  0  0  0  0  0  0  0  0
   -0.5767    0.5389   -3.5364 O   0  0  0  0  0  0  0  0  0  0  0  0
    0.7621    1.1434   -0.7854 N   0  0  0  0  0  0  0  0  0  0  0  0
    1.6646    0.4878   -0.0604 N   0  0  0  0  0  0  0  0  0  0  0  0
    2.9708    0.9879    0.0491 C   0  0  0  0  0  0  0  0  0  0  0  0
    3.7290    0.7868    1.1920 C   0  0  0  0  0  0  0  0  0  0  0  0
    5.0212    1.2758    1.2646 C   0  0  0  0  0  0  0  0  0  0  0  0
    5.5621    1.9847    0.1954 C   0  0  0  0  0  0  0  0  0  0  0  0
    6.8146    2.5023    0.1612 O   0  0  0  0  0  0  0  0  0  0  0  0
    7.6687    2.2869    1.2601 C   0  0  0  0  0  0  0  0  0  0  0  0
    4.7787    2.2065   -0.9421 C   0  0  0  0  0  0  0  0  0  0  0  0
    3.4974    1.7138   -1.0173 C   0  0  0  0  0  0  0  0  0  0  0  0
    1.1478   -0.6281    0.4952 C   0  0  0  0  0  0  0  0  0  0  0  0
    1.9051   -1.6425    1.2776 C   0  0  0  0  0  0  0  0  0  0  0  0
    2.8003   -2.3037    0.8217 O   0  0  0  0  0  0  0  0  0  0  0  0
    1.4456   -1.7016    2.5205 O   0  0  0  0  0  0  0  0  0  0  0  0
    1.9114   -2.7628    3.3614 C   0  0  0  0  0  0  0  0  0  0  0  0
    0.7243   -3.6016    3.8042 C   0  0  0  0  0  0  0  0  0  0  0  0
   -4.9075   -1.2943   -0.4655 H   0  0  0  0  0  0  0  0  0  0  0  0
   -5.2604   -2.9970   -0.8002 H   0  0  0  0  0  0  0  0  0  0  0  0
   -4.2670   -2.0556   -1.9232 H   0  0  0  0  0  0  0  0  0  0  0  0
   -3.4735   -2.7799    0.9512 H   0  0  0  0  0  0  0  0  0  0  0  0
   -2.8470   -3.5706   -0.5085 H   0  0  0  0  0  0  0  0  0  0  0  0
   -5.1792    1.9442    0.1916 H   0  0  0  0  0  0  0  0  0  0  0  0
   -7.1536    2.4700   -1.1907 H   0  0  0  0  0  0  0  0  0  0  0  0
   -6.9961    2.3823   -3.6510 H   0  0  0  0  0  0  0  0  0  0  0  0
   -4.8531    1.7648   -4.7341 H   0  0  0  0  0  0  0  0  0  0  0  0
    3.3142    0.2612    2.0378 H   0  0  0  0  0  0  0  0  0  0  0  0
    5.5917    1.1020    2.1626 H   0  0  0  0  0  0  0  0  0  0  0  0
    8.6130    2.7592    0.9948 H   0  0  0  0  0  0  0  0  0  0  0  0
    7.2766    2.7506    2.1708 H   0  0  0  0  0  0  0  0  0  0  0  0
    7.8347    1.2196    1.4356 H   0  0  0  0  0  0  0  0  0  0  0  0
    5.2089    2.7643   -1.7579 H   0  0  0  0  0  0  0  0  0  0  0  0
    2.8857    1.8723   -1.8907 H   0  0  0  0  0  0  0  0  0  0  0  0
    2.6320   -3.3627    2.7968 H   0  0  0  0  0  0  0  0  0  0  0  0
    2.4131   -2.2972    4.2159 H   0  0  0  0  0  0  0  0  0  0  0  0
    0.0627   -3.0145    4.4356 H   0  0  0  0  0  0  0  0  0  0  0  0
    1.0724   -4.4692    4.3573 H   0  0  0  0  0  0  0  0  0  0  0  0
    0.1674   -3.9253    2.9288 H   0  0  0  0  0  0  0  0  0  0  0  0
  1  2  1  0  0  0  0
  2  3  1  0  0  0  0
  3  4  1  0  0  0  0
  4  5  2  0  0  0  0
  4  6  1  0  0  0  0
  6  7  1  0  0  0  0
  7  8  1  0  0  0  0
  8  9  2  0  0  0  0
  9 10  1  0  0  0  0
  9 11  1  0  0  0  0
 11 12  2  0  0  0  0
 12 13  1  0  0  0  0
 13 14  2  0  0  0  0
 14 15  1  0  0  0  0
 15 16  2  0  0  0  0
 16 17  1  0  0  0  0
 17 18  1  0  0  0  0
 18 19  2  0  0  0  0
  7 20  2  0  0  0  0
 20 21  1  0  0  0  0
 21 22  1  0  0  0  0
 22 23  2  0  0  0  0
 23 24  1  0  0  0  0
 24 25  2  0  0  0  0
 25 26  1  0  0  0  0
 26 27  1  0  0  0  0
 25 28  1  0  0  0  0
 28 29  2  0  0  0  0
 21 30  1  0  0  0  0
 30 31  1  0  0  0  0
 31 32  2  0  0  0  0
 31 33  1  0  0  0  0
 33 34  1  0  0  0  0
 34 35  1  0  0  0  0
 30  6  2  0  0  0  0
 18  8  1  0  0  0  0
 29 22  1  0  0  0  0
 16 11  1  0  0  0  0
  1 36  1  0  0  0  0
  1 37  1  0  0  0  0
  1 38  1  0  0  0  0
  2 39  1  0  0  0  0
  2 40  1  0  0  0  0
 12 41  1  0  0  0  0
 13 42  1  0  0  0  0
 14 43  1  0  0  0  0
 15 44  1  0  0  0  0
 23 45  1  0  0  0  0
 24 46  1  0  0  0  0
 27 47  1  0  0  0  0
 27 48  1  0  0  0  0
 27 49  1  0  0  0  0
 28 50  1  0  0  0  0
 29 51  1  0  0  0  0
 34 52  1  0  0  0  0
 34 53  1  0  0  0  0
 35 54  1  0  0  0  0
 35 55  1  0  0  0  0
 35 56  1  0  0  0  0
M  END
