
  xtb     03022213123D
 energy: -126.444792877648 gnorm: 0.000175957790 xtb: 6.4.1 (afa7bdf)
 86 92  0     0  0            999 V2000
   -1.5165   -7.2269    0.2396 C   0  0  0  0  0  0  0  0  0  0  0  0
   -0.5282   -6.5373    0.9633 O   0  0  0  0  0  0  0  0  0  0  0  0
   -0.4446   -5.1829    0.8202 C   0  0  0  0  0  0  0  0  0  0  0  0
    0.5585   -4.5526    1.5590 C   0  0  0  0  0  0  0  0  0  0  0  0
    0.7301   -3.1889    1.4927 C   0  0  0  0  0  0  0  0  0  0  0  0
   -0.0903   -2.4111    0.6738 C   0  0  0  0  0  0  0  0  0  0  0  0
    0.0841   -1.0215    0.5974 N   0  0  0  0  0  0  0  0  0  0  0  0
   -1.0359   -0.1922    0.5134 C   0  0  0  0  0  0  0  0  0  0  0  0
   -1.0130    0.9654   -0.2661 C   0  0  0  0  0  0  0  0  0  0  0  0
   -2.1294    1.7678   -0.3540 C   0  0  0  0  0  0  0  0  0  0  0  0
   -3.3161    1.4361    0.3042 C   0  0  0  0  0  0  0  0  0  0  0  0
   -4.4775    2.2991    0.1685 C   0  0  0  0  0  0  0  0  0  0  0  0
   -5.7682    1.9184    0.1586 C   0  0  0  0  0  0  0  0  0  0  0  0
   -6.1880    0.5048    0.1439 C   0  0  0  0  0  0  0  0  0  0  0  0
   -5.6429   -0.3910   -0.7733 C   0  0  0  0  0  0  0  0  0  0  0  0
   -6.0524   -1.7104   -0.7912 C   0  0  0  0  0  0  0  0  0  0  0  0
   -7.0134   -2.1549    0.1025 C   0  0  0  0  0  0  0  0  0  0  0  0
   -7.5709   -1.2686    1.0086 C   0  0  0  0  0  0  0  0  0  0  0  0
   -7.1669    0.0537    1.0256 C   0  0  0  0  0  0  0  0  0  0  0  0
   -6.8489    2.9120    0.1011 C   0  0  0  0  0  0  0  0  0  0  0  0
   -8.0107    2.6481   -0.6246 C   0  0  0  0  0  0  0  0  0  0  0  0
   -9.0293    3.5794   -0.6876 C   0  0  0  0  0  0  0  0  0  0  0  0
   -8.9122    4.7879   -0.0208 C   0  0  0  0  0  0  0  0  0  0  0  0
   -7.7672    5.0583    0.7100 C   0  0  0  0  0  0  0  0  0  0  0  0
   -6.7445    4.1308    0.7706 C   0  0  0  0  0  0  0  0  0  0  0  0
   -3.3215    0.2911    1.1051 C   0  0  0  0  0  0  0  0  0  0  0  0
   -2.2047   -0.5063    1.2106 C   0  0  0  0  0  0  0  0  0  0  0  0
    1.3694   -0.4777    0.6050 C   0  0  0  0  0  0  0  0  0  0  0  0
    1.6233    0.7384    1.2421 C   0  0  0  0  0  0  0  0  0  0  0  0
    2.8947    1.2671    1.2528 C   0  0  0  0  0  0  0  0  0  0  0  0
    3.9586    0.6187    0.6192 C   0  0  0  0  0  0  0  0  0  0  0  0
    5.2831    1.2128    0.6710 C   0  0  0  0  0  0  0  0  0  0  0  0
    6.2615    1.1154   -0.2478 C   0  0  0  0  0  0  0  0  0  0  0  0
    7.5860    1.7024   -0.0019 C   0  0  0  0  0  0  0  0  0  0  0  0
    8.3034    2.2848   -1.0470 C   0  0  0  0  0  0  0  0  0  0  0  0
    9.5469    2.8437   -0.8231 C   0  0  0  0  0  0  0  0  0  0  0  0
   10.1026    2.8242    0.4456 C   0  0  0  0  0  0  0  0  0  0  0  0
    9.4043    2.2408    1.4897 C   0  0  0  0  0  0  0  0  0  0  0  0
    8.1580    1.6856    1.2698 C   0  0  0  0  0  0  0  0  0  0  0  0
    6.0745    0.4847   -1.5674 C   0  0  0  0  0  0  0  0  0  0  0  0
    5.0079    0.8485   -2.3862 C   0  0  0  0  0  0  0  0  0  0  0  0
    4.8548    0.2729   -3.6330 C   0  0  0  0  0  0  0  0  0  0  0  0
    5.7633   -0.6725   -4.0811 C   0  0  0  0  0  0  0  0  0  0  0  0
    6.8322   -1.0332   -3.2780 C   0  0  0  0  0  0  0  0  0  0  0  0
    6.9921   -0.4537   -2.0328 C   0  0  0  0  0  0  0  0  0  0  0  0
    3.7005   -0.6096    0.0055 C   0  0  0  0  0  0  0  0  0  0  0  0
    2.4326   -1.1468   -0.0052 C   0  0  0  0  0  0  0  0  0  0  0  0
   -1.0873   -3.0419   -0.0631 C   0  0  0  0  0  0  0  0  0  0  0  0
   -1.2701   -4.4109    0.0110 C   0  0  0  0  0  0  0  0  0  0  0  0
   -1.3830   -7.1066   -0.8406 H   0  0  0  0  0  0  0  0  0  0  0  0
   -2.5233   -6.8995    0.5197 H   0  0  0  0  0  0  0  0  0  0  0  0
   -1.3948   -8.2770    0.5012 H   0  0  0  0  0  0  0  0  0  0  0  0
    1.1891   -5.1598    2.1886 H   0  0  0  0  0  0  0  0  0  0  0  0
    1.5035   -2.7132    2.0771 H   0  0  0  0  0  0  0  0  0  0  0  0
   -0.1137    1.2248   -0.8057 H   0  0  0  0  0  0  0  0  0  0  0  0
   -2.0973    2.6562   -0.9690 H   0  0  0  0  0  0  0  0  0  0  0  0
   -4.2523    3.3513    0.0420 H   0  0  0  0  0  0  0  0  0  0  0  0
   -4.8990   -0.0423   -1.4748 H   0  0  0  0  0  0  0  0  0  0  0  0
   -5.6236   -2.3957   -1.5082 H   0  0  0  0  0  0  0  0  0  0  0  0
   -7.3310   -3.1872    0.0888 H   0  0  0  0  0  0  0  0  0  0  0  0
   -8.3253   -1.6084    1.7035 H   0  0  0  0  0  0  0  0  0  0  0  0
   -7.6015    0.7456    1.7334 H   0  0  0  0  0  0  0  0  0  0  0  0
   -8.1048    1.7093   -1.1515 H   0  0  0  0  0  0  0  0  0  0  0  0
   -9.9200    3.3620   -1.2592 H   0  0  0  0  0  0  0  0  0  0  0  0
   -9.7109    5.5135   -0.0669 H   0  0  0  0  0  0  0  0  0  0  0  0
   -7.6735    5.9955    1.2396 H   0  0  0  0  0  0  0  0  0  0  0  0
   -5.8639    4.3404    1.3603 H   0  0  0  0  0  0  0  0  0  0  0  0
   -4.2056    0.0412    1.6711 H   0  0  0  0  0  0  0  0  0  0  0  0
   -2.2234   -1.3823    1.8423 H   0  0  0  0  0  0  0  0  0  0  0  0
    0.8157    1.2564    1.7387 H   0  0  0  0  0  0  0  0  0  0  0  0
    3.0741    2.2068    1.7562 H   0  0  0  0  0  0  0  0  0  0  0  0
    5.4736    1.8119    1.5538 H   0  0  0  0  0  0  0  0  0  0  0  0
    7.8721    2.3082   -2.0377 H   0  0  0  0  0  0  0  0  0  0  0  0
   10.0865    3.2967   -1.6423 H   0  0  0  0  0  0  0  0  0  0  0  0
   11.0767    3.2575    0.6189 H   0  0  0  0  0  0  0  0  0  0  0  0
    9.8363    2.2140    2.4799 H   0  0  0  0  0  0  0  0  0  0  0  0
    7.6293    1.2131    2.0849 H   0  0  0  0  0  0  0  0  0  0  0  0
    4.3033    1.5897   -2.0380 H   0  0  0  0  0  0  0  0  0  0  0  0
    4.0251    0.5645   -4.2606 H   0  0  0  0  0  0  0  0  0  0  0  0
    5.6410   -1.1229   -5.0552 H   0  0  0  0  0  0  0  0  0  0  0  0
    7.5461   -1.7665   -3.6246 H   0  0  0  0  0  0  0  0  0  0  0  0
    7.8269   -0.7341   -1.4059 H   0  0  0  0  0  0  0  0  0  0  0  0
    4.5082   -1.1551   -0.4575 H   0  0  0  0  0  0  0  0  0  0  0  0
    2.2538   -2.0955   -0.4895 H   0  0  0  0  0  0  0  0  0  0  0  0
   -1.7300   -2.4536   -0.7014 H   0  0  0  0  0  0  0  0  0  0  0  0
   -2.0559   -4.8610   -0.5748 H   0  0  0  0  0  0  0  0  0  0  0  0
  1  2  1  0  0  0  0
  2  3  1  0  0  0  0
  3  4  2  0  0  0  0
  4  5  1  0  0  0  0
  5  6  2  0  0  0  0
  6  7  1  0  0  0  0
  7  8  1  0  0  0  0
  8  9  2  0  0  0  0
  9 10  1  0  0  0  0
 10 11  2  0  0  0  0
 11 12  1  0  0  0  0
 12 13  2  0  0  0  0
 13 14  1  0  0  0  0
 14 15  2  0  0  0  0
 15 16  1  0  0  0  0
 16 17  2  0  0  0  0
 17 18  1  0  0  0  0
 18 19  2  0  0  0  0
 13 20  1  0  0  0  0
 20 21  2  0  0  0  0
 21 22  1  0  0  0  0
 22 23  2  0  0  0  0
 23 24  1  0  0  0  0
 24 25  2  0  0  0  0
 11 26  1  0  0  0  0
 26 27  2  0  0  0  0
  7 28  1  0  0  0  0
 28 29  2  0  0  0  0
 29 30  1  0  0  0  0
 30 31  2  0  0  0  0
 31 32  1  0  0  0  0
 32 33  2  0  0  0  0
 33 34  1  0  0  0  0
 34 35  2  0  0  0  0
 35 36  1  0  0  0  0
 36 37  2  0  0  0  0
 37 38  1  0  0  0  0
 38 39  2  0  0  0  0
 33 40  1  0  0  0  0
 40 41  2  0  0  0  0
 41 42  1  0  0  0  0
 42 43  2  0  0  0  0
 43 44  1  0  0  0  0
 44 45  2  0  0  0  0
 31 46  1  0  0  0  0
 46 47  2  0  0  0  0
  6 48  1  0  0  0  0
 48 49  2  0  0  0  0
 49  3  1  0  0  0  0
 27  8  1  0  0  0  0
 47 28  1  0  0  0  0
 19 14  1  0  0  0  0
 25 20  1  0  0  0  0
 39 34  1  0  0  0  0
 45 40  1  0  0  0  0
  1 50  1  0  0  0  0
  1 51  1  0  0  0  0
  1 52  1  0  0  0  0
  4 53  1  0  0  0  0
  5 54  1  0  0  0  0
  9 55  1  0  0  0  0
 10 56  1  0  0  0  0
 12 57  1  0  0  0  0
 15 58  1  0  0  0  0
 16 59  1  0  0  0  0
 17 60  1  0  0  0  0
 18 61  1  0  0  0  0
 19 62  1  0  0  0  0
 21 63  1  0  0  0  0
 22 64  1  0  0  0  0
 23 65  1  0  0  0  0
 24 66  1  0  0  0  0
 25 67  1  0  0  0  0
 26 68  1  0  0  0  0
 27 69  1  0  0  0  0
 29 70  1  0  0  0  0
 30 71  1  0  0  0  0
 32 72  1  0  0  0  0
 35 73  1  0  0  0  0
 36 74  1  0  0  0  0
 37 75  1  0  0  0  0
 38 76  1  0  0  0  0
 39 77  1  0  0  0  0
 41 78  1  0  0  0  0
 42 79  1  0  0  0  0
 43 80  1  0  0  0  0
 44 81  1  0  0  0  0
 45 82  1  0  0  0  0
 46 83  1  0  0  0  0
 47 84  1  0  0  0  0
 48 85  1  0  0  0  0
 49 86  1  0  0  0  0
M  END
