
  xtb     03022212493D
 energy: -113.014483051584 gnorm: 0.000129207676 xtb: 6.4.1 (afa7bdf)
 75 80  0     0  0            999 V2000
    7.7747    1.4483    2.2739 C   0  0  0  0  0  0  0  0  0  0  0  0
    7.5385    2.8538    1.7305 C   0  0  0  0  0  0  0  0  0  0  0  0
    7.4384    2.9063    0.1980 C   0  0  0  0  0  0  0  0  0  0  0  0
    6.0098    3.0637   -0.3276 C   0  0  0  0  0  0  0  0  0  0  0  0
    5.0721    1.8995   -0.0158 C   0  0  0  0  0  0  0  0  0  0  0  0
    5.4624    0.6208   -0.7554 C   0  0  0  0  0  0  0  0  0  0  0  0
    4.4677   -0.4263   -0.5481 N   0  0  0  0  0  0  0  0  0  0  0  0
    4.6112   -1.2072    0.5870 C   0  0  0  0  0  0  0  0  0  0  0  0
    5.5355   -1.0183    1.3538 O   0  0  0  0  0  0  0  0  0  0  0  0
    3.6028   -2.2563    0.7975 C   0  0  0  0  0  0  0  0  0  0  0  0
    3.6904   -3.0837    1.8989 C   0  0  0  0  0  0  0  0  0  0  0  0
    2.7377   -4.0860    2.1017 C   0  0  0  0  0  0  0  0  0  0  0  0
    1.7101   -4.2631    1.2123 C   0  0  0  0  0  0  0  0  0  0  0  0
    1.5875   -3.4387    0.0725 C   0  0  0  0  0  0  0  0  0  0  0  0
    0.5494   -3.5878   -0.8604 C   0  0  0  0  0  0  0  0  0  0  0  0
    0.4564   -2.7603   -1.9699 C   0  0  0  0  0  0  0  0  0  0  0  0
   -0.4421   -3.0124   -2.9629 N   0  0  0  0  0  0  0  0  0  0  0  0
   -1.6542   -2.6922   -3.1117 C   0  0  0  0  0  0  0  0  0  0  0  0
   -2.5150   -1.8751   -2.2753 C   0  0  0  0  0  0  0  0  0  0  0  0
   -3.8705   -1.7727   -2.6108 C   0  0  0  0  0  0  0  0  0  0  0  0
   -4.7371   -1.0177   -1.8580 C   0  0  0  0  0  0  0  0  0  0  0  0
   -4.2776   -0.3178   -0.7351 C   0  0  0  0  0  0  0  0  0  0  0  0
   -5.1461    0.4490    0.0234 N   0  0  0  0  0  0  0  0  0  0  0  0
   -6.4974    0.0857    0.1460 C   0  0  0  0  0  0  0  0  0  0  0  0
   -7.4916    1.0618    0.1253 C   0  0  0  0  0  0  0  0  0  0  0  0
   -8.8189    0.7030    0.2617 C   0  0  0  0  0  0  0  0  0  0  0  0
   -9.1736   -0.6274    0.4135 C   0  0  0  0  0  0  0  0  0  0  0  0
   -8.1880   -1.6007    0.4342 C   0  0  0  0  0  0  0  0  0  0  0  0
   -6.8575   -1.2511    0.3066 C   0  0  0  0  0  0  0  0  0  0  0  0
   -4.6964    1.6092    0.6761 C   0  0  0  0  0  0  0  0  0  0  0  0
   -5.1652    1.9216    1.9505 C   0  0  0  0  0  0  0  0  0  0  0  0
   -4.7379    3.0729    2.5839 C   0  0  0  0  0  0  0  0  0  0  0  0
   -3.8362    3.9212    1.9626 C   0  0  0  0  0  0  0  0  0  0  0  0
   -3.3665    3.6129    0.6964 C   0  0  0  0  0  0  0  0  0  0  0  0
   -3.7947    2.4686    0.0512 C   0  0  0  0  0  0  0  0  0  0  0  0
   -2.9210   -0.4090   -0.4009 C   0  0  0  0  0  0  0  0  0  0  0  0
   -2.0606   -1.1739   -1.1532 C   0  0  0  0  0  0  0  0  0  0  0  0
    1.4333   -1.7571   -2.1632 C   0  0  0  0  0  0  0  0  0  0  0  0
    2.4515   -1.5821   -1.2565 C   0  0  0  0  0  0  0  0  0  0  0  0
    2.5539   -2.4195   -0.1262 C   0  0  0  0  0  0  0  0  0  0  0  0
    3.4411   -0.5133   -1.4749 C   0  0  0  0  0  0  0  0  0  0  0  0
    3.3820    0.2577   -2.4117 O   0  0  0  0  0  0  0  0  0  0  0  0
    8.7110    1.0484    1.8892 H   0  0  0  0  0  0  0  0  0  0  0  0
    7.8396    1.4727    3.3601 H   0  0  0  0  0  0  0  0  0  0  0  0
    6.9753    0.7668    1.9988 H   0  0  0  0  0  0  0  0  0  0  0  0
    8.3655    3.4890    2.0578 H   0  0  0  0  0  0  0  0  0  0  0  0
    6.6269    3.2656    2.1686 H   0  0  0  0  0  0  0  0  0  0  0  0
    7.8911    2.0100   -0.2271 H   0  0  0  0  0  0  0  0  0  0  0  0
    8.0128    3.7598   -0.1703 H   0  0  0  0  0  0  0  0  0  0  0  0
    5.5818    3.9737    0.1006 H   0  0  0  0  0  0  0  0  0  0  0  0
    6.0471    3.1989   -1.4116 H   0  0  0  0  0  0  0  0  0  0  0  0
    4.0603    2.1746   -0.3250 H   0  0  0  0  0  0  0  0  0  0  0  0
    5.0571    1.7039    1.0571 H   0  0  0  0  0  0  0  0  0  0  0  0
    5.5173    0.8104   -1.8290 H   0  0  0  0  0  0  0  0  0  0  0  0
    6.4169    0.2394   -0.3910 H   0  0  0  0  0  0  0  0  0  0  0  0
    4.5047   -2.9424    2.5930 H   0  0  0  0  0  0  0  0  0  0  0  0
    2.8196   -4.7249    2.9685 H   0  0  0  0  0  0  0  0  0  0  0  0
    0.9762   -5.0404    1.3697 H   0  0  0  0  0  0  0  0  0  0  0  0
   -0.1900   -4.3620   -0.7144 H   0  0  0  0  0  0  0  0  0  0  0  0
   -2.1245   -3.0882   -4.0100 H   0  0  0  0  0  0  0  0  0  0  0  0
   -4.2399   -2.2948   -3.4820 H   0  0  0  0  0  0  0  0  0  0  0  0
   -5.7775   -0.9458   -2.1380 H   0  0  0  0  0  0  0  0  0  0  0  0
   -7.2156    2.0986    0.0004 H   0  0  0  0  0  0  0  0  0  0  0  0
   -9.5813    1.4674    0.2422 H   0  0  0  0  0  0  0  0  0  0  0  0
  -10.2116   -0.9041    0.5170 H   0  0  0  0  0  0  0  0  0  0  0  0
   -8.4556   -2.6393    0.5599 H   0  0  0  0  0  0  0  0  0  0  0  0
   -6.0884   -2.0092    0.3358 H   0  0  0  0  0  0  0  0  0  0  0  0
   -5.8634    1.2569    2.4379 H   0  0  0  0  0  0  0  0  0  0  0  0
   -5.1069    3.3048    3.5719 H   0  0  0  0  0  0  0  0  0  0  0  0
   -3.5026    4.8182    2.4614 H   0  0  0  0  0  0  0  0  0  0  0  0
   -2.6686    4.2722    0.2022 H   0  0  0  0  0  0  0  0  0  0  0  0
   -3.4381    2.2366   -0.9418 H   0  0  0  0  0  0  0  0  0  0  0  0
   -2.5522    0.1195    0.4655 H   0  0  0  0  0  0  0  0  0  0  0  0
   -1.0212   -1.2294   -0.8689 H   0  0  0  0  0  0  0  0  0  0  0  0
    1.3757   -1.1131   -3.0278 H   0  0  0  0  0  0  0  0  0  0  0  0
  1  2  1  0  0  0  0
  2  3  1  0  0  0  0
  3  4  1  0  0  0  0
  4  5  1  0  0  0  0
  5  6  1  0  0  0  0
  6  7  1  0  0  0  0
  7  8  1  0  0  0  0
  8  9  2  0  0  0  0
  8 10  1  0  0  0  0
 10 11  1  0  0  0  0
 11 12  2  0  0  0  0
 12 13  1  0  0  0  0
 13 14  2  0  0  0  0
 14 15  1  0  0  0  0
 15 16  2  0  0  0  0
 16 17  1  0  0  0  0
 17 18  2  0  0  0  0
 18 19  1  0  0  0  0
 19 20  2  0  0  0  0
 20 21  1  0  0  0  0
 21 22  2  0  0  0  0
 22 23  1  0  0  0  0
 23 24  1  0  0  0  0
 24 25  2  0  0  0  0
 25 26  1  0  0  0  0
 26 27  2  0  0  0  0
 27 28  1  0  0  0  0
 28 29  2  0  0  0  0
 23 30  1  0  0  0  0
 30 31  2  0  0  0  0
 31 32  1  0  0  0  0
 32 33  2  0  0  0  0
 33 34  1  0  0  0  0
 34 35  2  0  0  0  0
 22 36  1  0  0  0  0
 36 37  2  0  0  0  0
 16 38  1  0  0  0  0
 38 39  2  0  0  0  0
 39 40  1  0  0  0  0
 39 41  1  0  0  0  0
 41 42  2  0  0  0  0
 41  7  1  0  0  0  0
 40 10  2  0  0  0  0
 40 14  1  0  0  0  0
 37 19  1  0  0  0  0
 29 24  1  0  0  0  0
 35 30  1  0  0  0  0
  1 43  1  0  0  0  0
  1 44  1  0  0  0  0
  1 45  1  0  0  0  0
  2 46  1  0  0  0  0
  2 47  1  0  0  0  0
  3 48  1  0  0  0  0
  3 49  1  0  0  0  0
  4 50  1  0  0  0  0
  4 51  1  0  0  0  0
  5 52  1  0  0  0  0
  5 53  1  0  0  0  0
  6 54  1  0  0  0  0
  6 55  1  0  0  0  0
 11 56  1  0  0  0  0
 12 57  1  0  0  0  0
 13 58  1  0  0  0  0
 15 59  1  0  0  0  0
 18 60  1  0  0  0  0
 20 61  1  0  0  0  0
 21 62  1  0  0  0  0
 25 63  1  0  0  0  0
 26 64  1  0  0  0  0
 27 65  1  0  0  0  0
 28 66  1  0  0  0  0
 29 67  1  0  0  0  0
 31 68  1  0  0  0  0
 32 69  1  0  0  0  0
 33 70  1  0  0  0  0
 34 71  1  0  0  0  0
 35 72  1  0  0  0  0
 36 73  1  0  0  0  0
 37 74  1  0  0  0  0
 38 75  1  0  0  0  0
M  END
