
  xtb     03022214213D
 energy: -55.117451667410 gnorm: 0.000080899951 xtb: 6.4.1 (afa7bdf)
 30 32  0     0  0            999 V2000
   -3.4593    2.5617    0.1972 O   0  0  0  0  0  0  0  0  0  0  0  0
   -2.5791    1.7220    0.0824 C   0  0  0  0  0  0  0  0  0  0  0  0
   -1.1968    2.0737   -0.1552 C   0  0  0  0  0  0  0  0  0  0  0  0
   -0.1884    1.1711   -0.2796 C   0  0  0  0  0  0  0  0  0  0  0  0
    1.0967    1.5765   -0.4772 N   0  0  0  0  0  0  0  0  0  0  0  0
    2.2655    0.8472   -0.2678 C   0  0  0  0  0  0  0  0  0  0  0  0
    3.3932    1.1553   -1.0275 C   0  0  0  0  0  0  0  0  0  0  0  0
    4.5792    0.4765   -0.8303 C   0  0  0  0  0  0  0  0  0  0  0  0
    4.6290   -0.5106    0.1374 C   0  0  0  0  0  0  0  0  0  0  0  0
    5.7845   -1.1777    0.3351 F   0  0  0  0  0  0  0  0  0  0  0  0
    3.5309   -0.8177    0.9213 C   0  0  0  0  0  0  0  0  0  0  0  0
    2.3515   -0.1283    0.7244 C   0  0  0  0  0  0  0  0  0  0  0  0
   -0.5051   -0.2834   -0.4166 C   0  0  0  0  0  0  0  0  0  0  0  0
    0.2717   -1.0623   -0.9308 O   0  0  0  0  0  0  0  0  0  0  0  0
   -1.8577   -0.6803    0.0141 C   0  0  0  0  0  0  0  0  0  0  0  0
   -2.1491   -2.0344    0.1602 C   0  0  0  0  0  0  0  0  0  0  0  0
   -3.4167   -2.4397    0.5375 C   0  0  0  0  0  0  0  0  0  0  0  0
   -4.4085   -1.4963    0.7594 C   0  0  0  0  0  0  0  0  0  0  0  0
   -4.1309   -0.1486    0.6054 C   0  0  0  0  0  0  0  0  0  0  0  0
   -2.8583    0.2712    0.2391 C   0  0  0  0  0  0  0  0  0  0  0  0
   -0.9812    3.1337   -0.1945 H   0  0  0  0  0  0  0  0  0  0  0  0
    1.2226    2.5418   -0.7526 H   0  0  0  0  0  0  0  0  0  0  0  0
    3.3329    1.9244   -1.7833 H   0  0  0  0  0  0  0  0  0  0  0  0
    5.4561    0.6998   -1.4167 H   0  0  0  0  0  0  0  0  0  0  0  0
    3.6103   -1.5796    1.6801 H   0  0  0  0  0  0  0  0  0  0  0  0
    1.4957   -0.3424    1.3456 H   0  0  0  0  0  0  0  0  0  0  0  0
   -1.3650   -2.7532   -0.0265 H   0  0  0  0  0  0  0  0  0  0  0  0
   -3.6336   -3.4911    0.6532 H   0  0  0  0  0  0  0  0  0  0  0  0
   -5.3997   -1.8122    1.0486 H   0  0  0  0  0  0  0  0  0  0  0  0
   -4.8905    0.6025    0.7636 H   0  0  0  0  0  0  0  0  0  0  0  0
  1  2  2  0  0  0  0
  2  3  1  0  0  0  0
  3  4  2  0  0  0  0
  4  5  1  0  0  0  0
  5  6  1  0  0  0  0
  6  7  2  0  0  0  0
  7  8  1  0  0  0  0
  8  9  2  0  0  0  0
  9 10  1  0  0  0  0
  9 11  1  0  0  0  0
 11 12  2  0  0  0  0
  4 13  1  0  0  0  0
 13 14  2  0  0  0  0
 13 15  1  0  0  0  0
 15 16  2  0  0  0  0
 16 17  1  0  0  0  0
 17 18  2  0  0  0  0
 18 19  1  0  0  0  0
 19 20  2  0  0  0  0
 20  2  1  0  0  0  0
 12  6  1  0  0  0  0
 20 15  1  0  0  0  0
  3 21  1  0  0  0  0
  5 22  1  0  0  0  0
  7 23  1  0  0  0  0
  8 24  1  0  0  0  0
 11 25  1  0  0  0  0
 12 26  1  0  0  0  0
 16 27  1  0  0  0  0
 17 28  1  0  0  0  0
 18 29  1  0  0  0  0
 19 30  1  0  0  0  0
M  END
