
  xtb     03022213563D
 energy: -112.903380875369 gnorm: 0.000072833933 xtb: 6.4.1 (afa7bdf)
 72 79  0     0  0            999 V2000
   -1.7094    7.2503    1.8124 C   0  0  0  0  0  0  0  0  0  0  0  0
   -1.3621    5.8336    1.4696 C   0  0  0  0  0  0  0  0  0  0  0  0
   -1.4398    4.8280    2.4215 C   0  0  0  0  0  0  0  0  0  0  0  0
   -1.1354    3.5114    2.1094 C   0  0  0  0  0  0  0  0  0  0  0  0
   -1.2221    2.4313    3.1446 C   0  0  0  0  0  0  0  0  0  0  0  0
   -0.7460    3.2001    0.8070 C   0  0  0  0  0  0  0  0  0  0  0  0
   -0.4179    1.8028    0.4559 C   0  0  0  0  0  0  0  0  0  0  0  0
   -1.4042    0.9632   -0.0507 C   0  0  0  0  0  0  0  0  0  0  0  0
   -2.7826    1.2119   -0.2369 C   0  0  0  0  0  0  0  0  0  0  0  0
   -3.3418    0.0339   -0.6671 C   0  0  0  0  0  0  0  0  0  0  0  0
   -2.3031   -0.9185   -0.7585 C   0  0  0  0  0  0  0  0  0  0  0  0
   -2.4574   -2.3052   -1.1847 C   0  0  0  0  0  0  0  0  0  0  0  0
   -1.7576   -2.7841   -2.2681 C   0  0  0  0  0  0  0  0  0  0  0  0
   -1.9567   -4.0898   -2.7317 C   0  0  0  0  0  0  0  0  0  0  0  0
   -2.8604   -4.9119   -2.1198 C   0  0  0  0  0  0  0  0  0  0  0  0
   -3.5916   -4.4663   -0.9991 C   0  0  0  0  0  0  0  0  0  0  0  0
   -4.5168   -5.3056   -0.3434 C   0  0  0  0  0  0  0  0  0  0  0  0
   -5.1996   -4.8731    0.7579 C   0  0  0  0  0  0  0  0  0  0  0  0
   -4.9737   -3.5834    1.2602 C   0  0  0  0  0  0  0  0  0  0  0  0
   -4.0868   -2.7442    0.6444 C   0  0  0  0  0  0  0  0  0  0  0  0
   -3.3869   -3.1488   -0.5115 C   0  0  0  0  0  0  0  0  0  0  0  0
   -1.1451   -0.3445   -0.4037 N   0  0  0  0  0  4  0  0  0  0  0  0
    0.2448   -1.0241   -0.2553 B   0  0  0  0  0  4  0  0  0  0  0  0
    0.1044   -2.1035    0.5922 F   0  0  0  0  0  0  0  0  0  0  0  0
    0.7351   -1.4306   -1.4791 F   0  0  0  0  0  0  0  0  0  0  0  0
    1.2279    0.0274    0.3306 N   0  0  0  0  0  0  0  0  0  0  0  0
    0.8769    1.3265    0.6319 C   0  0  0  0  0  0  0  0  0  0  0  0
    2.0358    2.0165    1.0528 C   0  0  0  0  0  0  0  0  0  0  0  0
    3.0788    1.1277    0.9640 C   0  0  0  0  0  0  0  0  0  0  0  0
    2.5501   -0.1000    0.5088 C   0  0  0  0  0  0  0  0  0  0  0  0
    3.3131   -1.3223    0.2802 C   0  0  0  0  0  0  0  0  0  0  0  0
    2.9998   -2.4772    0.9590 C   0  0  0  0  0  0  0  0  0  0  0  0
    3.7723   -3.6340    0.8029 C   0  0  0  0  0  0  0  0  0  0  0  0
    4.8607   -3.6339   -0.0230 C   0  0  0  0  0  0  0  0  0  0  0  0
    5.2119   -2.4756   -0.7470 C   0  0  0  0  0  0  0  0  0  0  0  0
    6.3216   -2.4606   -1.6181 C   0  0  0  0  0  0  0  0  0  0  0  0
    6.6364   -1.3412   -2.3352 C   0  0  0  0  0  0  0  0  0  0  0  0
    5.8434   -0.1903   -2.2212 C   0  0  0  0  0  0  0  0  0  0  0  0
    4.7639   -0.1715   -1.3819 C   0  0  0  0  0  0  0  0  0  0  0  0
    4.4275   -1.3006   -0.6065 C   0  0  0  0  0  0  0  0  0  0  0  0
   -0.6622    4.1951   -0.1680 C   0  0  0  0  0  0  0  0  0  0  0  0
   -0.2381    3.8444   -1.5619 C   0  0  0  0  0  0  0  0  0  0  0  0
   -0.9714    5.5002    0.1795 C   0  0  0  0  0  0  0  0  0  0  0  0
   -0.9976    7.9405    1.3641 H   0  0  0  0  0  0  0  0  0  0  0  0
   -1.7162    7.4006    2.8889 H   0  0  0  0  0  0  0  0  0  0  0  0
   -2.6994    7.4954    1.4271 H   0  0  0  0  0  0  0  0  0  0  0  0
   -1.7428    5.0727    3.4297 H   0  0  0  0  0  0  0  0  0  0  0  0
   -1.9169    1.6543    2.8275 H   0  0  0  0  0  0  0  0  0  0  0  0
   -1.5592    2.8347    4.0960 H   0  0  0  0  0  0  0  0  0  0  0  0
   -0.2492    1.9626    3.2885 H   0  0  0  0  0  0  0  0  0  0  0  0
   -3.2693    2.1505   -0.0550 H   0  0  0  0  0  0  0  0  0  0  0  0
   -4.3678   -0.1537   -0.9176 H   0  0  0  0  0  0  0  0  0  0  0  0
   -1.0568   -2.1440   -2.7785 H   0  0  0  0  0  0  0  0  0  0  0  0
   -1.3914   -4.4348   -3.5845 H   0  0  0  0  0  0  0  0  0  0  0  0
   -3.0254   -5.9175   -2.4799 H   0  0  0  0  0  0  0  0  0  0  0  0
   -4.6692   -6.3043   -0.7279 H   0  0  0  0  0  0  0  0  0  0  0  0
   -5.9063   -5.5218    1.2546 H   0  0  0  0  0  0  0  0  0  0  0  0
   -5.5028   -3.2586    2.1444 H   0  0  0  0  0  0  0  0  0  0  0  0
   -3.9047   -1.7603    1.0500 H   0  0  0  0  0  0  0  0  0  0  0  0
    2.0629    3.0430    1.3639 H   0  0  0  0  0  0  0  0  0  0  0  0
    4.1094    1.2970    1.2088 H   0  0  0  0  0  0  0  0  0  0  0  0
    2.1578   -2.4913    1.6316 H   0  0  0  0  0  0  0  0  0  0  0  0
    3.4996   -4.5239    1.3504 H   0  0  0  0  0  0  0  0  0  0  0  0
    5.4661   -4.5216   -0.1401 H   0  0  0  0  0  0  0  0  0  0  0  0
    6.9152   -3.3590   -1.7121 H   0  0  0  0  0  0  0  0  0  0  0  0
    7.4875   -1.3377   -3.0005 H   0  0  0  0  0  0  0  0  0  0  0  0
    6.0887    0.6829   -2.8084 H   0  0  0  0  0  0  0  0  0  0  0  0
    4.1475    0.7125   -1.3154 H   0  0  0  0  0  0  0  0  0  0  0  0
    0.7497    3.3849   -1.5555 H   0  0  0  0  0  0  0  0  0  0  0  0
   -0.9306    3.1274   -2.0017 H   0  0  0  0  0  0  0  0  0  0  0  0
   -0.2075    4.7307   -2.1903 H   0  0  0  0  0  0  0  0  0  0  0  0
   -0.9065    6.2757   -0.5705 H   0  0  0  0  0  0  0  0  0  0  0  0
  1  2  1  0  0  0  0
  2  3  2  0  0  0  0
  3  4  1  0  0  0  0
  4  5  1  0  0  0  0
  4  6  2  0  0  0  0
  6  7  1  0  0  0  0
  7  8  2  0  0  0  0
  8  9  1  0  0  0  0
  9 10  2  0  0  0  0
 10 11  1  0  0  0  0
 11 12  1  0  0  0  0
 12 13  2  0  0  0  0
 13 14  1  0  0  0  0
 14 15  2  0  0  0  0
 15 16  1  0  0  0  0
 16 17  2  0  0  0  0
 17 18  1  0  0  0  0
 18 19  2  0  0  0  0
 19 20  1  0  0  0  0
 20 21  2  0  0  0  0
 11 22  2  0  0  0  0
 22 23  1  0  0  0  0
 23 24  1  0  0  0  0
 23 25  1  0  0  0  0
 23 26  1  0  0  0  0
 26 27  1  0  0  0  0
 27 28  2  0  0  0  0
 28 29  1  0  0  0  0
 29 30  2  0  0  0  0
 30 31  1  0  0  0  0
 31 32  2  0  0  0  0
 32 33  1  0  0  0  0
 33 34  2  0  0  0  0
 34 35  1  0  0  0  0
 35 36  2  0  0  0  0
 36 37  1  0  0  0  0
 37 38  2  0  0  0  0
 38 39  1  0  0  0  0
 39 40  2  0  0  0  0
  6 41  1  0  0  0  0
 41 42  1  0  0  0  0
 41 43  2  0  0  0  0
 43  2  1  0  0  0  0
 27  7  1  0  0  0  0
 40 31  1  0  0  0  0
 22  8  1  0  0  0  0
 30 26  1  0  0  0  0
 40 35  1  0  0  0  0
 21 12  1  0  0  0  0
 21 16  1  0  0  0  0
  1 44  1  0  0  0  0
  1 45  1  0  0  0  0
  1 46  1  0  0  0  0
  3 47  1  0  0  0  0
  5 48  1  0  0  0  0
  5 49  1  0  0  0  0
  5 50  1  0  0  0  0
  9 51  1  0  0  0  0
 10 52  1  0  0  0  0
 13 53  1  0  0  0  0
 14 54  1  0  0  0  0
 15 55  1  0  0  0  0
 17 56  1  0  0  0  0
 18 57  1  0  0  0  0
 19 58  1  0  0  0  0
 20 59  1  0  0  0  0
 28 60  1  0  0  0  0
 29 61  1  0  0  0  0
 32 62  1  0  0  0  0
 33 63  1  0  0  0  0
 34 64  1  0  0  0  0
 36 65  1  0  0  0  0
 37 66  1  0  0  0  0
 38 67  1  0  0  0  0
 39 68  1  0  0  0  0
 42 69  1  0  0  0  0
 42 70  1  0  0  0  0
 42 71  1  0  0  0  0
 43 72  1  0  0  0  0
M  CHG  1  22   1
M  CHG  1  23  -1
M  END
