
  xtb     03022213383D
 energy: -136.409608448140 gnorm: 0.000135608131 xtb: 6.4.1 (afa7bdf)
 76 82  0     0  0            999 V2000
    4.9216    3.6367   -0.7603 C   0  0  0  0  0  0  0  0  0  0  0  0
    5.7946    2.4617   -0.5087 C   0  0  0  0  0  0  0  0  0  0  0  0
    5.4723    1.1492   -0.5297 C   0  0  0  0  0  0  0  0  0  0  0  0
    6.5714    0.2778   -0.2504 C   0  0  0  0  0  0  0  0  0  0  0  0
    6.4016   -1.1579   -0.2294 C   0  0  0  0  0  0  0  0  0  0  0  0
    5.2775   -1.8243    0.1144 C   0  0  0  0  0  0  0  0  0  0  0  0
    4.0754   -1.2588    0.7184 C   0  0  0  0  0  0  0  0  0  0  0  0
    4.1122   -0.6143    1.9284 C   0  0  0  0  0  0  0  0  0  0  0  0
    5.2837   -0.3838    2.8132 C   0  0  0  0  0  0  0  0  0  0  0  0
    2.5470   -0.0494    2.3703 S   0  0  0  0  0  0  0  0  0  0  0  0
    1.8376   -0.6788    0.9058 C   0  0  0  0  0  0  0  0  0  0  0  0
    0.4199   -0.4787    0.6685 C   0  0  0  0  0  0  0  0  0  0  0  0
   -0.2072    0.6906    1.1100 C   0  0  0  0  0  0  0  0  0  0  0  0
   -1.5482    0.8983    0.8900 C   0  0  0  0  0  0  0  0  0  0  0  0
   -2.3184   -0.0611    0.2255 C   0  0  0  0  0  0  0  0  0  0  0  0
   -3.7230    0.2014    0.0169 C   0  0  0  0  0  0  0  0  0  0  0  0
   -4.3427    1.2968    0.3987 N   0  0  0  0  0  0  0  0  0  0  0  0
   -5.6425    1.1728    0.0299 C   0  0  0  0  0  0  0  0  0  0  0  0
   -6.5819    2.2604    0.2657 C   0  0  0  0  0  0  0  0  0  0  0  0
   -6.3909    3.0953    1.3651 C   0  0  0  0  0  0  0  0  0  0  0  0
   -7.2592    4.1419    1.6080 C   0  0  0  0  0  0  0  0  0  0  0  0
   -8.3249    4.3745    0.7539 C   0  0  0  0  0  0  0  0  0  0  0  0
   -8.5096    3.5613   -0.3525 C   0  0  0  0  0  0  0  0  0  0  0  0
   -7.6440    2.5128   -0.6003 C   0  0  0  0  0  0  0  0  0  0  0  0
   -5.8321   -0.0551   -0.5964 C   0  0  0  0  0  0  0  0  0  0  0  0
   -7.0056   -0.7332   -1.1158 C   0  0  0  0  0  0  0  0  0  0  0  0
   -8.2417   -0.6032   -0.4809 C   0  0  0  0  0  0  0  0  0  0  0  0
   -9.3501   -1.2663   -0.9691 C   0  0  0  0  0  0  0  0  0  0  0  0
   -9.2461   -2.0724   -2.0920 C   0  0  0  0  0  0  0  0  0  0  0  0
   -8.0228   -2.2132   -2.7252 C   0  0  0  0  0  0  0  0  0  0  0  0
   -6.9094   -1.5523   -2.2414 C   0  0  0  0  0  0  0  0  0  0  0  0
   -4.5950   -0.6440   -0.6037 N   0  0  0  0  0  0  0  0  0  0  0  0
   -1.6995   -1.2382   -0.1978 C   0  0  0  0  0  0  0  0  0  0  0  0
   -0.3536   -1.4442    0.0220 C   0  0  0  0  0  0  0  0  0  0  0  0
    2.7778   -1.2987    0.1255 C   0  0  0  0  0  0  0  0  0  0  0  0
    2.5383   -1.8360   -1.2482 C   0  0  0  0  0  0  0  0  0  0  0  0
    5.4677   -3.3140   -0.0363 C   0  0  0  0  0  0  0  0  0  0  0  0
    5.8101   -3.8836    1.1549 F   0  0  0  0  0  0  0  0  0  0  0  0
    4.3928   -4.0046   -0.4634 F   0  0  0  0  0  0  0  0  0  0  0  0
    6.6612   -3.4068   -1.0196 C   0  0  0  0  0  0  0  0  0  0  0  0
    7.3697   -4.5414   -0.9352 F   0  0  0  0  0  0  0  0  0  0  0  0
    6.1978   -3.3214   -2.2891 F   0  0  0  0  0  0  0  0  0  0  0  0
    7.4704   -2.1266   -0.6783 C   0  0  0  0  0  0  0  0  0  0  0  0
    8.3619   -2.4211    0.3067 F   0  0  0  0  0  0  0  0  0  0  0  0
    8.2061   -1.6957   -1.7249 F   0  0  0  0  0  0  0  0  0  0  0  0
    7.7390    0.9673   -0.0158 C   0  0  0  0  0  0  0  0  0  0  0  0
    9.0910    0.4715    0.3507 C   0  0  0  0  0  0  0  0  0  0  0  0
    7.4782    2.6707   -0.1229 S   0  0  0  0  0  0  0  0  0  0  0  0
    4.8864    4.2835    0.1157 H   0  0  0  0  0  0  0  0  0  0  0  0
    5.3001    4.2261   -1.5945 H   0  0  0  0  0  0  0  0  0  0  0  0
    3.9130    3.3040   -0.9922 H   0  0  0  0  0  0  0  0  0  0  0  0
    4.4893    0.7880   -0.7669 H   0  0  0  0  0  0  0  0  0  0  0  0
    5.7957    0.5383    2.5321 H   0  0  0  0  0  0  0  0  0  0  0  0
    4.9640   -0.2932    3.8484 H   0  0  0  0  0  0  0  0  0  0  0  0
    5.9934   -1.2046    2.7291 H   0  0  0  0  0  0  0  0  0  0  0  0
    0.3790    1.4388    1.6241 H   0  0  0  0  0  0  0  0  0  0  0  0
   -2.0362    1.8009    1.2205 H   0  0  0  0  0  0  0  0  0  0  0  0
   -5.5535    2.9049    2.0184 H   0  0  0  0  0  0  0  0  0  0  0  0
   -7.1062    4.7802    2.4662 H   0  0  0  0  0  0  0  0  0  0  0  0
   -9.0058    5.1911    0.9450 H   0  0  0  0  0  0  0  0  0  0  0  0
   -9.3308    3.7486   -1.0294 H   0  0  0  0  0  0  0  0  0  0  0  0
   -7.7829    1.8933   -1.4743 H   0  0  0  0  0  0  0  0  0  0  0  0
   -8.3199    0.0154    0.4003 H   0  0  0  0  0  0  0  0  0  0  0  0
  -10.3009   -1.1583   -0.4685 H   0  0  0  0  0  0  0  0  0  0  0  0
  -10.1149   -2.5890   -2.4716 H   0  0  0  0  0  0  0  0  0  0  0  0
   -7.9357   -2.8386   -3.6017 H   0  0  0  0  0  0  0  0  0  0  0  0
   -5.9634   -1.6518   -2.7561 H   0  0  0  0  0  0  0  0  0  0  0  0
   -4.3989   -1.5643   -0.9606 H   0  0  0  0  0  0  0  0  0  0  0  0
   -2.2669   -2.0106   -0.6973 H   0  0  0  0  0  0  0  0  0  0  0  0
    0.0972   -2.3754   -0.2812 H   0  0  0  0  0  0  0  0  0  0  0  0
    3.4376   -1.7281   -1.8532 H   0  0  0  0  0  0  0  0  0  0  0  0
    1.7210   -1.3011   -1.7274 H   0  0  0  0  0  0  0  0  0  0  0  0
    2.2886   -2.8956   -1.2167 H   0  0  0  0  0  0  0  0  0  0  0  0
    9.7273    1.3063    0.6339 H   0  0  0  0  0  0  0  0  0  0  0  0
    9.5567   -0.0416   -0.4906 H   0  0  0  0  0  0  0  0  0  0  0  0
    9.0387   -0.2284    1.1835 H   0  0  0  0  0  0  0  0  0  0  0  0
  1  2  1  0  0  0  0
  2  3  2  0  0  0  0
  3  4  1  0  0  0  0
  4  5  1  0  0  0  0
  5  6  2  0  0  0  0
  6  7  1  0  0  0  0
  7  8  2  0  0  0  0
  8  9  1  0  0  0  0
  8 10  1  0  0  0  0
 10 11  1  0  0  0  0
 11 12  1  0  0  0  0
 12 13  2  0  0  0  0
 13 14  1  0  0  0  0
 14 15  2  0  0  0  0
 15 16  1  0  0  0  0
 16 17  2  0  0  0  0
 17 18  1  0  0  0  0
 18 19  1  0  0  0  0
 19 20  2  0  0  0  0
 20 21  1  0  0  0  0
 21 22  2  0  0  0  0
 22 23  1  0  0  0  0
 23 24  2  0  0  0  0
 18 25  2  0  0  0  0
 25 26  1  0  0  0  0
 26 27  2  0  0  0  0
 27 28  1  0  0  0  0
 28 29  2  0  0  0  0
 29 30  1  0  0  0  0
 30 31  2  0  0  0  0
 25 32  1  0  0  0  0
 15 33  1  0  0  0  0
 33 34  2  0  0  0  0
 11 35  2  0  0  0  0
 35 36  1  0  0  0  0
  6 37  1  0  0  0  0
 37 38  1  0  0  0  0
 37 39  1  0  0  0  0
 37 40  1  0  0  0  0
 40 41  1  0  0  0  0
 40 42  1  0  0  0  0
 40 43  1  0  0  0  0
 43 44  1  0  0  0  0
 43 45  1  0  0  0  0
  4 46  2  0  0  0  0
 46 47  1  0  0  0  0
 46 48  1  0  0  0  0
 48  2  1  0  0  0  0
 43  5  1  0  0  0  0
 35  7  1  0  0  0  0
 34 12  1  0  0  0  0
 32 16  1  0  0  0  0
 24 19  1  0  0  0  0
 31 26  1  0  0  0  0
  1 49  1  0  0  0  0
  1 50  1  0  0  0  0
  1 51  1  0  0  0  0
  3 52  1  0  0  0  0
  9 53  1  0  0  0  0
  9 54  1  0  0  0  0
  9 55  1  0  0  0  0
 13 56  1  0  0  0  0
 14 57  1  0  0  0  0
 20 58  1  0  0  0  0
 21 59  1  0  0  0  0
 22 60  1  0  0  0  0
 23 61  1  0  0  0  0
 24 62  1  0  0  0  0
 27 63  1  0  0  0  0
 28 64  1  0  0  0  0
 29 65  1  0  0  0  0
 30 66  1  0  0  0  0
 31 67  1  0  0  0  0
 32 68  1  0  0  0  0
 33 69  1  0  0  0  0
 34 70  1  0  0  0  0
 36 71  1  0  0  0  0
 36 72  1  0  0  0  0
 36 73  1  0  0  0  0
 47 74  1  0  0  0  0
 47 75  1  0  0  0  0
 47 76  1  0  0  0  0
M  END
