
  xtb     03022215023D
 energy: -81.399487088278 gnorm: 0.000181028228 xtb: 6.4.1 (afa7bdf)
 46 48  0     0  0            999 V2000
   -5.8611    1.0077   -1.7114 C   0  0  0  0  0  0  0  0  0  0  0  0
   -5.3041    1.1933   -0.2994 C   0  0  0  0  0  0  0  0  0  0  0  0
   -4.5653    0.0346    0.1566 N   0  0  0  0  0  0  0  0  0  0  0  0
   -5.3392   -0.9470    0.8876 C   0  0  0  0  0  0  0  0  0  0  0  0
   -5.3340   -0.6867    2.3943 C   0  0  0  0  0  0  0  0  0  0  0  0
   -3.2357   -0.1123   -0.0668 C   0  0  0  0  0  0  0  0  0  0  0  0
   -2.5283    0.7756   -0.9120 C   0  0  0  0  0  0  0  0  0  0  0  0
   -1.1879    0.6352   -1.1338 C   0  0  0  0  0  0  0  0  0  0  0  0
   -0.4619   -0.4083   -0.5255 C   0  0  0  0  0  0  0  0  0  0  0  0
    0.8685   -0.6005   -0.6360 N   0  0  0  0  0  0  0  0  0  0  0  0
    1.5572    0.1152   -1.4311 N   0  0  0  0  0  0  0  0  0  0  0  0
    2.9055    0.0708   -1.3136 C   0  0  0  0  0  0  0  0  0  0  0  0
    3.7051    0.3578   -2.4347 C   0  0  0  0  0  0  0  0  0  0  0  0
    5.0696    0.4031   -2.3246 C   0  0  0  0  0  0  0  0  0  0  0  0
    5.6949    0.2178   -1.0862 C   0  0  0  0  0  0  0  0  0  0  0  0
    7.1616    0.2680   -1.0218 C   0  0  0  0  0  0  0  0  0  0  0  0
    7.9046    0.4383   -1.9685 O   0  0  0  0  0  0  0  0  0  0  0  0
    7.6748    0.0797    0.2285 N   0  0  0  0  0  0  0  0  0  0  0  0
    6.9075   -0.0972    1.3696 N   0  0  0  0  0  0  0  0  0  0  0  0
    5.5456   -0.1006    1.3944 C   0  0  0  0  0  0  0  0  0  0  0  0
    4.9518   -0.1402    2.4506 O   0  0  0  0  0  0  0  0  0  0  0  0
    4.9187   -0.0250    0.0573 C   0  0  0  0  0  0  0  0  0  0  0  0
    3.5381   -0.1286   -0.0640 C   0  0  0  0  0  0  0  0  0  0  0  0
    2.7087   -0.4352    1.0890 N   0  0  0  0  0  4  0  0  0  0  0  0
    2.0539    0.4754    1.5487 O   0  0  0  0  0  0  0  0  0  0  0  0
    2.7272   -1.5769    1.4834 O   0  0  0  0  0  1  0  0  0  0  0  0
   -1.1553   -1.2998    0.3128 C   0  0  0  0  0  0  0  0  0  0  0  0
   -2.4967   -1.1569    0.5342 C   0  0  0  0  0  0  0  0  0  0  0  0
   -6.5291    0.1503   -1.7472 H   0  0  0  0  0  0  0  0  0  0  0  0
   -6.4173    1.8920   -2.0103 H   0  0  0  0  0  0  0  0  0  0  0  0
   -5.0574    0.8416   -2.4238 H   0  0  0  0  0  0  0  0  0  0  0  0
   -6.1310    1.3575    0.3963 H   0  0  0  0  0  0  0  0  0  0  0  0
   -4.6655    2.0779   -0.2567 H   0  0  0  0  0  0  0  0  0  0  0  0
   -6.3665   -0.9055    0.5159 H   0  0  0  0  0  0  0  0  0  0  0  0
   -4.9579   -1.9477    0.6744 H   0  0  0  0  0  0  0  0  0  0  0  0
   -4.3208   -0.7137    2.7859 H   0  0  0  0  0  0  0  0  0  0  0  0
   -5.7568    0.2909    2.6136 H   0  0  0  0  0  0  0  0  0  0  0  0
   -5.9270   -1.4417    2.9032 H   0  0  0  0  0  0  0  0  0  0  0  0
   -3.0448    1.5815   -1.4071 H   0  0  0  0  0  0  0  0  0  0  0  0
   -0.6589    1.3209   -1.7785 H   0  0  0  0  0  0  0  0  0  0  0  0
    3.2126    0.5163   -3.3809 H   0  0  0  0  0  0  0  0  0  0  0  0
    5.6990    0.5919   -3.1806 H   0  0  0  0  0  0  0  0  0  0  0  0
    8.6789    0.0528    0.3398 H   0  0  0  0  0  0  0  0  0  0  0  0
    7.3926   -0.0829    2.2570 H   0  0  0  0  0  0  0  0  0  0  0  0
   -0.5952   -2.0879    0.7913 H   0  0  0  0  0  0  0  0  0  0  0  0
   -2.9790   -1.8511    1.2015 H   0  0  0  0  0  0  0  0  0  0  0  0
  1  2  1  0  0  0  0
  2  3  1  0  0  0  0
  3  4  1  0  0  0  0
  4  5  1  0  0  0  0
  3  6  1  0  0  0  0
  6  7  2  0  0  0  0
  7  8  1  0  0  0  0
  8  9  2  0  0  0  0
  9 10  1  0  0  0  0
 10 11  2  0  0  0  0
 11 12  1  0  0  0  0
 12 13  2  0  0  0  0
 13 14  1  0  0  0  0
 14 15  2  0  0  0  0
 15 16  1  0  0  0  0
 16 17  2  0  0  0  0
 16 18  1  0  0  0  0
 18 19  1  0  0  0  0
 19 20  1  0  0  0  0
 20 21  2  0  0  0  0
 20 22  1  0  0  0  0
 22 23  2  0  0  0  0
 23 24  1  0  0  0  0
 24 25  2  0  0  0  0
 24 26  1  0  0  0  0
  9 27  1  0  0  0  0
 27 28  2  0  0  0  0
 28  6  1  0  0  0  0
 23 12  1  0  0  0  0
 22 15  1  0  0  0  0
  1 29  1  0  0  0  0
  1 30  1  0  0  0  0
  1 31  1  0  0  0  0
  2 32  1  0  0  0  0
  2 33  1  0  0  0  0
  4 34  1  0  0  0  0
  4 35  1  0  0  0  0
  5 36  1  0  0  0  0
  5 37  1  0  0  0  0
  5 38  1  0  0  0  0
  7 39  1  0  0  0  0
  8 40  1  0  0  0  0
 13 41  1  0  0  0  0
 14 42  1  0  0  0  0
 18 43  1  0  0  0  0
 19 44  1  0  0  0  0
 27 45  1  0  0  0  0
 28 46  1  0  0  0  0
M  CHG  1  24   1
M  CHG  1  26  -1
M  END
