
  xtb     03022213133D
 energy: -70.453401739042 gnorm: 0.000133948596 xtb: 6.4.1 (afa7bdf)
 47 52  0     0  0            999 V2000
   -3.0981   -3.2412    0.6390 C   0  0  0  0  0  0  0  0  0  0  0  0
   -1.7315   -3.3240    0.8384 C   0  0  0  0  0  0  0  0  0  0  0  0
   -0.9246   -2.2319    0.5889 C   0  0  0  0  0  0  0  0  0  0  0  0
   -1.4710   -1.0304    0.1331 C   0  0  0  0  0  0  0  0  0  0  0  0
   -2.8517   -0.9443   -0.0691 C   0  0  0  0  0  0  0  0  0  0  0  0
   -3.6429   -2.0520    0.1872 C   0  0  0  0  0  0  0  0  0  0  0  0
   -3.4944    0.3243   -0.5572 C   0  0  0  0  0  0  0  0  0  0  0  0
   -2.5162    1.4405   -0.7979 C   0  0  0  0  0  0  0  0  0  0  0  0
   -2.9796    2.6637   -1.2537 C   0  0  0  0  0  0  0  0  0  0  0  0
   -2.1186    3.7214   -1.4887 C   0  0  0  0  0  0  0  0  0  0  0  0
   -0.7643    3.5514   -1.2626 C   0  0  0  0  0  0  0  0  0  0  0  0
   -0.2814    2.3404   -0.8084 C   0  0  0  0  0  0  0  0  0  0  0  0
   -1.1473    1.2712   -0.5702 C   0  0  0  0  0  0  0  0  0  0  0  0
   -0.6496    0.0595   -0.1144 N   0  0  0  0  0  0  0  0  0  0  0  0
    0.7485   -0.0674    0.1169 C   0  0  0  0  0  0  0  0  0  0  0  0
    1.2645    0.2448    1.3812 C   0  0  0  0  0  0  0  0  0  0  0  0
    0.4387    0.6882    2.4457 C   0  0  0  0  0  0  0  0  0  0  0  0
    0.9712    0.9825    3.6630 C   0  0  0  0  0  0  0  0  0  0  0  0
    2.3574    0.8523    3.8906 C   0  0  0  0  0  0  0  0  0  0  0  0
    3.1815    0.4301    2.8936 C   0  0  0  0  0  0  0  0  0  0  0  0
    2.6696    0.1125    1.6093 C   0  0  0  0  0  0  0  0  0  0  0  0
    3.4929   -0.3220    0.5747 C   0  0  0  0  0  0  0  0  0  0  0  0
    2.9828   -0.6325   -0.6825 C   0  0  0  0  0  0  0  0  0  0  0  0
    3.8150   -1.0766   -1.7419 C   0  0  0  0  0  0  0  0  0  0  0  0
    3.2940   -1.3753   -2.9628 C   0  0  0  0  0  0  0  0  0  0  0  0
    1.9088   -1.2475   -3.1980 C   0  0  0  0  0  0  0  0  0  0  0  0
    1.0747   -0.8248   -2.2091 C   0  0  0  0  0  0  0  0  0  0  0  0
    1.5793   -0.5041   -0.9229 C   0  0  0  0  0  0  0  0  0  0  0  0
   -3.7336   -4.0918    0.8325 H   0  0  0  0  0  0  0  0  0  0  0  0
   -1.2868   -4.2430    1.1905 H   0  0  0  0  0  0  0  0  0  0  0  0
    0.1405   -2.3072    0.7478 H   0  0  0  0  0  0  0  0  0  0  0  0
   -4.7096   -1.9751    0.0279 H   0  0  0  0  0  0  0  0  0  0  0  0
   -4.0418    0.1175   -1.4858 H   0  0  0  0  0  0  0  0  0  0  0  0
   -4.2442    0.6531    0.1739 H   0  0  0  0  0  0  0  0  0  0  0  0
   -4.0401    2.7845   -1.4265 H   0  0  0  0  0  0  0  0  0  0  0  0
   -2.5017    4.6659   -1.8436 H   0  0  0  0  0  0  0  0  0  0  0  0
   -0.0760    4.3645   -1.4399 H   0  0  0  0  0  0  0  0  0  0  0  0
    0.7772    2.2182   -0.6353 H   0  0  0  0  0  0  0  0  0  0  0  0
   -0.6225    0.7884    2.2730 H   0  0  0  0  0  0  0  0  0  0  0  0
    0.3353    1.3195    4.4683 H   0  0  0  0  0  0  0  0  0  0  0  0
    2.7555    1.0919    4.8657 H   0  0  0  0  0  0  0  0  0  0  0  0
    4.2444    0.3278    3.0596 H   0  0  0  0  0  0  0  0  0  0  0  0
    4.5548   -0.4211    0.7520 H   0  0  0  0  0  0  0  0  0  0  0  0
    4.8748   -1.1717   -1.5536 H   0  0  0  0  0  0  0  0  0  0  0  0
    3.9348   -1.7131   -3.7640 H   0  0  0  0  0  0  0  0  0  0  0  0
    1.5165   -1.4898   -4.1746 H   0  0  0  0  0  0  0  0  0  0  0  0
    0.0147   -0.7272   -2.3901 H   0  0  0  0  0  0  0  0  0  0  0  0
  1  2  2  0  0  0  0
  2  3  1  0  0  0  0
  3  4  2  0  0  0  0
  4  5  1  0  0  0  0
  5  6  2  0  0  0  0
  5  7  1  0  0  0  0
  7  8  1  0  0  0  0
  8  9  2  0  0  0  0
  9 10  1  0  0  0  0
 10 11  2  0  0  0  0
 11 12  1  0  0  0  0
 12 13  2  0  0  0  0
 13 14  1  0  0  0  0
 14 15  1  0  0  0  0
 15 16  1  0  0  0  0
 16 17  2  0  0  0  0
 17 18  1  0  0  0  0
 18 19  2  0  0  0  0
 19 20  1  0  0  0  0
 20 21  2  0  0  0  0
 21 22  1  0  0  0  0
 22 23  2  0  0  0  0
 23 24  1  0  0  0  0
 24 25  2  0  0  0  0
 25 26  1  0  0  0  0
 26 27  2  0  0  0  0
 27 28  1  0  0  0  0
  6  1  1  0  0  0  0
 13  8  1  0  0  0  0
 28 15  2  0  0  0  0
 14  4  1  0  0  0  0
 21 16  1  0  0  0  0
 28 23  1  0  0  0  0
  1 29  1  0  0  0  0
  2 30  1  0  0  0  0
  3 31  1  0  0  0  0
  6 32  1  0  0  0  0
  7 33  1  0  0  0  0
  7 34  1  0  0  0  0
  9 35  1  0  0  0  0
 10 36  1  0  0  0  0
 11 37  1  0  0  0  0
 12 38  1  0  0  0  0
 17 39  1  0  0  0  0
 18 40  1  0  0  0  0
 19 41  1  0  0  0  0
 20 42  1  0  0  0  0
 22 43  1  0  0  0  0
 24 44  1  0  0  0  0
 25 45  1  0  0  0  0
 26 46  1  0  0  0  0
 27 47  1  0  0  0  0
M  END
