
  xtb     03022213143D
 energy: -53.841684191914 gnorm: 0.000234083851 xtb: 6.4.1 (afa7bdf)
 31 33  0     0  0            999 V2000
   -3.4371    1.3204   -0.4381 C   0  0  0  0  0  0  0  0  0  0  0  0
   -2.7734   -0.0013   -0.1620 C   0  0  0  0  0  0  0  0  0  0  0  0
   -3.5844   -1.1225   -0.2092 C   0  0  0  0  0  0  0  0  0  0  0  0
   -3.1006   -2.4236   -0.0980 C   0  0  0  0  0  0  0  0  0  0  0  0
   -1.7508   -2.6254    0.0021 C   0  0  0  0  0  0  0  0  0  0  0  0
   -0.8860   -1.5233    0.0629 C   0  0  0  0  0  0  0  0  0  0  0  0
    0.4369   -1.7992    0.1083 N   0  0  0  0  0  0  0  0  0  0  0  0
    1.2783   -0.8223    0.1334 C   0  0  0  0  0  0  0  0  0  0  0  0
    2.7371   -1.1060    0.1255 C   0  0  0  0  0  0  0  0  0  0  0  0
    3.1980   -2.2180   -0.0082 O   0  0  0  0  0  0  0  0  0  0  0  0
    3.5209    0.0097    0.2717 N   0  0  0  0  0  0  0  0  0  0  0  0
    4.9603   -0.1780    0.2779 C   0  0  0  0  0  0  0  0  0  0  0  0
    3.0457    1.3345    0.4320 C   0  0  0  0  0  0  0  0  0  0  0  0
    3.8333    2.2373    0.5788 O   0  0  0  0  0  0  0  0  0  0  0  0
    1.7030    1.5414    0.4080 N   0  0  0  0  0  0  0  0  0  0  0  0
    0.8698    0.5562    0.2472 C   0  0  0  0  0  0  0  0  0  0  0  0
   -0.4711    0.8225    0.2599 N   0  0  0  0  0  0  0  0  0  0  0  0
   -0.8323    2.1778    0.6227 C   0  0  0  0  0  0  0  0  0  0  0  0
   -1.3891   -0.1868    0.0577 C   0  0  0  0  0  0  0  0  0  0  0  0
   -2.8401    1.9335   -1.1057 H   0  0  0  0  0  0  0  0  0  0  0  0
   -4.3936    1.1386   -0.9227 H   0  0  0  0  0  0  0  0  0  0  0  0
   -3.6383    1.8817    0.4722 H   0  0  0  0  0  0  0  0  0  0  0  0
   -4.6442   -0.9780   -0.3602 H   0  0  0  0  0  0  0  0  0  0  0  0
   -3.7852   -3.2562   -0.1319 H   0  0  0  0  0  0  0  0  0  0  0  0
   -1.3056   -3.6061    0.0243 H   0  0  0  0  0  0  0  0  0  0  0  0
    5.4268    0.7157   -0.1310 H   0  0  0  0  0  0  0  0  0  0  0  0
    5.3158   -0.3318    1.2979 H   0  0  0  0  0  0  0  0  0  0  0  0
    5.1961   -1.0550   -0.3216 H   0  0  0  0  0  0  0  0  0  0  0  0
   -1.6831    2.1699    1.2967 H   0  0  0  0  0  0  0  0  0  0  0  0
    0.0366    2.6096    1.1196 H   0  0  0  0  0  0  0  0  0  0  0  0
   -1.0434    2.7852   -0.2556 H   0  0  0  0  0  0  0  0  0  0  0  0
  1  2  1  0  0  0  0
  2  3  2  0  0  0  0
  3  4  1  0  0  0  0
  4  5  2  0  0  0  0
  5  6  1  0  0  0  0
  6  7  1  0  0  0  0
  7  8  2  0  0  0  0
  8  9  1  0  0  0  0
  9 10  2  0  0  0  0
  9 11  1  0  0  0  0
 11 12  1  0  0  0  0
 11 13  1  0  0  0  0
 13 14  2  0  0  0  0
 13 15  1  0  0  0  0
 15 16  2  0  0  0  0
 16 17  1  0  0  0  0
 17 18  1  0  0  0  0
 17 19  1  0  0  0  0
 19  2  1  0  0  0  0
 19  6  2  0  0  0  0
 16  8  1  0  0  0  0
  1 20  1  0  0  0  0
  1 21  1  0  0  0  0
  1 22  1  0  0  0  0
  3 23  1  0  0  0  0
  4 24  1  0  0  0  0
  5 25  1  0  0  0  0
 12 26  1  0  0  0  0
 12 27  1  0  0  0  0
 12 28  1  0  0  0  0
 18 29  1  0  0  0  0
 18 30  1  0  0  0  0
 18 31  1  0  0  0  0
M  END
