
  xtb     03022212563D
 energy: -82.869465776847 gnorm: 0.000204108330 xtb: 6.4.1 (afa7bdf)
 56 59  0     0  0            999 V2000
   -3.4111   -3.1341    2.3877 C   0  0  0  0  0  0  0  0  0  0  0  0
   -2.8670   -3.1371    0.9637 C   0  0  0  0  0  0  0  0  0  0  0  0
   -3.2005   -1.8583    0.1957 C   0  0  0  0  0  0  0  0  0  0  0  0
   -2.4637   -0.6422    0.7690 C   0  0  0  0  0  0  0  0  0  0  0  0
   -2.6976    0.5369   -0.0468 N   0  0  0  0  0  0  0  0  0  0  0  0
   -1.6785    1.0515   -0.8152 C   0  0  0  0  0  0  0  0  0  0  0  0
   -0.3327    0.9527   -0.4971 C   0  0  0  0  0  0  0  0  0  0  0  0
    0.2521    0.7899    0.7629 C   0  0  0  0  0  0  0  0  0  0  0  0
    1.5912    0.6715    1.1990 C   0  0  0  0  0  0  0  0  0  0  0  0
    2.8525    0.4230    0.5882 C   0  0  0  0  0  0  0  0  0  0  0  0
    2.9926    0.0082   -0.7442 C   0  0  0  0  0  0  0  0  0  0  0  0
    4.2298   -0.2236   -1.2935 C   0  0  0  0  0  0  0  0  0  0  0  0
    5.4068   -0.0507   -0.5430 C   0  0  0  0  0  0  0  0  0  0  0  0
    6.6385   -0.2663   -1.0925 N   0  0  0  0  0  0  0  0  0  0  0  0
    7.8219   -0.2639   -0.2684 C   0  0  0  0  0  0  0  0  0  0  0  0
    6.7829   -0.5310   -2.5019 C   0  0  0  0  0  0  0  0  0  0  0  0
    5.2636    0.3471    0.7991 C   0  0  0  0  0  0  0  0  0  0  0  0
    4.0259    0.5706    1.3461 C   0  0  0  0  0  0  0  0  0  0  0  0
    1.2285    0.9003    2.6023 C   0  0  0  0  0  0  0  0  0  0  0  0
    1.8236    1.0155    3.6497 O   0  0  0  0  0  0  0  0  0  0  0  0
   -0.2255    0.9908    2.1563 C   0  0  0  0  0  0  0  0  0  0  0  0
   -1.2981    1.1692    2.6834 O   0  0  0  0  0  0  0  0  0  0  0  0
   -2.0474    1.7184   -2.0283 C   0  0  0  0  0  0  0  0  0  0  0  0
   -3.3286    2.0437   -2.2927 C   0  0  0  0  0  0  0  0  0  0  0  0
   -4.3459    1.7506   -1.3328 C   0  0  0  0  0  0  0  0  0  0  0  0
   -5.6624    2.1910   -1.4934 C   0  0  0  0  0  0  0  0  0  0  0  0
   -6.6229    1.8972   -0.5534 C   0  0  0  0  0  0  0  0  0  0  0  0
   -6.2718    1.1610    0.5736 C   0  0  0  0  0  0  0  0  0  0  0  0
   -4.9835    0.7047    0.7492 C   0  0  0  0  0  0  0  0  0  0  0  0
   -3.9926    0.9827   -0.2004 C   0  0  0  0  0  0  0  0  0  0  0  0
   -2.9281   -2.3705    2.9912 H   0  0  0  0  0  0  0  0  0  0  0  0
   -3.2316   -4.0973    2.8593 H   0  0  0  0  0  0  0  0  0  0  0  0
   -4.4835   -2.9503    2.3853 H   0  0  0  0  0  0  0  0  0  0  0  0
   -1.7836   -3.2732    0.9890 H   0  0  0  0  0  0  0  0  0  0  0  0
   -3.2941   -3.9848    0.4229 H   0  0  0  0  0  0  0  0  0  0  0  0
   -4.2795   -1.6973    0.2141 H   0  0  0  0  0  0  0  0  0  0  0  0
   -2.9020   -1.9793   -0.8496 H   0  0  0  0  0  0  0  0  0  0  0  0
   -1.3962   -0.8568    0.7589 H   0  0  0  0  0  0  0  0  0  0  0  0
   -2.7520   -0.4490    1.8017 H   0  0  0  0  0  0  0  0  0  0  0  0
    0.3533    1.1721   -1.3055 H   0  0  0  0  0  0  0  0  0  0  0  0
    2.1117   -0.1628   -1.3439 H   0  0  0  0  0  0  0  0  0  0  0  0
    4.2831   -0.5622   -2.3157 H   0  0  0  0  0  0  0  0  0  0  0  0
    8.0697    0.7457    0.0771 H   0  0  0  0  0  0  0  0  0  0  0  0
    7.6886   -0.9081    0.6041 H   0  0  0  0  0  0  0  0  0  0  0  0
    8.6639   -0.6449   -0.8418 H   0  0  0  0  0  0  0  0  0  0  0  0
    7.8320   -0.4566   -2.7790 H   0  0  0  0  0  0  0  0  0  0  0  0
    6.2272    0.2024   -3.0907 H   0  0  0  0  0  0  0  0  0  0  0  0
    6.4274   -1.5338   -2.7658 H   0  0  0  0  0  0  0  0  0  0  0  0
    6.1337    0.4935    1.4175 H   0  0  0  0  0  0  0  0  0  0  0  0
    3.9402    0.8771    2.3770 H   0  0  0  0  0  0  0  0  0  0  0  0
   -1.2524    1.9863   -2.7073 H   0  0  0  0  0  0  0  0  0  0  0  0
   -3.6042    2.5570   -3.2017 H   0  0  0  0  0  0  0  0  0  0  0  0
   -5.9101    2.7726   -2.3694 H   0  0  0  0  0  0  0  0  0  0  0  0
   -7.6375    2.2415   -0.6818 H   0  0  0  0  0  0  0  0  0  0  0  0
   -7.0156    0.9468    1.3264 H   0  0  0  0  0  0  0  0  0  0  0  0
   -4.7402    0.1627    1.6473 H   0  0  0  0  0  0  0  0  0  0  0  0
  1  2  1  0  0  0  0
  2  3  1  0  0  0  0
  3  4  1  0  0  0  0
  4  5  1  0  0  0  0
  5  6  1  0  0  0  0
  6  7  2  0  0  0  0
  7  8  1  0  0  0  0
  8  9  2  0  0  0  0
  9 10  1  0  0  0  0
 10 11  2  0  0  0  0
 11 12  1  0  0  0  0
 12 13  2  0  0  0  0
 13 14  1  0  0  0  0
 14 15  1  0  0  0  0
 14 16  1  0  0  0  0
 13 17  1  0  0  0  0
 17 18  2  0  0  0  0
  9 19  1  0  0  0  0
 19 20  2  0  0  0  0
 19 21  1  0  0  0  0
 21 22  2  0  0  0  0
  6 23  1  0  0  0  0
 23 24  2  0  0  0  0
 24 25  1  0  0  0  0
 25 26  2  0  0  0  0
 26 27  1  0  0  0  0
 27 28  2  0  0  0  0
 28 29  1  0  0  0  0
 29 30  2  0  0  0  0
 30  5  1  0  0  0  0
 21  8  1  0  0  0  0
 30 25  1  0  0  0  0
 18 10  1  0  0  0  0
  1 31  1  0  0  0  0
  1 32  1  0  0  0  0
  1 33  1  0  0  0  0
  2 34  1  0  0  0  0
  2 35  1  0  0  0  0
  3 36  1  0  0  0  0
  3 37  1  0  0  0  0
  4 38  1  0  0  0  0
  4 39  1  0  0  0  0
  7 40  1  0  0  0  0
 11 41  1  0  0  0  0
 12 42  1  0  0  0  0
 15 43  1  0  0  0  0
 15 44  1  0  0  0  0
 15 45  1  0  0  0  0
 16 46  1  0  0  0  0
 16 47  1  0  0  0  0
 16 48  1  0  0  0  0
 17 49  1  0  0  0  0
 18 50  1  0  0  0  0
 23 51  1  0  0  0  0
 24 52  1  0  0  0  0
 26 53  1  0  0  0  0
 27 54  1  0  0  0  0
 28 55  1  0  0  0  0
 29 56  1  0  0  0  0
M  END
