
  xtb     03022214593D
 energy: -89.897262360035 gnorm: 0.000137724953 xtb: 6.4.1 (afa7bdf)
 54 57  0     0  0            999 V2000
    5.0164    3.7644   -2.3169 C   0  0  0  0  0  0  0  0  0  0  0  0
    4.2323    2.6153   -2.0969 O   0  0  0  0  0  0  0  0  0  0  0  0
    4.4719    1.8622   -0.9942 C   0  0  0  0  0  0  0  0  0  0  0  0
    5.4509    2.1270   -0.0407 C   0  0  0  0  0  0  0  0  0  0  0  0
    5.5984    1.2782    1.0448 C   0  0  0  0  0  0  0  0  0  0  0  0
    4.7963    0.1653    1.1944 C   0  0  0  0  0  0  0  0  0  0  0  0
    3.8081   -0.1062    0.2462 C   0  0  0  0  0  0  0  0  0  0  0  0
    2.9390   -1.2770    0.3984 C   0  0  0  0  0  0  0  0  0  0  0  0
    1.5479   -1.1309    0.3463 C   0  0  0  0  0  0  0  0  0  0  0  0
    0.7499    0.0184    0.1955 C   0  0  0  0  0  0  0  0  0  0  0  0
   -0.5803   -0.3912    0.2328 C   0  0  0  0  0  0  0  0  0  0  0  0
   -1.7336    0.4544    0.1080 C   0  0  0  0  0  0  0  0  0  0  0  0
   -3.0114    0.0550    0.1440 C   0  0  0  0  0  0  0  0  0  0  0  0
   -4.1037    1.0327   -0.0010 C   0  0  0  0  0  0  0  0  0  0  0  0
   -3.9379    2.2204   -0.1636 O   0  0  0  0  0  0  0  0  0  0  0  0
   -5.2837    0.4132    0.0729 O   0  0  0  0  0  0  0  0  0  0  0  0
   -6.5286    1.1426   -0.0422 C   0  0  0  0  0  0  0  0  0  0  0  0
   -7.6065    0.0673    0.1002 C   0  0  0  0  0  0  0  0  0  0  0  0
   -6.6204    1.8157   -1.4117 C   0  0  0  0  0  0  0  0  0  0  0  0
   -6.6451    2.1705    1.0834 C   0  0  0  0  0  0  0  0  0  0  0  0
   -0.5473   -1.7914    0.4185 C   0  0  0  0  0  0  0  0  0  0  0  0
    0.7041   -2.2161    0.4876 N   0  0  0  0  0  4  0  0  0  0  0  0
    1.1601   -3.6746    0.7464 B   0  0  0  0  0  4  0  0  0  0  0  0
    0.6708   -4.1026    1.9602 F   0  0  0  0  0  0  0  0  0  0  0  0
    0.7107   -4.4941   -0.2636 F   0  0  0  0  0  0  0  0  0  0  0  0
    2.7051   -3.6609    0.7681 N   0  0  0  0  0  0  0  0  0  0  0  0
    3.4998   -4.7161    0.9076 C   0  0  0  0  0  0  0  0  0  0  0  0
    4.8405   -4.3228    0.8294 C   0  0  0  0  0  0  0  0  0  0  0  0
    4.8457   -2.9598    0.6315 C   0  0  0  0  0  0  0  0  0  0  0  0
    3.4932   -2.5423    0.6014 C   0  0  0  0  0  0  0  0  0  0  0  0
    3.6504    0.7454   -0.8376 C   0  0  0  0  0  0  0  0  0  0  0  0
    6.0751    3.5123   -2.4332 H   0  0  0  0  0  0  0  0  0  0  0  0
    4.9003    4.4910   -1.5066 H   0  0  0  0  0  0  0  0  0  0  0  0
    4.6464    4.1983   -3.2441 H   0  0  0  0  0  0  0  0  0  0  0  0
    6.0988    2.9839   -0.1314 H   0  0  0  0  0  0  0  0  0  0  0  0
    6.3564    1.4947    1.7826 H   0  0  0  0  0  0  0  0  0  0  0  0
    4.9042   -0.4776    2.0537 H   0  0  0  0  0  0  0  0  0  0  0  0
    1.1096    1.0222    0.0859 H   0  0  0  0  0  0  0  0  0  0  0  0
   -1.5395    1.5113   -0.0295 H   0  0  0  0  0  0  0  0  0  0  0  0
   -3.3066   -0.9731    0.2768 H   0  0  0  0  0  0  0  0  0  0  0  0
   -8.5926    0.5164    0.0276 H   0  0  0  0  0  0  0  0  0  0  0  0
   -7.5120   -0.4293    1.0623 H   0  0  0  0  0  0  0  0  0  0  0  0
   -7.4961   -0.6769   -0.6840 H   0  0  0  0  0  0  0  0  0  0  0  0
   -6.4910    1.0770   -2.2000 H   0  0  0  0  0  0  0  0  0  0  0  0
   -7.5938    2.2849   -1.5238 H   0  0  0  0  0  0  0  0  0  0  0  0
   -5.8489    2.5742   -1.5115 H   0  0  0  0  0  0  0  0  0  0  0  0
   -5.8750    2.9301    0.9818 H   0  0  0  0  0  0  0  0  0  0  0  0
   -7.6201    2.6480    1.0424 H   0  0  0  0  0  0  0  0  0  0  0  0
   -6.5312    1.6814    2.0487 H   0  0  0  0  0  0  0  0  0  0  0  0
   -1.3630   -2.4823    0.5074 H   0  0  0  0  0  0  0  0  0  0  0  0
    3.0886   -5.6970    1.0501 H   0  0  0  0  0  0  0  0  0  0  0  0
    5.6893   -4.9730    0.9052 H   0  0  0  0  0  0  0  0  0  0  0  0
    5.6966   -2.3203    0.5048 H   0  0  0  0  0  0  0  0  0  0  0  0
    2.9117    0.5420   -1.5962 H   0  0  0  0  0  0  0  0  0  0  0  0
  1  2  1  0  0  0  0
  2  3  1  0  0  0  0
  3  4  2  0  0  0  0
  4  5  1  0  0  0  0
  5  6  2  0  0  0  0
  6  7  1  0  0  0  0
  7  8  1  0  0  0  0
  8  9  2  0  0  0  0
  9 10  1  0  0  0  0
 10 11  2  0  0  0  0
 11 12  1  0  0  0  0
 12 13  2  0  0  0  0
 13 14  1  0  0  0  0
 14 15  2  0  0  0  0
 14 16  1  0  0  0  0
 16 17  1  0  0  0  0
 17 18  1  0  0  0  0
 17 19  1  0  0  0  0
 17 20  1  0  0  0  0
 11 21  1  0  0  0  0
 21 22  2  0  0  0  0
 22 23  1  0  0  0  0
 23 24  1  0  0  0  0
 23 25  1  0  0  0  0
 23 26  1  0  0  0  0
 26 27  1  0  0  0  0
 27 28  2  0  0  0  0
 28 29  1  0  0  0  0
 29 30  2  0  0  0  0
  7 31  2  0  0  0  0
 31  3  1  0  0  0  0
 30  8  1  0  0  0  0
 22  9  1  0  0  0  0
 30 26  1  0  0  0  0
  1 32  1  0  0  0  0
  1 33  1  0  0  0  0
  1 34  1  0  0  0  0
  4 35  1  0  0  0  0
  5 36  1  0  0  0  0
  6 37  1  0  0  0  0
 10 38  1  0  0  0  0
 12 39  1  0  0  0  0
 13 40  1  0  0  0  0
 18 41  1  0  0  0  0
 18 42  1  0  0  0  0
 18 43  1  0  0  0  0
 19 44  1  0  0  0  0
 19 45  1  0  0  0  0
 19 46  1  0  0  0  0
 20 47  1  0  0  0  0
 20 48  1  0  0  0  0
 20 49  1  0  0  0  0
 21 50  1  0  0  0  0
 27 51  1  0  0  0  0
 28 52  1  0  0  0  0
 29 53  1  0  0  0  0
 31 54  1  0  0  0  0
M  CHG  1  22   1
M  CHG  1  23  -1
M  END
