
  xtb     03022212093D
 energy: -108.802773088437 gnorm: 0.000123434057 xtb: 6.4.1 (afa7bdf)
 66 73  0     0  0            999 V2000
   -1.0473    7.2583   -0.4243 C   0  0  0  0  0  0  0  0  0  0  0  0
   -0.8228    5.7770   -0.4481 C   0  0  0  0  0  0  0  0  0  0  0  0
   -0.3737    5.1468   -1.6000 C   0  0  0  0  0  0  0  0  0  0  0  0
   -0.1417    3.7806   -1.6332 C   0  0  0  0  0  0  0  0  0  0  0  0
    0.3405    3.1069   -2.8818 C   0  0  0  0  0  0  0  0  0  0  0  0
   -0.3682    3.0296   -0.4791 C   0  0  0  0  0  0  0  0  0  0  0  0
   -0.1293    1.5719   -0.5104 C   0  0  0  0  0  0  0  0  0  0  0  0
    1.1356    1.0666   -0.2245 C   0  0  0  0  0  0  0  0  0  0  0  0
    2.2959    1.7472    0.2065 C   0  0  0  0  0  0  0  0  0  0  0  0
    3.2488    0.7904    0.4531 C   0  0  0  0  0  0  0  0  0  0  0  0
    2.6758   -0.4657    0.1529 C   0  0  0  0  0  0  0  0  0  0  0  0
    3.3471   -1.7401    0.2461 C   0  0  0  0  0  0  0  0  0  0  0  0
    3.2441   -2.7433   -0.6701 C   0  0  0  0  0  0  0  0  0  0  0  0
    4.2367   -4.1039   -0.3377 S   0  0  0  0  0  0  0  0  0  0  0  0
    4.8308   -3.3519    1.1178 C   0  0  0  0  0  0  0  0  0  0  0  0
    5.7328   -3.8944    2.0202 C   0  0  0  0  0  0  0  0  0  0  0  0
    6.0625   -3.1591    3.1395 C   0  0  0  0  0  0  0  0  0  0  0  0
    5.4856   -1.9098    3.3617 C   0  0  0  0  0  0  0  0  0  0  0  0
    4.5900   -1.3708    2.4642 C   0  0  0  0  0  0  0  0  0  0  0  0
    4.2622   -2.0795    1.3077 C   0  0  0  0  0  0  0  0  0  0  0  0
    1.4084   -0.2833   -0.2563 N   0  0  0  0  0  4  0  0  0  0  0  0
    0.3963   -1.3275   -0.7815 B   0  0  0  0  0  4  0  0  0  0  0  0
    0.3830   -2.4440    0.0212 F   0  0  0  0  0  0  0  0  0  0  0  0
    0.7614   -1.6806   -2.0820 F   0  0  0  0  0  0  0  0  0  0  0  0
   -1.0003   -0.6660   -0.8313 N   0  0  0  0  0  0  0  0  0  0  0  0
   -1.1784    0.6994   -0.7847 C   0  0  0  0  0  0  0  0  0  0  0  0
   -2.5503    0.9780   -0.9733 C   0  0  0  0  0  0  0  0  0  0  0  0
   -3.1867   -0.2312   -1.1037 C   0  0  0  0  0  0  0  0  0  0  0  0
   -2.2014   -1.2402   -1.0173 C   0  0  0  0  0  0  0  0  0  0  0  0
   -2.4390   -2.6596   -1.1290 C   0  0  0  0  0  0  0  0  0  0  0  0
   -1.6520   -3.5297   -1.8216 C   0  0  0  0  0  0  0  0  0  0  0  0
   -2.2421   -5.1415   -1.8502 S   0  0  0  0  0  0  0  0  0  0  0  0
   -3.6107   -4.6892   -0.8708 C   0  0  0  0  0  0  0  0  0  0  0  0
   -4.6157   -5.5287   -0.4154 C   0  0  0  0  0  0  0  0  0  0  0  0
   -5.6063   -4.9932    0.3810 C   0  0  0  0  0  0  0  0  0  0  0  0
   -5.5822   -3.6441    0.7308 C   0  0  0  0  0  0  0  0  0  0  0  0
   -4.5837   -2.8102    0.2775 C   0  0  0  0  0  0  0  0  0  0  0  0
   -3.5857   -3.3188   -0.5548 C   0  0  0  0  0  0  0  0  0  0  0  0
   -0.8173    3.6419    0.6912 C   0  0  0  0  0  0  0  0  0  0  0  0
   -1.0507    2.8241    1.9254 C   0  0  0  0  0  0  0  0  0  0  0  0
   -1.0378    5.0105    0.6886 C   0  0  0  0  0  0  0  0  0  0  0  0
   -0.1376    7.7668   -0.1034 H   0  0  0  0  0  0  0  0  0  0  0  0
   -1.8410    7.5194    0.2717 H   0  0  0  0  0  0  0  0  0  0  0  0
   -1.3079    7.6274   -1.4133 H   0  0  0  0  0  0  0  0  0  0  0  0
   -0.2018    5.7319   -2.4923 H   0  0  0  0  0  0  0  0  0  0  0  0
   -0.3560    2.3272   -3.1879 H   0  0  0  0  0  0  0  0  0  0  0  0
    0.4425    3.8236   -3.6926 H   0  0  0  0  0  0  0  0  0  0  0  0
    1.3065    2.6333   -2.7101 H   0  0  0  0  0  0  0  0  0  0  0  0
    2.3804    2.8108    0.3180 H   0  0  0  0  0  0  0  0  0  0  0  0
    4.2611    0.9466    0.7700 H   0  0  0  0  0  0  0  0  0  0  0  0
    2.6515   -2.7494   -1.5618 H   0  0  0  0  0  0  0  0  0  0  0  0
    6.1557   -4.8715    1.8460 H   0  0  0  0  0  0  0  0  0  0  0  0
    6.7630   -3.5596    3.8566 H   0  0  0  0  0  0  0  0  0  0  0  0
    5.7415   -1.3604    4.2556 H   0  0  0  0  0  0  0  0  0  0  0  0
    4.1298   -0.4142    2.6577 H   0  0  0  0  0  0  0  0  0  0  0  0
   -2.9821    1.9598   -0.9972 H   0  0  0  0  0  0  0  0  0  0  0  0
   -4.2296   -0.4017   -1.2853 H   0  0  0  0  0  0  0  0  0  0  0  0
   -0.7525   -3.3055   -2.3575 H   0  0  0  0  0  0  0  0  0  0  0  0
   -4.6105   -6.5753   -0.6771 H   0  0  0  0  0  0  0  0  0  0  0  0
   -6.4000   -5.6264    0.7475 H   0  0  0  0  0  0  0  0  0  0  0  0
   -6.3562   -3.2502    1.3728 H   0  0  0  0  0  0  0  0  0  0  0  0
   -4.5600   -1.7730    0.5741 H   0  0  0  0  0  0  0  0  0  0  0  0
   -1.8086    2.0634    1.7420 H   0  0  0  0  0  0  0  0  0  0  0  0
   -0.1358    2.3114    2.2209 H   0  0  0  0  0  0  0  0  0  0  0  0
   -1.3801    3.4535    2.7481 H   0  0  0  0  0  0  0  0  0  0  0  0
   -1.3863    5.4896    1.5926 H   0  0  0  0  0  0  0  0  0  0  0  0
  1  2  1  0  0  0  0
  2  3  2  0  0  0  0
  3  4  1  0  0  0  0
  4  5  1  0  0  0  0
  4  6  2  0  0  0  0
  6  7  1  0  0  0  0
  7  8  2  0  0  0  0
  8  9  1  0  0  0  0
  9 10  2  0  0  0  0
 10 11  1  0  0  0  0
 11 12  1  0  0  0  0
 12 13  2  0  0  0  0
 13 14  1  0  0  0  0
 14 15  1  0  0  0  0
 15 16  2  0  0  0  0
 16 17  1  0  0  0  0
 17 18  2  0  0  0  0
 18 19  1  0  0  0  0
 19 20  2  0  0  0  0
 11 21  2  0  0  0  0
 21 22  1  0  0  0  0
 22 23  1  0  0  0  0
 22 24  1  0  0  0  0
 22 25  1  0  0  0  0
 25 26  1  0  0  0  0
 26 27  2  0  0  0  0
 27 28  1  0  0  0  0
 28 29  2  0  0  0  0
 29 30  1  0  0  0  0
 30 31  2  0  0  0  0
 31 32  1  0  0  0  0
 32 33  1  0  0  0  0
 33 34  2  0  0  0  0
 34 35  1  0  0  0  0
 35 36  2  0  0  0  0
 36 37  1  0  0  0  0
 37 38  2  0  0  0  0
  6 39  1  0  0  0  0
 39 40  1  0  0  0  0
 39 41  2  0  0  0  0
 41  2  1  0  0  0  0
 26  7  1  0  0  0  0
 38 30  1  0  0  0  0
 21  8  1  0  0  0  0
 29 25  1  0  0  0  0
 38 33  1  0  0  0  0
 20 12  1  0  0  0  0
 20 15  1  0  0  0  0
  1 42  1  0  0  0  0
  1 43  1  0  0  0  0
  1 44  1  0  0  0  0
  3 45  1  0  0  0  0
  5 46  1  0  0  0  0
  5 47  1  0  0  0  0
  5 48  1  0  0  0  0
  9 49  1  0  0  0  0
 10 50  1  0  0  0  0
 13 51  1  0  0  0  0
 16 52  1  0  0  0  0
 17 53  1  0  0  0  0
 18 54  1  0  0  0  0
 19 55  1  0  0  0  0
 27 56  1  0  0  0  0
 28 57  1  0  0  0  0
 31 58  1  0  0  0  0
 34 59  1  0  0  0  0
 35 60  1  0  0  0  0
 36 61  1  0  0  0  0
 37 62  1  0  0  0  0
 40 63  1  0  0  0  0
 40 64  1  0  0  0  0
 40 65  1  0  0  0  0
 41 66  1  0  0  0  0
M  CHG  1  21   1
M  CHG  1  22  -1
M  END
