
  xtb     03022214543D
 energy: -47.961572047099 gnorm: 0.000051831348 xtb: 6.4.1 (afa7bdf)
 29 31  0     0  0            999 V2000
   -0.8815    1.1028   -2.5805 O   0  0  0  0  0  0  0  0  0  0  0  0
   -0.3871    0.6054   -1.4304 C   0  0  0  0  0  0  0  0  0  0  0  0
    0.9459    0.4798   -1.3126 N   0  0  0  0  0  0  0  0  0  0  0  0
    1.3062   -0.0086   -0.1643 C   0  0  0  0  0  0  0  0  0  0  0  0
    2.6721   -0.2482    0.2285 C   0  0  0  0  0  0  0  0  0  0  0  0
    2.9828   -0.7723    1.4840 C   0  0  0  0  0  0  0  0  0  0  0  0
    4.2985   -0.9936    1.8386 C   0  0  0  0  0  0  0  0  0  0  0  0
    5.3201   -0.6967    0.9498 C   0  0  0  0  0  0  0  0  0  0  0  0
    5.0198   -0.1758   -0.2996 C   0  0  0  0  0  0  0  0  0  0  0  0
    3.7074    0.0486   -0.6622 C   0  0  0  0  0  0  0  0  0  0  0  0
   -0.0455   -0.3575    0.8865 S   0  0  0  0  0  0  0  0  0  0  0  0
   -1.1419    0.2062   -0.3419 C   0  0  0  0  0  0  0  0  0  0  0  0
   -2.5730    0.2096   -0.1464 C   0  0  0  0  0  0  0  0  0  0  0  0
   -3.1204   -0.2441    1.0565 C   0  0  0  0  0  0  0  0  0  0  0  0
   -4.4862   -0.2453    1.2534 C   0  0  0  0  0  0  0  0  0  0  0  0
   -5.3349    0.2057    0.2552 C   0  0  0  0  0  0  0  0  0  0  0  0
   -4.8032    0.6578   -0.9415 C   0  0  0  0  0  0  0  0  0  0  0  0
   -3.4375    0.6624   -1.1468 C   0  0  0  0  0  0  0  0  0  0  0  0
   -0.1281    1.2938   -3.1551 H   0  0  0  0  0  0  0  0  0  0  0  0
    2.1845   -1.0027    2.1749 H   0  0  0  0  0  0  0  0  0  0  0  0
    4.5306   -1.3993    2.8122 H   0  0  0  0  0  0  0  0  0  0  0  0
    6.3481   -0.8711    1.2306 H   0  0  0  0  0  0  0  0  0  0  0  0
    5.8152    0.0556   -0.9927 H   0  0  0  0  0  0  0  0  0  0  0  0
    3.4569    0.4531   -1.6300 H   0  0  0  0  0  0  0  0  0  0  0  0
   -2.4620   -0.5969    1.8380 H   0  0  0  0  0  0  0  0  0  0  0  0
   -4.8915   -0.5996    2.1899 H   0  0  0  0  0  0  0  0  0  0  0  0
   -6.4036    0.2046    0.4098 H   0  0  0  0  0  0  0  0  0  0  0  0
   -5.4594    1.0107   -1.7238 H   0  0  0  0  0  0  0  0  0  0  0  0
   -3.0324    1.0156   -2.0803 H   0  0  0  0  0  0  0  0  0  0  0  0
  1  2  1  0  0  0  0
  2  3  1  0  0  0  0
  3  4  2  0  0  0  0
  4  5  1  0  0  0  0
  5  6  2  0  0  0  0
  6  7  1  0  0  0  0
  7  8  2  0  0  0  0
  8  9  1  0  0  0  0
  9 10  2  0  0  0  0
  4 11  1  0  0  0  0
 11 12  1  0  0  0  0
 12 13  1  0  0  0  0
 13 14  2  0  0  0  0
 14 15  1  0  0  0  0
 15 16  2  0  0  0  0
 16 17  1  0  0  0  0
 17 18  2  0  0  0  0
 12  2  2  0  0  0  0
 18 13  1  0  0  0  0
 10  5  1  0  0  0  0
  1 19  1  0  0  0  0
  6 20  1  0  0  0  0
  7 21  1  0  0  0  0
  8 22  1  0  0  0  0
  9 23  1  0  0  0  0
 10 24  1  0  0  0  0
 14 25  1  0  0  0  0
 15 26  1  0  0  0  0
 16 27  1  0  0  0  0
 17 28  1  0  0  0  0
 18 29  1  0  0  0  0
M  END
