
  xtb     03022212213D
 energy: -62.151146408315 gnorm: 0.000221008001 xtb: 6.4.1 (afa7bdf)
 43 47  0     0  0            999 V2000
    0.5304   -1.2055    0.7823 C   0  0  0  0  0  0  0  0  0  0  0  0
    0.2383   -2.0830   -0.4351 C   0  0  0  0  0  0  0  0  0  0  0  0
   -1.2722   -2.2655   -0.5303 C   0  0  0  0  0  0  0  0  0  0  0  0
    1.0375   -3.4097   -0.4072 C   0  0  0  0  0  0  0  0  0  0  0  0
    0.7588   -4.0004   -1.8061 C   0  0  0  0  0  0  0  0  0  0  0  0
    0.6913   -2.7551   -2.7108 C   0  0  0  0  0  0  0  0  0  0  0  0
    0.9215   -1.5696   -1.7385 C   0  0  0  0  0  0  0  0  0  0  0  0
    0.5278   -0.2150   -2.2839 C   0  0  0  0  0  0  0  0  0  0  0  0
    2.3627   -1.7294   -1.3505 C   0  0  0  0  0  0  0  0  0  0  0  0
    3.3985   -1.0325   -1.6952 N   0  0  0  0  0  0  0  0  0  0  0  0
    4.5841   -1.4747   -1.1796 C   0  0  0  0  0  0  0  0  0  0  0  0
    5.7528   -0.7656   -1.4798 C   0  0  0  0  0  0  0  0  0  0  0  0
    6.9772   -1.1727   -0.9820 C   0  0  0  0  0  0  0  0  0  0  0  0
    8.1897   -0.4403   -1.2808 C   0  0  0  0  0  0  0  0  0  0  0  0
    8.3446    0.7066   -2.0149 C   0  0  0  0  0  0  0  0  0  0  0  0
    9.6793    1.1465   -2.0957 C   0  0  0  0  0  0  0  0  0  0  0  0
   10.5388    0.3363   -1.4249 C   0  0  0  0  0  0  0  0  0  0  0  0
    9.7337   -0.9817   -0.6797 S   0  0  0  0  0  0  0  0  0  0  0  0
    7.0301   -2.3251   -0.1654 C   0  0  0  0  0  0  0  0  0  0  0  0
    5.9045   -3.0338    0.1433 C   0  0  0  0  0  0  0  0  0  0  0  0
    4.6525   -2.6291   -0.3507 C   0  0  0  0  0  0  0  0  0  0  0  0
    3.5420   -3.3480   -0.0246 N   0  0  0  0  0  0  0  0  0  0  0  0
    2.4333   -2.8869   -0.5126 C   0  0  0  0  0  0  0  0  0  0  0  0
    0.1870   -1.7022    1.6877 H   0  0  0  0  0  0  0  0  0  0  0  0
    0.0084   -0.2548    0.6967 H   0  0  0  0  0  0  0  0  0  0  0  0
    1.5933   -1.0018    0.8908 H   0  0  0  0  0  0  0  0  0  0  0  0
   -1.7590   -1.2938   -0.5777 H   0  0  0  0  0  0  0  0  0  0  0  0
   -1.5743   -2.8387   -1.3997 H   0  0  0  0  0  0  0  0  0  0  0  0
   -1.6326   -2.7803    0.3583 H   0  0  0  0  0  0  0  0  0  0  0  0
    0.8491   -4.0890    0.4197 H   0  0  0  0  0  0  0  0  0  0  0  0
   -0.1770   -4.5575   -1.8068 H   0  0  0  0  0  0  0  0  0  0  0  0
    1.5547   -4.6836   -2.1029 H   0  0  0  0  0  0  0  0  0  0  0  0
    1.4567   -2.7673   -3.4871 H   0  0  0  0  0  0  0  0  0  0  0  0
   -0.2765   -2.6574   -3.2015 H   0  0  0  0  0  0  0  0  0  0  0  0
   -0.5266   -0.1995   -2.5509 H   0  0  0  0  0  0  0  0  0  0  0  0
    0.7196    0.5602   -1.5465 H   0  0  0  0  0  0  0  0  0  0  0  0
    1.1193    0.0065   -3.1688 H   0  0  0  0  0  0  0  0  0  0  0  0
    5.6563    0.1039   -2.1094 H   0  0  0  0  0  0  0  0  0  0  0  0
    7.5301    1.2269   -2.4845 H   0  0  0  0  0  0  0  0  0  0  0  0
    9.9855    2.0284   -2.6297 H   0  0  0  0  0  0  0  0  0  0  0  0
   11.6013    0.4297   -1.3193 H   0  0  0  0  0  0  0  0  0  0  0  0
    7.9885   -2.6427    0.2197 H   0  0  0  0  0  0  0  0  0  0  0  0
    5.9440   -3.9117    0.7691 H   0  0  0  0  0  0  0  0  0  0  0  0
  1  2  1  0  0  0  0
  1 24  1  0  0  0  0
  1 25  1  0  0  0  0
  1 26  1  0  0  0  0
  2  3  1  0  0  0  0
  2  4  1  0  0  0  0
  3 27  1  0  0  0  0
  3 28  1  0  0  0  0
  3 29  1  0  0  0  0
  4  5  1  0  0  0  0
  4 30  1  0  0  0  0
  5  6  1  0  0  0  0
  5 31  1  0  0  0  0
  5 32  1  0  0  0  0
  6  7  1  0  0  0  0
  6 33  1  0  0  0  0
  6 34  1  0  0  0  0
  7  8  1  0  0  0  0
  7  9  1  0  0  0  0
  7  2  1  0  0  0  0
  8 35  1  0  0  0  0
  8 36  1  0  0  0  0
  8 37  1  0  0  0  0
  9 10  2  0  0  0  0
 10 11  1  0  0  0  0
 11 12  2  0  0  0  0
 12 13  1  0  0  0  0
 12 38  1  0  0  0  0
 13 14  1  0  0  0  0
 13 19  2  0  0  0  0
 14 15  2  0  0  0  0
 15 16  1  0  0  0  0
 15 39  1  0  0  0  0
 16 17  2  0  0  0  0
 16 40  1  0  0  0  0
 17 18  1  0  0  0  0
 17 41  1  0  0  0  0
 18 14  1  0  0  0  0
 19 20  1  0  0  0  0
 19 42  1  0  0  0  0
 20 21  2  0  0  0  0
 20 43  1  0  0  0  0
 21 22  1  0  0  0  0
 21 11  1  0  0  0  0
 22 23  2  0  0  0  0
 23  9  1  0  0  0  0
 23  4  1  0  0  0  0
M  END
