
  xtb     03022213493D
 energy: -85.902759550036 gnorm: 0.000084682153 xtb: 6.4.1 (afa7bdf)
 60 63  0     0  0            999 V2000
   -7.8271    3.5726   -1.0285 C   0  0  0  0  0  0  0  0  0  0  0  0
   -7.9605    2.1927   -0.6357 N   0  0  0  0  0  0  0  0  0  0  0  0
   -9.2796    1.6422   -0.4524 C   0  0  0  0  0  0  0  0  0  0  0  0
   -6.8504    1.4164   -0.4344 C   0  0  0  0  0  0  0  0  0  0  0  0
   -5.5539    1.9443   -0.5531 C   0  0  0  0  0  0  0  0  0  0  0  0
   -4.4409    1.1625   -0.3509 C   0  0  0  0  0  0  0  0  0  0  0  0
   -4.5453   -0.1922   -0.0181 C   0  0  0  0  0  0  0  0  0  0  0  0
   -3.4117   -1.0534    0.2040 C   0  0  0  0  0  0  0  0  0  0  0  0
   -2.1099   -0.7294    0.1309 C   0  0  0  0  0  0  0  0  0  0  0  0
   -1.0597   -1.6936    0.3785 C   0  0  0  0  0  0  0  0  0  0  0  0
    0.1982   -1.2277    0.2724 N   0  0  0  0  0  0  0  0  0  0  0  0
    1.2116   -2.0454    0.4833 C   0  0  0  0  0  0  0  0  0  0  0  0
    2.5436   -1.5019    0.3590 C   0  0  0  0  0  0  0  0  0  0  0  0
    2.7692   -0.2128    0.0412 C   0  0  0  0  0  0  0  0  0  0  0  0
    4.0470    0.4314   -0.1090 C   0  0  0  0  0  0  0  0  0  0  0  0
    5.2737   -0.2197    0.0665 C   0  0  0  0  0  0  0  0  0  0  0  0
    6.4706    0.4373   -0.0885 C   0  0  0  0  0  0  0  0  0  0  0  0
    6.5185    1.7993   -0.4317 C   0  0  0  0  0  0  0  0  0  0  0  0
    7.7089    2.4543   -0.5878 N   0  0  0  0  0  0  0  0  0  0  0  0
    8.9573    1.7499   -0.4367 C   0  0  0  0  0  0  0  0  0  0  0  0
    7.7337    3.8636   -0.8890 C   0  0  0  0  0  0  0  0  0  0  0  0
    5.2892    2.4563   -0.6080 C   0  0  0  0  0  0  0  0  0  0  0  0
    4.0984    1.7885   -0.4504 C   0  0  0  0  0  0  0  0  0  0  0  0
    0.9785   -3.4203    0.8223 C   0  0  0  0  0  0  0  0  0  0  0  0
    1.9651   -4.3891    1.0694 C   0  0  0  0  0  0  0  0  0  0  0  0
    1.6172   -5.6757    1.3859 C   0  0  0  0  0  0  0  0  0  0  0  0
    0.2688   -6.0514    1.4695 C   0  0  0  0  0  0  0  0  0  0  0  0
   -0.7186   -5.1373    1.2358 C   0  0  0  0  0  0  0  0  0  0  0  0
   -0.3898   -3.8041    0.9075 C   0  0  0  0  0  0  0  0  0  0  0  0
   -1.3881   -2.9346    0.6844 N   0  0  0  0  0  0  0  0  0  0  0  0
   -5.8379   -0.7150    0.0998 C   0  0  0  0  0  0  0  0  0  0  0  0
   -6.9580    0.0569   -0.1002 C   0  0  0  0  0  0  0  0  0  0  0  0
   -8.8124    3.9995   -1.1995 H   0  0  0  0  0  0  0  0  0  0  0  0
   -7.2532    3.6637   -1.9558 H   0  0  0  0  0  0  0  0  0  0  0  0
   -7.3297    4.1633   -0.2516 H   0  0  0  0  0  0  0  0  0  0  0  0
  -10.0233    2.4225   -0.5955 H   0  0  0  0  0  0  0  0  0  0  0  0
   -9.4821    0.8422   -1.1726 H   0  0  0  0  0  0  0  0  0  0  0  0
   -9.4012    1.2396    0.5579 H   0  0  0  0  0  0  0  0  0  0  0  0
   -5.4115    2.9831   -0.8033 H   0  0  0  0  0  0  0  0  0  0  0  0
   -3.4653    1.6127   -0.4516 H   0  0  0  0  0  0  0  0  0  0  0  0
   -3.6424   -2.0802    0.4588 H   0  0  0  0  0  0  0  0  0  0  0  0
   -1.7641    0.2630   -0.1149 H   0  0  0  0  0  0  0  0  0  0  0  0
    3.3661   -2.1771    0.5328 H   0  0  0  0  0  0  0  0  0  0  0  0
    1.8985    0.4095   -0.1202 H   0  0  0  0  0  0  0  0  0  0  0  0
    5.2929   -1.2657    0.3322 H   0  0  0  0  0  0  0  0  0  0  0  0
    7.3823   -0.1172    0.0632 H   0  0  0  0  0  0  0  0  0  0  0  0
    9.0216    0.9098   -1.1348 H   0  0  0  0  0  0  0  0  0  0  0  0
    9.7839    2.4246   -0.6455 H   0  0  0  0  0  0  0  0  0  0  0  0
    9.0791    1.3669    0.5820 H   0  0  0  0  0  0  0  0  0  0  0  0
    7.2729    4.0709   -1.8604 H   0  0  0  0  0  0  0  0  0  0  0  0
    7.2060    4.4397   -0.1228 H   0  0  0  0  0  0  0  0  0  0  0  0
    8.7635    4.2110   -0.9222 H   0  0  0  0  0  0  0  0  0  0  0  0
    5.2624    3.5002   -0.8747 H   0  0  0  0  0  0  0  0  0  0  0  0
    3.1718    2.3260   -0.5952 H   0  0  0  0  0  0  0  0  0  0  0  0
    3.0106   -4.1254    1.0114 H   0  0  0  0  0  0  0  0  0  0  0  0
    2.3855   -6.4120    1.5738 H   0  0  0  0  0  0  0  0  0  0  0  0
    0.0189   -7.0724    1.7209 H   0  0  0  0  0  0  0  0  0  0  0  0
   -1.7639   -5.3980    1.2929 H   0  0  0  0  0  0  0  0  0  0  0  0
   -5.9588   -1.7587    0.3547 H   0  0  0  0  0  0  0  0  0  0  0  0
   -7.9263   -0.4054    0.0013 H   0  0  0  0  0  0  0  0  0  0  0  0
  1  2  1  0  0  0  0
  2  3  1  0  0  0  0
  2  4  1  0  0  0  0
  4  5  2  0  0  0  0
  5  6  1  0  0  0  0
  6  7  2  0  0  0  0
  7  8  1  0  0  0  0
  8  9  2  0  0  0  0
  9 10  1  0  0  0  0
 10 11  2  0  0  0  0
 11 12  1  0  0  0  0
 12 13  1  0  0  0  0
 13 14  2  0  0  0  0
 14 15  1  0  0  0  0
 15 16  2  0  0  0  0
 16 17  1  0  0  0  0
 17 18  2  0  0  0  0
 18 19  1  0  0  0  0
 19 20  1  0  0  0  0
 19 21  1  0  0  0  0
 18 22  1  0  0  0  0
 22 23  2  0  0  0  0
 12 24  2  0  0  0  0
 24 25  1  0  0  0  0
 25 26  2  0  0  0  0
 26 27  1  0  0  0  0
 27 28  2  0  0  0  0
 28 29  1  0  0  0  0
 29 30  2  0  0  0  0
  7 31  1  0  0  0  0
 31 32  2  0  0  0  0
 32  4  1  0  0  0  0
 30 10  1  0  0  0  0
 23 15  1  0  0  0  0
 29 24  1  0  0  0  0
  1 33  1  0  0  0  0
  1 34  1  0  0  0  0
  1 35  1  0  0  0  0
  3 36  1  0  0  0  0
  3 37  1  0  0  0  0
  3 38  1  0  0  0  0
  5 39  1  0  0  0  0
  6 40  1  0  0  0  0
  8 41  1  0  0  0  0
  9 42  1  0  0  0  0
 13 43  1  0  0  0  0
 14 44  1  0  0  0  0
 16 45  1  0  0  0  0
 17 46  1  0  0  0  0
 20 47  1  0  0  0  0
 20 48  1  0  0  0  0
 20 49  1  0  0  0  0
 21 50  1  0  0  0  0
 21 51  1  0  0  0  0
 21 52  1  0  0  0  0
 22 53  1  0  0  0  0
 23 54  1  0  0  0  0
 25 55  1  0  0  0  0
 26 56  1  0  0  0  0
 27 57  1  0  0  0  0
 28 58  1  0  0  0  0
 31 59  1  0  0  0  0
 32 60  1  0  0  0  0
M  END
