
  xtb     03022215403D
 energy: -86.963572235017 gnorm: 0.000296840730 xtb: 6.4.1 (afa7bdf)
 51 53  0     0  0            999 V2000
   -2.2598    2.6857    3.6658 C   0  0  0  0  0  0  0  0  0  0  0  0
   -2.2220    2.2522    2.3100 O   0  0  0  0  0  0  0  0  0  0  0  0
   -2.2501    0.9386    2.1090 C   0  0  0  0  0  0  0  0  0  0  0  0
   -2.3287    0.1138    2.9805 O   0  0  0  0  0  0  0  0  0  0  0  0
   -2.1470    0.6110    0.6251 C   0  0  0  0  0  0  0  0  0  0  0  0
   -2.4500   -0.7846    0.4175 N   0  0  0  0  0  0  0  0  0  0  0  0
   -3.2652   -1.1855   -0.5921 C   0  0  0  0  0  0  0  0  0  0  0  0
   -3.6719   -0.4396   -1.4513 O   0  0  0  0  0  0  0  0  0  0  0  0
   -3.5066   -2.4976   -0.4803 O   0  0  0  0  0  0  0  0  0  0  0  0
   -4.3252   -3.1807   -1.4622 C   0  0  0  0  0  0  0  0  0  0  0  0
   -5.7394   -2.6011   -1.4659 C   0  0  0  0  0  0  0  0  0  0  0  0
   -4.3417   -4.6325   -0.9829 C   0  0  0  0  0  0  0  0  0  0  0  0
   -3.6871   -3.0799   -2.8471 C   0  0  0  0  0  0  0  0  0  0  0  0
   -0.7606    0.9505    0.1075 C   0  0  0  0  0  0  0  0  0  0  0  0
   -0.6355    1.4248   -1.2042 C   0  0  0  0  0  0  0  0  0  0  0  0
    0.5914    1.7243   -1.7636 C   0  0  0  0  0  0  0  0  0  0  0  0
    1.6986    1.5370   -0.9578 C   0  0  0  0  0  0  0  0  0  0  0  0
    3.0119    1.7483   -1.2097 O   0  0  0  0  0  0  0  0  0  0  0  0
    3.6431    1.3910   -0.0561 C   0  0  0  0  0  0  0  0  0  0  0  0
    5.0822    1.4960    0.0370 C   0  0  0  0  0  0  0  0  0  0  0  0
    5.8351    1.9591   -1.0436 C   0  0  0  0  0  0  0  0  0  0  0  0
    7.2061    2.0565   -0.9387 C   0  0  0  0  0  0  0  0  0  0  0  0
    7.8387    1.6906    0.2513 C   0  0  0  0  0  0  0  0  0  0  0  0
    9.2448    1.7916    0.3591 C   0  0  0  0  0  0  0  0  0  0  0  0
   10.3850    1.8741    0.4450 N   0  0  0  0  0  0  0  0  0  0  0  0
    7.0877    1.2262    1.3347 C   0  0  0  0  0  0  0  0  0  0  0  0
    5.7181    1.1301    1.2261 C   0  0  0  0  0  0  0  0  0  0  0  0
    2.8555    0.9773    0.8874 N   0  0  0  0  0  0  0  0  0  0  0  0
    1.5923    1.0501    0.3633 C   0  0  0  0  0  0  0  0  0  0  0  0
    0.3506    0.7436    0.9050 C   0  0  0  0  0  0  0  0  0  0  0  0
   -1.3256    2.4287    4.1687 H   0  0  0  0  0  0  0  0  0  0  0  0
   -2.3905    3.7640    3.6359 H   0  0  0  0  0  0  0  0  0  0  0  0
   -3.0886    2.2095    4.1925 H   0  0  0  0  0  0  0  0  0  0  0  0
   -2.8882    1.1981    0.0693 H   0  0  0  0  0  0  0  0  0  0  0  0
   -2.2399   -1.4254    1.1683 H   0  0  0  0  0  0  0  0  0  0  0  0
   -6.1628   -2.6436   -0.4647 H   0  0  0  0  0  0  0  0  0  0  0  0
   -5.7190   -1.5662   -1.7958 H   0  0  0  0  0  0  0  0  0  0  0  0
   -6.3688   -3.1751   -2.1401 H   0  0  0  0  0  0  0  0  0  0  0  0
   -3.3294   -5.0264   -0.9538 H   0  0  0  0  0  0  0  0  0  0  0  0
   -4.9406   -5.2389   -1.6556 H   0  0  0  0  0  0  0  0  0  0  0  0
   -4.7624   -4.6890    0.0174 H   0  0  0  0  0  0  0  0  0  0  0  0
   -4.2594   -3.6700   -3.5573 H   0  0  0  0  0  0  0  0  0  0  0  0
   -2.6664   -3.4550   -2.8161 H   0  0  0  0  0  0  0  0  0  0  0  0
   -3.6712   -2.0452   -3.1778 H   0  0  0  0  0  0  0  0  0  0  0  0
   -1.5309    1.5437   -1.7942 H   0  0  0  0  0  0  0  0  0  0  0  0
    0.6841    2.0865   -2.7743 H   0  0  0  0  0  0  0  0  0  0  0  0
    5.3358    2.2395   -1.9583 H   0  0  0  0  0  0  0  0  0  0  0  0
    7.7975    2.4138   -1.7687 H   0  0  0  0  0  0  0  0  0  0  0  0
    7.5893    0.9463    2.2490 H   0  0  0  0  0  0  0  0  0  0  0  0
    5.1139    0.7752    2.0454 H   0  0  0  0  0  0  0  0  0  0  0  0
    0.2727    0.3588    1.9090 H   0  0  0  0  0  0  0  0  0  0  0  0
  1  2  1  0  0  0  0
  2  3  1  0  0  0  0
  3  4  2  0  0  0  0
  3  5  1  0  0  0  0
  5  6  1  0  0  0  0
  6  7  1  0  0  0  0
  7  8  2  0  0  0  0
  7  9  1  0  0  0  0
  9 10  1  0  0  0  0
 10 11  1  0  0  0  0
 10 12  1  0  0  0  0
 10 13  1  0  0  0  0
  5 14  1  0  0  0  0
 14 15  2  0  0  0  0
 15 16  1  0  0  0  0
 16 17  2  0  0  0  0
 17 18  1  0  0  0  0
 18 19  1  0  0  0  0
 19 20  1  0  0  0  0
 20 21  2  0  0  0  0
 21 22  1  0  0  0  0
 22 23  2  0  0  0  0
 23 24  1  0  0  0  0
 24 25  3  0  0  0  0
 23 26  1  0  0  0  0
 26 27  2  0  0  0  0
 19 28  2  0  0  0  0
 28 29  1  0  0  0  0
 29 30  2  0  0  0  0
 30 14  1  0  0  0  0
 29 17  1  0  0  0  0
 27 20  1  0  0  0  0
  1 31  1  0  0  0  0
  1 32  1  0  0  0  0
  1 33  1  0  0  0  0
  5 34  1  0  0  0  0
  6 35  1  0  0  0  0
 11 36  1  0  0  0  0
 11 37  1  0  0  0  0
 11 38  1  0  0  0  0
 12 39  1  0  0  0  0
 12 40  1  0  0  0  0
 12 41  1  0  0  0  0
 13 42  1  0  0  0  0
 13 43  1  0  0  0  0
 13 44  1  0  0  0  0
 15 45  1  0  0  0  0
 16 46  1  0  0  0  0
 21 47  1  0  0  0  0
 22 48  1  0  0  0  0
 26 49  1  0  0  0  0
 27 50  1  0  0  0  0
 30 51  1  0  0  0  0
M  END
