
  xtb     03022216143D
 energy: -120.999210136940 gnorm: 0.000134451737 xtb: 6.4.1 (afa7bdf)
 73 82  0     0  0            999 V2000
   -8.5447    2.3048    1.3048 C   0  0  0  0  0  0  0  0  0  0  0  0
   -7.2161    1.7774    0.9206 C   0  0  0  0  0  0  0  0  0  0  0  0
   -6.9279    1.3763   -0.2990 N   0  0  0  0  0  0  0  0  0  0  0  0
   -5.6412    0.9880   -0.3133 N   0  0  0  0  0  0  0  0  0  0  0  0
   -5.0742    0.4935   -1.5074 C   0  0  0  0  0  0  0  0  0  0  0  0
   -5.6284   -0.6285   -2.1079 C   0  0  0  0  0  0  0  0  0  0  0  0
   -5.0551   -1.1393   -3.2589 C   0  0  0  0  0  0  0  0  0  0  0  0
   -3.9395   -0.5322   -3.8107 C   0  0  0  0  0  0  0  0  0  0  0  0
   -3.4082    0.6059   -3.2262 C   0  0  0  0  0  0  0  0  0  0  0  0
   -3.9767    1.1281   -2.0782 C   0  0  0  0  0  0  0  0  0  0  0  0
   -5.0798    1.1110    0.9100 C   0  0  0  0  0  0  0  0  0  0  0  0
   -6.0752    1.6251    1.7488 C   0  0  0  0  0  0  0  0  0  0  0  0
   -5.8646    1.8375    3.1583 C   0  0  0  0  0  0  0  0  0  0  0  0
   -6.6483    2.2859    3.9539 O   0  0  0  0  0  0  0  0  0  0  0  0
   -4.6205    1.4557    3.6148 O   0  0  0  0  0  0  0  0  0  0  0  0
   -3.6589    0.9176    2.8257 C   0  0  0  0  0  0  0  0  0  0  0  0
   -2.4796    0.5205    3.4540 C   0  0  0  0  0  0  0  0  0  0  0  0
   -1.4573   -0.0533    2.7307 C   0  0  0  0  0  0  0  0  0  0  0  0
   -1.5806   -0.2175    1.3481 C   0  0  0  0  0  0  0  0  0  0  0  0
   -0.5498   -0.7814    0.5906 N   0  0  0  0  0  0  0  0  0  0  0  0
   -0.7114   -1.7076   -0.4258 C   0  0  0  0  0  0  0  0  0  0  0  0
   -1.8537   -2.3673   -0.8584 C   0  0  0  0  0  0  0  0  0  0  0  0
   -1.7284   -3.2615   -1.9041 C   0  0  0  0  0  0  0  0  0  0  0  0
   -0.4969   -3.5157   -2.5029 C   0  0  0  0  0  0  0  0  0  0  0  0
    0.6495   -2.8920   -2.0541 C   0  0  0  0  0  0  0  0  0  0  0  0
    0.5462   -1.9845   -1.0082 C   0  0  0  0  0  0  0  0  0  0  0  0
    1.5076   -1.1794   -0.3087 C   0  0  0  0  0  0  0  0  0  0  0  0
    2.8790   -1.0215   -0.4387 C   0  0  0  0  0  0  0  0  0  0  0  0
    3.5220   -0.1086    0.3843 C   0  0  0  0  0  0  0  0  0  0  0  0
    4.9076    0.0827    0.2724 N   0  0  0  0  0  0  0  0  0  0  0  0
    5.5942    0.3370   -0.8973 C   0  0  0  0  0  0  0  0  0  0  0  0
    5.1115    0.5034   -2.1876 C   0  0  0  0  0  0  0  0  0  0  0  0
    6.0245    0.7772   -3.1876 C   0  0  0  0  0  0  0  0  0  0  0  0
    7.3866    0.8921   -2.9181 C   0  0  0  0  0  0  0  0  0  0  0  0
    7.8703    0.7499   -1.6331 C   0  0  0  0  0  0  0  0  0  0  0  0
    6.9721    0.4743   -0.6104 C   0  0  0  0  0  0  0  0  0  0  0  0
    7.1140    0.2877    0.8061 C   0  0  0  0  0  0  0  0  0  0  0  0
    8.2041    0.2901    1.6664 C   0  0  0  0  0  0  0  0  0  0  0  0
    7.9883    0.0503    3.0085 C   0  0  0  0  0  0  0  0  0  0  0  0
    6.7073   -0.2036    3.4941 C   0  0  0  0  0  0  0  0  0  0  0  0
    5.6072   -0.2114    2.6584 C   0  0  0  0  0  0  0  0  0  0  0  0
    5.8147    0.0511    1.3117 C   0  0  0  0  0  0  0  0  0  0  0  0
    2.7964    0.6432    1.3163 C   0  0  0  0  0  0  0  0  0  0  0  0
    1.4343    0.4828    1.4687 C   0  0  0  0  0  0  0  0  0  0  0  0
    0.7902   -0.4477    0.6649 C   0  0  0  0  0  0  0  0  0  0  0  0
   -2.7466    0.1802    0.7143 C   0  0  0  0  0  0  0  0  0  0  0  0
   -3.8019    0.7315    1.4363 C   0  0  0  0  0  0  0  0  0  0  0  0
   -8.5237    3.3942    1.2951 H   0  0  0  0  0  0  0  0  0  0  0  0
   -9.2994    1.9631    0.6026 H   0  0  0  0  0  0  0  0  0  0  0  0
   -8.7877    1.9874    2.3158 H   0  0  0  0  0  0  0  0  0  0  0  0
   -6.4980   -1.0891   -1.6654 H   0  0  0  0  0  0  0  0  0  0  0  0
   -5.4786   -2.0172   -3.7224 H   0  0  0  0  0  0  0  0  0  0  0  0
   -3.4868   -0.9404   -4.7011 H   0  0  0  0  0  0  0  0  0  0  0  0
   -2.5494    1.0904   -3.6652 H   0  0  0  0  0  0  0  0  0  0  0  0
   -3.5762    2.0213   -1.6211 H   0  0  0  0  0  0  0  0  0  0  0  0
   -2.3973    0.6584    4.5201 H   0  0  0  0  0  0  0  0  0  0  0  0
   -0.5664   -0.3945    3.2337 H   0  0  0  0  0  0  0  0  0  0  0  0
   -2.8127   -2.2060   -0.3905 H   0  0  0  0  0  0  0  0  0  0  0  0
   -2.6072   -3.7776   -2.2608 H   0  0  0  0  0  0  0  0  0  0  0  0
   -0.4414   -4.2196   -3.3195 H   0  0  0  0  0  0  0  0  0  0  0  0
    1.6091   -3.1026   -2.5013 H   0  0  0  0  0  0  0  0  0  0  0  0
    3.4375   -1.5985   -1.1592 H   0  0  0  0  0  0  0  0  0  0  0  0
    4.0558    0.4333   -2.4035 H   0  0  0  0  0  0  0  0  0  0  0  0
    5.6739    0.9084   -4.2009 H   0  0  0  0  0  0  0  0  0  0  0  0
    8.0685    1.1041   -3.7282 H   0  0  0  0  0  0  0  0  0  0  0  0
    8.9239    0.8539   -1.4216 H   0  0  0  0  0  0  0  0  0  0  0  0
    9.1986    0.4724    1.2876 H   0  0  0  0  0  0  0  0  0  0  0  0
    8.8221    0.0500    3.6948 H   0  0  0  0  0  0  0  0  0  0  0  0
    6.5718   -0.4023    4.5471 H   0  0  0  0  0  0  0  0  0  0  0  0
    4.6203   -0.4255    3.0407 H   0  0  0  0  0  0  0  0  0  0  0  0
    3.3196    1.3741    1.9139 H   0  0  0  0  0  0  0  0  0  0  0  0
    0.8911    1.0883    2.1774 H   0  0  0  0  0  0  0  0  0  0  0  0
   -2.8295    0.0658   -0.3528 H   0  0  0  0  0  0  0  0  0  0  0  0
  1  2  1  0  0  0  0
  2  3  2  0  0  0  0
  3  4  1  0  0  0  0
  4  5  1  0  0  0  0
  5  6  2  0  0  0  0
  6  7  1  0  0  0  0
  7  8  2  0  0  0  0
  8  9  1  0  0  0  0
  9 10  2  0  0  0  0
  4 11  1  0  0  0  0
 11 12  2  0  0  0  0
 12 13  1  0  0  0  0
 13 14  2  0  0  0  0
 13 15  1  0  0  0  0
 15 16  1  0  0  0  0
 16 17  2  0  0  0  0
 17 18  1  0  0  0  0
 18 19  2  0  0  0  0
 19 20  1  0  0  0  0
 20 21  1  0  0  0  0
 21 22  2  0  0  0  0
 22 23  1  0  0  0  0
 23 24  2  0  0  0  0
 24 25  1  0  0  0  0
 25 26  2  0  0  0  0
 26 27  1  0  0  0  0
 27 28  2  0  0  0  0
 28 29  1  0  0  0  0
 29 30  1  0  0  0  0
 30 31  1  0  0  0  0
 31 32  2  0  0  0  0
 32 33  1  0  0  0  0
 33 34  2  0  0  0  0
 34 35  1  0  0  0  0
 35 36  2  0  0  0  0
 36 37  1  0  0  0  0
 37 38  2  0  0  0  0
 38 39  1  0  0  0  0
 39 40  2  0  0  0  0
 40 41  1  0  0  0  0
 41 42  2  0  0  0  0
 29 43  2  0  0  0  0
 43 44  1  0  0  0  0
 44 45  2  0  0  0  0
 19 46  1  0  0  0  0
 46 47  2  0  0  0  0
 12  2  1  0  0  0  0
 47 16  1  0  0  0  0
 10  5  1  0  0  0  0
 47 11  1  0  0  0  0
 45 20  1  0  0  0  0
 26 21  1  0  0  0  0
 45 27  1  0  0  0  0
 42 30  1  0  0  0  0
 36 31  1  0  0  0  0
 42 37  1  0  0  0  0
  1 48  1  0  0  0  0
  1 49  1  0  0  0  0
  1 50  1  0  0  0  0
  6 51  1  0  0  0  0
  7 52  1  0  0  0  0
  8 53  1  0  0  0  0
  9 54  1  0  0  0  0
 10 55  1  0  0  0  0
 17 56  1  0  0  0  0
 18 57  1  0  0  0  0
 22 58  1  0  0  0  0
 23 59  1  0  0  0  0
 24 60  1  0  0  0  0
 25 61  1  0  0  0  0
 28 62  1  0  0  0  0
 32 63  1  0  0  0  0
 33 64  1  0  0  0  0
 34 65  1  0  0  0  0
 35 66  1  0  0  0  0
 38 67  1  0  0  0  0
 39 68  1  0  0  0  0
 40 69  1  0  0  0  0
 41 70  1  0  0  0  0
 43 71  1  0  0  0  0
 44 72  1  0  0  0  0
 46 73  1  0  0  0  0
M  END
