
  xtb     03022215463D
 energy: -107.745345193733 gnorm: 0.000798240684 xtb: 6.4.1 (afa7bdf)
 66 69  0     0  0            999 V2000
   -4.5713    6.3598    0.0761 C   0  0  0  0  0  0  0  0  0  0  0  0
   -4.3309    5.6882    1.4212 C   0  0  0  0  0  0  0  0  0  0  0  0
   -3.7361    4.4018    1.2660 O   0  0  0  0  0  0  0  0  0  0  0  0
   -2.4046    4.3725    1.0743 C   0  0  0  0  0  0  0  0  0  0  0  0
   -1.7168    5.3645    1.0578 O   0  0  0  0  0  0  0  0  0  0  0  0
   -1.8771    3.0084    0.8976 C   0  0  0  0  0  0  0  0  0  0  0  0
   -2.6599    1.9196    0.9567 C   0  0  0  0  0  0  0  0  0  0  0  0
   -2.3078    0.5396    0.8044 C   0  0  0  0  0  0  0  0  0  0  0  0
   -1.1287   -0.0050    0.4406 N   0  0  0  0  0  4  0  0  0  0  0  0
   -1.2785   -1.3717    0.4186 C   0  0  0  0  0  0  0  0  0  0  0  0
   -0.2530   -2.2423    0.0541 C   0  0  0  0  0  0  0  0  0  0  0  0
   -0.4862   -3.7005    0.0560 C   0  0  0  0  0  0  0  0  0  0  0  0
   -1.0105   -4.3186   -1.0795 C   0  0  0  0  0  0  0  0  0  0  0  0
   -1.3407   -3.5041   -2.2932 C   0  0  0  0  0  0  0  0  0  0  0  0
   -1.2166   -5.6898   -1.0600 C   0  0  0  0  0  0  0  0  0  0  0  0
   -0.9142   -6.4519    0.0588 C   0  0  0  0  0  0  0  0  0  0  0  0
   -1.1585   -7.9296    0.0750 C   0  0  0  0  0  0  0  0  0  0  0  0
   -0.3949   -5.8141    1.1777 C   0  0  0  0  0  0  0  0  0  0  0  0
   -0.1745   -4.4464    1.1942 C   0  0  0  0  0  0  0  0  0  0  0  0
    0.3884   -3.7670    2.4054 C   0  0  0  0  0  0  0  0  0  0  0  0
    0.9879   -1.7337   -0.3181 C   0  0  0  0  0  0  0  0  0  0  0  0
    2.1623   -2.4107   -0.7330 C   0  0  0  0  0  0  0  0  0  0  0  0
    3.1045   -1.4493   -0.9860 C   0  0  0  0  0  0  0  0  0  0  0  0
    2.5073   -0.1888   -0.7275 C   0  0  0  0  0  0  0  0  0  0  0  0
    3.0805    1.1164   -0.8398 C   0  0  0  0  0  0  0  0  0  0  0  0
    4.3499    1.3602   -1.2028 C   0  0  0  0  0  0  0  0  0  0  0  0
    4.9165    2.7170   -1.3007 C   0  0  0  0  0  0  0  0  0  0  0  0
    6.0740    2.9338   -1.5773 O   0  0  0  0  0  0  0  0  0  0  0  0
    4.0126    3.6707   -1.0589 O   0  0  0  0  0  0  0  0  0  0  0  0
    4.4630    5.0229   -1.0933 C   0  0  0  0  0  0  0  0  0  0  0  0
    5.0750    5.4359    0.2381 C   0  0  0  0  0  0  0  0  0  0  0  0
    1.2361   -0.3874   -0.3310 N   0  0  0  0  0  0  0  0  0  0  0  0
    0.2077    0.6983    0.0790 B   0  0  0  0  0  4  0  0  0  0  0  0
    0.0107    1.5608   -0.9785 F   0  0  0  0  0  0  0  0  0  0  0  0
    0.6966    1.3752    1.1788 F   0  0  0  0  0  0  0  0  0  0  0  0
   -2.6055   -1.6928    0.7940 C   0  0  0  0  0  0  0  0  0  0  0  0
   -3.2429   -0.5046    1.0260 C   0  0  0  0  0  0  0  0  0  0  0  0
   -5.0805    7.3073    0.2275 H   0  0  0  0  0  0  0  0  0  0  0  0
   -3.6211    6.5447   -0.4187 H   0  0  0  0  0  0  0  0  0  0  0  0
   -5.1827    5.7232   -0.5592 H   0  0  0  0  0  0  0  0  0  0  0  0
   -3.6760    6.3108    2.0402 H   0  0  0  0  0  0  0  0  0  0  0  0
   -5.2723    5.5039    1.9437 H   0  0  0  0  0  0  0  0  0  0  0  0
   -0.8159    2.9714    0.7243 H   0  0  0  0  0  0  0  0  0  0  0  0
   -3.7144    2.0679    1.1573 H   0  0  0  0  0  0  0  0  0  0  0  0
   -1.6898   -4.1417   -3.1013 H   0  0  0  0  0  0  0  0  0  0  0  0
   -0.4654   -2.9526   -2.6351 H   0  0  0  0  0  0  0  0  0  0  0  0
   -2.1185   -2.7759   -2.0635 H   0  0  0  0  0  0  0  0  0  0  0  0
   -1.6209   -6.1725   -1.9382 H   0  0  0  0  0  0  0  0  0  0  0  0
   -1.2644   -8.3185   -0.9344 H   0  0  0  0  0  0  0  0  0  0  0  0
   -0.3416   -8.4499    0.5705 H   0  0  0  0  0  0  0  0  0  0  0  0
   -2.0750   -8.1495    0.6230 H   0  0  0  0  0  0  0  0  0  0  0  0
   -0.1559   -6.3971    2.0556 H   0  0  0  0  0  0  0  0  0  0  0  0
    1.3506   -3.3107    2.1741 H   0  0  0  0  0  0  0  0  0  0  0  0
   -0.2777   -2.9744    2.7444 H   0  0  0  0  0  0  0  0  0  0  0  0
    0.5270   -4.4777    3.2157 H   0  0  0  0  0  0  0  0  0  0  0  0
    2.2591   -3.4753   -0.8216 H   0  0  0  0  0  0  0  0  0  0  0  0
    4.1110   -1.6016   -1.3200 H   0  0  0  0  0  0  0  0  0  0  0  0
    2.4300    1.9471   -0.6092 H   0  0  0  0  0  0  0  0  0  0  0  0
    5.0497    0.5718   -1.4374 H   0  0  0  0  0  0  0  0  0  0  0  0
    5.1966    5.1342   -1.8991 H   0  0  0  0  0  0  0  0  0  0  0  0
    3.5706    5.6119   -1.3143 H   0  0  0  0  0  0  0  0  0  0  0  0
    5.3462    6.4872    0.2046 H   0  0  0  0  0  0  0  0  0  0  0  0
    5.9677    4.8470    0.4350 H   0  0  0  0  0  0  0  0  0  0  0  0
    4.3605    5.2768    1.0421 H   0  0  0  0  0  0  0  0  0  0  0  0
   -2.9992   -2.6879    0.8660 H   0  0  0  0  0  0  0  0  0  0  0  0
   -4.2617   -0.3578    1.3273 H   0  0  0  0  0  0  0  0  0  0  0  0
  1  2  1  0  0  0  0
  2  3  1  0  0  0  0
  3  4  1  0  0  0  0
  4  5  2  0  0  0  0
  4  6  1  0  0  0  0
  6  7  2  0  0  0  0
  7  8  1  0  0  0  0
  8  9  2  0  0  0  0
  9 10  1  0  0  0  0
 10 11  2  0  0  0  0
 11 12  1  0  0  0  0
 12 13  2  0  0  0  0
 13 14  1  0  0  0  0
 13 15  1  0  0  0  0
 15 16  2  0  0  0  0
 16 17  1  0  0  0  0
 16 18  1  0  0  0  0
 18 19  2  0  0  0  0
 19 20  1  0  0  0  0
 11 21  1  0  0  0  0
 21 22  2  0  0  0  0
 22 23  1  0  0  0  0
 23 24  2  0  0  0  0
 24 25  1  0  0  0  0
 25 26  2  0  0  0  0
 26 27  1  0  0  0  0
 27 28  2  0  0  0  0
 27 29  1  0  0  0  0
 29 30  1  0  0  0  0
 30 31  1  0  0  0  0
 24 32  1  0  0  0  0
 32 33  1  0  0  0  0
 33 34  1  0  0  0  0
 33 35  1  0  0  0  0
 10 36  1  0  0  0  0
 36 37  2  0  0  0  0
 37  8  1  0  0  0  0
 33  9  1  0  0  0  0
 19 12  1  0  0  0  0
 32 21  1  0  0  0  0
  1 38  1  0  0  0  0
  1 39  1  0  0  0  0
  1 40  1  0  0  0  0
  2 41  1  0  0  0  0
  2 42  1  0  0  0  0
  6 43  1  0  0  0  0
  7 44  1  0  0  0  0
 14 45  1  0  0  0  0
 14 46  1  0  0  0  0
 14 47  1  0  0  0  0
 15 48  1  0  0  0  0
 17 49  1  0  0  0  0
 17 50  1  0  0  0  0
 17 51  1  0  0  0  0
 18 52  1  0  0  0  0
 20 53  1  0  0  0  0
 20 54  1  0  0  0  0
 20 55  1  0  0  0  0
 22 56  1  0  0  0  0
 23 57  1  0  0  0  0
 25 58  1  0  0  0  0
 26 59  1  0  0  0  0
 30 60  1  0  0  0  0
 30 61  1  0  0  0  0
 31 62  1  0  0  0  0
 31 63  1  0  0  0  0
 31 64  1  0  0  0  0
 36 65  1  0  0  0  0
 37 66  1  0  0  0  0
M  CHG  1   9   1
M  CHG  1  33  -1
M  END
