
  xtb     03022214323D
 energy: -81.312964498095 gnorm: 0.000179763759 xtb: 6.4.1 (afa7bdf)
 49 51  0     0  0            999 V2000
   -7.2925   -1.8200   -1.3913 C   0  0  0  0  0  0  0  0  0  0  0  0
   -6.1647   -2.5202   -0.9168 O   0  0  0  0  0  0  0  0  0  0  0  0
   -4.9992   -1.8547   -0.7616 C   0  0  0  0  0  0  0  0  0  0  0  0
   -3.9228   -2.6105   -0.2817 C   0  0  0  0  0  0  0  0  0  0  0  0
   -2.6887   -2.0378   -0.0906 C   0  0  0  0  0  0  0  0  0  0  0  0
   -2.4805   -0.6829   -0.3723 C   0  0  0  0  0  0  0  0  0  0  0  0
   -1.1910   -0.0123   -0.1948 C   0  0  0  0  0  0  0  0  0  0  0  0
   -0.0201   -0.7010    0.1452 C   0  0  0  0  0  0  0  0  0  0  0  0
    1.1332    0.0302    0.4323 C   0  0  0  0  0  0  0  0  0  0  0  0
    2.3756   -0.6209    0.8531 C   0  0  0  0  0  0  0  0  0  0  0  0
    2.4113   -1.8825    1.4541 C   0  0  0  0  0  0  0  0  0  0  0  0
    3.6110   -2.4475    1.8151 C   0  0  0  0  0  0  0  0  0  0  0  0
    4.8176   -1.7770    1.5808 C   0  0  0  0  0  0  0  0  0  0  0  0
    5.9377   -2.4308    1.9640 O   0  0  0  0  0  0  0  0  0  0  0  0
    7.1892   -1.8143    1.7635 C   0  0  0  0  0  0  0  0  0  0  0  0
    4.7878   -0.5156    0.9880 C   0  0  0  0  0  0  0  0  0  0  0  0
    3.5798    0.0514    0.6387 C   0  0  0  0  0  0  0  0  0  0  0  0
    1.1759    1.3124    0.3585 O   0  0  0  0  0  3  0  0  0  0  0  0
    0.0509    2.0864   -0.2960 B   0  0  0  0  0  4  0  0  0  0  0  0
    0.5222    2.5442   -1.7990 C   0  0  0  0  0  0  0  0  0  0  0  0
   -0.6019    2.8946   -2.7465 C   0  0  0  0  0  0  0  0  0  0  0  0
    1.6893    2.6582   -2.1218 O   0  0  0  0  0  0  0  0  0  0  0  0
   -0.2334    3.4781    0.5036 C   0  0  0  0  0  0  0  0  0  0  0  0
    0.9407    4.0271    1.2823 C   0  0  0  0  0  0  0  0  0  0  0  0
   -1.2800    4.0910    0.4216 O   0  0  0  0  0  0  0  0  0  0  0  0
   -1.1981    1.2604   -0.3720 O   0  0  0  0  0  0  0  0  0  0  0  0
   -3.5633    0.0668   -0.8404 C   0  0  0  0  0  0  0  0  0  0  0  0
   -4.8034   -0.5019   -1.0372 C   0  0  0  0  0  0  0  0  0  0  0  0
   -7.1210   -1.4184   -2.3946 H   0  0  0  0  0  0  0  0  0  0  0  0
   -8.0977   -2.5516   -1.4290 H   0  0  0  0  0  0  0  0  0  0  0  0
   -7.5730   -1.0072   -0.7149 H   0  0  0  0  0  0  0  0  0  0  0  0
   -4.0920   -3.6534   -0.0649 H   0  0  0  0  0  0  0  0  0  0  0  0
   -1.8872   -2.6496    0.2903 H   0  0  0  0  0  0  0  0  0  0  0  0
   -0.0050   -1.7713    0.2032 H   0  0  0  0  0  0  0  0  0  0  0  0
    1.4952   -2.4108    1.6669 H   0  0  0  0  0  0  0  0  0  0  0  0
    3.6519   -3.4162    2.2874 H   0  0  0  0  0  0  0  0  0  0  0  0
    7.2673   -0.8757    2.3203 H   0  0  0  0  0  0  0  0  0  0  0  0
    7.3776   -1.6266    0.7021 H   0  0  0  0  0  0  0  0  0  0  0  0
    7.9275   -2.5197    2.1411 H   0  0  0  0  0  0  0  0  0  0  0  0
    5.6981    0.0286    0.7937 H   0  0  0  0  0  0  0  0  0  0  0  0
    3.5515    1.0232    0.1698 H   0  0  0  0  0  0  0  0  0  0  0  0
   -1.1871    1.9998   -2.9501 H   0  0  0  0  0  0  0  0  0  0  0  0
   -0.2195    3.3072   -3.6771 H   0  0  0  0  0  0  0  0  0  0  0  0
   -1.2528    3.6098   -2.2484 H   0  0  0  0  0  0  0  0  0  0  0  0
    0.6908    4.9757    1.7513 H   0  0  0  0  0  0  0  0  0  0  0  0
    1.7704    4.1545    0.5905 H   0  0  0  0  0  0  0  0  0  0  0  0
    1.2467    3.3022    2.0328 H   0  0  0  0  0  0  0  0  0  0  0  0
   -3.4139    1.1155   -1.0467 H   0  0  0  0  0  0  0  0  0  0  0  0
   -5.6102    0.1130   -1.4026 H   0  0  0  0  0  0  0  0  0  0  0  0
  1  2  1  0  0  0  0
  2  3  1  0  0  0  0
  3  4  2  0  0  0  0
  4  5  1  0  0  0  0
  5  6  2  0  0  0  0
  6  7  1  0  0  0  0
  7  8  2  0  0  0  0
  8  9  1  0  0  0  0
  9 10  1  0  0  0  0
 10 11  2  0  0  0  0
 11 12  1  0  0  0  0
 12 13  2  0  0  0  0
 13 14  1  0  0  0  0
 14 15  1  0  0  0  0
 13 16  1  0  0  0  0
 16 17  2  0  0  0  0
  9 18  2  0  0  0  0
 18 19  1  0  0  0  0
 19 20  1  0  0  0  0
 20 21  1  0  0  0  0
 20 22  2  0  0  0  0
 19 23  1  0  0  0  0
 23 24  1  0  0  0  0
 23 25  2  0  0  0  0
 19 26  1  0  0  0  0
  6 27  1  0  0  0  0
 27 28  2  0  0  0  0
 28  3  1  0  0  0  0
 26  7  1  0  0  0  0
 17 10  1  0  0  0  0
  1 29  1  0  0  0  0
  1 30  1  0  0  0  0
  1 31  1  0  0  0  0
  4 32  1  0  0  0  0
  5 33  1  0  0  0  0
  8 34  1  0  0  0  0
 11 35  1  0  0  0  0
 12 36  1  0  0  0  0
 15 37  1  0  0  0  0
 15 38  1  0  0  0  0
 15 39  1  0  0  0  0
 16 40  1  0  0  0  0
 17 41  1  0  0  0  0
 21 42  1  0  0  0  0
 21 43  1  0  0  0  0
 21 44  1  0  0  0  0
 24 45  1  0  0  0  0
 24 46  1  0  0  0  0
 24 47  1  0  0  0  0
 27 48  1  0  0  0  0
 28 49  1  0  0  0  0
M  CHG  1  18   1
M  CHG  1  19  -1
M  END
