
  xtb     03022214433D
 energy: -86.468007579914 gnorm: 0.000126066442 xtb: 6.4.1 (afa7bdf)
 54 59  0     0  0            999 V2000
   -4.6509    0.4548    0.5840 N   0  0  0  0  0  0  0  0  0  0  0  0
   -3.5252    0.2642    0.4680 C   0  0  0  0  0  0  0  0  0  0  0  0
   -2.1325    0.0834    0.3110 C   0  0  0  0  0  0  0  0  0  0  0  0
   -1.2701    0.3906    1.3769 C   0  0  0  0  0  0  0  0  0  0  0  0
   -1.8031    0.7804    2.6917 C   0  0  0  0  0  0  0  0  0  0  0  0
   -1.3015    1.9036    3.3439 C   0  0  0  0  0  0  0  0  0  0  0  0
   -1.7980    2.2744    4.5793 C   0  0  0  0  0  0  0  0  0  0  0  0
   -2.7926    1.5233    5.1830 C   0  0  0  0  0  0  0  0  0  0  0  0
   -3.2886    0.3984    4.5458 C   0  0  0  0  0  0  0  0  0  0  0  0
   -2.7995    0.0281    3.3071 C   0  0  0  0  0  0  0  0  0  0  0  0
    0.1007    0.3356    1.1719 C   0  0  0  0  0  0  0  0  0  0  0  0
    0.6198   -0.0327   -0.0650 C   0  0  0  0  0  0  0  0  0  0  0  0
    2.0126   -0.0806   -0.2628 N   0  0  0  0  0  0  0  0  0  0  0  0
    2.8117   -0.9545    0.4811 C   0  0  0  0  0  0  0  0  0  0  0  0
    2.2805   -1.8421    1.4082 C   0  0  0  0  0  0  0  0  0  0  0  0
    3.1031   -2.6970    2.1262 C   0  0  0  0  0  0  0  0  0  0  0  0
    4.4676   -2.6882    1.9214 C   0  0  0  0  0  0  0  0  0  0  0  0
    5.0103   -1.8322    0.9748 C   0  0  0  0  0  0  0  0  0  0  0  0
    4.1943   -0.9795    0.2548 C   0  0  0  0  0  0  0  0  0  0  0  0
    4.8020   -0.1891   -0.6883 O   0  0  0  0  0  0  0  0  0  0  0  0
    4.0040    0.6586   -1.4144 C   0  0  0  0  0  0  0  0  0  0  0  0
    4.6310    1.4583   -2.3518 C   0  0  0  0  0  0  0  0  0  0  0  0
    3.8981    2.3668   -3.1007 C   0  0  0  0  0  0  0  0  0  0  0  0
    2.5394    2.4820   -2.8890 C   0  0  0  0  0  0  0  0  0  0  0  0
    1.9057    1.6806   -1.9515 C   0  0  0  0  0  0  0  0  0  0  0  0
    2.6191    0.7407   -1.2183 C   0  0  0  0  0  0  0  0  0  0  0  0
   -0.2414   -0.3535   -1.1097 C   0  0  0  0  0  0  0  0  0  0  0  0
   -1.6166   -0.2990   -0.9390 C   0  0  0  0  0  0  0  0  0  0  0  0
   -2.5101   -0.6397   -2.0567 C   0  0  0  0  0  0  0  0  0  0  0  0
   -2.2771   -0.1056   -3.3215 C   0  0  0  0  0  0  0  0  0  0  0  0
   -3.1127   -0.4180   -4.3772 C   0  0  0  0  0  0  0  0  0  0  0  0
   -4.1839   -1.2747   -4.1860 C   0  0  0  0  0  0  0  0  0  0  0  0
   -4.4150   -1.8195   -2.9342 C   0  0  0  0  0  0  0  0  0  0  0  0
   -3.5855   -1.5045   -1.8743 C   0  0  0  0  0  0  0  0  0  0  0  0
   -0.5365    2.4995    2.8669 H   0  0  0  0  0  0  0  0  0  0  0  0
   -1.4091    3.1536    5.0716 H   0  0  0  0  0  0  0  0  0  0  0  0
   -3.1799    1.8141    6.1480 H   0  0  0  0  0  0  0  0  0  0  0  0
   -4.0606   -0.1933    5.0144 H   0  0  0  0  0  0  0  0  0  0  0  0
   -3.1810   -0.8580    2.8212 H   0  0  0  0  0  0  0  0  0  0  0  0
    0.7719    0.5765    1.9830 H   0  0  0  0  0  0  0  0  0  0  0  0
    1.2141   -1.8749    1.5672 H   0  0  0  0  0  0  0  0  0  0  0  0
    2.6622   -3.3715    2.8439 H   0  0  0  0  0  0  0  0  0  0  0  0
    5.1124   -3.3475    2.4805 H   0  0  0  0  0  0  0  0  0  0  0  0
    6.0695   -1.8145    0.7739 H   0  0  0  0  0  0  0  0  0  0  0  0
    5.6974    1.3580   -2.4758 H   0  0  0  0  0  0  0  0  0  0  0  0
    4.3954    2.9841   -3.8319 H   0  0  0  0  0  0  0  0  0  0  0  0
    1.9582    3.1998   -3.4472 H   0  0  0  0  0  0  0  0  0  0  0  0
    0.8465    1.7976   -1.7827 H   0  0  0  0  0  0  0  0  0  0  0  0
    0.1668   -0.6663   -2.0593 H   0  0  0  0  0  0  0  0  0  0  0  0
   -1.4504    0.5744   -3.4702 H   0  0  0  0  0  0  0  0  0  0  0  0
   -2.9286    0.0100   -5.3516 H   0  0  0  0  0  0  0  0  0  0  0  0
   -4.8362   -1.5178   -5.0114 H   0  0  0  0  0  0  0  0  0  0  0  0
   -5.2453   -2.4925   -2.7814 H   0  0  0  0  0  0  0  0  0  0  0  0
   -3.7625   -1.9445   -0.9039 H   0  0  0  0  0  0  0  0  0  0  0  0
  1  2  3  0  0  0  0
  2  3  1  0  0  0  0
  3  4  2  0  0  0  0
  4  5  1  0  0  0  0
  5  6  2  0  0  0  0
  6  7  1  0  0  0  0
  7  8  2  0  0  0  0
  8  9  1  0  0  0  0
  9 10  2  0  0  0  0
  4 11  1  0  0  0  0
 11 12  2  0  0  0  0
 12 13  1  0  0  0  0
 13 14  1  0  0  0  0
 14 15  2  0  0  0  0
 15 16  1  0  0  0  0
 16 17  2  0  0  0  0
 17 18  1  0  0  0  0
 18 19  2  0  0  0  0
 19 20  1  0  0  0  0
 20 21  1  0  0  0  0
 21 22  2  0  0  0  0
 22 23  1  0  0  0  0
 23 24  2  0  0  0  0
 24 25  1  0  0  0  0
 25 26  2  0  0  0  0
 12 27  1  0  0  0  0
 27 28  2  0  0  0  0
 28 29  1  0  0  0  0
 29 30  2  0  0  0  0
 30 31  1  0  0  0  0
 31 32  2  0  0  0  0
 32 33  1  0  0  0  0
 33 34  2  0  0  0  0
 28  3  1  0  0  0  0
 34 29  1  0  0  0  0
 10  5  1  0  0  0  0
 26 13  1  0  0  0  0
 19 14  1  0  0  0  0
 26 21  1  0  0  0  0
  6 35  1  0  0  0  0
  7 36  1  0  0  0  0
  8 37  1  0  0  0  0
  9 38  1  0  0  0  0
 10 39  1  0  0  0  0
 11 40  1  0  0  0  0
 15 41  1  0  0  0  0
 16 42  1  0  0  0  0
 17 43  1  0  0  0  0
 18 44  1  0  0  0  0
 22 45  1  0  0  0  0
 23 46  1  0  0  0  0
 24 47  1  0  0  0  0
 25 48  1  0  0  0  0
 27 49  1  0  0  0  0
 30 50  1  0  0  0  0
 31 51  1  0  0  0  0
 32 52  1  0  0  0  0
 33 53  1  0  0  0  0
 34 54  1  0  0  0  0
M  END
