
  xtb     03022213073D
 energy: -131.099244394425 gnorm: 0.000188448857 xtb: 6.4.1 (afa7bdf)
 82 92  0     0  0            999 V2000
   -3.0346   -2.2252    0.4965 C   0  0  0  0  0  0  0  0  0  0  0  0
   -3.5724   -0.8894    0.0879 C   0  0  0  0  0  0  0  0  0  0  0  0
   -4.9522   -0.6671    0.0733 C   0  0  0  0  0  0  0  0  0  0  0  0
   -6.0499   -1.4462    0.5547 C   0  0  0  0  0  0  0  0  0  0  0  0
   -6.1745   -2.6397    1.2716 C   0  0  0  0  0  0  0  0  0  0  0  0
   -7.4325   -3.0935    1.5964 C   0  0  0  0  0  0  0  0  0  0  0  0
   -8.5878   -2.3870    1.2405 C   0  0  0  0  0  0  0  0  0  0  0  0
   -8.4979   -1.1944    0.5671 C   0  0  0  0  0  0  0  0  0  0  0  0
   -7.2297   -0.7146    0.2285 C   0  0  0  0  0  0  0  0  0  0  0  0
   -6.8153    0.4738   -0.4158 C   0  0  0  0  0  0  0  0  0  0  0  0
   -7.6519    1.5684   -0.9540 C   0  0  0  0  0  0  0  0  0  0  0  0
   -5.4836    0.4851   -0.4772 N   0  0  0  0  0  4  0  0  0  0  0  0
   -4.6512    1.6225   -1.0970 B   0  0  0  0  0  4  0  0  0  0  0  0
   -4.9539    2.8220   -0.4760 F   0  0  0  0  0  0  0  0  0  0  0  0
   -4.9165    1.7272   -2.4531 F   0  0  0  0  0  0  0  0  0  0  0  0
   -3.1584    1.2908   -0.8819 N   0  0  0  0  0  0  0  0  0  0  0  0
   -2.1535    2.0845   -1.2376 C   0  0  0  0  0  0  0  0  0  0  0  0
   -2.3541    3.3954   -1.8899 C   0  0  0  0  0  0  0  0  0  0  0  0
   -0.9300    1.4570   -0.8883 C   0  0  0  0  0  0  0  0  0  0  0  0
    0.3832    1.8696   -1.0079 C   0  0  0  0  0  0  0  0  0  0  0  0
    1.4121    1.0475   -0.5416 C   0  0  0  0  0  0  0  0  0  0  0  0
    2.7788    1.4487   -0.6605 C   0  0  0  0  0  0  0  0  0  0  0  0
    3.1119    2.7325   -1.3115 C   0  0  0  0  0  0  0  0  0  0  0  0
    3.0076    2.8750   -2.6910 C   0  0  0  0  0  0  0  0  0  0  0  0
    3.3293    4.0775   -3.2947 C   0  0  0  0  0  0  0  0  0  0  0  0
    3.7498    5.1507   -2.5271 C   0  0  0  0  0  0  0  0  0  0  0  0
    3.8495    5.0173   -1.1520 C   0  0  0  0  0  0  0  0  0  0  0  0
    3.5345    3.8143   -0.5462 C   0  0  0  0  0  0  0  0  0  0  0  0
    3.7553    0.6308   -0.1621 C   0  0  0  0  0  0  0  0  0  0  0  0
    3.4240   -0.6151    0.4844 C   0  0  0  0  0  0  0  0  0  0  0  0
    2.1239   -1.0209    0.6158 C   0  0  0  0  0  0  0  0  0  0  0  0
    1.7815   -2.2960    1.2816 C   0  0  0  0  0  0  0  0  0  0  0  0
    1.8330   -2.3976    2.6676 C   0  0  0  0  0  0  0  0  0  0  0  0
    1.5051   -3.5874    3.2929 C   0  0  0  0  0  0  0  0  0  0  0  0
    1.1249   -4.6867    2.5410 C   0  0  0  0  0  0  0  0  0  0  0  0
    1.0728   -4.5925    1.1602 C   0  0  0  0  0  0  0  0  0  0  0  0
    1.3967   -3.4029    0.5326 C   0  0  0  0  0  0  0  0  0  0  0  0
    1.0827   -0.1939    0.0954 C   0  0  0  0  0  0  0  0  0  0  0  0
   -0.2561   -0.5883    0.2267 C   0  0  0  0  0  0  0  0  0  0  0  0
   -1.2658    0.1989   -0.2882 C   0  0  0  0  0  0  0  0  0  0  0  0
   -2.6967    0.1130   -0.3204 C   0  0  0  0  0  0  0  0  0  0  0  0
    4.6694   -1.2628    0.8790 C   0  0  0  0  0  0  0  0  0  0  0  0
    5.0104   -2.4426    1.4951 C   0  0  0  0  0  0  0  0  0  0  0  0
    6.3736   -2.7275    1.6953 C   0  0  0  0  0  0  0  0  0  0  0  0
    7.3796   -1.8823    1.2951 C   0  0  0  0  0  0  0  0  0  0  0  0
    7.0679   -0.6667    0.6472 C   0  0  0  0  0  0  0  0  0  0  0  0
    7.9646    0.3052    0.1508 C   0  0  0  0  0  0  0  0  0  0  0  0
    7.4840    1.4273   -0.4785 C   0  0  0  0  0  0  0  0  0  0  0  0
    6.1105    1.6754   -0.6572 C   0  0  0  0  0  0  0  0  0  0  0  0
    5.2085    0.7584   -0.1747 C   0  0  0  0  0  0  0  0  0  0  0  0
    5.7087   -0.3986    0.4651 C   0  0  0  0  0  0  0  0  0  0  0  0
   -2.8245   -2.2529    1.5657 H   0  0  0  0  0  0  0  0  0  0  0  0
   -3.7537   -3.0029    0.2601 H   0  0  0  0  0  0  0  0  0  0  0  0
   -2.1169   -2.4388   -0.0430 H   0  0  0  0  0  0  0  0  0  0  0  0
   -5.3129   -3.2007    1.5945 H   0  0  0  0  0  0  0  0  0  0  0  0
   -7.5355   -4.0168    2.1480 H   0  0  0  0  0  0  0  0  0  0  0  0
   -9.5537   -2.7838    1.5156 H   0  0  0  0  0  0  0  0  0  0  0  0
   -9.3831   -0.6318    0.3110 H   0  0  0  0  0  0  0  0  0  0  0  0
   -7.3633    1.7850   -1.9811 H   0  0  0  0  0  0  0  0  0  0  0  0
   -8.7039    1.3020   -0.9162 H   0  0  0  0  0  0  0  0  0  0  0  0
   -7.4867    2.4782   -0.3771 H   0  0  0  0  0  0  0  0  0  0  0  0
   -2.8787    4.0685   -1.2122 H   0  0  0  0  0  0  0  0  0  0  0  0
   -2.9840    3.2780   -2.7704 H   0  0  0  0  0  0  0  0  0  0  0  0
   -1.4019    3.8339   -2.1735 H   0  0  0  0  0  0  0  0  0  0  0  0
    0.6208    2.8269   -1.4469 H   0  0  0  0  0  0  0  0  0  0  0  0
    2.6795    2.0354   -3.2871 H   0  0  0  0  0  0  0  0  0  0  0  0
    3.2502    4.1777   -4.3674 H   0  0  0  0  0  0  0  0  0  0  0  0
    3.9994    6.0893   -2.9995 H   0  0  0  0  0  0  0  0  0  0  0  0
    4.1762    5.8525   -0.5497 H   0  0  0  0  0  0  0  0  0  0  0  0
    3.6149    3.7046    0.5257 H   0  0  0  0  0  0  0  0  0  0  0  0
    2.1323   -1.5384    3.2502 H   0  0  0  0  0  0  0  0  0  0  0  0
    1.5470   -3.6571    4.3701 H   0  0  0  0  0  0  0  0  0  0  0  0
    0.8699   -5.6153    3.0301 H   0  0  0  0  0  0  0  0  0  0  0  0
    0.7778   -5.4481    0.5703 H   0  0  0  0  0  0  0  0  0  0  0  0
    1.3577   -3.3258   -0.5447 H   0  0  0  0  0  0  0  0  0  0  0  0
   -0.4636   -1.5021    0.7574 H   0  0  0  0  0  0  0  0  0  0  0  0
    4.2666   -3.1520    1.8237 H   0  0  0  0  0  0  0  0  0  0  0  0
    6.6314   -3.6566    2.1842 H   0  0  0  0  0  0  0  0  0  0  0  0
    8.4136   -2.1444    1.4681 H   0  0  0  0  0  0  0  0  0  0  0  0
    9.0289    0.1564    0.2641 H   0  0  0  0  0  0  0  0  0  0  0  0
    8.1848    2.1573   -0.8589 H   0  0  0  0  0  0  0  0  0  0  0  0
    5.7963    2.5720   -1.1690 H   0  0  0  0  0  0  0  0  0  0  0  0
  1  2  1  0  0  0  0
  2  3  2  0  0  0  0
  3  4  1  0  0  0  0
  4  5  2  0  0  0  0
  5  6  1  0  0  0  0
  6  7  2  0  0  0  0
  7  8  1  0  0  0  0
  8  9  2  0  0  0  0
  9 10  1  0  0  0  0
 10 11  1  0  0  0  0
 10 12  2  0  0  0  0
 12 13  1  0  0  0  0
 13 14  1  0  0  0  0
 13 15  1  0  0  0  0
 13 16  1  0  0  0  0
 16 17  1  0  0  0  0
 17 18  1  0  0  0  0
 17 19  2  0  0  0  0
 19 20  1  0  0  0  0
 20 21  2  0  0  0  0
 21 22  1  0  0  0  0
 22 23  1  0  0  0  0
 23 24  2  0  0  0  0
 24 25  1  0  0  0  0
 25 26  2  0  0  0  0
 26 27  1  0  0  0  0
 27 28  2  0  0  0  0
 22 29  2  0  0  0  0
 29 30  1  0  0  0  0
 30 31  2  0  0  0  0
 31 32  1  0  0  0  0
 32 33  2  0  0  0  0
 33 34  1  0  0  0  0
 34 35  2  0  0  0  0
 35 36  1  0  0  0  0
 36 37  2  0  0  0  0
 31 38  1  0  0  0  0
 38 39  2  0  0  0  0
 39 40  1  0  0  0  0
 40 41  2  0  0  0  0
 30 42  1  0  0  0  0
 42 43  2  0  0  0  0
 43 44  1  0  0  0  0
 44 45  2  0  0  0  0
 45 46  1  0  0  0  0
 46 47  1  0  0  0  0
 47 48  2  0  0  0  0
 48 49  1  0  0  0  0
 49 50  2  0  0  0  0
 50 51  1  0  0  0  0
 41  2  1  0  0  0  0
 51 42  1  0  0  0  0
 12  3  1  0  0  0  0
 41 16  1  0  0  0  0
 51 46  2  0  0  0  0
  9  4  1  0  0  0  0
 40 19  1  0  0  0  0
 38 21  1  0  0  0  0
 28 23  1  0  0  0  0
 50 29  1  0  0  0  0
 37 32  1  0  0  0  0
  1 52  1  0  0  0  0
  1 53  1  0  0  0  0
  1 54  1  0  0  0  0
  5 55  1  0  0  0  0
  6 56  1  0  0  0  0
  7 57  1  0  0  0  0
  8 58  1  0  0  0  0
 11 59  1  0  0  0  0
 11 60  1  0  0  0  0
 11 61  1  0  0  0  0
 18 62  1  0  0  0  0
 18 63  1  0  0  0  0
 18 64  1  0  0  0  0
 20 65  1  0  0  0  0
 24 66  1  0  0  0  0
 25 67  1  0  0  0  0
 26 68  1  0  0  0  0
 27 69  1  0  0  0  0
 28 70  1  0  0  0  0
 33 71  1  0  0  0  0
 34 72  1  0  0  0  0
 35 73  1  0  0  0  0
 36 74  1  0  0  0  0
 37 75  1  0  0  0  0
 39 76  1  0  0  0  0
 43 77  1  0  0  0  0
 44 78  1  0  0  0  0
 45 79  1  0  0  0  0
 47 80  1  0  0  0  0
 48 81  1  0  0  0  0
 49 82  1  0  0  0  0
M  CHG  1  12   1
M  CHG  1  13  -1
M  END
