
  xtb     03022213053D
 energy: -48.113939661945 gnorm: 0.000370906934 xtb: 6.4.1 (afa7bdf)
 31 33  0     0  0            999 V2000
    8.2322    0.1380    1.4772 N   0  0  0  0  0  0  0  0  0  0  0  0
    7.1043   -0.0367    1.3461 C   0  0  0  0  0  0  0  0  0  0  0  0
    5.7373   -0.2576    1.1905 C   0  0  0  0  0  0  0  0  0  0  0  0
    5.0391   -1.4088    1.4726 C   0  0  0  0  0  0  0  0  0  0  0  0
    3.6746   -1.2964    1.1994 C   0  0  0  0  0  0  0  0  0  0  0  0
    3.3152   -0.0605    0.7067 C   0  0  0  0  0  0  0  0  0  0  0  0
    2.0197    0.3884    0.3272 C   0  0  0  0  0  0  0  0  0  0  0  0
    1.6507    1.6214   -0.1576 C   0  0  0  0  0  0  0  0  0  0  0  0
    0.2845    1.7236   -0.4311 C   0  0  0  0  0  0  0  0  0  0  0  0
   -0.4234    0.5733   -0.1674 C   0  0  0  0  0  0  0  0  0  0  0  0
   -1.8360    0.3050   -0.3154 C   0  0  0  0  0  0  0  0  0  0  0  0
   -2.6997    1.2505   -0.7069 C   0  0  0  0  0  0  0  0  0  0  0  0
   -4.1706    1.0387   -0.8496 C   0  0  0  0  0  0  0  0  0  0  0  0
   -4.6329   -0.2425   -0.1634 C   0  0  0  0  0  0  0  0  0  0  0  0
   -3.6880   -1.3798   -0.5290 C   0  0  0  0  0  0  0  0  0  0  0  0
   -2.2957   -1.0891    0.0204 C   0  0  0  0  0  0  0  0  0  0  0  0
    0.6392   -0.6636    0.4389 S   0  0  0  0  0  0  0  0  0  0  0  0
    4.6927    0.9914    0.5752 S   0  0  0  0  0  0  0  0  0  0  0  0
    5.5104   -2.2937    1.8622 H   0  0  0  0  0  0  0  0  0  0  0  0
    2.9614   -2.0866    1.3531 H   0  0  0  0  0  0  0  0  0  0  0  0
    2.3561    2.4203   -0.3072 H   0  0  0  0  0  0  0  0  0  0  0  0
   -0.1662    2.6194   -0.8169 H   0  0  0  0  0  0  0  0  0  0  0  0
   -2.3467    2.2413   -0.9529 H   0  0  0  0  0  0  0  0  0  0  0  0
   -4.7005    1.9034   -0.4410 H   0  0  0  0  0  0  0  0  0  0  0  0
   -4.4132    0.9958   -1.9178 H   0  0  0  0  0  0  0  0  0  0  0  0
   -4.6243   -0.1008    0.9192 H   0  0  0  0  0  0  0  0  0  0  0  0
   -5.6544   -0.4799   -0.4649 H   0  0  0  0  0  0  0  0  0  0  0  0
   -3.6392   -1.4718   -1.6160 H   0  0  0  0  0  0  0  0  0  0  0  0
   -4.0525   -2.3261   -0.1259 H   0  0  0  0  0  0  0  0  0  0  0  0
   -2.2939   -1.2045    1.1093 H   0  0  0  0  0  0  0  0  0  0  0  0
   -1.5803   -1.8121   -0.3802 H   0  0  0  0  0  0  0  0  0  0  0  0
  1  2  3  0  0  0  0
  2  3  1  0  0  0  0
  3  4  2  0  0  0  0
  4  5  1  0  0  0  0
  5  6  2  0  0  0  0
  6  7  1  0  0  0  0
  7  8  2  0  0  0  0
  8  9  1  0  0  0  0
  9 10  2  0  0  0  0
 10 11  1  0  0  0  0
 11 12  2  0  0  0  0
 12 13  1  0  0  0  0
 13 14  1  0  0  0  0
 14 15  1  0  0  0  0
 15 16  1  0  0  0  0
 10 17  1  0  0  0  0
  6 18  1  0  0  0  0
 18  3  1  0  0  0  0
 17  7  1  0  0  0  0
 16 11  1  0  0  0  0
  4 19  1  0  0  0  0
  5 20  1  0  0  0  0
  8 21  1  0  0  0  0
  9 22  1  0  0  0  0
 12 23  1  0  0  0  0
 13 24  1  0  0  0  0
 13 25  1  0  0  0  0
 14 26  1  0  0  0  0
 14 27  1  0  0  0  0
 15 28  1  0  0  0  0
 15 29  1  0  0  0  0
 16 30  1  0  0  0  0
 16 31  1  0  0  0  0
M  END
