
  xtb     03022213533D
 energy: -139.603567228995 gnorm: 0.000188159889 xtb: 6.4.1 (afa7bdf)
 91 98  0     0  0            999 V2000
   -3.1935    1.2923   -1.1000 C   0  0  0  0  0  0  0  0  0  0  0  0
   -2.6603    0.0606   -0.4567 C   0  0  0  0  0  0  0  0  0  0  0  0
   -3.4278   -0.9704    0.0766 C   0  0  0  0  0  0  0  0  0  0  0  0
   -4.8872   -1.0620    0.1376 C   0  0  0  0  0  0  0  0  0  0  0  0
   -5.6510   -0.0752    0.7533 C   0  0  0  0  0  0  0  0  0  0  0  0
   -7.0249   -0.1700    0.8225 C   0  0  0  0  0  0  0  0  0  0  0  0
   -7.7079   -1.2623    0.2696 C   0  0  0  0  0  0  0  0  0  0  0  0
   -9.0829   -1.3404    0.2948 N   0  0  0  0  0  0  0  0  0  0  0  0
   -9.8353   -0.3971    1.0856 C   0  0  0  0  0  0  0  0  0  0  0  0
   -9.7293   -2.5824   -0.0547 C   0  0  0  0  0  0  0  0  0  0  0  0
   -6.9310   -2.2579   -0.3395 C   0  0  0  0  0  0  0  0  0  0  0  0
   -5.5575   -2.1560   -0.4011 C   0  0  0  0  0  0  0  0  0  0  0  0
   -2.5360   -1.9365    0.5835 C   0  0  0  0  0  0  0  0  0  0  0  0
   -2.8576   -3.2000    1.2823 C   0  0  0  0  0  0  0  0  0  0  0  0
   -1.2775   -1.5298    0.3810 N   0  0  0  0  0  4  0  0  0  0  0  0
   -1.3002   -0.3116   -0.2725 C   0  0  0  0  0  0  0  0  0  0  0  0
   -0.1062    0.3513   -0.5808 C   0  0  0  0  0  0  0  0  0  0  0  0
   -0.1291    1.6686   -1.2026 C   0  0  0  0  0  0  0  0  0  0  0  0
    0.2395    2.8984   -0.6557 C   0  0  0  0  0  0  0  0  0  0  0  0
    0.7430    3.0911    0.7021 C   0  0  0  0  0  0  0  0  0  0  0  0
    0.2074    2.3655    1.7683 C   0  0  0  0  0  0  0  0  0  0  0  0
    0.7658    2.5235    3.0232 C   0  0  0  0  0  0  0  0  0  0  0  0
    1.8275    3.4016    3.1789 C   0  0  0  0  0  0  0  0  0  0  0  0
    2.2751    4.0870    2.0594 C   0  0  0  0  0  0  0  0  0  0  0  0
    1.7577    3.9364    0.8560 N   0  0  0  0  0  0  0  0  0  0  0  0
    0.0955    3.8841   -1.5618 N   0  0  0  0  0  0  0  0  0  0  0  0
   -0.3394    3.3123   -2.6677 C   0  0  0  0  0  0  0  0  0  0  0  0
   -0.6427    3.8641   -3.9196 C   0  0  0  0  0  0  0  0  0  0  0  0
   -1.0596    3.0386   -4.9260 C   0  0  0  0  0  0  0  0  0  0  0  0
   -1.1801    1.6489   -4.7080 C   0  0  0  0  0  0  0  0  0  0  0  0
   -0.8937    1.1147   -3.4896 C   0  0  0  0  0  0  0  0  0  0  0  0
   -0.4924    1.9327   -2.4870 N   0  0  0  0  0  0  0  0  0  0  0  0
    1.1277   -0.1908   -0.2152 C   0  0  0  0  0  0  0  0  0  0  0  0
    2.4565    0.2537   -0.4619 C   0  0  0  0  0  0  0  0  0  0  0  0
    2.9061    1.3850   -1.3174 C   0  0  0  0  0  0  0  0  0  0  0  0
    3.2986   -0.6574    0.1682 C   0  0  0  0  0  0  0  0  0  0  0  0
    4.7565   -0.6112    0.2239 C   0  0  0  0  0  0  0  0  0  0  0  0
    5.5323   -1.7331   -0.0565 C   0  0  0  0  0  0  0  0  0  0  0  0
    6.9087   -1.6854   -0.0003 C   0  0  0  0  0  0  0  0  0  0  0  0
    7.5832   -0.5046    0.3421 C   0  0  0  0  0  0  0  0  0  0  0  0
    8.9586   -0.4466    0.3607 N   0  0  0  0  0  0  0  0  0  0  0  0
    9.7220   -1.6704    0.3171 C   0  0  0  0  0  0  0  0  0  0  0  0
    9.6182    0.7372    0.8542 C   0  0  0  0  0  0  0  0  0  0  0  0
    6.7959    0.6192    0.6306 C   0  0  0  0  0  0  0  0  0  0  0  0
    5.4202    0.5644    0.5665 C   0  0  0  0  0  0  0  0  0  0  0  0
    2.4809   -1.6401    0.7670 C   0  0  0  0  0  0  0  0  0  0  0  0
    2.8901   -2.8096    1.5754 C   0  0  0  0  0  0  0  0  0  0  0  0
    1.1978   -1.3573    0.5244 N   0  0  0  0  0  0  0  0  0  0  0  0
   -0.0144   -2.2058    0.9460 B   0  0  0  0  0  4  0  0  0  0  0  0
   -0.0990   -2.2593    2.3324 F   0  0  0  0  0  0  0  0  0  0  0  0
    0.1093   -3.4921    0.4478 F   0  0  0  0  0  0  0  0  0  0  0  0
   -3.0300    1.2747   -2.1786 H   0  0  0  0  0  0  0  0  0  0  0  0
   -2.7152    2.1863   -0.6999 H   0  0  0  0  0  0  0  0  0  0  0  0
   -4.2650    1.3575   -0.9289 H   0  0  0  0  0  0  0  0  0  0  0  0
   -5.1581    0.7698    1.2130 H   0  0  0  0  0  0  0  0  0  0  0  0
   -7.5637    0.6173    1.3235 H   0  0  0  0  0  0  0  0  0  0  0  0
  -10.8982   -0.5978    0.9706 H   0  0  0  0  0  0  0  0  0  0  0  0
   -9.5864   -0.4536    2.1528 H   0  0  0  0  0  0  0  0  0  0  0  0
   -9.6495    0.6207    0.7369 H   0  0  0  0  0  0  0  0  0  0  0  0
   -9.3995   -3.4150    0.5787 H   0  0  0  0  0  0  0  0  0  0  0  0
   -9.5269   -2.8359   -1.0977 H   0  0  0  0  0  0  0  0  0  0  0  0
  -10.8056   -2.4731    0.0571 H   0  0  0  0  0  0  0  0  0  0  0  0
   -7.3970   -3.1263   -0.7750 H   0  0  0  0  0  0  0  0  0  0  0  0
   -4.9911   -2.9365   -0.8888 H   0  0  0  0  0  0  0  0  0  0  0  0
   -2.5187   -4.0488    0.6887 H   0  0  0  0  0  0  0  0  0  0  0  0
   -2.3226   -3.2408    2.2295 H   0  0  0  0  0  0  0  0  0  0  0  0
   -3.9272   -3.2770    1.4569 H   0  0  0  0  0  0  0  0  0  0  0  0
   -0.6275    1.6999    1.6154 H   0  0  0  0  0  0  0  0  0  0  0  0
    0.3799    1.9675    3.8653 H   0  0  0  0  0  0  0  0  0  0  0  0
    2.2942    3.5499    4.1403 H   0  0  0  0  0  0  0  0  0  0  0  0
    3.0987    4.7870    2.1235 H   0  0  0  0  0  0  0  0  0  0  0  0
   -0.5285    4.9269   -4.0492 H   0  0  0  0  0  0  0  0  0  0  0  0
   -1.2953    3.4395   -5.8990 H   0  0  0  0  0  0  0  0  0  0  0  0
   -1.5010    1.0039   -5.5095 H   0  0  0  0  0  0  0  0  0  0  0  0
   -0.9614    0.0609   -3.2637 H   0  0  0  0  0  0  0  0  0  0  0  0
    2.8205    2.3413   -0.8016 H   0  0  0  0  0  0  0  0  0  0  0  0
    2.3140    1.4436   -2.2294 H   0  0  0  0  0  0  0  0  0  0  0  0
    3.9502    1.2362   -1.5870 H   0  0  0  0  0  0  0  0  0  0  0  0
    5.0488   -2.6549   -0.3450 H   0  0  0  0  0  0  0  0  0  0  0  0
    7.4594   -2.5818   -0.2336 H   0  0  0  0  0  0  0  0  0  0  0  0
    9.5728   -2.1801   -0.6378 H   0  0  0  0  0  0  0  0  0  0  0  0
   10.7808   -1.4400    0.4090 H   0  0  0  0  0  0  0  0  0  0  0  0
    9.4476   -2.3573    1.1267 H   0  0  0  0  0  0  0  0  0  0  0  0
    9.3204    1.6075    0.2662 H   0  0  0  0  0  0  0  0  0  0  0  0
    9.3919    0.9327    1.9100 H   0  0  0  0  0  0  0  0  0  0  0  0
   10.6947    0.6195    0.7502 H   0  0  0  0  0  0  0  0  0  0  0  0
    7.2545    1.5515    0.9160 H   0  0  0  0  0  0  0  0  0  0  0  0
    4.8441    1.4446    0.8124 H   0  0  0  0  0  0  0  0  0  0  0  0
    2.2414   -2.9001    2.4439 H   0  0  0  0  0  0  0  0  0  0  0  0
    2.7716   -3.7228    0.9914 H   0  0  0  0  0  0  0  0  0  0  0  0
    3.9256   -2.7125    1.8904 H   0  0  0  0  0  0  0  0  0  0  0  0
  1  2  1  0  0  0  0
  2  3  2  0  0  0  0
  3  4  1  0  0  0  0
  4  5  2  0  0  0  0
  5  6  1  0  0  0  0
  6  7  2  0  0  0  0
  7  8  1  0  0  0  0
  8  9  1  0  0  0  0
  8 10  1  0  0  0  0
  7 11  1  0  0  0  0
 11 12  2  0  0  0  0
  3 13  1  0  0  0  0
 13 14  1  0  0  0  0
 13 15  2  0  0  0  0
 15 16  1  0  0  0  0
 16 17  2  0  0  0  0
 17 18  1  0  0  0  0
 18 19  2  0  0  0  0
 19 20  1  0  0  0  0
 20 21  2  0  0  0  0
 21 22  1  0  0  0  0
 22 23  2  0  0  0  0
 23 24  1  0  0  0  0
 24 25  2  0  0  0  0
 19 26  1  0  0  0  0
 26 27  2  0  0  0  0
 27 28  1  0  0  0  0
 28 29  2  0  0  0  0
 29 30  1  0  0  0  0
 30 31  2  0  0  0  0
 31 32  1  0  0  0  0
 17 33  1  0  0  0  0
 33 34  2  0  0  0  0
 34 35  1  0  0  0  0
 34 36  1  0  0  0  0
 36 37  1  0  0  0  0
 37 38  2  0  0  0  0
 38 39  1  0  0  0  0
 39 40  2  0  0  0  0
 40 41  1  0  0  0  0
 41 42  1  0  0  0  0
 41 43  1  0  0  0  0
 40 44  1  0  0  0  0
 44 45  2  0  0  0  0
 36 46  2  0  0  0  0
 46 47  1  0  0  0  0
 46 48  1  0  0  0  0
 48 49  1  0  0  0  0
 49 50  1  0  0  0  0
 49 51  1  0  0  0  0
 16  2  1  0  0  0  0
 32 18  1  0  0  0  0
 48 33  1  0  0  0  0
 12  4  1  0  0  0  0
 49 15  1  0  0  0  0
 25 20  1  0  0  0  0
 32 27  1  0  0  0  0
 45 37  1  0  0  0  0
  1 52  1  0  0  0  0
  1 53  1  0  0  0  0
  1 54  1  0  0  0  0
  5 55  1  0  0  0  0
  6 56  1  0  0  0  0
  9 57  1  0  0  0  0
  9 58  1  0  0  0  0
  9 59  1  0  0  0  0
 10 60  1  0  0  0  0
 10 61  1  0  0  0  0
 10 62  1  0  0  0  0
 11 63  1  0  0  0  0
 12 64  1  0  0  0  0
 14 65  1  0  0  0  0
 14 66  1  0  0  0  0
 14 67  1  0  0  0  0
 21 68  1  0  0  0  0
 22 69  1  0  0  0  0
 23 70  1  0  0  0  0
 24 71  1  0  0  0  0
 28 72  1  0  0  0  0
 29 73  1  0  0  0  0
 30 74  1  0  0  0  0
 31 75  1  0  0  0  0
 35 76  1  0  0  0  0
 35 77  1  0  0  0  0
 35 78  1  0  0  0  0
 38 79  1  0  0  0  0
 39 80  1  0  0  0  0
 42 81  1  0  0  0  0
 42 82  1  0  0  0  0
 42 83  1  0  0  0  0
 43 84  1  0  0  0  0
 43 85  1  0  0  0  0
 43 86  1  0  0  0  0
 44 87  1  0  0  0  0
 45 88  1  0  0  0  0
 47 89  1  0  0  0  0
 47 90  1  0  0  0  0
 47 91  1  0  0  0  0
M  CHG  1  15   1
M  CHG  1  49  -1
M  END
