
  xtb     03022214533D
 energy: -44.031988666206 gnorm: 0.000279222782 xtb: 6.4.1 (afa7bdf)
 26 27  0     0  0            999 V2000
    6.4235    2.8372   -0.7525 N   0  0  0  0  0  0  0  0  0  0  0  0
    5.3821    2.3987   -0.5571 C   0  0  0  0  0  0  0  0  0  0  0  0
    4.0993    1.8592   -0.3126 C   0  0  0  0  0  0  0  0  0  0  0  0
    3.4903    1.0444   -1.2708 C   0  0  0  0  0  0  0  0  0  0  0  0
    2.2400    0.5189   -1.0296 C   0  0  0  0  0  0  0  0  0  0  0  0
    1.5816    0.8006    0.1726 C   0  0  0  0  0  0  0  0  0  0  0  0
    0.3042    0.2550    0.4034 C   0  0  0  0  0  0  0  0  0  0  0  0
   -0.7908   -0.2241    0.5803 C   0  0  0  0  0  0  0  0  0  0  0  0
   -2.0620   -0.8106    0.7287 C   0  0  0  0  0  0  0  0  0  0  0  0
   -2.8321   -0.6154    1.8742 C   0  0  0  0  0  0  0  0  0  0  0  0
   -4.0760   -1.2075    1.9836 C   0  0  0  0  0  0  0  0  0  0  0  0
   -4.5730   -2.0008    0.9578 C   0  0  0  0  0  0  0  0  0  0  0  0
   -3.8252   -2.2068   -0.1868 C   0  0  0  0  0  0  0  0  0  0  0  0
   -2.5705   -1.6165   -0.3092 C   0  0  0  0  0  0  0  0  0  0  0  0
   -1.7895   -1.8145   -1.4698 C   0  0  0  0  0  0  0  0  0  0  0  0
   -1.1509   -1.9717   -2.4092 N   0  0  0  0  0  0  0  0  0  0  0  0
    2.1941    1.6166    1.1286 C   0  0  0  0  0  0  0  0  0  0  0  0
    3.4445    2.1428    0.8886 C   0  0  0  0  0  0  0  0  0  0  0  0
    4.0062    0.8322   -2.1955 H   0  0  0  0  0  0  0  0  0  0  0  0
    1.7565   -0.1126   -1.7599 H   0  0  0  0  0  0  0  0  0  0  0  0
   -2.4434    0.0024    2.6701 H   0  0  0  0  0  0  0  0  0  0  0  0
   -4.6656   -1.0512    2.8746 H   0  0  0  0  0  0  0  0  0  0  0  0
   -5.5457   -2.4588    1.0525 H   0  0  0  0  0  0  0  0  0  0  0  0
   -4.2022   -2.8217   -0.9908 H   0  0  0  0  0  0  0  0  0  0  0  0
    1.6796    1.8300    2.0539 H   0  0  0  0  0  0  0  0  0  0  0  0
    3.9253    2.7742    1.6213 H   0  0  0  0  0  0  0  0  0  0  0  0
  1  2  3  0  0  0  0
  2  3  1  0  0  0  0
  3  4  2  0  0  0  0
  4  5  1  0  0  0  0
  5  6  2  0  0  0  0
  6  7  1  0  0  0  0
  7  8  3  0  0  0  0
  8  9  1  0  0  0  0
  9 10  2  0  0  0  0
 10 11  1  0  0  0  0
 11 12  2  0  0  0  0
 12 13  1  0  0  0  0
 13 14  2  0  0  0  0
 14 15  1  0  0  0  0
 15 16  3  0  0  0  0
  6 17  1  0  0  0  0
 17 18  2  0  0  0  0
 18  3  1  0  0  0  0
 14  9  1  0  0  0  0
  4 19  1  0  0  0  0
  5 20  1  0  0  0  0
 10 21  1  0  0  0  0
 11 22  1  0  0  0  0
 12 23  1  0  0  0  0
 13 24  1  0  0  0  0
 17 25  1  0  0  0  0
 18 26  1  0  0  0  0
M  END
