
  xtb     03022215133D
 energy: -145.556645920110 gnorm: 0.000072254914 xtb: 6.4.1 (afa7bdf)
106117  0     0  0            999 V2000
    5.9473    5.4006    0.3580 C   0  0  0  0  0  0  0  0  0  0  0  0
    6.5507    3.9997    0.2253 C   0  0  0  0  0  0  0  0  0  0  0  0
    7.6136    4.0407   -0.8819 C   0  0  0  0  0  0  0  0  0  0  0  0
    7.2077    3.6350    1.5644 C   0  0  0  0  0  0  0  0  0  0  0  0
    5.5124    2.9439   -0.1203 C   0  0  0  0  0  0  0  0  0  0  0  0
    5.9101    1.6186   -0.2699 C   0  0  0  0  0  0  0  0  0  0  0  0
    5.0161    0.6024   -0.5751 C   0  0  0  0  0  0  0  0  0  0  0  0
    3.6774    0.8941   -0.7438 C   0  0  0  0  0  0  0  0  0  0  0  0
    3.2614    2.2506   -0.6081 C   0  0  0  0  0  0  0  0  0  0  0  0
    4.1626    3.2473   -0.2974 C   0  0  0  0  0  0  0  0  0  0  0  0
    1.8176    2.3317   -0.8307 C   0  0  0  0  0  0  0  0  0  0  0  0
    0.8298    3.3043   -0.6312 C   0  0  0  0  0  0  0  0  0  0  0  0
   -0.5204    2.9484   -0.7399 C   0  0  0  0  0  0  0  0  0  0  0  0
   -1.7962    3.5852   -0.4123 C   0  0  0  0  0  0  0  0  0  0  0  0
   -2.0707    4.8862   -0.0581 C   0  0  0  0  0  0  0  0  0  0  0  0
   -3.3818    5.2850    0.2220 C   0  0  0  0  0  0  0  0  0  0  0  0
   -3.6448    6.7305    0.6123 C   0  0  0  0  0  0  0  0  0  0  0  0
   -2.8472    7.0558    1.8836 C   0  0  0  0  0  0  0  0  0  0  0  0
   -3.1949    7.6481   -0.5336 C   0  0  0  0  0  0  0  0  0  0  0  0
   -5.1233    7.0104    0.8943 C   0  0  0  0  0  0  0  0  0  0  0  0
   -4.3878    4.3335    0.1279 C   0  0  0  0  0  0  0  0  0  0  0  0
   -4.1275    3.0128   -0.2220 C   0  0  0  0  0  0  0  0  0  0  0  0
   -2.8365    2.6110   -0.4912 C   0  0  0  0  0  0  0  0  0  0  0  0
   -2.2607    1.3146   -0.8645 C   0  0  0  0  0  0  0  0  0  0  0  0
   -2.6145   -0.0257   -0.8793 C   0  0  0  0  0  0  0  0  0  0  0  0
   -3.7564   -0.8769   -0.5285 C   0  0  0  0  0  0  0  0  0  0  0  0
   -5.0802   -0.5942   -0.2577 C   0  0  0  0  0  0  0  0  0  0  0  0
   -5.9525   -1.6230    0.0671 C   0  0  0  0  0  0  0  0  0  0  0  0
   -5.5471   -2.9526    0.1365 C   0  0  0  0  0  0  0  0  0  0  0  0
   -6.5606   -4.0227    0.5109 C   0  0  0  0  0  0  0  0  0  0  0  0
   -7.6987   -4.0204   -0.5196 C   0  0  0  0  0  0  0  0  0  0  0  0
   -7.1213   -3.7127    1.9064 C   0  0  0  0  0  0  0  0  0  0  0  0
   -5.9517   -5.4271    0.5445 C   0  0  0  0  0  0  0  0  0  0  0  0
   -4.2130   -3.2469   -0.1441 C   0  0  0  0  0  0  0  0  0  0  0  0
   -3.3337   -2.2372   -0.4756 C   0  0  0  0  0  0  0  0  0  0  0  0
   -1.9085   -2.3072   -0.7985 C   0  0  0  0  0  0  0  0  0  0  0  0
   -0.9107   -3.2858   -0.7052 C   0  0  0  0  0  0  0  0  0  0  0  0
    0.4296   -2.9237   -0.8904 C   0  0  0  0  0  0  0  0  0  0  0  0
    1.7240   -3.5709   -0.6751 C   0  0  0  0  0  0  0  0  0  0  0  0
    2.0141   -4.8893   -0.3922 C   0  0  0  0  0  0  0  0  0  0  0  0
    3.3369   -5.2958   -0.2180 C   0  0  0  0  0  0  0  0  0  0  0  0
    3.7171   -6.7341    0.0967 C   0  0  0  0  0  0  0  0  0  0  0  0
    4.6261   -7.2692   -1.0189 C   0  0  0  0  0  0  0  0  0  0  0  0
    2.5001   -7.6572    0.2028 C   0  0  0  0  0  0  0  0  0  0  0  0
    4.4625   -6.7720    1.4386 C   0  0  0  0  0  0  0  0  0  0  0  0
    4.3378   -4.3367   -0.3413 C   0  0  0  0  0  0  0  0  0  0  0  0
    4.0636   -3.0051   -0.6183 C   0  0  0  0  0  0  0  0  0  0  0  0
    2.7563   -2.5941   -0.7844 C   0  0  0  0  0  0  0  0  0  0  0  0
    2.1593   -1.2842   -1.0659 C   0  0  0  0  0  0  0  0  0  0  0  0
    2.5132    0.0561   -1.0505 C   0  0  0  0  0  0  0  0  0  0  0  0
    1.4477    1.0217   -1.1685 C   0  0  0  0  0  0  0  0  0  0  0  0
    0.1147    0.6953   -1.3218 C   0  0  0  0  0  0  0  0  0  0  0  0
   -0.8698    1.6329   -1.0781 C   0  0  0  0  0  0  0  0  0  0  0  0
   -0.2406   -0.6498   -1.3370 C   0  0  0  0  0  0  0  0  0  0  0  0
    0.7567   -1.5951   -1.1982 C   0  0  0  0  0  0  0  0  0  0  0  0
   -1.5607   -0.9842   -1.1076 C   0  0  0  0  0  0  0  0  0  0  0  0
    5.4917    5.7212   -0.5762 H   0  0  0  0  0  0  0  0  0  0  0  0
    5.2020    5.4324    1.1496 H   0  0  0  0  0  0  0  0  0  0  0  0
    6.7328    6.1109    0.6086 H   0  0  0  0  0  0  0  0  0  0  0  0
    8.3564    4.8042   -0.6599 H   0  0  0  0  0  0  0  0  0  0  0  0
    8.1248    3.0868   -0.9770 H   0  0  0  0  0  0  0  0  0  0  0  0
    7.1512    4.2762   -1.8383 H   0  0  0  0  0  0  0  0  0  0  0  0
    7.7132    2.6748    1.5102 H   0  0  0  0  0  0  0  0  0  0  0  0
    7.9406    4.3903    1.8403 H   0  0  0  0  0  0  0  0  0  0  0  0
    6.4558    3.5800    2.3491 H   0  0  0  0  0  0  0  0  0  0  0  0
    6.9500    1.3555   -0.1465 H   0  0  0  0  0  0  0  0  0  0  0  0
    5.3839   -0.4053   -0.6842 H   0  0  0  0  0  0  0  0  0  0  0  0
    3.8011    4.2581   -0.2001 H   0  0  0  0  0  0  0  0  0  0  0  0
    1.1052    4.3013   -0.3151 H   0  0  0  0  0  0  0  0  0  0  0  0
   -1.2583    5.5955   -0.0041 H   0  0  0  0  0  0  0  0  0  0  0  0
   -3.0354    8.0823    2.1916 H   0  0  0  0  0  0  0  0  0  0  0  0
   -3.1440    6.3922    2.6933 H   0  0  0  0  0  0  0  0  0  0  0  0
   -1.7789    6.9397    1.7235 H   0  0  0  0  0  0  0  0  0  0  0  0
   -3.3869    8.6882   -0.2779 H   0  0  0  0  0  0  0  0  0  0  0  0
   -3.7424    7.4092   -1.4432 H   0  0  0  0  0  0  0  0  0  0  0  0
   -2.1334    7.5385   -0.7373 H   0  0  0  0  0  0  0  0  0  0  0  0
   -5.4874    6.3995    1.7172 H   0  0  0  0  0  0  0  0  0  0  0  0
   -5.7327    6.8233    0.0131 H   0  0  0  0  0  0  0  0  0  0  0  0
   -5.2474    8.0553    1.1718 H   0  0  0  0  0  0  0  0  0  0  0  0
   -5.4118    4.6039    0.3280 H   0  0  0  0  0  0  0  0  0  0  0  0
   -4.9499    2.3184   -0.2854 H   0  0  0  0  0  0  0  0  0  0  0  0
   -5.4533    0.4164   -0.3014 H   0  0  0  0  0  0  0  0  0  0  0  0
   -6.9813   -1.3666    0.2715 H   0  0  0  0  0  0  0  0  0  0  0  0
   -8.2137   -3.0641   -0.5403 H   0  0  0  0  0  0  0  0  0  0  0  0
   -7.3050   -4.2169   -1.5148 H   0  0  0  0  0  0  0  0  0  0  0  0
   -8.4253   -4.7930   -0.2767 H   0  0  0  0  0  0  0  0  0  0  0  0
   -6.3161   -3.6883    2.6380 H   0  0  0  0  0  0  0  0  0  0  0  0
   -7.6276   -2.7517    1.9264 H   0  0  0  0  0  0  0  0  0  0  0  0
   -7.8343   -4.4793    2.2027 H   0  0  0  0  0  0  0  0  0  0  0  0
   -6.7191   -6.1479    0.8201 H   0  0  0  0  0  0  0  0  0  0  0  0
   -5.1534   -5.4902    1.2805 H   0  0  0  0  0  0  0  0  0  0  0  0
   -5.5626   -5.7090   -0.4313 H   0  0  0  0  0  0  0  0  0  0  0  0
   -3.8469   -4.2602   -0.1119 H   0  0  0  0  0  0  0  0  0  0  0  0
   -1.1652   -4.2950   -0.4115 H   0  0  0  0  0  0  0  0  0  0  0  0
    1.2002   -5.5917   -0.3144 H   0  0  0  0  0  0  0  0  0  0  0  0
    4.8943   -8.3046   -0.8193 H   0  0  0  0  0  0  0  0  0  0  0  0
    5.5419   -6.6900   -1.0969 H   0  0  0  0  0  0  0  0  0  0  0  0
    4.1119   -7.2239   -1.9769 H   0  0  0  0  0  0  0  0  0  0  0  0
    1.9498   -7.6897   -0.7348 H   0  0  0  0  0  0  0  0  0  0  0  0
    2.8315   -8.6682    0.4319 H   0  0  0  0  0  0  0  0  0  0  0  0
    1.8327   -7.3351    0.9990 H   0  0  0  0  0  0  0  0  0  0  0  0
    5.3764   -6.1857    1.4019 H   0  0  0  0  0  0  0  0  0  0  0  0
    4.7255   -7.7968    1.6924 H   0  0  0  0  0  0  0  0  0  0  0  0
    3.8323   -6.3708    2.2299 H   0  0  0  0  0  0  0  0  0  0  0  0
    5.3714   -4.6242   -0.2194 H   0  0  0  0  0  0  0  0  0  0  0  0
    4.8815   -2.3083   -0.7083 H   0  0  0  0  0  0  0  0  0  0  0  0
  1  2  1  0  0  0  0
  2  3  1  0  0  0  0
  2  4  1  0  0  0  0
  2  5  1  0  0  0  0
  5  6  2  0  0  0  0
  6  7  1  0  0  0  0
  7  8  2  0  0  0  0
  8  9  1  0  0  0  0
  9 10  2  0  0  0  0
  9 11  1  0  0  0  0
 11 12  2  0  0  0  0
 12 13  1  0  0  0  0
 13 14  1  0  0  0  0
 14 15  2  0  0  0  0
 15 16  1  0  0  0  0
 16 17  1  0  0  0  0
 17 18  1  0  0  0  0
 17 19  1  0  0  0  0
 17 20  1  0  0  0  0
 16 21  2  0  0  0  0
 21 22  1  0  0  0  0
 22 23  2  0  0  0  0
 23 24  1  0  0  0  0
 24 25  2  0  0  0  0
 25 26  1  0  0  0  0
 26 27  2  0  0  0  0
 27 28  1  0  0  0  0
 28 29  2  0  0  0  0
 29 30  1  0  0  0  0
 30 31  1  0  0  0  0
 30 32  1  0  0  0  0
 30 33  1  0  0  0  0
 29 34  1  0  0  0  0
 34 35  2  0  0  0  0
 35 36  1  0  0  0  0
 36 37  1  0  0  0  0
 37 38  2  0  0  0  0
 38 39  1  0  0  0  0
 39 40  2  0  0  0  0
 40 41  1  0  0  0  0
 41 42  1  0  0  0  0
 42 43  1  0  0  0  0
 42 44  1  0  0  0  0
 42 45  1  0  0  0  0
 41 46  2  0  0  0  0
 46 47  1  0  0  0  0
 47 48  2  0  0  0  0
 48 49  1  0  0  0  0
 49 50  2  0  0  0  0
 50 51  1  0  0  0  0
 51 52  2  0  0  0  0
 52 53  1  0  0  0  0
 52 54  1  0  0  0  0
 54 55  2  0  0  0  0
 54 56  1  0  0  0  0
 10  5  1  0  0  0  0
 51 11  1  0  0  0  0
 50  8  1  0  0  0  0
 53 13  2  0  0  0  0
 23 14  1  0  0  0  0
 53 24  1  0  0  0  0
 56 25  1  0  0  0  0
 35 26  1  0  0  0  0
 56 36  2  0  0  0  0
 55 38  1  0  0  0  0
 48 39  1  0  0  0  0
 55 49  1  0  0  0  0
  1 57  1  0  0  0  0
  1 58  1  0  0  0  0
  1 59  1  0  0  0  0
  3 60  1  0  0  0  0
  3 61  1  0  0  0  0
  3 62  1  0  0  0  0
  4 63  1  0  0  0  0
  4 64  1  0  0  0  0
  4 65  1  0  0  0  0
  6 66  1  0  0  0  0
  7 67  1  0  0  0  0
 10 68  1  0  0  0  0
 12 69  1  0  0  0  0
 15 70  1  0  0  0  0
 18 71  1  0  0  0  0
 18 72  1  0  0  0  0
 18 73  1  0  0  0  0
 19 74  1  0  0  0  0
 19 75  1  0  0  0  0
 19 76  1  0  0  0  0
 20 77  1  0  0  0  0
 20 78  1  0  0  0  0
 20 79  1  0  0  0  0
 21 80  1  0  0  0  0
 22 81  1  0  0  0  0
 27 82  1  0  0  0  0
 28 83  1  0  0  0  0
 31 84  1  0  0  0  0
 31 85  1  0  0  0  0
 31 86  1  0  0  0  0
 32 87  1  0  0  0  0
 32 88  1  0  0  0  0
 32 89  1  0  0  0  0
 33 90  1  0  0  0  0
 33 91  1  0  0  0  0
 33 92  1  0  0  0  0
 34 93  1  0  0  0  0
 37 94  1  0  0  0  0
 40 95  1  0  0  0  0
 43 96  1  0  0  0  0
 43 97  1  0  0  0  0
 43 98  1  0  0  0  0
 44 99  1  0  0  0  0
 44100  1  0  0  0  0
 44101  1  0  0  0  0
 45102  1  0  0  0  0
 45103  1  0  0  0  0
 45104  1  0  0  0  0
 46105  1  0  0  0  0
 47106  1  0  0  0  0
M  END
