
  xtb     03022215523D
 energy: -70.446595753679 gnorm: 0.000371941394 xtb: 6.4.1 (afa7bdf)
 46 49  0     0  0            999 V2000
    8.9800    0.6842    0.4072 C   0  0  0  0  0  0  0  0  0  0  0  0
    7.5682    0.5673    0.3978 O   0  0  0  0  0  0  0  0  0  0  0  0
    7.0293    0.1085   -0.7508 C   0  0  0  0  0  0  0  0  0  0  0  0
    7.7032   -0.1791   -1.7133 O   0  0  0  0  0  0  0  0  0  0  0  0
    5.5623    0.0042   -0.6904 C   0  0  0  0  0  0  0  0  0  0  0  0
    4.8410    0.3337    0.4594 C   0  0  0  0  0  0  0  0  0  0  0  0
    3.4725    0.2129    0.4757 C   0  0  0  0  0  0  0  0  0  0  0  0
    2.7818   -0.2377   -0.6632 C   0  0  0  0  0  0  0  0  0  0  0  0
    1.4206   -0.2369   -0.7343 N   0  0  0  0  0  0  0  0  0  0  0  0
    0.7384   -0.5401    0.2952 N   0  0  0  0  0  0  0  0  0  0  0  0
   -0.6134   -0.3568    0.2339 C   0  0  0  0  0  0  0  0  0  0  0  0
   -1.3002    0.2395   -0.8359 C   0  0  0  0  0  0  0  0  0  0  0  0
   -2.6620    0.4038   -0.8087 C   0  0  0  0  0  0  0  0  0  0  0  0
   -3.4085   -0.0303    0.3129 C   0  0  0  0  0  0  0  0  0  0  0  0
   -2.7226   -0.6388    1.3891 C   0  0  0  0  0  0  0  0  0  0  0  0
   -1.3584   -0.7923    1.3374 C   0  0  0  0  0  0  0  0  0  0  0  0
   -3.4802   -1.1130    2.6005 C   0  0  0  0  0  0  0  0  0  0  0  0
   -4.9232   -1.4197    2.2298 C   0  0  0  0  0  0  0  0  0  0  0  0
   -5.5127   -0.1995    1.5367 C   0  0  0  0  0  0  0  0  0  0  0  0
   -4.7647    0.1087    0.3414 N   0  0  0  0  0  0  0  0  0  0  0  0
   -5.4533    0.8518   -0.6868 C   0  0  0  0  0  0  0  0  0  0  0  0
   -4.8066    0.6035   -2.0420 C   0  0  0  0  0  0  0  0  0  0  0  0
   -3.3564    1.0573   -1.9737 C   0  0  0  0  0  0  0  0  0  0  0  0
    3.5103   -0.5511   -1.8220 C   0  0  0  0  0  0  0  0  0  0  0  0
    4.8787   -0.4416   -1.8266 C   0  0  0  0  0  0  0  0  0  0  0  0
    9.4441   -0.2934    0.2579 H   0  0  0  0  0  0  0  0  0  0  0  0
    9.3123    1.3526   -0.3903 H   0  0  0  0  0  0  0  0  0  0  0  0
    9.2464    1.0882    1.3807 H   0  0  0  0  0  0  0  0  0  0  0  0
    5.3702    0.6747    1.3359 H   0  0  0  0  0  0  0  0  0  0  0  0
    2.8960    0.4693    1.3525 H   0  0  0  0  0  0  0  0  0  0  0  0
   -0.7274    0.5714   -1.6894 H   0  0  0  0  0  0  0  0  0  0  0  0
   -0.8333   -1.2563    2.1586 H   0  0  0  0  0  0  0  0  0  0  0  0
   -3.4573   -0.3351    3.3705 H   0  0  0  0  0  0  0  0  0  0  0  0
   -2.9930   -1.9969    3.0148 H   0  0  0  0  0  0  0  0  0  0  0  0
   -4.9551   -2.2709    1.5471 H   0  0  0  0  0  0  0  0  0  0  0  0
   -5.5112   -1.6639    3.1150 H   0  0  0  0  0  0  0  0  0  0  0  0
   -5.5094    0.6575    2.2273 H   0  0  0  0  0  0  0  0  0  0  0  0
   -6.5506   -0.3927    1.2490 H   0  0  0  0  0  0  0  0  0  0  0  0
   -5.4402    1.9289   -0.4608 H   0  0  0  0  0  0  0  0  0  0  0  0
   -6.4979    0.5261   -0.7008 H   0  0  0  0  0  0  0  0  0  0  0  0
   -5.3499    1.1446   -2.8172 H   0  0  0  0  0  0  0  0  0  0  0  0
   -4.8485   -0.4633   -2.2700 H   0  0  0  0  0  0  0  0  0  0  0  0
   -3.3181    2.1451   -1.8547 H   0  0  0  0  0  0  0  0  0  0  0  0
   -2.8318    0.8117   -2.8982 H   0  0  0  0  0  0  0  0  0  0  0  0
    2.9759   -0.9007   -2.6921 H   0  0  0  0  0  0  0  0  0  0  0  0
    5.4547   -0.6909   -2.7052 H   0  0  0  0  0  0  0  0  0  0  0  0
  1  2  1  0  0  0  0
  2  3  1  0  0  0  0
  3  4  2  0  0  0  0
  3  5  1  0  0  0  0
  5  6  2  0  0  0  0
  6  7  1  0  0  0  0
  7  8  2  0  0  0  0
  8  9  1  0  0  0  0
  9 10  2  0  0  0  0
 10 11  1  0  0  0  0
 11 12  2  0  0  0  0
 12 13  1  0  0  0  0
 13 14  2  0  0  0  0
 14 15  1  0  0  0  0
 15 16  2  0  0  0  0
 15 17  1  0  0  0  0
 17 18  1  0  0  0  0
 18 19  1  0  0  0  0
 19 20  1  0  0  0  0
 20 21  1  0  0  0  0
 21 22  1  0  0  0  0
 22 23  1  0  0  0  0
  8 24  1  0  0  0  0
 24 25  2  0  0  0  0
 25  5  1  0  0  0  0
 16 11  1  0  0  0  0
 23 13  1  0  0  0  0
 20 14  1  0  0  0  0
  1 26  1  0  0  0  0
  1 27  1  0  0  0  0
  1 28  1  0  0  0  0
  6 29  1  0  0  0  0
  7 30  1  0  0  0  0
 12 31  1  0  0  0  0
 16 32  1  0  0  0  0
 17 33  1  0  0  0  0
 17 34  1  0  0  0  0
 18 35  1  0  0  0  0
 18 36  1  0  0  0  0
 19 37  1  0  0  0  0
 19 38  1  0  0  0  0
 21 39  1  0  0  0  0
 21 40  1  0  0  0  0
 22 41  1  0  0  0  0
 22 42  1  0  0  0  0
 23 43  1  0  0  0  0
 23 44  1  0  0  0  0
 24 45  1  0  0  0  0
 25 46  1  0  0  0  0
M  END
