
  xtb     03022215303D
 energy: -89.840169889986 gnorm: 0.000209690880 xtb: 6.4.1 (afa7bdf)
 56 60  0     0  0            999 V2000
    5.9776   -5.0859   -1.5742 C   0  0  0  0  0  0  0  0  0  0  0  0
    6.0736   -4.3084   -0.4048 O   0  0  0  0  0  0  0  0  0  0  0  0
    5.2973   -3.1992   -0.2931 C   0  0  0  0  0  0  0  0  0  0  0  0
    4.3960   -2.7536   -1.2548 C   0  0  0  0  0  0  0  0  0  0  0  0
    3.6591   -1.6034   -1.0342 C   0  0  0  0  0  0  0  0  0  0  0  0
    3.7986   -0.8881    0.1474 C   0  0  0  0  0  0  0  0  0  0  0  0
    3.0407    0.2749    0.3669 N   0  0  0  0  0  0  0  0  0  0  0  0
    3.5457    1.5099    0.7331 C   0  0  0  0  0  0  0  0  0  0  0  0
    4.8611    1.8998    0.9352 C   0  0  0  0  0  0  0  0  0  0  0  0
    5.0945    3.2177    1.2804 C   0  0  0  0  0  0  0  0  0  0  0  0
    4.0511    4.1308    1.4151 C   0  0  0  0  0  0  0  0  0  0  0  0
    2.7415    3.7526    1.1944 C   0  0  0  0  0  0  0  0  0  0  0  0
    2.4826    2.4337    0.8470 C   0  0  0  0  0  0  0  0  0  0  0  0
    1.2804    1.7098    0.5347 C   0  0  0  0  0  0  0  0  0  0  0  0
   -0.0546    2.0590    0.4864 C   0  0  0  0  0  0  0  0  0  0  0  0
   -1.0115    1.0930    0.1560 C   0  0  0  0  0  0  0  0  0  0  0  0
   -2.3907    1.4991    0.1053 C   0  0  0  0  0  0  0  0  0  0  0  0
   -3.4562    0.7144   -0.1699 C   0  0  0  0  0  0  0  0  0  0  0  0
   -4.8267    1.1286   -0.2135 C   0  0  0  0  0  0  0  0  0  0  0  0
   -5.2706    2.4282   -0.2665 C   0  0  0  0  0  0  0  0  0  0  0  0
   -6.6439    2.7472   -0.1843 C   0  0  0  0  0  0  0  0  0  0  0  0
   -7.7458    3.0548   -0.0897 N   0  0  0  0  0  0  0  0  0  0  0  0
   -4.4699    3.5796   -0.3922 C   0  0  0  0  0  0  0  0  0  0  0  0
   -3.8881    4.5622   -0.5213 N   0  0  0  0  0  0  0  0  0  0  0  0
   -5.8283    0.0479   -0.2030 C   0  0  0  0  0  0  0  0  0  0  0  0
   -6.8713    0.0214   -1.1253 C   0  0  0  0  0  0  0  0  0  0  0  0
   -7.7973   -1.0049   -1.1002 C   0  0  0  0  0  0  0  0  0  0  0  0
   -7.6986   -2.0105   -0.1534 C   0  0  0  0  0  0  0  0  0  0  0  0
   -6.6616   -1.9934    0.7650 C   0  0  0  0  0  0  0  0  0  0  0  0
   -5.7265   -0.9766    0.7365 C   0  0  0  0  0  0  0  0  0  0  0  0
   -0.5891   -0.2268   -0.1058 C   0  0  0  0  0  0  0  0  0  0  0  0
    0.7351   -0.5936   -0.0639 C   0  0  0  0  0  0  0  0  0  0  0  0
    1.6801    0.3808    0.2431 C   0  0  0  0  0  0  0  0  0  0  0  0
    4.6969   -1.3360    1.1138 C   0  0  0  0  0  0  0  0  0  0  0  0
    5.4395   -2.4738    0.8927 C   0  0  0  0  0  0  0  0  0  0  0  0
    6.2603   -4.5125   -2.4628 H   0  0  0  0  0  0  0  0  0  0  0  0
    4.9689   -5.4902   -1.7065 H   0  0  0  0  0  0  0  0  0  0  0  0
    6.6788   -5.9076   -1.4391 H   0  0  0  0  0  0  0  0  0  0  0  0
    4.2632   -3.2863   -2.1829 H   0  0  0  0  0  0  0  0  0  0  0  0
    2.9767   -1.2516   -1.7935 H   0  0  0  0  0  0  0  0  0  0  0  0
    5.6761    1.2019    0.8175 H   0  0  0  0  0  0  0  0  0  0  0  0
    6.1093    3.5474    1.4462 H   0  0  0  0  0  0  0  0  0  0  0  0
    4.2754    5.1509    1.6883 H   0  0  0  0  0  0  0  0  0  0  0  0
    1.9345    4.4634    1.2845 H   0  0  0  0  0  0  0  0  0  0  0  0
   -0.3628    3.0716    0.7004 H   0  0  0  0  0  0  0  0  0  0  0  0
   -2.5592    2.5431    0.3318 H   0  0  0  0  0  0  0  0  0  0  0  0
   -3.3096   -0.3415   -0.3544 H   0  0  0  0  0  0  0  0  0  0  0  0
   -6.9448    0.7935   -1.8772 H   0  0  0  0  0  0  0  0  0  0  0  0
   -8.5995   -1.0175   -1.8225 H   0  0  0  0  0  0  0  0  0  0  0  0
   -8.4269   -2.8073   -0.1318 H   0  0  0  0  0  0  0  0  0  0  0  0
   -6.5812   -2.7746    1.5066 H   0  0  0  0  0  0  0  0  0  0  0  0
   -4.9256   -0.9558    1.4623 H   0  0  0  0  0  0  0  0  0  0  0  0
   -1.3239   -0.9792   -0.3455 H   0  0  0  0  0  0  0  0  0  0  0  0
    1.0326   -1.6139   -0.2539 H   0  0  0  0  0  0  0  0  0  0  0  0
    4.7984   -0.7929    2.0411 H   0  0  0  0  0  0  0  0  0  0  0  0
    6.1389   -2.8328    1.6306 H   0  0  0  0  0  0  0  0  0  0  0  0
  1  2  1  0  0  0  0
  2  3  1  0  0  0  0
  3  4  2  0  0  0  0
  4  5  1  0  0  0  0
  5  6  2  0  0  0  0
  6  7  1  0  0  0  0
  7  8  1  0  0  0  0
  8  9  2  0  0  0  0
  9 10  1  0  0  0  0
 10 11  2  0  0  0  0
 11 12  1  0  0  0  0
 12 13  2  0  0  0  0
 13 14  1  0  0  0  0
 14 15  2  0  0  0  0
 15 16  1  0  0  0  0
 16 17  1  0  0  0  0
 17 18  2  0  0  0  0
 18 19  1  0  0  0  0
 19 20  2  0  0  0  0
 20 21  1  0  0  0  0
 21 22  3  0  0  0  0
 20 23  1  0  0  0  0
 23 24  3  0  0  0  0
 19 25  1  0  0  0  0
 25 26  2  0  0  0  0
 26 27  1  0  0  0  0
 27 28  2  0  0  0  0
 28 29  1  0  0  0  0
 29 30  2  0  0  0  0
 16 31  2  0  0  0  0
 31 32  1  0  0  0  0
 32 33  2  0  0  0  0
  6 34  1  0  0  0  0
 34 35  2  0  0  0  0
 35  3  1  0  0  0  0
 33  7  1  0  0  0  0
 13  8  1  0  0  0  0
 33 14  1  0  0  0  0
 30 25  1  0  0  0  0
  1 36  1  0  0  0  0
  1 37  1  0  0  0  0
  1 38  1  0  0  0  0
  4 39  1  0  0  0  0
  5 40  1  0  0  0  0
  9 41  1  0  0  0  0
 10 42  1  0  0  0  0
 11 43  1  0  0  0  0
 12 44  1  0  0  0  0
 15 45  1  0  0  0  0
 17 46  1  0  0  0  0
 18 47  1  0  0  0  0
 26 48  1  0  0  0  0
 27 49  1  0  0  0  0
 28 50  1  0  0  0  0
 29 51  1  0  0  0  0
 30 52  1  0  0  0  0
 31 53  1  0  0  0  0
 32 54  1  0  0  0  0
 34 55  1  0  0  0  0
 35 56  1  0  0  0  0
M  END
