
  xtb     03022215053D
 energy: -28.140000494154 gnorm: 0.000170420796 xtb: 6.4.1 (afa7bdf)
 17 18  0     0  0            999 V2000
   -2.6229   -2.9542    1.9857 N   0  0  0  0  0  0  0  0  0  0  0  0
   -2.0229   -2.1309    1.4577 C   0  0  0  0  0  0  0  0  0  0  0  0
   -1.2845   -1.1179    0.8086 C   0  0  0  0  0  0  0  0  0  0  0  0
   -1.9546    0.0401    0.3656 C   0  0  0  0  0  0  0  0  0  0  0  0
   -1.2754    1.0499   -0.2699 C   0  0  0  0  0  0  0  0  0  0  0  0
    0.0998    0.9127   -0.4731 C   0  0  0  0  0  0  0  0  0  0  0  0
    1.0946    1.7291   -1.0747 C   0  0  0  0  0  0  0  0  0  0  0  0
    2.2752    1.0575   -0.9741 C   0  0  0  0  0  0  0  0  0  0  0  0
    2.0812   -0.1379   -0.3422 N   0  0  0  0  0  0  0  0  0  0  0  0
    0.7607   -0.2604   -0.0209 C   0  0  0  0  0  0  0  0  0  0  0  0
    0.0828   -1.2831    0.6208 C   0  0  0  0  0  0  0  0  0  0  0  0
   -3.0181    0.1166    0.5374 H   0  0  0  0  0  0  0  0  0  0  0  0
   -1.7910    1.9357   -0.6082 H   0  0  0  0  0  0  0  0  0  0  0  0
    0.9422    2.6906   -1.5220 H   0  0  0  0  0  0  0  0  0  0  0  0
    3.2529    1.3459   -1.3101 H   0  0  0  0  0  0  0  0  0  0  0  0
    2.7953   -0.8182   -0.1453 H   0  0  0  0  0  0  0  0  0  0  0  0
    0.5850   -2.1754    0.9648 H   0  0  0  0  0  0  0  0  0  0  0  0
  1  2  3  0  0  0  0
  2  3  1  0  0  0  0
  3  4  2  0  0  0  0
  4  5  1  0  0  0  0
  5  6  2  0  0  0  0
  6  7  1  0  0  0  0
  7  8  2  0  0  0  0
  8  9  1  0  0  0  0
  9 10  1  0  0  0  0
 10 11  2  0  0  0  0
 11  3  1  0  0  0  0
 10  6  1  0  0  0  0
  4 12  1  0  0  0  0
  5 13  1  0  0  0  0
  7 14  1  0  0  0  0
  8 15  1  0  0  0  0
  9 16  1  0  0  0  0
 11 17  1  0  0  0  0
M  END
