
  xtb     03022214513D
 energy: -66.205396249359 gnorm: 0.000063111183 xtb: 6.4.1 (afa7bdf)
 43 46  0     0  0            999 V2000
    4.1381   -2.1129    1.4692 C   0  0  0  0  0  0  0  0  0  0  0  0
    3.2047   -1.2449    0.8718 O   0  0  0  0  0  0  0  0  0  0  0  0
    3.6660   -0.2046    0.1025 C   0  0  0  0  0  0  0  0  0  0  0  0
    5.0148    0.0479   -0.1063 C   0  0  0  0  0  0  0  0  0  0  0  0
    5.4220    1.1129   -0.8927 C   0  0  0  0  0  0  0  0  0  0  0  0
    4.4859    1.9431   -1.4830 C   0  0  0  0  0  0  0  0  0  0  0  0
    3.1427    1.7013   -1.2815 C   0  0  0  0  0  0  0  0  0  0  0  0
    2.7060    0.6356   -0.4947 C   0  0  0  0  0  0  0  0  0  0  0  0
    1.2781    0.4576   -0.3405 C   0  0  0  0  0  0  0  0  0  0  0  0
    0.3746    1.2329   -0.9054 N   0  0  0  0  0  0  0  0  0  0  0  0
   -0.8420    0.7615   -0.5329 C   0  0  0  0  0  0  0  0  0  0  0  0
   -2.0566    1.4478   -0.9511 C   0  0  0  0  0  0  0  0  0  0  0  0
   -3.1860    1.5012   -0.1363 C   0  0  0  0  0  0  0  0  0  0  0  0
   -4.3191    2.1695   -0.5596 C   0  0  0  0  0  0  0  0  0  0  0  0
   -4.3402    2.7990   -1.7936 C   0  0  0  0  0  0  0  0  0  0  0  0
   -3.2139    2.7688   -2.5997 C   0  0  0  0  0  0  0  0  0  0  0  0
   -2.0786    2.1020   -2.1813 C   0  0  0  0  0  0  0  0  0  0  0  0
   -0.6782   -0.3537    0.2843 C   0  0  0  0  0  0  0  0  0  0  0  0
   -1.6119   -1.2783    0.8990 C   0  0  0  0  0  0  0  0  0  0  0  0
   -2.8081   -1.6156    0.2634 C   0  0  0  0  0  0  0  0  0  0  0  0
   -3.6846   -2.5064    0.8505 C   0  0  0  0  0  0  0  0  0  0  0  0
   -3.3836   -3.0821    2.0750 C   0  0  0  0  0  0  0  0  0  0  0  0
   -2.1948   -2.7623    2.7090 C   0  0  0  0  0  0  0  0  0  0  0  0
   -1.3138   -1.8705    2.1272 C   0  0  0  0  0  0  0  0  0  0  0  0
    0.6764   -0.5124    0.3976 N   0  0  0  0  0  0  0  0  0  0  0  0
    3.5487   -2.8532    2.0094 H   0  0  0  0  0  0  0  0  0  0  0  0
    4.7519   -2.6210    0.7193 H   0  0  0  0  0  0  0  0  0  0  0  0
    4.7850   -1.5837    2.1755 H   0  0  0  0  0  0  0  0  0  0  0  0
    5.7657   -0.5830    0.3423 H   0  0  0  0  0  0  0  0  0  0  0  0
    6.4776    1.2868   -1.0385 H   0  0  0  0  0  0  0  0  0  0  0  0
    4.8029    2.7732   -2.0952 H   0  0  0  0  0  0  0  0  0  0  0  0
    2.3857    2.3284   -1.7241 H   0  0  0  0  0  0  0  0  0  0  0  0
   -3.1697    1.0270    0.8343 H   0  0  0  0  0  0  0  0  0  0  0  0
   -5.1902    2.2040    0.0791 H   0  0  0  0  0  0  0  0  0  0  0  0
   -5.2294    3.3175   -2.1218 H   0  0  0  0  0  0  0  0  0  0  0  0
   -3.2230    3.2677   -3.5582 H   0  0  0  0  0  0  0  0  0  0  0  0
   -1.1921    2.0745   -2.7960 H   0  0  0  0  0  0  0  0  0  0  0  0
   -3.0379   -1.1776   -0.6961 H   0  0  0  0  0  0  0  0  0  0  0  0
   -4.6073   -2.7580    0.3483 H   0  0  0  0  0  0  0  0  0  0  0  0
   -4.0719   -3.7773    2.5322 H   0  0  0  0  0  0  0  0  0  0  0  0
   -1.9544   -3.2077    3.6638 H   0  0  0  0  0  0  0  0  0  0  0  0
   -0.3973   -1.6119    2.6396 H   0  0  0  0  0  0  0  0  0  0  0  0
    1.1580   -1.2433    0.8948 H   0  0  0  0  0  0  0  0  0  0  0  0
  1  2  1  0  0  0  0
  2  3  1  0  0  0  0
  3  4  2  0  0  0  0
  4  5  1  0  0  0  0
  5  6  2  0  0  0  0
  6  7  1  0  0  0  0
  7  8  2  0  0  0  0
  8  9  1  0  0  0  0
  9 10  2  0  0  0  0
 10 11  1  0  0  0  0
 11 12  1  0  0  0  0
 12 13  2  0  0  0  0
 13 14  1  0  0  0  0
 14 15  2  0  0  0  0
 15 16  1  0  0  0  0
 16 17  2  0  0  0  0
 11 18  2  0  0  0  0
 18 19  1  0  0  0  0
 19 20  2  0  0  0  0
 20 21  1  0  0  0  0
 21 22  2  0  0  0  0
 22 23  1  0  0  0  0
 23 24  2  0  0  0  0
 18 25  1  0  0  0  0
  8  3  1  0  0  0  0
 25  9  1  0  0  0  0
 17 12  1  0  0  0  0
 24 19  1  0  0  0  0
  1 26  1  0  0  0  0
  1 27  1  0  0  0  0
  1 28  1  0  0  0  0
  4 29  1  0  0  0  0
  5 30  1  0  0  0  0
  6 31  1  0  0  0  0
  7 32  1  0  0  0  0
 13 33  1  0  0  0  0
 14 34  1  0  0  0  0
 15 35  1  0  0  0  0
 16 36  1  0  0  0  0
 17 37  1  0  0  0  0
 20 38  1  0  0  0  0
 21 39  1  0  0  0  0
 22 40  1  0  0  0  0
 23 41  1  0  0  0  0
 24 42  1  0  0  0  0
 25 43  1  0  0  0  0
M  END
