
  xtb     03022214503D
 energy: -99.639310580345 gnorm: 0.000145782159 xtb: 6.4.1 (afa7bdf)
 65 69  0     0  0            999 V2000
   -5.6796    6.0003    0.7714 C   0  0  0  0  0  0  0  0  0  0  0  0
   -5.1376    4.5872    0.9191 C   0  0  0  0  0  0  0  0  0  0  0  0
   -3.8918    4.5341    0.2545 O   0  0  0  0  0  0  0  0  0  0  0  0
   -3.1929    3.3667    0.2558 C   0  0  0  0  0  0  0  0  0  0  0  0
   -3.6108    2.1809    0.8502 C   0  0  0  0  0  0  0  0  0  0  0  0
   -2.8093    1.0547    0.7931 C   0  0  0  0  0  0  0  0  0  0  0  0
   -1.5835    1.0797    0.1375 C   0  0  0  0  0  0  0  0  0  0  0  0
   -0.7861   -0.0748    0.0739 N   0  0  0  0  0  0  0  0  0  0  0  0
   -1.4111   -1.3134   -0.1430 C   0  0  0  0  0  0  0  0  0  0  0  0
   -1.0012   -2.4551    0.5465 C   0  0  0  0  0  0  0  0  0  0  0  0
   -1.6291   -3.6610    0.3332 C   0  0  0  0  0  0  0  0  0  0  0  0
   -2.6939   -3.7682   -0.5647 C   0  0  0  0  0  0  0  0  0  0  0  0
   -3.2217   -5.0177   -0.6981 O   0  0  0  0  0  0  0  0  0  0  0  0
   -4.3609   -5.2181   -1.5084 C   0  0  0  0  0  0  0  0  0  0  0  0
   -5.6507   -4.7501   -0.8396 C   0  0  0  0  0  0  0  0  0  0  0  0
   -3.1087   -2.6295   -1.2471 C   0  0  0  0  0  0  0  0  0  0  0  0
   -2.4684   -1.4212   -1.0395 C   0  0  0  0  0  0  0  0  0  0  0  0
    0.5909    0.0084    0.2279 C   0  0  0  0  0  0  0  0  0  0  0  0
    1.4398   -0.8999   -0.4100 C   0  0  0  0  0  0  0  0  0  0  0  0
    2.8077   -0.8142   -0.2557 C   0  0  0  0  0  0  0  0  0  0  0  0
    3.3688    0.1776    0.5389 C   0  0  0  0  0  0  0  0  0  0  0  0
    4.8669    0.3370    0.6928 C   0  0  0  0  0  0  0  0  0  0  0  0
    5.5820   -0.9174    0.6945 N   0  0  0  0  0  0  0  0  0  0  0  0
    6.2820   -1.4447    1.7210 C   0  0  0  0  0  0  0  0  0  0  0  0
    6.8231   -2.6247    1.2725 C   0  0  0  0  0  0  0  0  0  0  0  0
    6.3941   -2.7218   -0.0581 C   0  0  0  0  0  0  0  0  0  0  0  0
    5.6500   -1.6871   -0.3901 N   0  0  0  0  0  0  0  0  0  0  0  0
    5.3896    1.2038   -0.3374 N   0  0  0  0  0  0  0  0  0  0  0  0
    5.2912    1.0626   -1.6752 C   0  0  0  0  0  0  0  0  0  0  0  0
    5.9659    2.1220   -2.2313 C   0  0  0  0  0  0  0  0  0  0  0  0
    6.4400    2.8554   -1.1341 C   0  0  0  0  0  0  0  0  0  0  0  0
    6.0868    2.2866    0.0005 N   0  0  0  0  0  0  0  0  0  0  0  0
    2.5289    1.0861    1.1732 C   0  0  0  0  0  0  0  0  0  0  0  0
    1.1610    1.0047    1.0259 C   0  0  0  0  0  0  0  0  0  0  0  0
   -1.1721    2.2680   -0.4680 C   0  0  0  0  0  0  0  0  0  0  0  0
   -1.9618    3.3931   -0.4037 C   0  0  0  0  0  0  0  0  0  0  0  0
   -5.8057    6.2407   -0.2806 H   0  0  0  0  0  0  0  0  0  0  0  0
   -6.6383    6.0839    1.2752 H   0  0  0  0  0  0  0  0  0  0  0  0
   -4.9830    6.7110    1.2071 H   0  0  0  0  0  0  0  0  0  0  0  0
   -5.8357    3.8648    0.4726 H   0  0  0  0  0  0  0  0  0  0  0  0
   -5.0094    4.3397    1.9824 H   0  0  0  0  0  0  0  0  0  0  0  0
   -4.5547    2.1200    1.3685 H   0  0  0  0  0  0  0  0  0  0  0  0
   -3.1406    0.1407    1.2637 H   0  0  0  0  0  0  0  0  0  0  0  0
   -0.1871   -2.3878    1.2526 H   0  0  0  0  0  0  0  0  0  0  0  0
   -1.3158   -4.5479    0.8609 H   0  0  0  0  0  0  0  0  0  0  0  0
   -4.3960   -6.3006   -1.6610 H   0  0  0  0  0  0  0  0  0  0  0  0
   -4.2316   -4.7379   -2.4865 H   0  0  0  0  0  0  0  0  0  0  0  0
   -6.4988   -4.9779   -1.4795 H   0  0  0  0  0  0  0  0  0  0  0  0
   -5.7776   -5.2611    0.1115 H   0  0  0  0  0  0  0  0  0  0  0  0
   -5.6256   -3.6793   -0.6528 H   0  0  0  0  0  0  0  0  0  0  0  0
   -3.9216   -2.6642   -1.9551 H   0  0  0  0  0  0  0  0  0  0  0  0
   -2.7966   -0.5455   -1.5799 H   0  0  0  0  0  0  0  0  0  0  0  0
    1.0181   -1.6700   -1.0380 H   0  0  0  0  0  0  0  0  0  0  0  0
    3.4509   -1.5223   -0.7563 H   0  0  0  0  0  0  0  0  0  0  0  0
    5.0912    0.8431    1.6405 H   0  0  0  0  0  0  0  0  0  0  0  0
    6.3414   -0.9549    2.6717 H   0  0  0  0  0  0  0  0  0  0  0  0
    7.4366   -3.3135    1.8154 H   0  0  0  0  0  0  0  0  0  0  0  0
    6.5958   -3.4934   -0.7744 H   0  0  0  0  0  0  0  0  0  0  0  0
    4.7757    0.2336   -2.1124 H   0  0  0  0  0  0  0  0  0  0  0  0
    6.0995    2.3406   -3.2707 H   0  0  0  0  0  0  0  0  0  0  0  0
    7.0149    3.7602   -1.1294 H   0  0  0  0  0  0  0  0  0  0  0  0
    2.9524    1.8636    1.7925 H   0  0  0  0  0  0  0  0  0  0  0  0
    0.5213    1.7095    1.5349 H   0  0  0  0  0  0  0  0  0  0  0  0
   -0.2273    2.3004   -0.9897 H   0  0  0  0  0  0  0  0  0  0  0  0
   -1.6501    4.3150   -0.8683 H   0  0  0  0  0  0  0  0  0  0  0  0
  1  2  1  0  0  0  0
  2  3  1  0  0  0  0
  3  4  1  0  0  0  0
  4  5  2  0  0  0  0
  5  6  1  0  0  0  0
  6  7  2  0  0  0  0
  7  8  1  0  0  0  0
  8  9  1  0  0  0  0
  9 10  2  0  0  0  0
 10 11  1  0  0  0  0
 11 12  2  0  0  0  0
 12 13  1  0  0  0  0
 13 14  1  0  0  0  0
 14 15  1  0  0  0  0
 12 16  1  0  0  0  0
 16 17  2  0  0  0  0
  8 18  1  0  0  0  0
 18 19  2  0  0  0  0
 19 20  1  0  0  0  0
 20 21  2  0  0  0  0
 21 22  1  0  0  0  0
 22 23  1  0  0  0  0
 23 24  1  0  0  0  0
 24 25  2  0  0  0  0
 25 26  1  0  0  0  0
 26 27  2  0  0  0  0
 22 28  1  0  0  0  0
 28 29  1  0  0  0  0
 29 30  2  0  0  0  0
 30 31  1  0  0  0  0
 31 32  2  0  0  0  0
 21 33  1  0  0  0  0
 33 34  2  0  0  0  0
  7 35  1  0  0  0  0
 35 36  2  0  0  0  0
 36  4  1  0  0  0  0
 17  9  1  0  0  0  0
 34 18  1  0  0  0  0
 27 23  1  0  0  0  0
 32 28  1  0  0  0  0
  1 37  1  0  0  0  0
  1 38  1  0  0  0  0
  1 39  1  0  0  0  0
  2 40  1  0  0  0  0
  2 41  1  0  0  0  0
  5 42  1  0  0  0  0
  6 43  1  0  0  0  0
 10 44  1  0  0  0  0
 11 45  1  0  0  0  0
 14 46  1  0  0  0  0
 14 47  1  0  0  0  0
 15 48  1  0  0  0  0
 15 49  1  0  0  0  0
 15 50  1  0  0  0  0
 16 51  1  0  0  0  0
 17 52  1  0  0  0  0
 19 53  1  0  0  0  0
 20 54  1  0  0  0  0
 22 55  1  0  0  0  0
 24 56  1  0  0  0  0
 25 57  1  0  0  0  0
 26 58  1  0  0  0  0
 29 59  1  0  0  0  0
 30 60  1  0  0  0  0
 31 61  1  0  0  0  0
 33 62  1  0  0  0  0
 34 63  1  0  0  0  0
 35 64  1  0  0  0  0
 36 65  1  0  0  0  0
M  END
