
  xtb     03022214493D
 energy: -78.812247011228 gnorm: 0.000254560547 xtb: 6.4.1 (afa7bdf)
 45 48  0     0  0            999 V2000
    9.0149    0.5095   -0.4988 C   0  0  0  0  0  0  0  0  0  0  0  0
    7.9068    0.9538    0.2480 O   0  0  0  0  0  0  0  0  0  0  0  0
    6.6583    0.5909   -0.1395 C   0  0  0  0  0  0  0  0  0  0  0  0
    6.3791   -0.2200   -1.2597 C   0  0  0  0  0  0  0  0  0  0  0  0
    5.0878   -0.5344   -1.5769 C   0  0  0  0  0  0  0  0  0  0  0  0
    4.0063   -0.0644   -0.8034 C   0  0  0  0  0  0  0  0  0  0  0  0
    2.6736   -0.3745   -1.1114 C   0  0  0  0  0  0  0  0  0  0  0  0
    1.6211    0.0897   -0.3406 C   0  0  0  0  0  0  0  0  0  0  0  0
    0.2789   -0.2732   -0.7094 C   0  0  0  0  0  0  0  0  0  0  0  0
   -0.8651    0.0455   -0.0686 C   0  0  0  0  0  0  0  0  0  0  0  0
   -2.1512   -0.3973   -0.5514 C   0  0  0  0  0  0  0  0  0  0  0  0
   -3.3159   -0.0644    0.1522 C   0  0  0  0  0  0  0  0  0  0  0  0
   -4.5446   -0.5016   -0.3286 C   0  0  0  0  0  0  0  0  0  0  0  0
   -5.8060   -0.2052    0.3663 C   0  0  0  0  0  0  0  0  0  0  0  0
   -5.9456    0.8901    1.2190 C   0  0  0  0  0  0  0  0  0  0  0  0
   -7.1520    1.1281    1.8497 C   0  0  0  0  0  0  0  0  0  0  0  0
   -8.2288    0.2797    1.6442 C   0  0  0  0  0  0  0  0  0  0  0  0
   -8.1009   -0.8060    0.7923 C   0  0  0  0  0  0  0  0  0  0  0  0
   -6.9007   -1.0450    0.1522 C   0  0  0  0  0  0  0  0  0  0  0  0
   -4.6486   -1.2127   -1.3995 O   0  0  0  0  0  3  0  0  0  0  0  0
   -3.4571   -1.6459   -2.2018 B   0  0  0  0  0  4  0  0  0  0  0  0
   -3.3916   -3.0115   -2.1664 F   0  0  0  0  0  0  0  0  0  0  0  0
   -3.5985   -1.1792   -3.4760 F   0  0  0  0  0  0  0  0  0  0  0  0
   -2.1813   -1.0987   -1.6343 O   0  0  0  0  0  0  0  0  0  0  0  0
    1.9164    0.9038    0.7845 C   0  0  0  0  0  0  0  0  0  0  0  0
    3.2003    1.2220    1.1036 C   0  0  0  0  0  0  0  0  0  0  0  0
    4.2870    0.7519    0.3274 C   0  0  0  0  0  0  0  0  0  0  0  0
    5.6163    1.0631    0.6350 C   0  0  0  0  0  0  0  0  0  0  0  0
    8.9782    0.8736   -1.5303 H   0  0  0  0  0  0  0  0  0  0  0  0
    9.8885    0.9287   -0.0022 H   0  0  0  0  0  0  0  0  0  0  0  0
    9.0901   -0.5824   -0.4980 H   0  0  0  0  0  0  0  0  0  0  0  0
    7.1825   -0.5972   -1.8725 H   0  0  0  0  0  0  0  0  0  0  0  0
    4.8804   -1.1556   -2.4360 H   0  0  0  0  0  0  0  0  0  0  0  0
    2.4712   -0.9952   -1.9730 H   0  0  0  0  0  0  0  0  0  0  0  0
    0.1806   -0.8771   -1.6034 H   0  0  0  0  0  0  0  0  0  0  0  0
   -0.8783    0.6378    0.8329 H   0  0  0  0  0  0  0  0  0  0  0  0
   -3.2456    0.4992    1.0640 H   0  0  0  0  0  0  0  0  0  0  0  0
   -5.1233    1.5725    1.3677 H   0  0  0  0  0  0  0  0  0  0  0  0
   -7.2557    1.9818    2.5029 H   0  0  0  0  0  0  0  0  0  0  0  0
   -9.1674    0.4690    2.1434 H   0  0  0  0  0  0  0  0  0  0  0  0
   -8.9397   -1.4649    0.6260 H   0  0  0  0  0  0  0  0  0  0  0  0
   -6.7845   -1.8847   -0.5154 H   0  0  0  0  0  0  0  0  0  0  0  0
    1.1066    1.2760    1.3919 H   0  0  0  0  0  0  0  0  0  0  0  0
    3.4134    1.8432    1.9614 H   0  0  0  0  0  0  0  0  0  0  0  0
    5.8441    1.6816    1.4893 H   0  0  0  0  0  0  0  0  0  0  0  0
  1  2  1  0  0  0  0
  2  3  1  0  0  0  0
  3  4  2  0  0  0  0
  4  5  1  0  0  0  0
  5  6  2  0  0  0  0
  6  7  1  0  0  0  0
  7  8  2  0  0  0  0
  8  9  1  0  0  0  0
  9 10  2  0  0  0  0
 10 11  1  0  0  0  0
 11 12  2  0  0  0  0
 12 13  1  0  0  0  0
 13 14  1  0  0  0  0
 14 15  2  0  0  0  0
 15 16  1  0  0  0  0
 16 17  2  0  0  0  0
 17 18  1  0  0  0  0
 18 19  2  0  0  0  0
 13 20  2  0  0  0  0
 20 21  1  0  0  0  0
 21 22  1  0  0  0  0
 21 23  1  0  0  0  0
 21 24  1  0  0  0  0
  8 25  1  0  0  0  0
 25 26  2  0  0  0  0
 26 27  1  0  0  0  0
 27 28  2  0  0  0  0
 28  3  1  0  0  0  0
 27  6  1  0  0  0  0
 24 11  1  0  0  0  0
 19 14  1  0  0  0  0
  1 29  1  0  0  0  0
  1 30  1  0  0  0  0
  1 31  1  0  0  0  0
  4 32  1  0  0  0  0
  5 33  1  0  0  0  0
  7 34  1  0  0  0  0
  9 35  1  0  0  0  0
 10 36  1  0  0  0  0
 12 37  1  0  0  0  0
 15 38  1  0  0  0  0
 16 39  1  0  0  0  0
 17 40  1  0  0  0  0
 18 41  1  0  0  0  0
 19 42  1  0  0  0  0
 25 43  1  0  0  0  0
 26 44  1  0  0  0  0
 28 45  1  0  0  0  0
M  CHG  1  20   1
M  CHG  1  21  -1
M  END
