
  xtb     03022215533D
 energy: -103.856916791976 gnorm: 0.000160806757 xtb: 6.4.1 (afa7bdf)
 62 68  0     0  0            999 V2000
    0.2027   -1.8541    1.8413 O   0  0  0  0  0  0  0  0  0  0  0  0
   -0.7551   -2.4813    1.1624 C   0  0  0  0  0  0  0  0  0  0  0  0
   -0.8351   -3.8796    1.3338 C   0  0  0  0  0  0  0  0  0  0  0  0
   -1.7795   -4.6052    0.6788 C   0  0  0  0  0  0  0  0  0  0  0  0
   -2.7235   -3.9796   -0.1682 C   0  0  0  0  0  0  0  0  0  0  0  0
   -3.7138   -4.7402   -0.8182 C   0  0  0  0  0  0  0  0  0  0  0  0
   -4.6445   -4.1445   -1.6242 C   0  0  0  0  0  0  0  0  0  0  0  0
   -4.6133   -2.7578   -1.7991 C   0  0  0  0  0  0  0  0  0  0  0  0
   -3.6555   -1.9947   -1.1832 C   0  0  0  0  0  0  0  0  0  0  0  0
   -2.6731   -2.5728   -0.3559 C   0  0  0  0  0  0  0  0  0  0  0  0
   -1.6453   -1.8173    0.3024 C   0  0  0  0  0  0  0  0  0  0  0  0
   -1.4703   -0.4159    0.0429 C   0  0  0  0  0  0  0  0  0  0  0  0
   -0.5077    0.2531    0.5659 N   0  0  0  0  0  0  0  0  0  0  0  0
   -0.2630    1.5866    0.3494 C   0  0  0  0  0  0  0  0  0  0  0  0
   -1.2491    2.5372    0.3003 C   0  0  0  0  0  0  0  0  0  0  0  0
   -0.9307    3.9070    0.1833 C   0  0  0  0  0  0  0  0  0  0  0  0
   -1.9096    4.8039    0.1146 N   0  0  0  0  0  0  0  0  0  0  0  0
   -1.5629    6.0866    0.0048 C   0  0  0  0  0  0  0  0  0  0  0  0
   -2.5679    7.0806   -0.0737 C   0  0  0  0  0  0  0  0  0  0  0  0
   -2.2211    8.3931   -0.1857 C   0  0  0  0  0  0  0  0  0  0  0  0
   -0.8645    8.7836   -0.2265 C   0  0  0  0  0  0  0  0  0  0  0  0
    0.1324    7.8582   -0.1556 C   0  0  0  0  0  0  0  0  0  0  0  0
   -0.1839    6.4829   -0.0385 C   0  0  0  0  0  0  0  0  0  0  0  0
    0.7970    5.5831    0.0247 N   0  0  0  0  0  0  0  0  0  0  0  0
    0.4529    4.3030    0.1361 C   0  0  0  0  0  0  0  0  0  0  0  0
    1.4550    3.3133    0.2121 C   0  0  0  0  0  0  0  0  0  0  0  0
    1.1288    1.9850    0.3007 C   0  0  0  0  0  0  0  0  0  0  0  0
    2.1142    1.0441    0.4437 N   0  0  0  0  0  0  0  0  0  0  0  0
    2.0583   -0.1263   -0.0843 C   0  0  0  0  0  0  0  0  0  0  0  0
    2.9620   -1.1814    0.2719 C   0  0  0  0  0  0  0  0  0  0  0  0
    4.0471   -0.9071    1.1170 C   0  0  0  0  0  0  0  0  0  0  0  0
    4.2839    0.3036    1.6143 O   0  0  0  0  0  0  0  0  0  0  0  0
    4.9575   -1.9298    1.4605 C   0  0  0  0  0  0  0  0  0  0  0  0
    4.7657   -3.2023    1.0213 C   0  0  0  0  0  0  0  0  0  0  0  0
    3.6566   -3.5384    0.2104 C   0  0  0  0  0  0  0  0  0  0  0  0
    3.4405   -4.8707   -0.1893 C   0  0  0  0  0  0  0  0  0  0  0  0
    2.3560   -5.2109   -0.9502 C   0  0  0  0  0  0  0  0  0  0  0  0
    1.4573   -4.2167   -1.3481 C   0  0  0  0  0  0  0  0  0  0  0  0
    1.6515   -2.9105   -0.9824 C   0  0  0  0  0  0  0  0  0  0  0  0
    2.7477   -2.5230   -0.1874 C   0  0  0  0  0  0  0  0  0  0  0  0
    0.1837   -0.8948    1.5828 H   0  0  0  0  0  0  0  0  0  0  0  0
   -0.1123   -4.3384    1.9896 H   0  0  0  0  0  0  0  0  0  0  0  0
   -1.8278   -5.6773    0.8027 H   0  0  0  0  0  0  0  0  0  0  0  0
   -3.7258   -5.8092   -0.6611 H   0  0  0  0  0  0  0  0  0  0  0  0
   -5.4031   -4.7321   -2.1188 H   0  0  0  0  0  0  0  0  0  0  0  0
   -5.3552   -2.2832   -2.4244 H   0  0  0  0  0  0  0  0  0  0  0  0
   -3.6794   -0.9278   -1.3377 H   0  0  0  0  0  0  0  0  0  0  0  0
   -2.1302    0.0598   -0.6847 H   0  0  0  0  0  0  0  0  0  0  0  0
   -2.2896    2.2598    0.3816 H   0  0  0  0  0  0  0  0  0  0  0  0
   -3.5978    6.7604   -0.0392 H   0  0  0  0  0  0  0  0  0  0  0  0
   -2.9855    9.1542   -0.2447 H   0  0  0  0  0  0  0  0  0  0  0  0
   -0.6263    9.8336   -0.3152 H   0  0  0  0  0  0  0  0  0  0  0  0
    1.1751    8.1341   -0.1843 H   0  0  0  0  0  0  0  0  0  0  0  0
    2.4880    3.6215    0.1767 H   0  0  0  0  0  0  0  0  0  0  0  0
    1.3259   -0.3421   -0.8616 H   0  0  0  0  0  0  0  0  0  0  0  0
    3.5524    0.9082    1.3202 H   0  0  0  0  0  0  0  0  0  0  0  0
    5.7904   -1.6630    2.0919 H   0  0  0  0  0  0  0  0  0  0  0  0
    5.4569   -3.9849    1.2992 H   0  0  0  0  0  0  0  0  0  0  0  0
    4.1476   -5.6239    0.1277 H   0  0  0  0  0  0  0  0  0  0  0  0
    2.1889   -6.2359   -1.2452 H   0  0  0  0  0  0  0  0  0  0  0  0
    0.5977   -4.4816   -1.9465 H   0  0  0  0  0  0  0  0  0  0  0  0
    0.9287   -2.1816   -1.3129 H   0  0  0  0  0  0  0  0  0  0  0  0
  1  2  1  0  0  0  0
  2  3  2  0  0  0  0
  3  4  1  0  0  0  0
  4  5  2  0  0  0  0
  5  6  1  0  0  0  0
  6  7  2  0  0  0  0
  7  8  1  0  0  0  0
  8  9  2  0  0  0  0
  9 10  1  0  0  0  0
 10 11  2  0  0  0  0
 11 12  1  0  0  0  0
 12 13  2  0  0  0  0
 13 14  1  0  0  0  0
 14 15  2  0  0  0  0
 15 16  1  0  0  0  0
 16 17  2  0  0  0  0
 17 18  1  0  0  0  0
 18 19  2  0  0  0  0
 19 20  1  0  0  0  0
 20 21  2  0  0  0  0
 21 22  1  0  0  0  0
 22 23  2  0  0  0  0
 23 24  1  0  0  0  0
 24 25  2  0  0  0  0
 25 26  1  0  0  0  0
 26 27  2  0  0  0  0
 27 28  1  0  0  0  0
 28 29  2  0  0  0  0
 29 30  1  0  0  0  0
 30 31  2  0  0  0  0
 31 32  1  0  0  0  0
 31 33  1  0  0  0  0
 33 34  2  0  0  0  0
 34 35  1  0  0  0  0
 35 36  2  0  0  0  0
 36 37  1  0  0  0  0
 37 38  2  0  0  0  0
 38 39  1  0  0  0  0
 39 40  2  0  0  0  0
 11  2  1  0  0  0  0
 27 14  1  0  0  0  0
 40 30  1  0  0  0  0
 10  5  1  0  0  0  0
 25 16  1  0  0  0  0
 40 35  1  0  0  0  0
 23 18  1  0  0  0  0
  1 41  1  0  0  0  0
  3 42  1  0  0  0  0
  4 43  1  0  0  0  0
  6 44  1  0  0  0  0
  7 45  1  0  0  0  0
  8 46  1  0  0  0  0
  9 47  1  0  0  0  0
 12 48  1  0  0  0  0
 15 49  1  0  0  0  0
 19 50  1  0  0  0  0
 20 51  1  0  0  0  0
 21 52  1  0  0  0  0
 22 53  1  0  0  0  0
 26 54  1  0  0  0  0
 29 55  1  0  0  0  0
 32 56  1  0  0  0  0
 33 57  1  0  0  0  0
 34 58  1  0  0  0  0
 36 59  1  0  0  0  0
 37 60  1  0  0  0  0
 38 61  1  0  0  0  0
 39 62  1  0  0  0  0
M  END
