
  xtb     03022215173D
 energy: -68.283786228777 gnorm: 0.000074622388 xtb: 6.4.1 (afa7bdf)
 46 50  0     0  0            999 V2000
   -3.2968    3.2208   -0.0916 C   0  0  0  0  0  0  0  0  0  0  0  0
   -3.7201    2.0158   -0.6285 C   0  0  0  0  0  0  0  0  0  0  0  0
   -2.9007    0.9051   -0.5930 C   0  0  0  0  0  0  0  0  0  0  0  0
   -1.6376    0.9814   -0.0028 C   0  0  0  0  0  0  0  0  0  0  0  0
   -0.7844   -0.1215    0.0308 N   0  0  0  0  0  0  0  0  0  0  0  0
   -1.2595   -1.4300    0.1167 C   0  0  0  0  0  0  0  0  0  0  0  0
   -2.4376   -1.7317    0.8029 C   0  0  0  0  0  0  0  0  0  0  0  0
   -2.8781   -3.0374    0.8879 C   0  0  0  0  0  0  0  0  0  0  0  0
   -2.1531   -4.0647    0.3059 C   0  0  0  0  0  0  0  0  0  0  0  0
   -0.9771   -3.7728   -0.3648 C   0  0  0  0  0  0  0  0  0  0  0  0
   -0.5322   -2.4694   -0.4647 C   0  0  0  0  0  0  0  0  0  0  0  0
    0.6103    0.0945   -0.0240 C   0  0  0  0  0  0  0  0  0  0  0  0
    1.4247   -0.3569    1.0312 C   0  0  0  0  0  0  0  0  0  0  0  0
    0.9009   -0.9825    2.1913 C   0  0  0  0  0  0  0  0  0  0  0  0
    1.7205   -1.4143    3.1895 C   0  0  0  0  0  0  0  0  0  0  0  0
    3.1169   -1.2507    3.0943 C   0  0  0  0  0  0  0  0  0  0  0  0
    3.6571   -0.6298    2.0112 C   0  0  0  0  0  0  0  0  0  0  0  0
    2.8378   -0.1524    0.9563 C   0  0  0  0  0  0  0  0  0  0  0  0
    3.3787    0.5231   -0.1328 C   0  0  0  0  0  0  0  0  0  0  0  0
    2.5772    0.9908   -1.1692 C   0  0  0  0  0  0  0  0  0  0  0  0
    3.1307    1.6808   -2.2780 C   0  0  0  0  0  0  0  0  0  0  0  0
    2.3469    2.0967   -3.3091 C   0  0  0  0  0  0  0  0  0  0  0  0
    0.9632    1.8299   -3.2950 C   0  0  0  0  0  0  0  0  0  0  0  0
    0.3913    1.1826   -2.2421 C   0  0  0  0  0  0  0  0  0  0  0  0
    1.1669    0.7582   -1.1331 C   0  0  0  0  0  0  0  0  0  0  0  0
   -1.2157    2.1988    0.5334 C   0  0  0  0  0  0  0  0  0  0  0  0
   -2.0397    3.3057    0.4834 C   0  0  0  0  0  0  0  0  0  0  0  0
   -3.9401    4.0869   -0.1254 H   0  0  0  0  0  0  0  0  0  0  0  0
   -4.6939    1.9418   -1.0904 H   0  0  0  0  0  0  0  0  0  0  0  0
   -3.2277   -0.0243   -1.0364 H   0  0  0  0  0  0  0  0  0  0  0  0
   -2.9949   -0.9392    1.2810 H   0  0  0  0  0  0  0  0  0  0  0  0
   -3.7903   -3.2555    1.4240 H   0  0  0  0  0  0  0  0  0  0  0  0
   -2.5003   -5.0841    0.3786 H   0  0  0  0  0  0  0  0  0  0  0  0
   -0.4033   -4.5662   -0.8208 H   0  0  0  0  0  0  0  0  0  0  0  0
    0.3822   -2.2448   -0.9942 H   0  0  0  0  0  0  0  0  0  0  0  0
   -0.1664   -1.1088    2.2849 H   0  0  0  0  0  0  0  0  0  0  0  0
    1.3029   -1.8854    4.0671 H   0  0  0  0  0  0  0  0  0  0  0  0
    3.7480   -1.6125    3.8927 H   0  0  0  0  0  0  0  0  0  0  0  0
    4.7250   -0.4843    1.9317 H   0  0  0  0  0  0  0  0  0  0  0  0
    4.4461    0.6884   -0.1748 H   0  0  0  0  0  0  0  0  0  0  0  0
    4.1955    1.8655   -2.2823 H   0  0  0  0  0  0  0  0  0  0  0  0
    2.7761    2.6227   -4.1492 H   0  0  0  0  0  0  0  0  0  0  0  0
    0.3569    2.1424   -4.1323 H   0  0  0  0  0  0  0  0  0  0  0  0
   -0.6682    0.9796   -2.2521 H   0  0  0  0  0  0  0  0  0  0  0  0
   -0.2384    2.2670    0.9885 H   0  0  0  0  0  0  0  0  0  0  0  0
   -1.6992    4.2407    0.9035 H   0  0  0  0  0  0  0  0  0  0  0  0
  1  2  2  0  0  0  0
  2  3  1  0  0  0  0
  3  4  2  0  0  0  0
  4  5  1  0  0  0  0
  5  6  1  0  0  0  0
  6  7  2  0  0  0  0
  7  8  1  0  0  0  0
  8  9  2  0  0  0  0
  9 10  1  0  0  0  0
 10 11  2  0  0  0  0
  5 12  1  0  0  0  0
 12 13  1  0  0  0  0
 13 14  2  0  0  0  0
 14 15  1  0  0  0  0
 15 16  2  0  0  0  0
 16 17  1  0  0  0  0
 17 18  2  0  0  0  0
 18 19  1  0  0  0  0
 19 20  2  0  0  0  0
 20 21  1  0  0  0  0
 21 22  2  0  0  0  0
 22 23  1  0  0  0  0
 23 24  2  0  0  0  0
 24 25  1  0  0  0  0
  4 26  1  0  0  0  0
 26 27  2  0  0  0  0
 27  1  1  0  0  0  0
 11  6  1  0  0  0  0
 25 12  2  0  0  0  0
 18 13  1  0  0  0  0
 25 20  1  0  0  0  0
  1 28  1  0  0  0  0
  2 29  1  0  0  0  0
  3 30  1  0  0  0  0
  7 31  1  0  0  0  0
  8 32  1  0  0  0  0
  9 33  1  0  0  0  0
 10 34  1  0  0  0  0
 11 35  1  0  0  0  0
 14 36  1  0  0  0  0
 15 37  1  0  0  0  0
 16 38  1  0  0  0  0
 17 39  1  0  0  0  0
 19 40  1  0  0  0  0
 21 41  1  0  0  0  0
 22 42  1  0  0  0  0
 23 43  1  0  0  0  0
 24 44  1  0  0  0  0
 26 45  1  0  0  0  0
 27 46  1  0  0  0  0
M  END
