
  xtb     03022212543D
 energy: -112.929729433854 gnorm: 0.000177941581 xtb: 6.4.1 (afa7bdf)
 66 74  0     0  0            999 V2000
   -2.5099   -3.4598   -0.0683 C   0  0  0  0  0  0  0  0  0  0  0  0
   -1.3214   -4.0801   -0.1839 C   0  0  0  0  0  0  0  0  0  0  0  0
   -0.3112   -3.0369   -0.1322 C   0  0  0  0  0  0  0  0  0  0  0  0
   -0.8868   -1.8212   -0.0070 N   0  0  0  0  0  0  0  0  0  0  0  0
   -2.2180   -2.0428    0.0551 C   0  0  0  0  0  0  0  0  0  0  0  0
   -3.2139   -1.0712    0.2107 C   0  0  0  0  0  0  0  0  0  0  0  0
   -4.5991   -1.5071    0.3748 C   0  0  0  0  0  0  0  0  0  0  0  0
   -5.6837   -1.1728   -0.3834 C   0  0  0  0  0  0  0  0  0  0  0  0
   -6.8870   -1.7451    0.0808 C   0  0  0  0  0  0  0  0  0  0  0  0
   -6.7096   -2.4960    1.1973 C   0  0  0  0  0  0  0  0  0  0  0  0
   -5.0669   -2.5323    1.7009 S   0  0  0  0  0  0  0  0  0  0  0  0
   -2.9892    0.3098    0.2257 C   0  0  0  0  0  0  0  0  0  0  0  0
   -3.9586    1.3298    0.4269 C   0  0  0  0  0  0  0  0  0  0  0  0
   -3.3198    2.5317    0.3468 C   0  0  0  0  0  0  0  0  0  0  0  0
   -1.9417    2.2773    0.1050 C   0  0  0  0  0  0  0  0  0  0  0  0
   -1.7890    0.9267    0.0501 N   0  0  0  0  0  0  0  0  0  0  0  0
   -0.9296    3.2362   -0.0260 C   0  0  0  0  0  0  0  0  0  0  0  0
   -1.3686    4.6279   -0.0787 C   0  0  0  0  0  0  0  0  0  0  0  0
   -2.2753    5.1835   -0.9361 C   0  0  0  0  0  0  0  0  0  0  0  0
   -2.5015    6.5550   -0.6981 C   0  0  0  0  0  0  0  0  0  0  0  0
   -1.7791    7.0275    0.3497 C   0  0  0  0  0  0  0  0  0  0  0  0
   -0.7962    5.8110    1.0615 S   0  0  0  0  0  0  0  0  0  0  0  0
    0.4411    2.9585   -0.0891 C   0  0  0  0  0  0  0  0  0  0  0  0
    1.0192    1.7459    0.0619 N   0  0  0  0  0  0  0  0  0  0  0  0
    2.3507    1.9560   -0.0039 C   0  0  0  0  0  0  0  0  0  0  0  0
    3.3569    0.9841    0.1061 C   0  0  0  0  0  0  0  0  0  0  0  0
    4.7308    1.4688    0.1937 C   0  0  0  0  0  0  0  0  0  0  0  0
    5.2299    2.3689    1.0919 C   0  0  0  0  0  0  0  0  0  0  0  0
    6.5969    2.6558    0.8969 C   0  0  0  0  0  0  0  0  0  0  0  0
    7.1246    1.9849   -0.1583 C   0  0  0  0  0  0  0  0  0  0  0  0
    5.9663    0.9765   -0.9300 S   0  0  0  0  0  0  0  0  0  0  0  0
    3.1360   -0.3970    0.1149 C   0  0  0  0  0  0  0  0  0  0  0  0
    4.1196   -1.4232    0.1557 C   0  0  0  0  0  0  0  0  0  0  0  0
    3.4767   -2.6206    0.0575 C   0  0  0  0  0  0  0  0  0  0  0  0
    2.0799   -2.3612   -0.0104 C   0  0  0  0  0  0  0  0  0  0  0  0
    1.9231   -1.0102    0.0343 N   0  0  0  0  0  0  0  0  0  0  0  0
    1.0617   -3.3112   -0.1369 C   0  0  0  0  0  0  0  0  0  0  0  0
    1.4624   -4.7135   -0.2699 C   0  0  0  0  0  0  0  0  0  0  0  0
    1.2418   -5.5463   -1.3268 C   0  0  0  0  0  0  0  0  0  0  0  0
    1.7444   -6.8502   -1.1256 C   0  0  0  0  0  0  0  0  0  0  0  0
    2.3320   -6.9999    0.0878 C   0  0  0  0  0  0  0  0  0  0  0  0
    2.2927   -5.5494    1.0106 S   0  0  0  0  0  0  0  0  0  0  0  0
    2.6376    3.3569   -0.2580 C   0  0  0  0  0  0  0  0  0  0  0  0
    1.4460    3.9800   -0.3212 C   0  0  0  0  0  0  0  0  0  0  0  0
   -3.4875   -3.8984   -0.0839 H   0  0  0  0  0  0  0  0  0  0  0  0
   -1.1284   -5.1298   -0.2801 H   0  0  0  0  0  0  0  0  0  0  0  0
   -5.6134   -0.5572   -1.2626 H   0  0  0  0  0  0  0  0  0  0  0  0
   -7.8393   -1.6014   -0.3976 H   0  0  0  0  0  0  0  0  0  0  0  0
   -7.4429   -3.0373    1.7613 H   0  0  0  0  0  0  0  0  0  0  0  0
   -4.9992    1.1646    0.6227 H   0  0  0  0  0  0  0  0  0  0  0  0
   -3.7567    3.5026    0.4700 H   0  0  0  0  0  0  0  0  0  0  0  0
   -0.9085    0.4407   -0.0668 H   0  0  0  0  0  0  0  0  0  0  0  0
   -2.7432    4.6279   -1.7293 H   0  0  0  0  0  0  0  0  0  0  0  0
   -3.1722    7.1593   -1.2823 H   0  0  0  0  0  0  0  0  0  0  0  0
   -1.7579    8.0208    0.7518 H   0  0  0  0  0  0  0  0  0  0  0  0
    4.6349    2.7940    1.8805 H   0  0  0  0  0  0  0  0  0  0  0  0
    7.1581    3.3331    1.5153 H   0  0  0  0  0  0  0  0  0  0  0  0
    8.1270    2.0152   -0.5363 H   0  0  0  0  0  0  0  0  0  0  0  0
    5.1765   -1.2736    0.2442 H   0  0  0  0  0  0  0  0  0  0  0  0
    3.9323   -3.5900    0.0372 H   0  0  0  0  0  0  0  0  0  0  0  0
    1.0343   -0.5255    0.0184 H   0  0  0  0  0  0  0  0  0  0  0  0
    0.7481   -5.2267   -2.2274 H   0  0  0  0  0  0  0  0  0  0  0  0
    1.6682   -7.6371   -1.8544 H   0  0  0  0  0  0  0  0  0  0  0  0
    2.7893   -7.8744    0.5058 H   0  0  0  0  0  0  0  0  0  0  0  0
    3.6125    3.7766   -0.4061 H   0  0  0  0  0  0  0  0  0  0  0  0
    1.2533    5.0125   -0.5332 H   0  0  0  0  0  0  0  0  0  0  0  0
  1  2  2  0  0  0  0
  2  3  1  0  0  0  0
  3  4  2  0  0  0  0
  4  5  1  0  0  0  0
  5  6  2  0  0  0  0
  6  7  1  0  0  0  0
  7  8  2  0  0  0  0
  8  9  1  0  0  0  0
  9 10  2  0  0  0  0
 10 11  1  0  0  0  0
  6 12  1  0  0  0  0
 12 13  2  0  0  0  0
 13 14  1  0  0  0  0
 14 15  2  0  0  0  0
 15 16  1  0  0  0  0
 15 17  1  0  0  0  0
 17 18  1  0  0  0  0
 18 19  2  0  0  0  0
 19 20  1  0  0  0  0
 20 21  2  0  0  0  0
 21 22  1  0  0  0  0
 17 23  2  0  0  0  0
 23 24  1  0  0  0  0
 24 25  2  0  0  0  0
 25 26  1  0  0  0  0
 26 27  1  0  0  0  0
 27 28  2  0  0  0  0
 28 29  1  0  0  0  0
 29 30  2  0  0  0  0
 30 31  1  0  0  0  0
 26 32  2  0  0  0  0
 32 33  1  0  0  0  0
 33 34  2  0  0  0  0
 34 35  1  0  0  0  0
 35 36  1  0  0  0  0
 35 37  2  0  0  0  0
 37 38  1  0  0  0  0
 38 39  2  0  0  0  0
 39 40  1  0  0  0  0
 40 41  2  0  0  0  0
 41 42  1  0  0  0  0
 25 43  1  0  0  0  0
 43 44  2  0  0  0  0
  5  1  1  0  0  0  0
 11  7  1  0  0  0  0
 16 12  1  0  0  0  0
 22 18  1  0  0  0  0
 44 23  1  0  0  0  0
 37  3  1  0  0  0  0
 42 38  1  0  0  0  0
 31 27  1  0  0  0  0
 36 32  1  0  0  0  0
  1 45  1  0  0  0  0
  2 46  1  0  0  0  0
  8 47  1  0  0  0  0
  9 48  1  0  0  0  0
 10 49  1  0  0  0  0
 13 50  1  0  0  0  0
 14 51  1  0  0  0  0
 16 52  1  0  0  0  0
 19 53  1  0  0  0  0
 20 54  1  0  0  0  0
 21 55  1  0  0  0  0
 28 56  1  0  0  0  0
 29 57  1  0  0  0  0
 30 58  1  0  0  0  0
 33 59  1  0  0  0  0
 34 60  1  0  0  0  0
 36 61  1  0  0  0  0
 39 62  1  0  0  0  0
 40 63  1  0  0  0  0
 41 64  1  0  0  0  0
 43 65  1  0  0  0  0
 44 66  1  0  0  0  0
M  END
