
  xtb     03022213563D
 energy: -77.778562006802 gnorm: 0.000088966069 xtb: 6.4.1 (afa7bdf)
 54 57  0     0  0            999 V2000
    3.3445   -1.5626    2.1997 C   0  0  0  0  0  0  0  0  0  0  0  0
    4.2863   -1.0535    1.1479 C   0  0  0  0  0  0  0  0  0  0  0  0
    5.5917   -1.5289    1.1474 C   0  0  0  0  0  0  0  0  0  0  0  0
    6.5194   -1.0727    0.2319 C   0  0  0  0  0  0  0  0  0  0  0  0
    6.1515   -0.1119   -0.6933 C   0  0  0  0  0  0  0  0  0  0  0  0
    4.8614    0.3905   -0.7158 C   0  0  0  0  0  0  0  0  0  0  0  0
    4.4776    1.4205   -1.7348 C   0  0  0  0  0  0  0  0  0  0  0  0
    3.9098   -0.0925    0.1999 C   0  0  0  0  0  0  0  0  0  0  0  0
    2.5645    0.4676    0.1341 C   0  0  0  0  0  0  0  0  0  0  0  0
    1.4304   -0.2458    0.1832 C   0  0  0  0  0  0  0  0  0  0  0  0
    0.0813    0.2606    0.1036 C   0  0  0  0  0  0  0  0  0  0  0  0
   -0.8723   -0.6418    0.2429 N   0  0  0  0  0  0  0  0  0  0  0  0
   -2.1589   -0.3235    0.2002 C   0  0  0  0  0  0  0  0  0  0  0  0
   -3.0627   -1.3395    0.4481 N   0  0  0  0  0  0  0  0  0  0  0  0
   -2.5177   -2.5857    0.9648 C   0  0  0  0  0  0  0  0  0  0  0  0
   -2.0605   -3.5078   -0.1686 C   0  0  0  0  0  0  0  0  0  0  0  0
   -3.1186   -3.7594   -1.0717 O   0  0  0  0  0  0  0  0  0  0  0  0
   -3.6173   -2.5576   -1.6057 C   0  0  0  0  0  0  0  0  0  0  0  0
   -4.1264   -1.6194   -0.5007 C   0  0  0  0  0  0  0  0  0  0  0  0
   -2.5471    1.0265    0.0414 C   0  0  0  0  0  0  0  0  0  0  0  0
   -1.5351    1.9465   -0.1287 C   0  0  0  0  0  0  0  0  0  0  0  0
   -0.2185    1.5751   -0.1155 N   0  0  0  0  0  4  0  0  0  0  0  0
    0.6718    2.4696   -0.2802 O   0  0  0  0  0  1  0  0  0  0  0  0
   -1.7528    3.4164   -0.2851 C   0  0  0  0  0  0  0  0  0  0  0  0
   -3.2229    3.7924   -0.4049 C   0  0  0  0  0  0  0  0  0  0  0  0
   -4.0440    2.9574    0.5695 C   0  0  0  0  0  0  0  0  0  0  0  0
   -3.9722    1.4918    0.1511 C   0  0  0  0  0  0  0  0  0  0  0  0
    2.8485   -2.4724    1.8610 H   0  0  0  0  0  0  0  0  0  0  0  0
    3.8963   -1.8055    3.1059 H   0  0  0  0  0  0  0  0  0  0  0  0
    2.5803   -0.8273    2.4376 H   0  0  0  0  0  0  0  0  0  0  0  0
    5.8817   -2.2673    1.8817 H   0  0  0  0  0  0  0  0  0  0  0  0
    7.5287   -1.4575    0.2432 H   0  0  0  0  0  0  0  0  0  0  0  0
    6.8772    0.2538   -1.4058 H   0  0  0  0  0  0  0  0  0  0  0  0
    5.3085    1.6220   -2.4067 H   0  0  0  0  0  0  0  0  0  0  0  0
    3.6253    1.0837   -2.3226 H   0  0  0  0  0  0  0  0  0  0  0  0
    4.1925    2.3538   -1.2497 H   0  0  0  0  0  0  0  0  0  0  0  0
    2.4975    1.5375   -0.0046 H   0  0  0  0  0  0  0  0  0  0  0  0
    1.4552   -1.3230    0.2709 H   0  0  0  0  0  0  0  0  0  0  0  0
   -3.3158   -3.0741    1.5328 H   0  0  0  0  0  0  0  0  0  0  0  0
   -1.6801   -2.3574    1.6215 H   0  0  0  0  0  0  0  0  0  0  0  0
   -1.7547   -4.4803    0.2191 H   0  0  0  0  0  0  0  0  0  0  0  0
   -1.2179   -3.0374   -0.6943 H   0  0  0  0  0  0  0  0  0  0  0  0
   -2.8276   -2.0433   -2.1777 H   0  0  0  0  0  0  0  0  0  0  0  0
   -4.4299   -2.8349   -2.2796 H   0  0  0  0  0  0  0  0  0  0  0  0
   -4.9403   -2.1098    0.0432 H   0  0  0  0  0  0  0  0  0  0  0  0
   -4.4961   -0.7027   -0.9518 H   0  0  0  0  0  0  0  0  0  0  0  0
   -1.2957    3.9069    0.5812 H   0  0  0  0  0  0  0  0  0  0  0  0
   -1.1778    3.7542   -1.1522 H   0  0  0  0  0  0  0  0  0  0  0  0
   -3.3455    4.8566   -0.2003 H   0  0  0  0  0  0  0  0  0  0  0  0
   -3.5741    3.6051   -1.4221 H   0  0  0  0  0  0  0  0  0  0  0  0
   -5.0847    3.2852    0.5739 H   0  0  0  0  0  0  0  0  0  0  0  0
   -3.6459    3.0744    1.5792 H   0  0  0  0  0  0  0  0  0  0  0  0
   -4.4751    1.3886   -0.8164 H   0  0  0  0  0  0  0  0  0  0  0  0
   -4.4939    0.8587    0.8722 H   0  0  0  0  0  0  0  0  0  0  0  0
  1  2  1  0  0  0  0
  2  3  2  0  0  0  0
  3  4  1  0  0  0  0
  4  5  2  0  0  0  0
  5  6  1  0  0  0  0
  6  7  1  0  0  0  0
  6  8  2  0  0  0  0
  8  9  1  0  0  0  0
  9 10  2  0  0  0  0
 10 11  1  0  0  0  0
 11 12  2  0  0  0  0
 12 13  1  0  0  0  0
 13 14  1  0  0  0  0
 14 15  1  0  0  0  0
 15 16  1  0  0  0  0
 16 17  1  0  0  0  0
 17 18  1  0  0  0  0
 18 19  1  0  0  0  0
 13 20  2  0  0  0  0
 20 21  1  0  0  0  0
 21 22  2  0  0  0  0
 22 23  1  0  0  0  0
 21 24  1  0  0  0  0
 24 25  1  0  0  0  0
 25 26  1  0  0  0  0
 26 27  1  0  0  0  0
  8  2  1  0  0  0  0
 22 11  1  0  0  0  0
 19 14  1  0  0  0  0
 27 20  1  0  0  0  0
  1 28  1  0  0  0  0
  1 29  1  0  0  0  0
  1 30  1  0  0  0  0
  3 31  1  0  0  0  0
  4 32  1  0  0  0  0
  5 33  1  0  0  0  0
  7 34  1  0  0  0  0
  7 35  1  0  0  0  0
  7 36  1  0  0  0  0
  9 37  1  0  0  0  0
 10 38  1  0  0  0  0
 15 39  1  0  0  0  0
 15 40  1  0  0  0  0
 16 41  1  0  0  0  0
 16 42  1  0  0  0  0
 18 43  1  0  0  0  0
 18 44  1  0  0  0  0
 19 45  1  0  0  0  0
 19 46  1  0  0  0  0
 24 47  1  0  0  0  0
 24 48  1  0  0  0  0
 25 49  1  0  0  0  0
 25 50  1  0  0  0  0
 26 51  1  0  0  0  0
 26 52  1  0  0  0  0
 27 53  1  0  0  0  0
 27 54  1  0  0  0  0
M  CHG  1  22   1
M  CHG  1  23  -1
M  END
