
  xtb     03022213503D
 energy: -101.118447379436 gnorm: 0.000070331222 xtb: 6.4.1 (afa7bdf)
 65 70  0     0  0            999 V2000
   -3.1714    3.7378   -0.1064 C   0  0  0  0  0  0  0  0  0  0  0  0
   -2.6433    2.3531    0.0164 C   0  0  0  0  0  0  0  0  0  0  0  0
   -3.3925    1.2255    0.2533 C   0  0  0  0  0  0  0  0  0  0  0  0
   -2.5194    0.1155    0.3004 C   0  0  0  0  0  0  0  0  0  0  0  0
   -2.8169   -1.2611    0.5183 C   0  0  0  0  0  0  0  0  0  0  0  0
   -4.0559   -1.7486    0.7275 C   0  0  0  0  0  0  0  0  0  0  0  0
   -4.3982   -3.1350    0.9527 C   0  0  0  0  0  0  0  0  0  0  0  0
   -3.4494   -4.1633    0.9727 C   0  0  0  0  0  0  0  0  0  0  0  0
   -3.8324   -5.4707    1.1930 C   0  0  0  0  0  0  0  0  0  0  0  0
   -5.1664   -5.7881    1.3986 C   0  0  0  0  0  0  0  0  0  0  0  0
   -6.1196   -4.7825    1.3817 C   0  0  0  0  0  0  0  0  0  0  0  0
   -5.7403   -3.4737    1.1615 C   0  0  0  0  0  0  0  0  0  0  0  0
   -1.2610    0.5553    0.0964 N   0  0  0  0  0  4  0  0  0  0  0  0
   -1.2860    1.9183   -0.0829 C   0  0  0  0  0  0  0  0  0  0  0  0
   -0.1146    2.6406   -0.3141 C   0  0  0  0  0  0  0  0  0  0  0  0
   -0.1781    4.1048   -0.5032 C   0  0  0  0  0  0  0  0  0  0  0  0
   -0.3593    4.6403   -1.7732 C   0  0  0  0  0  0  0  0  0  0  0  0
   -0.4183    6.0116   -1.9482 C   0  0  0  0  0  0  0  0  0  0  0  0
   -0.2974    6.8578   -0.8587 C   0  0  0  0  0  0  0  0  0  0  0  0
   -0.1169    6.3290    0.4082 C   0  0  0  0  0  0  0  0  0  0  0  0
   -0.0571    4.9582    0.5873 C   0  0  0  0  0  0  0  0  0  0  0  0
    1.1166    1.9857   -0.3673 C   0  0  0  0  0  0  0  0  0  0  0  0
    2.4330    2.4952   -0.5884 C   0  0  0  0  0  0  0  0  0  0  0  0
    2.8398    3.9055   -0.8272 C   0  0  0  0  0  0  0  0  0  0  0  0
    3.2782    1.4125   -0.5394 C   0  0  0  0  0  0  0  0  0  0  0  0
    2.5034    0.2566   -0.2937 C   0  0  0  0  0  0  0  0  0  0  0  0
    2.9194   -1.0997   -0.1585 C   0  0  0  0  0  0  0  0  0  0  0  0
    4.1976   -1.5170   -0.2513 C   0  0  0  0  0  0  0  0  0  0  0  0
    4.6592   -2.8808   -0.1214 C   0  0  0  0  0  0  0  0  0  0  0  0
    6.0273   -3.1460   -0.2528 C   0  0  0  0  0  0  0  0  0  0  0  0
    6.5190   -4.4307   -0.1380 C   0  0  0  0  0  0  0  0  0  0  0  0
    5.6553   -5.4849    0.1117 C   0  0  0  0  0  0  0  0  0  0  0  0
    4.2970   -5.2405    0.2452 C   0  0  0  0  0  0  0  0  0  0  0  0
    3.8016   -3.9575    0.1309 C   0  0  0  0  0  0  0  0  0  0  0  0
    1.2099    0.6250   -0.1943 N   0  0  0  0  0  0  0  0  0  0  0  0
    0.0134   -0.3096    0.0664 B   0  0  0  0  0  4  0  0  0  0  0  0
   -0.0784   -1.2582   -0.9421 F   0  0  0  0  0  0  0  0  0  0  0  0
    0.1744   -0.9625    1.2802 F   0  0  0  0  0  0  0  0  0  0  0  0
   -2.7260    4.3936    0.6403 H   0  0  0  0  0  0  0  0  0  0  0  0
   -2.9469    4.1557   -1.0867 H   0  0  0  0  0  0  0  0  0  0  0  0
   -4.2500    3.7301    0.0322 H   0  0  0  0  0  0  0  0  0  0  0  0
   -4.4564    1.1887    0.3814 H   0  0  0  0  0  0  0  0  0  0  0  0
   -1.9641   -1.9202    0.5071 H   0  0  0  0  0  0  0  0  0  0  0  0
   -4.8949   -1.0642    0.7345 H   0  0  0  0  0  0  0  0  0  0  0  0
   -2.4072   -3.9364    0.8145 H   0  0  0  0  0  0  0  0  0  0  0  0
   -3.0866   -6.2522    1.2051 H   0  0  0  0  0  0  0  0  0  0  0  0
   -5.4609   -6.8128    1.5707 H   0  0  0  0  0  0  0  0  0  0  0  0
   -7.1610   -5.0223    1.5411 H   0  0  0  0  0  0  0  0  0  0  0  0
   -6.4891   -2.6938    1.1498 H   0  0  0  0  0  0  0  0  0  0  0  0
   -0.4528    3.9755   -2.6198 H   0  0  0  0  0  0  0  0  0  0  0  0
   -0.5592    6.4207   -2.9378 H   0  0  0  0  0  0  0  0  0  0  0  0
   -0.3437    7.9276   -0.9969 H   0  0  0  0  0  0  0  0  0  0  0  0
   -0.0222    6.9860    1.2602 H   0  0  0  0  0  0  0  0  0  0  0  0
    0.0834    4.5403    1.5738 H   0  0  0  0  0  0  0  0  0  0  0  0
    2.5699    4.5380    0.0173 H   0  0  0  0  0  0  0  0  0  0  0  0
    2.3482    4.3097   -1.7109 H   0  0  0  0  0  0  0  0  0  0  0  0
    3.9166    3.9547   -0.9715 H   0  0  0  0  0  0  0  0  0  0  0  0
    4.3427    1.4352   -0.6653 H   0  0  0  0  0  0  0  0  0  0  0  0
    2.1259   -1.8045    0.0292 H   0  0  0  0  0  0  0  0  0  0  0  0
    4.9753   -0.7880   -0.4414 H   0  0  0  0  0  0  0  0  0  0  0  0
    6.7068   -2.3279   -0.4477 H   0  0  0  0  0  0  0  0  0  0  0  0
    7.5787   -4.6135   -0.2433 H   0  0  0  0  0  0  0  0  0  0  0  0
    6.0377   -6.4909    0.2016 H   0  0  0  0  0  0  0  0  0  0  0  0
    3.6206   -6.0600    0.4401 H   0  0  0  0  0  0  0  0  0  0  0  0
    2.7423   -3.7873    0.2383 H   0  0  0  0  0  0  0  0  0  0  0  0
  1  2  1  0  0  0  0
  2  3  2  0  0  0  0
  3  4  1  0  0  0  0
  4  5  1  0  0  0  0
  5  6  2  0  0  0  0
  6  7  1  0  0  0  0
  7  8  2  0  0  0  0
  8  9  1  0  0  0  0
  9 10  2  0  0  0  0
 10 11  1  0  0  0  0
 11 12  2  0  0  0  0
  4 13  2  0  0  0  0
 13 14  1  0  0  0  0
 14 15  2  0  0  0  0
 15 16  1  0  0  0  0
 16 17  2  0  0  0  0
 17 18  1  0  0  0  0
 18 19  2  0  0  0  0
 19 20  1  0  0  0  0
 20 21  2  0  0  0  0
 15 22  1  0  0  0  0
 22 23  2  0  0  0  0
 23 24  1  0  0  0  0
 23 25  1  0  0  0  0
 25 26  2  0  0  0  0
 26 27  1  0  0  0  0
 27 28  2  0  0  0  0
 28 29  1  0  0  0  0
 29 30  2  0  0  0  0
 30 31  1  0  0  0  0
 31 32  2  0  0  0  0
 32 33  1  0  0  0  0
 33 34  2  0  0  0  0
 26 35  1  0  0  0  0
 35 36  1  0  0  0  0
 36 37  1  0  0  0  0
 36 38  1  0  0  0  0
 14  2  1  0  0  0  0
 21 16  1  0  0  0  0
 35 22  1  0  0  0  0
 12  7  1  0  0  0  0
 36 13  1  0  0  0  0
 34 29  1  0  0  0  0
  1 39  1  0  0  0  0
  1 40  1  0  0  0  0
  1 41  1  0  0  0  0
  3 42  1  0  0  0  0
  5 43  1  0  0  0  0
  6 44  1  0  0  0  0
  8 45  1  0  0  0  0
  9 46  1  0  0  0  0
 10 47  1  0  0  0  0
 11 48  1  0  0  0  0
 12 49  1  0  0  0  0
 17 50  1  0  0  0  0
 18 51  1  0  0  0  0
 19 52  1  0  0  0  0
 20 53  1  0  0  0  0
 21 54  1  0  0  0  0
 24 55  1  0  0  0  0
 24 56  1  0  0  0  0
 24 57  1  0  0  0  0
 25 58  1  0  0  0  0
 27 59  1  0  0  0  0
 28 60  1  0  0  0  0
 30 61  1  0  0  0  0
 31 62  1  0  0  0  0
 32 63  1  0  0  0  0
 33 64  1  0  0  0  0
 34 65  1  0  0  0  0
M  CHG  1  13   1
M  CHG  1  36  -1
M  END
