
  xtb     03022213573D
 energy: -118.915327903372 gnorm: 0.000149707805 xtb: 6.4.1 (afa7bdf)
 76 82  0     0  0            999 V2000
    5.1521   -5.4444   -0.0134 C   0  0  0  0  0  0  0  0  0  0  0  0
    3.7758   -5.0165   -0.0070 N   0  0  0  0  0  0  0  0  0  0  0  0
    2.7524   -6.0308   -0.0090 C   0  0  0  0  0  0  0  0  0  0  0  0
    3.4490   -3.6885   -0.0026 C   0  0  0  0  0  0  0  0  0  0  0  0
    4.4134   -2.6984    0.2502 C   0  0  0  0  0  0  0  0  0  0  0  0
    4.0798   -1.3653    0.2547 C   0  0  0  0  0  0  0  0  0  0  0  0
    2.7675   -0.9374    0.0190 C   0  0  0  0  0  0  0  0  0  0  0  0
    2.4282    0.4609    0.0376 C   0  0  0  0  0  0  0  0  0  0  0  0
    3.2770    1.5543   -0.0732 C   0  0  0  0  0  0  0  0  0  0  0  0
    2.5076    2.7252   -0.0072 C   0  0  0  0  0  0  0  0  0  0  0  0
    3.0388    4.0738   -0.1171 C   0  0  0  0  0  0  0  0  0  0  0  0
    2.5597    5.1362    0.6483 C   0  0  0  0  0  0  0  0  0  0  0  0
    3.1135    6.3955    0.5157 C   0  0  0  0  0  0  0  0  0  0  0  0
    4.1489    6.6179   -0.3764 C   0  0  0  0  0  0  0  0  0  0  0  0
    4.6364    5.5674   -1.1375 C   0  0  0  0  0  0  0  0  0  0  0  0
    4.0918    4.3057   -1.0067 C   0  0  0  0  0  0  0  0  0  0  0  0
    1.2070    2.3966    0.1427 N   0  0  0  0  0  4  0  0  0  0  0  0
    1.1134    1.0210    0.1587 C   0  0  0  0  0  0  0  0  0  0  0  0
   -0.0173    0.3600    0.2316 N   0  0  0  0  0  0  0  0  0  0  0  0
   -1.1622    0.9995    0.2093 C   0  0  0  0  0  0  0  0  0  0  0  0
   -2.4639    0.4065    0.1097 C   0  0  0  0  0  0  0  0  0  0  0  0
   -2.7637   -0.9982    0.1806 C   0  0  0  0  0  0  0  0  0  0  0  0
   -3.9697   -1.5098   -0.3133 C   0  0  0  0  0  0  0  0  0  0  0  0
   -4.2558   -2.8527   -0.2601 C   0  0  0  0  0  0  0  0  0  0  0  0
   -3.3491   -3.7674    0.3019 C   0  0  0  0  0  0  0  0  0  0  0  0
   -3.6279   -5.1053    0.3518 N   0  0  0  0  0  0  0  0  0  0  0  0
   -2.6058   -6.0652    0.6833 C   0  0  0  0  0  0  0  0  0  0  0  0
   -4.9575   -5.5993    0.0958 C   0  0  0  0  0  0  0  0  0  0  0  0
   -2.1457   -3.2504    0.8110 C   0  0  0  0  0  0  0  0  0  0  0  0
   -1.8650   -1.9070    0.7523 C   0  0  0  0  0  0  0  0  0  0  0  0
   -3.3318    1.4720   -0.0878 C   0  0  0  0  0  0  0  0  0  0  0  0
   -2.5891    2.6621   -0.0577 C   0  0  0  0  0  0  0  0  0  0  0  0
   -3.1476    3.9936   -0.2219 C   0  0  0  0  0  0  0  0  0  0  0  0
   -2.7011    5.0916    0.5123 C   0  0  0  0  0  0  0  0  0  0  0  0
   -3.2789    6.3334    0.3281 C   0  0  0  0  0  0  0  0  0  0  0  0
   -4.3063    6.5025   -0.5849 C   0  0  0  0  0  0  0  0  0  0  0  0
   -4.7619    5.4160   -1.3148 C   0  0  0  0  0  0  0  0  0  0  0  0
   -4.1930    4.1715   -1.1326 C   0  0  0  0  0  0  0  0  0  0  0  0
   -1.2844    2.3701    0.1267 N   0  0  0  0  0  0  0  0  0  0  0  0
   -0.0498    3.2853    0.3143 B   0  0  0  0  0  4  0  0  0  0  0  0
   -0.0509    4.3190   -0.5945 F   0  0  0  0  0  0  0  0  0  0  0  0
   -0.0692    3.7886    1.6163 F   0  0  0  0  0  0  0  0  0  0  0  0
    1.8075   -1.9228   -0.2409 C   0  0  0  0  0  0  0  0  0  0  0  0
    2.1354   -3.2567   -0.2520 C   0  0  0  0  0  0  0  0  0  0  0  0
    5.7383   -4.8365   -0.7046 H   0  0  0  0  0  0  0  0  0  0  0  0
    5.2069   -6.4787   -0.3479 H   0  0  0  0  0  0  0  0  0  0  0  0
    5.6053   -5.3785    0.9828 H   0  0  0  0  0  0  0  0  0  0  0  0
    3.1834   -6.9786    0.3080 H   0  0  0  0  0  0  0  0  0  0  0  0
    2.3124   -6.1663   -1.0043 H   0  0  0  0  0  0  0  0  0  0  0  0
    1.9571   -5.7715    0.6924 H   0  0  0  0  0  0  0  0  0  0  0  0
    5.4317   -2.9770    0.4690 H   0  0  0  0  0  0  0  0  0  0  0  0
    4.8447   -0.6366    0.4760 H   0  0  0  0  0  0  0  0  0  0  0  0
    4.3433    1.5354   -0.1843 H   0  0  0  0  0  0  0  0  0  0  0  0
    1.7669    4.9734    1.3567 H   0  0  0  0  0  0  0  0  0  0  0  0
    2.7330    7.2101    1.1141 H   0  0  0  0  0  0  0  0  0  0  0  0
    4.5755    7.6051   -0.4798 H   0  0  0  0  0  0  0  0  0  0  0  0
    5.4423    5.7347   -1.8377 H   0  0  0  0  0  0  0  0  0  0  0  0
    4.4607    3.4939   -1.6163 H   0  0  0  0  0  0  0  0  0  0  0  0
   -4.6813   -0.8408   -0.7730 H   0  0  0  0  0  0  0  0  0  0  0  0
   -5.1851   -3.2009   -0.6816 H   0  0  0  0  0  0  0  0  0  0  0  0
   -2.9135   -7.0516    0.3406 H   0  0  0  0  0  0  0  0  0  0  0  0
   -1.6697   -5.8122    0.1825 H   0  0  0  0  0  0  0  0  0  0  0  0
   -2.4238   -6.1148    1.7635 H   0  0  0  0  0  0  0  0  0  0  0  0
   -5.7018   -4.9593    0.5725 H   0  0  0  0  0  0  0  0  0  0  0  0
   -5.0576   -6.5989    0.5150 H   0  0  0  0  0  0  0  0  0  0  0  0
   -5.1746   -5.6508   -0.9776 H   0  0  0  0  0  0  0  0  0  0  0  0
   -1.4315   -3.9047    1.2846 H   0  0  0  0  0  0  0  0  0  0  0  0
   -0.9427   -1.5347    1.1672 H   0  0  0  0  0  0  0  0  0  0  0  0
   -4.3988    1.4257   -0.1846 H   0  0  0  0  0  0  0  0  0  0  0  0
   -1.9147    4.9698    1.2360 H   0  0  0  0  0  0  0  0  0  0  0  0
   -2.9239    7.1765    0.9022 H   0  0  0  0  0  0  0  0  0  0  0  0
   -4.7516    7.4762   -0.7287 H   0  0  0  0  0  0  0  0  0  0  0  0
   -5.5615    5.5419   -2.0307 H   0  0  0  0  0  0  0  0  0  0  0  0
   -4.5368    3.3309   -1.7173 H   0  0  0  0  0  0  0  0  0  0  0  0
    0.7958   -1.6183   -0.4526 H   0  0  0  0  0  0  0  0  0  0  0  0
    1.3633   -3.9729   -0.4838 H   0  0  0  0  0  0  0  0  0  0  0  0
  1  2  1  0  0  0  0
  2  3  1  0  0  0  0
  2  4  1  0  0  0  0
  4  5  2  0  0  0  0
  5  6  1  0  0  0  0
  6  7  2  0  0  0  0
  7  8  1  0  0  0  0
  8  9  2  0  0  0  0
  9 10  1  0  0  0  0
 10 11  1  0  0  0  0
 11 12  2  0  0  0  0
 12 13  1  0  0  0  0
 13 14  2  0  0  0  0
 14 15  1  0  0  0  0
 15 16  2  0  0  0  0
 10 17  2  0  0  0  0
 17 18  1  0  0  0  0
 18 19  2  0  0  0  0
 19 20  1  0  0  0  0
 20 21  2  0  0  0  0
 21 22  1  0  0  0  0
 22 23  2  0  0  0  0
 23 24  1  0  0  0  0
 24 25  2  0  0  0  0
 25 26  1  0  0  0  0
 26 27  1  0  0  0  0
 26 28  1  0  0  0  0
 25 29  1  0  0  0  0
 29 30  2  0  0  0  0
 21 31  1  0  0  0  0
 31 32  2  0  0  0  0
 32 33  1  0  0  0  0
 33 34  2  0  0  0  0
 34 35  1  0  0  0  0
 35 36  2  0  0  0  0
 36 37  1  0  0  0  0
 37 38  2  0  0  0  0
 32 39  1  0  0  0  0
 39 40  1  0  0  0  0
 40 41  1  0  0  0  0
 40 42  1  0  0  0  0
  7 43  1  0  0  0  0
 43 44  2  0  0  0  0
 44  4  1  0  0  0  0
 18  8  1  0  0  0  0
 39 20  1  0  0  0  0
 16 11  1  0  0  0  0
 40 17  1  0  0  0  0
 30 22  1  0  0  0  0
 38 33  1  0  0  0  0
  1 45  1  0  0  0  0
  1 46  1  0  0  0  0
  1 47  1  0  0  0  0
  3 48  1  0  0  0  0
  3 49  1  0  0  0  0
  3 50  1  0  0  0  0
  5 51  1  0  0  0  0
  6 52  1  0  0  0  0
  9 53  1  0  0  0  0
 12 54  1  0  0  0  0
 13 55  1  0  0  0  0
 14 56  1  0  0  0  0
 15 57  1  0  0  0  0
 16 58  1  0  0  0  0
 23 59  1  0  0  0  0
 24 60  1  0  0  0  0
 27 61  1  0  0  0  0
 27 62  1  0  0  0  0
 27 63  1  0  0  0  0
 28 64  1  0  0  0  0
 28 65  1  0  0  0  0
 28 66  1  0  0  0  0
 29 67  1  0  0  0  0
 30 68  1  0  0  0  0
 31 69  1  0  0  0  0
 34 70  1  0  0  0  0
 35 71  1  0  0  0  0
 36 72  1  0  0  0  0
 37 73  1  0  0  0  0
 38 74  1  0  0  0  0
 43 75  1  0  0  0  0
 44 76  1  0  0  0  0
M  CHG  1  17   1
M  CHG  1  40  -1
M  END
