
  xtb     03022215133D
 energy: -68.956175280337 gnorm: 0.000064473225 xtb: 6.4.1 (afa7bdf)
 46 49  0     0  0            999 V2000
   -4.6516    1.2623   -0.3425 C   0  0  0  0  0  0  0  0  0  0  0  0
   -3.5641    0.3042    0.0292 C   0  0  0  0  0  0  0  0  0  0  0  0
   -3.8481   -0.8731    0.6635 C   0  0  0  0  0  0  0  0  0  0  0  0
   -2.8587   -1.8372    0.9639 C   0  0  0  0  0  0  0  0  0  0  0  0
   -3.2161   -3.0763    1.5307 C   0  0  0  0  0  0  0  0  0  0  0  0
   -2.2814   -4.0514    1.7425 C   0  0  0  0  0  0  0  0  0  0  0  0
   -0.9500   -3.8338    1.3680 C   0  0  0  0  0  0  0  0  0  0  0  0
   -0.5634   -2.6332    0.8365 C   0  0  0  0  0  0  0  0  0  0  0  0
   -1.4912   -1.5885    0.6578 C   0  0  0  0  0  0  0  0  0  0  0  0
   -1.1986   -0.3102    0.1270 C   0  0  0  0  0  0  0  0  0  0  0  0
   -2.2066    0.5819   -0.2507 C   0  0  0  0  0  0  0  0  0  0  0  0
   -1.5629    1.6937   -0.9028 C   0  0  0  0  0  0  0  0  0  0  0  0
   -2.0271    2.8629   -1.4962 C   0  0  0  0  0  0  0  0  0  0  0  0
   -1.1166    3.7404   -2.0504 C   0  0  0  0  0  0  0  0  0  0  0  0
    0.2466    3.4709   -2.0183 C   0  0  0  0  0  0  0  0  0  0  0  0
    0.7339    2.3166   -1.4335 C   0  0  0  0  0  0  0  0  0  0  0  0
   -0.1757    1.4306   -0.8815 C   0  0  0  0  0  0  0  0  0  0  0  0
    0.0484    0.2208   -0.2190 N   0  0  0  0  0  0  0  0  0  0  0  0
    1.2527   -0.1060    0.4090 C   0  0  0  0  0  0  0  0  0  0  0  0
    1.3115   -0.5641    1.5190 O   0  0  0  0  0  0  0  0  0  0  0  0
    2.2800    0.1743   -0.3854 O   0  0  0  0  0  0  0  0  0  0  0  0
    3.6443   -0.0343    0.0674 C   0  0  0  0  0  0  0  0  0  0  0  0
    3.8763   -1.5156    0.3623 C   0  0  0  0  0  0  0  0  0  0  0  0
    3.9314    0.8266    1.2961 C   0  0  0  0  0  0  0  0  0  0  0  0
    4.4987    0.4154   -1.1182 C   0  0  0  0  0  0  0  0  0  0  0  0
   -4.6773    1.4068   -1.4219 H   0  0  0  0  0  0  0  0  0  0  0  0
   -4.4864    2.2295    0.1304 H   0  0  0  0  0  0  0  0  0  0  0  0
   -5.6182    0.8805   -0.0224 H   0  0  0  0  0  0  0  0  0  0  0  0
   -4.8720   -1.1090    0.9183 H   0  0  0  0  0  0  0  0  0  0  0  0
   -4.2532   -3.2473    1.7826 H   0  0  0  0  0  0  0  0  0  0  0  0
   -2.5666   -4.9983    2.1773 H   0  0  0  0  0  0  0  0  0  0  0  0
   -0.2255   -4.6246    1.4957 H   0  0  0  0  0  0  0  0  0  0  0  0
    0.4614   -2.4975    0.5349 H   0  0  0  0  0  0  0  0  0  0  0  0
   -3.0794    3.0903   -1.5298 H   0  0  0  0  0  0  0  0  0  0  0  0
   -1.4668    4.6494   -2.5167 H   0  0  0  0  0  0  0  0  0  0  0  0
    0.9387    4.1721   -2.4605 H   0  0  0  0  0  0  0  0  0  0  0  0
    1.7911    2.1128   -1.4219 H   0  0  0  0  0  0  0  0  0  0  0  0
    3.6170   -2.1148   -0.5083 H   0  0  0  0  0  0  0  0  0  0  0  0
    3.2690   -1.8338    1.2054 H   0  0  0  0  0  0  0  0  0  0  0  0
    4.9229   -1.6796    0.6028 H   0  0  0  0  0  0  0  0  0  0  0  0
    3.3304    0.4975    2.1394 H   0  0  0  0  0  0  0  0  0  0  0  0
    3.7010    1.8693    1.0865 H   0  0  0  0  0  0  0  0  0  0  0  0
    4.9822    0.7446    1.5591 H   0  0  0  0  0  0  0  0  0  0  0  0
    5.5494    0.2470   -0.9022 H   0  0  0  0  0  0  0  0  0  0  0  0
    4.2243   -0.1449   -2.0081 H   0  0  0  0  0  0  0  0  0  0  0  0
    4.3458    1.4735   -1.3151 H   0  0  0  0  0  0  0  0  0  0  0  0
  1  2  1  0  0  0  0
  2  3  2  0  0  0  0
  3  4  1  0  0  0  0
  4  5  2  0  0  0  0
  5  6  1  0  0  0  0
  6  7  2  0  0  0  0
  7  8  1  0  0  0  0
  8  9  2  0  0  0  0
  9 10  1  0  0  0  0
 10 11  2  0  0  0  0
 11 12  1  0  0  0  0
 12 13  2  0  0  0  0
 13 14  1  0  0  0  0
 14 15  2  0  0  0  0
 15 16  1  0  0  0  0
 16 17  2  0  0  0  0
 17 18  1  0  0  0  0
 18 19  1  0  0  0  0
 19 20  2  0  0  0  0
 19 21  1  0  0  0  0
 21 22  1  0  0  0  0
 22 23  1  0  0  0  0
 22 24  1  0  0  0  0
 22 25  1  0  0  0  0
 11  2  1  0  0  0  0
 17 12  1  0  0  0  0
  9  4  1  0  0  0  0
 18 10  1  0  0  0  0
  1 26  1  0  0  0  0
  1 27  1  0  0  0  0
  1 28  1  0  0  0  0
  3 29  1  0  0  0  0
  5 30  1  0  0  0  0
  6 31  1  0  0  0  0
  7 32  1  0  0  0  0
  8 33  1  0  0  0  0
 13 34  1  0  0  0  0
 14 35  1  0  0  0  0
 15 36  1  0  0  0  0
 16 37  1  0  0  0  0
 23 38  1  0  0  0  0
 23 39  1  0  0  0  0
 23 40  1  0  0  0  0
 24 41  1  0  0  0  0
 24 42  1  0  0  0  0
 24 43  1  0  0  0  0
 25 44  1  0  0  0  0
 25 45  1  0  0  0  0
 25 46  1  0  0  0  0
M  END
