
  xtb     03022212293D
 energy: -109.222966183125 gnorm: 0.000151682158 xtb: 6.4.1 (afa7bdf)
 80 85  0     0  0            999 V2000
   -6.2818   -0.5595    0.9648 C   0  0  0  0  0  0  0  0  0  0  0  0
   -6.3437   -1.8539    0.1646 C   0  0  0  0  0  0  0  0  0  0  0  0
   -5.6289   -1.7426   -1.1906 C   0  0  0  0  0  0  0  0  0  0  0  0
   -4.1622   -1.5353   -1.0260 C   0  0  0  0  0  0  0  0  0  0  0  0
   -3.2398   -2.4845   -0.7112 C   0  0  0  0  0  0  0  0  0  0  0  0
   -1.9665   -1.8184   -0.6344 C   0  0  0  0  0  0  0  0  0  0  0  0
   -2.1127   -0.5142   -0.8775 N   0  0  0  0  0  0  0  0  0  0  0  0
   -3.4296   -0.2745   -1.0950 C   0  0  0  0  0  0  0  0  0  0  0  0
   -4.0124    0.9760   -1.2828 C   0  0  0  0  0  0  0  0  0  0  0  0
   -3.4941    2.2594   -1.1517 C   0  0  0  0  0  0  0  0  0  0  0  0
   -2.2089    2.6669   -0.8103 C   0  0  0  0  0  0  0  0  0  0  0  0
   -1.1449    1.8375   -0.6676 N   0  0  0  0  0  0  0  0  0  0  0  0
   -0.0724    2.5178   -0.2084 C   0  0  0  0  0  0  0  0  0  0  0  0
   -0.4581    3.8850   -0.0793 C   0  0  0  0  0  0  0  0  0  0  0  0
   -1.7647    3.9938   -0.4673 C   0  0  0  0  0  0  0  0  0  0  0  0
   -2.5791    5.2382   -0.5507 C   0  0  0  0  0  0  0  0  0  0  0  0
   -2.6728    5.7404   -1.9979 C   0  0  0  0  0  0  0  0  0  0  0  0
   -3.5159    7.0046   -2.0977 C   0  0  0  0  0  0  0  0  0  0  0  0
    1.1565    1.9117    0.0610 C   0  0  0  0  0  0  0  0  0  0  0  0
    1.4398    0.6439   -0.3433 N   0  0  0  0  0  0  0  0  0  0  0  0
    2.6776    0.3601    0.0605 C   0  0  0  0  0  0  0  0  0  0  0  0
    3.3995   -0.8369   -0.3121 C   0  0  0  0  0  0  0  0  0  0  0  0
    4.7601   -0.6486   -0.6117 C   0  0  0  0  0  0  0  0  0  0  0  0
    5.5950   -1.6792   -0.9681 C   0  0  0  0  0  0  0  0  0  0  0  0
    5.0843   -2.9684   -1.0577 C   0  0  0  0  0  0  0  0  0  0  0  0
    3.7532   -3.1845   -0.7975 C   0  0  0  0  0  0  0  0  0  0  0  0
    2.8756   -2.1545   -0.4151 C   0  0  0  0  0  0  0  0  0  0  0  0
    1.5018   -2.5353   -0.1960 C   0  0  0  0  0  0  0  0  0  0  0  0
    0.4626   -1.7305   -0.5093 N   0  0  0  0  0  0  0  0  0  0  0  0
   -0.7117   -2.3967   -0.3559 C   0  0  0  0  0  0  0  0  0  0  0  0
   -0.4043   -3.6893    0.1018 C   0  0  0  0  0  0  0  0  0  0  0  0
    0.9713   -3.7850    0.2220 C   0  0  0  0  0  0  0  0  0  0  0  0
    1.7182   -4.9468    0.7985 C   0  0  0  0  0  0  0  0  0  0  0  0
    0.9608   -5.6191    1.9470 C   0  0  0  0  0  0  0  0  0  0  0  0
    1.8098   -6.6943    2.6134 C   0  0  0  0  0  0  0  0  0  0  0  0
    3.2223    1.4715    0.8187 C   0  0  0  0  0  0  0  0  0  0  0  0
    4.4952    1.5329    1.5985 C   0  0  0  0  0  0  0  0  0  0  0  0
    5.4653    2.5849    1.0475 C   0  0  0  0  0  0  0  0  0  0  0  0
    6.7674    2.6119    1.8370 C   0  0  0  0  0  0  0  0  0  0  0  0
    2.2616    2.4439    0.7904 C   0  0  0  0  0  0  0  0  0  0  0  0
   -6.7671    0.2503    0.4237 H   0  0  0  0  0  0  0  0  0  0  0  0
   -5.2490   -0.2756    1.1542 H   0  0  0  0  0  0  0  0  0  0  0  0
   -6.7865   -0.6809    1.9207 H   0  0  0  0  0  0  0  0  0  0  0  0
   -5.8813   -2.6579    0.7410 H   0  0  0  0  0  0  0  0  0  0  0  0
   -7.3882   -2.1234   -0.0097 H   0  0  0  0  0  0  0  0  0  0  0  0
   -6.0718   -0.9284   -1.7675 H   0  0  0  0  0  0  0  0  0  0  0  0
   -5.7904   -2.6718   -1.7437 H   0  0  0  0  0  0  0  0  0  0  0  0
   -3.4000   -3.5358   -0.5704 H   0  0  0  0  0  0  0  0  0  0  0  0
   -5.0717    0.9420   -1.5049 H   0  0  0  0  0  0  0  0  0  0  0  0
   -4.2085    3.0628   -1.2768 H   0  0  0  0  0  0  0  0  0  0  0  0
   -1.2755    0.7955   -0.7747 H   0  0  0  0  0  0  0  0  0  0  0  0
    0.1844    4.6785    0.2499 H   0  0  0  0  0  0  0  0  0  0  0  0
   -2.1194    6.0125    0.0669 H   0  0  0  0  0  0  0  0  0  0  0  0
   -3.5861    5.0537   -0.1689 H   0  0  0  0  0  0  0  0  0  0  0  0
   -1.6653    5.9398   -2.3691 H   0  0  0  0  0  0  0  0  0  0  0  0
   -3.1060    4.9578   -2.6241 H   0  0  0  0  0  0  0  0  0  0  0  0
   -3.0870    7.7992   -1.4908 H   0  0  0  0  0  0  0  0  0  0  0  0
   -4.5295    6.8179   -1.7487 H   0  0  0  0  0  0  0  0  0  0  0  0
   -3.5661    7.3493   -3.1279 H   0  0  0  0  0  0  0  0  0  0  0  0
    5.1456    0.3576   -0.6186 H   0  0  0  0  0  0  0  0  0  0  0  0
    6.6308   -1.4829   -1.2032 H   0  0  0  0  0  0  0  0  0  0  0  0
    5.7186   -3.7885   -1.3601 H   0  0  0  0  0  0  0  0  0  0  0  0
    3.3483   -4.1712   -0.9484 H   0  0  0  0  0  0  0  0  0  0  0  0
    0.6101   -0.7120   -0.6851 H   0  0  0  0  0  0  0  0  0  0  0  0
   -1.1242   -4.4494    0.3307 H   0  0  0  0  0  0  0  0  0  0  0  0
    2.6849   -4.6014    1.1728 H   0  0  0  0  0  0  0  0  0  0  0  0
    1.9077   -5.6973    0.0229 H   0  0  0  0  0  0  0  0  0  0  0  0
    0.6827   -4.8619    2.6831 H   0  0  0  0  0  0  0  0  0  0  0  0
    0.0428   -6.0714    1.5691 H   0  0  0  0  0  0  0  0  0  0  0  0
    1.2613   -7.1668    3.4250 H   0  0  0  0  0  0  0  0  0  0  0  0
    2.0870   -7.4627    1.8943 H   0  0  0  0  0  0  0  0  0  0  0  0
    2.7219   -6.2635    3.0215 H   0  0  0  0  0  0  0  0  0  0  0  0
    4.2545    1.8007    2.6326 H   0  0  0  0  0  0  0  0  0  0  0  0
    4.9787    0.5541    1.6169 H   0  0  0  0  0  0  0  0  0  0  0  0
    5.6821    2.3763   -0.0033 H   0  0  0  0  0  0  0  0  0  0  0  0
    4.9883    3.5660    1.0903 H   0  0  0  0  0  0  0  0  0  0  0  0
    6.5744    2.8398    2.8833 H   0  0  0  0  0  0  0  0  0  0  0  0
    7.2652    1.6456    1.7845 H   0  0  0  0  0  0  0  0  0  0  0  0
    7.4413    3.3676    1.4394 H   0  0  0  0  0  0  0  0  0  0  0  0
    2.2902    3.4070    1.2620 H   0  0  0  0  0  0  0  0  0  0  0  0
  1  2  1  0  0  0  0
  2  3  1  0  0  0  0
  3  4  1  0  0  0  0
  4  5  2  0  0  0  0
  5  6  1  0  0  0  0
  6  7  2  0  0  0  0
  7  8  1  0  0  0  0
  8  9  2  0  0  0  0
  9 10  1  0  0  0  0
 10 11  2  0  0  0  0
 11 12  1  0  0  0  0
 12 13  1  0  0  0  0
 13 14  1  0  0  0  0
 14 15  2  0  0  0  0
 15 16  1  0  0  0  0
 16 17  1  0  0  0  0
 17 18  1  0  0  0  0
 13 19  2  0  0  0  0
 19 20  1  0  0  0  0
 20 21  2  0  0  0  0
 21 22  1  0  0  0  0
 22 23  2  0  0  0  0
 23 24  1  0  0  0  0
 24 25  2  0  0  0  0
 25 26  1  0  0  0  0
 26 27  2  0  0  0  0
 27 28  1  0  0  0  0
 28 29  1  0  0  0  0
 29 30  1  0  0  0  0
 30 31  2  0  0  0  0
 31 32  1  0  0  0  0
 32 33  1  0  0  0  0
 33 34  1  0  0  0  0
 34 35  1  0  0  0  0
 21 36  1  0  0  0  0
 36 37  1  0  0  0  0
 37 38  1  0  0  0  0
 38 39  1  0  0  0  0
 36 40  2  0  0  0  0
  8  4  1  0  0  0  0
 15 11  1  0  0  0  0
 40 19  1  0  0  0  0
 30  6  1  0  0  0  0
 27 22  1  0  0  0  0
 32 28  2  0  0  0  0
  1 41  1  0  0  0  0
  1 42  1  0  0  0  0
  1 43  1  0  0  0  0
  2 44  1  0  0  0  0
  2 45  1  0  0  0  0
  3 46  1  0  0  0  0
  3 47  1  0  0  0  0
  5 48  1  0  0  0  0
  9 49  1  0  0  0  0
 10 50  1  0  0  0  0
 12 51  1  0  0  0  0
 14 52  1  0  0  0  0
 16 53  1  0  0  0  0
 16 54  1  0  0  0  0
 17 55  1  0  0  0  0
 17 56  1  0  0  0  0
 18 57  1  0  0  0  0
 18 58  1  0  0  0  0
 18 59  1  0  0  0  0
 23 60  1  0  0  0  0
 24 61  1  0  0  0  0
 25 62  1  0  0  0  0
 26 63  1  0  0  0  0
 29 64  1  0  0  0  0
 31 65  1  0  0  0  0
 33 66  1  0  0  0  0
 33 67  1  0  0  0  0
 34 68  1  0  0  0  0
 34 69  1  0  0  0  0
 35 70  1  0  0  0  0
 35 71  1  0  0  0  0
 35 72  1  0  0  0  0
 37 73  1  0  0  0  0
 37 74  1  0  0  0  0
 38 75  1  0  0  0  0
 38 76  1  0  0  0  0
 39 77  1  0  0  0  0
 39 78  1  0  0  0  0
 39 79  1  0  0  0  0
 40 80  1  0  0  0  0
M  END
