
  xtb     03022212323D
 energy: -66.474822943022 gnorm: 0.000122486305 xtb: 6.4.1 (afa7bdf)
 44 45  0     0  0            999 V2000
   -5.2981    3.1267    0.4860 C   0  0  0  0  0  0  0  0  0  0  0  0
   -5.4599    1.7331    0.5622 O   0  0  0  0  0  0  0  0  0  0  0  0
   -4.4796    0.9376    0.0571 C   0  0  0  0  0  0  0  0  0  0  0  0
   -3.3167    1.3874   -0.5472 C   0  0  0  0  0  0  0  0  0  0  0  0
   -2.3681    0.4921   -1.0186 C   0  0  0  0  0  0  0  0  0  0  0  0
   -2.5750   -0.8727   -0.8945 C   0  0  0  0  0  0  0  0  0  0  0  0
   -1.6183   -1.8823   -1.4183 C   0  0  0  0  0  0  0  0  0  0  0  0
   -2.0185   -2.9333   -1.8970 O   0  0  0  0  0  0  0  0  0  0  0  0
   -0.1889   -1.5866   -1.3316 C   0  0  0  0  0  0  0  0  0  0  0  0
    0.3644   -0.7688   -0.4190 C   0  0  0  0  0  0  0  0  0  0  0  0
    1.7674   -0.4875   -0.2454 C   0  0  0  0  0  0  0  0  0  0  0  0
    2.1704    0.3804    0.7765 C   0  0  0  0  0  0  0  0  0  0  0  0
    3.4917    0.6931    0.9877 C   0  0  0  0  0  0  0  0  0  0  0  0
    4.5034    0.1476    0.1792 C   0  0  0  0  0  0  0  0  0  0  0  0
    5.8197    0.4523    0.3793 N   0  0  0  0  0  0  0  0  0  0  0  0
    6.2060    1.4439    1.3517 C   0  0  0  0  0  0  0  0  0  0  0  0
    6.8540   -0.2440   -0.3451 C   0  0  0  0  0  0  0  0  0  0  0  0
    4.1008   -0.7238   -0.8483 C   0  0  0  0  0  0  0  0  0  0  0  0
    2.7766   -1.0282   -1.0506 C   0  0  0  0  0  0  0  0  0  0  0  0
   -3.7615   -1.3341   -0.3179 C   0  0  0  0  0  0  0  0  0  0  0  0
   -4.7085   -0.4549    0.1666 C   0  0  0  0  0  0  0  0  0  0  0  0
   -5.8820   -0.8115    0.7567 O   0  0  0  0  0  0  0  0  0  0  0  0
   -6.1814   -2.1820    0.8574 C   0  0  0  0  0  0  0  0  0  0  0  0
   -4.4083    3.4606    1.0305 H   0  0  0  0  0  0  0  0  0  0  0  0
   -5.2378    3.4706   -0.5521 H   0  0  0  0  0  0  0  0  0  0  0  0
   -6.1854    3.5508    0.9535 H   0  0  0  0  0  0  0  0  0  0  0  0
   -3.1370    2.4446   -0.6627 H   0  0  0  0  0  0  0  0  0  0  0  0
   -1.4834    0.8675   -1.5096 H   0  0  0  0  0  0  0  0  0  0  0  0
    0.4242   -2.1702   -2.0042 H   0  0  0  0  0  0  0  0  0  0  0  0
   -0.2888   -0.2675    0.2858 H   0  0  0  0  0  0  0  0  0  0  0  0
    1.4191    0.8157    1.4211 H   0  0  0  0  0  0  0  0  0  0  0  0
    3.7407    1.3590    1.7977 H   0  0  0  0  0  0  0  0  0  0  0  0
    6.0409    1.0932    2.3768 H   0  0  0  0  0  0  0  0  0  0  0  0
    5.6427    2.3686    1.2043 H   0  0  0  0  0  0  0  0  0  0  0  0
    7.2625    1.6737    1.2351 H   0  0  0  0  0  0  0  0  0  0  0  0
    6.7145   -1.3260   -0.2787 H   0  0  0  0  0  0  0  0  0  0  0  0
    7.8232   -0.0037    0.0855 H   0  0  0  0  0  0  0  0  0  0  0  0
    6.8676    0.0427   -1.4024 H   0  0  0  0  0  0  0  0  0  0  0  0
    4.8341   -1.1616   -1.5055 H   0  0  0  0  0  0  0  0  0  0  0  0
    2.5172   -1.6995   -1.8545 H   0  0  0  0  0  0  0  0  0  0  0  0
   -3.9050   -2.4015   -0.2640 H   0  0  0  0  0  0  0  0  0  0  0  0
   -5.4491   -2.7100    1.4772 H   0  0  0  0  0  0  0  0  0  0  0  0
   -7.1598   -2.2339    1.3325 H   0  0  0  0  0  0  0  0  0  0  0  0
   -6.2300   -2.6570   -0.1277 H   0  0  0  0  0  0  0  0  0  0  0  0
  1  2  1  0  0  0  0
  2  3  1  0  0  0  0
  3  4  2  0  0  0  0
  4  5  1  0  0  0  0
  5  6  2  0  0  0  0
  6  7  1  0  0  0  0
  7  8  2  0  0  0  0
  7  9  1  0  0  0  0
  9 10  2  0  0  0  0
 10 11  1  0  0  0  0
 11 12  2  0  0  0  0
 12 13  1  0  0  0  0
 13 14  2  0  0  0  0
 14 15  1  0  0  0  0
 15 16  1  0  0  0  0
 15 17  1  0  0  0  0
 14 18  1  0  0  0  0
 18 19  2  0  0  0  0
  6 20  1  0  0  0  0
 20 21  2  0  0  0  0
 21 22  1  0  0  0  0
 22 23  1  0  0  0  0
 21  3  1  0  0  0  0
 19 11  1  0  0  0  0
  1 24  1  0  0  0  0
  1 25  1  0  0  0  0
  1 26  1  0  0  0  0
  4 27  1  0  0  0  0
  5 28  1  0  0  0  0
  9 29  1  0  0  0  0
 10 30  1  0  0  0  0
 12 31  1  0  0  0  0
 13 32  1  0  0  0  0
 16 33  1  0  0  0  0
 16 34  1  0  0  0  0
 16 35  1  0  0  0  0
 17 36  1  0  0  0  0
 17 37  1  0  0  0  0
 17 38  1  0  0  0  0
 18 39  1  0  0  0  0
 19 40  1  0  0  0  0
 20 41  1  0  0  0  0
 23 42  1  0  0  0  0
 23 43  1  0  0  0  0
 23 44  1  0  0  0  0
M  END
