
  xtb     03022212083D
 energy: -62.375470205088 gnorm: 0.000195597277 xtb: 6.4.1 (afa7bdf)
 35 38  0     0  0            999 V2000
    2.2057   -1.4363    1.8891 O   0  0  0  0  0  0  0  0  0  0  0  0
    2.4604   -0.6768    0.9916 C   0  0  0  0  0  0  0  0  0  0  0  0
    3.7836   -0.2269    0.5009 C   0  0  0  0  0  0  0  0  0  0  0  0
    5.0547   -0.5597    0.9209 C   0  0  0  0  0  0  0  0  0  0  0  0
    6.1268    0.0319    0.2602 C   0  0  0  0  0  0  0  0  0  0  0  0
    5.9241    0.9237   -0.7823 C   0  0  0  0  0  0  0  0  0  0  0  0
    4.6413    1.2583   -1.2047 C   0  0  0  0  0  0  0  0  0  0  0  0
    3.5795    0.6711   -0.5483 C   0  0  0  0  0  0  0  0  0  0  0  0
    2.1205    0.8185   -0.7573 C   0  0  0  0  0  0  0  0  0  0  0  0
    1.5373    1.4860   -1.5700 O   0  0  0  0  0  0  0  0  0  0  0  0
    1.5217   -0.0129    0.1955 N   0  0  0  0  0  0  0  0  0  0  0  0
    0.1228   -0.1645    0.3380 C   0  0  0  0  0  0  0  0  0  0  0  0
   -0.4159   -1.4200    0.5896 C   0  0  0  0  0  0  0  0  0  0  0  0
   -1.7839   -1.5627    0.7321 C   0  0  0  0  0  0  0  0  0  0  0  0
   -2.6240   -0.4647    0.6221 C   0  0  0  0  0  0  0  0  0  0  0  0
   -4.1212   -0.6074    0.7487 C   0  0  0  0  0  0  0  0  0  0  0  0
   -4.7759   -0.1745   -0.4581 N   0  0  0  0  0  0  0  0  0  0  0  0
   -4.9025   -0.8113   -1.6351 C   0  0  0  0  0  0  0  0  0  0  0  0
   -5.5179   -0.0424   -2.5012 N   0  0  0  0  0  0  0  0  0  0  0  0
   -5.7490    1.0865   -1.8033 C   0  0  0  0  0  0  0  0  0  0  0  0
   -5.3129    1.0451   -0.5668 N   0  0  0  0  0  0  0  0  0  0  0  0
   -2.0764    0.7862    0.3630 C   0  0  0  0  0  0  0  0  0  0  0  0
   -0.7115    0.9425    0.2258 C   0  0  0  0  0  0  0  0  0  0  0  0
    5.2038   -1.2548    1.7323 H   0  0  0  0  0  0  0  0  0  0  0  0
    7.1346   -0.2080    0.5643 H   0  0  0  0  0  0  0  0  0  0  0  0
    6.7767    1.3665   -1.2748 H   0  0  0  0  0  0  0  0  0  0  0  0
    4.4747    1.9513   -2.0145 H   0  0  0  0  0  0  0  0  0  0  0  0
    0.2297   -2.2785    0.6783 H   0  0  0  0  0  0  0  0  0  0  0  0
   -2.1967   -2.5411    0.9300 H   0  0  0  0  0  0  0  0  0  0  0  0
   -4.3935   -1.6468    0.9511 H   0  0  0  0  0  0  0  0  0  0  0  0
   -4.4961    0.0299    1.5547 H   0  0  0  0  0  0  0  0  0  0  0  0
   -4.5500   -1.8055   -1.8174 H   0  0  0  0  0  0  0  0  0  0  0  0
   -6.2462    1.9395   -2.2161 H   0  0  0  0  0  0  0  0  0  0  0  0
   -2.7289    1.6418    0.2699 H   0  0  0  0  0  0  0  0  0  0  0  0
   -0.2949    1.9161    0.0254 H   0  0  0  0  0  0  0  0  0  0  0  0
  1  2  2  0  0  0  0
  2  3  1  0  0  0  0
  3  4  2  0  0  0  0
  4  5  1  0  0  0  0
  5  6  2  0  0  0  0
  6  7  1  0  0  0  0
  7  8  2  0  0  0  0
  8  9  1  0  0  0  0
  9 10  2  0  0  0  0
  9 11  1  0  0  0  0
 11 12  1  0  0  0  0
 12 13  2  0  0  0  0
 13 14  1  0  0  0  0
 14 15  2  0  0  0  0
 15 16  1  0  0  0  0
 16 17  1  0  0  0  0
 17 18  1  0  0  0  0
 18 19  2  0  0  0  0
 19 20  1  0  0  0  0
 20 21  2  0  0  0  0
 15 22  1  0  0  0  0
 22 23  2  0  0  0  0
 11  2  1  0  0  0  0
 23 12  1  0  0  0  0
  8  3  1  0  0  0  0
 21 17  1  0  0  0  0
  4 24  1  0  0  0  0
  5 25  1  0  0  0  0
  6 26  1  0  0  0  0
  7 27  1  0  0  0  0
 13 28  1  0  0  0  0
 14 29  1  0  0  0  0
 16 30  1  0  0  0  0
 16 31  1  0  0  0  0
 18 32  1  0  0  0  0
 20 33  1  0  0  0  0
 22 34  1  0  0  0  0
 23 35  1  0  0  0  0
M  END
