
  xtb     03022214083D
 energy: -103.463984295932 gnorm: 0.000243884502 xtb: 6.4.1 (afa7bdf)
 64 69  0     0  0            999 V2000
   -0.4749   -0.1516   -3.2778 C   0  0  0  0  0  0  0  0  0  0  0  0
    0.6092   -0.0915   -2.2564 C   0  0  0  0  0  0  0  0  0  0  0  0
    0.5304    0.4084   -0.9599 C   0  0  0  0  0  0  0  0  0  0  0  0
   -0.6241    0.9496   -0.2816 C   0  0  0  0  0  0  0  0  0  0  0  0
   -0.7529    2.1871    0.3421 C   0  0  0  0  0  0  0  0  0  0  0  0
    0.2623    3.2753    0.4273 C   0  0  0  0  0  0  0  0  0  0  0  0
   -2.0723    2.2642    0.8314 C   0  0  0  0  0  0  0  0  0  0  0  0
   -2.7158    3.3796    1.5593 C   0  0  0  0  0  0  0  0  0  0  0  0
   -2.7292    1.1338    0.5428 N   0  0  0  0  0  4  0  0  0  0  0  0
   -1.8814    0.2928   -0.1435 C   0  0  0  0  0  0  0  0  0  0  0  0
   -2.2749   -0.9783   -0.5230 C   0  0  0  0  0  0  0  0  0  0  0  0
   -3.5556   -1.4320   -0.2597 C   0  0  0  0  0  0  0  0  0  0  0  0
   -4.1806   -2.6645   -0.5582 C   0  0  0  0  0  0  0  0  0  0  0  0
   -5.4719   -2.5979   -0.0830 C   0  0  0  0  0  0  0  0  0  0  0  0
   -6.5253   -3.6480   -0.1580 C   0  0  0  0  0  0  0  0  0  0  0  0
   -5.6225   -1.3186    0.5062 C   0  0  0  0  0  0  0  0  0  0  0  0
   -6.8184   -0.7451    1.1596 C   0  0  0  0  0  0  0  0  0  0  0  0
   -4.4785   -0.6388    0.3930 N   0  0  0  0  0  0  0  0  0  0  0  0
   -4.1918    0.7900    0.9067 B   0  0  0  0  0  4  0  0  0  0  0  0
   -5.0527    1.6921    0.3054 F   0  0  0  0  0  0  0  0  0  0  0  0
   -4.3600    0.8416    2.2805 F   0  0  0  0  0  0  0  0  0  0  0  0
    1.8390    0.3048   -0.4050 C   0  0  0  0  0  0  0  0  0  0  0  0
    2.2995    0.6005    0.8659 C   0  0  0  0  0  0  0  0  0  0  0  0
    3.6259    0.3966    1.2044 C   0  0  0  0  0  0  0  0  0  0  0  0
    4.3204    0.6361    2.4123 C   0  0  0  0  0  0  0  0  0  0  0  0
    5.6330    0.2684    2.2134 C   0  0  0  0  0  0  0  0  0  0  0  0
    6.7557    0.3349    3.1898 C   0  0  0  0  0  0  0  0  0  0  0  0
    5.7267   -0.1970    0.8788 C   0  0  0  0  0  0  0  0  0  0  0  0
    6.9173   -0.7092    0.1674 C   0  0  0  0  0  0  0  0  0  0  0  0
    4.5292   -0.1137    0.2931 N   0  0  0  0  0  0  0  0  0  0  0  0
    4.1714   -0.5254   -1.1525 B   0  0  0  0  0  4  0  0  0  0  0  0
    4.9207    0.2099   -2.0550 F   0  0  0  0  0  0  0  0  0  0  0  0
    4.4261   -1.8743   -1.3366 F   0  0  0  0  0  0  0  0  0  0  0  0
    2.6664   -0.2405   -1.3616 N   0  0  0  0  0  4  0  0  0  0  0  0
    1.9489   -0.4748   -2.4673 C   0  0  0  0  0  0  0  0  0  0  0  0
    2.5556   -1.0516   -3.6868 C   0  0  0  0  0  0  0  0  0  0  0  0
   -0.6922   -1.1829   -3.5560 H   0  0  0  0  0  0  0  0  0  0  0  0
   -1.3834    0.3030   -2.8920 H   0  0  0  0  0  0  0  0  0  0  0  0
   -0.1733    0.3811   -4.1791 H   0  0  0  0  0  0  0  0  0  0  0  0
   -0.1366    4.1968    0.0047 H   0  0  0  0  0  0  0  0  0  0  0  0
    0.5353    3.4736    1.4637 H   0  0  0  0  0  0  0  0  0  0  0  0
    1.1588    2.9998   -0.1216 H   0  0  0  0  0  0  0  0  0  0  0  0
   -2.0236    4.2034    1.7030 H   0  0  0  0  0  0  0  0  0  0  0  0
   -3.5884    3.7227    1.0048 H   0  0  0  0  0  0  0  0  0  0  0  0
   -3.0749    3.0270    2.5253 H   0  0  0  0  0  0  0  0  0  0  0  0
   -1.5724   -1.6222   -1.0279 H   0  0  0  0  0  0  0  0  0  0  0  0
   -3.7142   -3.4867   -1.0650 H   0  0  0  0  0  0  0  0  0  0  0  0
   -6.8507   -3.9376    0.8408 H   0  0  0  0  0  0  0  0  0  0  0  0
   -7.3948   -3.2819   -0.7029 H   0  0  0  0  0  0  0  0  0  0  0  0
   -6.1409   -4.5280   -0.6666 H   0  0  0  0  0  0  0  0  0  0  0  0
   -7.1522    0.1326    0.6062 H   0  0  0  0  0  0  0  0  0  0  0  0
   -6.5611   -0.4063    2.1623 H   0  0  0  0  0  0  0  0  0  0  0  0
   -7.6224   -1.4730    1.2105 H   0  0  0  0  0  0  0  0  0  0  0  0
    1.6142    0.9932    1.6002 H   0  0  0  0  0  0  0  0  0  0  0  0
    3.8835    1.0342    3.3074 H   0  0  0  0  0  0  0  0  0  0  0  0
    6.4053    0.7386    4.1359 H   0  0  0  0  0  0  0  0  0  0  0  0
    7.5551    0.9722    2.8132 H   0  0  0  0  0  0  0  0  0  0  0  0
    7.1701   -0.6572    3.3665 H   0  0  0  0  0  0  0  0  0  0  0  0
    6.7167   -1.7125   -0.2063 H   0  0  0  0  0  0  0  0  0  0  0  0
    7.7850   -0.7254    0.8195 H   0  0  0  0  0  0  0  0  0  0  0  0
    7.1214   -0.0844   -0.7016 H   0  0  0  0  0  0  0  0  0  0  0  0
    3.0155   -2.0098   -3.4484 H   0  0  0  0  0  0  0  0  0  0  0  0
    3.3526   -0.3993   -4.0423 H   0  0  0  0  0  0  0  0  0  0  0  0
    1.8132   -1.1840   -4.4676 H   0  0  0  0  0  0  0  0  0  0  0  0
  1  2  1  0  0  0  0
  2  3  2  0  0  0  0
  3  4  1  0  0  0  0
  4  5  2  0  0  0  0
  5  6  1  0  0  0  0
  5  7  1  0  0  0  0
  7  8  1  0  0  0  0
  7  9  2  0  0  0  0
  9 10  1  0  0  0  0
 10 11  2  0  0  0  0
 11 12  1  0  0  0  0
 12 13  2  0  0  0  0
 13 14  1  0  0  0  0
 14 15  1  0  0  0  0
 14 16  2  0  0  0  0
 16 17  1  0  0  0  0
 16 18  1  0  0  0  0
 18 19  1  0  0  0  0
 19 20  1  0  0  0  0
 19 21  1  0  0  0  0
  3 22  1  0  0  0  0
 22 23  2  0  0  0  0
 23 24  1  0  0  0  0
 24 25  2  0  0  0  0
 25 26  1  0  0  0  0
 26 27  1  0  0  0  0
 26 28  2  0  0  0  0
 28 29  1  0  0  0  0
 28 30  1  0  0  0  0
 30 31  1  0  0  0  0
 31 32  1  0  0  0  0
 31 33  1  0  0  0  0
 31 34  1  0  0  0  0
 34 35  2  0  0  0  0
 35 36  1  0  0  0  0
 35  2  1  0  0  0  0
 10  4  1  0  0  0  0
 18 12  1  0  0  0  0
 34 22  1  0  0  0  0
 19  9  1  0  0  0  0
 30 24  1  0  0  0  0
  1 37  1  0  0  0  0
  1 38  1  0  0  0  0
  1 39  1  0  0  0  0
  6 40  1  0  0  0  0
  6 41  1  0  0  0  0
  6 42  1  0  0  0  0
  8 43  1  0  0  0  0
  8 44  1  0  0  0  0
  8 45  1  0  0  0  0
 11 46  1  0  0  0  0
 13 47  1  0  0  0  0
 15 48  1  0  0  0  0
 15 49  1  0  0  0  0
 15 50  1  0  0  0  0
 17 51  1  0  0  0  0
 17 52  1  0  0  0  0
 17 53  1  0  0  0  0
 23 54  1  0  0  0  0
 25 55  1  0  0  0  0
 27 56  1  0  0  0  0
 27 57  1  0  0  0  0
 27 58  1  0  0  0  0
 29 59  1  0  0  0  0
 29 60  1  0  0  0  0
 29 61  1  0  0  0  0
 36 62  1  0  0  0  0
 36 63  1  0  0  0  0
 36 64  1  0  0  0  0
M  CHG  1   9   1
M  CHG  1  19  -1
M  CHG  1  31  -1
M  CHG  1  34   1
M  END
