
  xtb     03022215573D
 energy: -70.885570865438 gnorm: 0.000210045961 xtb: 6.4.1 (afa7bdf)
 45 48  0     0  0            999 V2000
   -0.0201    2.1478   -2.5835 N   0  0  0  0  0  0  0  0  0  0  0  0
    0.1603    1.3837   -1.7453 C   0  0  0  0  0  0  0  0  0  0  0  0
    0.4869    0.4724   -0.7164 C   0  0  0  0  0  0  0  0  0  0  0  0
   -0.4323   -0.1936    0.0204 C   0  0  0  0  0  0  0  0  0  0  0  0
   -1.8722   -0.1867   -0.0984 C   0  0  0  0  0  0  0  0  0  0  0  0
   -2.5589    0.2573   -1.2331 C   0  0  0  0  0  0  0  0  0  0  0  0
   -3.9365    0.2434   -1.2731 C   0  0  0  0  0  0  0  0  0  0  0  0
   -4.6823   -0.2221   -0.1907 C   0  0  0  0  0  0  0  0  0  0  0  0
   -6.1490   -0.2289   -0.2384 C   0  0  0  0  0  0  0  0  0  0  0  0
   -6.8585    0.8307   -0.8033 C   0  0  0  0  0  0  0  0  0  0  0  0
   -8.2418    0.7751   -0.8181 C   0  0  0  0  0  0  0  0  0  0  0  0
   -8.9387   -0.2360   -0.3279 N   0  0  0  0  0  0  0  0  0  0  0  0
   -8.2695   -1.2438    0.2057 C   0  0  0  0  0  0  0  0  0  0  0  0
   -6.8879   -1.2922    0.2797 C   0  0  0  0  0  0  0  0  0  0  0  0
   -4.0026   -0.6859    0.9354 C   0  0  0  0  0  0  0  0  0  0  0  0
   -2.6263   -0.6707    0.9785 C   0  0  0  0  0  0  0  0  0  0  0  0
    1.9318    0.3466   -0.4695 C   0  0  0  0  0  0  0  0  0  0  0  0
    2.7793    1.4332   -0.6896 C   0  0  0  0  0  0  0  0  0  0  0  0
    4.1345    1.3261   -0.4569 C   0  0  0  0  0  0  0  0  0  0  0  0
    4.6865    0.1313    0.0013 C   0  0  0  0  0  0  0  0  0  0  0  0
    6.1294    0.0183    0.2484 C   0  0  0  0  0  0  0  0  0  0  0  0
    7.0593    0.6005   -0.6122 C   0  0  0  0  0  0  0  0  0  0  0  0
    8.4078    0.4618   -0.3308 C   0  0  0  0  0  0  0  0  0  0  0  0
    8.8723   -0.1936    0.7194 N   0  0  0  0  0  0  0  0  0  0  0  0
    7.9936   -0.7455    1.5387 C   0  0  0  0  0  0  0  0  0  0  0  0
    6.6236   -0.6743    1.3532 C   0  0  0  0  0  0  0  0  0  0  0  0
    3.8407   -0.9561    0.2122 C   0  0  0  0  0  0  0  0  0  0  0  0
    2.4857   -0.8534   -0.0245 C   0  0  0  0  0  0  0  0  0  0  0  0
   -0.0538   -0.7890    0.8430 H   0  0  0  0  0  0  0  0  0  0  0  0
   -2.0098    0.6009   -2.0945 H   0  0  0  0  0  0  0  0  0  0  0  0
   -4.4447    0.5759   -2.1661 H   0  0  0  0  0  0  0  0  0  0  0  0
   -6.3397    1.6886   -1.2027 H   0  0  0  0  0  0  0  0  0  0  0  0
   -8.8257    1.5808   -1.2439 H   0  0  0  0  0  0  0  0  0  0  0  0
   -8.8755   -2.0527    0.5930 H   0  0  0  0  0  0  0  0  0  0  0  0
   -6.3922   -2.1483    0.7114 H   0  0  0  0  0  0  0  0  0  0  0  0
   -4.5622   -1.0406    1.7886 H   0  0  0  0  0  0  0  0  0  0  0  0
   -2.1170   -1.0246    1.8641 H   0  0  0  0  0  0  0  0  0  0  0  0
    2.3664    2.3698   -1.0349 H   0  0  0  0  0  0  0  0  0  0  0  0
    4.7715    2.1842   -0.6120 H   0  0  0  0  0  0  0  0  0  0  0  0
    6.7352    1.1322   -1.4937 H   0  0  0  0  0  0  0  0  0  0  0  0
    9.1581    0.8963   -0.9786 H   0  0  0  0  0  0  0  0  0  0  0  0
    8.4132   -1.2702    2.3875 H   0  0  0  0  0  0  0  0  0  0  0  0
    5.9501   -1.1295    2.0635 H   0  0  0  0  0  0  0  0  0  0  0  0
    4.2553   -1.8992    0.5373 H   0  0  0  0  0  0  0  0  0  0  0  0
    1.8555   -1.7200    0.1129 H   0  0  0  0  0  0  0  0  0  0  0  0
  1  2  3  0  0  0  0
  2  3  1  0  0  0  0
  3  4  2  0  0  0  0
  4  5  1  0  0  0  0
  5  6  2  0  0  0  0
  6  7  1  0  0  0  0
  7  8  2  0  0  0  0
  8  9  1  0  0  0  0
  9 10  2  0  0  0  0
 10 11  1  0  0  0  0
 11 12  2  0  0  0  0
 12 13  1  0  0  0  0
 13 14  2  0  0  0  0
  8 15  1  0  0  0  0
 15 16  2  0  0  0  0
  3 17  1  0  0  0  0
 17 18  2  0  0  0  0
 18 19  1  0  0  0  0
 19 20  2  0  0  0  0
 20 21  1  0  0  0  0
 21 22  2  0  0  0  0
 22 23  1  0  0  0  0
 23 24  2  0  0  0  0
 24 25  1  0  0  0  0
 25 26  2  0  0  0  0
 20 27  1  0  0  0  0
 27 28  2  0  0  0  0
 16  5  1  0  0  0  0
 28 17  1  0  0  0  0
 14  9  1  0  0  0  0
 26 21  1  0  0  0  0
  4 29  1  0  0  0  0
  6 30  1  0  0  0  0
  7 31  1  0  0  0  0
 10 32  1  0  0  0  0
 11 33  1  0  0  0  0
 13 34  1  0  0  0  0
 14 35  1  0  0  0  0
 15 36  1  0  0  0  0
 16 37  1  0  0  0  0
 18 38  1  0  0  0  0
 19 39  1  0  0  0  0
 22 40  1  0  0  0  0
 23 41  1  0  0  0  0
 25 42  1  0  0  0  0
 26 43  1  0  0  0  0
 27 44  1  0  0  0  0
 28 45  1  0  0  0  0
M  END
