
  xtb     03022212353D
 energy: -67.640230247364 gnorm: 0.000174319778 xtb: 6.4.1 (afa7bdf)
 39 42  0     0  0            999 V2000
    5.1221    1.6455   -1.0439 C   0  0  0  0  0  0  0  0  0  0  0  0
    3.9318    0.8567   -0.5923 C   0  0  0  0  0  0  0  0  0  0  0  0
    3.9196    0.2612    0.6636 C   0  0  0  0  0  0  0  0  0  0  0  0
    2.8220   -0.4550    1.1001 C   0  0  0  0  0  0  0  0  0  0  0  0
    1.7106   -0.5936    0.2831 C   0  0  0  0  0  0  0  0  0  0  0  0
    0.5076   -1.3866    0.7401 C   0  0  0  0  0  0  0  0  0  0  0  0
    0.2355   -2.5843   -0.1380 C   0  0  0  0  0  0  0  0  0  0  0  0
    1.1114   -3.6507   -0.2924 C   0  0  0  0  0  0  0  0  0  0  0  0
    1.8186   -4.5490   -0.4213 N   0  0  0  0  0  0  0  0  0  0  0  0
   -0.9585   -2.4248   -0.7787 C   0  0  0  0  0  0  0  0  0  0  0  0
   -1.5618   -3.1861   -1.7034 N   0  0  0  0  0  0  0  0  0  0  0  0
   -1.5582   -1.2326   -0.3565 N   0  0  0  0  0  0  0  0  0  0  0  0
   -2.7825   -0.7452   -0.7256 C   0  0  0  0  0  0  0  0  0  0  0  0
   -3.4891   -1.3453   -1.5265 O   0  0  0  0  0  0  0  0  0  0  0  0
   -3.1395    0.5212   -0.0808 C   0  0  0  0  0  0  0  0  0  0  0  0
   -4.3574    1.1218   -0.4030 C   0  0  0  0  0  0  0  0  0  0  0  0
   -4.7244    2.3104    0.1920 C   0  0  0  0  0  0  0  0  0  0  0  0
   -3.8828    2.9171    1.1184 C   0  0  0  0  0  0  0  0  0  0  0  0
   -2.6764    2.3327    1.4461 C   0  0  0  0  0  0  0  0  0  0  0  0
   -2.2923    1.1327    0.8519 C   0  0  0  0  0  0  0  0  0  0  0  0
   -0.9989    0.5341    1.2250 C   0  0  0  0  0  0  0  0  0  0  0  0
   -0.2218    0.9909    2.0402 O   0  0  0  0  0  0  0  0  0  0  0  0
   -0.7254   -0.6261    0.5682 N   0  0  0  0  0  0  0  0  0  0  0  0
    1.7153   -0.0058   -0.9741 C   0  0  0  0  0  0  0  0  0  0  0  0
    2.8143    0.7138   -1.4038 C   0  0  0  0  0  0  0  0  0  0  0  0
    5.0635    1.8682   -2.1062 H   0  0  0  0  0  0  0  0  0  0  0  0
    6.0413    1.0964   -0.8491 H   0  0  0  0  0  0  0  0  0  0  0  0
    5.1746    2.5871   -0.4974 H   0  0  0  0  0  0  0  0  0  0  0  0
    4.7803    0.3643    1.3083 H   0  0  0  0  0  0  0  0  0  0  0  0
    2.8260   -0.9061    2.0810 H   0  0  0  0  0  0  0  0  0  0  0  0
    0.6267   -1.6493    1.8000 H   0  0  0  0  0  0  0  0  0  0  0  0
   -1.1754   -4.0851   -1.9263 H   0  0  0  0  0  0  0  0  0  0  0  0
   -2.4974   -2.9166   -1.9848 H   0  0  0  0  0  0  0  0  0  0  0  0
   -4.9931    0.6304   -1.1238 H   0  0  0  0  0  0  0  0  0  0  0  0
   -5.6674    2.7705   -0.0617 H   0  0  0  0  0  0  0  0  0  0  0  0
   -4.1744    3.8472    1.5823 H   0  0  0  0  0  0  0  0  0  0  0  0
   -2.0041    2.7808    2.1618 H   0  0  0  0  0  0  0  0  0  0  0  0
    0.8573   -0.1089   -1.6252 H   0  0  0  0  0  0  0  0  0  0  0  0
    2.8025    1.1681   -2.3842 H   0  0  0  0  0  0  0  0  0  0  0  0
  1  2  1  0  0  0  0
  2  3  2  0  0  0  0
  3  4  1  0  0  0  0
  4  5  2  0  0  0  0
  5  6  1  0  0  0  0
  6  7  1  0  0  0  0
  7  8  1  0  0  0  0
  8  9  3  0  0  0  0
  7 10  2  0  0  0  0
 10 11  1  0  0  0  0
 10 12  1  0  0  0  0
 12 13  1  0  0  0  0
 13 14  2  0  0  0  0
 13 15  1  0  0  0  0
 15 16  2  0  0  0  0
 16 17  1  0  0  0  0
 17 18  2  0  0  0  0
 18 19  1  0  0  0  0
 19 20  2  0  0  0  0
 20 21  1  0  0  0  0
 21 22  2  0  0  0  0
 21 23  1  0  0  0  0
  5 24  1  0  0  0  0
 24 25  2  0  0  0  0
 25  2  1  0  0  0  0
 23  6  1  0  0  0  0
 23 12  1  0  0  0  0
 20 15  1  0  0  0  0
  1 26  1  0  0  0  0
  1 27  1  0  0  0  0
  1 28  1  0  0  0  0
  3 29  1  0  0  0  0
  4 30  1  0  0  0  0
  6 31  1  0  0  0  0
 11 32  1  0  0  0  0
 11 33  1  0  0  0  0
 16 34  1  0  0  0  0
 17 35  1  0  0  0  0
 18 36  1  0  0  0  0
 19 37  1  0  0  0  0
 24 38  1  0  0  0  0
 25 39  1  0  0  0  0
M  END
