
  xtb     03022213443D
 energy: -140.396979655637 gnorm: 0.000164096786 xtb: 6.4.1 (afa7bdf)
106113  0     0  0            999 V2000
    7.2185   -0.0682   -5.0440 C   0  0  0  0  0  0  0  0  0  0  0  0
    6.4337   -0.0570   -3.7673 C   0  0  0  0  0  0  0  0  0  0  0  0
    6.6399    0.9425   -2.8255 C   0  0  0  0  0  0  0  0  0  0  0  0
    5.9352    0.9725   -1.6342 C   0  0  0  0  0  0  0  0  0  0  0  0
    6.1946    2.0875   -0.6624 C   0  0  0  0  0  0  0  0  0  0  0  0
    4.9739   -0.0133   -1.3515 C   0  0  0  0  0  0  0  0  0  0  0  0
    4.1265    0.0285   -0.0298 B   0  0  0  0  0  0  0  0  0  0  0  0
    4.7987    0.1252    1.3838 C   0  0  0  0  0  0  0  0  0  0  0  0
    5.8293   -0.7566    1.7572 C   0  0  0  0  0  0  0  0  0  0  0  0
    6.3012   -1.8291    0.8177 C   0  0  0  0  0  0  0  0  0  0  0  0
    6.4065   -0.6719    3.0136 C   0  0  0  0  0  0  0  0  0  0  0  0
    6.0058    0.2856    3.9339 C   0  0  0  0  0  0  0  0  0  0  0  0
    6.6628    0.3848    5.2768 C   0  0  0  0  0  0  0  0  0  0  0  0
    4.9974    1.1617    3.5647 C   0  0  0  0  0  0  0  0  0  0  0  0
    4.3914    1.0905    2.3198 C   0  0  0  0  0  0  0  0  0  0  0  0
    3.2995    2.0738    2.0074 C   0  0  0  0  0  0  0  0  0  0  0  0
    2.5721    0.0560   -0.1991 C   0  0  0  0  0  0  0  0  0  0  0  0
    2.0558    0.8080   -1.2186 C   0  0  0  0  0  0  0  0  0  0  0  0
    0.6634    1.0105   -1.4160 C   0  0  0  0  0  0  0  0  0  0  0  0
    0.1755    1.8082   -2.4529 C   0  0  0  0  0  0  0  0  0  0  0  0
   -1.1840    1.9916   -2.6098 C   0  0  0  0  0  0  0  0  0  0  0  0
   -2.0819    1.3832   -1.7504 C   0  0  0  0  0  0  0  0  0  0  0  0
   -1.6455    0.5586   -0.7116 C   0  0  0  0  0  0  0  0  0  0  0  0
   -2.5690   -0.0900    0.1866 C   0  0  0  0  0  0  0  0  0  0  0  0
   -4.1241   -0.0436    0.0263 B   0  0  0  0  0  0  0  0  0  0  0  0
   -4.8068   -0.1930   -1.3776 C   0  0  0  0  0  0  0  0  0  0  0  0
   -4.4147   -1.2020   -2.2735 C   0  0  0  0  0  0  0  0  0  0  0  0
   -3.3286   -2.1798   -1.9256 C   0  0  0  0  0  0  0  0  0  0  0  0
   -5.0324   -1.3239   -3.5086 C   0  0  0  0  0  0  0  0  0  0  0  0
   -6.0373   -0.4572   -3.9081 C   0  0  0  0  0  0  0  0  0  0  0  0
   -6.7076   -0.6120   -5.2391 C   0  0  0  0  0  0  0  0  0  0  0  0
   -6.4216    0.5443   -3.0287 C   0  0  0  0  0  0  0  0  0  0  0  0
   -5.8330    0.6804   -1.7820 C   0  0  0  0  0  0  0  0  0  0  0  0
   -6.2890    1.7981   -0.8886 C   0  0  0  0  0  0  0  0  0  0  0  0
   -4.9605    0.0767    1.3498 C   0  0  0  0  0  0  0  0  0  0  0  0
   -4.7211    1.1224    2.2538 C   0  0  0  0  0  0  0  0  0  0  0  0
   -3.6875    2.1768    1.9707 C   0  0  0  0  0  0  0  0  0  0  0  0
   -5.4436    1.2110    3.4338 C   0  0  0  0  0  0  0  0  0  0  0  0
   -6.4066    0.2710    3.7658 C   0  0  0  0  0  0  0  0  0  0  0  0
   -7.1951    0.3900    5.0346 C   0  0  0  0  0  0  0  0  0  0  0  0
   -6.6371   -0.7697    2.8780 C   0  0  0  0  0  0  0  0  0  0  0  0
   -5.9385   -0.8736    1.6859 C   0  0  0  0  0  0  0  0  0  0  0  0
   -6.2236   -2.0315    0.7732 C   0  0  0  0  0  0  0  0  0  0  0  0
   -2.0536   -0.8391    1.2082 C   0  0  0  0  0  0  0  0  0  0  0  0
   -0.6614   -1.0511    1.3987 C   0  0  0  0  0  0  0  0  0  0  0  0
   -0.1741   -1.8562    2.4302 C   0  0  0  0  0  0  0  0  0  0  0  0
    1.1847   -2.0505    2.5786 C   0  0  0  0  0  0  0  0  0  0  0  0
    2.0831   -1.4409    1.7206 C   0  0  0  0  0  0  0  0  0  0  0  0
    1.6480   -0.6039    0.6911 C   0  0  0  0  0  0  0  0  0  0  0  0
    0.2525   -0.4250    0.5154 C   0  0  0  0  0  0  0  0  0  0  0  0
   -0.2500    0.3832   -0.5332 C   0  0  0  0  0  0  0  0  0  0  0  0
    4.7611   -1.0164   -2.3073 C   0  0  0  0  0  0  0  0  0  0  0  0
    3.7522   -2.1086   -2.0846 C   0  0  0  0  0  0  0  0  0  0  0  0
    5.4900   -1.0309   -3.4882 C   0  0  0  0  0  0  0  0  0  0  0  0
    8.2868   -0.1043   -4.8331 H   0  0  0  0  0  0  0  0  0  0  0  0
    6.9553   -0.9274   -5.6559 H   0  0  0  0  0  0  0  0  0  0  0  0
    7.0242    0.8386   -5.6163 H   0  0  0  0  0  0  0  0  0  0  0  0
    7.3722    1.7124   -3.0288 H   0  0  0  0  0  0  0  0  0  0  0  0
    6.9423    2.7732   -1.0547 H   0  0  0  0  0  0  0  0  0  0  0  0
    5.2821    2.6481   -0.4662 H   0  0  0  0  0  0  0  0  0  0  0  0
    6.5488    1.6925    0.2878 H   0  0  0  0  0  0  0  0  0  0  0  0
    7.0619   -2.4457    1.2915 H   0  0  0  0  0  0  0  0  0  0  0  0
    5.4767   -2.4724    0.5150 H   0  0  0  0  0  0  0  0  0  0  0  0
    6.7227   -1.3892   -0.0838 H   0  0  0  0  0  0  0  0  0  0  0  0
    7.1907   -1.3664    3.2834 H   0  0  0  0  0  0  0  0  0  0  0  0
    6.9909   -0.5934    5.6217 H   0  0  0  0  0  0  0  0  0  0  0  0
    7.5396    1.0310    5.2156 H   0  0  0  0  0  0  0  0  0  0  0  0
    5.9823    0.8096    6.0114 H   0  0  0  0  0  0  0  0  0  0  0  0
    4.6718    1.9174    4.2668 H   0  0  0  0  0  0  0  0  0  0  0  0
    2.3259    1.6189    2.1913 H   0  0  0  0  0  0  0  0  0  0  0  0
    3.3857    2.9526    2.6436 H   0  0  0  0  0  0  0  0  0  0  0  0
    3.3272    2.3892    0.9680 H   0  0  0  0  0  0  0  0  0  0  0  0
    2.7294    1.3016   -1.9074 H   0  0  0  0  0  0  0  0  0  0  0  0
    0.8746    2.2816   -3.1279 H   0  0  0  0  0  0  0  0  0  0  0  0
   -1.5537    2.6165   -3.4102 H   0  0  0  0  0  0  0  0  0  0  0  0
   -3.1401    1.5387   -1.8911 H   0  0  0  0  0  0  0  0  0  0  0  0
   -3.4059   -3.0706   -2.5459 H   0  0  0  0  0  0  0  0  0  0  0  0
   -2.3516   -1.7295   -2.1019 H   0  0  0  0  0  0  0  0  0  0  0  0
   -3.3736   -2.4755   -0.8809 H   0  0  0  0  0  0  0  0  0  0  0  0
   -4.7191   -2.1129   -4.1790 H   0  0  0  0  0  0  0  0  0  0  0  0
   -6.0372   -1.0748   -5.9598 H   0  0  0  0  0  0  0  0  0  0  0  0
   -7.5884   -1.2482   -5.1404 H   0  0  0  0  0  0  0  0  0  0  0  0
   -7.0321    0.3520   -5.6250 H   0  0  0  0  0  0  0  0  0  0  0  0
   -7.2024    1.2328   -3.3229 H   0  0  0  0  0  0  0  0  0  0  0  0
   -6.7118    1.4028    0.0329 H   0  0  0  0  0  0  0  0  0  0  0  0
   -7.0448    2.4018   -1.3862 H   0  0  0  0  0  0  0  0  0  0  0  0
   -5.4565    2.4449   -0.6171 H   0  0  0  0  0  0  0  0  0  0  0  0
   -3.5706    2.3509    0.9049 H   0  0  0  0  0  0  0  0  0  0  0  0
   -3.9577    3.1144    2.4531 H   0  0  0  0  0  0  0  0  0  0  0  0
   -2.7204    1.8627    2.3644 H   0  0  0  0  0  0  0  0  0  0  0  0
   -5.2486    2.0310    4.1118 H   0  0  0  0  0  0  0  0  0  0  0  0
   -6.6158    0.8933    5.8057 H   0  0  0  0  0  0  0  0  0  0  0  0
   -7.4946   -0.5900    5.3995 H   0  0  0  0  0  0  0  0  0  0  0  0
   -8.0994    0.9739    4.8576 H   0  0  0  0  0  0  0  0  0  0  0  0
   -7.3822   -1.5153    3.1216 H   0  0  0  0  0  0  0  0  0  0  0  0
   -5.3218   -2.6158    0.5977 H   0  0  0  0  0  0  0  0  0  0  0  0
   -6.9787   -2.6847    1.2049 H   0  0  0  0  0  0  0  0  0  0  0  0
   -6.5799   -1.6785   -0.1927 H   0  0  0  0  0  0  0  0  0  0  0  0
   -2.7273   -1.3234    1.9036 H   0  0  0  0  0  0  0  0  0  0  0  0
   -0.8731   -2.3281    3.1062 H   0  0  0  0  0  0  0  0  0  0  0  0
    1.5540   -2.6843    3.3723 H   0  0  0  0  0  0  0  0  0  0  0  0
    3.1405   -1.6056    1.8556 H   0  0  0  0  0  0  0  0  0  0  0  0
    3.5890   -2.2981   -1.0277 H   0  0  0  0  0  0  0  0  0  0  0  0
    2.7957   -1.8241   -2.5243 H   0  0  0  0  0  0  0  0  0  0  0  0
    4.0787   -3.0310   -2.5617 H   0  0  0  0  0  0  0  0  0  0  0  0
    5.3135   -1.8212   -4.2055 H   0  0  0  0  0  0  0  0  0  0  0  0
  1  2  1  0  0  0  0
  2  3  2  0  0  0  0
  3  4  1  0  0  0  0
  4  5  1  0  0  0  0
  4  6  2  0  0  0  0
  6  7  1  0  0  0  0
  7  8  1  0  0  0  0
  8  9  2  0  0  0  0
  9 10  1  0  0  0  0
  9 11  1  0  0  0  0
 11 12  2  0  0  0  0
 12 13  1  0  0  0  0
 12 14  1  0  0  0  0
 14 15  2  0  0  0  0
 15 16  1  0  0  0  0
  7 17  1  0  0  0  0
 17 18  2  0  0  0  0
 18 19  1  0  0  0  0
 19 20  2  0  0  0  0
 20 21  1  0  0  0  0
 21 22  2  0  0  0  0
 22 23  1  0  0  0  0
 23 24  2  0  0  0  0
 24 25  1  0  0  0  0
 25 26  1  0  0  0  0
 26 27  2  0  0  0  0
 27 28  1  0  0  0  0
 27 29  1  0  0  0  0
 29 30  2  0  0  0  0
 30 31  1  0  0  0  0
 30 32  1  0  0  0  0
 32 33  2  0  0  0  0
 33 34  1  0  0  0  0
 25 35  1  0  0  0  0
 35 36  2  0  0  0  0
 36 37  1  0  0  0  0
 36 38  1  0  0  0  0
 38 39  2  0  0  0  0
 39 40  1  0  0  0  0
 39 41  1  0  0  0  0
 41 42  2  0  0  0  0
 42 43  1  0  0  0  0
 24 44  1  0  0  0  0
 44 45  2  0  0  0  0
 45 46  1  0  0  0  0
 46 47  2  0  0  0  0
 47 48  1  0  0  0  0
 48 49  2  0  0  0  0
 49 50  1  0  0  0  0
 50 51  2  0  0  0  0
  6 52  1  0  0  0  0
 52 53  1  0  0  0  0
 52 54  2  0  0  0  0
 54  2  1  0  0  0  0
 15  8  1  0  0  0  0
 49 17  1  0  0  0  0
 51 19  1  0  0  0  0
 51 23  1  0  0  0  0
 33 26  1  0  0  0  0
 42 35  1  0  0  0  0
 50 45  1  0  0  0  0
  1 55  1  0  0  0  0
  1 56  1  0  0  0  0
  1 57  1  0  0  0  0
  3 58  1  0  0  0  0
  5 59  1  0  0  0  0
  5 60  1  0  0  0  0
  5 61  1  0  0  0  0
 10 62  1  0  0  0  0
 10 63  1  0  0  0  0
 10 64  1  0  0  0  0
 11 65  1  0  0  0  0
 13 66  1  0  0  0  0
 13 67  1  0  0  0  0
 13 68  1  0  0  0  0
 14 69  1  0  0  0  0
 16 70  1  0  0  0  0
 16 71  1  0  0  0  0
 16 72  1  0  0  0  0
 18 73  1  0  0  0  0
 20 74  1  0  0  0  0
 21 75  1  0  0  0  0
 22 76  1  0  0  0  0
 28 77  1  0  0  0  0
 28 78  1  0  0  0  0
 28 79  1  0  0  0  0
 29 80  1  0  0  0  0
 31 81  1  0  0  0  0
 31 82  1  0  0  0  0
 31 83  1  0  0  0  0
 32 84  1  0  0  0  0
 34 85  1  0  0  0  0
 34 86  1  0  0  0  0
 34 87  1  0  0  0  0
 37 88  1  0  0  0  0
 37 89  1  0  0  0  0
 37 90  1  0  0  0  0
 38 91  1  0  0  0  0
 40 92  1  0  0  0  0
 40 93  1  0  0  0  0
 40 94  1  0  0  0  0
 41 95  1  0  0  0  0
 43 96  1  0  0  0  0
 43 97  1  0  0  0  0
 43 98  1  0  0  0  0
 44 99  1  0  0  0  0
 46100  1  0  0  0  0
 47101  1  0  0  0  0
 48102  1  0  0  0  0
 53103  1  0  0  0  0
 53104  1  0  0  0  0
 53105  1  0  0  0  0
 54106  1  0  0  0  0
M  END
