
  xtb     03022214283D
 energy: -132.516227533481 gnorm: 0.000380186450 xtb: 6.4.1 (afa7bdf)
103105  0     0  0            999 V2000
  -14.4443   -2.6873   -3.1921 C   0  0  0  0  0  0  0  0  0  0  0  0
  -13.0188   -2.1486   -3.1775 C   0  0  0  0  0  0  0  0  0  0  0  0
  -12.0731   -3.0831   -2.4261 C   0  0  0  0  0  0  0  0  0  0  0  0
  -10.6108   -2.6394   -2.4731 C   0  0  0  0  0  0  0  0  0  0  0  0
  -10.3400   -1.3535   -1.6948 C   0  0  0  0  0  0  0  0  0  0  0  0
   -8.8529   -1.0066   -1.6727 C   0  0  0  0  0  0  0  0  0  0  0  0
   -8.5813    0.2699   -0.8803 C   0  0  0  0  0  0  0  0  0  0  0  0
   -7.1233    0.7287   -0.9429 C   0  0  0  0  0  0  0  0  0  0  0  0
   -6.1042   -0.2637   -0.3810 C   0  0  0  0  0  0  0  0  0  0  0  0
   -6.3373   -0.5972    1.0908 C   0  0  0  0  0  0  0  0  0  0  0  0
   -5.2190   -1.4478    1.6946 C   0  0  0  0  0  0  0  0  0  0  0  0
   -3.9033   -0.6948    1.8830 C   0  0  0  0  0  0  0  0  0  0  0  0
   -3.2201   -0.6430    0.6463 O   0  0  0  0  0  0  0  0  0  0  0  0
   -2.0399    0.0144    0.5661 C   0  0  0  0  0  0  0  0  0  0  0  0
   -1.4347    0.0338   -0.6962 C   0  0  0  0  0  0  0  0  0  0  0  0
   -0.2343    0.6743   -0.8743 C   0  0  0  0  0  0  0  0  0  0  0  0
    0.4113    1.3250    0.1809 C   0  0  0  0  0  0  0  0  0  0  0  0
    1.6876    1.9782   -0.0071 C   0  0  0  0  0  0  0  0  0  0  0  0
    2.2612    1.9927   -1.1411 N   0  0  0  0  0  0  0  0  0  0  0  0
    3.5212    2.5197   -1.3357 C   0  0  0  0  0  0  0  0  0  0  0  0
    3.7430    3.2035   -2.5439 C   0  0  0  0  0  0  0  0  0  0  0  0
    4.9770    3.7261   -2.8672 C   0  0  0  0  0  0  0  0  0  0  0  0
    6.0067    3.5193   -1.9673 C   0  0  0  0  0  0  0  0  0  0  0  0
    7.3403    3.8719   -1.9667 N   0  0  0  0  0  0  0  0  0  0  0  0
    7.8620    3.3749   -0.8046 C   0  0  0  0  0  0  0  0  0  0  0  0
    9.1476    3.6046   -0.5438 O   0  0  0  0  0  0  0  0  0  0  0  0
    9.6321    3.0291    0.6669 C   0  0  0  0  0  0  0  0  0  0  0  0
    9.8801    1.5305    0.5258 C   0  0  0  0  0  0  0  0  0  0  0  0
   10.3828    0.9315    1.8359 C   0  0  0  0  0  0  0  0  0  0  0  0
   10.7363   -0.5518    1.7173 C   0  0  0  0  0  0  0  0  0  0  0  0
    9.5362   -1.4624    1.4489 C   0  0  0  0  0  0  0  0  0  0  0  0
    8.5328   -1.5067    2.6126 C   0  0  0  0  0  0  0  0  0  0  0  0
    7.1279   -1.0401    2.2258 C   0  0  0  0  0  0  0  0  0  0  0  0
    6.4140   -2.0512    1.3300 C   0  0  0  0  0  0  0  0  0  0  0  0
    5.0456   -1.5755    0.8403 C   0  0  0  0  0  0  0  0  0  0  0  0
    4.0132   -1.4662    1.9607 C   0  0  0  0  0  0  0  0  0  0  0  0
    2.6296   -1.0482    1.4610 C   0  0  0  0  0  0  0  0  0  0  0  0
    1.9049   -2.1371    0.6798 C   0  0  0  0  0  0  0  0  0  0  0  0
    7.0040    2.7360   -0.0690 N   0  0  0  0  0  0  0  0  0  0  0  0
    5.8129    2.8075   -0.7622 C   0  0  0  0  0  0  0  0  0  0  0  0
    4.5626    2.3147   -0.4307 C   0  0  0  0  0  0  0  0  0  0  0  0
   -0.1996    1.3054    1.4435 C   0  0  0  0  0  0  0  0  0  0  0  0
    0.4166    1.9291    2.4809 O   0  0  0  0  0  0  0  0  0  0  0  0
   -1.4122    0.6531    1.6294 C   0  0  0  0  0  0  0  0  0  0  0  0
  -15.1057   -2.0098   -3.7273 H   0  0  0  0  0  0  0  0  0  0  0  0
  -14.4809   -3.6592   -3.6799 H   0  0  0  0  0  0  0  0  0  0  0  0
  -14.8186   -2.8013   -2.1768 H   0  0  0  0  0  0  0  0  0  0  0  0
  -12.6656   -2.0298   -4.2045 H   0  0  0  0  0  0  0  0  0  0  0  0
  -13.0154   -1.1638   -2.7075 H   0  0  0  0  0  0  0  0  0  0  0  0
  -12.3938   -3.1585   -1.3841 H   0  0  0  0  0  0  0  0  0  0  0  0
  -12.1488   -4.0809   -2.8662 H   0  0  0  0  0  0  0  0  0  0  0  0
  -10.3091   -2.5015   -3.5141 H   0  0  0  0  0  0  0  0  0  0  0  0
   -9.9914   -3.4371   -2.0547 H   0  0  0  0  0  0  0  0  0  0  0  0
  -10.6975   -1.4720   -0.6687 H   0  0  0  0  0  0  0  0  0  0  0  0
  -10.8912   -0.5260   -2.1448 H   0  0  0  0  0  0  0  0  0  0  0  0
   -8.3022   -1.8395   -1.2323 H   0  0  0  0  0  0  0  0  0  0  0  0
   -8.4972   -0.8773   -2.6977 H   0  0  0  0  0  0  0  0  0  0  0  0
   -8.8784    0.1211    0.1595 H   0  0  0  0  0  0  0  0  0  0  0  0
   -9.2066    1.0714   -1.2827 H   0  0  0  0  0  0  0  0  0  0  0  0
   -7.0352    1.6708   -0.3950 H   0  0  0  0  0  0  0  0  0  0  0  0
   -6.8652    0.9314   -1.9852 H   0  0  0  0  0  0  0  0  0  0  0  0
   -6.1228   -1.1850   -0.9648 H   0  0  0  0  0  0  0  0  0  0  0  0
   -5.1099    0.1693   -0.4949 H   0  0  0  0  0  0  0  0  0  0  0  0
   -7.2739   -1.1479    1.1943 H   0  0  0  0  0  0  0  0  0  0  0  0
   -6.4329    0.3292    1.6634 H   0  0  0  0  0  0  0  0  0  0  0  0
   -5.5382   -1.8106    2.6737 H   0  0  0  0  0  0  0  0  0  0  0  0
   -5.0279   -2.3115    1.0561 H   0  0  0  0  0  0  0  0  0  0  0  0
   -4.1025    0.3218    2.2495 H   0  0  0  0  0  0  0  0  0  0  0  0
   -3.2803   -1.2191    2.6221 H   0  0  0  0  0  0  0  0  0  0  0  0
   -1.9342   -0.4676   -1.5093 H   0  0  0  0  0  0  0  0  0  0  0  0
    0.2487    0.6927   -1.8378 H   0  0  0  0  0  0  0  0  0  0  0  0
    2.1087    2.4649    0.8795 H   0  0  0  0  0  0  0  0  0  0  0  0
    2.9047    3.3315   -3.2106 H   0  0  0  0  0  0  0  0  0  0  0  0
    5.1334    4.2669   -3.7886 H   0  0  0  0  0  0  0  0  0  0  0  0
    7.8425    4.3948   -2.6621 H   0  0  0  0  0  0  0  0  0  0  0  0
    8.9050    3.2128    1.4642 H   0  0  0  0  0  0  0  0  0  0  0  0
   10.5607    3.5644    0.8794 H   0  0  0  0  0  0  0  0  0  0  0  0
   10.6100    1.3609   -0.2692 H   0  0  0  0  0  0  0  0  0  0  0  0
    8.9382    1.0650    0.2359 H   0  0  0  0  0  0  0  0  0  0  0  0
   11.2752    1.4769    2.1546 H   0  0  0  0  0  0  0  0  0  0  0  0
    9.6203    1.0702    2.6033 H   0  0  0  0  0  0  0  0  0  0  0  0
   11.2211   -0.8720    2.6429 H   0  0  0  0  0  0  0  0  0  0  0  0
   11.4605   -0.6762    0.9082 H   0  0  0  0  0  0  0  0  0  0  0  0
    9.9144   -2.4669    1.2487 H   0  0  0  0  0  0  0  0  0  0  0  0
    9.0335   -1.1250    0.5429 H   0  0  0  0  0  0  0  0  0  0  0  0
    8.8985   -0.8801    3.4282 H   0  0  0  0  0  0  0  0  0  0  0  0
    8.4632   -2.5244    3.0033 H   0  0  0  0  0  0  0  0  0  0  0  0
    7.1855   -0.0767    1.7148 H   0  0  0  0  0  0  0  0  0  0  0  0
    6.5474   -0.8972    3.1393 H   0  0  0  0  0  0  0  0  0  0  0  0
    6.2945   -2.9914    1.8755 H   0  0  0  0  0  0  0  0  0  0  0  0
    7.0395   -2.2574    0.4586 H   0  0  0  0  0  0  0  0  0  0  0  0
    5.1555   -0.6046    0.3521 H   0  0  0  0  0  0  0  0  0  0  0  0
    4.6846   -2.2825    0.0908 H   0  0  0  0  0  0  0  0  0  0  0  0
    3.9357   -2.4268    2.4771 H   0  0  0  0  0  0  0  0  0  0  0  0
    4.3533   -0.7255    2.6870 H   0  0  0  0  0  0  0  0  0  0  0  0
    2.7285   -0.1653    0.8276 H   0  0  0  0  0  0  0  0  0  0  0  0
    2.0155   -0.7682    2.3208 H   0  0  0  0  0  0  0  0  0  0  0  0
    2.4454   -2.3885   -0.2285 H   0  0  0  0  0  0  0  0  0  0  0  0
    1.8036   -3.0379    1.2825 H   0  0  0  0  0  0  0  0  0  0  0  0
    0.9116   -1.7949    0.3961 H   0  0  0  0  0  0  0  0  0  0  0  0
    4.4077    1.7668    0.4852 H   0  0  0  0  0  0  0  0  0  0  0  0
   -0.1111    1.8325    3.2831 H   0  0  0  0  0  0  0  0  0  0  0  0
   -1.8517    0.6519    2.6175 H   0  0  0  0  0  0  0  0  0  0  0  0
  1  2  1  0  0  0  0
  2  3  1  0  0  0  0
  3  4  1  0  0  0  0
  4  5  1  0  0  0  0
  5  6  1  0  0  0  0
  6  7  1  0  0  0  0
  7  8  1  0  0  0  0
  8  9  1  0  0  0  0
  9 10  1  0  0  0  0
 10 11  1  0  0  0  0
 11 12  1  0  0  0  0
 12 13  1  0  0  0  0
 13 14  1  0  0  0  0
 14 15  2  0  0  0  0
 15 16  1  0  0  0  0
 16 17  2  0  0  0  0
 17 18  1  0  0  0  0
 18 19  2  0  0  0  0
 19 20  1  0  0  0  0
 20 21  2  0  0  0  0
 21 22  1  0  0  0  0
 22 23  2  0  0  0  0
 23 24  1  0  0  0  0
 24 25  1  0  0  0  0
 25 26  1  0  0  0  0
 26 27  1  0  0  0  0
 27 28  1  0  0  0  0
 28 29  1  0  0  0  0
 29 30  1  0  0  0  0
 30 31  1  0  0  0  0
 31 32  1  0  0  0  0
 32 33  1  0  0  0  0
 33 34  1  0  0  0  0
 34 35  1  0  0  0  0
 35 36  1  0  0  0  0
 36 37  1  0  0  0  0
 37 38  1  0  0  0  0
 25 39  2  0  0  0  0
 39 40  1  0  0  0  0
 40 41  2  0  0  0  0
 17 42  1  0  0  0  0
 42 43  1  0  0  0  0
 42 44  2  0  0  0  0
 44 14  1  0  0  0  0
 41 20  1  0  0  0  0
 40 23  1  0  0  0  0
  1 45  1  0  0  0  0
  1 46  1  0  0  0  0
  1 47  1  0  0  0  0
  2 48  1  0  0  0  0
  2 49  1  0  0  0  0
  3 50  1  0  0  0  0
  3 51  1  0  0  0  0
  4 52  1  0  0  0  0
  4 53  1  0  0  0  0
  5 54  1  0  0  0  0
  5 55  1  0  0  0  0
  6 56  1  0  0  0  0
  6 57  1  0  0  0  0
  7 58  1  0  0  0  0
  7 59  1  0  0  0  0
  8 60  1  0  0  0  0
  8 61  1  0  0  0  0
  9 62  1  0  0  0  0
  9 63  1  0  0  0  0
 10 64  1  0  0  0  0
 10 65  1  0  0  0  0
 11 66  1  0  0  0  0
 11 67  1  0  0  0  0
 12 68  1  0  0  0  0
 12 69  1  0  0  0  0
 15 70  1  0  0  0  0
 16 71  1  0  0  0  0
 18 72  1  0  0  0  0
 21 73  1  0  0  0  0
 22 74  1  0  0  0  0
 24 75  1  0  0  0  0
 27 76  1  0  0  0  0
 27 77  1  0  0  0  0
 28 78  1  0  0  0  0
 28 79  1  0  0  0  0
 29 80  1  0  0  0  0
 29 81  1  0  0  0  0
 30 82  1  0  0  0  0
 30 83  1  0  0  0  0
 31 84  1  0  0  0  0
 31 85  1  0  0  0  0
 32 86  1  0  0  0  0
 32 87  1  0  0  0  0
 33 88  1  0  0  0  0
 33 89  1  0  0  0  0
 34 90  1  0  0  0  0
 34 91  1  0  0  0  0
 35 92  1  0  0  0  0
 35 93  1  0  0  0  0
 36 94  1  0  0  0  0
 36 95  1  0  0  0  0
 37 96  1  0  0  0  0
 37 97  1  0  0  0  0
 38 98  1  0  0  0  0
 38 99  1  0  0  0  0
 38100  1  0  0  0  0
 41101  1  0  0  0  0
 43102  1  0  0  0  0
 44103  1  0  0  0  0
M  END
