
  xtb     03022215003D
 energy: -57.025973512683 gnorm: 0.000229058153 xtb: 6.4.1 (afa7bdf)
 34 36  0     0  0            999 V2000
   -4.6359    0.8489   -0.5751 C   0  0  0  0  0  0  0  0  0  0  0  0
   -3.3154    0.2671   -0.1797 C   0  0  0  0  0  0  0  0  0  0  0  0
   -3.2641   -0.8839    0.6111 C   0  0  0  0  0  0  0  0  0  0  0  0
   -2.0751   -1.4580    1.0012 C   0  0  0  0  0  0  0  0  0  0  0  0
   -0.8667   -0.8841    0.6026 C   0  0  0  0  0  0  0  0  0  0  0  0
   -0.9009    0.2879   -0.2029 C   0  0  0  0  0  0  0  0  0  0  0  0
    0.2407    0.8824   -0.6155 N   0  0  0  0  0  0  0  0  0  0  0  0
    1.3763    0.3754   -0.2683 C   0  0  0  0  0  0  0  0  0  0  0  0
    2.6297    1.0290   -0.7227 C   0  0  0  0  0  0  0  0  0  0  0  0
    2.6464    2.0210   -1.4194 O   0  0  0  0  0  0  0  0  0  0  0  0
    3.7712    0.4124   -0.2796 N   0  0  0  0  0  0  0  0  0  0  0  0
    5.0448    0.9916   -0.6662 C   0  0  0  0  0  0  0  0  0  0  0  0
    3.8214   -0.7573    0.5200 C   0  0  0  0  0  0  0  0  0  0  0  0
    4.8928   -1.2133    0.8384 O   0  0  0  0  0  0  0  0  0  0  0  0
    2.6475   -1.3222    0.9040 N   0  0  0  0  0  0  0  0  0  0  0  0
    1.5075   -0.8089    0.5485 C   0  0  0  0  0  0  0  0  0  0  0  0
    0.3517   -1.4046    0.9575 N   0  0  0  0  0  0  0  0  0  0  0  0
    0.4454   -2.5936    1.7757 C   0  0  0  0  0  0  0  0  0  0  0  0
   -2.1316    0.8607   -0.5921 C   0  0  0  0  0  0  0  0  0  0  0  0
   -2.1246    2.0903   -1.4365 C   0  0  0  0  0  0  0  0  0  0  0  0
   -5.4556    0.2662   -0.1639 H   0  0  0  0  0  0  0  0  0  0  0  0
   -4.7232    1.8741   -0.2178 H   0  0  0  0  0  0  0  0  0  0  0  0
   -4.7333    0.8702   -1.6598 H   0  0  0  0  0  0  0  0  0  0  0  0
   -4.1906   -1.3401    0.9284 H   0  0  0  0  0  0  0  0  0  0  0  0
   -2.0897   -2.3455    1.6114 H   0  0  0  0  0  0  0  0  0  0  0  0
    5.4319    0.4913   -1.5551 H   0  0  0  0  0  0  0  0  0  0  0  0
    5.7506    0.8573    0.1511 H   0  0  0  0  0  0  0  0  0  0  0  0
    4.8894    2.0466   -0.8824 H   0  0  0  0  0  0  0  0  0  0  0  0
   -0.0308   -3.4366    1.2746 H   0  0  0  0  0  0  0  0  0  0  0  0
   -0.0280   -2.4258    2.7434 H   0  0  0  0  0  0  0  0  0  0  0  0
    1.5056   -2.7977    1.9144 H   0  0  0  0  0  0  0  0  0  0  0  0
   -1.1022    2.3857   -1.6489 H   0  0  0  0  0  0  0  0  0  0  0  0
   -2.6499    1.9092   -2.3733 H   0  0  0  0  0  0  0  0  0  0  0  0
   -2.6355    2.9041   -0.9234 H   0  0  0  0  0  0  0  0  0  0  0  0
  1  2  1  0  0  0  0
  2  3  2  0  0  0  0
  3  4  1  0  0  0  0
  4  5  2  0  0  0  0
  5  6  1  0  0  0  0
  6  7  1  0  0  0  0
  7  8  2  0  0  0  0
  8  9  1  0  0  0  0
  9 10  2  0  0  0  0
  9 11  1  0  0  0  0
 11 12  1  0  0  0  0
 11 13  1  0  0  0  0
 13 14  2  0  0  0  0
 13 15  1  0  0  0  0
 15 16  2  0  0  0  0
 16 17  1  0  0  0  0
 17 18  1  0  0  0  0
  6 19  2  0  0  0  0
 19 20  1  0  0  0  0
 19  2  1  0  0  0  0
 17  5  1  0  0  0  0
 16  8  1  0  0  0  0
  1 21  1  0  0  0  0
  1 22  1  0  0  0  0
  1 23  1  0  0  0  0
  3 24  1  0  0  0  0
  4 25  1  0  0  0  0
 12 26  1  0  0  0  0
 12 27  1  0  0  0  0
 12 28  1  0  0  0  0
 18 29  1  0  0  0  0
 18 30  1  0  0  0  0
 18 31  1  0  0  0  0
 20 32  1  0  0  0  0
 20 33  1  0  0  0  0
 20 34  1  0  0  0  0
M  END
