
  xtb     03022214393D
 energy: -117.864550147068 gnorm: 0.000115892771 xtb: 6.4.1 (afa7bdf)
 71 78  0     0  0            999 V2000
   -4.6757   -2.5302    2.2720 C   0  0  0  0  0  0  0  0  0  0  0  0
   -3.9120   -1.9588    1.2398 O   0  0  0  0  0  0  0  0  0  0  0  0
   -3.5542   -2.7381    0.1806 C   0  0  0  0  0  0  0  0  0  0  0  0
   -3.8958   -4.0759    0.0373 C   0  0  0  0  0  0  0  0  0  0  0  0
   -3.4563   -4.7944   -1.0629 C   0  0  0  0  0  0  0  0  0  0  0  0
   -2.6694   -4.1921   -2.0259 C   0  0  0  0  0  0  0  0  0  0  0  0
   -2.3229   -2.8595   -1.8936 C   0  0  0  0  0  0  0  0  0  0  0  0
   -2.7596   -2.1185   -0.8036 C   0  0  0  0  0  0  0  0  0  0  0  0
   -2.4403   -0.7035   -0.6609 C   0  0  0  0  0  0  0  0  0  0  0  0
   -1.2068   -0.1933   -0.6514 N   0  0  0  0  0  4  0  0  0  0  0  0
   -1.2552    1.1761   -0.4759 C   0  0  0  0  0  0  0  0  0  0  0  0
   -0.0956    1.9294   -0.3279 C   0  0  0  0  0  0  0  0  0  0  0  0
   -0.1978    3.3900   -0.1190 C   0  0  0  0  0  0  0  0  0  0  0  0
   -0.1821    4.2554   -1.2065 C   0  0  0  0  0  0  0  0  0  0  0  0
   -0.2775    5.6216   -1.0077 C   0  0  0  0  0  0  0  0  0  0  0  0
   -0.3889    6.1320    0.2751 C   0  0  0  0  0  0  0  0  0  0  0  0
   -0.4050    5.2724    1.3612 C   0  0  0  0  0  0  0  0  0  0  0  0
   -0.3099    3.9059    1.1673 C   0  0  0  0  0  0  0  0  0  0  0  0
    1.1557    1.3224   -0.3170 C   0  0  0  0  0  0  0  0  0  0  0  0
    2.4528    1.8661   -0.0672 C   0  0  0  0  0  0  0  0  0  0  0  0
    2.9426    3.1553    0.1434 C   0  0  0  0  0  0  0  0  0  0  0  0
    4.2957    3.3170    0.3401 C   0  0  0  0  0  0  0  0  0  0  0  0
    5.1768    2.2289    0.3254 C   0  0  0  0  0  0  0  0  0  0  0  0
    4.7180    0.9499    0.1202 C   0  0  0  0  0  0  0  0  0  0  0  0
    3.3473    0.7626   -0.0658 C   0  0  0  0  0  0  0  0  0  0  0  0
    2.5721   -0.3995   -0.3284 C   0  0  0  0  0  0  0  0  0  0  0  0
    3.0751   -1.7649   -0.4141 C   0  0  0  0  0  0  0  0  0  0  0  0
    2.8773   -2.5470   -1.5441 C   0  0  0  0  0  0  0  0  0  0  0  0
    3.3958   -3.8273   -1.6163 C   0  0  0  0  0  0  0  0  0  0  0  0
    4.1163   -4.3358   -0.5525 C   0  0  0  0  0  0  0  0  0  0  0  0
    4.3183   -3.5758    0.5882 C   0  0  0  0  0  0  0  0  0  0  0  0
    3.8026   -2.2898    0.6719 C   0  0  0  0  0  0  0  0  0  0  0  0
    3.9221   -1.4790    1.7608 O   0  0  0  0  0  0  0  0  0  0  0  0
    4.6073   -1.9598    2.8897 C   0  0  0  0  0  0  0  0  0  0  0  0
    1.2957   -0.0417   -0.4851 N   0  0  0  0  0  0  0  0  0  0  0  0
    0.1179   -0.9583   -0.9064 B   0  0  0  0  0  4  0  0  0  0  0  0
    0.2231   -1.1921   -2.2736 F   0  0  0  0  0  0  0  0  0  0  0  0
    0.1431   -2.1403   -0.2106 F   0  0  0  0  0  0  0  0  0  0  0  0
   -2.6298    1.5575   -0.4013 C   0  0  0  0  0  0  0  0  0  0  0  0
   -3.2946    2.7764   -0.2645 C   0  0  0  0  0  0  0  0  0  0  0  0
   -4.6713    2.7724   -0.2473 C   0  0  0  0  0  0  0  0  0  0  0  0
   -5.4055    1.5864   -0.3703 C   0  0  0  0  0  0  0  0  0  0  0  0
   -4.7732    0.3739   -0.5056 C   0  0  0  0  0  0  0  0  0  0  0  0
   -3.3774    0.3545   -0.5096 C   0  0  0  0  0  0  0  0  0  0  0  0
   -4.8314   -1.7317    2.9959 H   0  0  0  0  0  0  0  0  0  0  0  0
   -5.6478   -2.8815    1.9093 H   0  0  0  0  0  0  0  0  0  0  0  0
   -4.1469   -3.3583    2.7547 H   0  0  0  0  0  0  0  0  0  0  0  0
   -4.5000   -4.5719    0.7807 H   0  0  0  0  0  0  0  0  0  0  0  0
   -3.7324   -5.8344   -1.1570 H   0  0  0  0  0  0  0  0  0  0  0  0
   -2.3246   -4.7558   -2.8787 H   0  0  0  0  0  0  0  0  0  0  0  0
   -1.7154   -2.3814   -2.6434 H   0  0  0  0  0  0  0  0  0  0  0  0
   -0.0950    3.8514   -2.2040 H   0  0  0  0  0  0  0  0  0  0  0  0
   -0.2646    6.2894   -1.8563 H   0  0  0  0  0  0  0  0  0  0  0  0
   -0.4631    7.1985    0.4283 H   0  0  0  0  0  0  0  0  0  0  0  0
   -0.4919    5.6676    2.3626 H   0  0  0  0  0  0  0  0  0  0  0  0
   -0.3218    3.2306    2.0097 H   0  0  0  0  0  0  0  0  0  0  0  0
    2.2839    4.0090    0.1449 H   0  0  0  0  0  0  0  0  0  0  0  0
    4.6930    4.3086    0.5020 H   0  0  0  0  0  0  0  0  0  0  0  0
    6.2320    2.4070    0.4726 H   0  0  0  0  0  0  0  0  0  0  0  0
    5.3926    0.1081    0.0967 H   0  0  0  0  0  0  0  0  0  0  0  0
    2.3203   -2.1413   -2.3718 H   0  0  0  0  0  0  0  0  0  0  0  0
    3.2360   -4.4237   -2.5010 H   0  0  0  0  0  0  0  0  0  0  0  0
    4.5254   -5.3344   -0.5990 H   0  0  0  0  0  0  0  0  0  0  0  0
    4.8750   -3.9995    1.4094 H   0  0  0  0  0  0  0  0  0  0  0  0
    4.5697   -1.1523    3.6195 H   0  0  0  0  0  0  0  0  0  0  0  0
    4.1233   -2.8483    3.3078 H   0  0  0  0  0  0  0  0  0  0  0  0
    5.6537   -2.1892    2.6608 H   0  0  0  0  0  0  0  0  0  0  0  0
   -2.7492    3.7030   -0.1820 H   0  0  0  0  0  0  0  0  0  0  0  0
   -5.2028    3.7074   -0.1449 H   0  0  0  0  0  0  0  0  0  0  0  0
   -6.4846    1.6350   -0.3632 H   0  0  0  0  0  0  0  0  0  0  0  0
   -5.3326   -0.5427   -0.6114 H   0  0  0  0  0  0  0  0  0  0  0  0
  1  2  1  0  0  0  0
  2  3  1  0  0  0  0
  3  4  2  0  0  0  0
  4  5  1  0  0  0  0
  5  6  2  0  0  0  0
  6  7  1  0  0  0  0
  7  8  2  0  0  0  0
  8  9  1  0  0  0  0
  9 10  2  0  0  0  0
 10 11  1  0  0  0  0
 11 12  2  0  0  0  0
 12 13  1  0  0  0  0
 13 14  2  0  0  0  0
 14 15  1  0  0  0  0
 15 16  2  0  0  0  0
 16 17  1  0  0  0  0
 17 18  2  0  0  0  0
 12 19  1  0  0  0  0
 19 20  2  0  0  0  0
 20 21  1  0  0  0  0
 21 22  2  0  0  0  0
 22 23  1  0  0  0  0
 23 24  2  0  0  0  0
 24 25  1  0  0  0  0
 25 26  2  0  0  0  0
 26 27  1  0  0  0  0
 27 28  2  0  0  0  0
 28 29  1  0  0  0  0
 29 30  2  0  0  0  0
 30 31  1  0  0  0  0
 31 32  2  0  0  0  0
 32 33  1  0  0  0  0
 33 34  1  0  0  0  0
 26 35  1  0  0  0  0
 35 36  1  0  0  0  0
 36 37  1  0  0  0  0
 36 38  1  0  0  0  0
 11 39  1  0  0  0  0
 39 40  2  0  0  0  0
 40 41  1  0  0  0  0
 41 42  2  0  0  0  0
 42 43  1  0  0  0  0
 43 44  2  0  0  0  0
  8  3  1  0  0  0  0
 44  9  1  0  0  0  0
 36 10  1  0  0  0  0
 44 39  1  0  0  0  0
 18 13  1  0  0  0  0
 35 19  1  0  0  0  0
 25 20  1  0  0  0  0
 32 27  1  0  0  0  0
  1 45  1  0  0  0  0
  1 46  1  0  0  0  0
  1 47  1  0  0  0  0
  4 48  1  0  0  0  0
  5 49  1  0  0  0  0
  6 50  1  0  0  0  0
  7 51  1  0  0  0  0
 14 52  1  0  0  0  0
 15 53  1  0  0  0  0
 16 54  1  0  0  0  0
 17 55  1  0  0  0  0
 18 56  1  0  0  0  0
 21 57  1  0  0  0  0
 22 58  1  0  0  0  0
 23 59  1  0  0  0  0
 24 60  1  0  0  0  0
 28 61  1  0  0  0  0
 29 62  1  0  0  0  0
 30 63  1  0  0  0  0
 31 64  1  0  0  0  0
 34 65  1  0  0  0  0
 34 66  1  0  0  0  0
 34 67  1  0  0  0  0
 40 68  1  0  0  0  0
 41 69  1  0  0  0  0
 42 70  1  0  0  0  0
 43 71  1  0  0  0  0
M  CHG  1  10   1
M  CHG  1  36  -1
M  END
