
  xtb     03022214473D
 energy: -65.295465433249 gnorm: 0.000231515281 xtb: 6.4.1 (afa7bdf)
 41 42  0     0  0            999 V2000
   -5.9456    0.1477    0.3994 C   0  0  0  0  0  0  0  0  0  0  0  0
   -4.6709   -0.6524    0.2076 C   0  0  0  0  0  0  0  0  0  0  0  0
   -3.5651    0.1589    0.6025 O   0  0  0  0  0  0  0  0  0  0  0  0
   -2.3565   -0.4370    0.5497 C   0  0  0  0  0  0  0  0  0  0  0  0
   -2.2098   -1.5848    0.1986 O   0  0  0  0  0  0  0  0  0  0  0  0
   -1.2658    0.4469    0.9725 C   0  0  0  0  0  0  0  0  0  0  0  0
   -1.5008    1.6697    1.4769 C   0  0  0  0  0  0  0  0  0  0  0  0
   -0.4928    2.4815    1.9239 N   0  0  0  0  0  0  0  0  0  0  0  0
    0.7947    2.0184    1.9489 C   0  0  0  0  0  0  0  0  0  0  0  0
    1.1343    0.8104    1.4694 C   0  0  0  0  0  0  0  0  0  0  0  0
    2.5447    0.4063    1.5170 C   0  0  0  0  0  0  0  0  0  0  0  0
    3.4449    1.1076    1.9245 O   0  0  0  0  0  0  0  0  0  0  0  0
    2.7177   -0.8403    1.0546 O   0  0  0  0  0  0  0  0  0  0  0  0
    4.0553   -1.3092    0.9251 C   0  0  0  0  0  0  0  0  0  0  0  0
    4.6321   -0.9164   -0.4283 C   0  0  0  0  0  0  0  0  0  0  0  0
    0.1360   -0.1013    0.7927 C   0  0  0  0  0  0  0  0  0  0  0  0
    0.4618   -0.2020   -0.6842 C   0  0  0  0  0  0  0  0  0  0  0  0
    0.5676    0.9535   -1.4472 C   0  0  0  0  0  0  0  0  0  0  0  0
    0.8804    0.8800   -2.7927 C   0  0  0  0  0  0  0  0  0  0  0  0
    1.0881   -0.3516   -3.3898 C   0  0  0  0  0  0  0  0  0  0  0  0
    0.9767   -1.5074   -2.6355 C   0  0  0  0  0  0  0  0  0  0  0  0
    0.6655   -1.4329   -1.2895 C   0  0  0  0  0  0  0  0  0  0  0  0
   -5.9159    1.0495   -0.2063 H   0  0  0  0  0  0  0  0  0  0  0  0
   -6.0562    0.4321    1.4425 H   0  0  0  0  0  0  0  0  0  0  0  0
   -6.8009   -0.4522    0.1023 H   0  0  0  0  0  0  0  0  0  0  0  0
   -4.5377   -0.9459   -0.8401 H   0  0  0  0  0  0  0  0  0  0  0  0
   -4.6763   -1.5647    0.8152 H   0  0  0  0  0  0  0  0  0  0  0  0
   -2.5035    2.0573    1.5672 H   0  0  0  0  0  0  0  0  0  0  0  0
   -0.7117    3.3762    2.3300 H   0  0  0  0  0  0  0  0  0  0  0  0
    1.5409    2.6660    2.3845 H   0  0  0  0  0  0  0  0  0  0  0  0
    3.9921   -2.3950    1.0247 H   0  0  0  0  0  0  0  0  0  0  0  0
    4.6625   -0.8927    1.7359 H   0  0  0  0  0  0  0  0  0  0  0  0
    3.9788   -1.2644   -1.2253 H   0  0  0  0  0  0  0  0  0  0  0  0
    4.7163    0.1658   -0.4935 H   0  0  0  0  0  0  0  0  0  0  0  0
    5.6176   -1.3565   -0.5510 H   0  0  0  0  0  0  0  0  0  0  0  0
    0.1884   -1.1092    1.2195 H   0  0  0  0  0  0  0  0  0  0  0  0
    0.4078    1.9170   -0.9832 H   0  0  0  0  0  0  0  0  0  0  0  0
    0.9631    1.7857   -3.3766 H   0  0  0  0  0  0  0  0  0  0  0  0
    1.3341   -0.4097   -4.4403 H   0  0  0  0  0  0  0  0  0  0  0  0
    1.1339   -2.4710   -3.0987 H   0  0  0  0  0  0  0  0  0  0  0  0
    0.5742   -2.3338   -0.7027 H   0  0  0  0  0  0  0  0  0  0  0  0
  1  2  1  0  0  0  0
  2  3  1  0  0  0  0
  3  4  1  0  0  0  0
  4  5  2  0  0  0  0
  4  6  1  0  0  0  0
  6  7  2  0  0  0  0
  7  8  1  0  0  0  0
  8  9  1  0  0  0  0
  9 10  2  0  0  0  0
 10 11  1  0  0  0  0
 11 12  2  0  0  0  0
 11 13  1  0  0  0  0
 13 14  1  0  0  0  0
 14 15  1  0  0  0  0
 10 16  1  0  0  0  0
 16 17  1  0  0  0  0
 17 18  2  0  0  0  0
 18 19  1  0  0  0  0
 19 20  2  0  0  0  0
 20 21  1  0  0  0  0
 21 22  2  0  0  0  0
 16  6  1  0  0  0  0
 22 17  1  0  0  0  0
  1 23  1  0  0  0  0
  1 24  1  0  0  0  0
  1 25  1  0  0  0  0
  2 26  1  0  0  0  0
  2 27  1  0  0  0  0
  7 28  1  0  0  0  0
  8 29  1  0  0  0  0
  9 30  1  0  0  0  0
 14 31  1  0  0  0  0
 14 32  1  0  0  0  0
 15 33  1  0  0  0  0
 15 34  1  0  0  0  0
 15 35  1  0  0  0  0
 16 36  1  0  0  0  0
 18 37  1  0  0  0  0
 19 38  1  0  0  0  0
 20 39  1  0  0  0  0
 21 40  1  0  0  0  0
 22 41  1  0  0  0  0
M  END
