
  xtb     03022216183D
 energy: -46.089054082703 gnorm: 0.000153930760 xtb: 6.4.1 (afa7bdf)
 33 34  0     0  0            999 V2000
   -4.9842   -0.1872    1.1623 C   0  0  0  0  0  0  0  0  0  0  0  0
   -4.3049    0.1908   -0.0512 N   0  0  0  0  0  0  0  0  0  0  0  0
   -5.0856    0.5857   -1.1964 C   0  0  0  0  0  0  0  0  0  0  0  0
   -2.9387    0.1533   -0.1231 C   0  0  0  0  0  0  0  0  0  0  0  0
   -2.2549    0.5271   -1.2909 C   0  0  0  0  0  0  0  0  0  0  0  0
   -0.8816    0.4912   -1.3507 C   0  0  0  0  0  0  0  0  0  0  0  0
   -0.1002    0.0850   -0.2634 C   0  0  0  0  0  0  0  0  0  0  0  0
    1.3374    0.0744   -0.3900 C   0  0  0  0  0  0  0  0  0  0  0  0
    2.2238   -0.2743    0.5575 C   0  0  0  0  0  0  0  0  0  0  0  0
    3.6651   -0.2782    0.4230 C   0  0  0  0  0  0  0  0  0  0  0  0
    4.3519    0.0887   -0.7425 C   0  0  0  0  0  0  0  0  0  0  0  0
    5.7316    0.0470   -0.7521 C   0  0  0  0  0  0  0  0  0  0  0  0
    6.4038   -0.3574    0.3928 C   0  0  0  0  0  0  0  0  0  0  0  0
    5.6416   -0.7027    1.4990 C   0  0  0  0  0  0  0  0  0  0  0  0
    4.3257   -0.6668    1.5201 N   0  0  0  0  0  0  0  0  0  0  0  0
   -0.7843   -0.2902    0.8975 C   0  0  0  0  0  0  0  0  0  0  0  0
   -2.1568   -0.2590    0.9691 C   0  0  0  0  0  0  0  0  0  0  0  0
   -4.7917   -1.2346    1.4177 H   0  0  0  0  0  0  0  0  0  0  0  0
   -6.0565   -0.0620    1.0334 H   0  0  0  0  0  0  0  0  0  0  0  0
   -4.6684    0.4397    2.0019 H   0  0  0  0  0  0  0  0  0  0  0  0
   -6.1437    0.5315   -0.9524 H   0  0  0  0  0  0  0  0  0  0  0  0
   -4.8582    1.6141   -1.4955 H   0  0  0  0  0  0  0  0  0  0  0  0
   -4.8996   -0.0743   -2.0497 H   0  0  0  0  0  0  0  0  0  0  0  0
   -2.7987    0.8514   -2.1630 H   0  0  0  0  0  0  0  0  0  0  0  0
   -0.3921    0.7881   -2.2684 H   0  0  0  0  0  0  0  0  0  0  0  0
    1.6982    0.3882   -1.3619 H   0  0  0  0  0  0  0  0  0  0  0  0
    1.8909   -0.5898    1.5356 H   0  0  0  0  0  0  0  0  0  0  0  0
    3.8128    0.4004   -1.6231 H   0  0  0  0  0  0  0  0  0  0  0  0
    6.2809    0.3263   -1.6408 H   0  0  0  0  0  0  0  0  0  0  0  0
    7.4813   -0.4027    0.4245 H   0  0  0  0  0  0  0  0  0  0  0  0
    6.1116   -1.0261    2.4201 H   0  0  0  0  0  0  0  0  0  0  0  0
   -0.2294   -0.6151    1.7640 H   0  0  0  0  0  0  0  0  0  0  0  0
   -2.6272   -0.5624    1.8901 H   0  0  0  0  0  0  0  0  0  0  0  0
  1  2  1  0  0  0  0
  2  3  1  0  0  0  0
  2  4  1  0  0  0  0
  4  5  2  0  0  0  0
  5  6  1  0  0  0  0
  6  7  2  0  0  0  0
  7  8  1  0  0  0  0
  8  9  2  0  0  0  0
  9 10  1  0  0  0  0
 10 11  2  0  0  0  0
 11 12  1  0  0  0  0
 12 13  2  0  0  0  0
 13 14  1  0  0  0  0
 14 15  2  0  0  0  0
  7 16  1  0  0  0  0
 16 17  2  0  0  0  0
 17  4  1  0  0  0  0
 15 10  1  0  0  0  0
  1 18  1  0  0  0  0
  1 19  1  0  0  0  0
  1 20  1  0  0  0  0
  3 21  1  0  0  0  0
  3 22  1  0  0  0  0
  3 23  1  0  0  0  0
  5 24  1  0  0  0  0
  6 25  1  0  0  0  0
  8 26  1  0  0  0  0
  9 27  1  0  0  0  0
 11 28  1  0  0  0  0
 12 29  1  0  0  0  0
 13 30  1  0  0  0  0
 14 31  1  0  0  0  0
 16 32  1  0  0  0  0
 17 33  1  0  0  0  0
M  END
