
  xtb     03022213243D
 energy: -163.733983381596 gnorm: 0.000258195417 xtb: 6.4.1 (afa7bdf)
108115  0     0  0            999 V2000
   11.7492   -3.7295    2.1129 C   0  0  0  0  0  0  0  0  0  0  0  0
   10.9234   -3.1656    0.9632 C   0  0  0  0  0  0  0  0  0  0  0  0
    9.4380   -3.0960    1.3102 C   0  0  0  0  0  0  0  0  0  0  0  0
    8.6137   -2.5146    0.1637 C   0  0  0  0  0  0  0  0  0  0  0  0
    7.1059   -2.5379    0.4179 C   0  0  0  0  0  0  0  0  0  0  0  0
    6.6717   -1.6057    1.5468 C   0  0  0  0  0  0  0  0  0  0  0  0
    5.1563   -1.5629    1.7451 C   0  0  0  0  0  0  0  0  0  0  0  0
    4.3449   -0.9780    0.5862 C   0  0  0  0  0  0  0  0  0  0  0  0
    4.6546    0.4908    0.2650 C   0  0  0  0  0  0  0  0  0  0  0  0
    5.6526    0.6729   -0.8822 C   0  0  0  0  0  0  0  0  0  0  0  0
    5.7376    2.1257   -1.3704 C   0  0  0  0  0  0  0  0  0  0  0  0
    4.8204    2.4070   -2.5638 C   0  0  0  0  0  0  0  0  0  0  0  0
    3.4313    2.1432   -2.2649 N   0  0  0  0  0  0  0  0  0  0  0  0
    2.6194    3.0200   -1.5628 C   0  0  0  0  0  0  0  0  0  0  0  0
    2.9633    4.1083   -1.1701 O   0  0  0  0  0  0  0  0  0  0  0  0
    1.3140    2.3291   -1.4363 C   0  0  0  0  0  0  0  0  0  0  0  0
    1.4227    1.0887   -2.0285 C   0  0  0  0  0  0  0  0  0  0  0  0
    0.3876    0.1396   -1.9433 C   0  0  0  0  0  0  0  0  0  0  0  0
    0.5198   -1.1667   -2.4830 C   0  0  0  0  0  0  0  0  0  0  0  0
   -0.4658   -2.0820   -2.3160 C   0  0  0  0  0  0  0  0  0  0  0  0
   -1.5669   -1.8039   -1.4628 C   0  0  0  0  0  0  0  0  0  0  0  0
   -2.4982   -2.8004   -1.1287 C   0  0  0  0  0  0  0  0  0  0  0  0
   -3.5006   -2.5908   -0.2113 C   0  0  0  0  0  0  0  0  0  0  0  0
   -4.4773   -3.6491    0.0830 C   0  0  0  0  0  0  0  0  0  0  0  0
   -5.8434   -3.3711    0.1300 C   0  0  0  0  0  0  0  0  0  0  0  0
   -6.7538   -4.3750    0.3832 C   0  0  0  0  0  0  0  0  0  0  0  0
   -6.3193   -5.6826    0.6000 C   0  0  0  0  0  0  0  0  0  0  0  0
   -7.2796   -6.7546    0.8751 C   0  0  0  0  0  0  0  0  0  0  0  0
   -7.0001   -7.9103    1.0720 O   0  0  0  0  0  0  0  0  0  0  0  0
   -4.9522   -5.9627    0.5534 C   0  0  0  0  0  0  0  0  0  0  0  0
   -4.0446   -4.9590    0.2946 C   0  0  0  0  0  0  0  0  0  0  0  0
   -3.5419   -1.3468    0.4753 C   0  0  0  0  0  0  0  0  0  0  0  0
   -4.4829   -1.2345    1.4510 O   0  0  0  0  0  0  0  0  0  0  0  0
   -4.5658   -0.0340    2.1799 C   0  0  0  0  0  0  0  0  0  0  0  0
   -2.6439   -0.3569    0.1501 C   0  0  0  0  0  0  0  0  0  0  0  0
   -1.6993   -0.5226   -0.8793 C   0  0  0  0  0  0  0  0  0  0  0  0
   -0.8025    0.5293   -1.2775 C   0  0  0  0  0  0  0  0  0  0  0  0
   -1.0205    1.9127   -0.9859 C   0  0  0  0  0  0  0  0  0  0  0  0
    0.0902    2.7920   -0.9195 C   0  0  0  0  0  0  0  0  0  0  0  0
   -0.0481    4.0897   -0.3600 C   0  0  0  0  0  0  0  0  0  0  0  0
   -1.2589    4.5318    0.0589 C   0  0  0  0  0  0  0  0  0  0  0  0
   -2.4311    3.7753   -0.2099 C   0  0  0  0  0  0  0  0  0  0  0  0
   -3.7093    4.2991    0.0394 C   0  0  0  0  0  0  0  0  0  0  0  0
   -4.8582    3.6517   -0.3513 C   0  0  0  0  0  0  0  0  0  0  0  0
   -6.1732    4.2361   -0.0502 C   0  0  0  0  0  0  0  0  0  0  0  0
   -7.1555    4.3625   -1.0321 C   0  0  0  0  0  0  0  0  0  0  0  0
   -8.3723    4.9341   -0.7297 C   0  0  0  0  0  0  0  0  0  0  0  0
   -8.6405    5.3897    0.5628 C   0  0  0  0  0  0  0  0  0  0  0  0
   -9.9393    5.9913    0.8758 C   0  0  0  0  0  0  0  0  0  0  0  0
  -10.8459    6.1432    0.0963 O   0  0  0  0  0  0  0  0  0  0  0  0
   -7.6583    5.2658    1.5456 C   0  0  0  0  0  0  0  0  0  0  0  0
   -6.4392    4.6994    1.2396 C   0  0  0  0  0  0  0  0  0  0  0  0
   -4.7387    2.4313   -1.0695 C   0  0  0  0  0  0  0  0  0  0  0  0
   -5.9030    1.8511   -1.4665 O   0  0  0  0  0  0  0  0  0  0  0  0
   -5.8555    0.5950   -2.0987 C   0  0  0  0  0  0  0  0  0  0  0  0
   -3.4935    1.8892   -1.2918 C   0  0  0  0  0  0  0  0  0  0  0  0
   -2.3225    2.4976   -0.8060 C   0  0  0  0  0  0  0  0  0  0  0  0
    2.7838    0.9637   -2.5992 C   0  0  0  0  0  0  0  0  0  0  0  0
    3.2783    0.0653   -3.2358 O   0  0  0  0  0  0  0  0  0  0  0  0
   11.4167   -4.7346    2.3640 H   0  0  0  0  0  0  0  0  0  0  0  0
   12.8021   -3.7737    1.8440 H   0  0  0  0  0  0  0  0  0  0  0  0
   11.6471   -3.1053    2.9981 H   0  0  0  0  0  0  0  0  0  0  0  0
   11.0588   -3.7919    0.0782 H   0  0  0  0  0  0  0  0  0  0  0  0
   11.2824   -2.1637    0.7161 H   0  0  0  0  0  0  0  0  0  0  0  0
    9.3134   -2.4827    2.2044 H   0  0  0  0  0  0  0  0  0  0  0  0
    9.0751   -4.1004    1.5416 H   0  0  0  0  0  0  0  0  0  0  0  0
    8.9322   -1.4858   -0.0229 H   0  0  0  0  0  0  0  0  0  0  0  0
    8.8223   -3.0906   -0.7417 H   0  0  0  0  0  0  0  0  0  0  0  0
    6.6012   -2.2448   -0.5038 H   0  0  0  0  0  0  0  0  0  0  0  0
    6.7953   -3.5583    0.6553 H   0  0  0  0  0  0  0  0  0  0  0  0
    7.0461   -0.5990    1.3558 H   0  0  0  0  0  0  0  0  0  0  0  0
    7.1192   -1.9463    2.4829 H   0  0  0  0  0  0  0  0  0  0  0  0
    4.8010   -2.5803    1.9299 H   0  0  0  0  0  0  0  0  0  0  0  0
    4.9435   -0.9757    2.6427 H   0  0  0  0  0  0  0  0  0  0  0  0
    4.4838   -1.5825   -0.3109 H   0  0  0  0  0  0  0  0  0  0  0  0
    3.2897   -1.0609    0.8611 H   0  0  0  0  0  0  0  0  0  0  0  0
    5.0375    0.9877    1.1595 H   0  0  0  0  0  0  0  0  0  0  0  0
    3.7202    0.9899    0.0015 H   0  0  0  0  0  0  0  0  0  0  0  0
    5.3610    0.0343   -1.7182 H   0  0  0  0  0  0  0  0  0  0  0  0
    6.6396    0.3473   -0.5550 H   0  0  0  0  0  0  0  0  0  0  0  0
    6.7558    2.3531   -1.6904 H   0  0  0  0  0  0  0  0  0  0  0  0
    5.4842    2.8078   -0.5567 H   0  0  0  0  0  0  0  0  0  0  0  0
    4.9064    3.4568   -2.8579 H   0  0  0  0  0  0  0  0  0  0  0  0
    5.0902    1.7653   -3.4064 H   0  0  0  0  0  0  0  0  0  0  0  0
    1.4176   -1.3952   -3.0343 H   0  0  0  0  0  0  0  0  0  0  0  0
   -0.3968   -3.0614   -2.7655 H   0  0  0  0  0  0  0  0  0  0  0  0
   -2.4242   -3.7600   -1.6194 H   0  0  0  0  0  0  0  0  0  0  0  0
   -6.1887   -2.3635   -0.0427 H   0  0  0  0  0  0  0  0  0  0  0  0
   -7.8111   -4.1529    0.4140 H   0  0  0  0  0  0  0  0  0  0  0  0
   -8.3351   -6.4135    0.8887 H   0  0  0  0  0  0  0  0  0  0  0  0
   -4.6284   -6.9782    0.7267 H   0  0  0  0  0  0  0  0  0  0  0  0
   -2.9871   -5.1776    0.2750 H   0  0  0  0  0  0  0  0  0  0  0  0
   -4.7890    0.8194    1.5299 H   0  0  0  0  0  0  0  0  0  0  0  0
   -5.3859   -0.1765    2.8816 H   0  0  0  0  0  0  0  0  0  0  0  0
   -3.6447    0.1646    2.7362 H   0  0  0  0  0  0  0  0  0  0  0  0
   -2.6446    0.5704    0.6973 H   0  0  0  0  0  0  0  0  0  0  0  0
    0.8385    4.6967   -0.2708 H   0  0  0  0  0  0  0  0  0  0  0  0
   -1.3653    5.4961    0.5330 H   0  0  0  0  0  0  0  0  0  0  0  0
   -3.7868    5.2634    0.5207 H   0  0  0  0  0  0  0  0  0  0  0  0
   -6.9519    4.0215   -2.0346 H   0  0  0  0  0  0  0  0  0  0  0  0
   -9.1393    5.0432   -1.4819 H   0  0  0  0  0  0  0  0  0  0  0  0
  -10.0370    6.3139    1.9328 H   0  0  0  0  0  0  0  0  0  0  0  0
   -7.8591    5.6153    2.5485 H   0  0  0  0  0  0  0  0  0  0  0  0
   -5.6838    4.5951    2.0053 H   0  0  0  0  0  0  0  0  0  0  0  0
   -6.8944    0.3125   -2.2616 H   0  0  0  0  0  0  0  0  0  0  0  0
   -5.3406    0.6466   -3.0632 H   0  0  0  0  0  0  0  0  0  0  0  0
   -5.3666   -0.1567   -1.4699 H   0  0  0  0  0  0  0  0  0  0  0  0
   -3.3971    0.9814   -1.8629 H   0  0  0  0  0  0  0  0  0  0  0  0
  1  2  1  0  0  0  0
  2  3  1  0  0  0  0
  3  4  1  0  0  0  0
  4  5  1  0  0  0  0
  5  6  1  0  0  0  0
  6  7  1  0  0  0  0
  7  8  1  0  0  0  0
  8  9  1  0  0  0  0
  9 10  1  0  0  0  0
 10 11  1  0  0  0  0
 11 12  1  0  0  0  0
 12 13  1  0  0  0  0
 13 14  1  0  0  0  0
 14 15  2  0  0  0  0
 14 16  1  0  0  0  0
 16 17  2  0  0  0  0
 17 18  1  0  0  0  0
 18 19  2  0  0  0  0
 19 20  1  0  0  0  0
 20 21  2  0  0  0  0
 21 22  1  0  0  0  0
 22 23  2  0  0  0  0
 23 24  1  0  0  0  0
 24 25  2  0  0  0  0
 25 26  1  0  0  0  0
 26 27  2  0  0  0  0
 27 28  1  0  0  0  0
 28 29  2  0  0  0  0
 27 30  1  0  0  0  0
 30 31  2  0  0  0  0
 23 32  1  0  0  0  0
 32 33  1  0  0  0  0
 33 34  1  0  0  0  0
 32 35  2  0  0  0  0
 35 36  1  0  0  0  0
 36 37  2  0  0  0  0
 37 38  1  0  0  0  0
 38 39  2  0  0  0  0
 39 40  1  0  0  0  0
 40 41  2  0  0  0  0
 41 42  1  0  0  0  0
 42 43  2  0  0  0  0
 43 44  1  0  0  0  0
 44 45  1  0  0  0  0
 45 46  2  0  0  0  0
 46 47  1  0  0  0  0
 47 48  2  0  0  0  0
 48 49  1  0  0  0  0
 49 50  2  0  0  0  0
 48 51  1  0  0  0  0
 51 52  2  0  0  0  0
 44 53  2  0  0  0  0
 53 54  1  0  0  0  0
 54 55  1  0  0  0  0
 53 56  1  0  0  0  0
 56 57  2  0  0  0  0
 17 58  1  0  0  0  0
 58 59  2  0  0  0  0
 58 13  1  0  0  0  0
 39 16  1  0  0  0  0
 57 42  1  0  0  0  0
 37 18  1  0  0  0  0
 57 38  1  0  0  0  0
 36 21  1  0  0  0  0
 52 45  1  0  0  0  0
 31 24  1  0  0  0  0
  1 60  1  0  0  0  0
  1 61  1  0  0  0  0
  1 62  1  0  0  0  0
  2 63  1  0  0  0  0
  2 64  1  0  0  0  0
  3 65  1  0  0  0  0
  3 66  1  0  0  0  0
  4 67  1  0  0  0  0
  4 68  1  0  0  0  0
  5 69  1  0  0  0  0
  5 70  1  0  0  0  0
  6 71  1  0  0  0  0
  6 72  1  0  0  0  0
  7 73  1  0  0  0  0
  7 74  1  0  0  0  0
  8 75  1  0  0  0  0
  8 76  1  0  0  0  0
  9 77  1  0  0  0  0
  9 78  1  0  0  0  0
 10 79  1  0  0  0  0
 10 80  1  0  0  0  0
 11 81  1  0  0  0  0
 11 82  1  0  0  0  0
 12 83  1  0  0  0  0
 12 84  1  0  0  0  0
 19 85  1  0  0  0  0
 20 86  1  0  0  0  0
 22 87  1  0  0  0  0
 25 88  1  0  0  0  0
 26 89  1  0  0  0  0
 28 90  1  0  0  0  0
 30 91  1  0  0  0  0
 31 92  1  0  0  0  0
 34 93  1  0  0  0  0
 34 94  1  0  0  0  0
 34 95  1  0  0  0  0
 35 96  1  0  0  0  0
 40 97  1  0  0  0  0
 41 98  1  0  0  0  0
 43 99  1  0  0  0  0
 46100  1  0  0  0  0
 47101  1  0  0  0  0
 49102  1  0  0  0  0
 51103  1  0  0  0  0
 52104  1  0  0  0  0
 55105  1  0  0  0  0
 55106  1  0  0  0  0
 55107  1  0  0  0  0
 56108  1  0  0  0  0
M  END
