
  xtb     03022213243D
 energy: -105.693160210333 gnorm: 0.000081515151 xtb: 6.4.1 (afa7bdf)
 76 82  0     0  0            999 V2000
   -7.7954   -2.5376    0.7476 C   0  0  0  0  0  0  0  0  0  0  0  0
   -7.0685   -1.4767    1.5764 C   0  0  0  0  0  0  0  0  0  0  0  0
   -6.0423   -0.7709    0.7365 C   0  0  0  0  0  0  0  0  0  0  0  0
   -6.3623    0.3982    0.0596 C   0  0  0  0  0  0  0  0  0  0  0  0
   -5.4376    1.0338   -0.7573 C   0  0  0  0  0  0  0  0  0  0  0  0
   -5.7753    2.3265   -1.4442 C   0  0  0  0  0  0  0  0  0  0  0  0
   -5.2764    3.5132   -0.6173 C   0  0  0  0  0  0  0  0  0  0  0  0
   -4.1738    0.4816   -0.9008 C   0  0  0  0  0  0  0  0  0  0  0  0
   -3.8337   -0.6822   -0.2212 C   0  0  0  0  0  0  0  0  0  0  0  0
   -2.5483   -1.2250   -0.3592 N   0  0  0  0  0  0  0  0  0  0  0  0
   -2.2514   -2.5346   -0.6670 C   0  0  0  0  0  0  0  0  0  0  0  0
   -3.1038   -3.5931   -0.9478 C   0  0  0  0  0  0  0  0  0  0  0  0
   -2.5375   -4.8162   -1.2519 C   0  0  0  0  0  0  0  0  0  0  0  0
   -1.1557   -4.9899   -1.2874 C   0  0  0  0  0  0  0  0  0  0  0  0
   -0.3020   -3.9347   -1.0344 C   0  0  0  0  0  0  0  0  0  0  0  0
   -0.8473   -2.6956   -0.7262 C   0  0  0  0  0  0  0  0  0  0  0  0
   -0.2728   -1.4135   -0.4321 C   0  0  0  0  0  0  0  0  0  0  0  0
    1.0421   -0.9819   -0.3322 C   0  0  0  0  0  0  0  0  0  0  0  0
    1.2343    0.3439    0.0104 C   0  0  0  0  0  0  0  0  0  0  0  0
    0.1451    1.2297    0.2319 C   0  0  0  0  0  0  0  0  0  0  0  0
   -1.1697    0.7980    0.1313 C   0  0  0  0  0  0  0  0  0  0  0  0
   -1.3619   -0.5274   -0.2124 C   0  0  0  0  0  0  0  0  0  0  0  0
    0.7189    2.5109    0.5302 C   0  0  0  0  0  0  0  0  0  0  0  0
    0.1734    3.7482    0.8452 C   0  0  0  0  0  0  0  0  0  0  0  0
    1.0267    4.8022    1.1041 C   0  0  0  0  0  0  0  0  0  0  0  0
    2.4085    4.6293    1.0666 C   0  0  0  0  0  0  0  0  0  0  0  0
    2.9751    3.4081    0.7555 C   0  0  0  0  0  0  0  0  0  0  0  0
    2.1230    2.3505    0.4700 C   0  0  0  0  0  0  0  0  0  0  0  0
    2.4205    1.0420    0.1579 N   0  0  0  0  0  0  0  0  0  0  0  0
    3.7076    0.5029    0.0195 C   0  0  0  0  0  0  0  0  0  0  0  0
    4.0533   -0.6591    0.7001 C   0  0  0  0  0  0  0  0  0  0  0  0
    5.3196   -1.2047    0.5571 C   0  0  0  0  0  0  0  0  0  0  0  0
    5.7032   -2.4409    1.3200 C   0  0  0  0  0  0  0  0  0  0  0  0
    6.3042   -2.0680    2.6763 C   0  0  0  0  0  0  0  0  0  0  0  0
    6.2427   -0.5627   -0.2574 C   0  0  0  0  0  0  0  0  0  0  0  0
    5.9159    0.6016   -0.9385 C   0  0  0  0  0  0  0  0  0  0  0  0
    6.9372    1.3087   -1.7835 C   0  0  0  0  0  0  0  0  0  0  0  0
    7.6662    2.3722   -0.9598 C   0  0  0  0  0  0  0  0  0  0  0  0
    4.6403    1.1276   -0.8001 C   0  0  0  0  0  0  0  0  0  0  0  0
   -4.7697   -1.3034    0.5975 C   0  0  0  0  0  0  0  0  0  0  0  0
   -8.5439   -3.0461    1.3508 H   0  0  0  0  0  0  0  0  0  0  0  0
   -7.0894   -3.2769    0.3759 H   0  0  0  0  0  0  0  0  0  0  0  0
   -8.2895   -2.0778   -0.1055 H   0  0  0  0  0  0  0  0  0  0  0  0
   -6.5832   -1.9567    2.4287 H   0  0  0  0  0  0  0  0  0  0  0  0
   -7.7954   -0.7569    1.9574 H   0  0  0  0  0  0  0  0  0  0  0  0
   -7.3506    0.8216    0.1715 H   0  0  0  0  0  0  0  0  0  0  0  0
   -6.8560    2.4068   -1.5752 H   0  0  0  0  0  0  0  0  0  0  0  0
   -5.3078    2.3548   -2.4307 H   0  0  0  0  0  0  0  0  0  0  0  0
   -5.5284    4.4516   -1.1057 H   0  0  0  0  0  0  0  0  0  0  0  0
   -4.1963    3.4643   -0.4987 H   0  0  0  0  0  0  0  0  0  0  0  0
   -5.7302    3.5023    0.3714 H   0  0  0  0  0  0  0  0  0  0  0  0
   -3.4502    0.9470   -1.5538 H   0  0  0  0  0  0  0  0  0  0  0  0
   -4.1756   -3.4635   -0.9416 H   0  0  0  0  0  0  0  0  0  0  0  0
   -3.1808   -5.6562   -1.4703 H   0  0  0  0  0  0  0  0  0  0  0  0
   -0.7518   -5.9627   -1.5260 H   0  0  0  0  0  0  0  0  0  0  0  0
    0.7691   -4.0643   -1.0788 H   0  0  0  0  0  0  0  0  0  0  0  0
    1.8660   -1.6519   -0.5207 H   0  0  0  0  0  0  0  0  0  0  0  0
   -1.9937    1.4673    0.3218 H   0  0  0  0  0  0  0  0  0  0  0  0
   -0.8977    3.8774    0.8915 H   0  0  0  0  0  0  0  0  0  0  0  0
    0.6224    5.7733    1.3489 H   0  0  0  0  0  0  0  0  0  0  0  0
    3.0515    5.4682    1.2897 H   0  0  0  0  0  0  0  0  0  0  0  0
    4.0469    3.2791    0.7479 H   0  0  0  0  0  0  0  0  0  0  0  0
    3.3303   -1.1299    1.3499 H   0  0  0  0  0  0  0  0  0  0  0  0
    6.4343   -3.0162    0.7483 H   0  0  0  0  0  0  0  0  0  0  0  0
    4.8228   -3.0671    1.4774 H   0  0  0  0  0  0  0  0  0  0  0  0
    7.1919   -1.4541    2.5410 H   0  0  0  0  0  0  0  0  0  0  0  0
    6.5813   -2.9626    3.2292 H   0  0  0  0  0  0  0  0  0  0  0  0
    5.5852   -1.5035    3.2657 H   0  0  0  0  0  0  0  0  0  0  0  0
    7.2332   -0.9813   -0.3676 H   0  0  0  0  0  0  0  0  0  0  0  0
    6.4472    1.7866   -2.6342 H   0  0  0  0  0  0  0  0  0  0  0  0
    7.6635    0.5896   -2.1668 H   0  0  0  0  0  0  0  0  0  0  0  0
    8.1652    1.9147   -0.1083 H   0  0  0  0  0  0  0  0  0  0  0  0
    8.4112    2.8808   -1.5674 H   0  0  0  0  0  0  0  0  0  0  0  0
    6.9609    3.1111   -0.5862 H   0  0  0  0  0  0  0  0  0  0  0  0
    4.3591    2.0178   -1.3435 H   0  0  0  0  0  0  0  0  0  0  0  0
   -4.4939   -2.1969    1.1381 H   0  0  0  0  0  0  0  0  0  0  0  0
  1  2  1  0  0  0  0
  2  3  1  0  0  0  0
  3  4  2  0  0  0  0
  4  5  1  0  0  0  0
  5  6  1  0  0  0  0
  6  7  1  0  0  0  0
  5  8  2  0  0  0  0
  8  9  1  0  0  0  0
  9 10  1  0  0  0  0
 10 11  1  0  0  0  0
 11 12  2  0  0  0  0
 12 13  1  0  0  0  0
 13 14  2  0  0  0  0
 14 15  1  0  0  0  0
 15 16  2  0  0  0  0
 16 17  1  0  0  0  0
 17 18  2  0  0  0  0
 18 19  1  0  0  0  0
 19 20  2  0  0  0  0
 20 21  1  0  0  0  0
 21 22  2  0  0  0  0
 20 23  1  0  0  0  0
 23 24  2  0  0  0  0
 24 25  1  0  0  0  0
 25 26  2  0  0  0  0
 26 27  1  0  0  0  0
 27 28  2  0  0  0  0
 28 29  1  0  0  0  0
 29 30  1  0  0  0  0
 30 31  2  0  0  0  0
 31 32  1  0  0  0  0
 32 33  1  0  0  0  0
 33 34  1  0  0  0  0
 32 35  2  0  0  0  0
 35 36  1  0  0  0  0
 36 37  1  0  0  0  0
 37 38  1  0  0  0  0
 36 39  2  0  0  0  0
  9 40  2  0  0  0  0
 40  3  1  0  0  0  0
 22 10  1  0  0  0  0
 28 23  1  0  0  0  0
 39 30  1  0  0  0  0
 16 11  1  0  0  0  0
 22 17  1  0  0  0  0
 29 19  1  0  0  0  0
  1 41  1  0  0  0  0
  1 42  1  0  0  0  0
  1 43  1  0  0  0  0
  2 44  1  0  0  0  0
  2 45  1  0  0  0  0
  4 46  1  0  0  0  0
  6 47  1  0  0  0  0
  6 48  1  0  0  0  0
  7 49  1  0  0  0  0
  7 50  1  0  0  0  0
  7 51  1  0  0  0  0
  8 52  1  0  0  0  0
 12 53  1  0  0  0  0
 13 54  1  0  0  0  0
 14 55  1  0  0  0  0
 15 56  1  0  0  0  0
 18 57  1  0  0  0  0
 21 58  1  0  0  0  0
 24 59  1  0  0  0  0
 25 60  1  0  0  0  0
 26 61  1  0  0  0  0
 27 62  1  0  0  0  0
 31 63  1  0  0  0  0
 33 64  1  0  0  0  0
 33 65  1  0  0  0  0
 34 66  1  0  0  0  0
 34 67  1  0  0  0  0
 34 68  1  0  0  0  0
 35 69  1  0  0  0  0
 37 70  1  0  0  0  0
 37 71  1  0  0  0  0
 38 72  1  0  0  0  0
 38 73  1  0  0  0  0
 38 74  1  0  0  0  0
 39 75  1  0  0  0  0
 40 76  1  0  0  0  0
M  END
